AV-unprocessed.smi:3232|AV-procd|sdf|12339|dock10
  -GOLD-   2272018203D 1   1.00000     0.00000
 Structure written by MMmdl.
 40 41  0  0  0  0  0  0  0  0  2 V2000
  144.3074  135.6555  152.6791 C   0  0  0  0  0  0  0  0  0  0  0  0
  145.8323  135.8262  152.6895 C   0  0  0  0  0  0  0  0  0  0  0  0
  146.5257  134.7119  151.9991 N   0  3  2  0  0  0  0  0  0  0  0  0
  145.9747  134.3675  150.6717 C   0  0  0  0  0  0  0  0  0  0  0  0
  146.4173  132.9317  150.4243 C   0  0  0  0  0  0  0  0  0  0  0  0
  146.3245  132.3043  151.8107 C   0  0  0  0  0  0  0  0  0  0  0  0
  146.6087  133.4592  152.7927 C   0  0  1  0  0  0  0  0  0  0  0  0
  147.9826  133.3537  153.4868 C   0  0  0  0  0  0  0  0  0  0  0  0
  148.4001  134.6176  154.0843 N   0  0  0  0  0  0  0  0  0  0  0  0
  148.6093  134.8162  155.3960 C   0  0  0  0  0  0  0  0  0  0  0  0
  148.4768  133.9227  156.2334 O   0  0  0  0  0  0  0  0  0  0  0  0
  149.0454  136.2321  155.8126 C   0  0  2  0  0  0  0  0  0  0  0  0
  150.3770  136.6685  155.1683 C   0  0  0  0  0  0  0  0  0  0  0  0
  149.0838  136.3538  157.2652 N   0  0  0  0  0  0  0  0  0  0  0  0
  150.0792  136.7335  158.0694 C   0  0  0  0  0  0  0  0  0  0  0  0
  149.7519  136.7655  159.3533 N   0  0  0  0  0  0  0  0  0  0  0  0
  148.4469  136.3714  159.2660 C   0  0  0  0  0  0  0  0  0  0  0  0
  147.9933  136.1216  158.0378 N   0  0  0  0  0  0  0  0  0  0  0  0
  143.8209  136.5149  153.1408 H   0  0  0  0  0  0  0  0  0  0  0  0
  143.9976  134.7691  153.2331 H   0  0  0  0  0  0  0  0  0  0  0  0
  143.9274  135.5674  151.6610 H   0  0  0  0  0  0  0  0  0  0  0  0
  146.0810  136.7600  152.1833 H   0  0  0  0  0  0  0  0  0  0  0  0
  146.1982  135.9179  153.7132 H   0  0  0  0  0  0  0  0  0  0  0  0
  144.8847  134.4152  150.6973 H   0  0  0  0  0  0  0  0  0  0  0  0
  146.3257  135.0493  149.8964 H   0  0  0  0  0  0  0  0  0  0  0  0
  145.8043  132.4191  149.6824 H   0  0  0  0  0  0  0  0  0  0  0  0
  147.4516  132.9164  150.0779 H   0  0  0  0  0  0  0  0  0  0  0  0
  145.3118  131.9321  151.9723 H   0  0  0  0  0  0  0  0  0  0  0  0
  147.0015  131.4566  151.9206 H   0  0  0  0  0  0  0  0  0  0  0  0
  145.8219  133.4601  153.5496 H   0  0  0  0  0  0  0  0  0  0  0  0
  147.9461  132.6016  154.2758 H   0  0  0  0  0  0  0  0  0  0  0  0
  148.7434  133.0177  152.7799 H   0  0  0  0  0  0  0  0  0  0  0  0
  148.5268  135.4008  153.4594 H   0  0  0  0  0  0  0  0  0  0  0  0
  148.2745  136.9163  155.4546 H   0  0  0  0  0  0  0  0  0  0  0  0
  150.3152  136.6460  154.0797 H   0  0  0  0  0  0  0  0  0  0  0  0
  151.2058  136.0247  155.4662 H   0  0  0  0  0  0  0  0  0  0  0  0
  150.6320  137.6883  155.4581 H   0  0  0  0  0  0  0  0  0  0  0  0
  151.0628  136.9966  157.7083 H   0  0  0  0  0  0  0  0  0  0  0  0
  147.8104  136.2722  160.1330 H   0  0  0  0  0  0  0  0  0  0  0  0
  147.4806  135.0017  151.8427 H   0  0  0  0  0  0  0  0  0  0  0  0
  1  2  1  0  0  0  0
  1 19  1  0  0  0  0
  1 20  1  0  0  0  0
  1 21  1  0  0  0  0
  2  3  1  0  0  0  0
  2 22  1  0  0  0  0
  2 23  1  0  0  0  0
  3  7  1  0  0  0  0
  3  4  1  0  0  0  0
  3 40  1  0  0  0  0
  4  5  1  0  0  0  0
  4 24  1  0  0  0  0
  4 25  1  0  0  0  0
  5  6  1  0  0  0  0
  5 26  1  0  0  0  0
  5 27  1  0  0  0  0
  6  7  1  0  0  0  0
  6 28  1  0  0  0  0
  6 29  1  0  0  0  0
  7  8  1  0  0  0  0
  7 30  1  0  0  0  0
  8  9  1  0  0  0  0
  8 31  1  0  0  0  0
  8 32  1  0  0  0  0
  9 10  1  0  0  0  0
  9 33  1  0  0  0  0
 10 11  2  0  0  0  0
 10 12  1  0  0  0  0
 12 13  1  0  0  0  0
 12 14  1  0  0  0  0
 12 34  1  0  0  0  0
 13 35  1  0  0  0  0
 13 36  1  0  0  0  0
 13 37  1  0  0  0  0
 14 18  1  0  0  0  0
 14 15  1  0  0  0  0
 15 16  2  0  0  0  0
 15 38  1  0  0  0  0
 16 17  1  0  0  0  0
 17 18  2  0  0  0  0
 17 39  1  0  0  0  0
M  CHG  1   3   1
M  END
> <s_m_source_file>
AV-unprocessed.smi

> <i_m_source_file_index>
3232

> <i_lp_mmshare_version>
43012

> <i_f3d_flags>
0

> <s_epik_input>
W0NIM11bQ0gyXU4xW0NIMl1bQ0gyXVtDSDJdW0NASF0xW0NIMl1bTkhdQyg9TylbQ0BIXShbQ0gzXSluMltjSF1uW2NIXW4y

> <s_epik_cmdline>
J2VwaWtfcHl0aG9uJywgJy1waCcsICc3LjAnLCAnLXRuJywgJzgnLCAnLW1hJywgJzIwMCcsICctbWV0YWxfYmluZGluZycsICctaW1hZScsICc8aW5maWxlLm1hZT4nLCAnLW9tYWUnLCAnPG91dGZpbGUubWFlPic=

> <r_lp_tautomer_probability>
1

> <r_epik_Ionization_Penalty>
0.00177695

> <r_epik_Ionization_Penalty_Charging>
0.00176881

> <r_epik_Ionization_Penalty_Neutral>
8.13528e-06

> <r_epik_State_Penalty>
0.00119827

> <r_epik_Charging_Adjusted_Penalty>
0.00296709

> <i_epik_Tot_Q>
1

> <i_epik_Tot_abs_Q>
1

> <r_epik_Metal_State_Penalty>
-0

> <b_epik_Metal_Only>
0

> <s_lp_Force_Field>
OPLS_2005

> <r_lp_Energy>
33.6963

> <b_lp_Chiralities_Consistent>
1

> <s_lp_Variant>
AV-unprocessed.smi:3232-1

> <Gold.Version>
5.8.1

> <Gold.Id.Protein>
6NUR|6NUR_protein|mol2

> <Gold.PLP.Fitness>
34.3183

> <Gold.PLP.PLP>
-22.8381

> <Gold.PLP.part.hbond>
-3.0000

> <Gold.PLP.part.metal>
0.0000

> <Gold.PLP.part.buried>
-3.2017

> <Gold.PLP.part.nonpolar>
-16.7770

> <Gold.PLP.part.repulsive>
0.0259

> <Gold.PLP.ligand.clash>
0.0000

> <Gold.PLP.ligand.torsion>
0.3201

> <Gold.PLP.Chemscore.Hbond>
4.0000

> <Gold.PLP.Chemscore.CHOScore>
0.0000

> <Gold.PLP.Chemscore.Metal>
0.0000

> <Gold.Chemscore.Hbonds>
donor molecule, donor type, donor heavy atom, donor atom, acceptor molecule, acceptor atom, score
      L1  H     3    40       P1  7948  2.00
      L1  H     9    33       P1  7948  1.00
      P1  H  6896  6908       L1    16  0.32

> <Gold.PLP.Chemscore.Internal.Correction>
0.1203

> <Gold.Rescore>
     Score         DG    S(hbond)    S(metal)    S(lipo)     H(rot)  DE(clash)    DE(int)     intcor
     12.04     -13.01       2.58        0.00      45.10       2.49       0.03       0.95       ----

> <Gold.Chemscore.Fitness>
12.0396

> <Gold.Chemscore.DG>
-13.0115

> <Gold.Chemscore.ZeroCoef>
-5.4800

> <Gold.Chemscore.Hbond>
2.5822

> <Gold.Chemscore.Metal>
0.0000

> <Gold.Chemscore.Lipo>
45.1011

> <Gold.Chemscore.Internal_Hbond>
0.0000

> <Gold.Chemscore.DEClash>
0.0269

> <Gold.Chemscore.DEInternal>
0.9450

> <Gold.Chemscore.Rot>
2.4882

> <Gold.Chemscore.Internal.Correction>
   9.000000E+99

> <Gold.Chemscore.Hbonds>
donor molecule, donor type, donor heavy atom, donor atom, acceptor molecule, acceptor atom, score
      L1  H     3    40       P1  7948  0.84
      L1  H     9    33       P1  7948  0.94
      P1  H  6896  6908       L1    16  0.02

> <Gold.Chemscore.Hbond.Weighted>
-8.6244

> <Gold.Chemscore.Metal.Weighted>
-0.0000

> <Gold.Chemscore.Lipo.Weighted>
-5.2768

> <Gold.Chemscore.Internal_Hbond.Weighted>
0.0000

> <Gold.Chemscore.DEClash.Weighted>
0.0269

> <Gold.Chemscore.DEInternal.Weighted>
0.9450

> <Gold.Chemscore.Rot.Weighted>
6.3697

> <Gold.Chemscore.Internal.Correction.Weighted>
   9.000000E+99

> <Gold.Protein.RotatedTorsions>
[ 6907 6896 6895 6894 ] final -145.66 input  -60.11 | X-H torsion
[ 7974 7965 7964 7962 ] final  130.30 input  175.53 | X-H torsion
[ 8008 7997 7996 7995 ] final -161.52 input   59.86 | X-H torsion
[ 10167 10162 10161 10158 ] final   77.32 input  -65.29 | X-H torsion
[ 10718 10713 10712 10709 ] final  103.40 input   66.30 | X-H torsion
[ 10763 10752 10751 10750 ] final  -60.86 input  -60.55 | X-H torsion
[ 11005 11000 10999 10996 ] final   77.61 input  -57.11 | X-H torsion

> <Gold.Protein.ActiveResidues>
 VAL166  LYS551  ARG553  GLY616  TRP617  ASP618  TYR619  PRO620  LYS621  CYS622 
 ASP623  PHE694  ASN695  SER759  ASP760  ASP761  ALA762  ILE779  LEU786  VAL792 
 PHE793  MET794  SER795  GLU796  ALA797  LYS798  CYS799  TRP800  GLU811  SER814 

> <Gold.Protein.RotatedAtoms>
  151.1309  133.5038  159.2598 H   0  0  0  0  0  0  0  0  0  0  0  0  # atno 6907 bound_to 6896
  151.1759  135.0338  159.8781 H   0  0  0  0  0  0  0  0  0  0  0  0  # atno 6908 bound_to 6896
  152.5459  134.1167  159.8435 H   0  0  0  0  0  0  0  0  0  0  0  0  # atno 6909 bound_to 6896
  145.0194  139.4146  143.5205 H   0  0  0  0  0  0  0  0  0  0  0  0  # atno 7974 bound_to 7965
  155.7934  140.0881  157.1996 H   0  0  0  0  0  0  0  0  0  0  0  0  # atno 8008 bound_to 7997
  154.3984  140.1486  156.3248 H   0  0  0  0  0  0  0  0  0  0  0  0  # atno 8009 bound_to 7997
  155.8535  140.3433  155.5711 H   0  0  0  0  0  0  0  0  0  0  0  0  # atno 8010 bound_to 7997
  139.9828  144.5814  150.7886 H   0  0  0  0  0  0  0  0  0  0  0  0  # atno 10167 bound_to 10162
  157.6773  131.0778  150.5550 H   0  0  0  0  0  0  0  0  0  0  0  0  # atno 10718 bound_to 10713
  154.2757  135.6282  153.5327 H   0  0  0  0  0  0  0  0  0  0  0  0  # atno 10763 bound_to 10752
  152.9873  135.5621  154.5551 H   0  0  0  0  0  0  0  0  0  0  0  0  # atno 10764 bound_to 10752
  154.5131  135.2878  155.1301 H   0  0  0  0  0  0  0  0  0  0  0  0  # atno 10765 bound_to 10752
  139.9247  134.7697  156.1544 H   0  0  0  0  0  0  0  0  0  0  0  0  # atno 11005 bound_to 11000
  146.3483  139.9683  142.8709 LP  0  0  0  0  0  0  0  0  0  0  0  0  # atno 17320 bound_to 7965
  145.1916  140.9814  143.4207 LP  0  0  0  0  0  0  0  0  0  0  0  0  # atno 17321 bound_to 7965
  140.7483  143.2920  151.3306 LP  0  0  0  0  0  0  0  0  0  0  0  0  # atno 17342 bound_to 10162
  139.6397  144.0563  152.2544 LP  0  0  0  0  0  0  0  0  0  0  0  0  # atno 17343 bound_to 10162
  156.5854  130.4315  149.5959 LP  0  0  0  0  0  0  0  0  0  0  0  0  # atno 17370 bound_to 10713
  156.2627  130.6972  151.1745 LP  0  0  0  0  0  0  0  0  0  0  0  0  # atno 17371 bound_to 10713
  141.0796  133.6760  156.2308 LP  0  0  0  0  0  0  0  0  0  0  0  0  # atno 17394 bound_to 11000
  140.6371  134.5205  157.5566 LP  0  0  0  0  0  0  0  0  0  0  0  0  # atno 17395 bound_to 11000

$$$$
