AV-unprocessed.smi:2278|AV-procd|sdf|9181|dock3
  -GOLD-   2272012393D 1   1.00000     0.00000
 Structure written by MMmdl.
 46 47  0  0  0  0  0  0  0  0  2 V2000
  151.9234  140.0882  156.2238 C   0  0  0  0  0  0  0  0  0  0  0  0
  150.5913  140.1083  155.4956 C   0  0  0  0  0  0  0  0  0  0  0  0
  150.5327  139.3511  154.3222 N   0  0  0  0  0  0  0  0  0  0  0  0
  149.4367  139.3055  153.6385 C   0  0  0  0  0  0  0  0  0  0  0  0
  148.2835  139.9993  154.0426 N   0  0  0  0  0  0  0  0  0  0  0  0
  147.1010  139.8514  153.1752 C   0  0  0  0  0  0  0  0  0  0  0  0
  147.0481  138.4801  152.4638 C   0  0  2  0  0  0  0  0  0  0  0  0
  146.9575  138.7220  151.0741 O   0  0  0  0  0  0  0  0  0  0  0  0
  145.8449  137.6083  152.8869 C   0  0  0  0  0  0  0  0  0  0  0  0
  145.9953  136.1875  152.4811 N   0  3  2  0  0  0  0  0  0  0  0  0
  145.4767  135.9365  151.1121 C   0  0  0  0  0  0  0  0  0  0  0  0
  145.7698  134.4944  150.6599 C   0  0  0  0  0  0  0  0  0  0  0  0
  145.2194  133.4491  151.6474 C   0  0  2  0  0  0  0  0  0  0  0  0
  143.6892  133.3043  151.5721 C   0  0  0  0  0  0  0  0  0  0  0  0
  145.7171  133.7762  153.0670 C   0  0  0  0  0  0  0  0  0  0  0  0
  145.4216  135.2327  153.4665 C   0  0  0  0  0  0  0  0  0  0  0  0
  148.2583  140.7686  155.1697 C   0  0  0  0  0  0  0  0  0  0  0  0
  147.2428  141.3744  155.5171 O   0  0  0  0  0  0  0  0  0  0  0  0
  149.5120  140.8086  155.9393 C   0  0  0  0  0  0  0  0  0  0  0  0
  149.5147  141.6455  157.2125 C   0  0  0  0  0  0  0  0  0  0  0  0
  152.3260  141.0976  156.3117 H   0  0  0  0  0  0  0  0  0  0  0  0
  152.6583  139.4818  155.6924 H   0  0  0  0  0  0  0  0  0  0  0  0
  151.8058  139.6708  157.2241 H   0  0  0  0  0  0  0  0  0  0  0  0
  149.3376  138.7285  152.7172 H   0  0  0  0  0  0  0  0  0  0  0  0
  146.1766  140.0160  153.7320 H   0  0  0  0  0  0  0  0  0  0  0  0
  147.1082  140.6482  152.4281 H   0  0  0  0  0  0  0  0  0  0  0  0
  147.9861  137.9557  152.6423 H   0  0  0  0  0  0  0  0  0  0  0  0
  146.0681  138.5621  150.7960 H   0  0  0  0  0  0  0  0  0  0  0  0
  145.6932  137.6422  153.9657 H   0  0  0  0  0  0  0  0  0  0  0  0
  144.9425  138.0296  152.4406 H   0  0  0  0  0  0  0  0  0  0  0  0
  144.4051  136.1390  151.0818 H   0  0  0  0  0  0  0  0  0  0  0  0
  145.9456  136.6277  150.4107 H   0  0  0  0  0  0  0  0  0  0  0  0
  145.3630  134.3240  149.6625 H   0  0  0  0  0  0  0  0  0  0  0  0
  146.8497  134.3664  150.5708 H   0  0  0  0  0  0  0  0  0  0  0  0
  145.6348  132.4802  151.3672 H   0  0  0  0  0  0  0  0  0  0  0  0
  143.1739  134.2291  151.8304 H   0  0  0  0  0  0  0  0  0  0  0  0
  143.3369  132.5304  152.2547 H   0  0  0  0  0  0  0  0  0  0  0  0
  143.3731  133.0209  150.5681 H   0  0  0  0  0  0  0  0  0  0  0  0
  145.2726  133.0920  153.7907 H   0  0  0  0  0  0  0  0  0  0  0  0
  146.7939  133.6084  153.1156 H   0  0  0  0  0  0  0  0  0  0  0  0
  145.8376  135.4132  154.4567 H   0  0  0  0  0  0  0  0  0  0  0  0
  144.3459  135.3934  153.5497 H   0  0  0  0  0  0  0  0  0  0  0  0
  148.7563  141.2781  157.9045 H   0  0  0  0  0  0  0  0  0  0  0  0
  149.2842  142.6856  156.9792 H   0  0  0  0  0  0  0  0  0  0  0  0
  150.4695  141.6304  157.7354 H   0  0  0  0  0  0  0  0  0  0  0  0
  146.9895  136.0124  152.4399 H   0  0  0  0  0  0  0  0  0  0  0  0
  1  2  1  0  0  0  0
  1 21  1  0  0  0  0
  1 22  1  0  0  0  0
  1 23  1  0  0  0  0
  2 19  2  0  0  0  0
  2  3  1  0  0  0  0
  3  4  2  0  0  0  0
  4  5  1  0  0  0  0
  4 24  1  0  0  0  0
  5  6  1  0  0  0  0
  5 17  1  0  0  0  0
  6  7  1  0  0  0  0
  6 25  1  0  0  0  0
  6 26  1  0  0  0  0
  7  8  1  0  0  0  0
  7  9  1  0  0  0  0
  7 27  1  0  0  0  0
  8 28  1  0  0  0  0
  9 10  1  0  0  0  0
  9 29  1  0  0  0  0
  9 30  1  0  0  0  0
 10 16  1  0  0  0  0
 10 11  1  0  0  0  0
 10 46  1  0  0  0  0
 11 12  1  0  0  0  0
 11 31  1  0  0  0  0
 11 32  1  0  0  0  0
 12 13  1  0  0  0  0
 12 33  1  0  0  0  0
 12 34  1  0  0  0  0
 13 14  1  0  0  0  0
 13 15  1  0  0  0  0
 13 35  1  0  0  0  0
 14 36  1  0  0  0  0
 14 37  1  0  0  0  0
 14 38  1  0  0  0  0
 15 16  1  0  0  0  0
 15 39  1  0  0  0  0
 15 40  1  0  0  0  0
 16 41  1  0  0  0  0
 16 42  1  0  0  0  0
 17 18  2  0  0  0  0
 17 19  1  0  0  0  0
 19 20  1  0  0  0  0
 20 43  1  0  0  0  0
 20 44  1  0  0  0  0
 20 45  1  0  0  0  0
M  CHG  1  10   1
M  END
> <s_m_source_file>
AV-unprocessed.smi

> <i_m_source_file_index>
2278

> <i_lp_mmshare_version>
43012

> <i_f3d_flags>
0

> <s_epik_input>
W0NIM11jMW5bY0hdbihjKD1PKWMxW0NIM10pW0NIMl1bQ0BIXShbT0hdKVtDSDJdTjJbQ0gyXVtDSDJdW0NIXShbQ0gzXSlbQ0gyXVtDSDJdMg==

> <s_epik_cmdline>
J2VwaWtfcHl0aG9uJywgJy1waCcsICc3LjAnLCAnLXRuJywgJzgnLCAnLW1hJywgJzIwMCcsICctbWV0YWxfYmluZGluZycsICctaW1hZScsICc8aW5maWxlLm1hZT4nLCAnLW9tYWUnLCAnPG91dGZpbGUubWFlPic=

> <r_lp_tautomer_probability>
1

> <r_epik_Ionization_Penalty>
0.00139489

> <r_epik_Ionization_Penalty_Charging>
0.00136819

> <r_epik_Ionization_Penalty_Neutral>
2.66975e-05

> <r_epik_State_Penalty>
0.000910892

> <r_epik_Charging_Adjusted_Penalty>
0.00227908

> <i_epik_Tot_Q>
1

> <i_epik_Tot_abs_Q>
1

> <r_epik_Metal_State_Penalty>
-0

> <b_epik_Metal_Only>
0

> <s_lp_Force_Field>
OPLS_2005

> <r_lp_Energy>
30.3115

> <b_lp_Chiralities_Consistent>
1

> <s_lp_Variant>
AV-unprocessed.smi:2278-3

> <Gold.Version>
5.8.1

> <Gold.Id.Protein>
6NUR|6NUR_protein|mol2

> <Gold.PLP.Fitness>
42.5875

> <Gold.PLP.PLP>
-31.8355

> <Gold.PLP.part.hbond>
-4.5809

> <Gold.PLP.part.metal>
0.0000

> <Gold.PLP.part.buried>
0.8055

> <Gold.PLP.part.nonpolar>
-27.7298

> <Gold.PLP.part.repulsive>
0.2288

> <Gold.PLP.ligand.clash>
0.0000

> <Gold.PLP.ligand.torsion>
1.6337

> <Gold.PLP.Chemscore.Hbond>
3.4920

> <Gold.PLP.Chemscore.CHOScore>
1.1600

> <Gold.PLP.Chemscore.Metal>
0.0000

> <Gold.Chemscore.Hbonds>
donor molecule, donor type, donor heavy atom, donor atom, acceptor molecule, acceptor atom, score
      L1  H     8    28       P1 10171  0.10
      L1  H    10    46       P1  7948  1.95
      P1  H  7954  7966       L1     8  0.96
      P1  H  7989  7998       L1     3  0.29
      L1  C     4    24       P1  7948  0.77
      L1  C     4    24       P1  7957  0.56

> <Gold.PLP.Chemscore.Internal.Correction>
0.0636

> <Gold.Rescore>
     Score         DG    S(hbond)    S(metal)    S(lipo)     H(rot)  DE(clash)    DE(int)     intcor
     13.22     -16.68       2.57        0.00      70.38       2.20       1.72       1.74       ----

> <Gold.Chemscore.Fitness>
13.2231

> <Gold.Chemscore.DG>
-16.6846

> <Gold.Chemscore.ZeroCoef>
-5.4800

> <Gold.Chemscore.Hbond>
2.5743

> <Gold.Chemscore.Metal>
0.0000

> <Gold.Chemscore.Lipo>
70.3848

> <Gold.Chemscore.Internal_Hbond>
0.0000

> <Gold.Chemscore.DEClash>
1.7191

> <Gold.Chemscore.DEInternal>
1.7424

> <Gold.Chemscore.Rot>
2.1986

> <Gold.Chemscore.Internal.Correction>
   9.000000E+99

> <Gold.Chemscore.Hbonds>
donor molecule, donor type, donor heavy atom, donor atom, acceptor molecule, acceptor atom, score
      L1  H     8    28       P1 10171  0.13
      L1  H    10    46       P1  7948  0.90
      P1  H  7954  7966       L1     8  0.67

> <Gold.Chemscore.Hbond.Weighted>
-8.5980

> <Gold.Chemscore.Metal.Weighted>
-0.0000

> <Gold.Chemscore.Lipo.Weighted>
-8.2350

> <Gold.Chemscore.Internal_Hbond.Weighted>
0.0000

> <Gold.Chemscore.DEClash.Weighted>
1.7191

> <Gold.Chemscore.DEInternal.Weighted>
1.7424

> <Gold.Chemscore.Rot.Weighted>
5.6285

> <Gold.Chemscore.Internal.Correction.Weighted>
   9.000000E+99

> <Gold.Protein.RotatedTorsions>
[ 6907 6896 6895 6894 ] final  162.34 input  -60.11 | X-H torsion
[ 7974 7965 7964 7962 ] final   39.73 input  175.53 | X-H torsion
[ 8008 7997 7996 7995 ] final -168.21 input   59.86 | X-H torsion
[ 10167 10162 10161 10158 ] final   89.06 input  -65.29 | X-H torsion
[ 10718 10713 10712 10709 ] final  161.82 input   66.30 | X-H torsion
[ 10763 10752 10751 10750 ] final -174.03 input  -60.55 | X-H torsion
[ 11005 11000 10999 10996 ] final -161.50 input  -57.11 | X-H torsion

> <Gold.Protein.ActiveResidues>
 VAL166  LYS551  ARG553  GLY616  TRP617  ASP618  TYR619  PRO620  LYS621  CYS622 
 ASP623  PHE694  ASN695  SER759  ASP760  ASP761  ALA762  ILE779  LEU786  VAL792 
 PHE793  MET794  SER795  GLU796  ALA797  LYS798  CYS799  TRP800  GLU811  SER814 

> <Gold.Protein.RotatedAtoms>
  151.9420  133.3640  159.3968 H   0  0  0  0  0  0  0  0  0  0  0  0  # atno 6907 bound_to 6896
  150.6996  134.4430  159.5310 H   0  0  0  0  0  0  0  0  0  0  0  0  # atno 6908 bound_to 6896
  152.2088  134.8520  160.0550 H   0  0  0  0  0  0  0  0  0  0  0  0  # atno 6909 bound_to 6896
  146.0961  139.5617  142.9444 H   0  0  0  0  0  0  0  0  0  0  0  0  # atno 7974 bound_to 7965
  155.8883  140.1020  157.1437 H   0  0  0  0  0  0  0  0  0  0  0  0  # atno 8008 bound_to 7997
  154.4012  140.1316  156.4347 H   0  0  0  0  0  0  0  0  0  0  0  0  # atno 8009 bound_to 7997
  155.7564  140.3464  155.5178 H   0  0  0  0  0  0  0  0  0  0  0  0  # atno 8010 bound_to 7997
  139.8611  144.6543  150.9057 H   0  0  0  0  0  0  0  0  0  0  0  0  # atno 10167 bound_to 10162
  157.1312  131.0517  151.2370 H   0  0  0  0  0  0  0  0  0  0  0  0  # atno 10718 bound_to 10713
  154.6010  135.2854  155.0535 H   0  0  0  0  0  0  0  0  0  0  0  0  # atno 10763 bound_to 10752
  154.1800  135.6458  153.5035 H   0  0  0  0  0  0  0  0  0  0  0  0  # atno 10764 bound_to 10752
  153.0157  135.5421  154.6729 H   0  0  0  0  0  0  0  0  0  0  0  0  # atno 10765 bound_to 10752
  140.6197  134.4763  157.5222 H   0  0  0  0  0  0  0  0  0  0  0  0  # atno 11005 bound_to 11000
  145.5946  141.0364  143.2052 LP  0  0  0  0  0  0  0  0  0  0  0  0  # atno 17320 bound_to 7965
  144.7396  139.7486  143.7316 LP  0  0  0  0  0  0  0  0  0  0  0  0  # atno 17321 bound_to 7965
  140.7775  143.3744  151.1591 LP  0  0  0  0  0  0  0  0  0  0  0  0  # atno 17342 bound_to 10162
  139.7373  143.8979  152.3039 LP  0  0  0  0  0  0  0  0  0  0  0  0  # atno 17343 bound_to 10162
  157.4390  130.7533  149.7053 LP  0  0  0  0  0  0  0  0  0  0  0  0  # atno 17370 bound_to 10713
  155.9807  130.4026  150.3511 LP  0  0  0  0  0  0  0  0  0  0  0  0  # atno 17371 bound_to 10713
  139.9158  134.8249  156.1371 LP  0  0  0  0  0  0  0  0  0  0  0  0  # atno 17394 bound_to 11000
  141.0751  133.6779  156.2219 LP  0  0  0  0  0  0  0  0  0  0  0  0  # atno 17395 bound_to 11000

$$$$
