AV-unprocessed.smi:3267|AV-procd|sdf|12505|dock3
  -GOLD-   2272018413D 1   1.00000     0.00000
 Structure written by MMmdl.
 38 39  0  0  0  0  0  0  0  0  1 V2000
  154.1901  140.2126  160.2289 C   0  0  0  0  0  0  0  0  0  0  0  0
  153.0357  141.1933  159.9658 C   0  0  1  0  0  0  0  0  0  0  0  0
  153.3901  142.6622  160.3007 C   0  0  0  0  0  0  0  0  0  0  0  0
  152.4360  143.6291  159.7821 N   0  0  0  0  0  0  0  0  0  0  0  0
  151.7223  144.5855  160.4738 C   0  0  0  0  0  0  0  0  0  0  0  0
  150.9530  145.2553  159.5663 C   0  0  0  0  0  0  0  0  0  0  0  0
  151.2646  144.6254  158.3292 C   0  0  0  0  0  0  0  0  0  0  0  0
  152.1506  143.6518  158.4616 N   0  0  0  0  0  0  0  0  0  0  0  0
  152.5942  141.0565  158.5795 N   0  0  0  0  0  0  0  0  0  0  0  0
  152.1231  139.9333  158.0207 C   0  0  0  0  0  0  0  0  0  0  0  0
  152.0153  138.8597  158.6137 O   0  0  0  0  0  0  0  0  0  0  0  0
  151.7829  140.1241  156.7389 N   0  0  0  0  0  0  0  0  0  0  0  0
  151.2625  139.0941  155.8476 C   0  0  0  0  0  0  0  0  0  0  0  0
  150.4277  139.7061  154.7109 C   0  0  2  0  0  0  0  0  0  0  0  0
  149.8279  141.0705  155.0501 C   0  0  0  0  0  0  0  0  0  0  0  0
  148.5775  141.1458  154.1852 C   0  0  0  0  0  0  0  0  0  0  0  0
  148.4072  139.7231  153.6463 C   0  0  0  0  0  0  0  0  0  0  0  0
  149.2719  138.9279  154.4428 O   0  0  0  0  0  0  0  0  0  0  0  0
  154.5480  140.2964  161.2552 H   0  0  0  0  0  0  0  0  0  0  0  0
  155.0356  140.3945  159.5647 H   0  0  0  0  0  0  0  0  0  0  0  0
  153.8686  139.1819  160.0762 H   0  0  0  0  0  0  0  0  0  0  0  0
  152.2083  140.8970  160.6133 H   0  0  0  0  0  0  0  0  0  0  0  0
  153.4842  142.8041  161.3784 H   0  0  0  0  0  0  0  0  0  0  0  0
  154.3678  142.9018  159.8811 H   0  0  0  0  0  0  0  0  0  0  0  0
  151.8229  144.7101  161.5420 H   0  0  0  0  0  0  0  0  0  0  0  0
  150.2701  146.0699  159.7567 H   0  0  0  0  0  0  0  0  0  0  0  0
  150.8758  144.8445  157.3457 H   0  0  0  0  0  0  0  0  0  0  0  0
  152.6370  141.8870  158.0073 H   0  0  0  0  0  0  0  0  0  0  0  0
  151.9052  141.0460  156.3463 H   0  0  0  0  0  0  0  0  0  0  0  0
  152.0698  138.4774  155.4483 H   0  0  0  0  0  0  0  0  0  0  0  0
  150.6348  138.4317  156.4441 H   0  0  0  0  0  0  0  0  0  0  0  0
  151.0238  139.7834  153.7994 H   0  0  0  0  0  0  0  0  0  0  0  0
  149.5436  141.1084  156.1026 H   0  0  0  0  0  0  0  0  0  0  0  0
  150.5238  141.8886  154.8619 H   0  0  0  0  0  0  0  0  0  0  0  0
  147.7172  141.4496  154.7826 H   0  0  0  0  0  0  0  0  0  0  0  0
  148.6887  141.8604  153.3692 H   0  0  0  0  0  0  0  0  0  0  0  0
  147.3771  139.3712  153.7072 H   0  0  0  0  0  0  0  0  0  0  0  0
  148.7264  139.6656  152.6047 H   0  0  0  0  0  0  0  0  0  0  0  0
  1  2  1  0  0  0  0
  1 19  1  0  0  0  0
  1 20  1  0  0  0  0
  1 21  1  0  0  0  0
  2  3  1  0  0  0  0
  2  9  1  0  0  0  0
  2 22  1  0  0  0  0
  3  4  1  0  0  0  0
  3 23  1  0  0  0  0
  3 24  1  0  0  0  0
  4  8  1  0  0  0  0
  4  5  1  0  0  0  0
  5  6  2  0  0  0  0
  5 25  1  0  0  0  0
  6  7  1  0  0  0  0
  6 26  1  0  0  0  0
  7  8  2  0  0  0  0
  7 27  1  0  0  0  0
  9 10  1  0  0  0  0
  9 28  1  0  0  0  0
 10 11  2  0  0  0  0
 10 12  1  0  0  0  0
 12 13  1  0  0  0  0
 12 29  1  0  0  0  0
 13 14  1  0  0  0  0
 13 30  1  0  0  0  0
 13 31  1  0  0  0  0
 14 18  1  0  0  0  0
 14 15  1  0  0  0  0
 14 32  1  0  0  0  0
 15 16  1  0  0  0  0
 15 33  1  0  0  0  0
 15 34  1  0  0  0  0
 16 17  1  0  0  0  0
 16 35  1  0  0  0  0
 16 36  1  0  0  0  0
 17 18  1  0  0  0  0
 17 37  1  0  0  0  0
 17 38  1  0  0  0  0
M  END
> <s_m_source_file>
AV-unprocessed.smi

> <i_m_source_file_index>
3267

> <i_lp_mmshare_version>
43012

> <i_f3d_flags>
0

> <s_epik_input>
bjFbY0hdW2NIXVtjSF1uMVtDSDJdW0NAQEhdKFtDSDNdKVtOSF1DKD1PKVtOSF1bQ0gyXVtDQEBIXTJbQ0gyXVtDSDJdW0NIMl1PMg==

> <s_epik_cmdline>
J2VwaWtfcHl0aG9uJywgJy1waCcsICc3LjAnLCAnLXRuJywgJzgnLCAnLW1hJywgJzIwMCcsICctbWV0YWxfYmluZGluZycsICctaW1hZScsICc8aW5maWxlLm1hZT4nLCAnLW9tYWUnLCAnPG91dGZpbGUubWFlPic=

> <r_lp_tautomer_probability>
1

> <r_epik_Ionization_Penalty>
6.24796e-05

> <r_epik_Ionization_Penalty_Charging>
0

> <r_epik_Ionization_Penalty_Neutral>
6.24796e-05

> <r_epik_State_Penalty>
-0

> <r_epik_Charging_Adjusted_Penalty>
0

> <i_epik_Tot_Q>
0

> <i_epik_Tot_abs_Q>
0

> <r_epik_Metal_State_Penalty>
-0

> <b_epik_Metal_Only>
0

> <s_lp_Force_Field>
OPLS_2005

> <r_lp_Energy>
14.7816

> <b_lp_Chiralities_Consistent>
1

> <s_lp_Variant>
AV-unprocessed.smi:3267-2

> <Gold.Version>
5.8.1

> <Gold.Id.Protein>
6NUR|6NUR_protein|mol2

> <Gold.PLP.Fitness>
40.4455

> <Gold.PLP.PLP>
-39.0686

> <Gold.PLP.part.hbond>
0.0000

> <Gold.PLP.part.metal>
0.0000

> <Gold.PLP.part.buried>
-2.4755

> <Gold.PLP.part.nonpolar>
-36.7027

> <Gold.PLP.part.repulsive>
0.4084

> <Gold.PLP.ligand.clash>
0.0000

> <Gold.PLP.ligand.torsion>
0.8375

> <Gold.PLP.Chemscore.Hbond>
0.0000

> <Gold.PLP.Chemscore.CHOScore>
1.0000

> <Gold.PLP.Chemscore.Metal>
0.0000

> <Gold.Chemscore.Hbonds>
donor molecule, donor type, donor heavy atom, donor atom, acceptor molecule, acceptor atom, score
      L1  C     7    27       P1  8028  0.91

> <Gold.PLP.Chemscore.Internal.Correction>
0.0518

> <Gold.Rescore>
     Score         DG    S(hbond)    S(metal)    S(lipo)     H(rot)  DE(clash)    DE(int)     intcor
     11.33     -12.15       0.00        0.00      97.99       1.87       0.04       0.78       ----

> <Gold.Chemscore.Fitness>
11.3320

> <Gold.Chemscore.DG>
-12.1511

> <Gold.Chemscore.ZeroCoef>
-5.4800

> <Gold.Chemscore.Hbond>
0.0000

> <Gold.Chemscore.Metal>
0.0000

> <Gold.Chemscore.Lipo>
97.9860

> <Gold.Chemscore.Internal_Hbond>
0.0000

> <Gold.Chemscore.DEClash>
0.0398

> <Gold.Chemscore.DEInternal>
0.7792

> <Gold.Chemscore.Rot>
1.8724

> <Gold.Chemscore.Internal.Correction>
   9.000000E+99

> <Gold.Chemscore.Hbond.Weighted>
-0.0000

> <Gold.Chemscore.Metal.Weighted>
-0.0000

> <Gold.Chemscore.Lipo.Weighted>
-11.4644

> <Gold.Chemscore.Internal_Hbond.Weighted>
0.0000

> <Gold.Chemscore.DEClash.Weighted>
0.0398

> <Gold.Chemscore.DEInternal.Weighted>
0.7792

> <Gold.Chemscore.Rot.Weighted>
4.7933

> <Gold.Chemscore.Internal.Correction.Weighted>
   9.000000E+99

> <Gold.Protein.RotatedTorsions>
[ 6907 6896 6895 6894 ] final   45.33 input  -60.11 | X-H torsion
[ 7974 7965 7964 7962 ] final  -18.47 input  175.53 | X-H torsion
[ 8008 7997 7996 7995 ] final -146.72 input   59.86 | X-H torsion
[ 10167 10162 10161 10158 ] final -105.69 input  -65.29 | X-H torsion
[ 10718 10713 10712 10709 ] final -103.00 input   66.30 | X-H torsion
[ 10763 10752 10751 10750 ] final  -29.34 input  -60.55 | X-H torsion
[ 11005 11000 10999 10996 ] final  146.72 input  -57.11 | X-H torsion

> <Gold.Protein.ActiveResidues>
 VAL166  LYS551  ARG553  GLY616  TRP617  ASP618  TYR619  PRO620  LYS621  CYS622 
 ASP623  PHE694  ASN695  SER759  ASP760  ASP761  ALA762  ILE779  LEU786  VAL792 
 PHE793  MET794  SER795  GLU796  ALA797  LYS798  CYS799  TRP800  GLU811  SER814 

> <Gold.Protein.RotatedAtoms>
  152.2432  134.8207  160.0456 H   0  0  0  0  0  0  0  0  0  0  0  0  # atno 6907 bound_to 6896
  151.8914  133.3512  159.3808 H   0  0  0  0  0  0  0  0  0  0  0  0  # atno 6908 bound_to 6896
  150.7060  134.4846  159.5531 H   0  0  0  0  0  0  0  0  0  0  0  0  # atno 6909 bound_to 6896
  146.1890  140.3926  142.8465 H   0  0  0  0  0  0  0  0  0  0  0  0  # atno 7974 bound_to 7965
  155.5640  140.0628  157.2822 H   0  0  0  0  0  0  0  0  0  0  0  0  # atno 8008 bound_to 7997
  154.4381  140.1880  156.0857 H   0  0  0  0  0  0  0  0  0  0  0  0  # atno 8009 bound_to 7997
  156.0426  140.3294  155.7264 H   0  0  0  0  0  0  0  0  0  0  0  0  # atno 8010 bound_to 7997
  140.1958  143.3856  152.1169 H   0  0  0  0  0  0  0  0  0  0  0  0  # atno 10167 bound_to 10162
  156.0249  130.5446  150.7189 H   0  0  0  0  0  0  0  0  0  0  0  0  # atno 10718 bound_to 10713
  153.7631  135.6918  153.4921 H   0  0  0  0  0  0  0  0  0  0  0  0  # atno 10763 bound_to 10752
  153.1925  135.4466  155.0165 H   0  0  0  0  0  0  0  0  0  0  0  0  # atno 10764 bound_to 10752
  154.8145  135.3393  154.7145 H   0  0  0  0  0  0  0  0  0  0  0  0  # atno 10765 bound_to 10752
  140.0816  134.9093  157.1510 H   0  0  0  0  0  0  0  0  0  0  0  0  # atno 11005 bound_to 11000
  144.8451  140.6917  143.6204 LP  0  0  0  0  0  0  0  0  0  0  0  0  # atno 17320 bound_to 7965
  145.3850  139.1628  143.4260 LP  0  0  0  0  0  0  0  0  0  0  0  0  # atno 17321 bound_to 7965
  139.5237  144.7075  151.5310 LP  0  0  0  0  0  0  0  0  0  0  0  0  # atno 17342 bound_to 10162
  140.6424  143.8862  150.6704 LP  0  0  0  0  0  0  0  0  0  0  0  0  # atno 17343 bound_to 10162
  157.4810  131.0902  151.0536 LP  0  0  0  0  0  0  0  0  0  0  0  0  # atno 17370 bound_to 10713
  157.0970  130.5966  149.5452 LP  0  0  0  0  0  0  0  0  0  0  0  0  # atno 17371 bound_to 10713
  140.3479  134.2631  155.7202 LP  0  0  0  0  0  0  0  0  0  0  0  0  # atno 17394 bound_to 11000
  141.2048  133.7875  157.0264 LP  0  0  0  0  0  0  0  0  0  0  0  0  # atno 17395 bound_to 11000

$$$$
