AV-unprocessed.smi:557|AV-procd|sdf|2920|dock4
  -GOLD-   2262023413D 1   1.00000     0.00000
 Structure written by MMmdl.
 47 49  0  0  0  0  0  0  0  0  2 V2000
  151.0790  141.9055  156.2451 C   0  0  0  0  0  0  0  0  0  0  0  0
  150.1540  141.1841  155.3975 N   0  0  0  0  0  0  0  0  0  0  0  0
  148.8170  141.4340  155.1745 C   0  0  0  0  0  0  0  0  0  0  0  0
  148.3633  140.4882  154.2985 C   0  0  0  0  0  0  0  0  0  0  0  0
  146.9805  140.3130  153.7357 C   0  0  0  0  0  0  0  0  0  0  0  0
  147.0206  139.7469  152.3101 C   0  0  0  0  0  0  0  0  0  0  0  0
  147.0973  138.2886  152.3384 N   0  0  0  0  0  0  0  0  0  0  0  0
  146.1405  137.4311  152.7321 C   0  0  0  0  0  0  0  0  0  0  0  0
  145.0421  137.8176  153.1264 O   0  0  0  0  0  0  0  0  0  0  0  0
  146.4851  136.1346  152.6533 N   0  0  0  0  0  0  0  0  0  0  0  0
  145.6296  135.0119  153.0255 C   0  0  2  0  0  0  0  0  0  0  0  0
  146.2367  134.1419  154.1406 C   0  0  0  0  0  0  0  0  0  0  0  0
  145.8689  132.6908  153.7739 C   0  0  0  0  0  0  0  0  0  0  0  0
  145.0085  132.7958  152.5803 N   0  3  2  0  0  0  0  0  0  0  0  0
  144.9394  131.6144  151.6931 C   0  0  0  0  0  0  0  0  0  0  0  0
  143.9277  131.8873  150.5625 C   0  0  0  0  0  0  0  0  0  0  0  0
  144.2452  133.1995  149.8167 C   0  0  0  0  0  0  0  0  0  0  0  0
  144.4012  134.3760  150.8001 C   0  0  0  0  0  0  0  0  0  0  0  0
  145.4373  134.0155  151.8788 C   0  0  1  0  0  0  0  0  0  0  0  0
  149.5185  139.6963  154.0404 C   0  0  0  0  0  0  0  0  0  0  0  0
  150.5872  140.1147  154.6986 N   0  0  0  0  0  0  0  0  0  0  0  0
  150.5348  142.6025  156.8833 H   0  0  0  0  0  0  0  0  0  0  0  0
  151.7831  142.4642  155.6281 H   0  0  0  0  0  0  0  0  0  0  0  0
  151.6304  141.2067  156.8750 H   0  0  0  0  0  0  0  0  0  0  0  0
  148.3033  142.2549  155.6530 H   0  0  0  0  0  0  0  0  0  0  0  0
  146.3932  139.6490  154.3713 H   0  0  0  0  0  0  0  0  0  0  0  0
  146.4488  141.2654  153.7308 H   0  0  0  0  0  0  0  0  0  0  0  0
  146.1270  140.0524  151.7634 H   0  0  0  0  0  0  0  0  0  0  0  0
  147.8842  140.1482  151.7769 H   0  0  0  0  0  0  0  0  0  0  0  0
  147.9674  137.8851  152.0218 H   0  0  0  0  0  0  0  0  0  0  0  0
  147.4109  135.9127  152.3167 H   0  0  0  0  0  0  0  0  0  0  0  0
  144.6546  135.3697  153.3640 H   0  0  0  0  0  0  0  0  0  0  0  0
  147.3218  134.2471  154.1838 H   0  0  0  0  0  0  0  0  0  0  0  0
  145.8421  134.4258  155.1167 H   0  0  0  0  0  0  0  0  0  0  0  0
  146.7716  132.1254  153.5374 H   0  0  0  0  0  0  0  0  0  0  0  0
  145.3488  132.1760  154.5820 H   0  0  0  0  0  0  0  0  0  0  0  0
  145.9262  131.4008  151.2795 H   0  0  0  0  0  0  0  0  0  0  0  0
  144.6337  130.7406  152.2695 H   0  0  0  0  0  0  0  0  0  0  0  0
  143.9154  131.0521  149.8618 H   0  0  0  0  0  0  0  0  0  0  0  0
  142.9237  131.9486  150.9845 H   0  0  0  0  0  0  0  0  0  0  0  0
  145.1682  133.0777  149.2483 H   0  0  0  0  0  0  0  0  0  0  0  0
  143.4618  133.4182  149.0904 H   0  0  0  0  0  0  0  0  0  0  0  0
  144.7097  135.2705  150.2591 H   0  0  0  0  0  0  0  0  0  0  0  0
  143.4399  134.6045  151.2624 H   0  0  0  0  0  0  0  0  0  0  0  0
  146.4031  133.8232  151.4052 H   0  0  0  0  0  0  0  0  0  0  0  0
  149.6104  138.8330  153.3980 H   0  0  0  0  0  0  0  0  0  0  0  0
  144.0727  132.9749  152.9160 H   0  0  0  0  0  0  0  0  0  0  0  0
  1  2  1  0  0  0  0
  1 22  1  0  0  0  0
  1 23  1  0  0  0  0
  1 24  1  0  0  0  0
  2 21  1  0  0  0  0
  2  3  1  0  0  0  0
  3  4  2  0  0  0  0
  3 25  1  0  0  0  0
  4  5  1  0  0  0  0
  4 20  1  0  0  0  0
  5  6  1  0  0  0  0
  5 26  1  0  0  0  0
  5 27  1  0  0  0  0
  6  7  1  0  0  0  0
  6 28  1  0  0  0  0
  6 29  1  0  0  0  0
  7  8  1  0  0  0  0
  7 30  1  0  0  0  0
  8  9  2  0  0  0  0
  8 10  1  0  0  0  0
 10 11  1  0  0  0  0
 10 31  1  0  0  0  0
 11 19  1  0  0  0  0
 11 12  1  0  0  0  0
 11 32  1  0  0  0  0
 12 13  1  0  0  0  0
 12 33  1  0  0  0  0
 12 34  1  0  0  0  0
 13 14  1  0  0  0  0
 13 35  1  0  0  0  0
 13 36  1  0  0  0  0
 14 19  1  0  0  0  0
 14 15  1  0  0  0  0
 14 47  1  0  0  0  0
 15 16  1  0  0  0  0
 15 37  1  0  0  0  0
 15 38  1  0  0  0  0
 16 17  1  0  0  0  0
 16 39  1  0  0  0  0
 16 40  1  0  0  0  0
 17 18  1  0  0  0  0
 17 41  1  0  0  0  0
 17 42  1  0  0  0  0
 18 19  1  0  0  0  0
 18 43  1  0  0  0  0
 18 44  1  0  0  0  0
 19 45  1  0  0  0  0
 20 21  2  0  0  0  0
 20 46  1  0  0  0  0
M  CHG  1  14   1
M  END
> <s_m_source_file>
AV-unprocessed.smi

> <i_m_source_file_index>
557

> <i_lp_mmshare_version>
43012

> <i_f3d_flags>
0

> <s_epik_input>
W0NIM11uMVtjSF1jKFtjSF1uMSlbQ0gyXVtDSDJdW05IXUMoPU8pW05IXVtDQEhdKFtDSDJdW0NIMl0yKVtDQEhdKE4yMylbQ0gyXVtDSDJdW0NIMl1bQ0gyXTM=

> <s_epik_cmdline>
J2VwaWtfcHl0aG9uJywgJy1waCcsICc3LjAnLCAnLXRuJywgJzgnLCAnLW1hJywgJzIwMCcsICctbWV0YWxfYmluZGluZycsICctaW1hZScsICc8aW5maWxlLm1hZT4nLCAnLW9tYWUnLCAnPG91dGZpbGUubWFlPic=

> <r_lp_tautomer_probability>
1

> <r_epik_Ionization_Penalty>
0.000956547

> <r_epik_Ionization_Penalty_Charging>
0.000435796

> <r_epik_Ionization_Penalty_Neutral>
0.000520752

> <r_epik_State_Penalty>
-0

> <r_epik_Charging_Adjusted_Penalty>
0.000435796

> <i_epik_Tot_Q>
1

> <i_epik_Tot_abs_Q>
1

> <r_epik_Metal_State_Penalty>
-0

> <b_epik_Metal_Only>
0

> <s_lp_Force_Field>
OPLS_2005

> <r_lp_Energy>
39.998

> <b_lp_Chiralities_Consistent>
1

> <s_lp_Variant>
AV-unprocessed.smi:557-7

> <Gold.Version>
5.8.1

> <Gold.Id.Protein>
6NUR|6NUR_protein|mol2

> <Gold.PLP.Fitness>
46.9246

> <Gold.PLP.PLP>
-35.2668

> <Gold.PLP.part.hbond>
-3.1930

> <Gold.PLP.part.metal>
0.0000

> <Gold.PLP.part.buried>
-1.8673

> <Gold.PLP.part.nonpolar>
-30.2085

> <Gold.PLP.part.repulsive>
0.8694

> <Gold.PLP.ligand.clash>
0.0000

> <Gold.PLP.ligand.torsion>
0.5583

> <Gold.PLP.Chemscore.Hbond>
2.9120

> <Gold.PLP.Chemscore.CHOScore>
1.3393

> <Gold.PLP.Chemscore.Metal>
0.0000

> <Gold.Chemscore.Hbonds>
donor molecule, donor type, donor heavy atom, donor atom, acceptor molecule, acceptor atom, score
      L1  H     7    30       P1  7948  0.91
      L1  H    10    31       P1  7948  1.00
      P1  H  7989  7998       L1    21  1.00
      L1  C     3    25       P1  8028  0.99
      L1  C    20    46       P1  7957  0.38

> <Gold.PLP.Chemscore.Internal.Correction>
0.0205

> <Gold.Rescore>
     Score         DG    S(hbond)    S(metal)    S(lipo)     H(rot)  DE(clash)    DE(int)     intcor
     19.44     -20.48       2.63        0.00      88.10       1.60       0.44       0.61       ----

> <Gold.Chemscore.Fitness>
19.4395

> <Gold.Chemscore.DG>
-20.4830

> <Gold.Chemscore.ZeroCoef>
-5.4800

> <Gold.Chemscore.Hbond>
2.6334

> <Gold.Chemscore.Metal>
0.0000

> <Gold.Chemscore.Lipo>
88.1041

> <Gold.Chemscore.Internal_Hbond>
0.0000

> <Gold.Chemscore.DEClash>
0.4382

> <Gold.Chemscore.DEInternal>
0.6052

> <Gold.Chemscore.Rot>
1.6018

> <Gold.Chemscore.Internal.Correction>
   9.000000E+99

> <Gold.Chemscore.Hbonds>
donor molecule, donor type, donor heavy atom, donor atom, acceptor molecule, acceptor atom, score
      L1  H     7    30       P1  7948  0.88
      L1  H    10    31       P1  7948  0.98
      P1  H  7989  7998       L1    21  0.19

> <Gold.Chemscore.Hbond.Weighted>
-8.7954

> <Gold.Chemscore.Metal.Weighted>
-0.0000

> <Gold.Chemscore.Lipo.Weighted>
-10.3082

> <Gold.Chemscore.Internal_Hbond.Weighted>
0.0000

> <Gold.Chemscore.DEClash.Weighted>
0.4382

> <Gold.Chemscore.DEInternal.Weighted>
0.6052

> <Gold.Chemscore.Rot.Weighted>
4.1006

> <Gold.Chemscore.Internal.Correction.Weighted>
   9.000000E+99

> <Gold.Protein.RotatedTorsions>
[ 6907 6896 6895 6894 ] final -135.76 input  -60.11 | X-H torsion
[ 7974 7965 7964 7962 ] final -104.88 input  175.53 | X-H torsion
[ 8008 7997 7996 7995 ] final  -32.13 input   59.86 | X-H torsion
[ 10167 10162 10161 10158 ] final   17.95 input  -65.29 | X-H torsion
[ 10718 10713 10712 10709 ] final   91.43 input   66.30 | X-H torsion
[ 10763 10752 10751 10750 ] final -120.54 input  -60.55 | X-H torsion
[ 11005 11000 10999 10996 ] final  172.47 input  -57.11 | X-H torsion

> <Gold.Protein.ActiveResidues>
 VAL166  LYS551  ARG553  GLY616  TRP617  ASP618  TYR619  PRO620  LYS621  CYS622 
 ASP623  PHE694  ASN695  SER759  ASP760  ASP761  ALA762  ILE779  LEU786  VAL792 
 PHE793  MET794  SER795  GLU796  ALA797  LYS798  CYS799  TRP800  GLU811  SER814 

> <Gold.Protein.RotatedAtoms>
  151.0018  133.6049  159.2693 H   0  0  0  0  0  0  0  0  0  0  0  0  # atno 6907 bound_to 6896
  151.3232  135.0823  159.9323 H   0  0  0  0  0  0  0  0  0  0  0  0  # atno 6908 bound_to 6896
  152.5276  133.9661  159.7794 H   0  0  0  0  0  0  0  0  0  0  0  0  # atno 6909 bound_to 6896
  145.2375  140.9193  143.3169 H   0  0  0  0  0  0  0  0  0  0  0  0  # atno 7974 bound_to 7965
  154.4190  140.1745  156.1678 H   0  0  0  0  0  0  0  0  0  0  0  0  # atno 8008 bound_to 7997
  155.9785  140.3379  155.6617 H   0  0  0  0  0  0  0  0  0  0  0  0  # atno 8009 bound_to 7997
  155.6531  140.0692  157.2570 H   0  0  0  0  0  0  0  0  0  0  0  0  # atno 8010 bound_to 7997
  140.5689  143.9199  150.6697 H   0  0  0  0  0  0  0  0  0  0  0  0  # atno 10167 bound_to 10162
  157.6960  131.0407  150.3728 H   0  0  0  0  0  0  0  0  0  0  0  0  # atno 10718 bound_to 10713
  154.8647  135.4199  154.2476 H   0  0  0  0  0  0  0  0  0  0  0  0  # atno 10763 bound_to 10752
  153.3429  135.6994  153.6858 H   0  0  0  0  0  0  0  0  0  0  0  0  # atno 10764 bound_to 10752
  153.5829  135.3569  155.2854 H   0  0  0  0  0  0  0  0  0  0  0  0  # atno 10765 bound_to 10752
  140.3300  134.7365  157.4127 H   0  0  0  0  0  0  0  0  0  0  0  0  # atno 11005 bound_to 11000
  144.9620  139.3970  143.6351 LP  0  0  0  0  0  0  0  0  0  0  0  0  # atno 17320 bound_to 7965
  146.3337  139.8677  142.8845 LP  0  0  0  0  0  0  0  0  0  0  0  0  # atno 17321 bound_to 7965
  140.2669  143.3484  152.1273 LP  0  0  0  0  0  0  0  0  0  0  0  0  # atno 17342 bound_to 10162
  139.5107  144.6888  151.5815 LP  0  0  0  0  0  0  0  0  0  0  0  0  # atno 17343 bound_to 10162
  156.4151  130.3942  149.6864 LP  0  0  0  0  0  0  0  0  0  0  0  0  # atno 17370 bound_to 10713
  156.4135  130.7733  151.2747 LP  0  0  0  0  0  0  0  0  0  0  0  0  # atno 17371 bound_to 10713
  140.0868  134.5655  155.8484 LP  0  0  0  0  0  0  0  0  0  0  0  0  # atno 17394 bound_to 11000
  141.2065  133.6656  156.6250 LP  0  0  0  0  0  0  0  0  0  0  0  0  # atno 17395 bound_to 11000

$$$$
