AV-unprocessed.smi:2774|AV-procd|sdf|10686|dock2
  -GOLD-   2272015133D 1   1.00000     0.00000
 Structure written by MMmdl.
 34 35  0  0  0  0  0  0  0  0  1 V2000
  149.5372  141.0738  153.6629 O   0  0  0  0  0  0  0  0  0  0  0  0
  149.1909  141.8437  154.7952 C   0  0  2  0  0  0  0  0  0  0  0  0
  150.2960  141.6632  155.8514 C   0  0  0  0  0  0  0  0  0  0  0  0
  150.1327  142.5997  156.9652 N   0  0  0  0  0  0  0  0  0  0  0  0
  151.3110  142.7870  157.8165 C   0  0  1  0  0  0  0  0  0  0  0  0
  151.0987  144.0357  158.6946 C   0  0  0  0  0  0  0  0  0  0  0  0
  152.3294  144.3867  159.5448 C   0  0  0  0  0  0  0  0  0  0  0  0
  152.6921  143.2683  160.5299 C   0  0  0  0  0  0  0  0  0  0  0  0
  153.1259  141.7437  159.6517 S   0  0  0  0  0  0  0  0  0  0  0  0
  151.6073  141.5399  158.6792 C   0  0  0  0  0  0  0  0  0  0  0  0
  147.8123  141.4806  155.3288 C   0  0  0  0  0  0  0  0  0  0  0  0
  146.6577  141.7063  154.5500 C   0  0  0  0  0  0  0  0  0  0  0  0
  145.4026  141.3620  155.0902 C   0  0  0  0  0  0  0  0  0  0  0  0
  145.2457  140.8230  156.3182 N   0  0  0  0  0  0  0  0  0  0  0  0
  146.3539  140.6090  157.0592 C   0  0  0  0  0  0  0  0  0  0  0  0
  147.6544  140.9185  156.6141 C   0  0  0  0  0  0  0  0  0  0  0  0
  149.3270  140.1698  153.8416 H   0  0  0  0  0  0  0  0  0  0  0  0
  149.1770  142.8855  154.4716 H   0  0  0  0  0  0  0  0  0  0  0  0
  150.2863  140.6334  156.2069 H   0  0  0  0  0  0  0  0  0  0  0  0
  151.2679  141.8237  155.3827 H   0  0  0  0  0  0  0  0  0  0  0  0
  149.8291  143.4997  156.6072 H   0  0  0  0  0  0  0  0  0  0  0  0
  152.1742  142.9741  157.1760 H   0  0  0  0  0  0  0  0  0  0  0  0
  150.8597  144.8900  158.0596 H   0  0  0  0  0  0  0  0  0  0  0  0
  150.2350  143.8902  159.3453 H   0  0  0  0  0  0  0  0  0  0  0  0
  153.1800  144.5988  158.8958 H   0  0  0  0  0  0  0  0  0  0  0  0
  152.1323  145.3045  160.0999 H   0  0  0  0  0  0  0  0  0  0  0  0
  153.5381  143.5683  161.1484 H   0  0  0  0  0  0  0  0  0  0  0  0
  151.8580  143.0671  161.2029 H   0  0  0  0  0  0  0  0  0  0  0  0
  150.7770  141.3357  159.3561 H   0  0  0  0  0  0  0  0  0  0  0  0
  151.7438  140.6511  158.0648 H   0  0  0  0  0  0  0  0  0  0  0  0
  146.7273  142.1384  153.5626 H   0  0  0  0  0  0  0  0  0  0  0  0
  144.4999  141.5247  154.5201 H   0  0  0  0  0  0  0  0  0  0  0  0
  146.1996  140.1790  158.0377 H   0  0  0  0  0  0  0  0  0  0  0  0
  148.5088  140.7306  157.2478 H   0  0  0  0  0  0  0  0  0  0  0  0
  1  2  1  0  0  0  0
  1 17  1  0  0  0  0
  2  3  1  0  0  0  0
  2 11  1  0  0  0  0
  2 18  1  0  0  0  0
  3  4  1  0  0  0  0
  3 19  1  0  0  0  0
  3 20  1  0  0  0  0
  4  5  1  0  0  0  0
  4 21  1  0  0  0  0
  5 10  1  0  0  0  0
  5  6  1  0  0  0  0
  5 22  1  0  0  0  0
  6  7  1  0  0  0  0
  6 23  1  0  0  0  0
  6 24  1  0  0  0  0
  7  8  1  0  0  0  0
  7 25  1  0  0  0  0
  7 26  1  0  0  0  0
  8  9  1  0  0  0  0
  8 27  1  0  0  0  0
  8 28  1  0  0  0  0
  9 10  1  0  0  0  0
 10 29  1  0  0  0  0
 10 30  1  0  0  0  0
 11 16  1  0  0  0  0
 11 12  2  0  0  0  0
 12 13  1  0  0  0  0
 12 31  1  0  0  0  0
 13 14  2  0  0  0  0
 13 32  1  0  0  0  0
 14 15  1  0  0  0  0
 15 16  2  0  0  0  0
 15 33  1  0  0  0  0
 16 34  1  0  0  0  0
M  END
> <s_m_source_file>
AV-unprocessed.smi

> <i_m_source_file_index>
2774

> <i_lp_mmshare_version>
43012

> <i_f3d_flags>
0

> <s_epik_input>
W2NIXTFbY0hdbltjSF1bY0hdYzFbQ0BIXShbT0hdKVtDSDJdW05IXVtDQEBIXTJbQ0gyXVtDSDJdW0NIMl1TW0NIMl0y

> <s_epik_cmdline>
J2VwaWtfcHl0aG9uJywgJy1waCcsICc3LjAnLCAnLXRuJywgJzgnLCAnLW1hJywgJzIwMCcsICctbWV0YWxfYmluZGluZycsICctaW1hZScsICc8aW5maWxlLm1hZT4nLCAnLW9tYWUnLCAnPG91dGZpbGUubWFlPic=

> <r_epik_Ionization_Penalty>
2.08116

> <r_epik_Ionization_Penalty_Charging>
0

> <r_epik_Ionization_Penalty_Neutral>
2.08116

> <r_epik_State_Penalty>
2.1944

> <r_epik_Charging_Adjusted_Penalty>
2.1944

> <i_epik_Tot_Q>
0

> <i_epik_Tot_abs_Q>
0

> <r_epik_Metal_State_Penalty>
2.1769

> <b_epik_Metal_Only>
0

> <s_lp_Force_Field>
OPLS_2005

> <r_lp_Energy>
10.4748

> <b_lp_Chiralities_Consistent>
1

> <s_lp_Variant>
AV-unprocessed.smi:2774-7

> <Gold.Version>
5.8.1

> <Gold.Id.Protein>
6NUR|6NUR_protein|mol2

> <Gold.PLP.Fitness>
43.8932

> <Gold.PLP.PLP>
-34.8180

> <Gold.PLP.part.hbond>
-4.0000

> <Gold.PLP.part.metal>
0.0000

> <Gold.PLP.part.buried>
-2.3872

> <Gold.PLP.part.nonpolar>
-28.7310

> <Gold.PLP.part.repulsive>
0.0413

> <Gold.PLP.ligand.clash>
0.0000

> <Gold.PLP.ligand.torsion>
0.2348

> <Gold.PLP.Chemscore.Hbond>
2.1767

> <Gold.PLP.Chemscore.CHOScore>
0.9965

> <Gold.PLP.Chemscore.Metal>
0.0000

> <Gold.Chemscore.Hbonds>
donor molecule, donor type, donor heavy atom, donor atom, acceptor molecule, acceptor atom, score
      L1  H     4    21       P1  8028  1.00
      P1  H  7989  7998       L1     1  0.24
      P1  H  8011  8017       L1     1  0.98
      L1  C    13    32       P1 10175  1.00

> <Gold.PLP.Chemscore.Internal.Correction>
0.0250

> <Gold.Rescore>
     Score         DG    S(hbond)    S(metal)    S(lipo)     H(rot)  DE(clash)    DE(int)     intcor
     17.00     -17.25       1.56        0.00      97.48       1.89       0.03       0.22       ----

> <Gold.Chemscore.Fitness>
16.9978

> <Gold.Chemscore.DG>
-17.2477

> <Gold.Chemscore.ZeroCoef>
-5.4800

> <Gold.Chemscore.Hbond>
1.5593

> <Gold.Chemscore.Metal>
0.0000

> <Gold.Chemscore.Lipo>
97.4795

> <Gold.Chemscore.Internal_Hbond>
0.0000

> <Gold.Chemscore.DEClash>
0.0339

> <Gold.Chemscore.DEInternal>
0.2160

> <Gold.Chemscore.Rot>
1.8928

> <Gold.Chemscore.Internal.Correction>
   9.000000E+99

> <Gold.Chemscore.Hbonds>
donor molecule, donor type, donor heavy atom, donor atom, acceptor molecule, acceptor atom, score
      L1  H     4    21       P1  8028  1.00
      P1  H  7989  7998       L1     1  0.05
      P1  H  8011  8017       L1     1  0.32

> <Gold.Chemscore.Hbond.Weighted>
-5.2081

> <Gold.Chemscore.Metal.Weighted>
-0.0000

> <Gold.Chemscore.Lipo.Weighted>
-11.4051

> <Gold.Chemscore.Internal_Hbond.Weighted>
0.0000

> <Gold.Chemscore.DEClash.Weighted>
0.0339

> <Gold.Chemscore.DEInternal.Weighted>
0.2160

> <Gold.Chemscore.Rot.Weighted>
4.8455

> <Gold.Chemscore.Internal.Correction.Weighted>
   9.000000E+99

> <Gold.Protein.RotatedTorsions>
[ 6907 6896 6895 6894 ] final   63.40 input  -60.11 | X-H torsion
[ 7974 7965 7964 7962 ] final  -92.24 input  175.53 | X-H torsion
[ 8008 7997 7996 7995 ] final  103.88 input   59.86 | X-H torsion
[ 10167 10162 10161 10158 ] final  159.35 input  -65.29 | X-H torsion
[ 10718 10713 10712 10709 ] final  178.63 input   66.30 | X-H torsion
[ 10763 10752 10751 10750 ] final   94.56 input  -60.55 | X-H torsion
[ 11005 11000 10999 10996 ] final  -12.48 input  -57.11 | X-H torsion

> <Gold.Protein.ActiveResidues>
 VAL166  LYS551  ARG553  GLY616  TRP617  ASP618  TYR619  PRO620  LYS621  CYS622 
 ASP623  PHE694  ASN695  SER759  ASP760  ASP761  ALA762  ILE779  LEU786  VAL792 
 PHE793  MET794  SER795  GLU796  ALA797  LYS798  CYS799  TRP800  GLU811  SER814 

> <Gold.Protein.RotatedAtoms>
  152.4250  134.5886  159.9967 H   0  0  0  0  0  0  0  0  0  0  0  0  # atno 6907 bound_to 6896
  151.6025  133.3349  159.3058 H   0  0  0  0  0  0  0  0  0  0  0  0  # atno 6908 bound_to 6896
  150.8139  134.7347  159.6778 H   0  0  0  0  0  0  0  0  0  0  0  0  # atno 6909 bound_to 6896
  145.4025  140.9538  143.2279 H   0  0  0  0  0  0  0  0  0  0  0  0  # atno 7974 bound_to 7965
  156.1523  140.3157  155.8668 H   0  0  0  0  0  0  0  0  0  0  0  0  # atno 8008 bound_to 7997
  155.3947  140.0496  157.3056 H   0  0  0  0  0  0  0  0  0  0  0  0  # atno 8009 bound_to 7997
  154.5070  140.2150  155.9244 H   0  0  0  0  0  0  0  0  0  0  0  0  # atno 8010 bound_to 7997
  139.4832  144.4739  151.8539 H   0  0  0  0  0  0  0  0  0  0  0  0  # atno 10167 bound_to 10162
  156.8877  130.9837  151.3053 H   0  0  0  0  0  0  0  0  0  0  0  0  # atno 10718 bound_to 10713
  153.2430  135.4285  155.0718 H   0  0  0  0  0  0  0  0  0  0  0  0  # atno 10763 bound_to 10752
  154.8349  135.3407  154.6622 H   0  0  0  0  0  0  0  0  0  0  0  0  # atno 10764 bound_to 10752
  153.7045  135.7026  153.5110 H   0  0  0  0  0  0  0  0  0  0  0  0  # atno 10765 bound_to 10752
  140.7662  133.8475  155.9167 H   0  0  0  0  0  0  0  0  0  0  0  0  # atno 11005 bound_to 11000
  144.8364  139.5543  143.6920 LP  0  0  0  0  0  0  0  0  0  0  0  0  # atno 17320 bound_to 7965
  146.2745  139.6718  142.9273 LP  0  0  0  0  0  0  0  0  0  0  0  0  # atno 17321 bound_to 7965
  140.4209  144.2244  150.5887 LP  0  0  0  0  0  0  0  0  0  0  0  0  # atno 17342 bound_to 10162
  140.4874  143.2358  151.8868 LP  0  0  0  0  0  0  0  0  0  0  0  0  # atno 17343 bound_to 10162
  157.6102  130.8577  149.8940 LP  0  0  0  0  0  0  0  0  0  0  0  0  # atno 17370 bound_to 10713
  156.0645  130.3694  150.0909 LP  0  0  0  0  0  0  0  0  0  0  0  0  # atno 17371 bound_to 10713
  140.9617  134.1647  157.4648 LP  0  0  0  0  0  0  0  0  0  0  0  0  # atno 17394 bound_to 11000
  139.8763  134.9947  156.5707 LP  0  0  0  0  0  0  0  0  0  0  0  0  # atno 17395 bound_to 11000

$$$$
