AV-unprocessed.smi:2121|AV-procd|sdf|8640|dock5
  -GOLD-   2272011393D 1   1.00000     0.00000
 Structure written by MMmdl.
 49 50  0  0  0  0  0  0  0  0  1 V2000
  150.0529  144.3007  159.4242 C   0  0  0  0  0  0  0  0  0  0  0  0
  151.5376  144.2218  159.0259 C   0  0  2  0  0  0  0  0  0  0  0  0
  151.8116  143.2361  157.8733 C   0  0  0  0  0  0  0  0  0  0  0  0
  151.7472  141.8532  158.3389 N   0  0  0  0  0  0  0  0  0  0  0  0
  151.6823  140.8682  157.3292 C   0  0  0  0  0  0  0  0  0  0  0  0
  150.7259  140.9745  156.2913 C   0  0  0  0  0  0  0  0  0  0  0  0
  150.6845  139.9853  155.2905 C   0  0  0  0  0  0  0  0  0  0  0  0
  151.5901  138.9088  155.3529 C   0  0  0  0  0  0  0  0  0  0  0  0
  151.5741  137.8299  154.2790 C   0  0  0  0  0  0  0  0  0  0  0  0
  150.5638  136.7980  154.4846 N   0  0  0  0  0  0  0  0  0  0  0  0
  150.5943  135.8780  155.4606 C   0  0  0  0  0  0  0  0  0  0  0  0
  151.4794  135.8307  156.3165 O   0  0  0  0  0  0  0  0  0  0  0  0
  149.4424  134.8607  155.4685 C   0  0  2  0  0  0  0  0  0  0  0  0
  150.0359  133.4549  155.2789 C   0  0  0  0  0  0  0  0  0  0  0  0
  148.5240  135.1207  154.3610 N   0  0  0  0  0  0  0  0  0  0  0  0
  147.1915  135.2202  154.4743 C   0  0  0  0  0  0  0  0  0  0  0  0
  146.6024  135.4855  153.3080 N   0  0  0  0  0  0  0  0  0  0  0  0
  146.5693  135.0865  155.5263 O   0  0  0  0  0  0  0  0  0  0  0  0
  152.5052  138.8815  156.4272 C   0  0  0  0  0  0  0  0  0  0  0  0
  152.5515  139.8289  157.3870 N   0  0  0  0  0  0  0  0  0  0  0  0
  152.5990  141.5974  159.4973 C   0  0  0  0  0  0  0  0  0  0  0  0
  152.2788  142.5898  160.6295 C   0  0  1  0  0  0  0  0  0  0  0  0
  153.2457  142.4430  161.8088 C   0  0  0  0  0  0  0  0  0  0  0  0
  152.3817  143.9264  160.1405 O   0  0  0  0  0  0  0  0  0  0  0  0
  149.4489  144.6597  158.5905 H   0  0  0  0  0  0  0  0  0  0  0  0
  149.9097  144.9906  160.2560 H   0  0  0  0  0  0  0  0  0  0  0  0
  149.6513  143.3315  159.7189 H   0  0  0  0  0  0  0  0  0  0  0  0
  151.8244  145.2169  158.6851 H   0  0  0  0  0  0  0  0  0  0  0  0
  151.1137  143.4311  157.0602 H   0  0  0  0  0  0  0  0  0  0  0  0
  152.8110  143.4122  157.4730 H   0  0  0  0  0  0  0  0  0  0  0  0
  150.0194  141.7904  156.2578 H   0  0  0  0  0  0  0  0  0  0  0  0
  149.9624  140.0525  154.4902 H   0  0  0  0  0  0  0  0  0  0  0  0
  151.4400  138.2843  153.2959 H   0  0  0  0  0  0  0  0  0  0  0  0
  152.5522  137.3488  154.2652 H   0  0  0  0  0  0  0  0  0  0  0  0
  149.7989  136.7674  153.8261 H   0  0  0  0  0  0  0  0  0  0  0  0
  148.9023  134.9051  156.4164 H   0  0  0  0  0  0  0  0  0  0  0  0
  150.7251  133.2045  156.0865 H   0  0  0  0  0  0  0  0  0  0  0  0
  150.5793  133.3651  154.3369 H   0  0  0  0  0  0  0  0  0  0  0  0
  149.2501  132.6987  155.2785 H   0  0  0  0  0  0  0  0  0  0  0  0
  148.9377  135.2540  153.4502 H   0  0  0  0  0  0  0  0  0  0  0  0
  145.5989  135.5793  153.2556 H   0  0  0  0  0  0  0  0  0  0  0  0
  147.1667  135.5859  152.4769 H   0  0  0  0  0  0  0  0  0  0  0  0
  153.2258  138.0826  156.5228 H   0  0  0  0  0  0  0  0  0  0  0  0
  152.4498  140.5795  159.8595 H   0  0  0  0  0  0  0  0  0  0  0  0
  153.6448  141.6878  159.1995 H   0  0  0  0  0  0  0  0  0  0  0  0
  151.2686  142.4097  160.9976 H   0  0  0  0  0  0  0  0  0  0  0  0
  153.2031  141.4379  162.2289 H   0  0  0  0  0  0  0  0  0  0  0  0
  152.9993  143.1467  162.6043 H   0  0  0  0  0  0  0  0  0  0  0  0
  154.2742  142.6344  161.5015 H   0  0  0  0  0  0  0  0  0  0  0  0
  1  2  1  0  0  0  0
  1 25  1  0  0  0  0
  1 26  1  0  0  0  0
  1 27  1  0  0  0  0
  2 24  1  0  0  0  0
  2  3  1  0  0  0  0
  2 28  1  0  0  0  0
  3  4  1  0  0  0  0
  3 29  1  0  0  0  0
  3 30  1  0  0  0  0
  4  5  1  0  0  0  0
  4 21  1  0  0  0  0
  5 20  1  0  0  0  0
  5  6  2  0  0  0  0
  6  7  1  0  0  0  0
  6 31  1  0  0  0  0
  7  8  2  0  0  0  0
  7 32  1  0  0  0  0
  8  9  1  0  0  0  0
  8 19  1  0  0  0  0
  9 10  1  0  0  0  0
  9 33  1  0  0  0  0
  9 34  1  0  0  0  0
 10 11  1  0  0  0  0
 10 35  1  0  0  0  0
 11 12  2  0  0  0  0
 11 13  1  0  0  0  0
 13 14  1  0  0  0  0
 13 15  1  0  0  0  0
 13 36  1  0  0  0  0
 14 37  1  0  0  0  0
 14 38  1  0  0  0  0
 14 39  1  0  0  0  0
 15 16  1  0  0  0  0
 15 40  1  0  0  0  0
 16 17  1  0  0  0  0
 16 18  2  0  0  0  0
 17 41  1  0  0  0  0
 17 42  1  0  0  0  0
 19 20  2  0  0  0  0
 19 43  1  0  0  0  0
 21 22  1  0  0  0  0
 21 44  1  0  0  0  0
 21 45  1  0  0  0  0
 22 23  1  0  0  0  0
 22 24  1  0  0  0  0
 22 46  1  0  0  0  0
 23 47  1  0  0  0  0
 23 48  1  0  0  0  0
 23 49  1  0  0  0  0
M  END
> <s_m_source_file>
AV-unprocessed.smi

> <i_m_source_file_index>
2121

> <i_lp_mmshare_version>
43012

> <i_f3d_flags>
0

> <s_epik_input>
W0NIM11bQ0BASF0xW0NIMl1OKFtDSDJdW0NASF0oTzEpW0NIM10pYzJbY0hdW2NIXWMoW2NIXW4yKVtDSDJdW05IXUMoPU8pW0NASF0oW0NIM10pW05IXUMoPU8pW05IMl0=

> <s_epik_cmdline>
J2VwaWtfcHl0aG9uJywgJy1waCcsICc3LjAnLCAnLXRuJywgJzgnLCAnLW1hJywgJzIwMCcsICctbWV0YWxfYmluZGluZycsICctaW1hZScsICc8aW5maWxlLm1hZT4nLCAnLW9tYWUnLCAnPG91dGZpbGUubWFlPic=

> <r_lp_tautomer_probability>
1

> <r_epik_Ionization_Penalty>
0.0063713

> <r_epik_Ionization_Penalty_Charging>
0

> <r_epik_Ionization_Penalty_Neutral>
0.0063713

> <r_epik_State_Penalty>
0.00467069

> <r_epik_Charging_Adjusted_Penalty>
0.00467069

> <i_epik_Tot_Q>
0

> <i_epik_Tot_abs_Q>
0

> <r_epik_Metal_State_Penalty>
-0

> <b_epik_Metal_Only>
0

> <s_lp_Force_Field>
OPLS_2005

> <r_lp_Energy>
12.6407

> <b_lp_Chiralities_Consistent>
1

> <s_lp_Variant>
AV-unprocessed.smi:2121-1

> <Gold.Version>
5.8.1

> <Gold.Id.Protein>
6NUR|6NUR_protein|mol2

> <Gold.PLP.Fitness>
57.0671

> <Gold.PLP.PLP>
-45.3451

> <Gold.PLP.part.hbond>
-6.0000

> <Gold.PLP.part.metal>
0.0000

> <Gold.PLP.part.buried>
-5.2335

> <Gold.PLP.part.nonpolar>
-35.0262

> <Gold.PLP.part.repulsive>
0.1502

> <Gold.PLP.ligand.clash>
0.0000

> <Gold.PLP.ligand.torsion>
0.6141

> <Gold.PLP.Chemscore.Hbond>
4.2015

> <Gold.PLP.Chemscore.CHOScore>
0.0000

> <Gold.PLP.Chemscore.Metal>
0.0000

> <Gold.Chemscore.Hbonds>
donor molecule, donor type, donor heavy atom, donor atom, acceptor molecule, acceptor atom, score
      L1  H    10    35       P1  7948  0.65
      L1  H    15    40       P1  7948  0.98
      L1  H    17    42       P1  7948  0.86
      P1  H  7997  8009       L1    20  0.30
      P1  H 10752 10764       L1    12  0.73

> <Gold.PLP.Chemscore.Internal.Correction>
0.3459

> <Gold.Rescore>
     Score         DG    S(hbond)    S(metal)    S(lipo)     H(rot)  DE(clash)    DE(int)     intcor
     20.24     -21.08       2.88        0.00     107.53       2.58       0.25       0.59       ----

> <Gold.Chemscore.Fitness>
20.2417

> <Gold.Chemscore.DG>
-21.0809

> <Gold.Chemscore.ZeroCoef>
-5.4800

> <Gold.Chemscore.Hbond>
2.8844

> <Gold.Chemscore.Metal>
0.0000

> <Gold.Chemscore.Lipo>
107.5341

> <Gold.Chemscore.Internal_Hbond>
0.0000

> <Gold.Chemscore.DEClash>
0.2473

> <Gold.Chemscore.DEInternal>
0.5919

> <Gold.Chemscore.Rot>
2.5838

> <Gold.Chemscore.Internal.Correction>
   9.000000E+99

> <Gold.Chemscore.Hbonds>
donor molecule, donor type, donor heavy atom, donor atom, acceptor molecule, acceptor atom, score
      L1  H    10    35       P1  7948  0.34
      L1  H    15    40       P1  7948  0.56
      L1  H    17    42       P1  7948  0.83
      P1  H 10752 10764       L1    12  0.25

> <Gold.Chemscore.Hbond.Weighted>
-9.6338

> <Gold.Chemscore.Metal.Weighted>
-0.0000

> <Gold.Chemscore.Lipo.Weighted>
-12.5815

> <Gold.Chemscore.Internal_Hbond.Weighted>
0.0000

> <Gold.Chemscore.DEClash.Weighted>
0.2473

> <Gold.Chemscore.DEInternal.Weighted>
0.5919

> <Gold.Chemscore.Rot.Weighted>
6.6145

> <Gold.Chemscore.Internal.Correction.Weighted>
   9.000000E+99

> <Gold.Protein.RotatedTorsions>
[ 6907 6896 6895 6894 ] final -118.99 input  -60.11 | X-H torsion
[ 7974 7965 7964 7962 ] final -160.25 input  175.53 | X-H torsion
[ 8008 7997 7996 7995 ] final  164.54 input   59.86 | X-H torsion
[ 10167 10162 10161 10158 ] final -127.88 input  -65.29 | X-H torsion
[ 10718 10713 10712 10709 ] final  -91.75 input   66.30 | X-H torsion
[ 10763 10752 10751 10750 ] final  -22.30 input  -60.55 | X-H torsion
[ 11005 11000 10999 10996 ] final  141.22 input  -57.11 | X-H torsion

> <Gold.Protein.ActiveResidues>
 VAL166  LYS551  ARG553  GLY616  TRP617  ASP618  TYR619  PRO620  LYS621  CYS622 
 ASP623  PHE694  ASN695  SER759  ASP760  ASP761  ALA762  ILE779  LEU786  VAL792 
 PHE793  MET794  SER795  GLU796  ALA797  LYS798  CYS799  TRP800  GLU811  SER814 

> <Gold.Protein.RotatedAtoms>
  150.8266  133.8161  159.3115 H   0  0  0  0  0  0  0  0  0  0  0  0  # atno 6907 bound_to 6896
  151.5903  135.1052  160.0047 H   0  0  0  0  0  0  0  0  0  0  0  0  # atno 6908 bound_to 6896
  152.4351  133.7305  159.6641 H   0  0  0  0  0  0  0  0  0  0  0  0  # atno 6909 bound_to 6896
  144.7434  140.3569  143.6104 H   0  0  0  0  0  0  0  0  0  0  0  0  # atno 7974 bound_to 7965
  156.1872  140.1694  156.8163 H   0  0  0  0  0  0  0  0  0  0  0  0  # atno 8008 bound_to 7997
  154.5428  140.0733  156.8570 H   0  0  0  0  0  0  0  0  0  0  0  0  # atno 8009 bound_to 7997
  155.3182  140.3372  155.4244 H   0  0  0  0  0  0  0  0  0  0  0  0  # atno 8010 bound_to 7997
  139.9562  143.6000  152.2460 H   0  0  0  0  0  0  0  0  0  0  0  0  # atno 10167 bound_to 10162
  155.9996  130.4960  150.5521 H   0  0  0  0  0  0  0  0  0  0  0  0  # atno 10718 bound_to 10713
  153.6498  135.6981  153.5213 H   0  0  0  0  0  0  0  0  0  0  0  0  # atno 10763 bound_to 10752
  153.2716  135.4213  155.0992 H   0  0  0  0  0  0  0  0  0  0  0  0  # atno 10764 bound_to 10752
  154.8479  135.3580  154.6042 H   0  0  0  0  0  0  0  0  0  0  0  0  # atno 10765 bound_to 10752
  140.0385  134.9317  157.0798 H   0  0  0  0  0  0  0  0  0  0  0  0  # atno 11005 bound_to 11000
  145.7218  139.1712  143.2480 LP  0  0  0  0  0  0  0  0  0  0  0  0  # atno 17320 bound_to 7965
  146.1272  140.7233  142.9429 LP  0  0  0  0  0  0  0  0  0  0  0  0  # atno 17321 bound_to 7965
  139.6589  144.7662  151.2000 LP  0  0  0  0  0  0  0  0  0  0  0  0  # atno 17342 bound_to 10162
  140.7567  143.6041  150.8670 LP  0  0  0  0  0  0  0  0  0  0  0  0  # atno 17343 bound_to 10162
  157.3443  131.0722  151.1763 LP  0  0  0  0  0  0  0  0  0  0  0  0  # atno 17370 bound_to 10713
  157.2601  130.6655  149.5971 LP  0  0  0  0  0  0  0  0  0  0  0  0  # atno 17371 bound_to 10713
  140.4108  134.1983  155.7163 LP  0  0  0  0  0  0  0  0  0  0  0  0  # atno 17394 bound_to 11000
  141.1870  133.8290  157.1047 LP  0  0  0  0  0  0  0  0  0  0  0  0  # atno 17395 bound_to 11000

$$$$
