AV-unprocessed.smi:1441|AV-procd|sdf|5875|dock2
  -GOLD-   22720 5553D 1   1.00000     0.00000
 Structure written by MMmdl.
 45 46  0  0  0  0  0  0  0  0  1 V2000
  147.2041  136.3254  163.0024 C   0  0  0  0  0  0  0  0  0  0  0  0
  147.7389  136.1390  161.6131 C   0  0  0  0  0  0  0  0  0  0  0  0
  147.3097  135.2140  160.6210 C   0  0  0  0  0  0  0  0  0  0  0  0
  148.1224  135.4649  159.5515 C   0  0  0  0  0  0  0  0  0  0  0  0
  148.1650  134.8250  158.2029 C   0  0  0  0  0  0  0  0  0  0  0  0
  148.9746  136.4886  159.9266 N   0  0  0  0  0  0  0  0  0  0  0  0
  150.0263  137.1381  159.1572 C   0  0  0  0  0  0  0  0  0  0  0  0
  149.5060  138.3349  158.3521 C   0  0  0  0  0  0  0  0  0  0  0  0
  148.5057  138.9544  158.7171 O   0  0  0  0  0  0  0  0  0  0  0  0
  150.1988  138.6474  157.2464 N   0  0  0  0  0  0  0  0  0  0  0  0
  149.8858  139.7535  156.3502 C   0  0  0  0  0  0  0  0  0  0  0  0
  151.0847  140.7084  156.2003 C   0  0  0  0  0  0  0  0  0  0  0  0
  151.5974  141.1370  157.5105 N   0  0  0  0  0  0  0  0  0  0  0  0
  151.0740  142.4161  158.0155 C   0  0  0  0  0  0  0  0  0  0  0  0
  152.1643  143.4980  158.1392 C   0  0  0  0  0  0  0  0  0  0  0  0
  153.0067  143.3924  159.4193 C   0  0  0  0  0  0  0  0  0  0  0  0
  153.8305  142.1016  159.5306 C   0  0  0  0  0  0  0  0  0  0  0  0
  152.9648  140.8314  159.5745 C   0  0  0  0  0  0  0  0  0  0  0  0
  152.4998  140.3828  158.1830 C   0  0  0  0  0  0  0  0  0  0  0  0
  152.9565  139.3327  157.7291 O   0  0  0  0  0  0  0  0  0  0  0  0
  148.7369  136.8981  161.1920 N   0  0  0  0  0  0  0  0  0  0  0  0
  146.3981  135.6219  163.2119 H   0  0  0  0  0  0  0  0  0  0  0  0
  146.8093  137.3323  163.1394 H   0  0  0  0  0  0  0  0  0  0  0  0
  147.9842  136.1675  163.7476 H   0  0  0  0  0  0  0  0  0  0  0  0
  146.5219  134.4781  160.6845 H   0  0  0  0  0  0  0  0  0  0  0  0
  147.3550  134.1045  158.0884 H   0  0  0  0  0  0  0  0  0  0  0  0
  149.1072  134.2977  158.0534 H   0  0  0  0  0  0  0  0  0  0  0  0
  148.0633  135.5706  157.4142 H   0  0  0  0  0  0  0  0  0  0  0  0
  150.8152  137.4587  159.8402 H   0  0  0  0  0  0  0  0  0  0  0  0
  150.4730  136.4125  158.4772 H   0  0  0  0  0  0  0  0  0  0  0  0
  151.0070  138.0874  157.0167 H   0  0  0  0  0  0  0  0  0  0  0  0
  149.6096  139.3361  155.3819 H   0  0  0  0  0  0  0  0  0  0  0  0
  149.0096  140.2936  156.7138 H   0  0  0  0  0  0  0  0  0  0  0  0
  151.8714  140.2300  155.6161 H   0  0  0  0  0  0  0  0  0  0  0  0
  150.7928  141.5773  155.6076 H   0  0  0  0  0  0  0  0  0  0  0  0
  150.3044  142.8011  157.3460 H   0  0  0  0  0  0  0  0  0  0  0  0
  150.5679  142.2644  158.9698 H   0  0  0  0  0  0  0  0  0  0  0  0
  152.8073  143.4900  157.2582 H   0  0  0  0  0  0  0  0  0  0  0  0
  151.6780  144.4740  158.1416 H   0  0  0  0  0  0  0  0  0  0  0  0
  153.6851  144.2449  159.4636 H   0  0  0  0  0  0  0  0  0  0  0  0
  152.3563  143.4846  160.2899 H   0  0  0  0  0  0  0  0  0  0  0  0
  154.5481  142.0452  158.7102 H   0  0  0  0  0  0  0  0  0  0  0  0
  154.4268  142.1499  160.4423 H   0  0  0  0  0  0  0  0  0  0  0  0
  153.5568  140.0228  160.0055 H   0  0  0  0  0  0  0  0  0  0  0  0
  152.1099  140.9579  160.2396 H   0  0  0  0  0  0  0  0  0  0  0  0
  1  2  1  0  0  0  0
  1 22  1  0  0  0  0
  1 23  1  0  0  0  0
  1 24  1  0  0  0  0
  2 21  2  0  0  0  0
  2  3  1  0  0  0  0
  3  4  2  0  0  0  0
  3 25  1  0  0  0  0
  4  5  1  0  0  0  0
  4  6  1  0  0  0  0
  5 26  1  0  0  0  0
  5 27  1  0  0  0  0
  5 28  1  0  0  0  0
  6  7  1  0  0  0  0
  6 21  1  0  0  0  0
  7  8  1  0  0  0  0
  7 29  1  0  0  0  0
  7 30  1  0  0  0  0
  8  9  2  0  0  0  0
  8 10  1  0  0  0  0
 10 11  1  0  0  0  0
 10 31  1  0  0  0  0
 11 12  1  0  0  0  0
 11 32  1  0  0  0  0
 11 33  1  0  0  0  0
 12 13  1  0  0  0  0
 12 34  1  0  0  0  0
 12 35  1  0  0  0  0
 13 19  1  0  0  0  0
 13 14  1  0  0  0  0
 14 15  1  0  0  0  0
 14 36  1  0  0  0  0
 14 37  1  0  0  0  0
 15 16  1  0  0  0  0
 15 38  1  0  0  0  0
 15 39  1  0  0  0  0
 16 17  1  0  0  0  0
 16 40  1  0  0  0  0
 16 41  1  0  0  0  0
 17 18  1  0  0  0  0
 17 42  1  0  0  0  0
 17 43  1  0  0  0  0
 18 19  1  0  0  0  0
 18 44  1  0  0  0  0
 18 45  1  0  0  0  0
 19 20  2  0  0  0  0
M  END
> <s_m_source_file>
AV-unprocessed.smi

> <i_m_source_file_index>
1441

> <i_lp_mmshare_version>
43012

> <i_f3d_flags>
0

> <s_epik_input>
W0NIM11jMVtjSF1jKFtDSDNdKW4objEpW0NIMl1DKD1PKVtOSF1bQ0gyXVtDSDJdTjJbQ0gyXVtDSDJdW0NIMl1bQ0gyXVtDSDJdQzI9Tw==

> <s_epik_cmdline>
J2VwaWtfcHl0aG9uJywgJy1waCcsICc3LjAnLCAnLXRuJywgJzgnLCAnLW1hJywgJzIwMCcsICctbWV0YWxfYmluZGluZycsICctaW1hZScsICc8aW5maWxlLm1hZT4nLCAnLW9tYWUnLCAnPG91dGZpbGUubWFlPic=

> <r_lp_tautomer_probability>
1

> <r_epik_Ionization_Penalty>
0.000341945

> <r_epik_Ionization_Penalty_Charging>
0

> <r_epik_Ionization_Penalty_Neutral>
0.000341945

> <r_epik_State_Penalty>
-0

> <r_epik_Charging_Adjusted_Penalty>
0

> <i_epik_Tot_Q>
0

> <i_epik_Tot_abs_Q>
0

> <r_epik_Metal_State_Penalty>
-0

> <b_epik_Metal_Only>
0

> <s_lp_Force_Field>
OPLS_2005

> <r_lp_Energy>
16.3244

> <b_lp_Chiralities_Consistent>
1

> <s_lp_Variant>
AV-unprocessed.smi:1441-1

> <Gold.Version>
5.8.1

> <Gold.Id.Protein>
6NUR|6NUR_protein|mol2

> <Gold.PLP.Fitness>
45.6986

> <Gold.PLP.PLP>
-41.1482

> <Gold.PLP.part.hbond>
-3.6063

> <Gold.PLP.part.metal>
0.0000

> <Gold.PLP.part.buried>
-4.3359

> <Gold.PLP.part.nonpolar>
-34.3682

> <Gold.PLP.part.repulsive>
0.0000

> <Gold.PLP.ligand.clash>
0.0000

> <Gold.PLP.ligand.torsion>
1.1087

> <Gold.PLP.Chemscore.Hbond>
2.2470

> <Gold.PLP.Chemscore.CHOScore>
0.0000

> <Gold.PLP.Chemscore.Metal>
0.0000

> <Gold.Chemscore.Hbonds>
donor molecule, donor type, donor heavy atom, donor atom, acceptor molecule, acceptor atom, score
      P1  H  6931  6943       L1    21  1.00
      P1  H  7997  8009       L1    20  0.90

> <Gold.PLP.Chemscore.Internal.Correction>
0.0266

> <Gold.Rescore>
     Score         DG    S(hbond)    S(metal)    S(lipo)     H(rot)  DE(clash)    DE(int)     intcor
     16.86     -17.76       1.95        0.00      88.02       1.77       0.05       0.85       ----

> <Gold.Chemscore.Fitness>
16.8626

> <Gold.Chemscore.DG>
-17.7646

> <Gold.Chemscore.ZeroCoef>
-5.4800

> <Gold.Chemscore.Hbond>
1.9524

> <Gold.Chemscore.Metal>
0.0000

> <Gold.Chemscore.Lipo>
88.0223

> <Gold.Chemscore.Internal_Hbond>
0.0000

> <Gold.Chemscore.DEClash>
0.0509

> <Gold.Chemscore.DEInternal>
0.8511

> <Gold.Chemscore.Rot>
1.7715

> <Gold.Chemscore.Internal.Correction>
   9.000000E+99

> <Gold.Chemscore.Hbonds>
donor molecule, donor type, donor heavy atom, donor atom, acceptor molecule, acceptor atom, score
      P1  H  6931  6943       L1    21  0.93
      P1  H  7997  8009       L1    20  0.18

> <Gold.Chemscore.Hbond.Weighted>
-6.5210

> <Gold.Chemscore.Metal.Weighted>
-0.0000

> <Gold.Chemscore.Lipo.Weighted>
-10.2986

> <Gold.Chemscore.Internal_Hbond.Weighted>
0.0000

> <Gold.Chemscore.DEClash.Weighted>
0.0509

> <Gold.Chemscore.DEInternal.Weighted>
0.8511

> <Gold.Chemscore.Rot.Weighted>
4.5351

> <Gold.Chemscore.Internal.Correction.Weighted>
   9.000000E+99

> <Gold.Protein.RotatedTorsions>
[ 6907 6896 6895 6894 ] final   82.85 input  -60.11 | X-H torsion
[ 7974 7965 7964 7962 ] final   33.83 input  175.53 | X-H torsion
[ 8008 7997 7996 7995 ] final  149.61 input   59.86 | X-H torsion
[ 10167 10162 10161 10158 ] final   38.56 input  -65.29 | X-H torsion
[ 10718 10713 10712 10709 ] final  -26.04 input   66.30 | X-H torsion
[ 10763 10752 10751 10750 ] final  -16.36 input  -60.55 | X-H torsion
[ 11005 11000 10999 10996 ] final -158.72 input  -57.11 | X-H torsion

> <Gold.Protein.ActiveResidues>
 VAL166  LYS551  ARG553  GLY616  TRP617  ASP618  TYR619  PRO620  LYS621  CYS622 
 ASP623  PHE694  ASN695  SER759  ASP760  ASP761  ALA762  ILE779  LEU786  VAL792 
 PHE793  MET794  SER795  GLU796  ALA797  LYS798  CYS799  TRP800  GLU811  SER814 

> <Gold.Protein.RotatedAtoms>
  152.5311  134.2985  159.9069 H   0  0  0  0  0  0  0  0  0  0  0  0  # atno 6907 bound_to 6896
  151.2936  133.4147  159.2642 H   0  0  0  0  0  0  0  0  0  0  0  0  # atno 6908 bound_to 6896
  151.0179  134.9463  159.8100 H   0  0  0  0  0  0  0  0  0  0  0  0  # atno 6909 bound_to 6896
  146.1394  139.6347  142.9173 H   0  0  0  0  0  0  0  0  0  0  0  0  # atno 7974 bound_to 7965
  156.2748  140.2097  156.5886 H   0  0  0  0  0  0  0  0  0  0  0  0  # atno 8008 bound_to 7997
  154.7001  140.0522  157.0473 H   0  0  0  0  0  0  0  0  0  0  0  0  # atno 8009 bound_to 7997
  155.0747  140.3180  155.4622 H   0  0  0  0  0  0  0  0  0  0  0  0  # atno 8010 bound_to 7997
  140.3924  144.1834  150.6131 H   0  0  0  0  0  0  0  0  0  0  0  0  # atno 10167 bound_to 10162
  156.4565  130.4495  149.6956 H   0  0  0  0  0  0  0  0  0  0  0  0  # atno 10718 bound_to 10713
  153.5574  135.7010  153.5563 H   0  0  0  0  0  0  0  0  0  0  0  0  # atno 10763 bound_to 10752
  153.3460  135.4008  155.1609 H   0  0  0  0  0  0  0  0  0  0  0  0  # atno 10764 bound_to 10752
  154.8653  135.3754  154.5089 H   0  0  0  0  0  0  0  0  0  0  0  0  # atno 10765 bound_to 10752
  140.6505  134.4456  157.5235 H   0  0  0  0  0  0  0  0  0  0  0  0  # atno 11005 bound_to 11000
  145.5081  141.0436  143.2503 LP  0  0  0  0  0  0  0  0  0  0  0  0  # atno 17320 bound_to 7965
  144.7776  139.6596  143.7168 LP  0  0  0  0  0  0  0  0  0  0  0  0  # atno 17321 bound_to 7965
  140.4826  143.2374  151.8934 LP  0  0  0  0  0  0  0  0  0  0  0  0  # atno 17342 bound_to 10162
  139.4788  144.5253  151.8743 LP  0  0  0  0  0  0  0  0  0  0  0  0  # atno 17343 bound_to 10162
  156.3762  130.7555  151.2544 LP  0  0  0  0  0  0  0  0  0  0  0  0  # atno 17370 bound_to 10713
  157.7500  131.0309  150.4157 LP  0  0  0  0  0  0  0  0  0  0  0  0  # atno 17371 bound_to 10713
  139.9047  134.8475  156.1751 LP  0  0  0  0  0  0  0  0  0  0  0  0  # atno 17394 bound_to 11000
  141.0540  133.6874  156.1826 LP  0  0  0  0  0  0  0  0  0  0  0  0  # atno 17395 bound_to 11000

$$$$
