AV-unprocessed.smi:1695|AV-procd|sdf|6790|dock6
  -GOLD-   22720 7553D 1   1.00000     0.00000
 Structure written by MMmdl.
 51 53  0  0  0  0  0  0  0  0  2 V2000
  151.9300  143.9593  159.0929 C   0  0  0  0  0  0  0  0  0  0  0  0
  151.8020  142.6786  158.2872 C   0  0  0  0  0  0  0  0  0  0  0  0
  150.9849  142.6712  157.1341 C   0  0  0  0  0  0  0  0  0  0  0  0
  150.8392  141.5010  156.3576 C   0  0  0  0  0  0  0  0  0  0  0  0
  150.1024  141.2700  155.2086 N   0  0  0  0  0  0  0  0  0  0  0  0
  150.3751  139.9912  154.9671 C   0  0  0  0  0  0  0  0  0  0  0  0
  151.1973  139.3629  155.8298 N   0  0  0  0  0  0  0  0  0  0  0  0
  151.6323  137.9789  155.7789 C   0  0  0  0  0  0  0  0  0  0  0  0
  150.9169  137.1797  154.6731 C   0  0  1  0  0  0  0  0  0  0  0  0
  151.7114  137.1878  153.5023 O   0  0  0  0  0  0  0  0  0  0  0  0
  150.6717  135.7175  155.0938 C   0  0  0  0  0  0  0  0  0  0  0  0
  149.3907  135.1784  154.5685 N   0  3  1  0  0  0  0  0  0  0  0  0
  149.4292  133.7033  154.3999 C   0  0  0  0  0  0  0  0  0  0  0  0
  148.1515  133.1848  153.7118 C   0  0  0  0  0  0  0  0  0  0  0  0
  146.8540  133.6197  154.4255 C   0  0  1  0  0  0  0  0  0  0  0  0
  146.5724  132.8035  155.7010 C   0  0  0  0  0  0  0  0  0  0  0  0
  145.4217  132.1273  155.7446 N   0  0  0  0  0  0  0  0  0  0  0  0
  147.3722  132.7783  156.6339 O   0  0  0  0  0  0  0  0  0  0  0  0
  146.8952  135.1409  154.6856 C   0  0  0  0  0  0  0  0  0  0  0  0
  148.2029  135.6110  155.3514 C   0  0  0  0  0  0  0  0  0  0  0  0
  151.5372  140.3286  156.7707 C   0  0  0  0  0  0  0  0  0  0  0  0
  152.3537  140.3234  157.9152 C   0  0  0  0  0  0  0  0  0  0  0  0
  152.4894  141.5018  158.6788 C   0  0  0  0  0  0  0  0  0  0  0  0
  153.3740  141.4877  159.9130 C   0  0  0  0  0  0  0  0  0  0  0  0
  151.3453  144.7672  158.6524 H   0  0  0  0  0  0  0  0  0  0  0  0
  152.9699  144.2837  159.1332 H   0  0  0  0  0  0  0  0  0  0  0  0
  151.5745  143.8062  160.1121 H   0  0  0  0  0  0  0  0  0  0  0  0
  150.4616  143.5674  156.8350 H   0  0  0  0  0  0  0  0  0  0  0  0
  149.9474  139.4796  154.1172 H   0  0  0  0  0  0  0  0  0  0  0  0
  152.7132  137.9570  155.6303 H   0  0  0  0  0  0  0  0  0  0  0  0
  151.4423  137.5280  156.7537 H   0  0  0  0  0  0  0  0  0  0  0  0
  149.9729  137.6739  154.4455 H   0  0  0  0  0  0  0  0  0  0  0  0
  151.2205  136.7810  152.8039 H   0  0  0  0  0  0  0  0  0  0  0  0
  151.5035  135.1127  154.7286 H   0  0  0  0  0  0  0  0  0  0  0  0
  150.6835  135.6222  156.1808 H   0  0  0  0  0  0  0  0  0  0  0  0
  150.2895  133.4300  153.7875 H   0  0  0  0  0  0  0  0  0  0  0  0
  149.5761  133.2249  155.3687 H   0  0  0  0  0  0  0  0  0  0  0  0
  148.1291  133.5548  152.6858 H   0  0  0  0  0  0  0  0  0  0  0  0
  148.1937  132.0975  153.6329 H   0  0  0  0  0  0  0  0  0  0  0  0
  146.0263  133.4281  153.7401 H   0  0  0  0  0  0  0  0  0  0  0  0
  145.1876  131.5766  156.5581 H   0  0  0  0  0  0  0  0  0  0  0  0
  144.7859  132.1692  154.9609 H   0  0  0  0  0  0  0  0  0  0  0  0
  146.7761  135.6632  153.7354 H   0  0  0  0  0  0  0  0  0  0  0  0
  146.0435  135.4427  155.2973 H   0  0  0  0  0  0  0  0  0  0  0  0
  148.2774  135.2340  156.3718 H   0  0  0  0  0  0  0  0  0  0  0  0
  148.1775  136.6970  155.4294 H   0  0  0  0  0  0  0  0  0  0  0  0
  152.8721  139.4205  158.2022 H   0  0  0  0  0  0  0  0  0  0  0  0
  153.8442  140.5142  160.0552 H   0  0  0  0  0  0  0  0  0  0  0  0
  152.7876  141.7108  160.8047 H   0  0  0  0  0  0  0  0  0  0  0  0
  154.1664  142.2310  159.8242 H   0  0  0  0  0  0  0  0  0  0  0  0
  149.2881  135.5628  153.6397 H   0  0  0  0  0  0  0  0  0  0  0  0
  1  2  1  0  0  0  0
  1 25  1  0  0  0  0
  1 26  1  0  0  0  0
  1 27  1  0  0  0  0
  2 23  1  0  0  0  0
  2  3  2  0  0  0  0
  3  4  1  0  0  0  0
  3 28  1  0  0  0  0
  4 21  2  0  0  0  0
  4  5  1  0  0  0  0
  5  6  2  0  0  0  0
  6  7  1  0  0  0  0
  6 29  1  0  0  0  0
  7  8  1  0  0  0  0
  7 21  1  0  0  0  0
  8  9  1  0  0  0  0
  8 30  1  0  0  0  0
  8 31  1  0  0  0  0
  9 10  1  0  0  0  0
  9 11  1  0  0  0  0
  9 32  1  0  0  0  0
 10 33  1  0  0  0  0
 11 12  1  0  0  0  0
 11 34  1  0  0  0  0
 11 35  1  0  0  0  0
 12 20  1  0  0  0  0
 12 13  1  0  0  0  0
 12 51  1  0  0  0  0
 13 14  1  0  0  0  0
 13 36  1  0  0  0  0
 13 37  1  0  0  0  0
 14 15  1  0  0  0  0
 14 38  1  0  0  0  0
 14 39  1  0  0  0  0
 15 16  1  0  0  0  0
 15 19  1  0  0  0  0
 15 40  1  0  0  0  0
 16 17  1  0  0  0  0
 16 18  2  0  0  0  0
 17 41  1  0  0  0  0
 17 42  1  0  0  0  0
 19 20  1  0  0  0  0
 19 43  1  0  0  0  0
 19 44  1  0  0  0  0
 20 45  1  0  0  0  0
 20 46  1  0  0  0  0
 21 22  1  0  0  0  0
 22 23  2  0  0  0  0
 22 47  1  0  0  0  0
 23 24  1  0  0  0  0
 24 48  1  0  0  0  0
 24 49  1  0  0  0  0
 24 50  1  0  0  0  0
M  CHG  1  12   1
M  END
> <s_m_source_file>
AV-unprocessed.smi

> <i_m_source_file_index>
1695

> <i_lp_mmshare_version>
43012

> <i_f3d_flags>
0

> <s_epik_input>
W0NIM11jKFtjSF0xKWMoW0NIM10pW2NIXWMoYzEyKW4oW2NIXW4yKVtDSDJdW0NASF0oW09IXSlbQ0gyXU4zW0NIMl1bQ0gyXVtDSF0oQyg9TylbTkgyXSlbQ0gyXVtDSDJdMw==

> <s_epik_cmdline>
J2VwaWtfcHl0aG9uJywgJy1waCcsICc3LjAnLCAnLXRuJywgJzgnLCAnLW1hJywgJzIwMCcsICctbWV0YWxfYmluZGluZycsICctaW1hZScsICc8aW5maWxlLm1hZT4nLCAnLW9tYWUnLCAnPG91dGZpbGUubWFlPic=

> <r_epik_Ionization_Penalty>
0.113899

> <r_epik_Ionization_Penalty_Charging>
0.0258844

> <r_epik_Ionization_Penalty_Neutral>
0.0880147

> <r_epik_State_Penalty>
0.0974403

> <r_epik_Charging_Adjusted_Penalty>
0.123325

> <i_epik_Tot_Q>
1

> <i_epik_Tot_abs_Q>
1

> <r_epik_Metal_State_Penalty>
0.0851148

> <b_epik_Metal_Only>
0

> <s_lp_Force_Field>
OPLS_2005

> <r_lp_Energy>
15.764

> <b_lp_Chiralities_Consistent>
1

> <s_lp_Variant>
AV-unprocessed.smi:1695-2

> <Gold.Version>
5.8.1

> <Gold.Id.Protein>
6NUR|6NUR_protein|mol2

> <Gold.PLP.Fitness>
52.4472

> <Gold.PLP.PLP>
-41.5944

> <Gold.PLP.part.hbond>
-4.6905

> <Gold.PLP.part.metal>
0.0000

> <Gold.PLP.part.buried>
-2.1874

> <Gold.PLP.part.nonpolar>
-35.1329

> <Gold.PLP.part.repulsive>
0.1356

> <Gold.PLP.ligand.clash>
0.0000

> <Gold.PLP.ligand.torsion>
1.2548

> <Gold.PLP.Chemscore.Hbond>
4.4243

> <Gold.PLP.Chemscore.CHOScore>
0.0000

> <Gold.PLP.Chemscore.Metal>
0.0000

> <Gold.Chemscore.Hbonds>
donor molecule, donor type, donor heavy atom, donor atom, acceptor molecule, acceptor atom, score
      L1  H    10    33       P1  7949  1.00
      L1  H    12    51       P1  7948  2.00
      L1  H    17    42       P1 10957  0.46
      P1  H 10752 10764       L1    10  0.94

> <Gold.PLP.Chemscore.Internal.Correction>
0.0895

> <Gold.Rescore>
     Score         DG    S(hbond)    S(metal)    S(lipo)     H(rot)  DE(clash)    DE(int)     intcor
     16.63     -17.98       2.44        0.00      99.40       2.85       0.07       1.29       ----

> <Gold.Chemscore.Fitness>
16.6268

> <Gold.Chemscore.DG>
-17.9835

> <Gold.Chemscore.ZeroCoef>
-5.4800

> <Gold.Chemscore.Hbond>
2.4433

> <Gold.Chemscore.Metal>
0.0000

> <Gold.Chemscore.Lipo>
99.3980

> <Gold.Chemscore.Internal_Hbond>
0.0000

> <Gold.Chemscore.DEClash>
0.0654

> <Gold.Chemscore.DEInternal>
1.2914

> <Gold.Chemscore.Rot>
2.8464

> <Gold.Chemscore.Internal.Correction>
   9.000000E+99

> <Gold.Chemscore.Hbonds>
donor molecule, donor type, donor heavy atom, donor atom, acceptor molecule, acceptor atom, score
      L1  H    10    33       P1  7949  0.54
      L1  H    12    51       P1  7948  0.45
      L1  H    17    42       P1 10957  0.27
      P1  H 10752 10764       L1    10  0.10

> <Gold.Chemscore.Hbond.Weighted>
-8.1607

> <Gold.Chemscore.Metal.Weighted>
-0.0000

> <Gold.Chemscore.Lipo.Weighted>
-11.6296

> <Gold.Chemscore.Internal_Hbond.Weighted>
0.0000

> <Gold.Chemscore.DEClash.Weighted>
0.0654

> <Gold.Chemscore.DEInternal.Weighted>
1.2914

> <Gold.Chemscore.Rot.Weighted>
7.2867

> <Gold.Chemscore.Internal.Correction.Weighted>
   9.000000E+99

> <Gold.Protein.RotatedTorsions>
[ 6907 6896 6895 6894 ] final  -24.39 input  -60.11 | X-H torsion
[ 7974 7965 7964 7962 ] final   75.38 input  175.53 | X-H torsion
[ 8008 7997 7996 7995 ] final   46.06 input   59.86 | X-H torsion
[ 10167 10162 10161 10158 ] final   58.15 input  -65.29 | X-H torsion
[ 10718 10713 10712 10709 ] final -168.77 input   66.30 | X-H torsion
[ 10763 10752 10751 10750 ] final -104.90 input  -60.55 | X-H torsion
[ 11005 11000 10999 10996 ] final -115.81 input  -57.11 | X-H torsion

> <Gold.Protein.ActiveResidues>
 VAL166  LYS551  ARG553  GLY616  TRP617  ASP618  TYR619  PRO620  LYS621  CYS622 
 ASP623  PHE694  ASN695  SER759  ASP760  ASP761  ALA762  ILE779  LEU786  VAL792 
 PHE793  MET794  SER795  GLU796  ALA797  LYS798  CYS799  TRP800  GLU811  SER814 

> <Gold.Protein.RotatedAtoms>
  151.1902  135.0399  159.8829 H   0  0  0  0  0  0  0  0  0  0  0  0  # atno 6907 bound_to 6896
  152.5440  134.0964  159.8309 H   0  0  0  0  0  0  0  0  0  0  0  0  # atno 6908 bound_to 6896
  151.1092  133.5138  159.2638 H   0  0  0  0  0  0  0  0  0  0  0  0  # atno 6909 bound_to 6896
  145.7163  139.2632  143.1622 H   0  0  0  0  0  0  0  0  0  0  0  0  # atno 7974 bound_to 7965
  155.3463  140.3411  155.4239 H   0  0  0  0  0  0  0  0  0  0  0  0  # atno 8008 bound_to 7997
  156.1787  140.1656  156.8350 H   0  0  0  0  0  0  0  0  0  0  0  0  # atno 8009 bound_to 7997
  154.5310  140.0745  156.8328 H   0  0  0  0  0  0  0  0  0  0  0  0  # atno 8010 bound_to 7997
  140.1903  144.4093  150.6574 H   0  0  0  0  0  0  0  0  0  0  0  0  # atno 10167 bound_to 10162
  156.7017  130.9199  151.3080 H   0  0  0  0  0  0  0  0  0  0  0  0  # atno 10718 bound_to 10713
  154.7910  135.4769  154.0053 H   0  0  0  0  0  0  0  0  0  0  0  0  # atno 10763 bound_to 10752
  153.1631  135.6812  153.8721 H   0  0  0  0  0  0  0  0  0  0  0  0  # atno 10764 bound_to 10752
  153.8328  135.3189  155.3398 H   0  0  0  0  0  0  0  0  0  0  0  0  # atno 10765 bound_to 10752
  141.0463  133.9757  157.2912 H   0  0  0  0  0  0  0  0  0  0  0  0  # atno 11005 bound_to 11000
  146.0667  140.7913  142.9708 LP  0  0  0  0  0  0  0  0  0  0  0  0  # atno 17320 bound_to 7965
  144.6928  140.3279  143.7221 LP  0  0  0  0  0  0  0  0  0  0  0  0  # atno 17321 bound_to 7965
  140.6460  143.2213  151.6184 LP  0  0  0  0  0  0  0  0  0  0  0  0  # atno 17342 bound_to 10162
  139.5259  144.3062  152.1032 LP  0  0  0  0  0  0  0  0  0  0  0  0  # atno 17343 bound_to 10162
  157.6970  130.9293  150.0674 LP  0  0  0  0  0  0  0  0  0  0  0  0  # atno 17370 bound_to 10713
  156.1724  130.3647  149.9147 LP  0  0  0  0  0  0  0  0  0  0  0  0  # atno 17371 bound_to 10713
  139.9314  135.0199  156.8414 LP  0  0  0  0  0  0  0  0  0  0  0  0  # atno 17394 bound_to 11000
  140.6140  134.0056  155.7589 LP  0  0  0  0  0  0  0  0  0  0  0  0  # atno 17395 bound_to 11000

$$$$
