AV-unprocessed.smi:92|AV-procd|sdf|842|dock4
  -GOLD-   2262017273D 1   1.00000     0.00000
 Structure written by MMmdl.
 61 64  0  0  0  0  0  0  0  0  2 V2000
  150.6736  142.7139  158.5002 C   0  0  0  0  0  0  0  0  0  0  0  0
  149.1524  142.5034  158.4981 C   0  0  0  0  0  0  0  0  0  0  0  0
  148.5877  142.4143  157.1274 N   0  3  1  0  0  0  0  0  0  0  0  0
  149.2546  141.3614  156.3191 C   0  0  0  0  0  0  0  0  0  0  0  0
  148.7441  141.3384  154.8656 C   0  0  0  0  0  0  0  0  0  0  0  0
  147.2072  141.3179  154.7291 C   0  0  1  0  0  0  0  0  0  0  0  0
  146.6251  139.9649  154.7873 N   0  0  0  0  0  0  0  0  0  0  0  0
  145.7994  139.4759  155.8900 C   0  0  0  0  0  0  0  0  0  0  0  0
  146.5622  139.2621  153.6266 C   0  0  0  0  0  0  0  0  0  0  0  0
  147.2507  139.7141  152.5453 N   0  0  0  0  0  0  0  0  0  0  0  0
  147.2234  139.0344  151.3955 C   0  0  0  0  0  0  0  0  0  0  0  0
  146.5764  137.9032  151.1107 N   0  0  0  0  0  0  0  0  0  0  0  0
  145.8684  137.4521  152.1856 C   0  0  0  0  0  0  0  0  0  0  0  0
  145.8103  138.0622  153.4709 C   0  0  0  0  0  0  0  0  0  0  0  0
  144.9927  137.3149  154.3112 N   0  0  0  0  0  0  0  0  0  0  0  0
  144.6048  136.3128  153.5707 C   0  0  0  0  0  0  0  0  0  0  0  0
  145.0591  136.3320  152.2715 N   0  0  0  0  0  0  0  0  0  0  0  0
  144.8185  135.3375  151.2664 C   0  0  0  0  0  0  0  0  0  0  0  0
  144.0458  134.0547  151.5867 C   0  0  0  0  0  0  0  0  0  0  0  0
  144.9621  133.2496  150.6389 C   0  0  0  0  0  0  0  0  0  0  0  0
  145.4853  131.9232  151.2109 C   0  0  0  0  0  0  0  0  0  0  0  0
  146.4253  131.3232  150.3427 O   0  0  0  0  0  0  0  0  0  0  0  0
  144.4249  132.9518  149.2209 C   0  0  0  0  0  0  0  0  0  0  0  0
  143.2220  132.2103  149.2213 O   0  0  0  0  0  0  0  0  0  0  0  0
  145.9483  134.4330  150.7627 C   0  0  0  0  0  0  0  0  0  0  0  0
  146.5569  142.3579  155.6742 C   0  0  1  0  0  0  0  0  0  0  0  0
  145.0193  142.3622  155.6256 C   0  0  0  0  0  0  0  0  0  0  0  0
  147.1074  142.2742  157.1112 C   0  0  0  0  0  0  0  0  0  0  0  0
  151.0622  142.6787  159.5180 H   0  0  0  0  0  0  0  0  0  0  0  0
  150.9570  143.6798  158.0831 H   0  0  0  0  0  0  0  0  0  0  0  0
  151.1799  141.9362  157.9277 H   0  0  0  0  0  0  0  0  0  0  0  0
  148.9492  141.5731  159.0302 H   0  0  0  0  0  0  0  0  0  0  0  0
  148.6523  143.2943  159.0589 H   0  0  0  0  0  0  0  0  0  0  0  0
  150.3285  141.5511  156.3016 H   0  0  0  0  0  0  0  0  0  0  0  0
  149.1350  140.3929  156.7995 H   0  0  0  0  0  0  0  0  0  0  0  0
  149.1112  142.2397  154.3729 H   0  0  0  0  0  0  0  0  0  0  0  0
  149.1869  140.5049  154.3192 H   0  0  0  0  0  0  0  0  0  0  0  0
  147.0028  141.7013  153.7294 H   0  0  0  0  0  0  0  0  0  0  0  0
  145.7987  138.3854  155.9138 H   0  0  0  0  0  0  0  0  0  0  0  0
  144.7675  139.8086  155.7791 H   0  0  0  0  0  0  0  0  0  0  0  0
  146.1615  139.8096  156.8567 H   0  0  0  0  0  0  0  0  0  0  0  0
  147.8026  139.4579  150.5880 H   0  0  0  0  0  0  0  0  0  0  0  0
  143.9668  135.5299  153.9544 H   0  0  0  0  0  0  0  0  0  0  0  0
  144.3511  135.8676  150.4358 H   0  0  0  0  0  0  0  0  0  0  0  0
  144.1529  133.7575  152.6314 H   0  0  0  0  0  0  0  0  0  0  0  0
  142.9952  134.0801  151.2959 H   0  0  0  0  0  0  0  0  0  0  0  0
  145.9478  132.0685  152.1878 H   0  0  0  0  0  0  0  0  0  0  0  0
  144.6708  131.2133  151.3585 H   0  0  0  0  0  0  0  0  0  0  0  0
  147.2233  131.1696  150.8255 H   0  0  0  0  0  0  0  0  0  0  0  0
  144.2413  133.8782  148.6759 H   0  0  0  0  0  0  0  0  0  0  0  0
  145.1529  132.3870  148.6379 H   0  0  0  0  0  0  0  0  0  0  0  0
  142.5014  132.8069  149.0870 H   0  0  0  0  0  0  0  0  0  0  0  0
  146.3975  134.7569  149.8232 H   0  0  0  0  0  0  0  0  0  0  0  0
  146.7159  134.2682  151.5209 H   0  0  0  0  0  0  0  0  0  0  0  0
  146.8640  143.3349  155.2971 H   0  0  0  0  0  0  0  0  0  0  0  0
  144.5958  141.4535  156.0524 H   0  0  0  0  0  0  0  0  0  0  0  0
  144.6599  142.4462  154.5996 H   0  0  0  0  0  0  0  0  0  0  0  0
  144.6134  143.2051  156.1855 H   0  0  0  0  0  0  0  0  0  0  0  0
  146.8165  141.3425  157.5952 H   0  0  0  0  0  0  0  0  0  0  0  0
  146.6579  143.0746  157.6977 H   0  0  0  0  0  0  0  0  0  0  0  0
  148.8018  143.2912  156.6736 H   0  0  0  0  0  0  0  0  0  0  0  0
  1  2  1  0  0  0  0
  1 29  1  0  0  0  0
  1 30  1  0  0  0  0
  1 31  1  0  0  0  0
  2  3  1  0  0  0  0
  2 32  1  0  0  0  0
  2 33  1  0  0  0  0
  3 28  1  0  0  0  0
  3  4  1  0  0  0  0
  3 61  1  0  0  0  0
  4  5  1  0  0  0  0
  4 34  1  0  0  0  0
  4 35  1  0  0  0  0
  5  6  1  0  0  0  0
  5 36  1  0  0  0  0
  5 37  1  0  0  0  0
  6  7  1  0  0  0  0
  6 26  1  0  0  0  0
  6 38  1  0  0  0  0
  7  8  1  0  0  0  0
  7  9  1  0  0  0  0
  8 39  1  0  0  0  0
  8 40  1  0  0  0  0
  8 41  1  0  0  0  0
  9 14  1  0  0  0  0
  9 10  2  0  0  0  0
 10 11  1  0  0  0  0
 11 12  2  0  0  0  0
 11 42  1  0  0  0  0
 12 13  1  0  0  0  0
 13 17  1  0  0  0  0
 13 14  2  0  0  0  0
 14 15  1  0  0  0  0
 15 16  2  0  0  0  0
 16 17  1  0  0  0  0
 16 43  1  0  0  0  0
 17 18  1  0  0  0  0
 18 25  1  0  0  0  0
 18 19  1  0  0  0  0
 18 44  1  0  0  0  0
 19 20  1  0  0  0  0
 19 45  1  0  0  0  0
 19 46  1  0  0  0  0
 20 21  1  0  0  0  0
 20 23  1  0  0  0  0
 20 25  1  0  0  0  0
 21 22  1  0  0  0  0
 21 47  1  0  0  0  0
 21 48  1  0  0  0  0
 22 49  1  0  0  0  0
 23 24  1  0  0  0  0
 23 50  1  0  0  0  0
 23 51  1  0  0  0  0
 24 52  1  0  0  0  0
 25 53  1  0  0  0  0
 25 54  1  0  0  0  0
 26 27  1  0  0  0  0
 26 28  1  0  0  0  0
 26 55  1  0  0  0  0
 27 56  1  0  0  0  0
 27 57  1  0  0  0  0
 27 58  1  0  0  0  0
 28 59  1  0  0  0  0
 28 60  1  0  0  0  0
M  CHG  1   3   1
M  END
> <s_m_source_file>
AV-unprocessed.smi

> <i_m_source_file_index>
92

> <i_lp_mmshare_version>
43012

> <i_f3d_flags>
0

> <s_epik_input>
W0NIM11bQ0gyXU4xW0NIMl1bQ0gyXVtDQEhdKFtDQEBIXShbQ0gzXSlbQ0gyXTEpTihbQ0gzXSljKG5bY0hdbjIpYyhjMjMpbltjSF1uM1tDSF0oW0NIMl00KVtDSDJdQzQoW0NIMl1bT0hdKVtDSDJdW09IXQ==

> <s_epik_cmdline>
J2VwaWtfcHl0aG9uJywgJy1waCcsICc3LjAnLCAnLXRuJywgJzgnLCAnLW1hJywgJzIwMCcsICctbWV0YWxfYmluZGluZycsICctaW1hZScsICc8aW5maWxlLm1hZT4nLCAnLW9tYWUnLCAnPG91dGZpbGUubWFlPic=

> <r_lp_tautomer_probability>
1

> <r_epik_Ionization_Penalty>
0.00235514

> <r_epik_Ionization_Penalty_Charging>
0.00137877

> <r_epik_Ionization_Penalty_Neutral>
0.000976366

> <r_epik_State_Penalty>
-0

> <r_epik_Charging_Adjusted_Penalty>
0.00137877

> <i_epik_Tot_Q>
1

> <i_epik_Tot_abs_Q>
1

> <r_epik_Metal_State_Penalty>
-0

> <b_epik_Metal_Only>
0

> <s_lp_Force_Field>
OPLS_2005

> <r_lp_Energy>
58.3953

> <b_lp_Chiralities_Consistent>
1

> <s_lp_Variant>
AV-unprocessed.smi:92-2

> <Gold.Version>
5.8.1

> <Gold.Id.Protein>
6NUR|6NUR_protein|mol2

> <Gold.PLP.Fitness>
56.7472

> <Gold.PLP.PLP>
-42.0734

> <Gold.PLP.part.hbond>
-4.7220

> <Gold.PLP.part.metal>
0.0000

> <Gold.PLP.part.buried>
-8.2094

> <Gold.PLP.part.nonpolar>
-33.8806

> <Gold.PLP.part.repulsive>
3.9502

> <Gold.PLP.ligand.clash>
0.0000

> <Gold.PLP.ligand.torsion>
0.8687

> <Gold.PLP.Chemscore.Hbond>
4.6088

> <Gold.PLP.Chemscore.CHOScore>
0.5289

> <Gold.PLP.Chemscore.Metal>
0.0000

> <Gold.Chemscore.Hbonds>
donor molecule, donor type, donor heavy atom, donor atom, acceptor molecule, acceptor atom, score
      L1  H     3    61       P1  8028  2.00
      L1  H    22    49       P1 10747  0.64
      L1  H    24    52       P1 10186  0.49
      P1  H 10785 10796       L1    24  0.76
      L1  C    11    42       P1  7957  0.44

> <Gold.PLP.Chemscore.Internal.Correction>
0.9981

> <Gold.Rescore>
     Score         DG    S(hbond)    S(metal)    S(lipo)     H(rot)  DE(clash)    DE(int)     intcor
     12.30     -18.40       3.43        0.00      83.04       3.22       3.80       2.31       ----

> <Gold.Chemscore.Fitness>
12.2965

> <Gold.Chemscore.DG>
-18.4033

> <Gold.Chemscore.ZeroCoef>
-5.4800

> <Gold.Chemscore.Hbond>
3.4298

> <Gold.Chemscore.Metal>
0.0000

> <Gold.Chemscore.Lipo>
83.0421

> <Gold.Chemscore.Internal_Hbond>
0.0000

> <Gold.Chemscore.DEClash>
3.7954

> <Gold.Chemscore.DEInternal>
2.3114

> <Gold.Chemscore.Rot>
3.2219

> <Gold.Chemscore.Internal.Correction>
   9.000000E+99

> <Gold.Chemscore.Hbonds>
donor molecule, donor type, donor heavy atom, donor atom, acceptor molecule, acceptor atom, score
      L1  H     3    61       P1  8028  0.82
      L1  H    22    49       P1 10747  0.64
      L1  H    24    52       P1 10186  0.47
      P1  H 10785 10796       L1    24  0.73

> <Gold.Chemscore.Hbond.Weighted>
-11.4556

> <Gold.Chemscore.Metal.Weighted>
-0.0000

> <Gold.Chemscore.Lipo.Weighted>
-9.7159

> <Gold.Chemscore.Internal_Hbond.Weighted>
0.0000

> <Gold.Chemscore.DEClash.Weighted>
3.7954

> <Gold.Chemscore.DEInternal.Weighted>
2.3114

> <Gold.Chemscore.Rot.Weighted>
8.2482

> <Gold.Chemscore.Internal.Correction.Weighted>
   9.000000E+99

> <Gold.Protein.RotatedTorsions>
[ 6907 6896 6895 6894 ] final   24.42 input  -60.11 | X-H torsion
[ 7974 7965 7964 7962 ] final  -57.29 input  175.53 | X-H torsion
[ 8008 7997 7996 7995 ] final   21.00 input   59.86 | X-H torsion
[ 10167 10162 10161 10158 ] final  -26.70 input  -65.29 | X-H torsion
[ 10718 10713 10712 10709 ] final  -70.39 input   66.30 | X-H torsion
[ 10763 10752 10751 10750 ] final   18.40 input  -60.55 | X-H torsion
[ 11005 11000 10999 10996 ] final  -81.80 input  -57.11 | X-H torsion

> <Gold.Protein.ActiveResidues>
 VAL166  LYS551  ARG553  GLY616  TRP617  ASP618  TYR619  PRO620  LYS621  CYS622 
 ASP623  PHE694  ASN695  SER759  ASP760  ASP761  ALA762  ILE779  LEU786  VAL792 
 PHE793  MET794  SER795  GLU796  ALA797  LYS798  CYS799  TRP800  GLU811  SER814 

> <Gold.Protein.RotatedAtoms>
  151.9572  135.0141  160.0545 H   0  0  0  0  0  0  0  0  0  0  0  0  # atno 6907 bound_to 6896
  152.1901  133.4762  159.5011 H   0  0  0  0  0  0  0  0  0  0  0  0  # atno 6908 bound_to 6896
  150.6933  134.1641  159.4230 H   0  0  0  0  0  0  0  0  0  0  0  0  # atno 6909 bound_to 6896
  145.8528  140.8340  142.9977 H   0  0  0  0  0  0  0  0  0  0  0  0  # atno 7974 bound_to 7965
  154.9440  140.3057  155.5107 H   0  0  0  0  0  0  0  0  0  0  0  0  # atno 8008 bound_to 7997
  156.2993  140.2331  156.4449 H   0  0  0  0  0  0  0  0  0  0  0  0  # atno 8009 bound_to 7997
  154.8118  140.0428  157.1336 H   0  0  0  0  0  0  0  0  0  0  0  0  # atno 8010 bound_to 7997
  140.7281  143.4156  151.1034 H   0  0  0  0  0  0  0  0  0  0  0  0  # atno 10167 bound_to 10162
  156.0410  130.4331  150.2289 H   0  0  0  0  0  0  0  0  0  0  0  0  # atno 10718 bound_to 10713
  153.1253  135.6728  153.9267 H   0  0  0  0  0  0  0  0  0  0  0  0  # atno 10763 bound_to 10752
  153.8770  135.3063  155.3445 H   0  0  0  0  0  0  0  0  0  0  0  0  # atno 10764 bound_to 10752
  154.7659  135.4964  153.9633 H   0  0  0  0  0  0  0  0  0  0  0  0  # atno 10765 bound_to 10752
  141.1665  133.7214  156.8476 H   0  0  0  0  0  0  0  0  0  0  0  0  # atno 11005 bound_to 11000
  144.6728  140.0979  143.7462 LP  0  0  0  0  0  0  0  0  0  0  0  0  # atno 17320 bound_to 7965
  145.9338  139.2623  143.1309 LP  0  0  0  0  0  0  0  0  0  0  0  0  # atno 17321 bound_to 7965
  139.7795  143.8376  152.3135 LP  0  0  0  0  0  0  0  0  0  0  0  0  # atno 17342 bound_to 10162
  139.8322  144.7248  150.9435 LP  0  0  0  0  0  0  0  0  0  0  0  0  # atno 17343 bound_to 10162
  157.0384  131.0028  151.3291 LP  0  0  0  0  0  0  0  0  0  0  0  0  # atno 17370 bound_to 10713
  157.5227  130.8008  149.7827 LP  0  0  0  0  0  0  0  0  0  0  0  0  # atno 17371 bound_to 10713
  140.1938  134.8946  157.3091 LP  0  0  0  0  0  0  0  0  0  0  0  0  # atno 17394 bound_to 11000
  140.2261  134.3965  155.7543 LP  0  0  0  0  0  0  0  0  0  0  0  0  # atno 17395 bound_to 11000

$$$$
