AV-unprocessed.smi:1703|AV-procd|sdf|6876|dock7
  -GOLD-   22720 8 73D 1   1.00000     0.00000
 Structure written by MMmdl.
 50 52  0  0  0  0  0  0  0  0  3 V2000
  153.8015  141.6304  161.0600 C   0  0  0  0  0  0  0  0  0  0  0  0
  153.0886  142.3580  159.9151 C   0  0  1  0  0  0  0  0  0  0  0  0
  151.9178  141.5278  159.3464 C   0  0  0  0  0  0  0  0  0  0  0  0
  151.1555  142.2830  158.3181 N   0  3  2  0  0  0  0  0  0  0  0  0
  151.8130  142.3650  156.9857 C   0  0  0  0  0  0  0  0  0  0  0  0
  151.5275  141.1361  156.0926 C   0  0  1  0  0  0  0  0  0  0  0  0
  152.5069  140.1470  156.3350 O   0  0  0  0  0  0  0  0  0  0  0  0
  150.1484  140.4956  156.3480 C   0  0  0  0  0  0  0  0  0  0  0  0
  149.6091  139.8012  155.1651 N   0  0  0  0  0  0  0  0  0  0  0  0
  150.0020  138.6298  154.5840 C   0  0  0  0  0  0  0  0  0  0  0  0
  151.1271  137.7445  155.0085 C   0  0  0  0  0  0  0  0  0  0  0  0
  151.2721  136.6239  154.1630 O   0  0  0  0  0  0  0  0  0  0  0  0
  149.1877  138.4158  153.5131 N   0  3  0  0  0  0  0  0  0  0  0  0
  148.2646  139.4556  153.4049 C   0  0  0  0  0  0  0  0  0  0  0  0
  147.2467  139.6729  152.4814 C   0  0  0  0  0  0  0  0  0  0  0  0
  146.4807  140.8447  152.6479 C   0  0  0  0  0  0  0  0  0  0  0  0
  146.7414  141.7478  153.6982 C   0  0  0  0  0  0  0  0  0  0  0  0
  147.7766  141.5170  154.6283 C   0  0  0  0  0  0  0  0  0  0  0  0
  148.5285  140.3525  154.4615 C   0  0  0  0  0  0  0  0  0  0  0  0
  150.7444  143.6035  158.8542 C   0  0  0  0  0  0  0  0  0  0  0  0
  151.9528  144.3819  159.4153 C   0  0  1  0  0  0  0  0  0  0  0  0
  151.5365  145.7124  160.0512 C   0  0  0  0  0  0  0  0  0  0  0  0
  152.5864  143.5921  160.4165 O   0  0  0  0  0  0  0  0  0  0  0  0
  154.2163  140.6803  160.7219 H   0  0  0  0  0  0  0  0  0  0  0  0
  153.1180  141.4234  161.8841 H   0  0  0  0  0  0  0  0  0  0  0  0
  154.6231  142.2304  161.4517 H   0  0  0  0  0  0  0  0  0  0  0  0
  153.8255  142.5610  159.1369 H   0  0  0  0  0  0  0  0  0  0  0  0
  152.2779  140.5768  158.9573 H   0  0  0  0  0  0  0  0  0  0  0  0
  151.2292  141.2782  160.1549 H   0  0  0  0  0  0  0  0  0  0  0  0
  151.4728  143.2582  156.4592 H   0  0  0  0  0  0  0  0  0  0  0  0
  152.8835  142.4992  157.1299 H   0  0  0  0  0  0  0  0  0  0  0  0
  151.5822  141.4033  155.0390 H   0  0  0  0  0  0  0  0  0  0  0  0
  152.1173  139.4403  156.8267 H   0  0  0  0  0  0  0  0  0  0  0  0
  150.2207  139.7594  157.1496 H   0  0  0  0  0  0  0  0  0  0  0  0
  149.4341  141.2409  156.6950 H   0  0  0  0  0  0  0  0  0  0  0  0
  152.0597  138.3086  155.0199 H   0  0  0  0  0  0  0  0  0  0  0  0
  150.9495  137.4003  156.0278 H   0  0  0  0  0  0  0  0  0  0  0  0
  151.1595  136.9073  153.2679 H   0  0  0  0  0  0  0  0  0  0  0  0
  147.0461  138.9834  151.6742 H   0  0  0  0  0  0  0  0  0  0  0  0
  145.6780  141.0554  151.9556 H   0  0  0  0  0  0  0  0  0  0  0  0
  146.1336  142.6362  153.7934 H   0  0  0  0  0  0  0  0  0  0  0  0
  147.9607  142.2221  155.4246 H   0  0  0  0  0  0  0  0  0  0  0  0
  150.2274  144.1826  158.0880 H   0  0  0  0  0  0  0  0  0  0  0  0
  150.0176  143.4361  159.6504 H   0  0  0  0  0  0  0  0  0  0  0  0
  152.6670  144.5932  158.6179 H   0  0  0  0  0  0  0  0  0  0  0  0
  151.0518  146.3619  159.3218 H   0  0  0  0  0  0  0  0  0  0  0  0
  152.4030  146.2445  160.4446 H   0  0  0  0  0  0  0  0  0  0  0  0
  150.8402  145.5563  160.8755 H   0  0  0  0  0  0  0  0  0  0  0  0
  150.2985  141.7729  158.1587 H   0  0  0  0  0  0  0  0  0  0  0  0
  149.2623  137.6144  152.8993 H   0  0  0  0  0  0  0  0  0  0  0  0
  1  2  1  0  0  0  0
  1 24  1  0  0  0  0
  1 25  1  0  0  0  0
  1 26  1  0  0  0  0
  2 23  1  0  0  0  0
  2  3  1  0  0  0  0
  2 27  1  0  0  0  0
  3  4  1  0  0  0  0
  3 28  1  0  0  0  0
  3 29  1  0  0  0  0
  4  5  1  0  0  0  0
  4 20  1  0  0  0  0
  4 49  1  0  0  0  0
  5  6  1  0  0  0  0
  5 30  1  0  0  0  0
  5 31  1  0  0  0  0
  6  7  1  0  0  0  0
  6  8  1  0  0  0  0
  6 32  1  0  0  0  0
  7 33  1  0  0  0  0
  8  9  1  0  0  0  0
  8 34  1  0  0  0  0
  8 35  1  0  0  0  0
  9 19  1  0  0  0  0
  9 10  1  0  0  0  0
 10 11  1  0  0  0  0
 10 13  2  0  0  0  0
 11 12  1  0  0  0  0
 11 36  1  0  0  0  0
 11 37  1  0  0  0  0
 12 38  1  0  0  0  0
 13 14  1  0  0  0  0
 13 50  1  0  0  0  0
 14 19  2  0  0  0  0
 14 15  1  0  0  0  0
 15 16  2  0  0  0  0
 15 39  1  0  0  0  0
 16 17  1  0  0  0  0
 16 40  1  0  0  0  0
 17 18  2  0  0  0  0
 17 41  1  0  0  0  0
 18 19  1  0  0  0  0
 18 42  1  0  0  0  0
 20 21  1  0  0  0  0
 20 43  1  0  0  0  0
 20 44  1  0  0  0  0
 21 22  1  0  0  0  0
 21 23  1  0  0  0  0
 21 45  1  0  0  0  0
 22 46  1  0  0  0  0
 22 47  1  0  0  0  0
 22 48  1  0  0  0  0
M  CHG  1   4   1
M  CHG  1  13   1
M  END
> <s_m_source_file>
AV-unprocessed.smi

> <i_m_source_file_index>
1703

> <i_lp_mmshare_version>
43012

> <i_f3d_flags>
0

> <s_epik_input>
W0NIM11bQ0BASF0xW0NIMl1OKFtDSDJdW0NASF0oTzEpW0NIM10pW0NIMl1bQ0BIXShbT0hdKVtDSDJdbihjKG4yKVtDSDJdW09IXSljKGMyMylbY0hdW2NIXVtjSF1bY0hdMw==

> <s_epik_cmdline>
J2VwaWtfcHl0aG9uJywgJy1waCcsICc3LjAnLCAnLXRuJywgJzgnLCAnLW1hJywgJzIwMCcsICctbWV0YWxfYmluZGluZycsICctaW1hZScsICc8aW5maWxlLm1hZT4nLCAnLW9tYWUnLCAnPG91dGZpbGUubWFlPic=

> <r_epik_Ionization_Penalty>
2.22579

> <r_epik_Ionization_Penalty_Charging>
2.22492

> <r_epik_Ionization_Penalty_Neutral>
0.000870007

> <r_epik_State_Penalty>
2.3141

> <r_epik_Charging_Adjusted_Penalty>
4.53902

> <i_epik_Tot_Q>
2

> <i_epik_Tot_abs_Q>
2

> <r_epik_Metal_State_Penalty>
6.36517

> <b_epik_Metal_Only>
0

> <s_lp_Force_Field>
OPLS_2005

> <r_lp_Energy>
31.3011

> <b_lp_Chiralities_Consistent>
1

> <s_lp_Variant>
AV-unprocessed.smi:1703-24

> <Gold.Version>
5.8.1

> <Gold.Id.Protein>
6NUR|6NUR_protein|mol2

> <Gold.PLP.Fitness>
54.3138

> <Gold.PLP.PLP>
-42.2897

> <Gold.PLP.part.hbond>
-5.4072

> <Gold.PLP.part.metal>
0.0000

> <Gold.PLP.part.buried>
1.3084

> <Gold.PLP.part.nonpolar>
-38.1365

> <Gold.PLP.part.repulsive>
0.1535

> <Gold.PLP.ligand.clash>
0.0000

> <Gold.PLP.ligand.torsion>
1.1496

> <Gold.PLP.Chemscore.Hbond>
4.7520

> <Gold.PLP.Chemscore.CHOScore>
0.0000

> <Gold.PLP.Chemscore.Metal>
0.0000

> <Gold.Chemscore.Hbonds>
donor molecule, donor type, donor heavy atom, donor atom, acceptor molecule, acceptor atom, score
      L1  H    12    38       P1  7949  0.69
      L1  H    13    50       P1  7948  2.00
      P1  H  7997  8010       L1     7  1.00
      P1  H 10752 10765       L1    12  1.00

> <Gold.PLP.Chemscore.Internal.Correction>
0.0673

> <Gold.Rescore>
     Score         DG    S(hbond)    S(metal)    S(lipo)     H(rot)  DE(clash)    DE(int)     intcor
     18.45     -22.99       3.21        0.00     124.61       3.04       2.66       1.87       ----

> <Gold.Chemscore.Fitness>
18.4518

> <Gold.Chemscore.DG>
-22.9883

> <Gold.Chemscore.ZeroCoef>
-5.4800

> <Gold.Chemscore.Hbond>
3.2052

> <Gold.Chemscore.Metal>
0.0000

> <Gold.Chemscore.Lipo>
124.6128

> <Gold.Chemscore.Internal_Hbond>
0.0000

> <Gold.Chemscore.DEClash>
2.6625

> <Gold.Chemscore.DEInternal>
1.8739

> <Gold.Chemscore.Rot>
3.0378

> <Gold.Chemscore.Internal.Correction>
   9.000000E+99

> <Gold.Chemscore.Hbonds>
donor molecule, donor type, donor heavy atom, donor atom, acceptor molecule, acceptor atom, score
      L1  H    12    38       P1  7949  0.34
      L1  H    13    50       P1  7948  0.97
      P1  H  7997  8010       L1     7  0.84
      P1  H 10752 10765       L1    12  0.61

> <Gold.Chemscore.Hbond.Weighted>
-10.7053

> <Gold.Chemscore.Metal.Weighted>
-0.0000

> <Gold.Chemscore.Lipo.Weighted>
-14.5797

> <Gold.Chemscore.Internal_Hbond.Weighted>
0.0000

> <Gold.Chemscore.DEClash.Weighted>
2.6625

> <Gold.Chemscore.DEInternal.Weighted>
1.8739

> <Gold.Chemscore.Rot.Weighted>
7.7767

> <Gold.Chemscore.Internal.Correction.Weighted>
   9.000000E+99

> <Gold.Protein.RotatedTorsions>
[ 6907 6896 6895 6894 ] final   -4.29 input  -60.11 | X-H torsion
[ 7974 7965 7964 7962 ] final  124.40 input  175.53 | X-H torsion
[ 8008 7997 7996 7995 ] final   73.91 input   59.86 | X-H torsion
[ 10167 10162 10161 10158 ] final  -51.40 input  -65.29 | X-H torsion
[ 10718 10713 10712 10709 ] final  145.16 input   66.30 | X-H torsion
[ 10763 10752 10751 10750 ] final  162.23 input  -60.55 | X-H torsion
[ 11005 11000 10999 10996 ] final -121.58 input  -57.11 | X-H torsion

> <Gold.Protein.ActiveResidues>
 VAL166  LYS551  ARG553  GLY616  TRP617  ASP618  TYR619  PRO620  LYS621  CYS622 
 ASP623  PHE694  ASN695  SER759  ASP760  ASP761  ALA762  ILE779  LEU786  VAL792 
 PHE793  MET794  SER795  GLU796  ALA797  LYS798  CYS799  TRP800  GLU811  SER814 

> <Gold.Protein.RotatedAtoms>
  151.5001  135.1061  159.9826 H   0  0  0  0  0  0  0  0  0  0  0  0  # atno 6907 bound_to 6896
  152.4705  133.8016  159.6966 H   0  0  0  0  0  0  0  0  0  0  0  0  # atno 6908 bound_to 6896
  150.8712  133.7440  159.2986 H   0  0  0  0  0  0  0  0  0  0  0  0  # atno 6909 bound_to 6896
  145.0848  139.3630  143.4891 H   0  0  0  0  0  0  0  0  0  0  0  0  # atno 7974 bound_to 7965
  155.7906  140.3479  155.5347 H   0  0  0  0  0  0  0  0  0  0  0  0  # atno 8008 bound_to 7997
  155.8638  140.0975  157.1616 H   0  0  0  0  0  0  0  0  0  0  0  0  # atno 8009 bound_to 7997
  154.4013  140.1353  156.3980 H   0  0  0  0  0  0  0  0  0  0  0  0  # atno 8010 bound_to 7997
  140.6590  143.2621  151.4497 H   0  0  0  0  0  0  0  0  0  0  0  0  # atno 10167 bound_to 10162
  157.3485  131.0947  151.1020 H   0  0  0  0  0  0  0  0  0  0  0  0  # atno 10718 bound_to 10713
  154.2752  135.2764  155.2721 H   0  0  0  0  0  0  0  0  0  0  0  0  # atno 10763 bound_to 10752
  154.5266  135.5741  153.6728 H   0  0  0  0  0  0  0  0  0  0  0  0  # atno 10764 bound_to 10752
  152.9938  135.6217  154.2909 H   0  0  0  0  0  0  0  0  0  0  0  0  # atno 10765 bound_to 10752
  141.0059  134.0335  157.3477 H   0  0  0  0  0  0  0  0  0  0  0  0  # atno 11005 bound_to 11000
  146.3531  140.0655  142.8626 LP  0  0  0  0  0  0  0  0  0  0  0  0  # atno 17320 bound_to 7965
  145.1135  140.9420  143.4642 LP  0  0  0  0  0  0  0  0  0  0  0  0  # atno 17321 bound_to 7965
  139.5819  144.1690  152.1980 LP  0  0  0  0  0  0  0  0  0  0  0  0  # atno 17342 bound_to 10162
  140.1018  144.5533  150.6984 LP  0  0  0  0  0  0  0  0  0  0  0  0  # atno 17343 bound_to 10162
  157.2205  130.6479  149.5809 LP  0  0  0  0  0  0  0  0  0  0  0  0  # atno 17370 bound_to 10713
  155.9718  130.4631  150.6168 LP  0  0  0  0  0  0  0  0  0  0  0  0  # atno 17371 bound_to 10713
  139.9063  135.0180  156.7501 LP  0  0  0  0  0  0  0  0  0  0  0  0  # atno 17394 bound_to 11000
  140.6813  133.9472  155.7912 LP  0  0  0  0  0  0  0  0  0  0  0  0  # atno 17395 bound_to 11000

$$$$
