AV-unprocessed.smi:3151|AV-procd|sdf|12015|dock10
  -GOLD-   2272017423D 1   1.00000     0.00000
 Structure written by MMmdl.
 36 37  0  0  0  0  0  0  0  0  2 V2000
  151.8419  141.0999  157.3188 O   0  0  0  0  0  0  0  0  0  0  0  0
  151.1494  142.1180  157.3095 C   0  0  0  0  0  0  0  0  0  0  0  0
  151.3338  143.1912  158.3878 C   0  0  0  0  0  0  0  0  0  0  0  0
  151.9804  142.6546  159.6822 C   0  0  0  0  0  0  0  0  0  0  0  0
  152.0211  143.6562  160.8448 C   0  0  0  0  0  0  0  0  0  0  0  0
  153.1693  143.1953  161.7537 C   0  0  0  0  0  0  0  0  0  0  0  0
  153.9901  142.1848  160.9394 C   0  0  0  0  0  0  0  0  0  0  0  0
  153.4483  142.2600  159.5106 C   0  0  0  0  0  0  0  0  0  0  0  0
  150.2127  142.3592  156.3791 N   0  0  0  0  0  0  0  0  0  0  0  0
  149.8772  141.4575  155.2839 C   0  0  0  0  0  0  0  0  0  0  0  0
  148.3650  141.4431  155.0067 C   0  0  0  0  0  0  0  0  0  0  0  0
  147.9838  140.3167  154.1537 N   0  0  0  0  0  0  0  0  0  0  0  0
  146.7680  140.0942  153.5601 C   0  0  0  0  0  0  0  0  0  0  0  0
  146.8823  138.9166  152.8667 C   0  0  0  0  0  0  0  0  0  0  0  0
  148.1613  138.4705  153.0677 N   0  3  0  0  0  0  0  0  0  0  0  0
  148.8293  139.3232  153.8515 C   0  0  0  0  0  0  0  0  0  0  0  0
  151.9572  143.9821  157.9695 H   0  0  0  0  0  0  0  0  0  0  0  0
  150.3704  143.6487  158.6190 H   0  0  0  0  0  0  0  0  0  0  0  0
  151.4385  141.7670  160.0143 H   0  0  0  0  0  0  0  0  0  0  0  0
  152.2415  144.6553  160.4659 H   0  0  0  0  0  0  0  0  0  0  0  0
  151.0715  143.7116  161.3780 H   0  0  0  0  0  0  0  0  0  0  0  0
  153.7787  144.0458  162.0617 H   0  0  0  0  0  0  0  0  0  0  0  0
  152.7849  142.7256  162.6598 H   0  0  0  0  0  0  0  0  0  0  0  0
  155.0606  142.3871  160.9833 H   0  0  0  0  0  0  0  0  0  0  0  0
  153.8302  141.1817  161.3375 H   0  0  0  0  0  0  0  0  0  0  0  0
  153.5706  141.3211  158.9694 H   0  0  0  0  0  0  0  0  0  0  0  0
  153.9826  143.0345  158.9579 H   0  0  0  0  0  0  0  0  0  0  0  0
  149.6900  143.2211  156.4422 H   0  0  0  0  0  0  0  0  0  0  0  0
  150.4294  141.7438  154.3869 H   0  0  0  0  0  0  0  0  0  0  0  0
  150.2170  140.4558  155.5494 H   0  0  0  0  0  0  0  0  0  0  0  0
  147.8018  141.3667  155.9378 H   0  0  0  0  0  0  0  0  0  0  0  0
  148.0458  142.3624  154.5130 H   0  0  0  0  0  0  0  0  0  0  0  0
  145.9341  140.7717  153.6725 H   0  0  0  0  0  0  0  0  0  0  0  0
  146.1681  138.3765  152.2619 H   0  0  0  0  0  0  0  0  0  0  0  0
  149.8500  139.2274  154.1774 H   0  0  0  0  0  0  0  0  0  0  0  0
  148.5480  137.6186  152.6811 H   0  0  0  0  0  0  0  0  0  0  0  0
  1  2  2  0  0  0  0
  2  3  1  0  0  0  0
  2  9  1  0  0  0  0
  3  4  1  0  0  0  0
  3 17  1  0  0  0  0
  3 18  1  0  0  0  0
  4  8  1  0  0  0  0
  4  5  1  0  0  0  0
  4 19  1  0  0  0  0
  5  6  1  0  0  0  0
  5 20  1  0  0  0  0
  5 21  1  0  0  0  0
  6  7  1  0  0  0  0
  6 22  1  0  0  0  0
  6 23  1  0  0  0  0
  7  8  1  0  0  0  0
  7 24  1  0  0  0  0
  7 25  1  0  0  0  0
  8 26  1  0  0  0  0
  8 27  1  0  0  0  0
  9 10  1  0  0  0  0
  9 28  1  0  0  0  0
 10 11  1  0  0  0  0
 10 29  1  0  0  0  0
 10 30  1  0  0  0  0
 11 12  1  0  0  0  0
 11 31  1  0  0  0  0
 11 32  1  0  0  0  0
 12 16  1  0  0  0  0
 12 13  1  0  0  0  0
 13 14  2  0  0  0  0
 13 33  1  0  0  0  0
 14 15  1  0  0  0  0
 14 34  1  0  0  0  0
 15 16  2  0  0  0  0
 15 36  1  0  0  0  0
 16 35  1  0  0  0  0
M  CHG  1  15   1
M  END
> <s_m_source_file>
AV-unprocessed.smi

> <i_m_source_file_index>
3151

> <i_lp_mmshare_version>
43012

> <i_f3d_flags>
0

> <s_epik_input>
W0NIMl0xW0NIMl1bQ0gyXVtDSDJdW0NIXTFbQ0gyXUMoPU8pW05IXVtDSDJdW0NIMl1uMltjSF1bY0hdbltjSF0y

> <s_epik_cmdline>
J2VwaWtfcHl0aG9uJywgJy1waCcsICc3LjAnLCAnLXRuJywgJzgnLCAnLW1hJywgJzIwMCcsICctbWV0YWxfYmluZGluZycsICctaW1hZScsICc8aW5maWxlLm1hZT4nLCAnLW9tYWUnLCAnPG91dGZpbGUubWFlPic=

> <r_lp_tautomer_probability>
1

> <r_epik_Ionization_Penalty>
0.269485

> <r_epik_Ionization_Penalty_Charging>
0

> <r_epik_Ionization_Penalty_Neutral>
0.269485

> <r_epik_State_Penalty>
0.261564

> <r_epik_Charging_Adjusted_Penalty>
0.261564

> <i_epik_Tot_Q>
1

> <i_epik_Tot_abs_Q>
1

> <r_epik_Metal_State_Penalty>
0.546677

> <b_epik_Metal_Only>
0

> <s_lp_Force_Field>
OPLS_2005

> <r_lp_Energy>
22.4511

> <b_lp_Chiralities_Consistent>
1

> <s_lp_Variant>
AV-unprocessed.smi:3151-1

> <Gold.Version>
5.8.1

> <Gold.Id.Protein>
6NUR|6NUR_protein|mol2

> <Gold.PLP.Fitness>
47.7976

> <Gold.PLP.PLP>
-38.5109

> <Gold.PLP.part.hbond>
-3.0000

> <Gold.PLP.part.metal>
0.0000

> <Gold.PLP.part.buried>
-2.3698

> <Gold.PLP.part.nonpolar>
-33.4976

> <Gold.PLP.part.repulsive>
0.1319

> <Gold.PLP.ligand.clash>
0.0000

> <Gold.PLP.ligand.torsion>
0.6459

> <Gold.PLP.Chemscore.Hbond>
3.0000

> <Gold.PLP.Chemscore.CHOScore>
0.5182

> <Gold.PLP.Chemscore.Metal>
0.0000

> <Gold.Chemscore.Hbonds>
donor molecule, donor type, donor heavy atom, donor atom, acceptor molecule, acceptor atom, score
      L1  H     9    28       P1  8028  1.00
      L1  H    15    36       P1  7948  2.00
      L1  C    13    33       P1 10175  0.82

> <Gold.PLP.Chemscore.Internal.Correction>
0.0238

> <Gold.Rescore>
     Score         DG    S(hbond)    S(metal)    S(lipo)     H(rot)  DE(clash)    DE(int)     intcor
     16.78     -17.76       1.98        0.00      93.87       2.08       0.36       0.61       ----

> <Gold.Chemscore.Fitness>
16.7814

> <Gold.Chemscore.DG>
-17.7587

> <Gold.Chemscore.ZeroCoef>
-5.4800

> <Gold.Chemscore.Hbond>
1.9804

> <Gold.Chemscore.Metal>
0.0000

> <Gold.Chemscore.Lipo>
93.8664

> <Gold.Chemscore.Internal_Hbond>
0.0000

> <Gold.Chemscore.DEClash>
0.3625

> <Gold.Chemscore.DEInternal>
0.6147

> <Gold.Chemscore.Rot>
2.0774

> <Gold.Chemscore.Internal.Correction>
   9.000000E+99

> <Gold.Chemscore.Hbonds>
donor molecule, donor type, donor heavy atom, donor atom, acceptor molecule, acceptor atom, score
      L1  H     9    28       P1  8028  0.96
      L1  H    15    36       P1  7948  1.00

> <Gold.Chemscore.Hbond.Weighted>
-6.6146

> <Gold.Chemscore.Metal.Weighted>
-0.0000

> <Gold.Chemscore.Lipo.Weighted>
-10.9824

> <Gold.Chemscore.Internal_Hbond.Weighted>
0.0000

> <Gold.Chemscore.DEClash.Weighted>
0.3625

> <Gold.Chemscore.DEInternal.Weighted>
0.6147

> <Gold.Chemscore.Rot.Weighted>
5.3183

> <Gold.Chemscore.Internal.Correction.Weighted>
   9.000000E+99

> <Gold.Protein.RotatedTorsions>
[ 6907 6896 6895 6894 ] final  157.97 input  -60.11 | X-H torsion
[ 7974 7965 7964 7962 ] final   52.96 input  175.53 | X-H torsion
[ 8008 7997 7996 7995 ] final  -80.41 input   59.86 | X-H torsion
[ 10167 10162 10161 10158 ] final   25.04 input  -65.29 | X-H torsion
[ 10718 10713 10712 10709 ] final  -96.95 input   66.30 | X-H torsion
[ 10763 10752 10751 10750 ] final  -93.97 input  -60.55 | X-H torsion
[ 11005 11000 10999 10996 ] final  176.01 input  -57.11 | X-H torsion

> <Gold.Protein.ActiveResidues>
 VAL166  LYS551  ARG553  GLY616  TRP617  ASP618  TYR619  PRO620  LYS621  CYS622 
 ASP623  PHE694  ASN695  SER759  ASP760  ASP761  ALA762  ILE779  LEU786  VAL792 
 PHE793  MET794  SER795  GLU796  ALA797  LYS798  CYS799  TRP800  GLU811  SER814 

> <Gold.Protein.RotatedAtoms>
  152.0072  133.3847  159.4205 H   0  0  0  0  0  0  0  0  0  0  0  0  # atno 6907 bound_to 6896
  150.6903  134.3769  159.5026 H   0  0  0  0  0  0  0  0  0  0  0  0  # atno 6908 bound_to 6896
  152.1525  134.8976  160.0598 H   0  0  0  0  0  0  0  0  0  0  0  0  # atno 6909 bound_to 6896
  145.9760  139.4195  143.0161 H   0  0  0  0  0  0  0  0  0  0  0  0  # atno 7974 bound_to 7965
  154.5880  140.0663  156.9199 H   0  0  0  0  0  0  0  0  0  0  0  0  # atno 8008 bound_to 7997
  155.2344  140.3340  155.4281 H   0  0  0  0  0  0  0  0  0  0  0  0  # atno 8009 bound_to 7997
  156.2236  140.1809  156.7401 H   0  0  0  0  0  0  0  0  0  0  0  0  # atno 8010 bound_to 7997
  140.5139  144.0115  150.6385 H   0  0  0  0  0  0  0  0  0  0  0  0  # atno 10167 bound_to 10162
  156.0073  130.5173  150.6302 H   0  0  0  0  0  0  0  0  0  0  0  0  # atno 10718 bound_to 10713
  154.7011  135.5174  153.8527 H   0  0  0  0  0  0  0  0  0  0  0  0  # atno 10763 bound_to 10752
  153.0704  135.6599  154.0269 H   0  0  0  0  0  0  0  0  0  0  0  0  # atno 10764 bound_to 10752
  154.0127  135.3000  155.3370 H   0  0  0  0  0  0  0  0  0  0  0  0  # atno 10765 bound_to 10752
  140.3685  134.7051  157.4377 H   0  0  0  0  0  0  0  0  0  0  0  0  # atno 11005 bound_to 11000
  145.7838  140.9845  143.1085 LP  0  0  0  0  0  0  0  0  0  0  0  0  # atno 17320 bound_to 7965
  144.6849  139.9597  143.7480 LP  0  0  0  0  0  0  0  0  0  0  0  0  # atno 17321 bound_to 7965
  140.3445  143.3000  152.0553 LP  0  0  0  0  0  0  0  0  0  0  0  0  # atno 17342 bound_to 10162
  139.4904  144.6419  151.6860 LP  0  0  0  0  0  0  0  0  0  0  0  0  # atno 17343 bound_to 10162
  157.4101  131.0822  151.1228 LP  0  0  0  0  0  0  0  0  0  0  0  0  # atno 17370 bound_to 10713
  157.1863  130.6332  149.5689 LP  0  0  0  0  0  0  0  0  0  0  0  0  # atno 17371 bound_to 10713
  140.0571  134.6049  155.8793 LP  0  0  0  0  0  0  0  0  0  0  0  0  # atno 17394 bound_to 11000
  141.1962  133.6590  156.5680 LP  0  0  0  0  0  0  0  0  0  0  0  0  # atno 17395 bound_to 11000

$$$$
