AV-unprocessed.smi:2070|AV-procd|sdf|8439|dock2
  -GOLD-   2272011133D 1   1.00000     0.00000
 Structure written by MMmdl.
 40 41  0  0  0  0  0  0  0  0  1 V2000
  149.3606  125.4071  150.4313 C   0  0  0  0  0  0  0  0  0  0  0  0
  148.8425  126.5590  151.2339 C   0  0  0  0  0  0  0  0  0  0  0  0
  149.3983  127.0819  152.3747 C   0  0  0  0  0  0  0  0  0  0  0  0
  148.4753  128.4247  152.9913 S   0  0  0  0  0  0  0  0  0  0  0  0
  147.3433  128.2179  151.6603 C   0  0  0  0  0  0  0  0  0  0  0  0
  146.1624  129.1100  151.4453 C   0  0  0  0  0  0  0  0  0  0  0  0
  146.1234  130.3285  152.3883 C   0  0  0  0  0  0  0  0  0  0  0  0
  145.1798  131.3506  151.9475 N   0  0  0  0  0  0  0  0  0  0  0  0
  145.4778  132.3927  151.1542 C   0  0  0  0  0  0  0  0  0  0  0  0
  146.5951  132.5358  150.6553 O   0  0  0  0  0  0  0  0  0  0  0  0
  144.4526  133.2574  150.9457 N   0  0  0  0  0  0  0  0  0  0  0  0
  143.1836  133.2983  151.6924 C   0  0  0  0  0  0  0  0  0  0  0  0
  143.2291  134.4830  152.6738 C   0  0  0  0  0  0  0  0  0  0  0  0
  143.4898  135.8131  151.9286 C   0  0  0  0  0  0  0  0  0  0  0  0
  143.6679  136.9732  152.9171 C   0  0  0  0  0  0  0  0  0  0  0  0
  143.9823  138.1661  152.4055 N   0  0  0  0  0  0  0  0  0  0  0  0
  143.5252  136.7990  154.1258 O   0  0  0  0  0  0  0  0  0  0  0  0
  144.7135  135.6878  150.9900 C   0  0  0  0  0  0  0  0  0  0  0  0
  144.5992  134.4421  150.0916 C   0  0  0  0  0  0  0  0  0  0  0  0
  147.6782  127.2215  150.8351 N   0  0  0  0  0  0  0  0  0  0  0  0
  150.1503  125.7262  149.7507 H   0  0  0  0  0  0  0  0  0  0  0  0
  148.5725  124.9491  149.8327 H   0  0  0  0  0  0  0  0  0  0  0  0
  149.7738  124.6311  151.0760 H   0  0  0  0  0  0  0  0  0  0  0  0
  150.2926  126.7602  152.8875 H   0  0  0  0  0  0  0  0  0  0  0  0
  146.1675  129.4460  150.4076 H   0  0  0  0  0  0  0  0  0  0  0  0
  145.2541  128.5194  151.5687 H   0  0  0  0  0  0  0  0  0  0  0  0
  145.8955  130.0145  153.4081 H   0  0  0  0  0  0  0  0  0  0  0  0
  147.1102  130.7908  152.4217 H   0  0  0  0  0  0  0  0  0  0  0  0
  144.2407  131.2916  152.3136 H   0  0  0  0  0  0  0  0  0  0  0  0
  142.3587  133.4287  150.9903 H   0  0  0  0  0  0  0  0  0  0  0  0
  142.9565  132.3790  152.2321 H   0  0  0  0  0  0  0  0  0  0  0  0
  142.2901  134.5403  153.2260 H   0  0  0  0  0  0  0  0  0  0  0  0
  144.0112  134.3019  153.4121 H   0  0  0  0  0  0  0  0  0  0  0  0
  142.6166  136.0203  151.3073 H   0  0  0  0  0  0  0  0  0  0  0  0
  144.1078  138.9602  153.0160 H   0  0  0  0  0  0  0  0  0  0  0  0
  144.0913  138.2690  151.4070 H   0  0  0  0  0  0  0  0  0  0  0  0
  144.8029  136.5806  150.3697 H   0  0  0  0  0  0  0  0  0  0  0  0
  145.6346  135.6232  151.5722 H   0  0  0  0  0  0  0  0  0  0  0  0
  145.4633  134.3791  149.4289 H   0  0  0  0  0  0  0  0  0  0  0  0
  143.7315  134.5287  149.4361 H   0  0  0  0  0  0  0  0  0  0  0  0
  1  2  1  0  0  0  0
  1 21  1  0  0  0  0
  1 22  1  0  0  0  0
  1 23  1  0  0  0  0
  2 20  1  0  0  0  0
  2  3  2  0  0  0  0
  3  4  1  0  0  0  0
  3 24  1  0  0  0  0
  4  5  1  0  0  0  0
  5  6  1  0  0  0  0
  5 20  2  0  0  0  0
  6  7  1  0  0  0  0
  6 25  1  0  0  0  0
  6 26  1  0  0  0  0
  7  8  1  0  0  0  0
  7 27  1  0  0  0  0
  7 28  1  0  0  0  0
  8  9  1  0  0  0  0
  8 29  1  0  0  0  0
  9 10  2  0  0  0  0
  9 11  1  0  0  0  0
 11 19  1  0  0  0  0
 11 12  1  0  0  0  0
 12 13  1  0  0  0  0
 12 30  1  0  0  0  0
 12 31  1  0  0  0  0
 13 14  1  0  0  0  0
 13 32  1  0  0  0  0
 13 33  1  0  0  0  0
 14 15  1  0  0  0  0
 14 18  1  0  0  0  0
 14 34  1  0  0  0  0
 15 16  1  0  0  0  0
 15 17  2  0  0  0  0
 16 35  1  0  0  0  0
 16 36  1  0  0  0  0
 18 19  1  0  0  0  0
 18 37  1  0  0  0  0
 18 38  1  0  0  0  0
 19 39  1  0  0  0  0
 19 40  1  0  0  0  0
M  END
> <s_m_source_file>
AV-unprocessed.smi

> <i_m_source_file_index>
2070

> <i_lp_mmshare_version>
43012

> <i_f3d_flags>
0

> <s_epik_input>
W0NIM11jMVtjSF1zYyhuMSlbQ0gyXVtDSDJdW05IXUMoPU8pTjJbQ0gyXVtDSDJdW0NIXShDKD1PKVtOSDJdKVtDSDJdW0NIMl0y

> <s_epik_cmdline>
J2VwaWtfcHl0aG9uJywgJy1waCcsICc3LjAnLCAnLXRuJywgJzgnLCAnLW1hJywgJzIwMCcsICctbWV0YWxfYmluZGluZycsICctaW1hZScsICc8aW5maWxlLm1hZT4nLCAnLW9tYWUnLCAnPG91dGZpbGUubWFlPic=

> <r_epik_Ionization_Penalty>
0.00203811

> <r_epik_Ionization_Penalty_Charging>
0

> <r_epik_Ionization_Penalty_Neutral>
0.00203811

> <r_epik_State_Penalty>
0.00135523

> <r_epik_Charging_Adjusted_Penalty>
0.00135523

> <i_epik_Tot_Q>
0

> <i_epik_Tot_abs_Q>
0

> <r_epik_Metal_State_Penalty>
-0

> <b_epik_Metal_Only>
0

> <s_lp_Force_Field>
OPLS_2005

> <r_lp_Energy>
19.595

> <b_lp_Chiralities_Consistent>
1

> <s_lp_Variant>
AV-unprocessed.smi:2070-1

> <Gold.Version>
5.8.1

> <Gold.Id.Protein>
6NUR|6NUR_protein|mol2

> <Gold.PLP.Fitness>
40.3588

> <Gold.PLP.PLP>
-35.4259

> <Gold.PLP.part.hbond>
-1.1866

> <Gold.PLP.part.metal>
0.0000

> <Gold.PLP.part.buried>
-2.2999

> <Gold.PLP.part.nonpolar>
-32.5579

> <Gold.PLP.part.repulsive>
1.6849

> <Gold.PLP.ligand.clash>
0.0000

> <Gold.PLP.ligand.torsion>
0.4242

> <Gold.PLP.Chemscore.Hbond>
1.3840

> <Gold.PLP.Chemscore.CHOScore>
0.5190

> <Gold.PLP.Chemscore.Metal>
0.0000

> <Gold.Chemscore.Hbonds>
donor molecule, donor type, donor heavy atom, donor atom, acceptor molecule, acceptor atom, score
      L1  H    16    35       P1 10175  0.37
      L1  H    16    36       P1 10171  1.00
      L1  C     3    24       P1 10737  0.51

> <Gold.PLP.Chemscore.Internal.Correction>
0.0724

> <Gold.Rescore>
     Score         DG    S(hbond)    S(metal)    S(lipo)     H(rot)  DE(clash)    DE(int)     intcor
     14.20     -15.09       1.47        0.00      82.93       1.95       0.46       0.43       ----

> <Gold.Chemscore.Fitness>
14.2028

> <Gold.Chemscore.DG>
-15.0887

> <Gold.Chemscore.ZeroCoef>
-5.4800

> <Gold.Chemscore.Hbond>
1.4657

> <Gold.Chemscore.Metal>
0.0000

> <Gold.Chemscore.Lipo>
82.9333

> <Gold.Chemscore.Internal_Hbond>
0.0000

> <Gold.Chemscore.DEClash>
0.4570

> <Gold.Chemscore.DEInternal>
0.4289

> <Gold.Chemscore.Rot>
1.9492

> <Gold.Chemscore.Internal.Correction>
   9.000000E+99

> <Gold.Chemscore.Hbonds>
donor molecule, donor type, donor heavy atom, donor atom, acceptor molecule, acceptor atom, score
      L1  H    16    35       P1 10175  0.36
      L1  H    16    36       P1 10171  0.99

> <Gold.Chemscore.Hbond.Weighted>
-4.8955

> <Gold.Chemscore.Metal.Weighted>
-0.0000

> <Gold.Chemscore.Lipo.Weighted>
-9.7032

> <Gold.Chemscore.Internal_Hbond.Weighted>
0.0000

> <Gold.Chemscore.DEClash.Weighted>
0.4570

> <Gold.Chemscore.DEInternal.Weighted>
0.4289

> <Gold.Chemscore.Rot.Weighted>
4.9900

> <Gold.Chemscore.Internal.Correction.Weighted>
   9.000000E+99

> <Gold.Protein.RotatedTorsions>
[ 6907 6896 6895 6894 ] final  -23.74 input  -60.11 | X-H torsion
[ 7974 7965 7964 7962 ] final -116.23 input  175.53 | X-H torsion
[ 8008 7997 7996 7995 ] final   26.36 input   59.86 | X-H torsion
[ 10167 10162 10161 10158 ] final   31.87 input  -65.29 | X-H torsion
[ 10718 10713 10712 10709 ] final  -68.57 input   66.30 | X-H torsion
[ 10763 10752 10751 10750 ] final  -57.93 input  -60.55 | X-H torsion
[ 11005 11000 10999 10996 ] final  174.99 input  -57.11 | X-H torsion

> <Gold.Protein.ActiveResidues>
 VAL166  LYS551  ARG553  GLY616  TRP617  ASP618  TYR619  PRO620  LYS621  CYS622 
 ASP623  PHE694  ASN695  SER759  ASP760  ASP761  ALA762  ILE779  LEU786  VAL792 
 PHE793  MET794  SER795  GLU796  ALA797  LYS798  CYS799  TRP800  GLU811  SER814 

> <Gold.Protein.RotatedAtoms>
  151.1997  135.0437  159.8866 H   0  0  0  0  0  0  0  0  0  0  0  0  # atno 6907 bound_to 6896
  152.5433  134.0864  159.8268 H   0  0  0  0  0  0  0  0  0  0  0  0  # atno 6908 bound_to 6896
  151.1003  133.5201  159.2642 H   0  0  0  0  0  0  0  0  0  0  0  0  # atno 6909 bound_to 6896
  145.0992  140.8541  143.3936 H   0  0  0  0  0  0  0  0  0  0  0  0  # atno 7974 bound_to 7965
  155.0261  140.3153  155.4775 H   0  0  0  0  0  0  0  0  0  0  0  0  # atno 8008 bound_to 7997
  156.2883  140.2188  156.5323 H   0  0  0  0  0  0  0  0  0  0  0  0  # atno 8009 bound_to 7997
  154.7410  140.0473  157.0799 H   0  0  0  0  0  0  0  0  0  0  0  0  # atno 8010 bound_to 7997
  140.4550  144.0992  150.6200 H   0  0  0  0  0  0  0  0  0  0  0  0  # atno 10167 bound_to 10162
  156.0499  130.4297  150.2020 H   0  0  0  0  0  0  0  0  0  0  0  0  # atno 10718 bound_to 10713
  154.2301  135.6362  153.5172 H   0  0  0  0  0  0  0  0  0  0  0  0  # atno 10763 bound_to 10752
  152.9951  135.5517  154.6021 H   0  0  0  0  0  0  0  0  0  0  0  0  # atno 10764 bound_to 10752
  154.5502  135.2901  155.0989 H   0  0  0  0  0  0  0  0  0  0  0  0  # atno 10765 bound_to 10752
  140.3573  134.7143  157.4308 H   0  0  0  0  0  0  0  0  0  0  0  0  # atno 11005 bound_to 11000
  145.0975  139.2846  143.5703 LP  0  0  0  0  0  0  0  0  0  0  0  0  # atno 17320 bound_to 7965
  146.3530  140.0532  142.8634 LP  0  0  0  0  0  0  0  0  0  0  0  0  # atno 17321 bound_to 7965
  140.4162  143.2633  151.9772 LP  0  0  0  0  0  0  0  0  0  0  0  0  # atno 17342 bound_to 10162
  139.4800  144.5871  151.7834 LP  0  0  0  0  0  0  0  0  0  0  0  0  # atno 17343 bound_to 10162
  157.0105  130.9949  151.3367 LP  0  0  0  0  0  0  0  0  0  0  0  0  # atno 17370 bound_to 10713
  157.5414  130.8122  149.8033 LP  0  0  0  0  0  0  0  0  0  0  0  0  # atno 17371 bound_to 10713
  140.0655  134.5936  155.8701 LP  0  0  0  0  0  0  0  0  0  0  0  0  # atno 17394 bound_to 11000
  141.1994  133.6607  156.5844 LP  0  0  0  0  0  0  0  0  0  0  0  0  # atno 17395 bound_to 11000

$$$$
