AV-unprocessed.smi:1834|AV-procd|sdf|7472|dock8
  -GOLD-   22720 9163D 1   1.00000     0.00000
 Structure written by MMmdl.
 46 47  0  0  0  0  0  0  0  0  2 V2000
  144.6285  133.3099  151.0193 C   0  0  0  0  0  0  0  0  0  0  0  0
  146.0382  133.0186  150.4837 C   0  0  0  0  0  0  0  0  0  0  0  0
  146.8815  132.2834  151.4604 N   0  3  2  0  0  0  0  0  0  0  0  0
  146.1891  131.0885  152.0063 C   0  0  0  0  0  0  0  0  0  0  0  0
  147.1287  130.2697  152.9032 C   0  0  0  0  0  0  0  0  0  0  0  0
  147.6890  131.1341  154.0386 C   0  0  0  0  0  0  0  0  0  0  0  0
  148.3847  132.3862  153.4752 C   0  0  2  0  0  0  0  0  0  0  0  0
  148.9356  133.2586  154.6249 C   0  0  0  0  0  0  0  0  0  0  0  0
  149.0977  134.6607  154.2480 N   0  0  0  0  0  0  0  0  0  0  0  0
  149.6945  135.6025  154.9938 C   0  0  0  0  0  0  0  0  0  0  0  0
  150.1602  135.3845  156.1125 O   0  0  0  0  0  0  0  0  0  0  0  0
  149.6993  136.7903  154.3642 N   0  0  0  0  0  0  0  0  0  0  0  0
  150.1663  137.9862  154.8116 C   0  0  0  0  0  0  0  0  0  0  0  0
  151.1195  138.2378  155.7605 C   0  0  0  0  0  0  0  0  0  0  0  0
  151.1667  139.6620  155.7877 C   0  0  0  0  0  0  0  0  0  0  0  0
  152.0322  140.5414  156.6408 C   0  0  0  0  0  0  0  0  0  0  0  0
  150.3172  140.2192  154.9320 N   0  0  0  0  0  0  0  0  0  0  0  0
  149.6951  139.1853  154.3255 N   0  0  0  0  0  0  0  0  0  0  0  0
  148.6882  139.4377  153.3133 C   0  0  0  0  0  0  0  0  0  0  0  0
  147.4138  133.1516  152.5449 C   0  0  0  0  0  0  0  0  0  0  0  0
  144.0769  133.9378  150.3193 H   0  0  0  0  0  0  0  0  0  0  0  0
  144.6699  133.8378  151.9725 H   0  0  0  0  0  0  0  0  0  0  0  0
  144.0450  132.4006  151.1613 H   0  0  0  0  0  0  0  0  0  0  0  0
  145.9870  132.4682  149.5432 H   0  0  0  0  0  0  0  0  0  0  0  0
  146.5079  133.9763  150.2551 H   0  0  0  0  0  0  0  0  0  0  0  0
  145.3072  131.4011  152.5681 H   0  0  0  0  0  0  0  0  0  0  0  0
  145.8377  130.4577  151.1887 H   0  0  0  0  0  0  0  0  0  0  0  0
  146.5960  129.4128  153.3165 H   0  0  0  0  0  0  0  0  0  0  0  0
  147.9489  129.8666  152.3074 H   0  0  0  0  0  0  0  0  0  0  0  0
  146.8793  131.4278  154.7081 H   0  0  0  0  0  0  0  0  0  0  0  0
  148.3889  130.5483  154.6355 H   0  0  0  0  0  0  0  0  0  0  0  0
  149.2333  132.0533  152.8749 H   0  0  0  0  0  0  0  0  0  0  0  0
  148.3045  133.1657  155.5107 H   0  0  0  0  0  0  0  0  0  0  0  0
  149.9195  132.8924  154.9196 H   0  0  0  0  0  0  0  0  0  0  0  0
  148.7450  134.9289  153.3407 H   0  0  0  0  0  0  0  0  0  0  0  0
  149.2879  136.8084  153.4427 H   0  0  0  0  0  0  0  0  0  0  0  0
  151.6973  137.5395  156.3469 H   0  0  0  0  0  0  0  0  0  0  0  0
  152.6840  139.9489  157.2831 H   0  0  0  0  0  0  0  0  0  0  0  0
  151.4280  141.1827  157.2830 H   0  0  0  0  0  0  0  0  0  0  0  0
  152.6657  141.1829  156.0278 H   0  0  0  0  0  0  0  0  0  0  0  0
  147.7868  138.8672  153.5403 H   0  0  0  0  0  0  0  0  0  0  0  0
  149.0676  139.1329  152.3377 H   0  0  0  0  0  0  0  0  0  0  0  0
  148.4348  140.4983  153.2800 H   0  0  0  0  0  0  0  0  0  0  0  0
  147.9368  133.9937  152.0962 H   0  0  0  0  0  0  0  0  0  0  0  0
  146.5851  133.5651  153.1222 H   0  0  0  0  0  0  0  0  0  0  0  0
  147.6770  131.9350  150.9448 H   0  0  0  0  0  0  0  0  0  0  0  0
  1  2  1  0  0  0  0
  1 21  1  0  0  0  0
  1 22  1  0  0  0  0
  1 23  1  0  0  0  0
  2  3  1  0  0  0  0
  2 24  1  0  0  0  0
  2 25  1  0  0  0  0
  3 20  1  0  0  0  0
  3  4  1  0  0  0  0
  3 46  1  0  0  0  0
  4  5  1  0  0  0  0
  4 26  1  0  0  0  0
  4 27  1  0  0  0  0
  5  6  1  0  0  0  0
  5 28  1  0  0  0  0
  5 29  1  0  0  0  0
  6  7  1  0  0  0  0
  6 30  1  0  0  0  0
  6 31  1  0  0  0  0
  7  8  1  0  0  0  0
  7 20  1  0  0  0  0
  7 32  1  0  0  0  0
  8  9  1  0  0  0  0
  8 33  1  0  0  0  0
  8 34  1  0  0  0  0
  9 10  1  0  0  0  0
  9 35  1  0  0  0  0
 10 11  2  0  0  0  0
 10 12  1  0  0  0  0
 12 13  1  0  0  0  0
 12 36  1  0  0  0  0
 13 18  1  0  0  0  0
 13 14  2  0  0  0  0
 14 15  1  0  0  0  0
 14 37  1  0  0  0  0
 15 16  1  0  0  0  0
 15 17  2  0  0  0  0
 16 38  1  0  0  0  0
 16 39  1  0  0  0  0
 16 40  1  0  0  0  0
 17 18  1  0  0  0  0
 18 19  1  0  0  0  0
 19 41  1  0  0  0  0
 19 42  1  0  0  0  0
 19 43  1  0  0  0  0
 20 44  1  0  0  0  0
 20 45  1  0  0  0  0
M  CHG  1   3   1
M  END
> <s_m_source_file>
AV-unprocessed.smi

> <i_m_source_file_index>
1834

> <i_lp_mmshare_version>
43012

> <i_f3d_flags>
0

> <s_epik_input>
W0NIM11bQ0gyXU4xW0NIMl1bQ0gyXVtDSDJdW0NASF0oW0NIMl0xKVtDSDJdW05IXUMoPU8pW05IXWMyW2NIXWMoW0NIM10pbm4yW0NIM10=

> <s_epik_cmdline>
J2VwaWtfcHl0aG9uJywgJy1waCcsICc3LjAnLCAnLXRuJywgJzgnLCAnLW1hJywgJzIwMCcsICctbWV0YWxfYmluZGluZycsICctaW1hZScsICc8aW5maWxlLm1hZT4nLCAnLW9tYWUnLCAnPG91dGZpbGUubWFlPic=

> <r_lp_tautomer_probability>
1

> <r_epik_Ionization_Penalty>
0.000466842

> <r_epik_Ionization_Penalty_Charging>
0.000378984

> <r_epik_Ionization_Penalty_Neutral>
8.78572e-05

> <r_epik_State_Penalty>
0.000231434

> <r_epik_Charging_Adjusted_Penalty>
0.000610418

> <i_epik_Tot_Q>
1

> <i_epik_Tot_abs_Q>
1

> <r_epik_Metal_State_Penalty>
-0

> <b_epik_Metal_Only>
0

> <s_lp_Force_Field>
OPLS_2005

> <r_lp_Energy>
19.5344

> <b_lp_Chiralities_Consistent>
1

> <s_lp_Variant>
AV-unprocessed.smi:1834-4

> <Gold.Version>
5.8.1

> <Gold.Id.Protein>
6NUR|6NUR_protein|mol2

> <Gold.PLP.Fitness>
41.8306

> <Gold.PLP.PLP>
-31.1955

> <Gold.PLP.part.hbond>
-4.0684

> <Gold.PLP.part.metal>
0.0000

> <Gold.PLP.part.buried>
0.8219

> <Gold.PLP.part.nonpolar>
-27.9410

> <Gold.PLP.part.repulsive>
0.1724

> <Gold.PLP.ligand.clash>
0.0000

> <Gold.PLP.ligand.torsion>
0.5446

> <Gold.PLP.Chemscore.Hbond>
3.8960

> <Gold.PLP.Chemscore.CHOScore>
0.0000

> <Gold.PLP.Chemscore.Metal>
0.0000

> <Gold.Chemscore.Hbonds>
donor molecule, donor type, donor heavy atom, donor atom, acceptor molecule, acceptor atom, score
      L1  H     3    46       P1 10747  1.00
      L1  H     9    35       P1  7948  0.88
      L1  H    12    36       P1  7948  1.00
      P1  H  7989  7998       L1    17  0.96

> <Gold.PLP.Chemscore.Internal.Correction>
0.0364

> <Gold.Rescore>
     Score         DG    S(hbond)    S(metal)    S(lipo)     H(rot)  DE(clash)    DE(int)     intcor
     15.98     -19.20       2.47        0.00      78.02       1.43       1.73       1.49       ----

> <Gold.Chemscore.Fitness>
15.9784

> <Gold.Chemscore.DG>
-19.1975

> <Gold.Chemscore.ZeroCoef>
-5.4800

> <Gold.Chemscore.Hbond>
2.4693

> <Gold.Chemscore.Metal>
0.0000

> <Gold.Chemscore.Lipo>
78.0219

> <Gold.Chemscore.Internal_Hbond>
0.0000

> <Gold.Chemscore.DEClash>
1.7290

> <Gold.Chemscore.DEInternal>
1.4902

> <Gold.Chemscore.Rot>
1.4291

> <Gold.Chemscore.Internal.Correction>
   9.000000E+99

> <Gold.Chemscore.Hbonds>
donor molecule, donor type, donor heavy atom, donor atom, acceptor molecule, acceptor atom, score
      L1  H     3    46       P1 10747  1.00
      L1  H     9    35       P1  7948  0.43
      L1  H    12    36       P1  7948  0.94
      P1  H  7989  7998       L1    17  0.09

> <Gold.Chemscore.Hbond.Weighted>
-8.2474

> <Gold.Chemscore.Metal.Weighted>
-0.0000

> <Gold.Chemscore.Lipo.Weighted>
-9.1286

> <Gold.Chemscore.Internal_Hbond.Weighted>
0.0000

> <Gold.Chemscore.DEClash.Weighted>
1.7290

> <Gold.Chemscore.DEInternal.Weighted>
1.4902

> <Gold.Chemscore.Rot.Weighted>
3.6584

> <Gold.Chemscore.Internal.Correction.Weighted>
   9.000000E+99

> <Gold.Protein.RotatedTorsions>
[ 6907 6896 6895 6894 ] final  173.32 input  -60.11 | X-H torsion
[ 7974 7965 7964 7962 ] final  -73.80 input  175.53 | X-H torsion
[ 8008 7997 7996 7995 ] final  -69.31 input   59.86 | X-H torsion
[ 10167 10162 10161 10158 ] final  130.82 input  -65.29 | X-H torsion
[ 10718 10713 10712 10709 ] final   12.88 input   66.30 | X-H torsion
[ 10763 10752 10751 10750 ] final -168.80 input  -60.55 | X-H torsion
[ 11005 11000 10999 10996 ] final  -18.20 input  -57.11 | X-H torsion

> <Gold.Protein.ActiveResidues>
 VAL166  LYS551  ARG553  GLY616  TRP617  ASP618  TYR619  PRO620  LYS621  CYS622 
 ASP623  PHE694  ASN695  SER759  ASP760  ASP761  ALA762  ILE779  LEU786  VAL792 
 PHE793  MET794  SER795  GLU796  ALA797  LYS798  CYS799  TRP800  GLU811  SER814 

> <Gold.Protein.RotatedAtoms>
  151.7701  133.3340  159.3441 H   0  0  0  0  0  0  0  0  0  0  0  0  # atno 6907 bound_to 6896
  150.7465  134.6026  159.6054 H   0  0  0  0  0  0  0  0  0  0  0  0  # atno 6908 bound_to 6896
  152.3347  134.7216  160.0331 H   0  0  0  0  0  0  0  0  0  0  0  0  # atno 6909 bound_to 6896
  145.6475  140.9293  143.1003 H   0  0  0  0  0  0  0  0  0  0  0  0  # atno 7974 bound_to 7965
  154.4929  140.0856  156.7634 H   0  0  0  0  0  0  0  0  0  0  0  0  # atno 8008 bound_to 7997
  155.4186  140.3444  155.4251 H   0  0  0  0  0  0  0  0  0  0  0  0  # atno 8009 bound_to 7997
  156.1355  140.1514  156.8989 H   0  0  0  0  0  0  0  0  0  0  0  0  # atno 8010 bound_to 7997
  139.5412  144.6732  151.4618 H   0  0  0  0  0  0  0  0  0  0  0  0  # atno 10167 bound_to 10162
  157.0165  130.6138  149.5715 H   0  0  0  0  0  0  0  0  0  0  0  0  # atno 10718 bound_to 10713
  154.6590  135.2922  154.9890 H   0  0  0  0  0  0  0  0  0  0  0  0  # atno 10763 bound_to 10752
  154.0956  135.6584  153.4863 H   0  0  0  0  0  0  0  0  0  0  0  0  # atno 10764 bound_to 10752
  153.0419  135.5230  154.7533 H   0  0  0  0  0  0  0  0  0  0  0  0  # atno 10765 bound_to 10752
  140.8244  133.8044  155.9693 H   0  0  0  0  0  0  0  0  0  0  0  0  # atno 11005 bound_to 11000
  144.7135  139.8283  143.7407 LP  0  0  0  0  0  0  0  0  0  0  0  0  # atno 17320 bound_to 7965
  146.1231  139.4252  143.0216 LP  0  0  0  0  0  0  0  0  0  0  0  0  # atno 17321 bound_to 7965
  140.6643  143.8432  150.6923 LP  0  0  0  0  0  0  0  0  0  0  0  0  # atno 17342 bound_to 10162
  140.1836  143.4094  152.1915 LP  0  0  0  0  0  0  0  0  0  0  0  0  # atno 17343 bound_to 10162
  156.0117  130.5209  150.8009 LP  0  0  0  0  0  0  0  0  0  0  0  0  # atno 17370 bound_to 10713
  157.5281  131.0935  150.9991 LP  0  0  0  0  0  0  0  0  0  0  0  0  # atno 17371 bound_to 10713
  140.9065  134.2314  157.5011 LP  0  0  0  0  0  0  0  0  0  0  0  0  # atno 17394 bound_to 11000
  139.8707  134.9730  156.4795 LP  0  0  0  0  0  0  0  0  0  0  0  0  # atno 17395 bound_to 11000

$$$$
