AV-unprocessed.smi:602|AV-procd|sdf|3035|dock1
  -GOLD-   2262023553D 1   1.00000     0.00000
 Structure written by MMmdl.
 47 48  0  0  0  0  0  0  0  0  1 V2000
  137.7594  137.3861  154.6979 C   0  0  0  0  0  0  0  0  0  0  0  0
  138.9779  137.1238  153.8077 C   0  0  0  0  0  0  0  0  0  0  0  0
  140.1778  136.5850  154.6041 C   0  0  0  0  0  0  0  0  0  0  0  0
  141.4151  136.6472  153.8523 N   0  0  0  0  0  0  0  0  0  0  0  0
  142.2187  135.5332  153.5939 C   0  0  0  0  0  0  0  0  0  0  0  0
  141.8044  134.3035  154.0854 N   0  0  0  0  0  0  0  0  0  0  0  0
  143.3610  135.6293  152.8501 C   0  0  0  0  0  0  0  0  0  0  0  0
  144.1748  134.5084  152.6004 N   0  0  0  0  0  0  0  0  0  0  0  0
  143.5796  133.4183  151.8090 C   0  0  0  0  0  0  0  0  0  0  0  0
  144.1695  133.3417  150.3865 C   0  0  0  0  0  0  0  0  0  0  0  0
  144.6024  132.0329  150.0420 O   0  0  0  0  0  0  0  0  0  0  0  0
  145.9531  131.9678  149.6125 C   0  0  0  0  0  0  0  0  0  0  0  0
  145.4758  134.4630  152.9936 C   0  0  0  0  0  0  0  0  0  0  0  0
  146.0092  135.3979  153.5922 O   0  0  0  0  0  0  0  0  0  0  0  0
  146.3141  133.2035  152.6787 C   0  0  0  0  0  0  0  0  0  0  0  0
  147.1206  132.6669  153.8741 C   0  0  0  0  0  0  0  0  0  0  0  0
  148.2927  132.4225  152.9205 C   0  0  0  0  0  0  0  0  0  0  0  0
  147.6634  133.4452  151.9710 C   0  0  0  0  0  0  0  0  0  0  0  0
  143.7994  136.9269  152.3183 C   0  0  0  0  0  0  0  0  0  0  0  0
  144.8239  137.1269  151.6671 O   0  0  0  0  0  0  0  0  0  0  0  0
  142.9444  137.9910  152.5922 N   0  0  0  0  0  0  0  0  0  0  0  0
  141.7626  137.9124  153.3203 C   0  0  0  0  0  0  0  0  0  0  0  0
  141.0780  138.9252  153.4697 O   0  0  0  0  0  0  0  0  0  0  0  0
  143.2012  138.8957  152.2245 H   0  0  0  0  0  0  0  0  0  0  0  0
  136.9228  137.7647  154.1105 H   0  0  0  0  0  0  0  0  0  0  0  0
  137.9869  138.1241  155.4677 H   0  0  0  0  0  0  0  0  0  0  0  0
  137.4316  136.4727  155.1946 H   0  0  0  0  0  0  0  0  0  0  0  0
  138.7060  136.4128  153.0265 H   0  0  0  0  0  0  0  0  0  0  0  0
  139.2550  138.0476  153.2988 H   0  0  0  0  0  0  0  0  0  0  0  0
  140.3209  137.1193  155.5452 H   0  0  0  0  0  0  0  0  0  0  0  0
  140.0329  135.5440  154.8920 H   0  0  0  0  0  0  0  0  0  0  0  0
  140.9502  134.2029  154.6150 H   0  0  0  0  0  0  0  0  0  0  0  0
  142.3696  133.4726  153.9856 H   0  0  0  0  0  0  0  0  0  0  0  0
  143.7760  132.4678  152.3071 H   0  0  0  0  0  0  0  0  0  0  0  0
  142.4922  133.4932  151.7789 H   0  0  0  0  0  0  0  0  0  0  0  0
  143.4125  133.6447  149.6633 H   0  0  0  0  0  0  0  0  0  0  0  0
  144.9894  134.0528  150.2746 H   0  0  0  0  0  0  0  0  0  0  0  0
  146.2071  130.9354  149.3723 H   0  0  0  0  0  0  0  0  0  0  0  0
  146.6439  132.3082  150.3837 H   0  0  0  0  0  0  0  0  0  0  0  0
  146.1091  132.5677  148.7151 H   0  0  0  0  0  0  0  0  0  0  0  0
  145.7518  132.4204  152.1692 H   0  0  0  0  0  0  0  0  0  0  0  0
  147.3386  133.4224  154.6314 H   0  0  0  0  0  0  0  0  0  0  0  0
  146.7150  131.7587  154.3212 H   0  0  0  0  0  0  0  0  0  0  0  0
  149.2688  132.7060  153.3151 H   0  0  0  0  0  0  0  0  0  0  0  0
  148.2983  131.4119  152.5093 H   0  0  0  0  0  0  0  0  0  0  0  0
  147.6823  133.1457  150.9226 H   0  0  0  0  0  0  0  0  0  0  0  0
  148.0859  134.4420  152.1065 H   0  0  0  0  0  0  0  0  0  0  0  0
  1  2  1  0  0  0  0
  1 25  1  0  0  0  0
  1 26  1  0  0  0  0
  1 27  1  0  0  0  0
  2  3  1  0  0  0  0
  2 28  1  0  0  0  0
  2 29  1  0  0  0  0
  3  4  1  0  0  0  0
  3 30  1  0  0  0  0
  3 31  1  0  0  0  0
  4 22  1  0  0  0  0
  4  5  1  0  0  0  0
  5  6  1  0  0  0  0
  5  7  2  0  0  0  0
  6 32  1  0  0  0  0
  6 33  1  0  0  0  0
  7  8  1  0  0  0  0
  7 19  1  0  0  0  0
  8  9  1  0  0  0  0
  8 13  1  0  0  0  0
  9 10  1  0  0  0  0
  9 34  1  0  0  0  0
  9 35  1  0  0  0  0
 10 11  1  0  0  0  0
 10 36  1  0  0  0  0
 10 37  1  0  0  0  0
 11 12  1  0  0  0  0
 12 38  1  0  0  0  0
 12 39  1  0  0  0  0
 12 40  1  0  0  0  0
 13 14  2  0  0  0  0
 13 15  1  0  0  0  0
 15 18  1  0  0  0  0
 15 16  1  0  0  0  0
 15 41  1  0  0  0  0
 16 17  1  0  0  0  0
 16 42  1  0  0  0  0
 16 43  1  0  0  0  0
 17 18  1  0  0  0  0
 17 44  1  0  0  0  0
 17 45  1  0  0  0  0
 18 46  1  0  0  0  0
 18 47  1  0  0  0  0
 19 20  2  0  0  0  0
 19 21  1  0  0  0  0
 21 24  1  0  0  0  0
 21 22  1  0  0  0  0
 22 23  2  0  0  0  0
M  END
> <s_m_source_file>
AV-unprocessed.smi

> <i_m_source_file_index>
602

> <i_lp_mmshare_version>
43012

> <i_f3d_flags>
0

> <s_epik_input>
W0NIM11bQ0gyXVtDSDJdbjFjKFtOSDJdKWMoYyg9TylbbkhdYzE9TylOKFtDSDJdW0NIMl1PW0NIM10pQyg9TylbQ0hdMltDSDJdW0NIMl1bQ0gyXTI=

> <s_epik_cmdline>
J2VwaWtfcHl0aG9uJywgJy1waCcsICc3LjAnLCAnLXRuJywgJzgnLCAnLW1hJywgJzIwMCcsICctbWV0YWxfYmluZGluZycsICctaW1hZScsICc8aW5maWxlLm1hZT4nLCAnLW9tYWUnLCAnPG91dGZpbGUubWFlPic=

> <r_lp_tautomer_probability>
1

> <r_epik_Ionization_Penalty>
1.77098e-05

> <r_epik_Ionization_Penalty_Charging>
5.46221e-06

> <r_epik_Ionization_Penalty_Neutral>
1.22476e-05

> <r_epik_State_Penalty>
-0

> <r_epik_Charging_Adjusted_Penalty>
5.46221e-06

> <i_epik_Tot_Q>
0

> <i_epik_Tot_abs_Q>
0

> <r_epik_Metal_State_Penalty>
-0

> <b_epik_Metal_Only>
0

> <s_epik_Chemistry_Notes>
This compound has an imine and may undergo hydrolysis.

> <s_lp_Force_Field>
OPLS_2005

> <r_lp_Energy>
36.0285

> <b_lp_Chiralities_Consistent>
1

> <s_lp_Variant>
AV-unprocessed.smi:602-1

> <Gold.Version>
5.8.1

> <Gold.Id.Protein>
6NUR|6NUR_protein|mol2

> <Gold.PLP.Fitness>
47.0349

> <Gold.PLP.PLP>
-42.9111

> <Gold.PLP.part.hbond>
-3.7773

> <Gold.PLP.part.metal>
0.0000

> <Gold.PLP.part.buried>
-9.5603

> <Gold.PLP.part.nonpolar>
-32.7334

> <Gold.PLP.part.repulsive>
2.4360

> <Gold.PLP.ligand.clash>
0.0000

> <Gold.PLP.ligand.torsion>
2.2440

> <Gold.PLP.Chemscore.Hbond>
1.8480

> <Gold.PLP.Chemscore.CHOScore>
0.0000

> <Gold.PLP.Chemscore.Metal>
0.0000

> <Gold.Chemscore.Hbonds>
donor molecule, donor type, donor heavy atom, donor atom, acceptor molecule, acceptor atom, score
      L1  H     6    32       P1 11000  0.60
      L1  H     6    33       P1 10957  0.82
      L1  H    21    24       P1 10175  1.00

> <Gold.PLP.Chemscore.Internal.Correction>
3.0678

> <Gold.Rescore>
     Score         DG    S(hbond)    S(metal)    S(lipo)     H(rot)  DE(clash)    DE(int)     intcor
     13.68     -16.61       2.76        0.00      62.87       2.12       0.34       2.59       ----

> <Gold.Chemscore.Fitness>
13.6800

> <Gold.Chemscore.DG>
-16.6066

> <Gold.Chemscore.ZeroCoef>
-5.4800

> <Gold.Chemscore.Hbond>
2.7560

> <Gold.Chemscore.Metal>
0.0000

> <Gold.Chemscore.Lipo>
62.8655

> <Gold.Chemscore.Internal_Hbond>
0.0000

> <Gold.Chemscore.DEClash>
0.3369

> <Gold.Chemscore.DEInternal>
2.5896

> <Gold.Chemscore.Rot>
2.1226

> <Gold.Chemscore.Internal.Correction>
   9.000000E+99

> <Gold.Chemscore.Hbonds>
donor molecule, donor type, donor heavy atom, donor atom, acceptor molecule, acceptor atom, score
      L1  H     6    32       P1 11000  0.54
      L1  H     6    33       P1 10957  0.81
      L1  H    21    24       P1 10175  0.94

> <Gold.Chemscore.Hbond.Weighted>
-9.2051

> <Gold.Chemscore.Metal.Weighted>
-0.0000

> <Gold.Chemscore.Lipo.Weighted>
-7.3553

> <Gold.Chemscore.Internal_Hbond.Weighted>
0.0000

> <Gold.Chemscore.DEClash.Weighted>
0.3369

> <Gold.Chemscore.DEInternal.Weighted>
2.5896

> <Gold.Chemscore.Rot.Weighted>
5.4338

> <Gold.Chemscore.Internal.Correction.Weighted>
   9.000000E+99

> <Gold.Protein.RotatedTorsions>
[ 6907 6896 6895 6894 ] final -121.22 input  -60.11 | X-H torsion
[ 7974 7965 7964 7962 ] final   33.77 input  175.53 | X-H torsion
[ 8008 7997 7996 7995 ] final -111.43 input   59.86 | X-H torsion
[ 10167 10162 10161 10158 ] final -177.92 input  -65.29 | X-H torsion
[ 10718 10713 10712 10709 ] final   75.90 input   66.30 | X-H torsion
[ 10763 10752 10751 10750 ] final   54.64 input  -60.55 | X-H torsion
[ 11005 11000 10999 10996 ] final  169.02 input  -57.11 | X-H torsion

> <Gold.Protein.ActiveResidues>
 VAL166  LYS551  ARG553  GLY616  TRP617  ASP618  TYR619  PRO620  LYS621  CYS622 
 ASP623  PHE694  ASN695  SER759  ASP760  ASP761  ALA762  ILE779  LEU786  VAL792 
 PHE793  MET794  SER795  GLU796  ALA797  LYS798  CYS799  TRP800  GLU811  SER814 

> <Gold.Protein.RotatedAtoms>
  150.8463  133.7856  159.3041 H   0  0  0  0  0  0  0  0  0  0  0  0  # atno 6907 bound_to 6896
  151.5542  135.1065  159.9966 H   0  0  0  0  0  0  0  0  0  0  0  0  # atno 6908 bound_to 6896
  152.4516  133.7598  159.6796 H   0  0  0  0  0  0  0  0  0  0  0  0  # atno 6909 bound_to 6896
  146.1398  139.6355  142.9170 H   0  0  0  0  0  0  0  0  0  0  0  0  # atno 7974 bound_to 7965
  154.9897  140.0395  157.2314 H   0  0  0  0  0  0  0  0  0  0  0  0  # atno 8008 bound_to 7997
  154.7639  140.2789  155.6169 H   0  0  0  0  0  0  0  0  0  0  0  0  # atno 8009 bound_to 7997
  156.2909  140.2623  156.2425 H   0  0  0  0  0  0  0  0  0  0  0  0  # atno 8010 bound_to 7997
  139.5457  144.2243  152.0982 H   0  0  0  0  0  0  0  0  0  0  0  0  # atno 10167 bound_to 10162
  157.6652  130.9748  150.1420 H   0  0  0  0  0  0  0  0  0  0  0  0  # atno 10718 bound_to 10713
  152.9807  135.5738  154.4937 H   0  0  0  0  0  0  0  0  0  0  0  0  # atno 10763 bound_to 10752
  154.4467  135.2777  155.1811 H   0  0  0  0  0  0  0  0  0  0  0  0  # atno 10764 bound_to 10752
  154.3456  135.6220  153.5671 H   0  0  0  0  0  0  0  0  0  0  0  0  # atno 10765 bound_to 10752
  140.2933  134.7655  157.3856 H   0  0  0  0  0  0  0  0  0  0  0  0  # atno 11005 bound_to 11000
  145.5072  141.0436  143.2508 LP  0  0  0  0  0  0  0  0  0  0  0  0  # atno 17320 bound_to 7965
  144.7780  139.6587  143.7166 LP  0  0  0  0  0  0  0  0  0  0  0  0  # atno 17321 bound_to 7965
  140.1729  144.4918  150.6570 LP  0  0  0  0  0  0  0  0  0  0  0  0  # atno 17342 bound_to 10162
  140.6704  143.2283  151.5640 LP  0  0  0  0  0  0  0  0  0  0  0  0  # atno 17343 bound_to 10162
  156.2240  130.3676  149.8522 LP  0  0  0  0  0  0  0  0  0  0  0  0  # atno 17370 bound_to 10713
  156.6367  130.8688  151.3506 LP  0  0  0  0  0  0  0  0  0  0  0  0  # atno 17371 bound_to 10713
  140.1175  134.5263  155.8212 LP  0  0  0  0  0  0  0  0  0  0  0  0  # atno 17394 bound_to 11000
  141.2142  133.6745  156.6804 LP  0  0  0  0  0  0  0  0  0  0  0  0  # atno 17395 bound_to 11000

$$$$
