AV-unprocessed.smi:2944|AV-procd|sdf|11272|dock2
  -GOLD-   2272016163D 1   1.00000     0.00000
 Structure written by MMmdl.
 44 46  0  0  0  0  0  0  0  0  1 V2000
  150.5107  138.6698  154.4175 C   0  0  0  0  0  0  0  0  0  0  0  0
  151.5789  138.4104  155.3100 O   0  0  0  0  0  0  0  0  0  0  0  0
  152.0785  139.5895  155.9190 C   0  0  0  0  0  0  0  0  0  0  0  0
  151.0344  140.1504  156.8942 C   0  0  0  0  0  0  0  0  0  0  0  0
  151.6536  140.8218  158.0275 N   0  0  0  0  0  0  0  0  0  0  0  0
  152.2833  140.2683  159.0938 C   0  0  0  0  0  0  0  0  0  0  0  0
  152.4642  138.5196  159.2615 S   0  0  0  0  0  0  0  0  0  0  0  0
  153.2852  138.4530  160.8849 C   0  0  2  0  0  0  0  0  0  0  0  0
  154.5913  139.2697  160.8645 C   0  0  0  0  0  0  0  0  0  0  0  0
  153.5136  136.9899  161.3170 C   0  0  0  0  0  0  0  0  0  0  0  0
  153.3520  136.1070  160.4701 O   0  0  0  0  0  0  0  0  0  0  0  0
  153.8643  136.7346  162.6095 N   0  0  0  0  0  0  0  0  0  0  0  0
  154.0825  137.7707  163.6229 C   0  0  0  0  0  0  0  0  0  0  0  0
  154.4013  136.9984  164.8971 C   0  0  0  0  0  0  0  0  0  0  0  0
  154.3630  135.6336  164.4372 N   0  0  0  0  0  0  0  0  0  0  0  0
  154.0567  135.5040  163.1444 C   0  0  0  0  0  0  0  0  0  0  0  0
  153.9700  134.4142  162.5770 O   0  0  0  0  0  0  0  0  0  0  0  0
  152.7619  141.1324  159.9902 N   0  0  0  0  0  0  0  0  0  0  0  0
  152.4136  142.3564  159.4550 C   0  0  0  0  0  0  0  0  0  0  0  0
  152.6402  143.6671  159.9325 C   0  0  0  0  0  0  0  0  0  0  0  0
  152.1850  144.7823  159.1985 C   0  0  0  0  0  0  0  0  0  0  0  0
  151.4994  144.6031  157.9795 C   0  0  0  0  0  0  0  0  0  0  0  0
  151.2637  143.3057  157.4863 C   0  0  0  0  0  0  0  0  0  0  0  0
  151.7187  142.1966  158.2239 C   0  0  0  0  0  0  0  0  0  0  0  0
  150.1607  137.7329  153.9847 H   0  0  0  0  0  0  0  0  0  0  0  0
  150.8283  139.3199  153.6012 H   0  0  0  0  0  0  0  0  0  0  0  0
  149.6709  139.1378  154.9329 H   0  0  0  0  0  0  0  0  0  0  0  0
  153.0049  139.3698  156.4522 H   0  0  0  0  0  0  0  0  0  0  0  0
  152.3097  140.3345  155.1565 H   0  0  0  0  0  0  0  0  0  0  0  0
  150.3917  140.8652  156.3797 H   0  0  0  0  0  0  0  0  0  0  0  0
  150.3786  139.3559  157.2494 H   0  0  0  0  0  0  0  0  0  0  0  0
  152.6405  138.9300  161.6213 H   0  0  0  0  0  0  0  0  0  0  0  0
  155.1118  139.2101  161.8210 H   0  0  0  0  0  0  0  0  0  0  0  0
  154.3944  140.3237  160.6699 H   0  0  0  0  0  0  0  0  0  0  0  0
  155.2731  138.9176  160.0894 H   0  0  0  0  0  0  0  0  0  0  0  0
  154.9210  138.4132  163.3502 H   0  0  0  0  0  0  0  0  0  0  0  0
  153.1974  138.3919  163.7606 H   0  0  0  0  0  0  0  0  0  0  0  0
  155.3863  137.2457  165.2942 H   0  0  0  0  0  0  0  0  0  0  0  0
  153.6523  137.1610  165.6729 H   0  0  0  0  0  0  0  0  0  0  0  0
  154.5475  134.8522  165.0496 H   0  0  0  0  0  0  0  0  0  0  0  0
  153.1658  143.8152  160.8643 H   0  0  0  0  0  0  0  0  0  0  0  0
  152.3636  145.7802  159.5718 H   0  0  0  0  0  0  0  0  0  0  0  0
  151.1549  145.4624  157.4230 H   0  0  0  0  0  0  0  0  0  0  0  0
  150.7409  143.1652  156.5518 H   0  0  0  0  0  0  0  0  0  0  0  0
  1  2  1  0  0  0  0
  1 25  1  0  0  0  0
  1 26  1  0  0  0  0
  1 27  1  0  0  0  0
  2  3  1  0  0  0  0
  3  4  1  0  0  0  0
  3 28  1  0  0  0  0
  3 29  1  0  0  0  0
  4  5  1  0  0  0  0
  4 30  1  0  0  0  0
  4 31  1  0  0  0  0
  5 24  1  0  0  0  0
  5  6  1  0  0  0  0
  6  7  1  0  0  0  0
  6 18  2  0  0  0  0
  7  8  1  0  0  0  0
  8  9  1  0  0  0  0
  8 10  1  0  0  0  0
  8 32  1  0  0  0  0
  9 33  1  0  0  0  0
  9 34  1  0  0  0  0
  9 35  1  0  0  0  0
 10 11  2  0  0  0  0
 10 12  1  0  0  0  0
 12 16  1  0  0  0  0
 12 13  1  0  0  0  0
 13 14  1  0  0  0  0
 13 36  1  0  0  0  0
 13 37  1  0  0  0  0
 14 15  1  0  0  0  0
 14 38  1  0  0  0  0
 14 39  1  0  0  0  0
 15 16  1  0  0  0  0
 15 40  1  0  0  0  0
 16 17  2  0  0  0  0
 18 19  1  0  0  0  0
 19 24  2  0  0  0  0
 19 20  1  0  0  0  0
 20 21  2  0  0  0  0
 20 41  1  0  0  0  0
 21 22  1  0  0  0  0
 21 42  1  0  0  0  0
 22 23  2  0  0  0  0
 22 43  1  0  0  0  0
 23 24  1  0  0  0  0
 23 44  1  0  0  0  0
M  END
> <s_m_source_file>
AV-unprocessed.smi

> <i_m_source_file_index>
2944

> <i_lp_mmshare_version>
43012

> <i_f3d_flags>
0

> <s_epik_input>
W2NIXTFbY0hdW2NIXVtjSF1jKGMxMiluKFtDSDJdW0NIMl1PW0NIM10pYyhuMilTW0NASF0oW0NIM10pQyg9TylOM1tDSDJdW0NIMl1bTkhdQzM9Tw==

> <s_epik_cmdline>
J2VwaWtfcHl0aG9uJywgJy1waCcsICc3LjAnLCAnLXRuJywgJzgnLCAnLW1hJywgJzIwMCcsICctbWV0YWxfYmluZGluZycsICctaW1hZScsICc8aW5maWxlLm1hZT4nLCAnLW9tYWUnLCAnPG91dGZpbGUubWFlPic=

> <r_lp_tautomer_probability>
0.9999

> <r_epik_Ionization_Penalty>
0.0250226

> <r_epik_Ionization_Penalty_Charging>
0

> <r_epik_Ionization_Penalty_Neutral>
0.0250226

> <r_epik_State_Penalty>
0.0203222

> <r_epik_Charging_Adjusted_Penalty>
0.0203222

> <i_epik_Tot_Q>
0

> <i_epik_Tot_abs_Q>
0

> <r_epik_Metal_State_Penalty>
0.0194901

> <b_epik_Metal_Only>
0

> <s_lp_Force_Field>
OPLS_2005

> <r_lp_Energy>
42.2169

> <b_lp_Chiralities_Consistent>
1

> <s_lp_Variant>
AV-unprocessed.smi:2944-1

> <Gold.Version>
5.8.1

> <Gold.Id.Protein>
6NUR|6NUR_protein|mol2

> <Gold.PLP.Fitness>
52.2928

> <Gold.PLP.PLP>
-50.3978

> <Gold.PLP.part.hbond>
-1.0000

> <Gold.PLP.part.metal>
0.0000

> <Gold.PLP.part.buried>
-6.8031

> <Gold.PLP.part.nonpolar>
-43.0234

> <Gold.PLP.part.repulsive>
0.0419

> <Gold.PLP.ligand.clash>
0.0000

> <Gold.PLP.ligand.torsion>
0.6268

> <Gold.PLP.Chemscore.Hbond>
1.0000

> <Gold.PLP.Chemscore.CHOScore>
0.0000

> <Gold.PLP.Chemscore.Metal>
0.0000

> <Gold.Chemscore.Hbonds>
donor molecule, donor type, donor heavy atom, donor atom, acceptor molecule, acceptor atom, score
      P1  H  6896  6908       L1    11  1.00

> <Gold.PLP.Chemscore.Internal.Correction>
0.1485

> <Gold.Rescore>
     Score         DG    S(hbond)    S(metal)    S(lipo)     H(rot)  DE(clash)    DE(int)     intcor
     13.68     -17.02       1.00        0.00     119.08       2.24       0.12       3.23       ----

> <Gold.Chemscore.Fitness>
13.6752

> <Gold.Chemscore.DG>
-17.0227

> <Gold.Chemscore.ZeroCoef>
-5.4800

> <Gold.Chemscore.Hbond>
0.9983

> <Gold.Chemscore.Metal>
0.0000

> <Gold.Chemscore.Lipo>
119.0760

> <Gold.Chemscore.Internal_Hbond>
0.0000

> <Gold.Chemscore.DEClash>
0.1196

> <Gold.Chemscore.DEInternal>
3.2279

> <Gold.Chemscore.Rot>
2.2357

> <Gold.Chemscore.Internal.Correction>
   9.000000E+99

> <Gold.Chemscore.Hbonds>
donor molecule, donor type, donor heavy atom, donor atom, acceptor molecule, acceptor atom, score
      P1  H  6896  6908       L1    11  1.00

> <Gold.Chemscore.Hbond.Weighted>
-3.3342

> <Gold.Chemscore.Metal.Weighted>
-0.0000

> <Gold.Chemscore.Lipo.Weighted>
-13.9319

> <Gold.Chemscore.Internal_Hbond.Weighted>
0.0000

> <Gold.Chemscore.DEClash.Weighted>
0.1196

> <Gold.Chemscore.DEInternal.Weighted>
3.2279

> <Gold.Chemscore.Rot.Weighted>
5.7234

> <Gold.Chemscore.Internal.Correction.Weighted>
   9.000000E+99

> <Gold.Protein.RotatedTorsions>
[ 6907 6896 6895 6894 ] final  -71.43 input  -60.11 | X-H torsion
[ 7974 7965 7964 7962 ] final  145.99 input  175.53 | X-H torsion
[ 8008 7997 7996 7995 ] final   29.63 input   59.86 | X-H torsion
[ 10167 10162 10161 10158 ] final   52.48 input  -65.29 | X-H torsion
[ 10718 10713 10712 10709 ] final   -2.15 input   66.30 | X-H torsion
[ 10763 10752 10751 10750 ] final  171.39 input  -60.55 | X-H torsion
[ 11005 11000 10999 10996 ] final -129.69 input  -57.11 | X-H torsion

> <Gold.Protein.ActiveResidues>
 VAL166  LYS551  ARG553  GLY616  TRP617  ASP618  TYR619  PRO620  LYS621  CYS622 
 ASP623  PHE694  ASN695  SER759  ASP760  ASP761  ALA762  ILE779  LEU786  VAL792 
 PHE793  MET794  SER795  GLU796  ALA797  LYS798  CYS799  TRP800  GLU811  SER814 

> <Gold.Protein.RotatedAtoms>
  150.7213  134.5310  159.5699 H   0  0  0  0  0  0  0  0  0  0  0  0  # atno 6907 bound_to 6896
  152.2843  134.7791  160.0399 H   0  0  0  0  0  0  0  0  0  0  0  0  # atno 6908 bound_to 6896
  151.8426  133.3391  159.3685 H   0  0  0  0  0  0  0  0  0  0  0  0  # atno 6909 bound_to 6896
  144.8707  139.5850  143.5888 H   0  0  0  0  0  0  0  0  0  0  0  0  # atno 7974 bound_to 7965
  155.0775  140.3207  155.4611 H   0  0  0  0  0  0  0  0  0  0  0  0  # atno 8008 bound_to 7997
  156.2775  140.2101  156.5849 H   0  0  0  0  0  0  0  0  0  0  0  0  # atno 8009 bound_to 7997
  154.7005  140.0507  157.0440 H   0  0  0  0  0  0  0  0  0  0  0  0  # atno 8010 bound_to 7997
  140.2509  144.3480  150.6348 H   0  0  0  0  0  0  0  0  0  0  0  0  # atno 10167 bound_to 10162
  156.7951  130.5374  149.5730 H   0  0  0  0  0  0  0  0  0  0  0  0  # atno 10718 bound_to 10713
  154.4112  135.2756  155.2035 H   0  0  0  0  0  0  0  0  0  0  0  0  # atno 10763 bound_to 10752
  154.4020  135.6042  153.5906 H   0  0  0  0  0  0  0  0  0  0  0  0  # atno 10764 bound_to 10752
  152.9831  135.5928  154.4394 H   0  0  0  0  0  0  0  0  0  0  0  0  # atno 10765 bound_to 10752
  140.9410  134.1193  157.4150 H   0  0  0  0  0  0  0  0  0  0  0  0  # atno 11005 bound_to 11000
  146.2928  139.7190  142.9148 LP  0  0  0  0  0  0  0  0  0  0  0  0  # atno 17320 bound_to 7965
  145.4135  141.0399  143.3004 LP  0  0  0  0  0  0  0  0  0  0  0  0  # atno 17321 bound_to 7965
  140.6041  143.2167  151.7015 LP  0  0  0  0  0  0  0  0  0  0  0  0  # atno 17342 bound_to 10162
  139.5046  144.3746  152.0436 LP  0  0  0  0  0  0  0  0  0  0  0  0  # atno 17343 bound_to 10162
  156.1135  130.6058  151.0084 LP  0  0  0  0  0  0  0  0  0  0  0  0  # atno 17370 bound_to 10713
  157.6581  131.0886  150.7900 LP  0  0  0  0  0  0  0  0  0  0  0  0  # atno 17371 bound_to 10713
  139.8820  135.0036  156.6200 LP  0  0  0  0  0  0  0  0  0  0  0  0  # atno 17394 bound_to 11000
  140.7734  133.8720  155.8509 LP  0  0  0  0  0  0  0  0  0  0  0  0  # atno 17395 bound_to 11000

$$$$
