AV-unprocessed.smi:2919|AV-procd|sdf|11195|dock5
  -GOLD-   2272016 83D 1   1.00000     0.00000
 Structure written by MMmdl.
 34 36  0  0  0  0  0  0  0  0  1 V2000
  147.4573  139.2842  154.5138 C   0  0  0  0  0  0  0  0  0  0  0  0
  148.6743  139.8516  155.2229 C   0  0  0  0  0  0  0  0  0  0  0  0
  148.4329  140.9377  155.9892 N   0  0  0  0  0  0  0  0  0  0  0  0
  149.4241  141.5246  156.6616 N   0  0  0  0  0  0  0  0  0  0  0  0
  150.6904  141.0467  156.5954 C   0  0  0  0  0  0  0  0  0  0  0  0
  151.6817  141.7198  157.3336 N   0  0  0  0  0  0  0  0  0  0  0  0
  151.3401  142.6753  158.3822 C   0  0  1  0  0  0  0  0  0  0  0  0
  152.3150  142.6441  159.5668 C   0  0  0  0  0  0  0  0  0  0  0  0
  152.7823  144.1034  159.6321 C   0  0  2  0  0  0  0  0  0  0  0  0
  151.6656  145.0527  160.0875 C   0  0  0  0  0  0  0  0  0  0  0  0
  150.7705  145.0983  158.8495 C   0  0  0  0  0  0  0  0  0  0  0  0
  151.4907  144.1290  157.9026 C   0  0  1  0  0  0  0  0  0  0  0  0
  152.8381  144.4061  158.2496 O   0  0  0  0  0  0  0  0  0  0  0  0
  151.0158  139.9112  155.8089 C   0  0  0  0  0  0  0  0  0  0  0  0
  152.3834  139.3998  155.7398 C   0  0  0  0  0  0  0  0  0  0  0  0
  153.4659  138.9951  155.6850 N   0  0  0  0  0  0  0  0  0  0  0  0
  149.9654  139.2851  155.0914 C   0  0  0  0  0  0  0  0  0  0  0  0
  150.2221  138.0571  154.2213 C   0  0  0  0  0  0  0  0  0  0  0  0
  147.5973  139.3144  153.4331 H   0  0  0  0  0  0  0  0  0  0  0  0
  146.5562  139.8523  154.7485 H   0  0  0  0  0  0  0  0  0  0  0  0
  147.2867  138.2508  154.8160 H   0  0  0  0  0  0  0  0  0  0  0  0
  152.6399  141.4068  157.2713 H   0  0  0  0  0  0  0  0  0  0  0  0
  150.3127  142.5004  158.7044 H   0  0  0  0  0  0  0  0  0  0  0  0
  151.8408  142.3157  160.4921 H   0  0  0  0  0  0  0  0  0  0  0  0
  153.1645  141.9876  159.3724 H   0  0  0  0  0  0  0  0  0  0  0  0
  153.7257  144.2419  160.1604 H   0  0  0  0  0  0  0  0  0  0  0  0
  151.1463  144.6848  160.9731 H   0  0  0  0  0  0  0  0  0  0  0  0
  152.0622  146.0442  160.3090 H   0  0  0  0  0  0  0  0  0  0  0  0
  149.7435  144.7955  159.0565 H   0  0  0  0  0  0  0  0  0  0  0  0
  150.7517  146.1042  158.4289 H   0  0  0  0  0  0  0  0  0  0  0  0
  151.2494  144.2878  156.8508 H   0  0  0  0  0  0  0  0  0  0  0  0
  150.6107  137.2397  154.8297 H   0  0  0  0  0  0  0  0  0  0  0  0
  150.9584  138.2884  153.4510 H   0  0  0  0  0  0  0  0  0  0  0  0
  149.3304  137.6907  153.7161 H   0  0  0  0  0  0  0  0  0  0  0  0
  1  2  1  0  0  0  0
  1 19  1  0  0  0  0
  1 20  1  0  0  0  0
  1 21  1  0  0  0  0
  2 17  1  0  0  0  0
  2  3  2  0  0  0  0
  3  4  1  0  0  0  0
  4  5  2  0  0  0  0
  5  6  1  0  0  0  0
  5 14  1  0  0  0  0
  6  7  1  0  0  0  0
  6 22  1  0  0  0  0
  7 12  1  0  0  0  0
  7  8  1  0  0  0  0
  7 23  1  0  0  0  0
  8  9  1  0  0  0  0
  8 24  1  0  0  0  0
  8 25  1  0  0  0  0
  9 13  1  0  0  0  0
  9 10  1  0  0  0  0
  9 26  1  0  0  0  0
 10 11  1  0  0  0  0
 10 27  1  0  0  0  0
 10 28  1  0  0  0  0
 11 12  1  0  0  0  0
 11 29  1  0  0  0  0
 11 30  1  0  0  0  0
 12 13  1  0  0  0  0
 12 31  1  0  0  0  0
 14 15  1  0  0  0  0
 14 17  2  0  0  0  0
 15 16  3  0  0  0  0
 17 18  1  0  0  0  0
 18 32  1  0  0  0  0
 18 33  1  0  0  0  0
 18 34  1  0  0  0  0
M  END
> <s_m_source_file>
AV-unprocessed.smi

> <i_m_source_file_index>
2919

> <i_lp_mmshare_version>
43012

> <i_f3d_flags>
0

> <s_epik_input>
W0NIM11jMW5uYyhjKEMjTiljMVtDSDNdKVtOSF1bQ0BIXShbQ0gyXVtDQEBIXTIzKVtDQEBIXShPMylbQ0gyXVtDSDJdMg==

> <s_epik_cmdline>
J2VwaWtfcHl0aG9uJywgJy1waCcsICc3LjAnLCAnLXRuJywgJzgnLCAnLW1hJywgJzIwMCcsICctbWV0YWxfYmluZGluZycsICctaW1hZScsICc8aW5maWxlLm1hZT4nLCAnLW9tYWUnLCAnPG91dGZpbGUubWFlPic=

> <r_lp_tautomer_probability>
1

> <r_epik_Ionization_Penalty>
0.00143865

> <r_epik_Ionization_Penalty_Charging>
0

> <r_epik_Ionization_Penalty_Neutral>
0.00143865

> <r_epik_State_Penalty>
-0

> <r_epik_Charging_Adjusted_Penalty>
0

> <i_epik_Tot_Q>
0

> <i_epik_Tot_abs_Q>
0

> <r_epik_Metal_State_Penalty>
-0

> <b_epik_Metal_Only>
0

> <s_lp_Force_Field>
OPLS_2005

> <r_lp_Energy>
49.0135

> <b_lp_Chiralities_Consistent>
1

> <s_lp_Variant>
AV-unprocessed.smi:2919-4

> <Gold.Version>
5.8.1

> <Gold.Id.Protein>
6NUR|6NUR_protein|mol2

> <Gold.PLP.Fitness>
40.5982

> <Gold.PLP.PLP>
-38.2668

> <Gold.PLP.part.hbond>
-1.0000

> <Gold.PLP.part.metal>
0.0000

> <Gold.PLP.part.buried>
-2.1934

> <Gold.PLP.part.nonpolar>
-36.7073

> <Gold.PLP.part.repulsive>
1.6482

> <Gold.PLP.ligand.clash>
0.0000

> <Gold.PLP.ligand.torsion>
0.3443

> <Gold.PLP.Chemscore.Hbond>
1.0000

> <Gold.PLP.Chemscore.CHOScore>
0.0000

> <Gold.PLP.Chemscore.Metal>
0.0000

> <Gold.Chemscore.Hbonds>
donor molecule, donor type, donor heavy atom, donor atom, acceptor molecule, acceptor atom, score
      P1  H  7997  8010       L1    16  0.94

> <Gold.PLP.Chemscore.Internal.Correction>
0.0200

> <Gold.Rescore>
     Score         DG    S(hbond)    S(metal)    S(lipo)     H(rot)  DE(clash)    DE(int)     intcor
     15.34     -15.73       0.41        0.00      97.91       1.00       0.05       0.34       ----

> <Gold.Chemscore.Fitness>
15.3400

> <Gold.Chemscore.DG>
-15.7305

> <Gold.Chemscore.ZeroCoef>
-5.4800

> <Gold.Chemscore.Hbond>
0.4058

> <Gold.Chemscore.Metal>
0.0000

> <Gold.Chemscore.Lipo>
97.9067

> <Gold.Chemscore.Internal_Hbond>
0.0000

> <Gold.Chemscore.DEClash>
0.0485

> <Gold.Chemscore.DEInternal>
0.3420

> <Gold.Chemscore.Rot>
1.0000

> <Gold.Chemscore.Internal.Correction>
   9.000000E+99

> <Gold.Chemscore.Hbonds>
donor molecule, donor type, donor heavy atom, donor atom, acceptor molecule, acceptor atom, score
      P1  H  7997  8010       L1    16  0.47

> <Gold.Chemscore.Hbond.Weighted>
-1.3555

> <Gold.Chemscore.Metal.Weighted>
-0.0000

> <Gold.Chemscore.Lipo.Weighted>
-11.4551

> <Gold.Chemscore.Internal_Hbond.Weighted>
0.0000

> <Gold.Chemscore.DEClash.Weighted>
0.0485

> <Gold.Chemscore.DEInternal.Weighted>
0.3420

> <Gold.Chemscore.Rot.Weighted>
2.5600

> <Gold.Chemscore.Internal.Correction.Weighted>
   9.000000E+99

> <Gold.Protein.RotatedTorsions>
[ 6907 6896 6895 6894 ] final   18.57 input  -60.11 | X-H torsion
[ 7974 7965 7964 7962 ] final -114.50 input  175.53 | X-H torsion
[ 8008 7997 7996 7995 ] final   78.89 input   59.86 | X-H torsion
[ 10167 10162 10161 10158 ] final   94.66 input  -65.29 | X-H torsion
[ 10718 10713 10712 10709 ] final    5.76 input   66.30 | X-H torsion
[ 10763 10752 10751 10750 ] final  106.95 input  -60.55 | X-H torsion
[ 11005 11000 10999 10996 ] final -136.46 input  -57.11 | X-H torsion

> <Gold.Protein.ActiveResidues>
 VAL166  LYS551  ARG553  GLY616  TRP617  ASP618  TYR619  PRO620  LYS621  CYS622 
 ASP623  PHE694  ASN695  SER759  ASP760  ASP761  ALA762  ILE779  LEU786  VAL792 
 PHE793  MET794  SER795  GLU796  ALA797  LYS798  CYS799  TRP800  GLU811  SER814 

> <Gold.Protein.RotatedAtoms>
  151.8673  135.0502  160.0475 H   0  0  0  0  0  0  0  0  0  0  0  0  # atno 6907 bound_to 6896
  152.2616  133.5298  159.5393 H   0  0  0  0  0  0  0  0  0  0  0  0  # atno 6908 bound_to 6896
  150.7118  134.0738  159.3916 H   0  0  0  0  0  0  0  0  0  0  0  0  # atno 6909 bound_to 6896
  145.1194  140.8660  143.3822 H   0  0  0  0  0  0  0  0  0  0  0  0  # atno 7974 bound_to 7965
  155.8621  140.3453  155.5763 H   0  0  0  0  0  0  0  0  0  0  0  0  # atno 8008 bound_to 7997
  155.7922  140.0873  157.2022 H   0  0  0  0  0  0  0  0  0  0  0  0  # atno 8009 bound_to 7997
  154.4012  140.1481  156.3163 H   0  0  0  0  0  0  0  0  0  0  0  0  # atno 8010 bound_to 7997
  139.8063  144.6792  150.9699 H   0  0  0  0  0  0  0  0  0  0  0  0  # atno 10167 bound_to 10162
  156.9122  130.5760  149.5647 H   0  0  0  0  0  0  0  0  0  0  0  0  # atno 10718 bound_to 10713
  153.4001  135.3860  155.1981 H   0  0  0  0  0  0  0  0  0  0  0  0  # atno 10763 bound_to 10752
  154.8728  135.3769  154.4630 H   0  0  0  0  0  0  0  0  0  0  0  0  # atno 10764 bound_to 10752
  153.5126  135.7087  153.5835 H   0  0  0  0  0  0  0  0  0  0  0  0  # atno 10765 bound_to 10752
  140.8803  134.1940  157.4595 H   0  0  0  0  0  0  0  0  0  0  0  0  # atno 11005 bound_to 11000
  145.0757  139.2998  143.5809 LP  0  0  0  0  0  0  0  0  0  0  0  0  # atno 17320 bound_to 7965
  146.3522  140.0246  142.8655 LP  0  0  0  0  0  0  0  0  0  0  0  0  # atno 17321 bound_to 7965
  140.7819  143.4230  151.0811 LP  0  0  0  0  0  0  0  0  0  0  0  0  # atno 17342 bound_to 10162
  139.7899  143.8233  152.3150 LP  0  0  0  0  0  0  0  0  0  0  0  0  # atno 17343 bound_to 10162
  156.0530  130.5597  150.9032 LP  0  0  0  0  0  0  0  0  0  0  0  0  # atno 17370 bound_to 10713
  157.5960  131.0943  150.9040 LP  0  0  0  0  0  0  0  0  0  0  0  0  # atno 17371 bound_to 10713
  139.8719  134.9814  156.5115 LP  0  0  0  0  0  0  0  0  0  0  0  0  # atno 17394 bound_to 11000
  140.8469  133.8162  155.9130 LP  0  0  0  0  0  0  0  0  0  0  0  0  # atno 17395 bound_to 11000

$$$$
