AV-unprocessed.smi:121|AV-procd|sdf|1140|dock6
  -GOLD-   2262018273D 1   1.00000     0.00000
 Structure written by MMmdl.
 37 39  0  0  0  0  0  0  0  0  1 V2000
  152.0401  144.5354  158.7922 N   0  0  0  0  0  0  0  0  0  0  0  0
  152.4375  143.5343  159.2147 C   0  0  0  0  0  0  0  0  0  0  0  0
  152.9370  142.2769  159.7455 C   0  0  0  0  0  0  0  0  0  0  0  0
  153.4731  142.2231  161.0480 C   0  0  0  0  0  0  0  0  0  0  0  0
  153.9602  141.0045  161.5576 C   0  0  0  0  0  0  0  0  0  0  0  0
  153.9101  139.8394  160.7687 C   0  0  0  0  0  0  0  0  0  0  0  0
  153.3680  139.8816  159.4670 C   0  0  0  0  0  0  0  0  0  0  0  0
  153.3250  138.6034  158.6364 C   0  0  0  0  0  0  0  0  0  0  0  0
  152.0669  138.3406  157.9544 N   0  0  0  0  0  0  0  0  0  0  0  0
  151.0897  137.6055  158.6695 C   0  0  0  0  0  0  0  0  0  0  0  0
  151.2887  137.1979  159.8156 O   0  0  0  0  0  0  0  0  0  0  0  0
  149.8450  137.3833  157.9426 C   0  0  0  0  0  0  0  0  0  0  0  0
  148.8566  136.6769  158.5169 F   0  0  0  0  0  0  0  0  0  0  0  0
  149.6687  137.8739  156.6970 C   0  0  0  0  0  0  0  0  0  0  0  0
  150.6326  138.6126  156.0320 N   0  0  0  0  0  0  0  0  0  0  0  0
  150.3823  139.1416  154.6379 C   0  0  1  0  0  0  0  0  0  0  0  0
  149.0651  138.5833  154.0865 C   0  0  0  0  0  0  0  0  0  0  0  0
  148.0985  139.7129  154.3709 C   0  0  0  0  0  0  0  0  0  0  0  0
  148.9933  140.9335  154.1946 C   0  0  0  0  0  0  0  0  0  0  0  0
  150.2650  140.5343  154.6965 O   0  0  0  0  0  0  0  0  0  0  0  0
  151.8787  138.8586  156.6498 C   0  0  0  0  0  0  0  0  0  0  0  0
  152.7548  139.5039  156.0696 O   0  0  0  0  0  0  0  0  0  0  0  0
  152.8868  141.1089  158.9571 C   0  0  0  0  0  0  0  0  0  0  0  0
  153.5152  143.1125  161.6604 H   0  0  0  0  0  0  0  0  0  0  0  0
  154.3723  140.9629  162.5551 H   0  0  0  0  0  0  0  0  0  0  0  0
  154.2859  138.9094  161.1697 H   0  0  0  0  0  0  0  0  0  0  0  0
  154.1308  138.6136  157.9022 H   0  0  0  0  0  0  0  0  0  0  0  0
  153.5297  137.7280  159.2562 H   0  0  0  0  0  0  0  0  0  0  0  0
  148.7278  137.6725  156.2067 H   0  0  0  0  0  0  0  0  0  0  0  0
  151.2564  138.8788  154.0406 H   0  0  0  0  0  0  0  0  0  0  0  0
  149.1730  138.4357  153.0114 H   0  0  0  0  0  0  0  0  0  0  0  0
  148.7892  137.6341  154.5480 H   0  0  0  0  0  0  0  0  0  0  0  0
  147.2359  139.7170  153.7037 H   0  0  0  0  0  0  0  0  0  0  0  0
  147.7368  139.6521  155.3981 H   0  0  0  0  0  0  0  0  0  0  0  0
  149.0948  141.1812  153.1371 H   0  0  0  0  0  0  0  0  0  0  0  0
  148.6149  141.8128  154.7162 H   0  0  0  0  0  0  0  0  0  0  0  0
  152.4786  141.1596  157.9583 H   0  0  0  0  0  0  0  0  0  0  0  0
  1  2  3  0  0  0  0
  2  3  1  0  0  0  0
  3 23  1  0  0  0  0
  3  4  2  0  0  0  0
  4  5  1  0  0  0  0
  4 24  1  0  0  0  0
  5  6  2  0  0  0  0
  5 25  1  0  0  0  0
  6  7  1  0  0  0  0
  6 26  1  0  0  0  0
  7  8  1  0  0  0  0
  7 23  2  0  0  0  0
  8  9  1  0  0  0  0
  8 27  1  0  0  0  0
  8 28  1  0  0  0  0
  9 21  1  0  0  0  0
  9 10  1  0  0  0  0
 10 11  2  0  0  0  0
 10 12  1  0  0  0  0
 12 13  1  0  0  0  0
 12 14  2  0  0  0  0
 14 15  1  0  0  0  0
 14 29  1  0  0  0  0
 15 16  1  0  0  0  0
 15 21  1  0  0  0  0
 16 20  1  0  0  0  0
 16 17  1  0  0  0  0
 16 30  1  0  0  0  0
 17 18  1  0  0  0  0
 17 31  1  0  0  0  0
 17 32  1  0  0  0  0
 18 19  1  0  0  0  0
 18 33  1  0  0  0  0
 18 34  1  0  0  0  0
 19 20  1  0  0  0  0
 19 35  1  0  0  0  0
 19 36  1  0  0  0  0
 21 22  2  0  0  0  0
 23 37  1  0  0  0  0
M  END
> <s_m_source_file>
AV-unprocessed.smi

> <i_m_source_file_index>
121

> <i_lp_mmshare_version>
43012

> <i_f3d_flags>
0

> <s_epik_input>
TiNDYzFbY0hdW2NIXVtjSF1jKFtjSF0xKVtDSDJdbjJjKD1PKWMoRilbY0hdbihjMj1PKVtDQEBIXTNbQ0gyXVtDSDJdW0NIMl1PMw==

> <s_epik_cmdline>
J2VwaWtfcHl0aG9uJywgJy1waCcsICc3LjAnLCAnLXRuJywgJzgnLCAnLW1hJywgJzIwMCcsICctbWV0YWxfYmluZGluZycsICctaW1hZScsICc8aW5maWxlLm1hZT4nLCAnLW9tYWUnLCAnPG91dGZpbGUubWFlPic=

> <r_lp_tautomer_probability>
1

> <r_epik_Ionization_Penalty>
1.69864e-08

> <r_epik_Ionization_Penalty_Charging>
1.69802e-08

> <r_epik_Ionization_Penalty_Neutral>
6.20402e-12

> <r_epik_State_Penalty>
-0

> <r_epik_Charging_Adjusted_Penalty>
1.69802e-08

> <i_epik_Tot_Q>
0

> <i_epik_Tot_abs_Q>
0

> <r_epik_Metal_State_Penalty>
-0

> <b_epik_Metal_Only>
0

> <s_epik_Chemistry_Notes>
This compound contains an acetal/aminal-like group ( X-CH(R)-Y where X, Y are N, S, or O) that may be acid/base labile, releasing an aldehyde.

> <s_lp_Force_Field>
OPLS_2005

> <r_lp_Energy>
33.8546

> <b_lp_Chiralities_Consistent>
1

> <s_lp_Variant>
AV-unprocessed.smi:121-2

> <Gold.Version>
5.8.1

> <Gold.Id.Protein>
6NUR|6NUR_protein|mol2

> <Gold.PLP.Fitness>
48.1804

> <Gold.PLP.PLP>
-41.4645

> <Gold.PLP.part.hbond>
-2.9569

> <Gold.PLP.part.metal>
0.0000

> <Gold.PLP.part.buried>
-6.4627

> <Gold.PLP.part.nonpolar>
-32.8805

> <Gold.PLP.part.repulsive>
0.1458

> <Gold.PLP.ligand.clash>
0.0000

> <Gold.PLP.ligand.torsion>
0.6956

> <Gold.PLP.Chemscore.Hbond>
2.6993

> <Gold.PLP.Chemscore.CHOScore>
0.0000

> <Gold.PLP.Chemscore.Metal>
0.0000

> <Gold.Chemscore.Hbonds>
donor molecule, donor type, donor heavy atom, donor atom, acceptor molecule, acceptor atom, score
      P1  H  6896  6908       L1    11  0.98
      P1  H  7989  7998       L1    20  0.76
      P1  H  7997  8008       L1    22  1.00

> <Gold.PLP.Chemscore.Internal.Correction>
0.0095

> <Gold.Rescore>
     Score         DG    S(hbond)    S(metal)    S(lipo)     H(rot)  DE(clash)    DE(int)     intcor
     16.24     -17.75       1.99        0.00      82.81       1.59       0.04       1.48       ----

> <Gold.Chemscore.Fitness>
16.2411

> <Gold.Chemscore.DG>
-17.7550

> <Gold.Chemscore.ZeroCoef>
-5.4800

> <Gold.Chemscore.Hbond>
1.9918

> <Gold.Chemscore.Metal>
0.0000

> <Gold.Chemscore.Lipo>
82.8053

> <Gold.Chemscore.Internal_Hbond>
0.0000

> <Gold.Chemscore.DEClash>
0.0354

> <Gold.Chemscore.DEInternal>
1.4785

> <Gold.Chemscore.Rot>
1.5882

> <Gold.Chemscore.Internal.Correction>
   9.000000E+99

> <Gold.Chemscore.Hbonds>
donor molecule, donor type, donor heavy atom, donor atom, acceptor molecule, acceptor atom, score
      P1  H  6896  6908       L1    11  0.84
      P1  H  7989  7998       L1    20  0.09
      P1  H  7997  8008       L1    22  1.00

> <Gold.Chemscore.Hbond.Weighted>
-6.6525

> <Gold.Chemscore.Metal.Weighted>
-0.0000

> <Gold.Chemscore.Lipo.Weighted>
-9.6882

> <Gold.Chemscore.Internal_Hbond.Weighted>
0.0000

> <Gold.Chemscore.DEClash.Weighted>
0.0354

> <Gold.Chemscore.DEInternal.Weighted>
1.4785

> <Gold.Chemscore.Rot.Weighted>
4.0657

> <Gold.Chemscore.Internal.Correction.Weighted>
   9.000000E+99

> <Gold.Protein.RotatedTorsions>
[ 6907 6896 6895 6894 ] final -125.45 input  -60.11 | X-H torsion
[ 7974 7965 7964 7962 ] final  -58.11 input  175.53 | X-H torsion
[ 8008 7997 7996 7995 ] final  -38.83 input   59.86 | X-H torsion
[ 10167 10162 10161 10158 ] final  137.83 input  -65.29 | X-H torsion
[ 10718 10713 10712 10709 ] final   91.33 input   66.30 | X-H torsion
[ 10763 10752 10751 10750 ] final  156.67 input  -60.55 | X-H torsion
[ 11005 11000 10999 10996 ] final  -16.80 input  -57.11 | X-H torsion

> <Gold.Protein.ActiveResidues>
 VAL166  LYS551  ARG553  GLY616  TRP617  ASP618  TYR619  PRO620  LYS621  CYS622 
 ASP623  PHE694  ASN695  SER759  ASP760  ASP761  ALA762  ILE779  LEU786  VAL792 
 PHE793  MET794  SER795  GLU796  ALA797  LYS798  CYS799  TRP800  GLU811  SER814 

> <Gold.Protein.RotatedAtoms>
  150.8869  133.7296  159.2915 H   0  0  0  0  0  0  0  0  0  0  0  0  # atno 6907 bound_to 6896
  151.4859  135.1053  159.9800 H   0  0  0  0  0  0  0  0  0  0  0  0  # atno 6908 bound_to 6896
  152.4795  133.8174  159.7091 H   0  0  0  0  0  0  0  0  0  0  0  0  # atno 6909 bound_to 6896
  145.8432  140.8403  143.0024 H   0  0  0  0  0  0  0  0  0  0  0  0  # atno 7974 bound_to 7965
  154.4031  140.1567  156.2763 H   0  0  0  0  0  0  0  0  0  0  0  0  # atno 8008 bound_to 7997
  155.8908  140.3438  155.5933 H   0  0  0  0  0  0  0  0  0  0  0  0  # atno 8009 bound_to 7997
  155.7560  140.0811  157.2169 H   0  0  0  0  0  0  0  0  0  0  0  0  # atno 8010 bound_to 7997
  139.5131  144.6388  151.5625 H   0  0  0  0  0  0  0  0  0  0  0  0  # atno 10167 bound_to 10162
  157.6960  131.0403  150.3714 H   0  0  0  0  0  0  0  0  0  0  0  0  # atno 10718 bound_to 10713
  154.1880  135.2796  155.3031 H   0  0  0  0  0  0  0  0  0  0  0  0  # atno 10763 bound_to 10752
  154.5951  135.5547  153.7320 H   0  0  0  0  0  0  0  0  0  0  0  0  # atno 10764 bound_to 10752
  153.0120  135.6378  154.2019 H   0  0  0  0  0  0  0  0  0  0  0  0  # atno 10765 bound_to 10752
  140.8104  133.8145  155.9557 H   0  0  0  0  0  0  0  0  0  0  0  0  # atno 11005 bound_to 11000
  144.6732  140.0842  143.7468 LP  0  0  0  0  0  0  0  0  0  0  0  0  # atno 17320 bound_to 7965
  145.9442  139.2689  143.1251 LP  0  0  0  0  0  0  0  0  0  0  0  0  # atno 17321 bound_to 7965
  140.6147  143.9371  150.6479 LP  0  0  0  0  0  0  0  0  0  0  0  0  # atno 17342 bound_to 10162
  140.2625  143.3513  152.1310 LP  0  0  0  0  0  0  0  0  0  0  0  0  # atno 17343 bound_to 10162
  156.4138  130.3939  149.6873 LP  0  0  0  0  0  0  0  0  0  0  0  0  # atno 17370 bound_to 10713
  156.4148  130.7739  151.2754 LP  0  0  0  0  0  0  0  0  0  0  0  0  # atno 17371 bound_to 10713
  140.9204  134.2149  157.4930 LP  0  0  0  0  0  0  0  0  0  0  0  0  # atno 17394 bound_to 11000
  139.8714  134.9789  156.5017 LP  0  0  0  0  0  0  0  0  0  0  0  0  # atno 17395 bound_to 11000

$$$$
