AV-unprocessed.smi:2889|AV-procd|sdf|11112|dock6
  -GOLD-   2272015583D 1   1.00000     0.00000
 Structure written by MMmdl.
 35 36  0  0  0  0  0  0  0  0  2 V2000
  151.8684  145.6415  159.7700 C   0  0  0  0  0  0  0  0  0  0  0  0
  151.9850  144.4023  158.4525 S   0  0  0  0  0  0  0  0  0  0  0  0
  152.0942  142.8705  159.4344 C   0  0  2  0  0  0  0  0  0  0  0  0
  152.9951  143.1025  160.6803 C   0  0  0  0  0  0  0  0  0  0  0  0
  153.1680  141.8429  161.5530 C   0  0  0  0  0  0  0  0  0  0  0  0
  153.6818  140.6824  160.6802 C   0  0  0  0  0  0  0  0  0  0  0  0
  152.7775  140.4280  159.4504 C   0  0  0  0  0  0  0  0  0  0  0  0
  152.5774  141.6793  158.5568 C   0  0  1  0  0  0  0  0  0  0  0  0
  151.6013  141.3854  157.5144 N   0  5  0  0  0  0  0  0  0  0  0  0
  151.8095  140.0909  156.5607 S   0  0  0  0  0  0  0  0  0  0  0  0
  151.4107  140.3432  155.1664 O   0  0  0  0  0  0  0  0  0  0  0  0
  153.1101  139.4342  156.7730 O   0  0  0  0  0  0  0  0  0  0  0  0
  150.5393  138.9495  157.2569 C   0  0  0  0  0  0  0  0  0  0  0  0
  150.6297  137.6033  156.5935 C   0  0  0  0  0  0  0  0  0  0  0  0
  149.6428  136.9261  155.8241 C   0  0  0  0  0  0  0  0  0  0  0  0
  150.2578  135.7606  155.4691 C   0  0  0  0  0  0  0  0  0  0  0  0
  151.5209  135.7204  155.9628 O   0  0  0  0  0  0  0  0  0  0  0  0
  151.7505  136.9024  156.6761 N   0  0  0  0  0  0  0  0  0  0  0  0
  151.7589  146.6359  159.3375 H   0  0  0  0  0  0  0  0  0  0  0  0
  152.7638  145.6346  160.3903 H   0  0  0  0  0  0  0  0  0  0  0  0
  151.0028  145.4438  160.4023 H   0  0  0  0  0  0  0  0  0  0  0  0
  151.0874  142.6397  159.7867 H   0  0  0  0  0  0  0  0  0  0  0  0
  153.9789  143.4597  160.3693 H   0  0  0  0  0  0  0  0  0  0  0  0
  152.5756  143.8972  161.2965 H   0  0  0  0  0  0  0  0  0  0  0  0
  153.8595  142.0387  162.3728 H   0  0  0  0  0  0  0  0  0  0  0  0
  152.2122  141.5716  162.0027 H   0  0  0  0  0  0  0  0  0  0  0  0
  154.7042  140.8922  160.3592 H   0  0  0  0  0  0  0  0  0  0  0  0
  153.7393  139.7749  161.2818 H   0  0  0  0  0  0  0  0  0  0  0  0
  153.2014  139.6150  158.8605 H   0  0  0  0  0  0  0  0  0  0  0  0
  151.8073  140.0729  159.8011 H   0  0  0  0  0  0  0  0  0  0  0  0
  153.5465  141.9506  158.1357 H   0  0  0  0  0  0  0  0  0  0  0  0
  150.7060  138.8669  158.3304 H   0  0  0  0  0  0  0  0  0  0  0  0
  149.5588  139.4028  157.1071 H   0  0  0  0  0  0  0  0  0  0  0  0
  148.6400  137.2443  155.5805 H   0  0  0  0  0  0  0  0  0  0  0  0
  149.9454  134.9022  154.8930 H   0  0  0  0  0  0  0  0  0  0  0  0
  1  2  1  0  0  0  0
  1 19  1  0  0  0  0
  1 20  1  0  0  0  0
  1 21  1  0  0  0  0
  2  3  1  0  0  0  0
  3  8  1  0  0  0  0
  3  4  1  0  0  0  0
  3 22  1  0  0  0  0
  4  5  1  0  0  0  0
  4 23  1  0  0  0  0
  4 24  1  0  0  0  0
  5  6  1  0  0  0  0
  5 25  1  0  0  0  0
  5 26  1  0  0  0  0
  6  7  1  0  0  0  0
  6 27  1  0  0  0  0
  6 28  1  0  0  0  0
  7  8  1  0  0  0  0
  7 29  1  0  0  0  0
  7 30  1  0  0  0  0
  8  9  1  0  0  0  0
  8 31  1  0  0  0  0
  9 10  1  0  0  0  0
 10 11  2  0  0  0  0
 10 12  2  0  0  0  0
 10 13  1  0  0  0  0
 13 14  1  0  0  0  0
 13 32  1  0  0  0  0
 13 33  1  0  0  0  0
 14 18  2  0  0  0  0
 14 15  1  0  0  0  0
 15 16  2  0  0  0  0
 15 34  1  0  0  0  0
 16 17  1  0  0  0  0
 16 35  1  0  0  0  0
 17 18  1  0  0  0  0
M  CHG  1   9  -1
M  END
> <s_m_source_file>
AV-unprocessed.smi

> <i_m_source_file_index>
2889

> <i_lp_mmshare_version>
43012

> <i_f3d_flags>
0

> <s_epik_input>
W0NIM11TW0NAQEhdMVtDSDJdW0NIMl1bQ0gyXVtDSDJdW0NASF0xW05IXVMoPU8pKD1PKVtDSDJdYzJbY0hdW2NIXW9uMg==

> <s_epik_cmdline>
J2VwaWtfcHl0aG9uJywgJy1waCcsICc3LjAnLCAnLXRuJywgJzgnLCAnLW1hJywgJzIwMCcsICctbWV0YWxfYmluZGluZycsICctaW1hZScsICc8aW5maWxlLm1hZT4nLCAnLW9tYWUnLCAnPG91dGZpbGUubWFlPic=

> <r_lp_tautomer_probability>
1

> <r_epik_Ionization_Penalty>
4.65467

> <r_epik_Ionization_Penalty_Charging>
4.65467

> <r_epik_Ionization_Penalty_Neutral>
2.71476e-10

> <r_epik_State_Penalty>
4.65444

> <r_epik_Charging_Adjusted_Penalty>
9.30911

> <i_epik_Tot_Q>
-1

> <i_epik_Tot_abs_Q>
1

> <r_epik_Metal_State_Penalty>
0.901484

> <b_epik_Metal_Only>
1

> <s_lp_Force_Field>
OPLS_2005

> <r_lp_Energy>
8.40565

> <b_lp_Chiralities_Consistent>
1

> <s_lp_Variant>
AV-unprocessed.smi:2889-5

> <Gold.Version>
5.8.1

> <Gold.Id.Protein>
6NUR|6NUR_protein|mol2

> <Gold.PLP.Fitness>
44.2100

> <Gold.PLP.PLP>
-35.6866

> <Gold.PLP.part.hbond>
-2.7935

> <Gold.PLP.part.metal>
0.0000

> <Gold.PLP.part.buried>
-5.2490

> <Gold.PLP.part.nonpolar>
-27.8285

> <Gold.PLP.part.repulsive>
0.0616

> <Gold.PLP.ligand.clash>
0.0000

> <Gold.PLP.ligand.torsion>
0.7322

> <Gold.PLP.Chemscore.Hbond>
2.9913

> <Gold.PLP.Chemscore.CHOScore>
0.0000

> <Gold.PLP.Chemscore.Metal>
0.0000

> <Gold.Chemscore.Hbonds>
donor molecule, donor type, donor heavy atom, donor atom, acceptor molecule, acceptor atom, score
      P1  H  7989  7998       L1    11  0.98
      P1  H  7997  8008       L1    12  0.89
      P1  H 10752 10764       L1    17  1.00

> <Gold.PLP.Chemscore.Internal.Correction>
1.0141

> <Gold.Rescore>
     Score         DG    S(hbond)    S(metal)    S(lipo)     H(rot)  DE(clash)    DE(int)     intcor
     18.55     -21.84       2.70        0.00      96.17       1.53       0.00       3.29       ----

> <Gold.Chemscore.Fitness>
18.5488

> <Gold.Chemscore.DG>
-21.8427

> <Gold.Chemscore.ZeroCoef>
-5.4800

> <Gold.Chemscore.Hbond>
2.7039

> <Gold.Chemscore.Metal>
0.0000

> <Gold.Chemscore.Lipo>
96.1725

> <Gold.Chemscore.Internal_Hbond>
0.0000

> <Gold.Chemscore.DEClash>
0.0038

> <Gold.Chemscore.DEInternal>
3.2901

> <Gold.Chemscore.Rot>
1.5314

> <Gold.Chemscore.Internal.Correction>
   9.000000E+99

> <Gold.Chemscore.Hbonds>
donor molecule, donor type, donor heavy atom, donor atom, acceptor molecule, acceptor atom, score
      P1  H  7989  7998       L1    11  0.93
      P1  H  7997  8008       L1    12  0.84
      P1  H 10752 10764       L1    17  0.53

> <Gold.Chemscore.Hbond.Weighted>
-9.0309

> <Gold.Chemscore.Metal.Weighted>
-0.0000

> <Gold.Chemscore.Lipo.Weighted>
-11.2522

> <Gold.Chemscore.Internal_Hbond.Weighted>
0.0000

> <Gold.Chemscore.DEClash.Weighted>
0.0038

> <Gold.Chemscore.DEInternal.Weighted>
3.2901

> <Gold.Chemscore.Rot.Weighted>
3.9205

> <Gold.Chemscore.Internal.Correction.Weighted>
   9.000000E+99

> <Gold.Protein.RotatedTorsions>
[ 6907 6896 6895 6894 ] final -121.04 input  -60.11 | X-H torsion
[ 7974 7965 7964 7962 ] final  -15.68 input  175.53 | X-H torsion
[ 8008 7997 7996 7995 ] final  -74.02 input   59.86 | X-H torsion
[ 10167 10162 10161 10158 ] final  129.93 input  -65.29 | X-H torsion
[ 10718 10713 10712 10709 ] final  154.01 input   66.30 | X-H torsion
[ 10763 10752 10751 10750 ] final  -51.32 input  -60.55 | X-H torsion
[ 11005 11000 10999 10996 ] final -102.76 input  -57.11 | X-H torsion

> <Gold.Protein.ActiveResidues>
 VAL166  LYS551  ARG553  GLY616  TRP617  ASP618  TYR619  PRO620  LYS621  CYS622 
 ASP623  PHE694  ASN695  SER759  ASP760  ASP761  ALA762  ILE779  LEU786  VAL792 
 PHE793  MET794  SER795  GLU796  ALA797  LYS798  CYS799  TRP800  GLU811  SER814 

> <Gold.Protein.RotatedAtoms>
  150.8447  133.7880  159.3047 H   0  0  0  0  0  0  0  0  0  0  0  0  # atno 6907 bound_to 6896
  151.5571  135.1065  159.9973 H   0  0  0  0  0  0  0  0  0  0  0  0  # atno 6908 bound_to 6896
  152.4503  133.7574  159.6784 H   0  0  0  0  0  0  0  0  0  0  0  0  # atno 6909 bound_to 6896
  146.2021  140.3527  142.8419 H   0  0  0  0  0  0  0  0  0  0  0  0  # atno 7974 bound_to 7965
  154.5295  140.0769  156.8320 H   0  0  0  0  0  0  0  0  0  0  0  0  # atno 8008 bound_to 7997
  155.3404  140.3407  155.4221 H   0  0  0  0  0  0  0  0  0  0  0  0  # atno 8009 bound_to 7997
  156.1767  140.1638  156.8336 H   0  0  0  0  0  0  0  0  0  0  0  0  # atno 8010 bound_to 7997
  139.5454  144.6768  151.4490 H   0  0  0  0  0  0  0  0  0  0  0  0  # atno 10167 bound_to 10162
  157.2373  131.0751  151.1815 H   0  0  0  0  0  0  0  0  0  0  0  0  # atno 10718 bound_to 10713
  154.1246  135.6529  153.4910 H   0  0  0  0  0  0  0  0  0  0  0  0  # atno 10763 bound_to 10752
  153.0214  135.5278  154.7062 H   0  0  0  0  0  0  0  0  0  0  0  0  # atno 10764 bound_to 10752
  154.6279  135.2972  155.0220 H   0  0  0  0  0  0  0  0  0  0  0  0  # atno 10765 bound_to 10752
  141.1175  133.8584  157.1400 H   0  0  0  0  0  0  0  0  0  0  0  0  # atno 11005 bound_to 11000
  144.8708  140.7269  143.6048 LP  0  0  0  0  0  0  0  0  0  0  0  0  # atno 17320 bound_to 7965
  145.3447  139.1722  143.4467 LP  0  0  0  0  0  0  0  0  0  0  0  0  # atno 17321 bound_to 7965
  140.6700  143.8314  150.6988 LP  0  0  0  0  0  0  0  0  0  0  0  0  # atno 17342 bound_to 10162
  140.1735  143.4174  152.1984 LP  0  0  0  0  0  0  0  0  0  0  0  0  # atno 17343 bound_to 10162
  157.3416  130.7036  149.6385 LP  0  0  0  0  0  0  0  0  0  0  0  0  # atno 17370 bound_to 10713
  155.9672  130.4278  150.4761 LP  0  0  0  0  0  0  0  0  0  0  0  0  # atno 17371 bound_to 10713
  140.0108  134.9989  157.0391 LP  0  0  0  0  0  0  0  0  0  0  0  0  # atno 17394 bound_to 11000
  140.4603  134.1491  155.7190 LP  0  0  0  0  0  0  0  0  0  0  0  0  # atno 17395 bound_to 11000

$$$$
