AV-unprocessed.smi:3308|AV-procd|sdf|12708|dock8
  -GOLD-   2272019 43D 1   1.00000     0.00000
 Structure written by MMmdl.
 41 42  0  0  0  0  0  0  0  0  2 V2000
  147.0874  140.8322  152.9228 C   0  0  0  0  0  0  0  0  0  0  0  0
  148.1758  139.7740  153.1868 C   0  0  2  0  0  0  0  0  0  0  0  0
  147.5673  138.4235  153.2405 N   0  3  0  0  0  0  0  0  0  0  0  0
  146.4783  138.1747  152.2711 C   0  0  0  0  0  0  0  0  0  0  0  0
  145.3381  137.3480  152.8819 C   0  0  0  0  0  0  0  0  0  0  0  0
  144.7736  137.7476  153.9017 O   0  0  0  0  0  0  0  0  0  0  0  0
  144.9886  136.1966  152.2721 N   0  0  0  0  0  0  0  0  0  0  0  0
  145.6255  135.7022  151.0530 C   0  0  0  0  0  0  0  0  0  0  0  0
  144.7536  134.5423  150.5727 C   0  0  0  0  0  0  0  0  0  0  0  0
  144.0792  134.0349  151.8399 C   0  0  0  0  0  0  0  0  0  0  0  0
  143.9367  135.2813  152.7144 C   0  0  0  0  0  0  0  0  0  0  0  0
  148.9646  140.0498  154.4968 C   0  0  2  0  0  0  0  0  0  0  0  0
  149.2221  141.5476  154.7474 C   0  0  0  0  0  0  0  0  0  0  0  0
  150.2332  139.3287  154.5306 N   0  0  0  0  0  0  0  0  0  0  0  0
  150.4526  137.9816  154.3268 C   0  0  0  0  0  0  0  0  0  0  0  0
  151.7914  137.7582  154.4739 C   0  0  0  0  0  0  0  0  0  0  0  0
  152.3169  139.0430  154.7848 C   0  0  0  0  0  0  0  0  0  0  0  0
  151.3827  139.9791  154.8224 N   0  0  0  0  0  0  0  0  0  0  0  0
  147.5140  141.8271  152.8005 H   0  0  0  0  0  0  0  0  0  0  0  0
  146.3698  140.8761  153.7426 H   0  0  0  0  0  0  0  0  0  0  0  0
  146.5326  140.6214  152.0090 H   0  0  0  0  0  0  0  0  0  0  0  0
  148.8819  139.7937  152.3550 H   0  0  0  0  0  0  0  0  0  0  0  0
  148.2977  137.7576  153.0300 H   0  0  0  0  0  0  0  0  0  0  0  0
  146.0771  139.1236  151.9159 H   0  0  0  0  0  0  0  0  0  0  0  0
  146.8844  137.6402  151.4113 H   0  0  0  0  0  0  0  0  0  0  0  0
  145.7109  136.4762  150.2887 H   0  0  0  0  0  0  0  0  0  0  0  0
  146.6301  135.3520  151.2947 H   0  0  0  0  0  0  0  0  0  0  0  0
  143.9968  134.9158  149.8813 H   0  0  0  0  0  0  0  0  0  0  0  0
  145.3245  133.7694  150.0574 H   0  0  0  0  0  0  0  0  0  0  0  0
  143.1255  133.5435  151.6446 H   0  0  0  0  0  0  0  0  0  0  0  0
  144.7311  133.3139  152.3345 H   0  0  0  0  0  0  0  0  0  0  0  0
  144.0235  135.0267  153.7718 H   0  0  0  0  0  0  0  0  0  0  0  0
  142.9641  135.7486  152.5537 H   0  0  0  0  0  0  0  0  0  0  0  0
  148.3704  139.6753  155.3320 H   0  0  0  0  0  0  0  0  0  0  0  0
  148.2953  142.0986  154.9024 H   0  0  0  0  0  0  0  0  0  0  0  0
  149.7495  142.0074  153.9110 H   0  0  0  0  0  0  0  0  0  0  0  0
  149.8298  141.6941  155.6412 H   0  0  0  0  0  0  0  0  0  0  0  0
  149.6470  137.3002  154.0950 H   0  0  0  0  0  0  0  0  0  0  0  0
  152.3154  136.8184  154.3803 H   0  0  0  0  0  0  0  0  0  0  0  0
  153.3413  139.3206  154.9851 H   0  0  0  0  0  0  0  0  0  0  0  0
  147.2334  138.2416  154.1762 H   0  0  0  0  0  0  0  0  0  0  0  0
  1  2  1  0  0  0  0
  1 19  1  0  0  0  0
  1 20  1  0  0  0  0
  1 21  1  0  0  0  0
  2  3  1  0  0  0  0
  2 12  1  0  0  0  0
  2 22  1  0  0  0  0
  3  4  1  0  0  0  0
  3 23  1  0  0  0  0
  3 41  1  0  0  0  0
  4  5  1  0  0  0  0
  4 24  1  0  0  0  0
  4 25  1  0  0  0  0
  5  6  2  0  0  0  0
  5  7  1  0  0  0  0
  7 11  1  0  0  0  0
  7  8  1  0  0  0  0
  8  9  1  0  0  0  0
  8 26  1  0  0  0  0
  8 27  1  0  0  0  0
  9 10  1  0  0  0  0
  9 28  1  0  0  0  0
  9 29  1  0  0  0  0
 10 11  1  0  0  0  0
 10 30  1  0  0  0  0
 10 31  1  0  0  0  0
 11 32  1  0  0  0  0
 11 33  1  0  0  0  0
 12 13  1  0  0  0  0
 12 14  1  0  0  0  0
 12 34  1  0  0  0  0
 13 35  1  0  0  0  0
 13 36  1  0  0  0  0
 13 37  1  0  0  0  0
 14 18  1  0  0  0  0
 14 15  1  0  0  0  0
 15 16  2  0  0  0  0
 15 38  1  0  0  0  0
 16 17  1  0  0  0  0
 16 39  1  0  0  0  0
 17 18  2  0  0  0  0
 17 40  1  0  0  0  0
M  CHG  1   3   1
M  END
> <s_m_source_file>
AV-unprocessed.smi

> <i_m_source_file_index>
3308

> <i_lp_mmshare_version>
43012

> <i_f3d_flags>
0

> <s_epik_input>
bjFbY0hdW2NIXVtjSF1uMVtDQEBIXShbQ0gzXSlbQ0BIXShbQ0gzXSlbTkhdW0NIMl1DKD1PKU4yW0NIMl1bQ0gyXVtDSDJdW0NIMl0y

> <s_epik_cmdline>
J2VwaWtfcHl0aG9uJywgJy1waCcsICc3LjAnLCAnLXRuJywgJzgnLCAnLW1hJywgJzIwMCcsICctbWV0YWxfYmluZGluZycsICctaW1hZScsICc8aW5maWxlLm1hZT4nLCAnLW9tYWUnLCAnPG91dGZpbGUubWFlPic=

> <r_lp_tautomer_probability>
1

> <r_epik_Ionization_Penalty>
0.141739

> <r_epik_Ionization_Penalty_Charging>
0.141731

> <r_epik_Ionization_Penalty_Neutral>
8.82171e-06

> <r_epik_State_Penalty>
0.131043

> <r_epik_Charging_Adjusted_Penalty>
0.272773

> <i_epik_Tot_Q>
1

> <i_epik_Tot_abs_Q>
1

> <r_epik_Metal_State_Penalty>
0.131385

> <b_epik_Metal_Only>
0

> <s_lp_Force_Field>
OPLS_2005

> <r_lp_Energy>
31.7083

> <b_lp_Chiralities_Consistent>
1

> <s_lp_Variant>
AV-unprocessed.smi:3308-1

> <Gold.Version>
5.8.1

> <Gold.Id.Protein>
6NUR|6NUR_protein|mol2

> <Gold.PLP.Fitness>
46.7867

> <Gold.PLP.PLP>
-36.4791

> <Gold.PLP.part.hbond>
-2.1680

> <Gold.PLP.part.metal>
0.0000

> <Gold.PLP.part.buried>
2.0693

> <Gold.PLP.part.nonpolar>
-36.5124

> <Gold.PLP.part.repulsive>
0.2385

> <Gold.PLP.ligand.clash>
0.0000

> <Gold.PLP.ligand.torsion>
0.8818

> <Gold.PLP.Chemscore.Hbond>
3.0000

> <Gold.PLP.Chemscore.CHOScore>
0.9983

> <Gold.PLP.Chemscore.Metal>
0.0000

> <Gold.Chemscore.Hbonds>
donor molecule, donor type, donor heavy atom, donor atom, acceptor molecule, acceptor atom, score
      L1  H     3    23       P1  7948  1.92
      P1  H  7989  7998       L1    18  1.00
      L1  C    15    38       P1  7948  0.96

> <Gold.PLP.Chemscore.Internal.Correction>
0.0763

> <Gold.Rescore>
     Score         DG    S(hbond)    S(metal)    S(lipo)     H(rot)  DE(clash)    DE(int)     intcor
     14.52     -17.25       1.92        0.00      84.99       1.78       2.02       0.72       ----

> <Gold.Chemscore.Fitness>
14.5213

> <Gold.Chemscore.DG>
-17.2548

> <Gold.Chemscore.ZeroCoef>
-5.4800

> <Gold.Chemscore.Hbond>
1.9154

> <Gold.Chemscore.Metal>
0.0000

> <Gold.Chemscore.Lipo>
84.9867

> <Gold.Chemscore.Internal_Hbond>
0.0000

> <Gold.Chemscore.DEClash>
2.0161

> <Gold.Chemscore.DEInternal>
0.7174

> <Gold.Chemscore.Rot>
1.7836

> <Gold.Chemscore.Internal.Correction>
   9.000000E+99

> <Gold.Chemscore.Hbonds>
donor molecule, donor type, donor heavy atom, donor atom, acceptor molecule, acceptor atom, score
      L1  H     3    23       P1  7948  0.87
      P1  H  7989  7998       L1    18  0.18

> <Gold.Chemscore.Hbond.Weighted>
-6.3973

> <Gold.Chemscore.Metal.Weighted>
-0.0000

> <Gold.Chemscore.Lipo.Weighted>
-9.9434

> <Gold.Chemscore.Internal_Hbond.Weighted>
0.0000

> <Gold.Chemscore.DEClash.Weighted>
2.0161

> <Gold.Chemscore.DEInternal.Weighted>
0.7174

> <Gold.Chemscore.Rot.Weighted>
4.5660

> <Gold.Chemscore.Internal.Correction.Weighted>
   9.000000E+99

> <Gold.Protein.RotatedTorsions>
[ 6907 6896 6895 6894 ] final  -59.97 input  -60.11 | X-H torsion
[ 7974 7965 7964 7962 ] final   17.15 input  175.53 | X-H torsion
[ 8008 7997 7996 7995 ] final  116.76 input   59.86 | X-H torsion
[ 10167 10162 10161 10158 ] final  175.71 input  -65.29 | X-H torsion
[ 10718 10713 10712 10709 ] final   43.52 input   66.30 | X-H torsion
[ 10763 10752 10751 10750 ] final  -27.48 input  -60.55 | X-H torsion
[ 11005 11000 10999 10996 ] final   86.17 input  -57.11 | X-H torsion

> <Gold.Protein.ActiveResidues>
 VAL166  LYS551  ARG553  GLY616  TRP617  ASP618  TYR619  PRO620  LYS621  CYS622 
 ASP623  PHE694  ASN695  SER759  ASP760  ASP761  ALA762  ILE779  LEU786  VAL792 
 PHE793  MET794  SER795  GLU796  ALA797  LYS798  CYS799  TRP800  GLU811  SER814 

> <Gold.Protein.RotatedAtoms>
  150.7890  134.6898  159.6490 H   0  0  0  0  0  0  0  0  0  0  0  0  # atno 6907 bound_to 6896
  152.3992  134.6311  160.0085 H   0  0  0  0  0  0  0  0  0  0  0  0  # atno 6908 bound_to 6896
  151.6587  133.3281  159.3205 H   0  0  0  0  0  0  0  0  0  0  0  0  # atno 6909 bound_to 6896
  146.2227  139.8645  142.8598 H   0  0  0  0  0  0  0  0  0  0  0  0  # atno 7974 bound_to 7965
  156.2457  140.2911  156.0573 H   0  0  0  0  0  0  0  0  0  0  0  0  # atno 8008 bound_to 7997
  155.1815  140.0404  157.2900 H   0  0  0  0  0  0  0  0  0  0  0  0  # atno 8009 bound_to 7997
  154.6257  140.2487  155.7502 H   0  0  0  0  0  0  0  0  0  0  0  0  # atno 8010 bound_to 7997
  139.5187  144.2999  152.0388 H   0  0  0  0  0  0  0  0  0  0  0  0  # atno 10167 bound_to 10162
  157.4168  130.7946  149.7480 H   0  0  0  0  0  0  0  0  0  0  0  0  # atno 10718 bound_to 10713
  153.7328  135.6937  153.4985 H   0  0  0  0  0  0  0  0  0  0  0  0  # atno 10763 bound_to 10752
  153.2123  135.4398  155.0393 H   0  0  0  0  0  0  0  0  0  0  0  0  # atno 10764 bound_to 10752
  154.8247  135.3440  154.6857 H   0  0  0  0  0  0  0  0  0  0  0  0  # atno 10765 bound_to 10752
  139.8951  134.8337  156.2684 H   0  0  0  0  0  0  0  0  0  0  0  0  # atno 11005 bound_to 11000
  145.2671  141.0096  143.3793 LP  0  0  0  0  0  0  0  0  0  0  0  0  # atno 17320 bound_to 7965
  144.9253  139.4363  143.6521 LP  0  0  0  0  0  0  0  0  0  0  0  0  # atno 17321 bound_to 7965
  140.2447  144.4232  150.6245 LP  0  0  0  0  0  0  0  0  0  0  0  0  # atno 17342 bound_to 10162
  140.6266  143.2182  151.6583 LP  0  0  0  0  0  0  0  0  0  0  0  0  # atno 17343 bound_to 10162
  155.9868  130.3972  150.3196 LP  0  0  0  0  0  0  0  0  0  0  0  0  # atno 17370 bound_to 10713
  157.1340  131.0279  151.2957 LP  0  0  0  0  0  0  0  0  0  0  0  0  # atno 17371 bound_to 10713
  141.0117  133.7092  156.1122 LP  0  0  0  0  0  0  0  0  0  0  0  0  # atno 17394 bound_to 11000
  140.7358  134.4204  157.5561 LP  0  0  0  0  0  0  0  0  0  0  0  0  # atno 17395 bound_to 11000

$$$$
