AV-unprocessed.smi:837|AV-procd|sdf|3907|dock10
  -GOLD-   22720 1373D 1   1.00000     0.00000
 Structure written by MMmdl.
 49 51  0  0  0  0  0  0  0  0  3 V2000
  145.1738  135.2133  158.7827 C   0  0  0  0  0  0  0  0  0  0  0  0
  145.6563  135.4597  160.2281 C   0  0  1  0  0  0  0  0  0  0  0  0
  144.9092  134.5398  161.2176 C   0  0  0  0  0  0  0  0  0  0  0  0
  145.2860  134.8443  162.6748 C   0  0  0  0  0  0  0  0  0  0  0  0
  146.8009  134.7324  162.8889 C   0  0  0  0  0  0  0  0  0  0  0  0
  147.5694  135.6466  161.9191 C   0  0  0  0  0  0  0  0  0  0  0  0
  147.2050  135.3858  160.4341 C   0  0  1  0  0  0  0  0  0  0  0  0
  147.7542  134.1095  159.9999 N   0  5  0  0  0  0  0  0  0  0  0  0
  148.6827  134.3355  159.0427 C   0  0  0  0  0  0  0  0  0  0  0  0
  149.3555  133.4874  158.4568 O   0  0  0  0  0  0  0  0  0  0  0  0
  148.7912  135.6503  158.7726 N   0  0  0  0  0  0  0  0  0  0  0  0
  149.6588  136.2188  157.7347 C   0  0  0  0  0  0  0  0  0  0  0  0
  150.7999  137.0330  158.3528 C   0  0  0  0  0  0  0  0  0  0  0  0
  151.7011  136.4697  158.9739 O   0  0  0  0  0  0  0  0  0  0  0  0
  150.7398  138.3611  158.1761 N   0  0  0  0  0  0  0  0  0  0  0  0
  151.6726  139.3382  158.7294 C   0  0  0  0  0  0  0  0  0  0  0  0
  152.2920  140.2752  157.6681 C   0  0  0  0  0  0  0  0  0  0  0  0
  152.0564  141.7573  157.9202 C   0  0  0  0  0  0  0  0  0  0  0  0
  152.7280  142.4203  158.9720 C   0  0  0  0  0  0  0  0  0  0  0  0
  152.4851  143.7913  159.1953 C   0  0  0  0  0  0  0  0  0  0  0  0
  151.5696  144.4695  158.3662 C   0  0  0  0  0  0  0  0  0  0  0  0
  150.9463  143.8044  157.3691 N   0  3  0  0  0  0  0  0  0  0  0  0
  151.1573  142.4936  157.1181 C   0  0  0  0  0  0  0  0  0  0  0  0
  147.9559  136.3607  159.5377 C   0  0  0  0  0  0  0  0  0  0  0  0
  147.7880  137.5809  159.5337 O   0  0  0  0  0  0  0  0  0  0  0  0
  145.3906  134.1959  158.4621 H   0  0  0  0  0  0  0  0  0  0  0  0
  145.6384  135.8955  158.0710 H   0  0  0  0  0  0  0  0  0  0  0  0
  144.0959  135.3554  158.7049 H   0  0  0  0  0  0  0  0  0  0  0  0
  145.3548  136.4796  160.4735 H   0  0  0  0  0  0  0  0  0  0  0  0
  143.8322  134.6573  161.0938 H   0  0  0  0  0  0  0  0  0  0  0  0
  145.1300  133.4955  160.9936 H   0  0  0  0  0  0  0  0  0  0  0  0
  144.9526  135.8490  162.9370 H   0  0  0  0  0  0  0  0  0  0  0  0
  144.7647  134.1596  163.3440 H   0  0  0  0  0  0  0  0  0  0  0  0
  147.0499  134.9922  163.9179 H   0  0  0  0  0  0  0  0  0  0  0  0
  147.1149  133.6973  162.7495 H   0  0  0  0  0  0  0  0  0  0  0  0
  147.3440  136.6839  162.1728 H   0  0  0  0  0  0  0  0  0  0  0  0
  148.6424  135.5274  162.0801 H   0  0  0  0  0  0  0  0  0  0  0  0
  150.0892  135.4295  157.1164 H   0  0  0  0  0  0  0  0  0  0  0  0
  149.0696  136.8387  157.0563 H   0  0  0  0  0  0  0  0  0  0  0  0
  149.9623  138.7256  157.6446 H   0  0  0  0  0  0  0  0  0  0  0  0
  151.1894  139.9178  159.5170 H   0  0  0  0  0  0  0  0  0  0  0  0
  152.4686  138.7705  159.2114 H   0  0  0  0  0  0  0  0  0  0  0  0
  153.3664  140.0946  157.6160 H   0  0  0  0  0  0  0  0  0  0  0  0
  151.9013  140.0216  156.6824 H   0  0  0  0  0  0  0  0  0  0  0  0
  153.4159  141.8839  159.6093 H   0  0  0  0  0  0  0  0  0  0  0  0
  152.9801  144.3113  160.0024 H   0  0  0  0  0  0  0  0  0  0  0  0
  151.3140  145.5134  158.4746 H   0  0  0  0  0  0  0  0  0  0  0  0
  150.5956  142.0749  156.2962 H   0  0  0  0  0  0  0  0  0  0  0  0
  150.2838  144.3134  156.7839 H   0  0  0  0  0  0  0  0  0  0  0  0
  1  2  1  0  0  0  0
  1 26  1  0  0  0  0
  1 27  1  0  0  0  0
  1 28  1  0  0  0  0
  2  7  1  0  0  0  0
  2  3  1  0  0  0  0
  2 29  1  0  0  0  0
  3  4  1  0  0  0  0
  3 30  1  0  0  0  0
  3 31  1  0  0  0  0
  4  5  1  0  0  0  0
  4 32  1  0  0  0  0
  4 33  1  0  0  0  0
  5  6  1  0  0  0  0
  5 34  1  0  0  0  0
  5 35  1  0  0  0  0
  6  7  1  0  0  0  0
  6 36  1  0  0  0  0
  6 37  1  0  0  0  0
  7 24  1  0  0  0  0
  7  8  1  0  0  0  0
  8  9  1  0  0  0  0
  9 10  2  0  0  0  0
  9 11  1  0  0  0  0
 11 12  1  0  0  0  0
 11 24  1  0  0  0  0
 12 13  1  0  0  0  0
 12 38  1  0  0  0  0
 12 39  1  0  0  0  0
 13 14  2  0  0  0  0
 13 15  1  0  0  0  0
 15 16  1  0  0  0  0
 15 40  1  0  0  0  0
 16 17  1  0  0  0  0
 16 41  1  0  0  0  0
 16 42  1  0  0  0  0
 17 18  1  0  0  0  0
 17 43  1  0  0  0  0
 17 44  1  0  0  0  0
 18 23  1  0  0  0  0
 18 19  2  0  0  0  0
 19 20  1  0  0  0  0
 19 45  1  0  0  0  0
 20 21  2  0  0  0  0
 20 46  1  0  0  0  0
 21 22  1  0  0  0  0
 21 47  1  0  0  0  0
 22 23  2  0  0  0  0
 22 49  1  0  0  0  0
 23 48  1  0  0  0  0
 24 25  2  0  0  0  0
M  CHG  1   8  -1
M  CHG  1  22   1
M  END
> <s_m_source_file>
AV-unprocessed.smi

> <i_m_source_file_index>
837

> <i_lp_mmshare_version>
43012

> <i_f3d_flags>
0

> <s_epik_input>
W0NIMl0xW0NIMl1bQ0gyXVtDSDJdW0NAQEhdKFtDSDNdKVtDQEBdMTJbTkhdQyg9TylOKEMyPU8pW0NIMl1DKD1PKVtOSF1bQ0gyXVtDSDJdYzNbY0hdW2NIXVtjSF1uW2NIXTM=

> <s_epik_cmdline>
J2VwaWtfcHl0aG9uJywgJy1waCcsICc3LjAnLCAnLXRuJywgJzgnLCAnLW1hJywgJzIwMCcsICctbWV0YWxfYmluZGluZycsICctaW1hZScsICc8aW5maWxlLm1hZT4nLCAnLW9tYWUnLCAnPG91dGZpbGUubWFlPic=

> <r_lp_tautomer_probability>
1

> <r_epik_Ionization_Penalty>
8.27169

> <r_epik_Ionization_Penalty_Charging>
8.27169

> <r_epik_Ionization_Penalty_Neutral>
1.56557e-07

> <r_epik_State_Penalty>
8.42098

> <r_epik_Charging_Adjusted_Penalty>
16.6927

> <i_epik_Tot_Q>
0

> <i_epik_Tot_abs_Q>
2

> <r_epik_Metal_State_Penalty>
4.38565

> <b_epik_Metal_Only>
1

> <s_lp_Force_Field>
OPLS_2005

> <r_lp_Energy>
17.1627

> <b_lp_Chiralities_Consistent>
1

> <s_lp_Variant>
AV-unprocessed.smi:837-16

> <Gold.Version>
5.8.1

> <Gold.Id.Protein>
6NUR|6NUR_protein|mol2

> <Gold.PLP.Fitness>
53.0030

> <Gold.PLP.PLP>
-41.0233

> <Gold.PLP.part.hbond>
-4.3435

> <Gold.PLP.part.metal>
0.0000

> <Gold.PLP.part.buried>
-4.5446

> <Gold.PLP.part.nonpolar>
-31.9753

> <Gold.PLP.part.repulsive>
0.1152

> <Gold.PLP.ligand.clash>
0.0000

> <Gold.PLP.ligand.torsion>
0.6827

> <Gold.PLP.Chemscore.Hbond>
4.4400

> <Gold.PLP.Chemscore.CHOScore>
0.0000

> <Gold.PLP.Chemscore.Metal>
0.0000

> <Gold.Chemscore.Hbonds>
donor molecule, donor type, donor heavy atom, donor atom, acceptor molecule, acceptor atom, score
      L1  H    22    49       P1  8028  2.00
      P1  H  6896  6907       L1    14  0.82
      P1  H  6896  6909       L1    10  1.00
      P1  H  6934  6947       L1    25  0.55

> <Gold.PLP.Chemscore.Internal.Correction>
0.0252

> <Gold.Rescore>
     Score         DG    S(hbond)    S(metal)    S(lipo)     H(rot)  DE(clash)    DE(int)     intcor
     22.61     -24.14       3.23        0.00     109.18       1.92       0.10       1.42       ----

> <Gold.Chemscore.Fitness>
22.6134

> <Gold.Chemscore.DG>
-24.1376

> <Gold.Chemscore.ZeroCoef>
-5.4800

> <Gold.Chemscore.Hbond>
3.2311

> <Gold.Chemscore.Metal>
0.0000

> <Gold.Chemscore.Lipo>
109.1837

> <Gold.Chemscore.Internal_Hbond>
0.0000

> <Gold.Chemscore.DEClash>
0.1037

> <Gold.Chemscore.DEInternal>
1.4205

> <Gold.Chemscore.Rot>
1.9175

> <Gold.Chemscore.Internal.Correction>
   9.000000E+99

> <Gold.Chemscore.Hbonds>
donor molecule, donor type, donor heavy atom, donor atom, acceptor molecule, acceptor atom, score
      L1  H    22    49       P1  8028  0.96
      P1  H  6896  6907       L1    14  0.81
      P1  H  6896  6909       L1    10  0.25
      P1  H  6934  6947       L1    25  0.53

> <Gold.Chemscore.Hbond.Weighted>
-10.7918

> <Gold.Chemscore.Metal.Weighted>
-0.0000

> <Gold.Chemscore.Lipo.Weighted>
-12.7745

> <Gold.Chemscore.Internal_Hbond.Weighted>
0.0000

> <Gold.Chemscore.DEClash.Weighted>
0.1037

> <Gold.Chemscore.DEInternal.Weighted>
1.4205

> <Gold.Chemscore.Rot.Weighted>
4.9087

> <Gold.Chemscore.Internal.Correction.Weighted>
   9.000000E+99

> <Gold.Protein.RotatedTorsions>
[ 6907 6896 6895 6894 ] final   -8.60 input  -60.11 | X-H torsion
[ 7974 7965 7964 7962 ] final  -91.35 input  175.53 | X-H torsion
[ 8008 7997 7996 7995 ] final   24.65 input   59.86 | X-H torsion
[ 10167 10162 10161 10158 ] final   13.26 input  -65.29 | X-H torsion
[ 10718 10713 10712 10709 ] final  -10.24 input   66.30 | X-H torsion
[ 10763 10752 10751 10750 ] final  -53.46 input  -60.55 | X-H torsion
[ 11005 11000 10999 10996 ] final  -56.44 input  -57.11 | X-H torsion

> <Gold.Protein.ActiveResidues>
 VAL166  LYS551  ARG553  GLY616  TRP617  ASP618  TYR619  PRO620  LYS621  CYS622 
 ASP623  PHE694  ASN695  SER759  ASP760  ASP761  ALA762  ILE779  LEU786  VAL792 
 PHE793  MET794  SER795  GLU796  ALA797  LYS798  CYS799  TRP800  GLU811  SER814 

> <Gold.Protein.RotatedAtoms>
  151.4310  135.1009  159.9641 H   0  0  0  0  0  0  0  0  0  0  0  0  # atno 6907 bound_to 6896
  152.4956  133.8617  159.7264 H   0  0  0  0  0  0  0  0  0  0  0  0  # atno 6908 bound_to 6896
  150.9155  133.6886  159.2872 H   0  0  0  0  0  0  0  0  0  0  0  0  # atno 6909 bound_to 6896
  145.4144  140.9547  143.2216 H   0  0  0  0  0  0  0  0  0  0  0  0  # atno 7974 bound_to 7965
  154.9995  140.3123  155.4873 H   0  0  0  0  0  0  0  0  0  0  0  0  # atno 8008 bound_to 7997
  156.2927  140.2234  156.5045 H   0  0  0  0  0  0  0  0  0  0  0  0  # atno 8009 bound_to 7997
  154.7631  140.0457  157.0978 H   0  0  0  0  0  0  0  0  0  0  0  0  # atno 8010 bound_to 7997
  140.6014  143.8597  150.6969 H   0  0  0  0  0  0  0  0  0  0  0  0  # atno 10167 bound_to 10162
  156.6764  130.5024  149.5984 H   0  0  0  0  0  0  0  0  0  0  0  0  # atno 10718 bound_to 10713
  154.1592  135.6477  153.4982 H   0  0  0  0  0  0  0  0  0  0  0  0  # atno 10763 bound_to 10752
  153.0115  135.5356  154.6728 H   0  0  0  0  0  0  0  0  0  0  0  0  # atno 10764 bound_to 10752
  154.6037  135.2946  155.0479 H   0  0  0  0  0  0  0  0  0  0  0  0  # atno 10765 bound_to 10752
  141.1120  133.6610  156.4619 H   0  0  0  0  0  0  0  0  0  0  0  0  # atno 11005 bound_to 11000
  144.8287  139.5665  143.6953 LP  0  0  0  0  0  0  0  0  0  0  0  0  # atno 17320 bound_to 7965
  146.2689  139.6586  142.9310 LP  0  0  0  0  0  0  0  0  0  0  0  0  # atno 17321 bound_to 7965
  140.2143  143.3858  152.1693 LP  0  0  0  0  0  0  0  0  0  0  0  0  # atno 17342 bound_to 10162
  139.5294  144.7141  151.5112 LP  0  0  0  0  0  0  0  0  0  0  0  0  # atno 17343 bound_to 10162
  156.1900  130.6554  151.1051 LP  0  0  0  0  0  0  0  0  0  0  0  0  # atno 17370 bound_to 10713
  157.7059  131.0756  150.6667 LP  0  0  0  0  0  0  0  0  0  0  0  0  # atno 17371 bound_to 10713
  140.4750  134.6718  157.5146 LP  0  0  0  0  0  0  0  0  0  0  0  0  # atno 17394 bound_to 11000
  140.0019  134.6823  155.9516 LP  0  0  0  0  0  0  0  0  0  0  0  0  # atno 17395 bound_to 11000

$$$$
