AV-unprocessed.smi:227|AV-procd|sdf|1741|dock8
  -GOLD-   2262020243D 1   1.00000     0.00000
 Structure written by MMmdl.
 54 58  0  0  0  0  0  0  0  0  1 V2000
  154.1611  139.7104  158.4340 O   0  0  0  0  0  0  0  0  0  0  0  0
  152.8120  139.6825  158.8509 C   0  0  0  0  0  0  0  0  0  0  0  0
  151.9952  140.8051  158.1675 C   0  0  2  0  0  0  0  0  0  0  0  0
  151.9031  140.6138  156.6284 C   0  0  0  0  0  0  0  0  0  0  0  0
  151.7634  139.2282  156.2037 N   0  0  0  0  0  0  0  0  0  0  0  0
  152.6201  138.5204  155.3923 C   0  0  0  0  0  0  0  0  0  0  0  0
  152.2722  137.2856  155.1600 N   0  0  0  0  0  0  0  0  0  0  0  0
  151.0772  137.1233  155.8515 C   0  0  0  0  0  0  0  0  0  0  0  0
  150.1626  136.0432  156.0369 C   0  0  0  0  0  0  0  0  0  0  0  0
  150.3110  134.7964  155.5075 N   0  0  0  0  0  0  0  0  0  0  0  0
  150.5472  133.6339  156.3519 C   0  0  1  0  0  0  0  0  0  0  0  0
  149.1822  133.3769  157.0204 C   0  0  0  0  0  0  0  0  0  0  0  0
  148.2193  133.7872  155.8958 C   0  0  0  0  0  0  0  0  0  0  0  0
  149.2091  134.1839  154.7757 C   0  0  2  0  0  0  0  0  0  0  0  0
  149.9033  132.9476  154.1605 C   0  0  2  0  0  0  0  0  0  0  0  0
  149.0021  131.8298  153.6020 C   0  0  0  0  0  0  0  0  0  0  0  0
  148.3262  132.2745  152.4453 O   0  0  0  0  0  0  0  0  0  0  0  0
  150.8137  132.5188  155.3243 C   0  0  0  0  0  0  0  0  0  0  0  0
  149.0519  136.2938  156.7800 N   0  0  0  0  0  0  0  0  0  0  0  0
  148.8523  137.4967  157.3236 C   0  0  0  0  0  0  0  0  0  0  0  0
  149.6233  138.5814  157.2499 N   0  0  0  0  0  0  0  0  0  0  0  0
  150.7358  138.3475  156.4976 C   0  0  0  0  0  0  0  0  0  0  0  0
  152.5351  142.2060  158.5595 C   0  0  1  0  0  0  0  0  0  0  0  0
  151.6015  143.3598  158.2330 C   0  0  0  0  0  0  0  0  0  0  0  0
  152.1530  144.4787  159.1086 C   0  0  0  0  0  0  0  0  0  0  0  0
  152.6546  143.8368  160.2747 O   0  0  0  0  0  0  0  0  0  0  0  0
  152.7205  142.4296  160.0652 C   0  0  0  0  0  0  0  0  0  0  0  0
  154.6425  139.0679  158.9338 H   0  0  0  0  0  0  0  0  0  0  0  0
  152.4211  138.7005  158.5867 H   0  0  0  0  0  0  0  0  0  0  0  0
  152.7633  139.7569  159.9375 H   0  0  0  0  0  0  0  0  0  0  0  0
  150.9767  140.7383  158.5532 H   0  0  0  0  0  0  0  0  0  0  0  0
  151.0566  141.1765  156.2338 H   0  0  0  0  0  0  0  0  0  0  0  0
  152.7794  141.0348  156.1356 H   0  0  0  0  0  0  0  0  0  0  0  0
  153.5213  138.9463  154.9773 H   0  0  0  0  0  0  0  0  0  0  0  0
  151.3679  133.7208  157.0612 H   0  0  0  0  0  0  0  0  0  0  0  0
  149.0543  132.3400  157.3326 H   0  0  0  0  0  0  0  0  0  0  0  0
  149.0461  134.0135  157.8957 H   0  0  0  0  0  0  0  0  0  0  0  0
  147.5229  132.9992  155.6140 H   0  0  0  0  0  0  0  0  0  0  0  0
  147.6241  134.6472  156.2051 H   0  0  0  0  0  0  0  0  0  0  0  0
  148.7593  134.8207  154.0132 H   0  0  0  0  0  0  0  0  0  0  0  0
  150.5414  133.2977  153.3469 H   0  0  0  0  0  0  0  0  0  0  0  0
  149.6105  130.9660  153.3326 H   0  0  0  0  0  0  0  0  0  0  0  0
  148.2792  131.4795  154.3377 H   0  0  0  0  0  0  0  0  0  0  0  0
  148.5522  131.7038  151.7267 H   0  0  0  0  0  0  0  0  0  0  0  0
  151.8583  132.5150  155.0106 H   0  0  0  0  0  0  0  0  0  0  0  0
  150.5783  131.5290  155.7173 H   0  0  0  0  0  0  0  0  0  0  0  0
  147.9454  137.6043  157.9002 H   0  0  0  0  0  0  0  0  0  0  0  0
  153.4956  142.3823  158.0734 H   0  0  0  0  0  0  0  0  0  0  0  0
  151.5884  143.6294  157.1775 H   0  0  0  0  0  0  0  0  0  0  0  0
  150.5806  143.1203  158.5341 H   0  0  0  0  0  0  0  0  0  0  0  0
  152.9798  144.9822  158.6060 H   0  0  0  0  0  0  0  0  0  0  0  0
  151.3994  145.2266  159.3554 H   0  0  0  0  0  0  0  0  0  0  0  0
  151.9117  141.9626  160.6292 H   0  0  0  0  0  0  0  0  0  0  0  0
  153.6646  142.0282  160.4342 H   0  0  0  0  0  0  0  0  0  0  0  0
  1  2  1  0  0  0  0
  1 28  1  0  0  0  0
  2  3  1  0  0  0  0
  2 29  1  0  0  0  0
  2 30  1  0  0  0  0
  3  4  1  0  0  0  0
  3 23  1  0  0  0  0
  3 31  1  0  0  0  0
  4  5  1  0  0  0  0
  4 32  1  0  0  0  0
  4 33  1  0  0  0  0
  5 22  1  0  0  0  0
  5  6  1  0  0  0  0
  6  7  2  0  0  0  0
  6 34  1  0  0  0  0
  7  8  1  0  0  0  0
  8 22  2  0  0  0  0
  8  9  1  0  0  0  0
  9 10  1  0  0  0  0
  9 19  2  0  0  0  0
 10 14  1  0  0  0  0
 10 11  1  0  0  0  0
 11 18  1  0  0  0  0
 11 12  1  0  0  0  0
 11 35  1  0  0  0  0
 12 13  1  0  0  0  0
 12 36  1  0  0  0  0
 12 37  1  0  0  0  0
 13 14  1  0  0  0  0
 13 38  1  0  0  0  0
 13 39  1  0  0  0  0
 14 15  1  0  0  0  0
 14 40  1  0  0  0  0
 15 16  1  0  0  0  0
 15 18  1  0  0  0  0
 15 41  1  0  0  0  0
 16 17  1  0  0  0  0
 16 42  1  0  0  0  0
 16 43  1  0  0  0  0
 17 44  1  0  0  0  0
 18 45  1  0  0  0  0
 18 46  1  0  0  0  0
 19 20  1  0  0  0  0
 20 21  2  0  0  0  0
 20 47  1  0  0  0  0
 21 22  1  0  0  0  0
 23 27  1  0  0  0  0
 23 24  1  0  0  0  0
 23 48  1  0  0  0  0
 24 25  1  0  0  0  0
 24 49  1  0  0  0  0
 24 50  1  0  0  0  0
 25 26  1  0  0  0  0
 25 51  1  0  0  0  0
 25 52  1  0  0  0  0
 26 27  1  0  0  0  0
 27 53  1  0  0  0  0
 27 54  1  0  0  0  0
M  END
> <s_m_source_file>
AV-unprocessed.smi

> <i_m_source_file_index>
227

> <i_lp_mmshare_version>
43012

> <i_f3d_flags>
0

> <s_epik_input>
W0NIMl0xT1tDSDJdW0NIMl1bQ0BIXTFbQ0BIXShbQ0gyXVtPSF0pW0NIMl1uKFtjSF1uMiljKGMyMyluW2NIXW5jM04oW0NASF00NSlbQ0BASF0oW0NIMl1bQ0gyXTQpW0NASF0oW0NIMl01KVtDSDJdW09IXQ==

> <s_epik_cmdline>
J2VwaWtfcHl0aG9uJywgJy1waCcsICc3LjAnLCAnLXRuJywgJzgnLCAnLW1hJywgJzIwMCcsICctbWV0YWxfYmluZGluZycsICctaW1hZScsICc8aW5maWxlLm1hZT4nLCAnLW9tYWUnLCAnPG91dGZpbGUubWFlPic=

> <r_lp_tautomer_probability>
1

> <r_epik_Ionization_Penalty>
0.0055791

> <r_epik_Ionization_Penalty_Charging>
0

> <r_epik_Ionization_Penalty_Neutral>
0.0055791

> <r_epik_State_Penalty>
0.00401299

> <r_epik_Charging_Adjusted_Penalty>
0.00401299

> <i_epik_Tot_Q>
0

> <i_epik_Tot_abs_Q>
0

> <r_epik_Metal_State_Penalty>
-0

> <b_epik_Metal_Only>
0

> <s_lp_Force_Field>
OPLS_2005

> <r_lp_Energy>
87.7083

> <b_lp_Chiralities_Consistent>
1

> <s_lp_Variant>
AV-unprocessed.smi:227-15

> <Gold.Version>
5.8.1

> <Gold.Id.Protein>
6NUR|6NUR_protein|mol2

> <Gold.PLP.Fitness>
49.8288

> <Gold.PLP.PLP>
-42.0391

> <Gold.PLP.part.hbond>
-3.0000

> <Gold.PLP.part.metal>
0.0000

> <Gold.PLP.part.buried>
-6.9260

> <Gold.PLP.part.nonpolar>
-32.4399

> <Gold.PLP.part.repulsive>
0.1958

> <Gold.PLP.ligand.clash>
0.0000

> <Gold.PLP.ligand.torsion>
0.4593

> <Gold.PLP.Chemscore.Hbond>
2.8640

> <Gold.PLP.Chemscore.CHOScore>
0.0000

> <Gold.PLP.Chemscore.Metal>
0.0000

> <Gold.Chemscore.Hbonds>
donor molecule, donor type, donor heavy atom, donor atom, acceptor molecule, acceptor atom, score
      L1  H    17    44       P1 10747  1.00
      P1  H  7997  8008       L1     1  0.80
      P1  H 10752 10765       L1     7  0.77

> <Gold.PLP.Chemscore.Internal.Correction>
0.1163

> <Gold.Rescore>
     Score         DG    S(hbond)    S(metal)    S(lipo)     H(rot)  DE(clash)    DE(int)     intcor
     14.28     -17.22       2.88        0.00      97.02       3.61       0.00       2.94       ----

> <Gold.Chemscore.Fitness>
14.2827

> <Gold.Chemscore.DG>
-17.2202

> <Gold.Chemscore.ZeroCoef>
-5.4800

> <Gold.Chemscore.Hbond>
2.8811

> <Gold.Chemscore.Metal>
0.0000

> <Gold.Chemscore.Lipo>
97.0203

> <Gold.Chemscore.Internal_Hbond>
0.0000

> <Gold.Chemscore.DEClash>
0.0000

> <Gold.Chemscore.DEInternal>
2.9375

> <Gold.Chemscore.Rot>
3.6071

> <Gold.Chemscore.Internal.Correction>
   9.000000E+99

> <Gold.Chemscore.Hbonds>
donor molecule, donor type, donor heavy atom, donor atom, acceptor molecule, acceptor atom, score
      L1  H    17    44       P1 10747  1.00
      P1  H  7997  8008       L1     1  0.72
      P1  H 10752 10765       L1     7  0.56

> <Gold.Chemscore.Hbond.Weighted>
-9.6230

> <Gold.Chemscore.Metal.Weighted>
-0.0000

> <Gold.Chemscore.Lipo.Weighted>
-11.3514

> <Gold.Chemscore.Internal_Hbond.Weighted>
0.0000

> <Gold.Chemscore.DEClash.Weighted>
0.0000

> <Gold.Chemscore.DEInternal.Weighted>
2.9375

> <Gold.Chemscore.Rot.Weighted>
9.2342

> <Gold.Chemscore.Internal.Correction.Weighted>
   9.000000E+99

> <Gold.Protein.RotatedTorsions>
[ 6907 6896 6895 6894 ] final   43.65 input  -60.11 | X-H torsion
[ 7974 7965 7964 7962 ] final -171.02 input  175.53 | X-H torsion
[ 8008 7997 7996 7995 ] final  -92.57 input   59.86 | X-H torsion
[ 10167 10162 10161 10158 ] final  -49.54 input  -65.29 | X-H torsion
[ 10718 10713 10712 10709 ] final -111.19 input   66.30 | X-H torsion
[ 10763 10752 10751 10750 ] final -174.64 input  -60.55 | X-H torsion
[ 11005 11000 10999 10996 ] final   25.11 input  -57.11 | X-H torsion

> <Gold.Protein.ActiveResidues>
 VAL166  LYS551  ARG553  GLY616  TRP617  ASP618  TYR619  PRO620  LYS621  CYS622 
 ASP623  PHE694  ASN695  SER759  ASP760  ASP761  ALA762  ILE779  LEU786  VAL792 
 PHE793  MET794  SER795  GLU796  ALA797  LYS798  CYS799  TRP800  GLU811  SER814 

> <Gold.Protein.RotatedAtoms>
  152.2229  134.8395  160.0483 H   0  0  0  0  0  0  0  0  0  0  0  0  # atno 6907 bound_to 6896
  151.9172  133.3571  159.3892 H   0  0  0  0  0  0  0  0  0  0  0  0  # atno 6908 bound_to 6896
  150.7005  134.4597  159.5419 H   0  0  0  0  0  0  0  0  0  0  0  0  # atno 6909 bound_to 6896
  144.7162  140.1985  143.6341 H   0  0  0  0  0  0  0  0  0  0  0  0  # atno 7974 bound_to 7965
  154.7248  140.0507  157.0672 H   0  0  0  0  0  0  0  0  0  0  0  0  # atno 8008 bound_to 7997
  155.0379  140.3165  155.4715 H   0  0  0  0  0  0  0  0  0  0  0  0  # atno 8009 bound_to 7997
  156.2826  140.2138  156.5502 H   0  0  0  0  0  0  0  0  0  0  0  0  # atno 8010 bound_to 7997
  140.6680  143.2694  151.4229 H   0  0  0  0  0  0  0  0  0  0  0  0  # atno 10167 bound_to 10162
  156.0633  130.5855  150.8340 H   0  0  0  0  0  0  0  0  0  0  0  0  # atno 10718 bound_to 10713
  154.5938  135.2847  155.0607 H   0  0  0  0  0  0  0  0  0  0  0  0  # atno 10763 bound_to 10752
  154.1898  135.6442  153.5060 H   0  0  0  0  0  0  0  0  0  0  0  0  # atno 10764 bound_to 10752
  153.0131  135.5443  154.6633 H   0  0  0  0  0  0  0  0  0  0  0  0  # atno 10765 bound_to 10752
  140.3514  134.2225  155.7679 H   0  0  0  0  0  0  0  0  0  0  0  0  # atno 11005 bound_to 11000
  145.8702  139.2268  143.1665 LP  0  0  0  0  0  0  0  0  0  0  0  0  # atno 17320 bound_to 7965
  146.0091  140.8451  142.9980 LP  0  0  0  0  0  0  0  0  0  0  0  0  # atno 17321 bound_to 7965
  139.5937  144.1444  152.2118 LP  0  0  0  0  0  0  0  0  0  0  0  0  # atno 17342 bound_to 10162
  140.0807  144.5703  150.7125 LP  0  0  0  0  0  0  0  0  0  0  0  0  # atno 17343 bound_to 10162
  157.5658  131.0946  150.9492 LP  0  0  0  0  0  0  0  0  0  0  0  0  # atno 17370 bound_to 10713
  156.9720  130.5494  149.5291 LP  0  0  0  0  0  0  0  0  0  0  0  0  # atno 17371 bound_to 10713
  141.2011  133.7971  157.0457 LP  0  0  0  0  0  0  0  0  0  0  0  0  # atno 17394 bound_to 11000
  140.0700  134.9707  157.1451 LP  0  0  0  0  0  0  0  0  0  0  0  0  # atno 17395 bound_to 11000

$$$$
