AV-unprocessed.smi:3271|AV-procd|sdf|12517|dock7
  -GOLD-   2272018433D 1   1.00000     0.00000
 Structure written by MMmdl.
 41 41  0  0  0  0  0  0  0  0  1 V2000
  144.4366  133.4077  150.3460 C   0  0  0  0  0  0  0  0  0  0  0  0
  144.5502  134.6642  151.2241 C   0  0  0  0  0  0  0  0  0  0  0  0
  145.8143  134.7136  152.1133 C   0  0  0  0  0  0  0  0  0  0  0  0
  146.0644  133.3420  152.7809 C   0  0  0  0  0  0  0  0  0  0  0  0
  147.4999  133.1358  153.2904 C   0  0  0  0  0  0  0  0  0  0  0  0
  145.7197  135.8358  153.1612 C   0  0  0  0  0  0  0  0  0  0  0  0
  144.6992  135.9723  153.8364 O   0  0  0  0  0  0  0  0  0  0  0  0
  146.7908  136.6346  153.2759 N   0  0  0  0  0  0  0  0  0  0  0  0
  146.8865  137.7937  154.1592 C   0  0  0  0  0  0  0  0  0  0  0  0
  147.6517  138.9866  153.5283 C   0  0  2  0  0  0  0  0  0  0  0  0
  146.8436  140.2845  153.6996 C   0  0  0  0  0  0  0  0  0  0  0  0
  147.6878  138.7627  152.1315 O   0  0  0  0  0  0  0  0  0  0  0  0
  149.0415  139.1616  154.1068 C   0  0  0  0  0  0  0  0  0  0  0  0
  149.6200  140.3292  154.6864 C   0  0  0  0  0  0  0  0  0  0  0  0
  150.8693  140.1480  155.0821 N   0  0  0  0  0  0  0  0  0  0  0  0
  151.1315  138.8605  154.7813 N   0  0  0  0  0  0  0  0  0  0  0  0
  152.4357  138.3091  155.0798 C   0  0  0  0  0  0  0  0  0  0  0  0
  150.0486  138.2404  154.1978 C   0  0  0  0  0  0  0  0  0  0  0  0
  143.4798  133.3868  149.8243 H   0  0  0  0  0  0  0  0  0  0  0  0
  144.5088  132.4987  150.9439 H   0  0  0  0  0  0  0  0  0  0  0  0
  145.2196  133.3762  149.5886 H   0  0  0  0  0  0  0  0  0  0  0  0
  144.5023  135.5514  150.5909 H   0  0  0  0  0  0  0  0  0  0  0  0
  143.6682  134.7091  151.8639 H   0  0  0  0  0  0  0  0  0  0  0  0
  146.6637  134.9234  151.4605 H   0  0  0  0  0  0  0  0  0  0  0  0
  145.3643  133.1935  153.6044 H   0  0  0  0  0  0  0  0  0  0  0  0
  145.8455  132.5527  152.0611 H   0  0  0  0  0  0  0  0  0  0  0  0
  147.6242  132.1301  153.6925 H   0  0  0  0  0  0  0  0  0  0  0  0
  147.7532  133.8377  154.0851 H   0  0  0  0  0  0  0  0  0  0  0  0
  148.2247  133.2626  152.4859 H   0  0  0  0  0  0  0  0  0  0  0  0
  147.5841  136.4499  152.6795 H   0  0  0  0  0  0  0  0  0  0  0  0
  145.9096  138.0955  154.5421 H   0  0  0  0  0  0  0  0  0  0  0  0
  147.4436  137.4401  155.0274 H   0  0  0  0  0  0  0  0  0  0  0  0
  146.7334  140.5471  154.7524 H   0  0  0  0  0  0  0  0  0  0  0  0
  145.8410  140.1899  153.2802 H   0  0  0  0  0  0  0  0  0  0  0  0
  147.3313  141.1246  153.2031 H   0  0  0  0  0  0  0  0  0  0  0  0
  148.5372  139.0196  151.8067 H   0  0  0  0  0  0  0  0  0  0  0  0
  149.1732  141.3032  154.8218 H   0  0  0  0  0  0  0  0  0  0  0  0
  152.4277  137.2288  154.9315 H   0  0  0  0  0  0  0  0  0  0  0  0
  152.7008  138.5217  156.1163 H   0  0  0  0  0  0  0  0  0  0  0  0
  153.1818  138.7532  154.4202 H   0  0  0  0  0  0  0  0  0  0  0  0
  150.0834  137.2059  153.8895 H   0  0  0  0  0  0  0  0  0  0  0  0
  1  2  1  0  0  0  0
  1 19  1  0  0  0  0
  1 20  1  0  0  0  0
  1 21  1  0  0  0  0
  2  3  1  0  0  0  0
  2 22  1  0  0  0  0
  2 23  1  0  0  0  0
  3  4  1  0  0  0  0
  3  6  1  0  0  0  0
  3 24  1  0  0  0  0
  4  5  1  0  0  0  0
  4 25  1  0  0  0  0
  4 26  1  0  0  0  0
  5 27  1  0  0  0  0
  5 28  1  0  0  0  0
  5 29  1  0  0  0  0
  6  7  2  0  0  0  0
  6  8  1  0  0  0  0
  8  9  1  0  0  0  0
  8 30  1  0  0  0  0
  9 10  1  0  0  0  0
  9 31  1  0  0  0  0
  9 32  1  0  0  0  0
 10 11  1  0  0  0  0
 10 12  1  0  0  0  0
 10 13  1  0  0  0  0
 11 33  1  0  0  0  0
 11 34  1  0  0  0  0
 11 35  1  0  0  0  0
 12 36  1  0  0  0  0
 13 18  2  0  0  0  0
 13 14  1  0  0  0  0
 14 15  2  0  0  0  0
 14 37  1  0  0  0  0
 15 16  1  0  0  0  0
 16 17  1  0  0  0  0
 16 18  1  0  0  0  0
 17 38  1  0  0  0  0
 17 39  1  0  0  0  0
 17 40  1  0  0  0  0
 18 41  1  0  0  0  0
M  END
> <s_m_source_file>
AV-unprocessed.smi

> <i_m_source_file_index>
3271

> <i_lp_mmshare_version>
43012

> <i_f3d_flags>
0

> <s_epik_input>
W0NIM11bQ0gyXVtDSF0oW0NIMl1bQ0gzXSlDKD1PKVtOSF1bQ0gyXVtDQEBdKFtDSDNdKShbT0hdKWMxW2NIXW5uKFtDSDNdKVtjSF0x

> <s_epik_cmdline>
J2VwaWtfcHl0aG9uJywgJy1waCcsICc3LjAnLCAnLXRuJywgJzgnLCAnLW1hJywgJzIwMCcsICctbWV0YWxfYmluZGluZycsICctaW1hZScsICc8aW5maWxlLm1hZT4nLCAnLW9tYWUnLCAnPG91dGZpbGUubWFlPic=

> <r_lp_tautomer_probability>
1

> <r_epik_Ionization_Penalty>
6.03488e-05

> <r_epik_Ionization_Penalty_Charging>
0

> <r_epik_Ionization_Penalty_Neutral>
6.03488e-05

> <r_epik_State_Penalty>
-0

> <r_epik_Charging_Adjusted_Penalty>
0

> <i_epik_Tot_Q>
0

> <i_epik_Tot_abs_Q>
0

> <r_epik_Metal_State_Penalty>
-0

> <b_epik_Metal_Only>
0

> <s_lp_Force_Field>
OPLS_2005

> <r_lp_Energy>
0.383254

> <b_lp_Chiralities_Consistent>
1

> <s_lp_Variant>
AV-unprocessed.smi:3271-2

> <Gold.Version>
5.8.1

> <Gold.Id.Protein>
6NUR|6NUR_protein|mol2

> <Gold.PLP.Fitness>
40.8307

> <Gold.PLP.PLP>
-33.3679

> <Gold.PLP.part.hbond>
-3.8488

> <Gold.PLP.part.metal>
0.0000

> <Gold.PLP.part.buried>
-3.3151

> <Gold.PLP.part.nonpolar>
-26.9605

> <Gold.PLP.part.repulsive>
0.0906

> <Gold.PLP.ligand.clash>
0.0000

> <Gold.PLP.ligand.torsion>
1.7935

> <Gold.PLP.Chemscore.Hbond>
2.5700

> <Gold.PLP.Chemscore.CHOScore>
1.0741

> <Gold.PLP.Chemscore.Metal>
0.0000

> <Gold.Chemscore.Hbonds>
donor molecule, donor type, donor heavy atom, donor atom, acceptor molecule, acceptor atom, score
      L1  H     8    30       P1  7948  1.00
      L1  H    12    36       P1  7957  1.00
      P1  H  7989  7998       L1    15  0.60
      L1  C    18    41       P1  7948  0.93
      L1  C    18    41       P1  7949  0.02

> <Gold.PLP.Chemscore.Internal.Correction>
0.1174

> <Gold.Rescore>
     Score         DG    S(hbond)    S(metal)    S(lipo)     H(rot)  DE(clash)    DE(int)     intcor
     12.48     -14.16       1.99        0.00      68.56       2.33       0.02       1.66       ----

> <Gold.Chemscore.Fitness>
12.4800

> <Gold.Chemscore.DG>
-14.1579

> <Gold.Chemscore.ZeroCoef>
-5.4800

> <Gold.Chemscore.Hbond>
1.9855

> <Gold.Chemscore.Metal>
0.0000

> <Gold.Chemscore.Lipo>
68.5590

> <Gold.Chemscore.Internal_Hbond>
0.0000

> <Gold.Chemscore.DEClash>
0.0176

> <Gold.Chemscore.DEInternal>
1.6602

> <Gold.Chemscore.Rot>
2.3341

> <Gold.Chemscore.Internal.Correction>
   9.000000E+99

> <Gold.Chemscore.Hbonds>
donor molecule, donor type, donor heavy atom, donor atom, acceptor molecule, acceptor atom, score
      L1  H     8    30       P1  7948  0.99
      L1  H    12    36       P1  7957  0.87
      P1  H  7989  7998       L1    15  0.01

> <Gold.Chemscore.Hbond.Weighted>
-6.6317

> <Gold.Chemscore.Metal.Weighted>
-0.0000

> <Gold.Chemscore.Lipo.Weighted>
-8.0214

> <Gold.Chemscore.Internal_Hbond.Weighted>
0.0000

> <Gold.Chemscore.DEClash.Weighted>
0.0176

> <Gold.Chemscore.DEInternal.Weighted>
1.6602

> <Gold.Chemscore.Rot.Weighted>
5.9753

> <Gold.Chemscore.Internal.Correction.Weighted>
   9.000000E+99

> <Gold.Protein.RotatedTorsions>
[ 6907 6896 6895 6894 ] final  177.02 input  -60.11 | X-H torsion
[ 7974 7965 7964 7962 ] final   23.79 input  175.53 | X-H torsion
[ 8008 7997 7996 7995 ] final  114.18 input   59.86 | X-H torsion
[ 10167 10162 10161 10158 ] final  148.96 input  -65.29 | X-H torsion
[ 10718 10713 10712 10709 ] final  149.15 input   66.30 | X-H torsion
[ 10763 10752 10751 10750 ] final   44.87 input  -60.55 | X-H torsion
[ 11005 11000 10999 10996 ] final  -20.74 input  -57.11 | X-H torsion

> <Gold.Protein.ActiveResidues>
 VAL166  LYS551  ARG553  GLY616  TRP617  ASP618  TYR619  PRO620  LYS621  CYS622 
 ASP623  PHE694  ASN695  SER759  ASP760  ASP761  ALA762  ILE779  LEU786  VAL792 
 PHE793  MET794  SER795  GLU796  ALA797  LYS798  CYS799  TRP800  GLU811  SER814 

> <Gold.Protein.RotatedAtoms>
  151.7107  133.3312  159.3289 H   0  0  0  0  0  0  0  0  0  0  0  0  # atno 6907 bound_to 6896
  150.7695  134.6534  159.6310 H   0  0  0  0  0  0  0  0  0  0  0  0  # atno 6908 bound_to 6896
  152.3713  134.6732  160.0227 H   0  0  0  0  0  0  0  0  0  0  0  0  # atno 6909 bound_to 6896
  146.1968  139.7695  142.8791 H   0  0  0  0  0  0  0  0  0  0  0  0  # atno 7974 bound_to 7965
  156.2305  140.2964  156.0176 H   0  0  0  0  0  0  0  0  0  0  0  0  # atno 8008 bound_to 7997
  155.2239  140.0416  157.2969 H   0  0  0  0  0  0  0  0  0  0  0  0  # atno 8009 bound_to 7997
  154.5987  140.2421  155.7829 H   0  0  0  0  0  0  0  0  0  0  0  0  # atno 8010 bound_to 7997
  139.4868  144.5639  151.7181 H   0  0  0  0  0  0  0  0  0  0  0  0  # atno 10167 bound_to 10162
  157.2997  131.0868  151.1399 H   0  0  0  0  0  0  0  0  0  0  0  0  # atno 10718 bound_to 10713
  152.9834  135.6057  154.3344 H   0  0  0  0  0  0  0  0  0  0  0  0  # atno 10763 bound_to 10752
  154.3045  135.2772  155.2597 H   0  0  0  0  0  0  0  0  0  0  0  0  # atno 10764 bound_to 10752
  154.4834  135.5911  153.6462 H   0  0  0  0  0  0  0  0  0  0  0  0  # atno 10765 bound_to 10752
  140.8493  133.7868  155.9948 H   0  0  0  0  0  0  0  0  0  0  0  0  # atno 11005 bound_to 11000
  145.3617  141.0327  143.3281 LP  0  0  0  0  0  0  0  0  0  0  0  0  # atno 17320 bound_to 7965
  144.8597  139.5195  143.6818 LP  0  0  0  0  0  0  0  0  0  0  0  0  # atno 17321 bound_to 7965
  140.5213  144.0874  150.6023 LP  0  0  0  0  0  0  0  0  0  0  0  0  # atno 17342 bound_to 10162
  140.3833  143.2791  152.0145 LP  0  0  0  0  0  0  0  0  0  0  0  0  # atno 17343 bound_to 10162
  157.2763  130.6728  149.6044 LP  0  0  0  0  0  0  0  0  0  0  0  0  # atno 17370 bound_to 10713
  155.9671  130.4463  150.5537 LP  0  0  0  0  0  0  0  0  0  0  0  0  # atno 17371 bound_to 10713
  140.8808  134.2614  157.5145 LP  0  0  0  0  0  0  0  0  0  0  0  0  # atno 17394 bound_to 11000
  139.8704  134.9614  156.4394 LP  0  0  0  0  0  0  0  0  0  0  0  0  # atno 17395 bound_to 11000

$$$$
