AV-unprocessed.smi:2640|AV-procd|sdf|10269|dock2
  -GOLD-   2272014283D 1   1.00000     0.00000
 Structure written by MMmdl.
 42 43  0  0  0  0  0  0  0  0  2 V2000
  146.4269  139.9945  153.7322 O   0  0  0  0  0  0  0  0  0  0  0  0
  147.0663  139.1288  153.1333 C   0  0  0  0  0  0  0  0  0  0  0  0
  146.4616  138.4042  151.9300 C   0  0  0  0  0  0  0  0  0  0  0  0
  145.1553  137.7913  152.2455 N   0  3  0  0  0  0  0  0  0  0  0  0
  145.1684  136.3161  152.2431 C   0  0  0  0  0  0  0  0  0  0  0  0
  145.0173  135.7638  150.8182 C   0  0  0  0  0  0  0  0  0  0  0  0
  145.1163  134.3171  150.7871 N   0  0  0  0  0  0  0  0  0  0  0  0
  144.1759  133.4005  150.3648 C   0  0  0  0  0  0  0  0  0  0  0  0
  144.7230  132.1585  150.5156 C   0  0  0  0  0  0  0  0  0  0  0  0
  146.0197  132.4214  151.0395 C   0  0  0  0  0  0  0  0  0  0  0  0
  146.2528  133.7146  151.1985 N   0  0  0  0  0  0  0  0  0  0  0  0
  148.3064  138.7522  153.4844 N   0  0  0  0  0  0  0  0  0  0  0  0
  149.0853  139.3090  154.5936 C   0  0  1  0  0  0  0  0  0  0  0  0
  150.5540  138.8680  154.3963 C   0  0  0  0  0  0  0  0  0  0  0  0
  151.3903  138.8912  155.6875 C   0  0  0  0  0  0  0  0  0  0  0  0
  151.6032  140.2849  156.2969 C   0  0  0  0  0  0  0  0  0  0  0  0
  150.3001  140.9709  156.7407 C   0  0  0  0  0  0  0  0  0  0  0  0
  149.5638  141.5304  155.6149 N   0  0  0  0  0  0  0  0  0  0  0  0
  149.0130  140.8546  154.5952 C   0  0  0  0  0  0  0  0  0  0  0  0
  148.4614  141.4584  153.6751 O   0  0  0  0  0  0  0  0  0  0  0  0
  146.3394  139.1075  151.1048 H   0  0  0  0  0  0  0  0  0  0  0  0
  147.1581  137.6314  151.6024 H   0  0  0  0  0  0  0  0  0  0  0  0
  144.8678  138.1124  153.1593 H   0  0  0  0  0  0  0  0  0  0  0  0
  146.1027  135.9682  152.6859 H   0  0  0  0  0  0  0  0  0  0  0  0
  144.3560  135.9498  152.8722 H   0  0  0  0  0  0  0  0  0  0  0  0
  144.0528  136.0539  150.3991 H   0  0  0  0  0  0  0  0  0  0  0  0
  145.7855  136.1766  150.1626 H   0  0  0  0  0  0  0  0  0  0  0  0
  143.2065  133.7035  149.9968 H   0  0  0  0  0  0  0  0  0  0  0  0
  144.2674  131.2068  150.2851 H   0  0  0  0  0  0  0  0  0  0  0  0
  146.7932  131.7162  151.3059 H   0  0  0  0  0  0  0  0  0  0  0  0
  148.7584  138.0367  152.9335 H   0  0  0  0  0  0  0  0  0  0  0  0
  148.6968  138.9139  155.5343 H   0  0  0  0  0  0  0  0  0  0  0  0
  150.5702  137.8415  154.0266 H   0  0  0  0  0  0  0  0  0  0  0  0
  151.0405  139.4634  153.6214 H   0  0  0  0  0  0  0  0  0  0  0  0
  150.9296  138.2376  156.4292 H   0  0  0  0  0  0  0  0  0  0  0  0
  152.3670  138.4551  155.4755 H   0  0  0  0  0  0  0  0  0  0  0  0
  152.2499  140.1770  157.1685 H   0  0  0  0  0  0  0  0  0  0  0  0
  152.1471  140.9232  155.5992 H   0  0  0  0  0  0  0  0  0  0  0  0
  149.6685  140.2897  157.3124 H   0  0  0  0  0  0  0  0  0  0  0  0
  150.5413  141.7985  157.4081 H   0  0  0  0  0  0  0  0  0  0  0  0
  149.4893  142.5373  155.5904 H   0  0  0  0  0  0  0  0  0  0  0  0
  144.4807  138.1127  151.5658 H   0  0  0  0  0  0  0  0  0  0  0  0
  1  2  2  0  0  0  0
  2  3  1  0  0  0  0
  2 12  1  0  0  0  0
  3  4  1  0  0  0  0
  3 21  1  0  0  0  0
  3 22  1  0  0  0  0
  4  5  1  0  0  0  0
  4 23  1  0  0  0  0
  4 42  1  0  0  0  0
  5  6  1  0  0  0  0
  5 24  1  0  0  0  0
  5 25  1  0  0  0  0
  6  7  1  0  0  0  0
  6 26  1  0  0  0  0
  6 27  1  0  0  0  0
  7 11  1  0  0  0  0
  7  8  1  0  0  0  0
  8  9  2  0  0  0  0
  8 28  1  0  0  0  0
  9 10  1  0  0  0  0
  9 29  1  0  0  0  0
 10 11  2  0  0  0  0
 10 30  1  0  0  0  0
 12 13  1  0  0  0  0
 12 31  1  0  0  0  0
 13 19  1  0  0  0  0
 13 14  1  0  0  0  0
 13 32  1  0  0  0  0
 14 15  1  0  0  0  0
 14 33  1  0  0  0  0
 14 34  1  0  0  0  0
 15 16  1  0  0  0  0
 15 35  1  0  0  0  0
 15 36  1  0  0  0  0
 16 17  1  0  0  0  0
 16 37  1  0  0  0  0
 16 38  1  0  0  0  0
 17 18  1  0  0  0  0
 17 39  1  0  0  0  0
 17 40  1  0  0  0  0
 18 19  1  0  0  0  0
 18 41  1  0  0  0  0
 19 20  2  0  0  0  0
M  CHG  1   4   1
M  END
> <s_m_source_file>
AV-unprocessed.smi

> <i_m_source_file_index>
2640

> <i_lp_mmshare_version>
43012

> <i_f3d_flags>
0

> <s_epik_input>
Tz1DMVtOSF1bQ0gyXVtDSDJdW0NIMl1bQ0gyXVtDQEhdMVtOSF1DKD1PKVtDSDJdW05IXVtDSDJdW0NIMl1uMltjSF1bY0hdW2NIXW4y

> <s_epik_cmdline>
J2VwaWtfcHl0aG9uJywgJy1waCcsICc3LjAnLCAnLXRuJywgJzgnLCAnLW1hJywgJzIwMCcsICctbWV0YWxfYmluZGluZycsICctaW1hZScsICc8aW5maWxlLm1hZT4nLCAnLW9tYWUnLCAnPG91dGZpbGUubWFlPic=

> <r_lp_tautomer_probability>
1

> <r_epik_Ionization_Penalty>
0.245908

> <r_epik_Ionization_Penalty_Charging>
0.245903

> <r_epik_Ionization_Penalty_Neutral>
5.38378e-06

> <r_epik_State_Penalty>
0.237496

> <r_epik_Charging_Adjusted_Penalty>
0.483398

> <i_epik_Tot_Q>
1

> <i_epik_Tot_abs_Q>
1

> <r_epik_Metal_State_Penalty>
0.237698

> <b_epik_Metal_Only>
0

> <s_lp_Force_Field>
OPLS_2005

> <r_lp_Energy>
9.28835

> <b_lp_Chiralities_Consistent>
1

> <s_lp_Variant>
AV-unprocessed.smi:2640-2

> <Gold.Version>
5.8.1

> <Gold.Id.Protein>
6NUR|6NUR_protein|mol2

> <Gold.PLP.Fitness>
56.4874

> <Gold.PLP.PLP>
-42.0579

> <Gold.PLP.part.hbond>
-5.2555

> <Gold.PLP.part.metal>
0.0000

> <Gold.PLP.part.buried>
-4.7659

> <Gold.PLP.part.nonpolar>
-33.7019

> <Gold.PLP.part.repulsive>
1.9782

> <Gold.PLP.ligand.clash>
0.0000

> <Gold.PLP.ligand.torsion>
0.6887

> <Gold.PLP.Chemscore.Hbond>
3.2313

> <Gold.PLP.Chemscore.CHOScore>
2.0000

> <Gold.PLP.Chemscore.Metal>
0.0000

> <Gold.Chemscore.Hbonds>
donor molecule, donor type, donor heavy atom, donor atom, acceptor molecule, acceptor atom, score
      L1  H     4    42       P1 10171  1.00
      L1  H    12    31       P1  7948  0.86
      L1  H    18    41       P1  8028  0.42
      P1  H  8011  8017       L1    20  0.56
      L1  C     8    28       P1 10186  1.00
      L1  C    10    30       P1 10747  0.92

> <Gold.PLP.Chemscore.Internal.Correction>
0.1132

> <Gold.Rescore>
     Score         DG    S(hbond)    S(metal)    S(lipo)     H(rot)  DE(clash)    DE(int)     intcor
     13.28     -19.22       3.16        0.00      80.71       2.45       0.81       5.13       ----

> <Gold.Chemscore.Fitness>
13.2774

> <Gold.Chemscore.DG>
-19.2224

> <Gold.Chemscore.ZeroCoef>
-5.4800

> <Gold.Chemscore.Hbond>
3.1620

> <Gold.Chemscore.Metal>
0.0000

> <Gold.Chemscore.Lipo>
80.7138

> <Gold.Chemscore.Internal_Hbond>
0.0000

> <Gold.Chemscore.DEClash>
0.8104

> <Gold.Chemscore.DEInternal>
5.1346

> <Gold.Chemscore.Rot>
2.4462

> <Gold.Chemscore.Internal.Correction>
   9.000000E+99

> <Gold.Chemscore.Hbonds>
donor molecule, donor type, donor heavy atom, donor atom, acceptor molecule, acceptor atom, score
      L1  H     4    42       P1 10171  0.98
      L1  H    12    31       P1  7948  0.83
      L1  H    18    41       P1  8028  0.41
      P1  H  8011  8017       L1    20  0.51

> <Gold.Chemscore.Hbond.Weighted>
-10.5612

> <Gold.Chemscore.Metal.Weighted>
-0.0000

> <Gold.Chemscore.Lipo.Weighted>
-9.4435

> <Gold.Chemscore.Internal_Hbond.Weighted>
0.0000

> <Gold.Chemscore.DEClash.Weighted>
0.8104

> <Gold.Chemscore.DEInternal.Weighted>
5.1346

> <Gold.Chemscore.Rot.Weighted>
6.2623

> <Gold.Chemscore.Internal.Correction.Weighted>
   9.000000E+99

> <Gold.Protein.RotatedTorsions>
[ 6907 6896 6895 6894 ] final  145.28 input  -60.11 | X-H torsion
[ 7974 7965 7964 7962 ] final   36.35 input  175.53 | X-H torsion
[ 8008 7997 7996 7995 ] final   19.46 input   59.86 | X-H torsion
[ 10167 10162 10161 10158 ] final -175.91 input  -65.29 | X-H torsion
[ 10718 10713 10712 10709 ] final  114.72 input   66.30 | X-H torsion
[ 10763 10752 10751 10750 ] final -125.25 input  -60.55 | X-H torsion
[ 11005 11000 10999 10996 ] final   81.48 input  -57.11 | X-H torsion

> <Gold.Protein.ActiveResidues>
 VAL166  LYS551  ARG553  GLY616  TRP617  ASP618  TYR619  PRO620  LYS621  CYS622 
 ASP623  PHE694  ASN695  SER759  ASP760  ASP761  ALA762  ILE779  LEU786  VAL792 
 PHE793  MET794  SER795  GLU796  ALA797  LYS798  CYS799  TRP800  GLU811  SER814 

> <Gold.Protein.RotatedAtoms>
  152.1829  133.4719  159.4967 H   0  0  0  0  0  0  0  0  0  0  0  0  # atno 6907 bound_to 6896
  150.6937  134.1810  159.4258 H   0  0  0  0  0  0  0  0  0  0  0  0  # atno 6908 bound_to 6896
  151.9722  135.0070  160.0604 H   0  0  0  0  0  0  0  0  0  0  0  0  # atno 6909 bound_to 6896
  146.1218  139.6029  142.9285 H   0  0  0  0  0  0  0  0  0  0  0  0  # atno 7974 bound_to 7965
  154.9211  140.3027  155.5216 H   0  0  0  0  0  0  0  0  0  0  0  0  # atno 8008 bound_to 7997
  156.3010  140.2371  156.4197 H   0  0  0  0  0  0  0  0  0  0  0  0  # atno 8009 bound_to 7997
  154.8330  140.0417  157.1478 H   0  0  0  0  0  0  0  0  0  0  0  0  # atno 8010 bound_to 7997
  139.5556  144.1997  152.1154 H   0  0  0  0  0  0  0  0  0  0  0  0  # atno 10167 bound_to 10162
  157.6264  131.1002  150.7227 H   0  0  0  0  0  0  0  0  0  0  0  0  # atno 10718 bound_to 10713
  154.8733  135.4036  154.3238 H   0  0  0  0  0  0  0  0  0  0  0  0  # atno 10763 bound_to 10752
  153.4062  135.7019  153.6396 H   0  0  0  0  0  0  0  0  0  0  0  0  # atno 10764 bound_to 10752
  153.5118  135.3706  155.2561 H   0  0  0  0  0  0  0  0  0  0  0  0  # atno 10765 bound_to 10752
  139.9097  134.8000  156.2047 H   0  0  0  0  0  0  0  0  0  0  0  0  # atno 11005 bound_to 11000
  145.5450  141.0418  143.2309 LP  0  0  0  0  0  0  0  0  0  0  0  0  # atno 17320 bound_to 7965
  144.7604  139.6971  143.7237 LP  0  0  0  0  0  0  0  0  0  0  0  0  # atno 17321 bound_to 7965
  140.1501  144.5123  150.6693 LP  0  0  0  0  0  0  0  0  0  0  0  0  # atno 17342 bound_to 10162
  140.6828  143.2335  151.5339 LP  0  0  0  0  0  0  0  0  0  0  0  0  # atno 17343 bound_to 10162
  156.7574  130.4788  149.5444 LP  0  0  0  0  0  0  0  0  0  0  0  0  # atno 17370 bound_to 10713
  156.1440  130.6264  151.0505 LP  0  0  0  0  0  0  0  0  0  0  0  0  # atno 17371 bound_to 10713
  141.0503  133.6892  156.1759 LP  0  0  0  0  0  0  0  0  0  0  0  0  # atno 17394 bound_to 11000
  140.6821  134.4756  157.5589 LP  0  0  0  0  0  0  0  0  0  0  0  0  # atno 17395 bound_to 11000

$$$$
