AV-unprocessed.smi:1648|AV-procd|sdf|6634|dock6
  -GOLD-   22720 7333D 1   1.00000     0.00000
 Structure written by MMmdl.
 41 41  0  0  0  0  0  0  0  0  1 V2000
  146.8923  139.0738  152.5858 C   0  0  0  0  0  0  0  0  0  0  0  0
  147.4602  138.5617  153.9109 C   0  0  0  0  0  0  0  0  0  0  0  0
  147.2038  139.1650  154.9500 O   0  0  0  0  0  0  0  0  0  0  0  0
  148.2212  137.4535  153.9172 N   0  0  0  0  0  0  0  0  0  0  0  0
  148.8497  136.8134  155.0756 C   0  0  1  0  0  0  0  0  0  0  0  0
  148.5280  135.3092  155.0117 C   0  0  0  0  0  0  0  0  0  0  0  0
  148.7345  134.5858  155.9873 O   0  0  0  0  0  0  0  0  0  0  0  0
  148.0210  134.8582  153.8530 N   0  0  0  0  0  0  0  0  0  0  0  0
  147.6639  133.4712  153.5595 C   0  0  1  0  0  0  0  0  0  0  0  0
  146.4647  133.0736  154.4304 C   0  0  0  0  0  0  0  0  0  0  0  0
  147.3545  133.2865  152.0579 C   0  0  0  0  0  0  0  0  0  0  0  0
  146.1447  133.9743  151.6427 N   0  0  0  0  0  0  0  0  0  0  0  0
  145.9352  135.3464  151.5926 C   0  0  0  0  0  0  0  0  0  0  0  0
  144.6444  135.5314  151.1516 C   0  0  0  0  0  0  0  0  0  0  0  0
  144.0503  134.2951  150.9083 N   0  0  0  0  0  0  0  0  0  0  0  0
  145.0011  133.4224  151.2140 C   0  0  0  0  0  0  0  0  0  0  0  0
  150.3898  137.0303  154.9968 C   0  0  0  0  0  0  0  0  0  0  0  0
  151.1394  136.4665  156.2222 C   0  0  0  0  0  0  0  0  0  0  0  0
  150.7503  138.5192  154.8266 C   0  0  0  0  0  0  0  0  0  0  0  0
  147.6753  139.1865  151.8367 H   0  0  0  0  0  0  0  0  0  0  0  0
  146.4192  140.0467  152.7222 H   0  0  0  0  0  0  0  0  0  0  0  0
  146.1404  138.3837  152.2025 H   0  0  0  0  0  0  0  0  0  0  0  0
  148.3482  136.9834  153.0326 H   0  0  0  0  0  0  0  0  0  0  0  0
  148.4773  137.2434  156.0071 H   0  0  0  0  0  0  0  0  0  0  0  0
  147.8828  135.5272  153.1095 H   0  0  0  0  0  0  0  0  0  0  0  0
  148.4891  132.8108  153.8323 H   0  0  0  0  0  0  0  0  0  0  0  0
  146.1839  132.0339  154.2600 H   0  0  0  0  0  0  0  0  0  0  0  0
  145.5933  133.6931  154.2155 H   0  0  0  0  0  0  0  0  0  0  0  0
  146.6973  133.1809  155.4905 H   0  0  0  0  0  0  0  0  0  0  0  0
  148.1773  133.6740  151.4557 H   0  0  0  0  0  0  0  0  0  0  0  0
  147.2615  132.2272  151.8134 H   0  0  0  0  0  0  0  0  0  0  0  0
  146.6964  136.0570  151.8785 H   0  0  0  0  0  0  0  0  0  0  0  0
  144.1029  136.4514  150.9885 H   0  0  0  0  0  0  0  0  0  0  0  0
  144.8585  132.3553  151.1292 H   0  0  0  0  0  0  0  0  0  0  0  0
  150.7715  136.5097  154.1165 H   0  0  0  0  0  0  0  0  0  0  0  0
  150.7720  136.9106  157.1477 H   0  0  0  0  0  0  0  0  0  0  0  0
  152.2077  136.6753  156.1579 H   0  0  0  0  0  0  0  0  0  0  0  0
  151.0362  135.3846  156.3071 H   0  0  0  0  0  0  0  0  0  0  0  0
  150.3731  139.1141  155.6588 H   0  0  0  0  0  0  0  0  0  0  0  0
  150.3402  138.9360  153.9066 H   0  0  0  0  0  0  0  0  0  0  0  0
  151.8308  138.6590  154.7828 H   0  0  0  0  0  0  0  0  0  0  0  0
  1  2  1  0  0  0  0
  1 20  1  0  0  0  0
  1 21  1  0  0  0  0
  1 22  1  0  0  0  0
  2  3  2  0  0  0  0
  2  4  1  0  0  0  0
  4  5  1  0  0  0  0
  4 23  1  0  0  0  0
  5  6  1  0  0  0  0
  5 17  1  0  0  0  0
  5 24  1  0  0  0  0
  6  7  2  0  0  0  0
  6  8  1  0  0  0  0
  8  9  1  0  0  0  0
  8 25  1  0  0  0  0
  9 10  1  0  0  0  0
  9 11  1  0  0  0  0
  9 26  1  0  0  0  0
 10 27  1  0  0  0  0
 10 28  1  0  0  0  0
 10 29  1  0  0  0  0
 11 12  1  0  0  0  0
 11 30  1  0  0  0  0
 11 31  1  0  0  0  0
 12 16  1  0  0  0  0
 12 13  1  0  0  0  0
 13 14  2  0  0  0  0
 13 32  1  0  0  0  0
 14 15  1  0  0  0  0
 14 33  1  0  0  0  0
 15 16  2  0  0  0  0
 16 34  1  0  0  0  0
 17 18  1  0  0  0  0
 17 19  1  0  0  0  0
 17 35  1  0  0  0  0
 18 36  1  0  0  0  0
 18 37  1  0  0  0  0
 18 38  1  0  0  0  0
 19 39  1  0  0  0  0
 19 40  1  0  0  0  0
 19 41  1  0  0  0  0
M  END
> <s_m_source_file>
AV-unprocessed.smi

> <i_m_source_file_index>
1648

> <i_lp_mmshare_version>
43012

> <i_f3d_flags>
0

> <s_epik_input>
W0NIM11DKD1PKVtOSF1bQ0BASF0oW0NIXShbQ0gzXSlbQ0gzXSlDKD1PKVtOSF1bQ0BIXShbQ0gzXSlbQ0gyXW4xW2NIXVtjSF1uW2NIXTE=

> <s_epik_cmdline>
J2VwaWtfcHl0aG9uJywgJy1waCcsICc3LjAnLCAnLXRuJywgJzgnLCAnLW1hJywgJzIwMCcsICctbWV0YWxfYmluZGluZycsICctaW1hZScsICc8aW5maWxlLm1hZT4nLCAnLW9tYWUnLCAnPG91dGZpbGUubWFlPic=

> <r_lp_tautomer_probability>
1

> <r_epik_Ionization_Penalty>
0.628885

> <r_epik_Ionization_Penalty_Charging>
0.628884

> <r_epik_Ionization_Penalty_Neutral>
4.35155e-07

> <r_epik_State_Penalty>
0.64556

> <r_epik_Charging_Adjusted_Penalty>
1.27444

> <i_epik_Tot_Q>
0

> <i_epik_Tot_abs_Q>
0

> <r_epik_Metal_State_Penalty>
0.30874

> <b_epik_Metal_Only>
0

> <s_lp_Force_Field>
OPLS_2005

> <r_lp_Energy>
9.11872

> <b_lp_Chiralities_Consistent>
1

> <s_lp_Variant>
AV-unprocessed.smi:1648-8

> <Gold.Version>
5.8.1

> <Gold.Id.Protein>
6NUR|6NUR_protein|mol2

> <Gold.PLP.Fitness>
35.5395

> <Gold.PLP.PLP>
-25.7709

> <Gold.PLP.part.hbond>
-1.9052

> <Gold.PLP.part.metal>
0.0000

> <Gold.PLP.part.buried>
-3.4781

> <Gold.PLP.part.nonpolar>
-20.8354

> <Gold.PLP.part.repulsive>
0.2730

> <Gold.PLP.ligand.clash>
0.0000

> <Gold.PLP.ligand.torsion>
0.6303

> <Gold.PLP.Chemscore.Hbond>
1.6313

> <Gold.PLP.Chemscore.CHOScore>
2.0000

> <Gold.PLP.Chemscore.Metal>
0.0000

> <Gold.Chemscore.Hbonds>
donor molecule, donor type, donor heavy atom, donor atom, acceptor molecule, acceptor atom, score
      L1  H     4    23       P1  7948  0.96
      L1  H     8    25       P1  7948  0.66
      L1  C    13    32       P1  7948  1.00
      L1  C    14    33       P1 10171  1.00

> <Gold.PLP.Chemscore.Internal.Correction>
0.1356

> <Gold.Rescore>
     Score         DG    S(hbond)    S(metal)    S(lipo)     H(rot)  DE(clash)    DE(int)     intcor
      9.87     -10.81       1.72        0.00      51.68       2.52       0.10       0.83       ----

> <Gold.Chemscore.Fitness>
9.8731

> <Gold.Chemscore.DG>
-10.8071

> <Gold.Chemscore.ZeroCoef>
-5.4800

> <Gold.Chemscore.Hbond>
1.7172

> <Gold.Chemscore.Metal>
0.0000

> <Gold.Chemscore.Lipo>
51.6835

> <Gold.Chemscore.Internal_Hbond>
0.0000

> <Gold.Chemscore.DEClash>
0.1027

> <Gold.Chemscore.DEInternal>
0.8313

> <Gold.Chemscore.Rot>
2.5216

> <Gold.Chemscore.Internal.Correction>
   9.000000E+99

> <Gold.Chemscore.Hbonds>
donor molecule, donor type, donor heavy atom, donor atom, acceptor molecule, acceptor atom, score
      L1  H     4    23       P1  7948  0.91
      L1  H     8    25       P1  7948  0.66

> <Gold.Chemscore.Hbond.Weighted>
-5.7354

> <Gold.Chemscore.Metal.Weighted>
-0.0000

> <Gold.Chemscore.Lipo.Weighted>
-6.0470

> <Gold.Chemscore.Internal_Hbond.Weighted>
0.0000

> <Gold.Chemscore.DEClash.Weighted>
0.1027

> <Gold.Chemscore.DEInternal.Weighted>
0.8313

> <Gold.Chemscore.Rot.Weighted>
6.4553

> <Gold.Chemscore.Internal.Correction.Weighted>
   9.000000E+99

> <Gold.Protein.RotatedTorsions>
[ 6907 6896 6895 6894 ] final  169.36 input  -60.11 | X-H torsion
[ 7974 7965 7964 7962 ] final   25.45 input  175.53 | X-H torsion
[ 8008 7997 7996 7995 ] final   81.67 input   59.86 | X-H torsion
[ 10167 10162 10161 10158 ] final -166.88 input  -65.29 | X-H torsion
[ 10718 10713 10712 10709 ] final   80.94 input   66.30 | X-H torsion
[ 10763 10752 10751 10750 ] final  179.13 input  -60.55 | X-H torsion
[ 11005 11000 10999 10996 ] final  167.46 input  -57.11 | X-H torsion

> <Gold.Protein.ActiveResidues>
 VAL166  LYS551  ARG553  GLY616  TRP617  ASP618  TYR619  PRO620  LYS621  CYS622 
 ASP623  PHE694  ASN695  SER759  ASP760  ASP761  ALA762  ILE779  LEU786  VAL792 
 PHE793  MET794  SER795  GLU796  ALA797  LYS798  CYS799  TRP800  GLU811  SER814 

> <Gold.Protein.RotatedAtoms>
  151.8332  133.3412  159.3619 H   0  0  0  0  0  0  0  0  0  0  0  0  # atno 6907 bound_to 6896
  150.7258  134.5463  159.5781 H   0  0  0  0  0  0  0  0  0  0  0  0  # atno 6908 bound_to 6896
  152.2920  134.7711  160.0427 H   0  0  0  0  0  0  0  0  0  0  0  0  # atno 6909 bound_to 6896
  146.1888  139.7464  142.8847 H   0  0  0  0  0  0  0  0  0  0  0  0  # atno 7974 bound_to 7965
  155.9002  140.3433  155.6021 H   0  0  0  0  0  0  0  0  0  0  0  0  # atno 8008 bound_to 7997
  155.7509  140.0820  157.2220 H   0  0  0  0  0  0  0  0  0  0  0  0  # atno 8009 bound_to 7997
  154.4043  140.1553  156.2710 H   0  0  0  0  0  0  0  0  0  0  0  0  # atno 8010 bound_to 7997
  139.6085  144.0862  152.1818 H   0  0  0  0  0  0  0  0  0  0  0  0  # atno 10167 bound_to 10162
  157.6820  130.9982  150.2152 H   0  0  0  0  0  0  0  0  0  0  0  0  # atno 10718 bound_to 10713
  154.5166  135.2791  155.1298 H   0  0  0  0  0  0  0  0  0  0  0  0  # atno 10763 bound_to 10752
  154.2872  135.6274  153.5374 H   0  0  0  0  0  0  0  0  0  0  0  0  # atno 10764 bound_to 10752
  152.9929  135.5665  154.5645 H   0  0  0  0  0  0  0  0  0  0  0  0  # atno 10765 bound_to 10752
  140.2770  134.7781  157.3725 H   0  0  0  0  0  0  0  0  0  0  0  0  # atno 11005 bound_to 11000
  145.3857  141.0365  143.3152 LP  0  0  0  0  0  0  0  0  0  0  0  0  # atno 17320 bound_to 7965
  144.8447  139.5416  143.6884 LP  0  0  0  0  0  0  0  0  0  0  0  0  # atno 17321 bound_to 7965
  140.0475  144.5959  150.7362 LP  0  0  0  0  0  0  0  0  0  0  0  0  # atno 17342 bound_to 10162
  140.7302  143.2681  151.3977 LP  0  0  0  0  0  0  0  0  0  0  0  0  # atno 17343 bound_to 10162
  156.2815  130.3734  149.7930 LP  0  0  0  0  0  0  0  0  0  0  0  0  # atno 17370 bound_to 10713
  156.5617  130.8386  151.3331 LP  0  0  0  0  0  0  0  0  0  0  0  0  # atno 17371 bound_to 10713
  140.1319  134.5084  155.8099 LP  0  0  0  0  0  0  0  0  0  0  0  0  # atno 17394 bound_to 11000
  141.2169  133.6793  156.7055 LP  0  0  0  0  0  0  0  0  0  0  0  0  # atno 17395 bound_to 11000

$$$$
