AV-unprocessed.smi:2881|AV-procd|sdf|11069|dock9
  -GOLD-   2272015543D 1   1.00000     0.00000
 Structure written by MMmdl.
 40 42  0  0  0  0  0  0  0  0  1 V2000
  151.8226  139.9666  155.8271 C   0  0  0  0  0  0  0  0  0  0  0  0
  151.0411  138.7879  155.3263 C   0  0  0  0  0  0  0  0  0  0  0  0
  150.8261  137.5352  155.9722 C   0  0  0  0  0  0  0  0  0  0  0  0
  150.0477  136.8315  155.0958 C   0  0  0  0  0  0  0  0  0  0  0  0
  149.4717  135.4528  155.1732 C   0  0  0  0  0  0  0  0  0  0  0  0
  147.9416  135.4685  155.1016 C   0  0  0  0  0  0  0  0  0  0  0  0
  147.2661  135.1264  156.0728 O   0  0  0  0  0  0  0  0  0  0  0  0
  147.4046  135.8597  153.9359 N   0  0  0  0  0  0  0  0  0  0  0  0
  145.9694  135.9369  153.6591 C   0  0  2  0  0  0  0  0  0  0  0  0
  145.3646  134.6014  153.1520 C   0  0  2  0  0  0  0  0  0  0  0  0
  146.1919  134.0180  151.9869 C   0  0  0  0  0  0  0  0  0  0  0  0
  145.8896  134.9971  150.8385 C   0  0  0  0  0  0  0  0  0  0  0  0
  144.9072  135.9967  151.4850 C   0  0  1  0  0  0  0  0  0  0  0  0
  144.1194  135.0777  152.4111 C   0  0  0  0  0  0  0  0  0  0  0  0
  145.6053  136.9218  152.5124 C   0  0  2  0  0  0  0  0  0  0  0  0
  146.7387  137.8166  151.9622 C   0  0  0  0  0  0  0  0  0  0  0  0
  146.5734  138.0161  150.5744 O   0  0  0  0  0  0  0  0  0  0  0  0
  149.8496  137.6573  154.0122 N   0  0  0  0  0  0  0  0  0  0  0  0
  150.4500  138.8548  154.1427 N   0  0  0  0  0  0  0  0  0  0  0  0
  149.3123  137.4217  153.1899 H   0  0  0  0  0  0  0  0  0  0  0  0
  152.3131  139.7403  156.7741 H   0  0  0  0  0  0  0  0  0  0  0  0
  151.1737  140.8280  155.9871 H   0  0  0  0  0  0  0  0  0  0  0  0
  152.5954  140.2578  155.1154 H   0  0  0  0  0  0  0  0  0  0  0  0
  151.1849  137.2057  156.9361 H   0  0  0  0  0  0  0  0  0  0  0  0
  149.7684  134.9800  156.1097 H   0  0  0  0  0  0  0  0  0  0  0  0
  149.8783  134.8364  154.3700 H   0  0  0  0  0  0  0  0  0  0  0  0
  148.0293  136.1149  153.1852 H   0  0  0  0  0  0  0  0  0  0  0  0
  145.4534  136.2532  154.5681 H   0  0  0  0  0  0  0  0  0  0  0  0
  145.1723  133.8811  153.9480 H   0  0  0  0  0  0  0  0  0  0  0  0
  147.2573  133.9364  152.2015 H   0  0  0  0  0  0  0  0  0  0  0  0
  145.8382  133.0179  151.7330 H   0  0  0  0  0  0  0  0  0  0  0  0
  146.7861  135.4684  150.4391 H   0  0  0  0  0  0  0  0  0  0  0  0
  145.4083  134.4703  150.0136 H   0  0  0  0  0  0  0  0  0  0  0  0
  144.2967  136.5357  150.7599 H   0  0  0  0  0  0  0  0  0  0  0  0
  143.5938  134.2782  151.8856 H   0  0  0  0  0  0  0  0  0  0  0  0
  143.4109  135.6070  153.0511 H   0  0  0  0  0  0  0  0  0  0  0  0
  144.8434  137.5983  152.9048 H   0  0  0  0  0  0  0  0  0  0  0  0
  146.7140  138.7919  152.4491 H   0  0  0  0  0  0  0  0  0  0  0  0
  147.7261  137.3960  152.1489 H   0  0  0  0  0  0  0  0  0  0  0  0
  145.6521  138.1210  150.3929 H   0  0  0  0  0  0  0  0  0  0  0  0
  1 21  1  0  0  0  0
  1 22  1  0  0  0  0
  1 23  1  0  0  0  0
  1  2  1  0  0  0  0
  2 19  2  0  0  0  0
  2  3  1  0  0  0  0
  3  4  2  0  0  0  0
  3 24  1  0  0  0  0
  4 18  1  0  0  0  0
  4  5  1  0  0  0  0
  5  6  1  0  0  0  0
  5 25  1  0  0  0  0
  5 26  1  0  0  0  0
  6  7  2  0  0  0  0
  6  8  1  0  0  0  0
  8  9  1  0  0  0  0
  8 27  1  0  0  0  0
  9 15  1  0  0  0  0
  9 10  1  0  0  0  0
  9 28  1  0  0  0  0
 10 14  1  0  0  0  0
 10 11  1  0  0  0  0
 10 29  1  0  0  0  0
 11 12  1  0  0  0  0
 11 30  1  0  0  0  0
 11 31  1  0  0  0  0
 12 13  1  0  0  0  0
 12 32  1  0  0  0  0
 12 33  1  0  0  0  0
 13 14  1  0  0  0  0
 13 15  1  0  0  0  0
 13 34  1  0  0  0  0
 14 35  1  0  0  0  0
 14 36  1  0  0  0  0
 15 16  1  0  0  0  0
 15 37  1  0  0  0  0
 16 17  1  0  0  0  0
 16 38  1  0  0  0  0
 16 39  1  0  0  0  0
 17 40  1  0  0  0  0
 18 19  1  0  0  0  0
 18 20  1  0  0  0  0
M  END
> <s_m_source_file>
AV-unprocessed.smi

> <i_m_source_file_index>
2881

> <i_lp_mmshare_version>
43012

> <i_f3d_flags>
0

> <s_epik_input>
W0NIM11jMVtjSF1jKG5bbkhdMSlbQ0gyXUMoPU8pW05IXVtDQEhdKFtDQEBIXTIzKVtDQEhdKFtDSDJdW09IXSlbQ0BASF0oW0NIMl0zKVtDSDJdW0NIMl0y

> <s_epik_cmdline>
J2VwaWtfcHl0aG9uJywgJy1waCcsICc3LjAnLCAnLXRuJywgJzgnLCAnLW1hJywgJzIwMCcsICctbWV0YWxfYmluZGluZycsICctaW1hZScsICc8aW5maWxlLm1hZT4nLCAnLW9tYWUnLCAnPG91dGZpbGUubWFlPic=

> <r_lp_tautomer_probability>
0.5

> <r_epik_Ionization_Penalty>
0.00013396

> <r_epik_Ionization_Penalty_Charging>
0

> <r_epik_Ionization_Penalty_Neutral>
0.00013396

> <r_epik_State_Penalty>
0.41068

> <r_epik_Charging_Adjusted_Penalty>
0.41068

> <i_epik_Tot_Q>
0

> <i_epik_Tot_abs_Q>
0

> <r_epik_Metal_State_Penalty>
0.41066

> <b_epik_Metal_Only>
0

> <s_lp_Force_Field>
OPLS_2005

> <r_lp_Energy>
50.1234

> <b_lp_Chiralities_Consistent>
1

> <s_lp_Variant>
AV-unprocessed.smi:2881-15

> <Gold.Version>
5.8.1

> <Gold.Id.Protein>
6NUR|6NUR_protein|mol2

> <Gold.PLP.Fitness>
36.8664

> <Gold.PLP.PLP>
-26.4916

> <Gold.PLP.part.hbond>
-5.1339

> <Gold.PLP.part.metal>
0.0000

> <Gold.PLP.part.buried>
-0.5101

> <Gold.PLP.part.nonpolar>
-21.2014

> <Gold.PLP.part.repulsive>
0.2823

> <Gold.PLP.ligand.clash>
0.0000

> <Gold.PLP.ligand.torsion>
0.8812

> <Gold.PLP.Chemscore.Hbond>
4.0416

> <Gold.PLP.Chemscore.CHOScore>
0.0000

> <Gold.PLP.Chemscore.Metal>
0.0000

> <Gold.Chemscore.Hbonds>
donor molecule, donor type, donor heavy atom, donor atom, acceptor molecule, acceptor atom, score
      L1  H     8    27       P1  7948  1.00
      L1  H    17    40       P1 10171  1.00
      L1  H    18    20       P1  7948  0.96
      P1  H  7954  7966       L1    17  0.98
      P1  H  7989  7998       L1    19  0.03

> <Gold.PLP.Chemscore.Internal.Correction>
0.0123

> <Gold.Rescore>
     Score         DG    S(hbond)    S(metal)    S(lipo)     H(rot)  DE(clash)    DE(int)     intcor
     16.65     -18.93       3.67        0.00      60.04       2.28       1.32       0.96       ----

> <Gold.Chemscore.Fitness>
16.6519

> <Gold.Chemscore.DG>
-18.9281

> <Gold.Chemscore.ZeroCoef>
-5.4800

> <Gold.Chemscore.Hbond>
3.6673

> <Gold.Chemscore.Metal>
0.0000

> <Gold.Chemscore.Lipo>
60.0397

> <Gold.Chemscore.Internal_Hbond>
0.0000

> <Gold.Chemscore.DEClash>
1.3207

> <Gold.Chemscore.DEInternal>
0.9556

> <Gold.Chemscore.Rot>
2.2755

> <Gold.Chemscore.Internal.Correction>
   9.000000E+99

> <Gold.Chemscore.Hbonds>
donor molecule, donor type, donor heavy atom, donor atom, acceptor molecule, acceptor atom, score
      L1  H     8    27       P1  7948  0.99
      L1  H    17    40       P1 10171  1.00
      L1  H    18    20       P1  7948  0.89
      P1  H  7954  7966       L1    17  0.52
      P1  H  7989  7998       L1    19  0.01

> <Gold.Chemscore.Hbond.Weighted>
-12.2487

> <Gold.Chemscore.Metal.Weighted>
-0.0000

> <Gold.Chemscore.Lipo.Weighted>
-7.0246

> <Gold.Chemscore.Internal_Hbond.Weighted>
0.0000

> <Gold.Chemscore.DEClash.Weighted>
1.3207

> <Gold.Chemscore.DEInternal.Weighted>
0.9556

> <Gold.Chemscore.Rot.Weighted>
5.8252

> <Gold.Chemscore.Internal.Correction.Weighted>
   9.000000E+99

> <Gold.Protein.RotatedTorsions>
[ 6907 6896 6895 6894 ] final -113.30 input  -60.11 | X-H torsion
[ 7974 7965 7964 7962 ] final    3.66 input  175.53 | X-H torsion
[ 8008 7997 7996 7995 ] final  -57.03 input   59.86 | X-H torsion
[ 10167 10162 10161 10158 ] final   40.60 input  -65.29 | X-H torsion
[ 10718 10713 10712 10709 ] final  126.51 input   66.30 | X-H torsion
[ 10763 10752 10751 10750 ] final  -42.38 input  -60.55 | X-H torsion
[ 11005 11000 10999 10996 ] final  -70.29 input  -57.11 | X-H torsion

> <Gold.Protein.ActiveResidues>
 VAL166  LYS551  ARG553  GLY616  TRP617  ASP618  TYR619  PRO620  LYS621  CYS622 
 ASP623  PHE694  ASN695  SER759  ASP760  ASP761  ALA762  ILE779  LEU786  VAL792 
 PHE793  MET794  SER795  GLU796  ALA797  LYS798  CYS799  TRP800  GLU811  SER814 

> <Gold.Protein.RotatedAtoms>
  150.7819  133.8964  159.3328 H   0  0  0  0  0  0  0  0  0  0  0  0  # atno 6907 bound_to 6896
  151.6824  135.0958  160.0228 H   0  0  0  0  0  0  0  0  0  0  0  0  # atno 6908 bound_to 6896
  152.3873  133.6591  159.6245 H   0  0  0  0  0  0  0  0  0  0  0  0  # atno 6909 bound_to 6896
  146.2445  140.0652  142.8366 H   0  0  0  0  0  0  0  0  0  0  0  0  # atno 7974 bound_to 7965
  154.4252  140.1116  156.5733 H   0  0  0  0  0  0  0  0  0  0  0  0  # atno 8008 bound_to 7997
  155.6189  140.3495  155.4627 H   0  0  0  0  0  0  0  0  0  0  0  0  # atno 8009 bound_to 7997
  156.0040  140.1205  157.0509 H   0  0  0  0  0  0  0  0  0  0  0  0  # atno 8010 bound_to 7997
  140.3726  144.2085  150.6132 H   0  0  0  0  0  0  0  0  0  0  0  0  # atno 10167 bound_to 10162
  157.5413  131.1097  150.8854 H   0  0  0  0  0  0  0  0  0  0  0  0  # atno 10718 bound_to 10713
  153.9780  135.6720  153.4749 H   0  0  0  0  0  0  0  0  0  0  0  0  # atno 10763 bound_to 10752
  153.0761  135.4948  154.8404 H   0  0  0  0  0  0  0  0  0  0  0  0  # atno 10764 bound_to 10752
  154.7181  135.3111  154.9053 H   0  0  0  0  0  0  0  0  0  0  0  0  # atno 10765 bound_to 10752
  141.1571  133.6786  156.6730 H   0  0  0  0  0  0  0  0  0  0  0  0  # atno 11005 bound_to 11000
  145.0865  140.9256  143.4794 LP  0  0  0  0  0  0  0  0  0  0  0  0  # atno 17320 bound_to 7965
  145.0815  139.2956  143.5781 LP  0  0  0  0  0  0  0  0  0  0  0  0  # atno 17321 bound_to 7965
  140.5018  143.2316  151.8667 LP  0  0  0  0  0  0  0  0  0  0  0  0  # atno 17342 bound_to 10162
  139.4802  144.5051  151.9009 LP  0  0  0  0  0  0  0  0  0  0  0  0  # atno 17343 bound_to 10162
  156.9406  130.5383  149.5280 LP  0  0  0  0  0  0  0  0  0  0  0  0  # atno 17370 bound_to 10713
  156.0499  130.5570  150.8965 LP  0  0  0  0  0  0  0  0  0  0  0  0  # atno 17371 bound_to 10713
  140.3160  134.8047  157.4215 LP  0  0  0  0  0  0  0  0  0  0  0  0  # atno 17394 bound_to 11000
  140.1137  134.5311  155.8243 LP  0  0  0  0  0  0  0  0  0  0  0  0  # atno 17395 bound_to 11000

$$$$
