AV-unprocessed.smi:662|AV-procd|sdf|3245|dock9
  -GOLD-   22720 0193D 1   1.00000     0.00000
 Structure written by MMmdl.
 33 34  0  0  0  0  0  0  0  0  1 V2000
  149.6670  141.3392  154.0972 O   0  0  0  0  0  0  0  0  0  0  0  0
  149.4630  140.1544  154.3650 C   0  0  0  0  0  0  0  0  0  0  0  0
  150.2571  139.4367  155.1740 N   0  0  0  0  0  0  0  0  0  0  0  0
  151.4578  139.9397  155.8309 C   0  0  0  0  0  0  0  0  0  0  0  0
  151.5518  139.4579  157.2879 C   0  0  0  0  0  0  0  0  0  0  0  0
  151.9185  140.5558  158.2284 C   0  0  0  0  0  0  0  0  0  0  0  0
  151.7360  141.8508  157.9579 N   0  0  0  0  0  0  0  0  0  0  0  0
  152.1880  142.6877  158.9841 C   0  0  0  0  0  0  0  0  0  0  0  0
  152.0433  144.1760  158.8510 C   0  0  0  0  0  0  0  0  0  0  0  0
  152.4008  144.8062  159.9702 F   0  0  0  0  0  0  0  0  0  0  0  0
  152.8055  144.6473  157.8643 F   0  0  0  0  0  0  0  0  0  0  0  0
  150.7816  144.5131  158.5858 F   0  0  0  0  0  0  0  0  0  0  0  0
  152.7336  141.9965  160.0387 C   0  0  0  0  0  0  0  0  0  0  0  0
  152.6990  140.2742  159.7795 S   0  0  0  0  0  0  0  0  0  0  0  0
  148.2571  139.4197  153.7673 C   0  0  2  0  0  0  0  0  0  0  0  0
  146.9172  140.0698  154.1496 C   0  0  0  0  0  0  0  0  0  0  0  0
  146.0699  138.9080  154.6539 C   0  0  0  0  0  0  0  0  0  0  0  0
  146.7833  137.6695  154.1158 C   0  0  0  0  0  0  0  0  0  0  0  0
  148.1896  138.0221  154.2130 N   0  0  0  0  0  0  0  0  0  0  0  0
  150.0142  138.4714  155.3429 H   0  0  0  0  0  0  0  0  0  0  0  0
  152.3436  139.6376  155.2693 H   0  0  0  0  0  0  0  0  0  0  0  0
  151.4279  141.0293  155.8011 H   0  0  0  0  0  0  0  0  0  0  0  0
  150.6001  139.0282  157.6039 H   0  0  0  0  0  0  0  0  0  0  0  0
  152.2964  138.6666  157.3806 H   0  0  0  0  0  0  0  0  0  0  0  0
  153.1545  142.3958  160.9496 H   0  0  0  0  0  0  0  0  0  0  0  0
  148.3396  139.4157  152.6786 H   0  0  0  0  0  0  0  0  0  0  0  0
  147.0083  140.8442  154.9134 H   0  0  0  0  0  0  0  0  0  0  0  0
  146.4598  140.5287  153.2722 H   0  0  0  0  0  0  0  0  0  0  0  0
  146.0749  138.8921  155.7447 H   0  0  0  0  0  0  0  0  0  0  0  0
  145.0321  138.9710  154.3254 H   0  0  0  0  0  0  0  0  0  0  0  0
  146.5532  136.7678  154.6840 H   0  0  0  0  0  0  0  0  0  0  0  0
  146.5218  137.4950  153.0709 H   0  0  0  0  0  0  0  0  0  0  0  0
  148.7703  137.4045  153.6642 H   0  0  0  0  0  0  0  0  0  0  0  0
  1  2  2  0  0  0  0
  2  3  1  0  0  0  0
  2 15  1  0  0  0  0
  3  4  1  0  0  0  0
  3 20  1  0  0  0  0
  4  5  1  0  0  0  0
  4 21  1  0  0  0  0
  4 22  1  0  0  0  0
  5  6  1  0  0  0  0
  5 23  1  0  0  0  0
  5 24  1  0  0  0  0
  6 14  1  0  0  0  0
  6  7  2  0  0  0  0
  7  8  1  0  0  0  0
  8  9  1  0  0  0  0
  8 13  2  0  0  0  0
  9 10  1  0  0  0  0
  9 11  1  0  0  0  0
  9 12  1  0  0  0  0
 13 14  1  0  0  0  0
 13 25  1  0  0  0  0
 15 19  1  0  0  0  0
 15 16  1  0  0  0  0
 15 26  1  0  0  0  0
 16 17  1  0  0  0  0
 16 27  1  0  0  0  0
 16 28  1  0  0  0  0
 17 18  1  0  0  0  0
 17 29  1  0  0  0  0
 17 30  1  0  0  0  0
 18 19  1  0  0  0  0
 18 31  1  0  0  0  0
 18 32  1  0  0  0  0
 19 33  1  0  0  0  0
M  END
> <s_m_source_file>
AV-unprocessed.smi

> <i_m_source_file_index>
662

> <i_lp_mmshare_version>
43012

> <i_f3d_flags>
0

> <s_epik_input>
W05IXTFbQ0gyXVtDSDJdW0NIMl1bQ0BIXTFDKD1PKVtOSF1bQ0gyXVtDSDJdYzJuYyhDKEYpKEYpRilbY0hdczI=

> <s_epik_cmdline>
J2VwaWtfcHl0aG9uJywgJy1waCcsICc3LjAnLCAnLXRuJywgJzgnLCAnLW1hJywgJzIwMCcsICctbWV0YWxfYmluZGluZycsICctaW1hZScsICc8aW5maWxlLm1hZT4nLCAnLW9tYWUnLCAnPG91dGZpbGUubWFlPic=

> <r_epik_Ionization_Penalty>
1.64272

> <r_epik_Ionization_Penalty_Charging>
0

> <r_epik_Ionization_Penalty_Neutral>
1.64272

> <r_epik_State_Penalty>
1.74416

> <r_epik_Charging_Adjusted_Penalty>
1.74416

> <i_epik_Tot_Q>
0

> <i_epik_Tot_abs_Q>
0

> <r_epik_Metal_State_Penalty>
1.74416

> <b_epik_Metal_Only>
0

> <s_lp_Force_Field>
OPLS_2005

> <r_lp_Energy>
16.594

> <b_lp_Chiralities_Consistent>
1

> <s_lp_Variant>
AV-unprocessed.smi:662-3

> <Gold.Version>
5.8.1

> <Gold.Id.Protein>
6NUR|6NUR_protein|mol2

> <Gold.PLP.Fitness>
42.1682

> <Gold.PLP.PLP>
-39.2227

> <Gold.PLP.part.hbond>
-3.0000

> <Gold.PLP.part.metal>
0.0000

> <Gold.PLP.part.buried>
-2.0400

> <Gold.PLP.part.nonpolar>
-33.4150

> <Gold.PLP.part.repulsive>
0.2903

> <Gold.PLP.ligand.clash>
0.0000

> <Gold.PLP.ligand.torsion>
0.8891

> <Gold.PLP.Chemscore.Hbond>
1.5658

> <Gold.PLP.Chemscore.CHOScore>
0.0000

> <Gold.PLP.Chemscore.Metal>
0.0000

> <Gold.Chemscore.Hbonds>
donor molecule, donor type, donor heavy atom, donor atom, acceptor molecule, acceptor atom, score
      L1  H    19    33       P1  7948  0.67
      P1  H  7989  7998       L1     1  0.16
      P1  H  8011  8017       L1     1  0.64

> <Gold.PLP.Chemscore.Internal.Correction>
0.0263

> <Gold.Rescore>
     Score         DG    S(hbond)    S(metal)    S(lipo)     H(rot)  DE(clash)    DE(int)     intcor
     12.68     -13.87       1.45        0.00      71.99       1.91       0.37       0.82       ----

> <Gold.Chemscore.Fitness>
12.6798

> <Gold.Chemscore.DG>
-13.8674

> <Gold.Chemscore.ZeroCoef>
-5.4800

> <Gold.Chemscore.Hbond>
1.4528

> <Gold.Chemscore.Metal>
0.0000

> <Gold.Chemscore.Lipo>
71.9944

> <Gold.Chemscore.Internal_Hbond>
0.0000

> <Gold.Chemscore.DEClash>
0.3670

> <Gold.Chemscore.DEInternal>
0.8205

> <Gold.Chemscore.Rot>
1.9095

> <Gold.Chemscore.Internal.Correction>
   9.000000E+99

> <Gold.Chemscore.Hbonds>
donor molecule, donor type, donor heavy atom, donor atom, acceptor molecule, acceptor atom, score
      L1  H    19    33       P1  7948  0.64
      P1  H  7989  7998       L1     1  0.01
      P1  H  8011  8017       L1     1  0.61

> <Gold.Chemscore.Hbond.Weighted>
-4.8524

> <Gold.Chemscore.Metal.Weighted>
-0.0000

> <Gold.Chemscore.Lipo.Weighted>
-8.4234

> <Gold.Chemscore.Internal_Hbond.Weighted>
0.0000

> <Gold.Chemscore.DEClash.Weighted>
0.3670

> <Gold.Chemscore.DEInternal.Weighted>
0.8205

> <Gold.Chemscore.Rot.Weighted>
4.8883

> <Gold.Chemscore.Internal.Correction.Weighted>
   9.000000E+99

> <Gold.Protein.RotatedTorsions>
[ 6907 6896 6895 6894 ] final  -43.27 input  -60.11 | X-H torsion
[ 7974 7965 7964 7962 ] final  -89.04 input  175.53 | X-H torsion
[ 8008 7997 7996 7995 ] final -127.62 input   59.86 | X-H torsion
[ 10167 10162 10161 10158 ] final   61.68 input  -65.29 | X-H torsion
[ 10718 10713 10712 10709 ] final -152.38 input   66.30 | X-H torsion
[ 10763 10752 10751 10750 ] final   43.40 input  -60.55 | X-H torsion
[ 11005 11000 10999 10996 ] final  -39.64 input  -57.11 | X-H torsion

> <Gold.Protein.ActiveResidues>
 VAL166  LYS551  ARG553  GLY616  TRP617  ASP618  TYR619  PRO620  LYS621  CYS622 
 ASP623  PHE694  ASN695  SER759  ASP760  ASP761  ALA762  ILE779  LEU786  VAL792 
 PHE793  MET794  SER795  GLU796  ALA797  LYS798  CYS799  TRP800  GLU811  SER814 

> <Gold.Protein.RotatedAtoms>
  150.9458  134.8863  159.7640 H   0  0  0  0  0  0  0  0  0  0  0  0  # atno 6907 bound_to 6896
  152.5099  134.3877  159.9383 H   0  0  0  0  0  0  0  0  0  0  0  0  # atno 6908 bound_to 6896
  151.3896  133.3753  159.2754 H   0  0  0  0  0  0  0  0  0  0  0  0  # atno 6909 bound_to 6896
  145.4451  140.9560  143.2053 H   0  0  0  0  0  0  0  0  0  0  0  0  # atno 7974 bound_to 7965
  155.2492  140.0431  157.2984 H   0  0  0  0  0  0  0  0  0  0  0  0  # atno 8008 bound_to 7997
  154.5780  140.2392  155.8065 H   0  0  0  0  0  0  0  0  0  0  0  0  # atno 8009 bound_to 7997
  156.2172  140.2981  155.9875 H   0  0  0  0  0  0  0  0  0  0  0  0  # atno 8010 bound_to 7997
  140.1521  144.4452  150.6753 H   0  0  0  0  0  0  0  0  0  0  0  0  # atno 10167 bound_to 10162
  156.4717  130.8261  151.2491 H   0  0  0  0  0  0  0  0  0  0  0  0  # atno 10718 bound_to 10713
  152.9861  135.6102  154.3105 H   0  0  0  0  0  0  0  0  0  0  0  0  # atno 10763 bound_to 10752
  154.2821  135.2777  155.2694 H   0  0  0  0  0  0  0  0  0  0  0  0  # atno 10764 bound_to 10752
  154.5028  135.5862  153.6601 H   0  0  0  0  0  0  0  0  0  0  0  0  # atno 10765 bound_to 10752
  141.0117  133.6905  156.2214 H   0  0  0  0  0  0  0  0  0  0  0  0  # atno 11005 bound_to 11000
  144.8097  139.5985  143.7035 LP  0  0  0  0  0  0  0  0  0  0  0  0  # atno 17320 bound_to 7965
  146.2535  139.6251  142.9411 LP  0  0  0  0  0  0  0  0  0  0  0  0  # atno 17321 bound_to 7965
  140.6696  143.2280  151.5658 LP  0  0  0  0  0  0  0  0  0  0  0  0  # atno 17342 bound_to 10162
  139.5421  144.2620  152.1371 LP  0  0  0  0  0  0  0  0  0  0  0  0  # atno 17343 bound_to 10162
  157.7491  131.0074  150.3188 LP  0  0  0  0  0  0  0  0  0  0  0  0  # atno 17370 bound_to 10713
  156.3611  130.3847  149.7250 LP  0  0  0  0  0  0  0  0  0  0  0  0  # atno 17371 bound_to 10713
  140.6723  134.4854  157.5587 LP  0  0  0  0  0  0  0  0  0  0  0  0  # atno 17394 bound_to 11000
  139.9093  134.8379  156.1586 LP  0  0  0  0  0  0  0  0  0  0  0  0  # atno 17395 bound_to 11000

$$$$
