AV-unprocessed.smi:421|AV-procd|sdf|2534|dock1
  -GOLD-   2262022493D 1   1.00000     0.00000
 Structure written by MMmdl.
 43 45  0  0  0  0  0  0  0  0  1 V2000
  153.1237  140.3285  160.2825 C   0  0  0  0  0  0  0  0  0  0  0  0
  152.4790  141.1975  159.3057 N   0  0  0  0  0  0  0  0  0  0  0  0
  152.0912  140.8674  158.0516 C   0  0  0  0  0  0  0  0  0  0  0  0
  152.2194  139.7649  157.5193 O   0  0  0  0  0  0  0  0  0  0  0  0
  151.5422  141.9655  157.4793 N   0  0  0  0  0  0  0  0  0  0  0  0
  150.9918  142.0579  156.1276 C   0  0  0  0  0  0  0  0  0  0  0  0
  150.3671  140.7235  155.6715 C   0  0  2  0  0  0  0  0  0  0  0  0
  151.4062  139.9149  155.1559 O   0  0  0  0  0  0  0  0  0  0  0  0
  149.3420  140.9251  154.5430 C   0  0  0  0  0  0  0  0  0  0  0  0
  148.2786  141.7274  155.0285 O   0  0  0  0  0  0  0  0  0  0  0  0
  147.4014  142.1661  154.0035 C   0  0  0  0  0  0  0  0  0  0  0  0
  146.2770  143.0274  154.5478 C   0  0  0  0  0  0  0  0  0  0  0  0
  145.5300  143.8560  153.6831 C   0  0  0  0  0  0  0  0  0  0  0  0
  144.4967  144.6655  154.1939 C   0  0  0  0  0  0  0  0  0  0  0  0
  144.2109  144.6565  155.5729 C   0  0  0  0  0  0  0  0  0  0  0  0
  144.9612  143.8400  156.4410 C   0  0  0  0  0  0  0  0  0  0  0  0
  145.9938  143.0293  155.9303 C   0  0  0  0  0  0  0  0  0  0  0  0
  151.5900  143.0306  158.3910 C   0  0  0  0  0  0  0  0  0  0  0  0
  151.1661  144.3667  158.2807 C   0  0  0  0  0  0  0  0  0  0  0  0
  151.3657  145.2034  159.4040 C   0  0  0  0  0  0  0  0  0  0  0  0
  151.9712  144.7024  160.5859 C   0  0  0  0  0  0  0  0  0  0  0  0
  152.3912  143.3541  160.6692 C   0  0  0  0  0  0  0  0  0  0  0  0
  152.1800  142.5455  159.5393 C   0  0  0  0  0  0  0  0  0  0  0  0
  153.1098  139.2829  159.9719 H   0  0  0  0  0  0  0  0  0  0  0  0
  152.6160  140.3970  161.2448 H   0  0  0  0  0  0  0  0  0  0  0  0
  154.1629  140.6273  160.4224 H   0  0  0  0  0  0  0  0  0  0  0  0
  150.2270  142.8361  156.1403 H   0  0  0  0  0  0  0  0  0  0  0  0
  151.7457  142.4038  155.4192 H   0  0  0  0  0  0  0  0  0  0  0  0
  149.8859  140.2230  156.5131 H   0  0  0  0  0  0  0  0  0  0  0  0
  151.1002  139.0218  155.1192 H   0  0  0  0  0  0  0  0  0  0  0  0
  149.8079  141.4513  153.7084 H   0  0  0  0  0  0  0  0  0  0  0  0
  148.9794  139.9692  154.1599 H   0  0  0  0  0  0  0  0  0  0  0  0
  147.9637  142.7319  153.2588 H   0  0  0  0  0  0  0  0  0  0  0  0
  146.9598  141.3072  153.4959 H   0  0  0  0  0  0  0  0  0  0  0  0
  145.7462  143.8740  152.6247 H   0  0  0  0  0  0  0  0  0  0  0  0
  143.9251  145.2947  153.5279 H   0  0  0  0  0  0  0  0  0  0  0  0
  143.4192  145.2782  155.9644 H   0  0  0  0  0  0  0  0  0  0  0  0
  144.7460  143.8366  157.4994 H   0  0  0  0  0  0  0  0  0  0  0  0
  146.5665  142.4084  156.6035 H   0  0  0  0  0  0  0  0  0  0  0  0
  150.7081  144.7449  157.3787 H   0  0  0  0  0  0  0  0  0  0  0  0
  151.0534  146.2365  159.3613 H   0  0  0  0  0  0  0  0  0  0  0  0
  152.1143  145.3584  161.4320 H   0  0  0  0  0  0  0  0  0  0  0  0
  152.8542  142.9651  161.5640 H   0  0  0  0  0  0  0  0  0  0  0  0
  1  2  1  0  0  0  0
  1 24  1  0  0  0  0
  1 25  1  0  0  0  0
  1 26  1  0  0  0  0
  2 23  1  0  0  0  0
  2  3  1  0  0  0  0
  3  4  2  0  0  0  0
  3  5  1  0  0  0  0
  5  6  1  0  0  0  0
  5 18  1  0  0  0  0
  6  7  1  0  0  0  0
  6 27  1  0  0  0  0
  6 28  1  0  0  0  0
  7  8  1  0  0  0  0
  7  9  1  0  0  0  0
  7 29  1  0  0  0  0
  8 30  1  0  0  0  0
  9 10  1  0  0  0  0
  9 31  1  0  0  0  0
  9 32  1  0  0  0  0
 10 11  1  0  0  0  0
 11 12  1  0  0  0  0
 11 33  1  0  0  0  0
 11 34  1  0  0  0  0
 12 17  1  0  0  0  0
 12 13  2  0  0  0  0
 13 14  1  0  0  0  0
 13 35  1  0  0  0  0
 14 15  2  0  0  0  0
 14 36  1  0  0  0  0
 15 16  1  0  0  0  0
 15 37  1  0  0  0  0
 16 17  2  0  0  0  0
 16 38  1  0  0  0  0
 17 39  1  0  0  0  0
 18 23  2  0  0  0  0
 18 19  1  0  0  0  0
 19 20  2  0  0  0  0
 19 40  1  0  0  0  0
 20 21  1  0  0  0  0
 20 41  1  0  0  0  0
 21 22  2  0  0  0  0
 21 42  1  0  0  0  0
 22 23  1  0  0  0  0
 22 43  1  0  0  0  0
M  END
> <s_m_source_file>
AV-unprocessed.smi

> <i_m_source_file_index>
421

> <i_lp_mmshare_version>
43012

> <i_f3d_flags>
0

> <s_epik_input>
W2NIXTFbY0hdW2NIXVtjSF1jKGMxMiluKFtDSDNdKWMoPU8pbjJbQ0gyXVtDQEhdKFtPSF0pW0NIMl1PW0NIMl1jM1tjSF1bY0hdW2NIXVtjSF1bY0hdMw==

> <s_epik_cmdline>
J2VwaWtfcHl0aG9uJywgJy1waCcsICc3LjAnLCAnLXRuJywgJzgnLCAnLW1hJywgJzIwMCcsICctbWV0YWxfYmluZGluZycsICctaW1hZScsICc8aW5maWxlLm1hZT4nLCAnLW9tYWUnLCAnPG91dGZpbGUubWFlPic=

> <r_lp_tautomer_probability>
1

> <r_epik_Ionization_Penalty>
1.0795e-06

> <r_epik_Ionization_Penalty_Charging>
2.82452e-09

> <r_epik_Ionization_Penalty_Neutral>
1.07667e-06

> <r_epik_State_Penalty>
-0

> <r_epik_Charging_Adjusted_Penalty>
2.82452e-09

> <i_epik_Tot_Q>
0

> <i_epik_Tot_abs_Q>
0

> <r_epik_Metal_State_Penalty>
-0

> <b_epik_Metal_Only>
0

> <s_lp_Force_Field>
OPLS_2005

> <r_lp_Energy>
47.1421

> <b_lp_Chiralities_Consistent>
1

> <s_lp_Variant>
AV-unprocessed.smi:421-1

> <Gold.Version>
5.8.1

> <Gold.Id.Protein>
6NUR|6NUR_protein|mol2

> <Gold.PLP.Fitness>
56.0762

> <Gold.PLP.PLP>
-54.6199

> <Gold.PLP.part.hbond>
-1.5863

> <Gold.PLP.part.metal>
0.0000

> <Gold.PLP.part.buried>
-9.4605

> <Gold.PLP.part.nonpolar>
-43.6802

> <Gold.PLP.part.repulsive>
0.1345

> <Gold.PLP.ligand.clash>
0.0000

> <Gold.PLP.ligand.torsion>
0.8674

> <Gold.PLP.Chemscore.Hbond>
1.0000

> <Gold.PLP.Chemscore.CHOScore>
0.0000

> <Gold.PLP.Chemscore.Metal>
0.0000

> <Gold.Chemscore.Hbonds>
donor molecule, donor type, donor heavy atom, donor atom, acceptor molecule, acceptor atom, score
      P1  H  7989  7998       L1     8  0.85

> <Gold.PLP.Chemscore.Internal.Correction>
0.1912

> <Gold.Rescore>
     Score         DG    S(hbond)    S(metal)    S(lipo)     H(rot)  DE(clash)    DE(int)     intcor
     14.49     -17.25       0.80        0.00     126.32       2.21       0.51       2.26       ----

> <Gold.Chemscore.Fitness>
14.4894

> <Gold.Chemscore.DG>
-17.2545

> <Gold.Chemscore.ZeroCoef>
-5.4800

> <Gold.Chemscore.Hbond>
0.7956

> <Gold.Chemscore.Metal>
0.0000

> <Gold.Chemscore.Lipo>
126.3212

> <Gold.Chemscore.Internal_Hbond>
0.0000

> <Gold.Chemscore.DEClash>
0.5056

> <Gold.Chemscore.DEInternal>
2.2595

> <Gold.Chemscore.Rot>
2.2119

> <Gold.Chemscore.Internal.Correction>
   9.000000E+99

> <Gold.Chemscore.Hbonds>
donor molecule, donor type, donor heavy atom, donor atom, acceptor molecule, acceptor atom, score
      P1  H  7989  7998       L1     8  0.14

> <Gold.Chemscore.Hbond.Weighted>
-2.6573

> <Gold.Chemscore.Metal.Weighted>
-0.0000

> <Gold.Chemscore.Lipo.Weighted>
-14.7796

> <Gold.Chemscore.Internal_Hbond.Weighted>
0.0000

> <Gold.Chemscore.DEClash.Weighted>
0.5056

> <Gold.Chemscore.DEInternal.Weighted>
2.2595

> <Gold.Chemscore.Rot.Weighted>
5.6623

> <Gold.Chemscore.Internal.Correction.Weighted>
   9.000000E+99

> <Gold.Protein.RotatedTorsions>
[ 6907 6896 6895 6894 ] final   96.37 input  -60.11 | X-H torsion
[ 7974 7965 7964 7962 ] final  -78.32 input  175.53 | X-H torsion
[ 8008 7997 7996 7995 ] final  -11.47 input   59.86 | X-H torsion
[ 10167 10162 10161 10158 ] final   23.92 input  -65.29 | X-H torsion
[ 10718 10713 10712 10709 ] final   42.49 input   66.30 | X-H torsion
[ 10763 10752 10751 10750 ] final  -86.48 input  -60.55 | X-H torsion
[ 11005 11000 10999 10996 ] final    6.63 input  -57.11 | X-H torsion

> <Gold.Protein.ActiveResidues>
 VAL166  LYS551  ARG553  GLY616  TRP617  ASP618  TYR619  PRO620  LYS621  CYS622 
 ASP623  PHE694  ASN695  SER759  ASP760  ASP761  ALA762  ILE779  LEU786  VAL792 
 PHE793  MET794  SER795  GLU796  ALA797  LYS798  CYS799  TRP800  GLU811  SER814 

> <Gold.Protein.RotatedAtoms>
  152.5435  134.0896  159.8270 H   0  0  0  0  0  0  0  0  0  0  0  0  # atno 6907 bound_to 6896
  151.0987  133.5252  159.2618 H   0  0  0  0  0  0  0  0  0  0  0  0  # atno 6908 bound_to 6896
  151.2016  135.0454  159.8928 H   0  0  0  0  0  0  0  0  0  0  0  0  # atno 6909 bound_to 6896
  145.5880  140.9435  143.1307 H   0  0  0  0  0  0  0  0  0  0  0  0  # atno 7974 bound_to 7965
  154.5462  140.2301  155.8560 H   0  0  0  0  0  0  0  0  0  0  0  0  # atno 8008 bound_to 7997
  156.1904  140.3078  155.9283 H   0  0  0  0  0  0  0  0  0  0  0  0  # atno 8009 bound_to 7997
  155.3161  140.0438  157.3028 H   0  0  0  0  0  0  0  0  0  0  0  0  # atno 8010 bound_to 7997
  140.5230  143.9970  150.6426 H   0  0  0  0  0  0  0  0  0  0  0  0  # atno 10167 bound_to 10162
  157.4054  130.7883  149.7384 H   0  0  0  0  0  0  0  0  0  0  0  0  # atno 10718 bound_to 10713
  154.6229  135.5448  153.7595 H   0  0  0  0  0  0  0  0  0  0  0  0  # atno 10763 bound_to 10752
  153.0247  135.6417  154.1414 H   0  0  0  0  0  0  0  0  0  0  0  0  # atno 10764 bound_to 10752
  154.1348  135.2912  155.3156 H   0  0  0  0  0  0  0  0  0  0  0  0  # atno 10765 bound_to 10752
  140.5573  134.0225  155.7959 H   0  0  0  0  0  0  0  0  0  0  0  0  # atno 11005 bound_to 11000
  144.7364  139.7574  143.7328 LP  0  0  0  0  0  0  0  0  0  0  0  0  # atno 17320 bound_to 7965
  146.1667  139.4802  142.9953 LP  0  0  0  0  0  0  0  0  0  0  0  0  # atno 17321 bound_to 7965
  140.3324  143.3069  152.0673 LP  0  0  0  0  0  0  0  0  0  0  0  0  # atno 17342 bound_to 10162
  139.4929  144.6500  151.6696 LP  0  0  0  0  0  0  0  0  0  0  0  0  # atno 17343 bound_to 10162
  155.9835  130.4000  150.3361 LP  0  0  0  0  0  0  0  0  0  0  0  0  # atno 17370 bound_to 10713
  157.1493  131.0317  151.2892 LP  0  0  0  0  0  0  0  0  0  0  0  0  # atno 17371 bound_to 10713
  141.1135  133.9577  157.2865 LP  0  0  0  0  0  0  0  0  0  0  0  0  # atno 17394 bound_to 11000
  139.9425  135.0189  156.8752 LP  0  0  0  0  0  0  0  0  0  0  0  0  # atno 17395 bound_to 11000

$$$$
