AV-unprocessed.smi:2344|AV-procd|sdf|9359|dock6
  -GOLD-   2272012583D 1   1.00000     0.00000
 Structure written by MMmdl.
 35 36  0  0  0  0  0  0  0  0  1 V2000
  142.3577  143.5897  161.9189 C   0  0  0  0  0  0  0  0  0  0  0  0
  143.7084  143.9532  161.3390 C   0  0  0  0  0  0  0  0  0  0  0  0
  144.8545  144.0050  162.1541 C   0  0  0  0  0  0  0  0  0  0  0  0
  146.0880  144.3510  161.5696 C   0  0  0  0  0  0  0  0  0  0  0  0
  146.1471  144.6374  160.1871 C   0  0  0  0  0  0  0  0  0  0  0  0
  147.4377  144.9733  159.6984 N   0  0  0  0  0  0  0  0  0  0  0  0
  148.6336  144.6964  160.2473 C   0  0  0  0  0  0  0  0  0  0  0  0
  148.8110  144.0776  161.2971 O   0  0  0  0  0  0  0  0  0  0  0  0
  149.6345  145.1833  159.4998 N   0  0  0  0  0  0  0  0  0  0  0  0
  151.0520  145.0459  159.8146 C   0  0  2  0  0  0  0  0  0  0  0  0
  151.8928  145.3176  158.5976 C   0  0  0  0  0  0  0  0  0  0  0  0
  152.6535  144.2801  158.2562 C   0  0  0  0  0  0  0  0  0  0  0  0
  152.4607  143.0893  159.1579 C   0  0  1  0  0  0  0  0  0  0  0  0
  153.7881  142.5992  159.7592 C   0  0  0  0  0  0  0  0  0  0  0  0
  153.5800  141.4156  160.5003 O   0  0  0  0  0  0  0  0  0  0  0  0
  151.4418  143.5978  160.2114 C   0  0  0  0  0  0  0  0  0  0  0  0
  145.0367  144.5859  159.4101 N   0  0  0  0  0  0  0  0  0  0  0  0
  143.8547  144.2547  159.9708 C   0  0  0  0  0  0  0  0  0  0  0  0
  151.3356  145.7530  160.5964 H   0  0  0  0  0  0  0  0  0  0  0  0
  152.0121  142.2960  158.5583 H   0  0  0  0  0  0  0  0  0  0  0  0
  142.4585  142.7982  162.6621 H   0  0  0  0  0  0  0  0  0  0  0  0
  141.6798  143.2388  161.1402 H   0  0  0  0  0  0  0  0  0  0  0  0
  141.9089  144.4591  162.3997 H   0  0  0  0  0  0  0  0  0  0  0  0
  144.7927  143.7844  163.2096 H   0  0  0  0  0  0  0  0  0  0  0  0
  146.9775  144.3945  162.1814 H   0  0  0  0  0  0  0  0  0  0  0  0
  147.4519  145.4874  158.8302 H   0  0  0  0  0  0  0  0  0  0  0  0
  149.4019  145.6785  158.6516 H   0  0  0  0  0  0  0  0  0  0  0  0
  151.8710  146.2673  158.0835 H   0  0  0  0  0  0  0  0  0  0  0  0
  153.3328  144.2602  157.4167 H   0  0  0  0  0  0  0  0  0  0  0  0
  154.5087  142.3879  158.9686 H   0  0  0  0  0  0  0  0  0  0  0  0
  154.2294  143.3591  160.4054 H   0  0  0  0  0  0  0  0  0  0  0  0
  154.2355  140.7836  160.2476 H   0  0  0  0  0  0  0  0  0  0  0  0
  151.8773  143.5990  161.2115 H   0  0  0  0  0  0  0  0  0  0  0  0
  150.5761  142.9353  160.2529 H   0  0  0  0  0  0  0  0  0  0  0  0
  143.0033  144.2310  159.3065 H   0  0  0  0  0  0  0  0  0  0  0  0
  1  2  1  0  0  0  0
  1 21  1  0  0  0  0
  1 22  1  0  0  0  0
  1 23  1  0  0  0  0
  2 18  1  0  0  0  0
  2  3  2  0  0  0  0
  3  4  1  0  0  0  0
  3 24  1  0  0  0  0
  4  5  2  0  0  0  0
  4 25  1  0  0  0  0
  5  6  1  0  0  0  0
  5 17  1  0  0  0  0
  6  7  1  0  0  0  0
  6 26  1  0  0  0  0
  7  8  2  0  0  0  0
  7  9  1  0  0  0  0
  9 10  1  0  0  0  0
  9 27  1  0  0  0  0
 10 19  1  0  0  0  0
 10 16  1  0  0  0  0
 10 11  1  0  0  0  0
 11 12  2  0  0  0  0
 11 28  1  0  0  0  0
 12 13  1  0  0  0  0
 12 29  1  0  0  0  0
 13 20  1  0  0  0  0
 13 14  1  0  0  0  0
 13 16  1  0  0  0  0
 14 15  1  0  0  0  0
 14 30  1  0  0  0  0
 14 31  1  0  0  0  0
 15 32  1  0  0  0  0
 16 33  1  0  0  0  0
 16 34  1  0  0  0  0
 17 18  2  0  0  0  0
 18 35  1  0  0  0  0
M  END
> <s_m_source_file>
AV-unprocessed.smi

> <i_m_source_file_index>
2344

> <i_lp_mmshare_version>
43012

> <i_f3d_flags>
0

> <s_epik_input>
W0NIM11jMVtjSF1bY0hdYyhuW2NIXTEpW05IXUMoPU8pW05IXVtDQEBIXTJbQ0hdPVtDSF1bQ0BASF0oW0NIMl0yKVtDSDJdW09IXQ==

> <s_epik_cmdline>
J2VwaWtfcHl0aG9uJywgJy1waCcsICc3LjAnLCAnLXRuJywgJzgnLCAnLW1hJywgJzIwMCcsICctbWV0YWxfYmluZGluZycsICctaW1hZScsICc8aW5maWxlLm1hZT4nLCAnLW9tYWUnLCAnPG91dGZpbGUubWFlPic=

> <r_lp_tautomer_probability>
1

> <r_epik_Ionization_Penalty>
5.7643e-05

> <r_epik_Ionization_Penalty_Charging>
0

> <r_epik_Ionization_Penalty_Neutral>
5.7643e-05

> <r_epik_State_Penalty>
-0

> <r_epik_Charging_Adjusted_Penalty>
0

> <i_epik_Tot_Q>
0

> <i_epik_Tot_abs_Q>
0

> <r_epik_Metal_State_Penalty>
-0

> <b_epik_Metal_Only>
0

> <s_lp_Force_Field>
OPLS_2005

> <r_lp_Energy>
17.7036

> <b_lp_Chiralities_Consistent>
1

> <s_lp_Variant>
AV-unprocessed.smi:2344-3

> <Gold.Version>
5.8.1

> <Gold.Id.Protein>
6NUR|6NUR_protein|mol2

> <Gold.PLP.Fitness>
44.5780

> <Gold.PLP.PLP>
-37.5470

> <Gold.PLP.part.hbond>
-2.9834

> <Gold.PLP.part.metal>
0.0000

> <Gold.PLP.part.buried>
-5.5342

> <Gold.PLP.part.nonpolar>
-30.5619

> <Gold.PLP.part.repulsive>
0.6448

> <Gold.PLP.ligand.clash>
0.0000

> <Gold.PLP.ligand.torsion>
0.3105

> <Gold.PLP.Chemscore.Hbond>
2.5460

> <Gold.PLP.Chemscore.CHOScore>
0.0000

> <Gold.PLP.Chemscore.Metal>
0.0000

> <Gold.Chemscore.Hbonds>
donor molecule, donor type, donor heavy atom, donor atom, acceptor molecule, acceptor atom, score
      L1  H     6    26       P1  8029  1.00
      L1  H     9    27       P1  8029  0.84
      P1  H  6933  6944       L1     8  0.69

> <Gold.PLP.Chemscore.Internal.Correction>
0.0140

> <Gold.Rescore>
     Score         DG    S(hbond)    S(metal)    S(lipo)     H(rot)  DE(clash)    DE(int)     intcor
     18.67     -21.64       2.81        0.00      97.59       1.82       0.06       2.91       ----

> <Gold.Chemscore.Fitness>
18.6691

> <Gold.Chemscore.DG>
-21.6447

> <Gold.Chemscore.ZeroCoef>
-5.4800

> <Gold.Chemscore.Hbond>
2.8147

> <Gold.Chemscore.Metal>
0.0000

> <Gold.Chemscore.Lipo>
97.5942

> <Gold.Chemscore.Internal_Hbond>
0.0000

> <Gold.Chemscore.DEClash>
0.0618

> <Gold.Chemscore.DEInternal>
2.9137

> <Gold.Chemscore.Rot>
1.8184

> <Gold.Chemscore.Internal.Correction>
   9.000000E+99

> <Gold.Chemscore.Hbonds>
donor molecule, donor type, donor heavy atom, donor atom, acceptor molecule, acceptor atom, score
      L1  H     6    26       P1  8029  1.00
      L1  H     9    27       P1  8029  0.77
      P1  H  6933  6944       L1     8  0.68

> <Gold.Chemscore.Hbond.Weighted>
-9.4012

> <Gold.Chemscore.Metal.Weighted>
-0.0000

> <Gold.Chemscore.Lipo.Weighted>
-11.4185

> <Gold.Chemscore.Internal_Hbond.Weighted>
0.0000

> <Gold.Chemscore.DEClash.Weighted>
0.0618

> <Gold.Chemscore.DEInternal.Weighted>
2.9137

> <Gold.Chemscore.Rot.Weighted>
4.6551

> <Gold.Chemscore.Internal.Correction.Weighted>
   9.000000E+99

> <Gold.Protein.RotatedTorsions>
[ 6907 6896 6895 6894 ] final  133.75 input  -60.11 | X-H torsion
[ 7974 7965 7964 7962 ] final   10.20 input  175.53 | X-H torsion
[ 8008 7997 7996 7995 ] final  -92.85 input   59.86 | X-H torsion
[ 10167 10162 10161 10158 ] final    0.50 input  -65.29 | X-H torsion
[ 10718 10713 10712 10709 ] final  112.73 input   66.30 | X-H torsion
[ 10763 10752 10751 10750 ] final -152.51 input  -60.55 | X-H torsion
[ 11005 11000 10999 10996 ] final  -68.89 input  -57.11 | X-H torsion

> <Gold.Protein.ActiveResidues>
 VAL166  LYS551  ARG553  GLY616  TRP617  ASP618  TYR619  PRO620  LYS621  CYS622 
 ASP623  PHE694  ASN695  SER759  ASP760  ASP761  ALA762  ILE779  LEU786  VAL792 
 PHE793  MET794  SER795  GLU796  ALA797  LYS798  CYS799  TRP800  GLU811  SER814 

> <Gold.Protein.RotatedAtoms>
  152.3187  133.5830  159.5729 H   0  0  0  0  0  0  0  0  0  0  0  0  # atno 6907 bound_to 6896
  150.7360  134.0044  159.3658 H   0  0  0  0  0  0  0  0  0  0  0  0  # atno 6908 bound_to 6896
  151.7930  135.0731  160.0441 H   0  0  0  0  0  0  0  0  0  0  0  0  # atno 6909 bound_to 6896
  146.2392  139.9669  142.8451 H   0  0  0  0  0  0  0  0  0  0  0  0  # atno 7974 bound_to 7965
  154.7282  140.0505  157.0702 H   0  0  0  0  0  0  0  0  0  0  0  0  # atno 8008 bound_to 7997
  155.0336  140.3161  155.4730 H   0  0  0  0  0  0  0  0  0  0  0  0  # atno 8009 bound_to 7997
  156.2834  140.2145  156.5458 H   0  0  0  0  0  0  0  0  0  0  0  0  # atno 8010 bound_to 7997
  140.6726  143.7007  150.7954 H   0  0  0  0  0  0  0  0  0  0  0  0  # atno 10167 bound_to 10162
  157.6377  131.0972  150.6938 H   0  0  0  0  0  0  0  0  0  0  0  0  # atno 10718 bound_to 10713
  154.7989  135.3234  154.7598 H   0  0  0  0  0  0  0  0  0  0  0  0  # atno 10763 bound_to 10752
  153.8270  135.6882  153.4824 H   0  0  0  0  0  0  0  0  0  0  0  0  # atno 10764 bound_to 10752
  153.1696  135.4628  154.9826 H   0  0  0  0  0  0  0  0  0  0  0  0  # atno 10765 bound_to 10752
  141.1542  133.6751  156.6516 H   0  0  0  0  0  0  0  0  0  0  0  0  # atno 11005 bound_to 11000
  145.1718  140.9724  143.4317 LP  0  0  0  0  0  0  0  0  0  0  0  0  # atno 17320 bound_to 7965
  145.0022  139.3588  143.6162 LP  0  0  0  0  0  0  0  0  0  0  0  0  # atno 17321 bound_to 7965
  140.0695  143.5075  152.2587 LP  0  0  0  0  0  0  0  0  0  0  0  0  # atno 17342 bound_to 10162
  139.6001  144.7580  151.3192 LP  0  0  0  0  0  0  0  0  0  0  0  0  # atno 17343 bound_to 10162
  156.7266  130.4697  149.5509 LP  0  0  0  0  0  0  0  0  0  0  0  0  # atno 17370 bound_to 10713
  156.1630  130.6386  151.0742 LP  0  0  0  0  0  0  0  0  0  0  0  0  # atno 17371 bound_to 10713
  140.3316  134.7924  157.4330 LP  0  0  0  0  0  0  0  0  0  0  0  0  # atno 17394 bound_to 11000
  140.1012  134.5470  155.8351 LP  0  0  0  0  0  0  0  0  0  0  0  0  # atno 17395 bound_to 11000

$$$$
