AV-unprocessed.smi:2855|AV-procd|sdf|10978|dock5
  -GOLD-   2272015433D 1   1.00000     0.00000
 Structure written by MMmdl.
 47 48  0  0  0  0  0  0  0  0  1 V2000
  150.9933  129.2501  154.7777 C   0  0  0  0  0  0  0  0  0  0  0  0
  149.9988  130.2498  155.3849 C   0  0  1  0  0  0  0  0  0  0  0  0
  150.5787  130.9287  156.6425 C   0  0  0  0  0  0  0  0  0  0  0  0
  149.6178  131.9880  157.2151 C   0  0  0  0  0  0  0  0  0  0  0  0
  149.2589  133.0762  156.1715 C   0  0  1  0  0  0  0  0  0  0  0  0
  150.4665  134.0147  155.8166 C   0  0  0  0  0  0  0  0  0  0  0  0
  151.1807  134.5541  157.0726 C   0  0  0  0  0  0  0  0  0  0  0  0
  150.0883  135.2193  154.9317 C   0  0  0  0  0  0  0  0  0  0  0  0
  148.5845  132.3223  154.9840 C   0  0  1  0  0  0  0  0  0  0  0  0
  147.9962  133.1883  153.9666 N   0  0  0  0  0  0  0  0  0  0  0  0
  146.7005  133.2136  153.6177 C   0  0  0  0  0  0  0  0  0  0  0  0
  145.8524  132.4766  154.1231 O   0  0  0  0  0  0  0  0  0  0  0  0
  146.3186  134.2469  152.5477 C   0  0  0  0  0  0  0  0  0  0  0  0
  145.6156  133.6611  151.3968 N   0  0  0  0  0  0  0  0  0  0  0  0
  146.2631  132.7479  150.5765 C   0  0  0  0  0  0  0  0  0  0  0  0
  145.6872  132.1832  149.4888 C   0  0  0  0  0  0  0  0  0  0  0  0
  144.3174  132.5220  149.1186 C   0  0  0  0  0  0  0  0  0  0  0  0
  143.7099  132.0650  148.1529 O   0  0  0  0  0  0  0  0  0  0  0  0
  143.7003  133.4448  149.9673 N   0  0  0  0  0  0  0  0  0  0  0  0
  144.2882  134.0316  151.0891 C   0  0  0  0  0  0  0  0  0  0  0  0
  143.6550  134.8400  151.7668 O   0  0  0  0  0  0  0  0  0  0  0  0
  149.5426  131.2968  154.3483 C   0  0  0  0  0  0  0  0  0  0  0  0
  142.7516  133.7124  149.7489 H   0  0  0  0  0  0  0  0  0  0  0  0
  151.9084  129.7480  154.4554 H   0  0  0  0  0  0  0  0  0  0  0  0
  150.5647  128.7468  153.9108 H   0  0  0  0  0  0  0  0  0  0  0  0
  151.2692  128.4829  155.5018 H   0  0  0  0  0  0  0  0  0  0  0  0
  149.1170  129.6859  155.6928 H   0  0  0  0  0  0  0  0  0  0  0  0
  150.7815  130.1756  157.4047 H   0  0  0  0  0  0  0  0  0  0  0  0
  151.5402  131.3871  156.4102 H   0  0  0  0  0  0  0  0  0  0  0  0
  148.7026  131.4890  157.5366 H   0  0  0  0  0  0  0  0  0  0  0  0
  150.0266  132.4197  158.1271 H   0  0  0  0  0  0  0  0  0  0  0  0
  148.5000  133.7078  156.6355 H   0  0  0  0  0  0  0  0  0  0  0  0
  151.2099  133.4419  155.2634 H   0  0  0  0  0  0  0  0  0  0  0  0
  150.4806  135.0507  157.7452 H   0  0  0  0  0  0  0  0  0  0  0  0
  151.9544  135.2762  156.8105 H   0  0  0  0  0  0  0  0  0  0  0  0
  151.6844  133.7638  157.6278 H   0  0  0  0  0  0  0  0  0  0  0  0
  149.2238  135.7518  155.3292 H   0  0  0  0  0  0  0  0  0  0  0  0
  149.8690  134.9205  153.9084 H   0  0  0  0  0  0  0  0  0  0  0  0
  150.9085  135.9340  154.8599 H   0  0  0  0  0  0  0  0  0  0  0  0
  147.7497  131.7475  155.3911 H   0  0  0  0  0  0  0  0  0  0  0  0
  148.6224  133.8291  153.5009 H   0  0  0  0  0  0  0  0  0  0  0  0
  145.6909  135.0079  153.0141 H   0  0  0  0  0  0  0  0  0  0  0  0
  147.2172  134.7759  152.2245 H   0  0  0  0  0  0  0  0  0  0  0  0
  147.2817  132.4719  150.8098 H   0  0  0  0  0  0  0  0  0  0  0  0
  146.2440  131.4788  148.8878 H   0  0  0  0  0  0  0  0  0  0  0  0
  150.4050  131.8018  153.9132 H   0  0  0  0  0  0  0  0  0  0  0  0
  149.0414  130.7894  153.5231 H   0  0  0  0  0  0  0  0  0  0  0  0
  1  2  1  0  0  0  0
  1 24  1  0  0  0  0
  1 25  1  0  0  0  0
  1 26  1  0  0  0  0
  2 22  1  0  0  0  0
  2  3  1  0  0  0  0
  2 27  1  0  0  0  0
  3  4  1  0  0  0  0
  3 28  1  0  0  0  0
  3 29  1  0  0  0  0
  4  5  1  0  0  0  0
  4 30  1  0  0  0  0
  4 31  1  0  0  0  0
  5  6  1  0  0  0  0
  5  9  1  0  0  0  0
  5 32  1  0  0  0  0
  6  7  1  0  0  0  0
  6  8  1  0  0  0  0
  6 33  1  0  0  0  0
  7 34  1  0  0  0  0
  7 35  1  0  0  0  0
  7 36  1  0  0  0  0
  8 37  1  0  0  0  0
  8 38  1  0  0  0  0
  8 39  1  0  0  0  0
  9 10  1  0  0  0  0
  9 22  1  0  0  0  0
  9 40  1  0  0  0  0
 10 11  1  0  0  0  0
 10 41  1  0  0  0  0
 11 12  2  0  0  0  0
 11 13  1  0  0  0  0
 13 14  1  0  0  0  0
 13 42  1  0  0  0  0
 13 43  1  0  0  0  0
 14 20  1  0  0  0  0
 14 15  1  0  0  0  0
 15 16  2  0  0  0  0
 15 44  1  0  0  0  0
 16 17  1  0  0  0  0
 16 45  1  0  0  0  0
 17 18  2  0  0  0  0
 17 19  1  0  0  0  0
 19 23  1  0  0  0  0
 19 20  1  0  0  0  0
 20 21  2  0  0  0  0
 22 46  1  0  0  0  0
 22 47  1  0  0  0  0
M  END
> <s_m_source_file>
AV-unprocessed.smi

> <i_m_source_file_index>
2855

> <i_lp_mmshare_version>
43012

> <i_f3d_flags>
0

> <s_epik_input>
W0NIM11bQ0BASF0xW0NIMl1bQ0gyXVtDQEBIXShbQ0hdKFtDSDNdKVtDSDNdKVtDQEhdKFtDSDJdMSlbTkhdQyg9TylbQ0gyXW4yW2NIXVtjSF1jKD1PKVtuSF1jMj1P

> <s_epik_cmdline>
J2VwaWtfcHl0aG9uJywgJy1waCcsICc3LjAnLCAnLXRuJywgJzgnLCAnLW1hJywgJzIwMCcsICctbWV0YWxfYmluZGluZycsICctaW1hZScsICc8aW5maWxlLm1hZT4nLCAnLW9tYWUnLCAnPG91dGZpbGUubWFlPic=

> <r_lp_tautomer_probability>
0.999537

> <r_epik_Ionization_Penalty>
0.00306256

> <r_epik_Ionization_Penalty_Charging>
0.00306254

> <r_epik_Ionization_Penalty_Neutral>
2.0223e-08

> <r_epik_State_Penalty>
0.0021533

> <r_epik_Charging_Adjusted_Penalty>
0.00521583

> <i_epik_Tot_Q>
0

> <i_epik_Tot_abs_Q>
0

> <r_epik_Metal_State_Penalty>
0.362116

> <b_epik_Metal_Only>
0

> <s_lp_Force_Field>
OPLS_2005

> <r_lp_Energy>
18.9466

> <b_lp_Chiralities_Consistent>
1

> <s_lp_Variant>
AV-unprocessed.smi:2855-2

> <Gold.Version>
5.8.1

> <Gold.Id.Protein>
6NUR|6NUR_protein|mol2

> <Gold.PLP.Fitness>
42.9085

> <Gold.PLP.PLP>
-35.0599

> <Gold.PLP.part.hbond>
-2.0000

> <Gold.PLP.part.metal>
0.0000

> <Gold.PLP.part.buried>
-4.9258

> <Gold.PLP.part.nonpolar>
-28.5295

> <Gold.PLP.part.repulsive>
0.6381

> <Gold.PLP.ligand.clash>
0.0000

> <Gold.PLP.ligand.torsion>
0.1371

> <Gold.PLP.Chemscore.Hbond>
1.6880

> <Gold.PLP.Chemscore.CHOScore>
1.0000

> <Gold.PLP.Chemscore.Metal>
0.0000

> <Gold.Chemscore.Hbonds>
donor molecule, donor type, donor heavy atom, donor atom, acceptor molecule, acceptor atom, score
      L1  H    19    23       P1 10186  1.00
      P1  H 10785 10796       L1    18  0.46
      L1  C    15    44       P1 10747  1.00

> <Gold.PLP.Chemscore.Internal.Correction>
0.0588

> <Gold.Rescore>
     Score         DG    S(hbond)    S(metal)    S(lipo)     H(rot)  DE(clash)    DE(int)     intcor
     14.08     -14.40       1.49        0.00      74.13       1.85       0.10       0.22       ----

> <Gold.Chemscore.Fitness>
14.0792

> <Gold.Chemscore.DG>
-14.3995

> <Gold.Chemscore.ZeroCoef>
-5.4800

> <Gold.Chemscore.Hbond>
1.4947

> <Gold.Chemscore.Metal>
0.0000

> <Gold.Chemscore.Lipo>
74.1309

> <Gold.Chemscore.Internal_Hbond>
0.0000

> <Gold.Chemscore.DEClash>
0.0977

> <Gold.Chemscore.DEInternal>
0.2226

> <Gold.Chemscore.Rot>
1.8539

> <Gold.Chemscore.Internal.Correction>
   9.000000E+99

> <Gold.Chemscore.Hbonds>
donor molecule, donor type, donor heavy atom, donor atom, acceptor molecule, acceptor atom, score
      L1  H    19    23       P1 10186  1.00
      P1  H 10785 10796       L1    18  0.22

> <Gold.Chemscore.Hbond.Weighted>
-4.9922

> <Gold.Chemscore.Metal.Weighted>
-0.0000

> <Gold.Chemscore.Lipo.Weighted>
-8.6733

> <Gold.Chemscore.Internal_Hbond.Weighted>
0.0000

> <Gold.Chemscore.DEClash.Weighted>
0.0977

> <Gold.Chemscore.DEInternal.Weighted>
0.2226

> <Gold.Chemscore.Rot.Weighted>
4.7460

> <Gold.Chemscore.Internal.Correction.Weighted>
   9.000000E+99

> <Gold.Protein.RotatedTorsions>
[ 6907 6896 6895 6894 ] final   23.99 input  -60.11 | X-H torsion
[ 7974 7965 7964 7962 ] final  -19.99 input  175.53 | X-H torsion
[ 8008 7997 7996 7995 ] final   -9.40 input   59.86 | X-H torsion
[ 10167 10162 10161 10158 ] final   83.24 input  -65.29 | X-H torsion
[ 10718 10713 10712 10709 ] final  122.07 input   66.30 | X-H torsion
[ 10763 10752 10751 10750 ] final -134.12 input  -60.55 | X-H torsion
[ 11005 11000 10999 10996 ] final   -2.29 input  -57.11 | X-H torsion

> <Gold.Protein.ActiveResidues>
 VAL166  LYS551  ARG553  GLY616  TRP617  ASP618  TYR619  PRO620  LYS621  CYS622 
 ASP623  PHE694  ASN695  SER759  ASP760  ASP761  ALA762  ILE779  LEU786  VAL792 
 PHE793  MET794  SER795  GLU796  ALA797  LYS798  CYS799  TRP800  GLU811  SER814 

> <Gold.Protein.RotatedAtoms>
  151.9507  135.0170  160.0541 H   0  0  0  0  0  0  0  0  0  0  0  0  # atno 6907 bound_to 6896
  152.1956  133.4799  159.5039 H   0  0  0  0  0  0  0  0  0  0  0  0  # atno 6908 bound_to 6896
  150.6944  134.1574  159.4206 H   0  0  0  0  0  0  0  0  0  0  0  0  # atno 6909 bound_to 6896
  146.1812  140.4139  142.8494 H   0  0  0  0  0  0  0  0  0  0  0  0  # atno 7974 bound_to 7965
  154.5651  140.2356  155.8277 H   0  0  0  0  0  0  0  0  0  0  0  0  # atno 8008 bound_to 7997
  156.2061  140.3039  155.9589 H   0  0  0  0  0  0  0  0  0  0  0  0  # atno 8009 bound_to 7997
  155.2817  140.0423  157.3006 H   0  0  0  0  0  0  0  0  0  0  0  0  # atno 8010 bound_to 7997
  139.9204  144.6216  150.8446 H   0  0  0  0  0  0  0  0  0  0  0  0  # atno 10167 bound_to 10162
  157.5770  131.1078  150.8260 H   0  0  0  0  0  0  0  0  0  0  0  0  # atno 10718 bound_to 10713
  154.8724  135.3744  154.4683 H   0  0  0  0  0  0  0  0  0  0  0  0  # atno 10763 bound_to 10752
  153.5346  135.7027  153.5671 H   0  0  0  0  0  0  0  0  0  0  0  0  # atno 10764 bound_to 10752
  153.3860  135.3984  155.1855 H   0  0  0  0  0  0  0  0  0  0  0  0  # atno 10765 bound_to 10752
  140.6567  133.9356  155.8412 H   0  0  0  0  0  0  0  0  0  0  0  0  # atno 11005 bound_to 11000
  144.8319  140.6720  143.6285 LP  0  0  0  0  0  0  0  0  0  0  0  0  # atno 17320 bound_to 7965
  145.4070  139.1587  143.4146 LP  0  0  0  0  0  0  0  0  0  0  0  0  # atno 17321 bound_to 7965
  140.7663  143.3301  151.2429 LP  0  0  0  0  0  0  0  0  0  0  0  0  # atno 17342 bound_to 10162
  139.6866  143.9762  152.2837 LP  0  0  0  0  0  0  0  0  0  0  0  0  # atno 17343 bound_to 10162
  156.8716  130.5148  149.5296 LP  0  0  0  0  0  0  0  0  0  0  0  0  # atno 17370 bound_to 10713
  156.0815  130.5824  150.9571 LP  0  0  0  0  0  0  0  0  0  0  0  0  # atno 17371 bound_to 10713
  141.0496  134.0504  157.3801 LP  0  0  0  0  0  0  0  0  0  0  0  0  # atno 17394 bound_to 11000
  139.9027  135.0170  156.7343 LP  0  0  0  0  0  0  0  0  0  0  0  0  # atno 17395 bound_to 11000

$$$$
