AV-unprocessed.smi:921|AV-procd|sdf|4172|dock2
  -GOLD-   22720 2 83D 1   1.00000     0.00000
 Structure written by MMmdl.
 40 42  0  0  0  0  0  0  0  0  2 V2000
  151.5647  137.8952  156.9734 N   0  0  0  0  0  0  0  0  0  0  0  0
  151.6173  137.1128  155.8920 C   0  0  0  0  0  0  0  0  0  0  0  0
  151.6005  135.8861  155.9702 O   0  0  0  0  0  0  0  0  0  0  0  0
  151.6984  137.8049  154.5294 C   0  0  0  0  0  0  0  0  0  0  0  0
  150.5481  138.7453  154.3434 C   0  0  0  0  0  0  0  0  0  0  0  0
  149.4679  138.5325  153.5377 N   0  3  0  0  0  0  0  0  0  0  0  0
  148.5959  139.6189  153.6176 C   0  0  0  0  0  0  0  0  0  0  0  0
  147.3793  139.8602  152.9865 C   0  0  0  0  0  0  0  0  0  0  0  0
  146.7380  141.0784  153.2933 C   0  0  0  0  0  0  0  0  0  0  0  0
  147.3068  142.0010  154.1955 C   0  0  0  0  0  0  0  0  0  0  0  0
  148.5416  141.7459  154.8280 C   0  0  0  0  0  0  0  0  0  0  0  0
  149.1688  140.5396  154.5179 C   0  0  0  0  0  0  0  0  0  0  0  0
  150.3705  139.9610  154.9395 N   0  0  0  0  0  0  0  0  0  0  0  0
  151.2168  140.6938  155.8941 C   0  0  0  0  0  0  0  0  0  0  0  0
  150.4338  141.2138  157.1155 C   0  0  1  0  0  0  0  0  0  0  0  0
  149.7510  140.1403  157.7355 O   0  0  0  0  0  0  0  0  0  0  0  0
  151.3492  141.9634  158.0741 C   0  0  0  0  0  0  0  0  0  0  0  0
  151.2035  143.3557  158.2696 C   0  0  0  0  0  0  0  0  0  0  0  0
  152.0470  144.0410  159.1654 C   0  0  0  0  0  0  0  0  0  0  0  0
  151.9032  145.3754  159.3447 F   0  0  0  0  0  0  0  0  0  0  0  0
  153.0387  143.3391  159.8762 C   0  0  0  0  0  0  0  0  0  0  0  0
  153.1841  141.9510  159.6932 C   0  0  0  0  0  0  0  0  0  0  0  0
  152.3420  141.2637  158.7973 C   0  0  0  0  0  0  0  0  0  0  0  0
  152.4896  139.9260  158.6400 F   0  0  0  0  0  0  0  0  0  0  0  0
  151.5195  137.4754  157.8910 H   0  0  0  0  0  0  0  0  0  0  0  0
  151.5789  138.9000  156.8758 H   0  0  0  0  0  0  0  0  0  0  0  0
  152.6345  138.3567  154.4321 H   0  0  0  0  0  0  0  0  0  0  0  0
  151.6936  137.0517  153.7415 H   0  0  0  0  0  0  0  0  0  0  0  0
  146.9414  139.1549  152.2955 H   0  0  0  0  0  0  0  0  0  0  0  0
  145.7909  141.3093  152.8278 H   0  0  0  0  0  0  0  0  0  0  0  0
  146.7859  142.9236  154.4068 H   0  0  0  0  0  0  0  0  0  0  0  0
  148.9688  142.4584  155.5182 H   0  0  0  0  0  0  0  0  0  0  0  0
  152.0207  140.0293  156.2121 H   0  0  0  0  0  0  0  0  0  0  0  0
  151.6971  141.5158  155.3617 H   0  0  0  0  0  0  0  0  0  0  0  0
  149.6607  141.9032  156.7754 H   0  0  0  0  0  0  0  0  0  0  0  0
  150.2917  139.3673  157.6755 H   0  0  0  0  0  0  0  0  0  0  0  0
  150.4418  143.9055  157.7362 H   0  0  0  0  0  0  0  0  0  0  0  0
  153.6850  143.8640  160.5640 H   0  0  0  0  0  0  0  0  0  0  0  0
  153.9415  141.4117  160.2429 H   0  0  0  0  0  0  0  0  0  0  0  0
  149.3397  137.7029  152.9729 H   0  0  0  0  0  0  0  0  0  0  0  0
  1  2  1  0  0  0  0
  1 25  1  0  0  0  0
  1 26  1  0  0  0  0
  2  3  2  0  0  0  0
  2  4  1  0  0  0  0
  4  5  1  0  0  0  0
  4 27  1  0  0  0  0
  4 28  1  0  0  0  0
  5 13  1  0  0  0  0
  5  6  2  0  0  0  0
  6  7  1  0  0  0  0
  6 40  1  0  0  0  0
  7 12  2  0  0  0  0
  7  8  1  0  0  0  0
  8  9  2  0  0  0  0
  8 29  1  0  0  0  0
  9 10  1  0  0  0  0
  9 30  1  0  0  0  0
 10 11  2  0  0  0  0
 10 31  1  0  0  0  0
 11 12  1  0  0  0  0
 11 32  1  0  0  0  0
 12 13  1  0  0  0  0
 13 14  1  0  0  0  0
 14 15  1  0  0  0  0
 14 33  1  0  0  0  0
 14 34  1  0  0  0  0
 15 16  1  0  0  0  0
 15 17  1  0  0  0  0
 15 35  1  0  0  0  0
 16 36  1  0  0  0  0
 17 23  1  0  0  0  0
 17 18  2  0  0  0  0
 18 19  1  0  0  0  0
 18 37  1  0  0  0  0
 19 20  1  0  0  0  0
 19 21  2  0  0  0  0
 21 22  1  0  0  0  0
 21 38  1  0  0  0  0
 22 23  2  0  0  0  0
 22 39  1  0  0  0  0
 23 24  1  0  0  0  0
M  CHG  1   6   1
M  END
> <s_m_source_file>
AV-unprocessed.smi

> <i_m_source_file_index>
921

> <i_lp_mmshare_version>
43012

> <i_f3d_flags>
0

> <s_epik_input>
W2NIXTFbY0hdW2NIXVtjSF1jKGMxMiluKGMobjIpW0NIMl1DKD1PKVtOSDJdKVtDSDJdW0NASF0oW09IXSljM1tjSF1jKEYpW2NIXVtjSF1jM0Y=

> <s_epik_cmdline>
J2VwaWtfcHl0aG9uJywgJy1waCcsICc3LjAnLCAnLXRuJywgJzgnLCAnLW1hJywgJzIwMCcsICctbWV0YWxfYmluZGluZycsICctaW1hZScsICc8aW5maWxlLm1hZT4nLCAnLW9tYWUnLCAnPG91dGZpbGUubWFlPic=

> <r_epik_Ionization_Penalty>
1.66646

> <r_epik_Ionization_Penalty_Charging>
1.66645

> <r_epik_Ionization_Penalty_Neutral>
3.86504e-06

> <r_epik_State_Penalty>
1.76975

> <r_epik_Charging_Adjusted_Penalty>
3.43621

> <i_epik_Tot_Q>
1

> <i_epik_Tot_abs_Q>
1

> <r_epik_Metal_State_Penalty>
1.80493

> <b_epik_Metal_Only>
0

> <s_lp_Force_Field>
OPLS_2005

> <r_lp_Energy>
15.327

> <b_lp_Chiralities_Consistent>
1

> <s_lp_Variant>
AV-unprocessed.smi:921-4

> <Gold.Version>
5.8.1

> <Gold.Id.Protein>
6NUR|6NUR_protein|mol2

> <Gold.PLP.Fitness>
62.3164

> <Gold.PLP.PLP>
-54.0065

> <Gold.PLP.part.hbond>
-3.0000

> <Gold.PLP.part.metal>
0.0000

> <Gold.PLP.part.buried>
1.6560

> <Gold.PLP.part.nonpolar>
-53.3231

> <Gold.PLP.part.repulsive>
0.1643

> <Gold.PLP.ligand.clash>
0.0000

> <Gold.PLP.ligand.torsion>
0.3752

> <Gold.PLP.Chemscore.Hbond>
3.0000

> <Gold.PLP.Chemscore.CHOScore>
0.0000

> <Gold.PLP.Chemscore.Metal>
0.0000

> <Gold.Chemscore.Hbonds>
donor molecule, donor type, donor heavy atom, donor atom, acceptor molecule, acceptor atom, score
      L1  H     6    40       P1  7948  2.00
      P1  H 10752 10763       L1     3  1.00

> <Gold.PLP.Chemscore.Internal.Correction>
0.0604

> <Gold.Rescore>
     Score         DG    S(hbond)    S(metal)    S(lipo)     H(rot)  DE(clash)    DE(int)     intcor
     14.05     -17.60       1.72        0.00     123.79       3.17       0.75       2.81       ----

> <Gold.Chemscore.Fitness>
14.0481

> <Gold.Chemscore.DG>
-17.6039

> <Gold.Chemscore.ZeroCoef>
-5.4800

> <Gold.Chemscore.Hbond>
1.7246

> <Gold.Chemscore.Metal>
0.0000

> <Gold.Chemscore.Lipo>
123.7887

> <Gold.Chemscore.Internal_Hbond>
0.0000

> <Gold.Chemscore.DEClash>
0.7481

> <Gold.Chemscore.DEInternal>
2.8077

> <Gold.Chemscore.Rot>
3.1717

> <Gold.Chemscore.Internal.Correction>
   9.000000E+99

> <Gold.Chemscore.Hbonds>
donor molecule, donor type, donor heavy atom, donor atom, acceptor molecule, acceptor atom, score
      L1  H     6    40       P1  7948  0.94
      P1  H 10752 10763       L1     3  0.30

> <Gold.Chemscore.Hbond.Weighted>
-5.7602

> <Gold.Chemscore.Metal.Weighted>
-0.0000

> <Gold.Chemscore.Lipo.Weighted>
-14.4833

> <Gold.Chemscore.Internal_Hbond.Weighted>
0.0000

> <Gold.Chemscore.DEClash.Weighted>
0.7481

> <Gold.Chemscore.DEInternal.Weighted>
2.8077

> <Gold.Chemscore.Rot.Weighted>
8.1196

> <Gold.Chemscore.Internal.Correction.Weighted>
   9.000000E+99

> <Gold.Protein.RotatedTorsions>
[ 6907 6896 6895 6894 ] final  153.90 input  -60.11 | X-H torsion
[ 7974 7965 7964 7962 ] final -163.19 input  175.53 | X-H torsion
[ 8008 7997 7996 7995 ] final  161.84 input   59.86 | X-H torsion
[ 10167 10162 10161 10158 ] final  109.25 input  -65.29 | X-H torsion
[ 10718 10713 10712 10709 ] final  -54.37 input   66.30 | X-H torsion
[ 10763 10752 10751 10750 ] final   88.05 input  -60.55 | X-H torsion
[ 11005 11000 10999 10996 ] final  120.71 input  -57.11 | X-H torsion

> <Gold.Protein.ActiveResidues>
 VAL166  LYS551  ARG553  GLY616  TRP617  ASP618  TYR619  PRO620  LYS621  CYS622 
 ASP623  PHE694  ASN695  SER759  ASP760  ASP761  ALA762  ILE779  LEU786  VAL792 
 PHE793  MET794  SER795  GLU796  ALA797  LYS798  CYS799  TRP800  GLU811  SER814 

> <Gold.Protein.RotatedAtoms>
  152.0661  133.4084  159.4438 H   0  0  0  0  0  0  0  0  0  0  0  0  # atno 6907 bound_to 6896
  150.6864  134.3145  159.4769 H   0  0  0  0  0  0  0  0  0  0  0  0  # atno 6908 bound_to 6896
  152.0971  134.9367  160.0621 H   0  0  0  0  0  0  0  0  0  0  0  0  # atno 6909 bound_to 6896
  144.7334  140.3144  143.6182 H   0  0  0  0  0  0  0  0  0  0  0  0  # atno 7974 bound_to 7965
  156.2075  140.1766  156.7768 H   0  0  0  0  0  0  0  0  0  0  0  0  # atno 8008 bound_to 7997
  154.5675  140.0688  156.8944 H   0  0  0  0  0  0  0  0  0  0  0  0  # atno 8009 bound_to 7997
  155.2734  140.3344  155.4266 H   0  0  0  0  0  0  0  0  0  0  0  0  # atno 8010 bound_to 7997
  139.6782  144.7120  151.1564 H   0  0  0  0  0  0  0  0  0  0  0  0  # atno 10167 bound_to 10162
  156.1456  130.4153  150.0029 H   0  0  0  0  0  0  0  0  0  0  0  0  # atno 10718 bound_to 10713
  153.1730  135.4521  154.9927 H   0  0  0  0  0  0  0  0  0  0  0  0  # atno 10763 bound_to 10752
  154.7979  135.3244  154.7625 H   0  0  0  0  0  0  0  0  0  0  0  0  # atno 10764 bound_to 10752
  153.8099  135.6955  153.4897 H   0  0  0  0  0  0  0  0  0  0  0  0  # atno 10765 bound_to 10752
  139.9196  134.9636  156.7849 H   0  0  0  0  0  0  0  0  0  0  0  0  # atno 11005 bound_to 11000
  145.7632  139.1832  143.2255 LP  0  0  0  0  0  0  0  0  0  0  0  0  # atno 17320 bound_to 7965
  146.0969  140.7589  142.9568 LP  0  0  0  0  0  0  0  0  0  0  0  0  # atno 17321 bound_to 7965
  140.7643  143.5740  150.8965 LP  0  0  0  0  0  0  0  0  0  0  0  0  # atno 17342 bound_to 10162
  139.9410  143.6382  152.3053 LP  0  0  0  0  0  0  0  0  0  0  0  0  # atno 17343 bound_to 10162
  156.7902  130.9253  151.3646 LP  0  0  0  0  0  0  0  0  0  0  0  0  # atno 17370 bound_to 10713
  157.6614  130.8969  149.9837 LP  0  0  0  0  0  0  0  0  0  0  0  0  # atno 17371 bound_to 10713
  140.6514  133.9728  155.7757 LP  0  0  0  0  0  0  0  0  0  0  0  0  # atno 17394 bound_to 11000
  141.0705  134.0212  157.3533 LP  0  0  0  0  0  0  0  0  0  0  0  0  # atno 17395 bound_to 11000

$$$$
