AV-unprocessed.smi:36|AV-procd|sdf|298|dock3
  -GOLD-   2262016 93D 1   1.00000     0.00000
 Structure written by MMmdl.
 63 66  0  0  0  0  0  0  0  0  2 V2000
  149.0202  134.5025  161.7905 C   0  0  0  0  0  0  0  0  0  0  0  0
  150.4606  134.0098  161.5737 C   0  0  0  0  0  0  0  0  0  0  0  0
  151.1572  134.8806  160.5150 C   0  0  0  0  0  0  0  0  0  0  0  0
  151.2430  134.0787  162.8961 C   0  0  0  0  0  0  0  0  0  0  0  0
  150.4290  132.1986  160.9670 Si  0  0  0  0  0  0  0  0  0  0  0  0
  152.1919  131.5087  160.7928 C   0  0  0  0  0  0  0  0  0  0  0  0
  149.4170  131.0961  162.1372 C   0  0  0  0  0  0  0  0  0  0  0  0
  149.6861  132.1772  159.4478 O   0  0  0  0  0  0  0  0  0  0  0  0
  148.3575  132.5959  159.2157 C   0  0  0  0  0  0  0  0  0  0  0  0
  148.3872  134.0144  158.6298 C   0  0  1  0  0  0  0  0  0  0  0  0
  149.6325  134.2830  157.9867 O   0  0  0  0  0  0  0  0  0  0  0  0
  149.4415  135.1246  156.8888 C   0  0  2  0  0  0  0  0  0  0  0  0
  150.2875  136.3448  157.0604 N   0  0  0  0  0  0  0  0  0  0  0  0
  151.1721  136.5938  158.0463 C   0  0  0  0  0  0  0  0  0  0  0  0
  151.8312  137.7498  158.0037 N   0  0  0  0  0  0  0  0  0  0  0  0
  151.3092  138.3277  156.8557 C   0  0  0  0  0  0  0  0  0  0  0  0
  151.5713  139.5635  156.2020 C   0  0  0  0  0  0  0  0  0  0  0  0
  152.4692  140.4510  156.6572 N   0  5  0  0  0  0  0  0  0  0  0  0
  152.8017  140.4597  157.9731 C   0  0  0  0  0  0  0  0  0  0  0  0
  153.4834  139.6356  158.5866 O   0  0  0  0  0  0  0  0  0  0  0  0
  152.3063  141.6783  158.7052 C   0  0  0  0  0  0  0  0  0  0  0  0
  151.2297  142.4247  158.1734 C   0  0  0  0  0  0  0  0  0  0  0  0
  150.7674  143.5825  158.8289 C   0  0  0  0  0  0  0  0  0  0  0  0
  151.3838  144.0126  160.0189 C   0  0  0  0  0  0  0  0  0  0  0  0
  152.4651  143.2857  160.5510 C   0  0  0  0  0  0  0  0  0  0  0  0
  152.9276  142.1271  159.8964 C   0  0  0  0  0  0  0  0  0  0  0  0
  150.8545  139.8292  155.0801 N   0  0  0  0  0  0  0  0  0  0  0  0
  149.9628  138.9432  154.6214 C   0  0  0  0  0  0  0  0  0  0  0  0
  149.6329  137.7484  155.1206 N   0  0  0  0  0  0  0  0  0  0  0  0
  150.3373  137.4736  156.2570 C   0  0  0  0  0  0  0  0  0  0  0  0
  147.9550  135.4879  156.8309 C   0  0  0  0  0  0  0  0  0  0  0  0
  147.3231  134.3257  157.5693 C   0  0  1  0  0  0  0  0  0  0  0  0
  147.1007  133.2327  156.6974 O   0  0  0  0  0  0  0  0  0  0  0  0
  149.0038  135.5344  162.1428 H   0  0  0  0  0  0  0  0  0  0  0  0
  148.4991  133.8948  162.5308 H   0  0  0  0  0  0  0  0  0  0  0  0
  148.4434  134.4624  160.8661 H   0  0  0  0  0  0  0  0  0  0  0  0
  150.6223  134.8571  159.5652 H   0  0  0  0  0  0  0  0  0  0  0  0
  152.1752  134.5367  160.3281 H   0  0  0  0  0  0  0  0  0  0  0  0
  151.2147  135.9220  160.8334 H   0  0  0  0  0  0  0  0  0  0  0  0
  151.3046  135.1017  163.2686 H   0  0  0  0  0  0  0  0  0  0  0  0
  152.2625  133.7112  162.7727 H   0  0  0  0  0  0  0  0  0  0  0  0
  150.7691  133.4760  163.6709 H   0  0  0  0  0  0  0  0  0  0  0  0
  152.7270  131.5346  161.7417 H   0  0  0  0  0  0  0  0  0  0  0  0
  152.7763  132.0812  160.0727 H   0  0  0  0  0  0  0  0  0  0  0  0
  152.1872  130.4728  160.4547 H   0  0  0  0  0  0  0  0  0  0  0  0
  149.8396  131.0827  163.1416 H   0  0  0  0  0  0  0  0  0  0  0  0
  149.3849  130.0651  161.7855 H   0  0  0  0  0  0  0  0  0  0  0  0
  148.3872  131.4412  162.2216 H   0  0  0  0  0  0  0  0  0  0  0  0
  147.8425  131.9050  158.5478 H   0  0  0  0  0  0  0  0  0  0  0  0
  147.8265  132.5895  160.1678 H   0  0  0  0  0  0  0  0  0  0  0  0
  148.2709  134.7350  159.4403 H   0  0  0  0  0  0  0  0  0  0  0  0
  149.8050  134.6416  155.9809 H   0  0  0  0  0  0  0  0  0  0  0  0
  151.3483  135.8823  158.8392 H   0  0  0  0  0  0  0  0  0  0  0  0
  150.7469  142.1092  157.2598 H   0  0  0  0  0  0  0  0  0  0  0  0
  149.9402  144.1414  158.4167 H   0  0  0  0  0  0  0  0  0  0  0  0
  151.0300  144.9010  160.5205 H   0  0  0  0  0  0  0  0  0  0  0  0
  152.9434  143.6182  161.4604 H   0  0  0  0  0  0  0  0  0  0  0  0
  153.7657  141.5893  160.3162 H   0  0  0  0  0  0  0  0  0  0  0  0
  149.4396  139.2327  153.7222 H   0  0  0  0  0  0  0  0  0  0  0  0
  147.7746  136.4160  157.3750 H   0  0  0  0  0  0  0  0  0  0  0  0
  147.6126  135.6117  155.8029 H   0  0  0  0  0  0  0  0  0  0  0  0
  146.3711  134.6036  158.0224 H   0  0  0  0  0  0  0  0  0  0  0  0
  147.5836  133.3844  155.8993 H   0  0  0  0  0  0  0  0  0  0  0  0
  1  2  1  0  0  0  0
  1 34  1  0  0  0  0
  1 35  1  0  0  0  0
  1 36  1  0  0  0  0
  2  3  1  0  0  0  0
  2  4  1  0  0  0  0
  2  5  1  0  0  0  0
  3 37  1  0  0  0  0
  3 38  1  0  0  0  0
  3 39  1  0  0  0  0
  4 40  1  0  0  0  0
  4 41  1  0  0  0  0
  4 42  1  0  0  0  0
  5  6  1  0  0  0  0
  5  7  1  0  0  0  0
  5  8  1  0  0  0  0
  6 43  1  0  0  0  0
  6 44  1  0  0  0  0
  6 45  1  0  0  0  0
  7 46  1  0  0  0  0
  7 47  1  0  0  0  0
  7 48  1  0  0  0  0
  8  9  1  0  0  0  0
  9 10  1  0  0  0  0
  9 49  1  0  0  0  0
  9 50  1  0  0  0  0
 10 32  1  0  0  0  0
 10 11  1  0  0  0  0
 10 51  1  0  0  0  0
 11 12  1  0  0  0  0
 12 13  1  0  0  0  0
 12 31  1  0  0  0  0
 12 52  1  0  0  0  0
 13 30  1  0  0  0  0
 13 14  1  0  0  0  0
 14 15  2  0  0  0  0
 14 53  1  0  0  0  0
 15 16  1  0  0  0  0
 16 30  2  0  0  0  0
 16 17  1  0  0  0  0
 17 18  1  0  0  0  0
 17 27  2  0  0  0  0
 18 19  1  0  0  0  0
 19 20  2  0  0  0  0
 19 21  1  0  0  0  0
 21 26  1  0  0  0  0
 21 22  2  0  0  0  0
 22 23  1  0  0  0  0
 22 54  1  0  0  0  0
 23 24  2  0  0  0  0
 23 55  1  0  0  0  0
 24 25  1  0  0  0  0
 24 56  1  0  0  0  0
 25 26  2  0  0  0  0
 25 57  1  0  0  0  0
 26 58  1  0  0  0  0
 27 28  1  0  0  0  0
 28 29  2  0  0  0  0
 28 59  1  0  0  0  0
 29 30  1  0  0  0  0
 31 32  1  0  0  0  0
 31 60  1  0  0  0  0
 31 61  1  0  0  0  0
 32 33  1  0  0  0  0
 32 62  1  0  0  0  0
 33 63  1  0  0  0  0
M  CHG  1  18  -1
M  END
> <s_m_source_file>
AV-unprocessed.smi

> <i_m_source_file_index>
36

> <i_lp_mmshare_version>
43012

> <i_f3d_flags>
0

> <s_epik_input>
W0NIM11DKFtDSDNdKShbQ0gzXSlbU2ldKFtDSDNdKShbQ0gzXSlPW0NIMl1bQ0BASF0xT1tDQEhdKFtDSDJdW0NASF0xW09IXSluKFtjSF1uMiljKGMyMyluW2NIXW5jM1tOSF1DKD1PKWM0W2NIXVtjSF1bY0hdW2NIXVtjSF00

> <s_epik_cmdline>
J2VwaWtfcHl0aG9uJywgJy1waCcsICc3LjAnLCAnLXRuJywgJzgnLCAnLW1hJywgJzIwMCcsICctbWV0YWxfYmluZGluZycsICctaW1hZScsICc8aW5maWxlLm1hZT4nLCAnLW9tYWUnLCAnPG91dGZpbGUubWFlPic=

> <r_lp_tautomer_probability>
1

> <r_epik_Ionization_Penalty>
4.75685

> <r_epik_Ionization_Penalty_Charging>
3.55822

> <r_epik_Ionization_Penalty_Neutral>
1.19863

> <r_epik_State_Penalty>
3.564

> <r_epik_Charging_Adjusted_Penalty>
7.12222

> <i_epik_Tot_Q>
-1

> <i_epik_Tot_abs_Q>
1

> <r_epik_Metal_State_Penalty>
0.523258

> <b_epik_Metal_Only>
1

> <s_epik_Chemistry_Notes>
This compound contains an acetal/aminal-like group ( X-CH(R)-Y where X, Y are N, S, or O) that may be acid/base labile, releasing an aldehyde.

> <s_lp_Force_Field>
OPLS_2005

> <r_lp_Energy>
38.0647

> <b_lp_Chiralities_Consistent>
1

> <s_lp_Variant>
AV-unprocessed.smi:36-20

> <Gold.Version>
5.8.1

> <Gold.Id.Protein>
6NUR|6NUR_protein|mol2

> <Gold.PLP.Fitness>
57.4204

> <Gold.PLP.PLP>
-48.9896

> <Gold.PLP.part.hbond>
-2.0000

> <Gold.PLP.part.metal>
0.0000

> <Gold.PLP.part.buried>
-6.2071

> <Gold.PLP.part.nonpolar>
-40.9365

> <Gold.PLP.part.repulsive>
0.1755

> <Gold.PLP.ligand.clash>
0.0000

> <Gold.PLP.ligand.torsion>
1.8635

> <Gold.PLP.Chemscore.Hbond>
3.0000

> <Gold.PLP.Chemscore.CHOScore>
1.0000

> <Gold.PLP.Chemscore.Metal>
0.0000

> <Gold.Chemscore.Hbonds>
donor molecule, donor type, donor heavy atom, donor atom, acceptor molecule, acceptor atom, score
      P1  H  6896  6908       L1    11  0.21
      P1  H  7989  7998       L1    27  0.96
      P1  H  7997  8009       L1    18  0.38
      L1  C    28    59       P1  7957  0.61

> <Gold.PLP.Chemscore.Internal.Correction>
0.1578

> <Gold.Rescore>
     Score         DG    S(hbond)    S(metal)    S(lipo)     H(rot)  DE(clash)    DE(int)     intcor
     10.17     -15.33       0.89        0.00     117.27       2.67       0.09       5.07       ----

> <Gold.Chemscore.Fitness>
10.1701

> <Gold.Chemscore.DG>
-15.3315

> <Gold.Chemscore.ZeroCoef>
-5.4800

> <Gold.Chemscore.Hbond>
0.8881

> <Gold.Chemscore.Metal>
0.0000

> <Gold.Chemscore.Lipo>
117.2736

> <Gold.Chemscore.Internal_Hbond>
0.0000

> <Gold.Chemscore.DEClash>
0.0904

> <Gold.Chemscore.DEInternal>
5.0710

> <Gold.Chemscore.Rot>
2.6702

> <Gold.Chemscore.Internal.Correction>
   9.000000E+99

> <Gold.Chemscore.Hbonds>
donor molecule, donor type, donor heavy atom, donor atom, acceptor molecule, acceptor atom, score
      P1  H  6896  6908       L1    11  0.13
      P1  H  7989  7998       L1    27  0.63

> <Gold.Chemscore.Hbond.Weighted>
-2.9663

> <Gold.Chemscore.Metal.Weighted>
-0.0000

> <Gold.Chemscore.Lipo.Weighted>
-13.7210

> <Gold.Chemscore.Internal_Hbond.Weighted>
0.0000

> <Gold.Chemscore.DEClash.Weighted>
0.0904

> <Gold.Chemscore.DEInternal.Weighted>
5.0710

> <Gold.Chemscore.Rot.Weighted>
6.8358

> <Gold.Chemscore.Internal.Correction.Weighted>
   9.000000E+99

> <Gold.Protein.RotatedTorsions>
[ 6907 6896 6895 6894 ] final   88.45 input  -60.11 | X-H torsion
[ 7974 7965 7964 7962 ] final -141.43 input  175.53 | X-H torsion
[ 8008 7997 7996 7995 ] final -165.16 input   59.86 | X-H torsion
[ 10167 10162 10161 10158 ] final   13.42 input  -65.29 | X-H torsion
[ 10718 10713 10712 10709 ] final  -46.30 input   66.30 | X-H torsion
[ 10763 10752 10751 10750 ] final  159.49 input  -60.55 | X-H torsion
[ 11005 11000 10999 10996 ] final  -21.31 input  -57.11 | X-H torsion

> <Gold.Protein.ActiveResidues>
 VAL166  LYS551  ARG553  GLY616  TRP617  ASP618  TYR619  PRO620  LYS621  CYS622 
 ASP623  PHE694  ASN695  SER759  ASP760  ASP761  ALA762  ILE779  LEU786  VAL792 
 PHE793  MET794  SER795  GLU796  ALA797  LYS798  CYS799  TRP800  GLU811  SER814 

> <Gold.Protein.RotatedAtoms>
  152.5425  134.2119  159.8753 H   0  0  0  0  0  0  0  0  0  0  0  0  # atno 6907 bound_to 6896
  151.2101  133.4554  159.2605 H   0  0  0  0  0  0  0  0  0  0  0  0  # atno 6908 bound_to 6896
  151.0905  134.9926  159.8456 H   0  0  0  0  0  0  0  0  0  0  0  0  # atno 6909 bound_to 6896
  144.8520  140.6080  143.5384 H   0  0  0  0  0  0  0  0  0  0  0  0  # atno 7974 bound_to 7965
  155.8458  140.0955  157.1706 H   0  0  0  0  0  0  0  0  0  0  0  0  # atno 8008 bound_to 7997
  154.3983  140.1392  156.3845 H   0  0  0  0  0  0  0  0  0  0  0  0  # atno 8009 bound_to 7997
  155.8015  140.3452  155.5408 H   0  0  0  0  0  0  0  0  0  0  0  0  # atno 8010 bound_to 7997
  140.6003  143.8617  150.6959 H   0  0  0  0  0  0  0  0  0  0  0  0  # atno 10167 bound_to 10162
  156.2197  130.4165  149.9009 H   0  0  0  0  0  0  0  0  0  0  0  0  # atno 10718 bound_to 10713
  154.2326  135.2777  155.2884 H   0  0  0  0  0  0  0  0  0  0  0  0  # atno 10763 bound_to 10752
  154.5611  135.5646  153.7012 H   0  0  0  0  0  0  0  0  0  0  0  0  # atno 10764 bound_to 10752
  153.0017  135.6298  154.2468 H   0  0  0  0  0  0  0  0  0  0  0  0  # atno 10765 bound_to 10752
  140.8549  133.7830  156.0008 H   0  0  0  0  0  0  0  0  0  0  0  0  # atno 11005 bound_to 11000
  145.4482  139.1527  143.3933 LP  0  0  0  0  0  0  0  0  0  0  0  0  # atno 17320 bound_to 7965
  146.2792  140.4606  142.8783 LP  0  0  0  0  0  0  0  0  0  0  0  0  # atno 17321 bound_to 7965
  140.2161  143.3845  152.1679 LP  0  0  0  0  0  0  0  0  0  0  0  0  # atno 17342 bound_to 10162
  139.5287  144.7133  151.5136 LP  0  0  0  0  0  0  0  0  0  0  0  0  # atno 17343 bound_to 10162
  156.6659  130.8801  151.3555 LP  0  0  0  0  0  0  0  0  0  0  0  0  # atno 17370 bound_to 10713
  157.7081  130.9408  150.0997 LP  0  0  0  0  0  0  0  0  0  0  0  0  # atno 17371 bound_to 10713
  140.8748  134.2682  157.5173 LP  0  0  0  0  0  0  0  0  0  0  0  0  # atno 17394 bound_to 11000
  139.8705  134.9585  156.4304 LP  0  0  0  0  0  0  0  0  0  0  0  0  # atno 17395 bound_to 11000

$$$$
