AV-unprocessed.smi:727|AV-procd|sdf|3516|dock2
  -GOLD-   22720 0513D 1   1.00000     0.00000
 Structure written by MMmdl.
 38 39  0  0  0  0  0  0  0  0  1 V2000
  146.2036  130.3554  151.8762 C   0  0  0  0  0  0  0  0  0  0  0  0
  145.6247  131.6187  151.4111 N   0  0  0  0  0  0  0  0  0  0  0  0
  144.4868  131.5488  150.5898 C   0  0  0  0  0  0  0  0  0  0  0  0
  143.8934  132.6529  150.1158 C   0  0  0  0  0  0  0  0  0  0  0  0
  144.4491  133.9372  150.4689 C   0  0  0  0  0  0  0  0  0  0  0  0
  145.5444  134.0286  151.2655 C   0  0  0  0  0  0  0  0  0  0  0  0
  146.1578  135.2322  151.6577 N   0  0  0  0  0  0  0  0  0  0  0  0
  145.6047  136.3975  152.0428 C   0  0  0  0  0  0  0  0  0  0  0  0
  144.4001  136.6301  152.1376 O   0  0  0  0  0  0  0  0  0  0  0  0
  146.5535  137.3011  152.3287 N   0  0  0  0  0  0  0  0  0  0  0  0
  146.3185  138.6667  152.7903 C   0  0  0  0  0  0  0  0  0  0  0  0
  147.6242  139.3834  153.1928 C   0  0  2  0  0  0  0  0  0  0  0  0
  148.4403  138.5129  154.1744 C   0  0  0  0  0  0  0  0  0  0  0  0
  149.6070  139.2605  154.7939 C   0  0  0  0  0  0  0  0  0  0  0  0
  149.7303  140.5974  154.7601 C   0  0  0  0  0  0  0  0  0  0  0  0
  148.7139  141.5114  154.1024 C   0  0  0  0  0  0  0  0  0  0  0  0
  147.3903  140.7888  153.7887 C   0  0  0  0  0  0  0  0  0  0  0  0
  146.1947  132.8054  151.7764 C   0  0  0  0  0  0  0  0  0  0  0  0
  147.1970  132.8357  152.4951 O   0  0  0  0  0  0  0  0  0  0  0  0
  145.6433  129.4840  151.5356 H   0  0  0  0  0  0  0  0  0  0  0  0
  146.2241  130.3204  152.9665 H   0  0  0  0  0  0  0  0  0  0  0  0
  147.2266  130.2467  151.5127 H   0  0  0  0  0  0  0  0  0  0  0  0
  144.1312  130.5525  150.3707 H   0  0  0  0  0  0  0  0  0  0  0  0
  143.0199  132.5838  149.4842 H   0  0  0  0  0  0  0  0  0  0  0  0
  143.9605  134.8072  150.0630 H   0  0  0  0  0  0  0  0  0  0  0  0
  147.1668  135.1966  151.6698 H   0  0  0  0  0  0  0  0  0  0  0  0
  147.5179  137.0214  152.2236 H   0  0  0  0  0  0  0  0  0  0  0  0
  145.7816  139.2516  152.0415 H   0  0  0  0  0  0  0  0  0  0  0  0
  145.6564  138.6046  153.6546 H   0  0  0  0  0  0  0  0  0  0  0  0
  148.2243  139.5081  152.2897 H   0  0  0  0  0  0  0  0  0  0  0  0
  147.8066  138.1550  154.9868 H   0  0  0  0  0  0  0  0  0  0  0  0
  148.8210  137.6312  153.6581 H   0  0  0  0  0  0  0  0  0  0  0  0
  150.3579  138.6647  155.2920 H   0  0  0  0  0  0  0  0  0  0  0  0
  150.5925  141.0690  155.2082 H   0  0  0  0  0  0  0  0  0  0  0  0
  148.5241  142.3656  154.7527 H   0  0  0  0  0  0  0  0  0  0  0  0
  149.1565  141.9025  153.1858 H   0  0  0  0  0  0  0  0  0  0  0  0
  146.8053  141.4108  153.1116 H   0  0  0  0  0  0  0  0  0  0  0  0
  146.8020  140.6955  154.7025 H   0  0  0  0  0  0  0  0  0  0  0  0
  1  2  1  0  0  0  0
  1 20  1  0  0  0  0
  1 21  1  0  0  0  0
  1 22  1  0  0  0  0
  2 18  1  0  0  0  0
  2  3  1  0  0  0  0
  3  4  2  0  0  0  0
  3 23  1  0  0  0  0
  4  5  1  0  0  0  0
  4 24  1  0  0  0  0
  5  6  2  0  0  0  0
  5 25  1  0  0  0  0
  6  7  1  0  0  0  0
  6 18  1  0  0  0  0
  7  8  1  0  0  0  0
  7 26  1  0  0  0  0
  8  9  2  0  0  0  0
  8 10  1  0  0  0  0
 10 11  1  0  0  0  0
 10 27  1  0  0  0  0
 11 12  1  0  0  0  0
 11 28  1  0  0  0  0
 11 29  1  0  0  0  0
 12 17  1  0  0  0  0
 12 13  1  0  0  0  0
 12 30  1  0  0  0  0
 13 14  1  0  0  0  0
 13 31  1  0  0  0  0
 13 32  1  0  0  0  0
 14 15  2  0  0  0  0
 14 33  1  0  0  0  0
 15 16  1  0  0  0  0
 15 34  1  0  0  0  0
 16 17  1  0  0  0  0
 16 35  1  0  0  0  0
 16 36  1  0  0  0  0
 17 37  1  0  0  0  0
 17 38  1  0  0  0  0
 18 19  2  0  0  0  0
M  END
> <s_m_source_file>
AV-unprocessed.smi

> <i_m_source_file_index>
727

> <i_lp_mmshare_version>
43012

> <i_f3d_flags>
0

> <s_epik_input>
W0NIM11uMVtjSF1bY0hdW2NIXWMoYzE9TylbTkhdQyg9TylbTkhdW0NIMl1bQ0BASF0yW0NIMl1bQ0hdPVtDSF1bQ0gyXVtDSDJdMg==

> <s_epik_cmdline>
J2VwaWtfcHl0aG9uJywgJy1waCcsICc3LjAnLCAnLXRuJywgJzgnLCAnLW1hJywgJzIwMCcsICctbWV0YWxfYmluZGluZycsICctaW1hZScsICc8aW5maWxlLm1hZT4nLCAnLW9tYWUnLCAnPG91dGZpbGUubWFlPic=

> <r_lp_tautomer_probability>
1

> <r_epik_Ionization_Penalty>
2.60682e-05

> <r_epik_Ionization_Penalty_Charging>
4.8094e-06

> <r_epik_Ionization_Penalty_Neutral>
2.12588e-05

> <r_epik_State_Penalty>
-0

> <r_epik_Charging_Adjusted_Penalty>
4.8094e-06

> <i_epik_Tot_Q>
0

> <i_epik_Tot_abs_Q>
0

> <r_epik_Metal_State_Penalty>
-0

> <b_epik_Metal_Only>
0

> <s_lp_Force_Field>
OPLS_2005

> <r_lp_Energy>
21.4957

> <b_lp_Chiralities_Consistent>
1

> <s_lp_Variant>
AV-unprocessed.smi:727-1

> <Gold.Version>
5.8.1

> <Gold.Id.Protein>
6NUR|6NUR_protein|mol2

> <Gold.PLP.Fitness>
40.9270

> <Gold.PLP.PLP>
-35.7369

> <Gold.PLP.part.hbond>
-2.0000

> <Gold.PLP.part.metal>
0.0000

> <Gold.PLP.part.buried>
-1.4540

> <Gold.PLP.part.nonpolar>
-33.3789

> <Gold.PLP.part.repulsive>
0.7448

> <Gold.PLP.ligand.clash>
0.0000

> <Gold.PLP.ligand.torsion>
0.3716

> <Gold.PLP.Chemscore.Hbond>
1.9760

> <Gold.PLP.Chemscore.CHOScore>
0.0000

> <Gold.PLP.Chemscore.Metal>
0.0000

> <Gold.Chemscore.Hbonds>
donor molecule, donor type, donor heavy atom, donor atom, acceptor molecule, acceptor atom, score
      L1  H     7    26       P1  7948  0.98
      L1  H    10    27       P1  7948  1.00

> <Gold.PLP.Chemscore.Internal.Correction>
0.0052

> <Gold.Rescore>
     Score         DG    S(hbond)    S(metal)    S(lipo)     H(rot)  DE(clash)    DE(int)     intcor
     18.09     -18.89       1.91        0.00      86.43       1.21       0.35       0.45       ----

> <Gold.Chemscore.Fitness>
18.0922

> <Gold.Chemscore.DG>
-18.8863

> <Gold.Chemscore.ZeroCoef>
-5.4800

> <Gold.Chemscore.Hbond>
1.9138

> <Gold.Chemscore.Metal>
0.0000

> <Gold.Chemscore.Lipo>
86.4327

> <Gold.Chemscore.Internal_Hbond>
0.0000

> <Gold.Chemscore.DEClash>
0.3475

> <Gold.Chemscore.DEInternal>
0.4466

> <Gold.Chemscore.Rot>
1.2103

> <Gold.Chemscore.Internal.Correction>
   9.000000E+99

> <Gold.Chemscore.Hbonds>
donor molecule, donor type, donor heavy atom, donor atom, acceptor molecule, acceptor atom, score
      L1  H     7    26       P1  7948  0.84
      L1  H    10    27       P1  7948  1.00

> <Gold.Chemscore.Hbond.Weighted>
-6.3921

> <Gold.Chemscore.Metal.Weighted>
-0.0000

> <Gold.Chemscore.Lipo.Weighted>
-10.1126

> <Gold.Chemscore.Internal_Hbond.Weighted>
0.0000

> <Gold.Chemscore.DEClash.Weighted>
0.3475

> <Gold.Chemscore.DEInternal.Weighted>
0.4466

> <Gold.Chemscore.Rot.Weighted>
3.0984

> <Gold.Chemscore.Internal.Correction.Weighted>
   9.000000E+99

> <Gold.Protein.RotatedTorsions>
[ 6907 6896 6895 6894 ] final  -16.85 input  -60.11 | X-H torsion
[ 7974 7965 7964 7962 ] final  167.04 input  175.53 | X-H torsion
[ 8008 7997 7996 7995 ] final  143.10 input   59.86 | X-H torsion
[ 10167 10162 10161 10158 ] final  -85.67 input  -65.29 | X-H torsion
[ 10718 10713 10712 10709 ] final  103.81 input   66.30 | X-H torsion
[ 10763 10752 10751 10750 ] final   54.53 input  -60.55 | X-H torsion
[ 11005 11000 10999 10996 ] final  149.30 input  -57.11 | X-H torsion

> <Gold.Protein.ActiveResidues>
 VAL166  LYS551  ARG553  GLY616  TRP617  ASP618  TYR619  PRO620  LYS621  CYS622 
 ASP623  PHE694  ASN695  SER759  ASP760  ASP761  ALA762  ILE779  LEU786  VAL792 
 PHE793  MET794  SER795  GLU796  ALA797  LYS798  CYS799  TRP800  GLU811  SER814 

> <Gold.Protein.RotatedAtoms>
  151.3022  135.0772  159.9242 H   0  0  0  0  0  0  0  0  0  0  0  0  # atno 6907 bound_to 6896
  152.5295  133.9821  159.7822 H   0  0  0  0  0  0  0  0  0  0  0  0  # atno 6908 bound_to 6896
  151.0110  133.5914  159.2713 H   0  0  0  0  0  0  0  0  0  0  0  0  # atno 6909 bound_to 6896
  144.7439  139.8703  143.6388 H   0  0  0  0  0  0  0  0  0  0  0  0  # atno 7974 bound_to 7965
  156.2937  140.2271  156.4835 H   0  0  0  0  0  0  0  0  0  0  0  0  # atno 8008 bound_to 7997
  154.7832  140.0459  157.1164 H   0  0  0  0  0  0  0  0  0  0  0  0  # atno 8009 bound_to 7997
  154.9734  140.3069  155.4981 H   0  0  0  0  0  0  0  0  0  0  0  0  # atno 8010 bound_to 7997
  140.4015  143.2661  151.9136 H   0  0  0  0  0  0  0  0  0  0  0  0  # atno 10167 bound_to 10162
  157.6760  131.0788  150.5612 H   0  0  0  0  0  0  0  0  0  0  0  0  # atno 10718 bound_to 10713
  152.9806  135.5742  154.4919 H   0  0  0  0  0  0  0  0  0  0  0  0  # atno 10763 bound_to 10752
  154.4452  135.2777  155.1822 H   0  0  0  0  0  0  0  0  0  0  0  0  # atno 10764 bound_to 10752
  154.3472  135.6217  153.5679 H   0  0  0  0  0  0  0  0  0  0  0  0  # atno 10765 bound_to 10752
  140.1033  134.8970  157.1828 H   0  0  0  0  0  0  0  0  0  0  0  0  # atno 11005 bound_to 11000
  146.1285  139.4316  143.0183 LP  0  0  0  0  0  0  0  0  0  0  0  0  # atno 17320 bound_to 7965
  145.7199  141.0078  143.1408 LP  0  0  0  0  0  0  0  0  0  0  0  0  # atno 17321 bound_to 7965
  139.4784  144.5629  151.8211 LP  0  0  0  0  0  0  0  0  0  0  0  0  # atno 17342 bound_to 10162
  140.4735  144.1553  150.5921 LP  0  0  0  0  0  0  0  0  0  0  0  0  # atno 17343 bound_to 10162
  156.5915  130.4330  149.5935 LP  0  0  0  0  0  0  0  0  0  0  0  0  # atno 17370 bound_to 10713
  156.2580  130.6945  151.1705 LP  0  0  0  0  0  0  0  0  0  0  0  0  # atno 17371 bound_to 10713
  140.3190  134.2938  155.7250 LP  0  0  0  0  0  0  0  0  0  0  0  0  # atno 17394 bound_to 11000
  141.2111  133.7698  156.9884 LP  0  0  0  0  0  0  0  0  0  0  0  0  # atno 17395 bound_to 11000

$$$$
