AV-unprocessed.smi:1433|AV-procd|sdf|5843|dock10
  -GOLD-   22720 5503D 1   1.00000     0.00000
 Structure written by MMmdl.
 45 46  0  0  0  0  0  0  0  0  2 V2000
  145.2259  133.6994  150.4362 C   0  0  0  0  0  0  0  0  0  0  0  0
  145.8972  134.5696  151.5048 C   0  0  2  0  0  0  0  0  0  0  0  0
  146.7954  133.7436  152.4408 C   0  0  0  0  0  0  0  0  0  0  0  0
  147.3826  134.5961  153.5081 N   0  3  2  0  0  0  0  0  0  0  0  0
  148.3862  133.8567  154.3419 C   0  0  1  0  0  0  0  0  0  0  0  0
  149.2827  132.9806  153.4365 C   0  0  0  0  0  0  0  0  0  0  0  0
  149.2612  134.7757  155.2412 C   0  0  0  0  0  0  0  0  0  0  0  0
  149.6995  135.9865  154.5552 N   0  0  0  0  0  0  0  0  0  0  0  0
  150.2080  137.0736  155.1561 C   0  0  0  0  0  0  0  0  0  0  0  0
  150.3091  137.1885  156.3773 O   0  0  0  0  0  0  0  0  0  0  0  0
  150.6946  138.1935  154.2364 C   0  0  0  0  0  0  0  0  0  0  0  0
  149.8372  139.3606  154.3461 N   0  0  0  0  0  0  0  0  0  0  0  0
  148.4843  139.4558  154.0945 C   0  0  0  0  0  0  0  0  0  0  0  0
  148.1137  140.7452  154.3484 C   0  0  0  0  0  0  0  0  0  0  0  0
  149.3250  141.3718  154.7545 C   0  0  0  0  0  0  0  0  0  0  0  0
  150.3541  140.5402  154.7557 N   0  0  0  0  0  0  0  0  0  0  0  0
  146.2877  135.2744  154.2552 C   0  0  0  0  0  0  0  0  0  0  0  0
  145.3397  136.0418  153.3110 C   0  0  1  0  0  0  0  0  0  0  0  0
  145.9411  137.3495  152.7647 C   0  0  0  0  0  0  0  0  0  0  0  0
  144.8698  135.1895  152.2696 O   0  0  0  0  0  0  0  0  0  0  0  0
  145.9680  133.2031  149.8103 H   0  0  0  0  0  0  0  0  0  0  0  0
  144.5926  134.3019  149.7847 H   0  0  0  0  0  0  0  0  0  0  0  0
  144.6004  132.9292  150.8887 H   0  0  0  0  0  0  0  0  0  0  0  0
  146.4935  135.3275  150.9964 H   0  0  0  0  0  0  0  0  0  0  0  0
  146.2184  132.9374  152.8976 H   0  0  0  0  0  0  0  0  0  0  0  0
  147.5753  133.2712  151.8463 H   0  0  0  0  0  0  0  0  0  0  0  0
  147.8280  133.1968  155.0081 H   0  0  0  0  0  0  0  0  0  0  0  0
  149.9829  132.3801  154.0174 H   0  0  0  0  0  0  0  0  0  0  0  0
  149.8673  133.5958  152.7519 H   0  0  0  0  0  0  0  0  0  0  0  0
  148.7115  132.2746  152.8364 H   0  0  0  0  0  0  0  0  0  0  0  0
  148.7014  135.0779  156.1269 H   0  0  0  0  0  0  0  0  0  0  0  0
  150.1553  134.2587  155.5924 H   0  0  0  0  0  0  0  0  0  0  0  0
  149.6541  135.9835  153.5459 H   0  0  0  0  0  0  0  0  0  0  0  0
  151.7207  138.4675  154.4866 H   0  0  0  0  0  0  0  0  0  0  0  0
  150.6952  137.8542  153.1996 H   0  0  0  0  0  0  0  0  0  0  0  0
  147.9051  138.6071  153.7614 H   0  0  0  0  0  0  0  0  0  0  0  0
  147.1276  141.1757  154.2566 H   0  0  0  0  0  0  0  0  0  0  0  0
  149.4854  142.3989  155.0474 H   0  0  0  0  0  0  0  0  0  0  0  0
  145.7242  134.5263  154.8152 H   0  0  0  0  0  0  0  0  0  0  0  0
  146.6839  135.9880  154.9770 H   0  0  0  0  0  0  0  0  0  0  0  0
  144.4578  136.3224  153.8877 H   0  0  0  0  0  0  0  0  0  0  0  0
  146.1598  138.0434  153.5767 H   0  0  0  0  0  0  0  0  0  0  0  0
  145.2435  137.8451  152.0890 H   0  0  0  0  0  0  0  0  0  0  0  0
  146.8718  137.1845  152.2227 H   0  0  0  0  0  0  0  0  0  0  0  0
  147.8946  135.3344  153.0467 H   0  0  0  0  0  0  0  0  0  0  0  0
  1  2  1  0  0  0  0
  1 21  1  0  0  0  0
  1 22  1  0  0  0  0
  1 23  1  0  0  0  0
  2 20  1  0  0  0  0
  2  3  1  0  0  0  0
  2 24  1  0  0  0  0
  3  4  1  0  0  0  0
  3 25  1  0  0  0  0
  3 26  1  0  0  0  0
  4  5  1  0  0  0  0
  4 17  1  0  0  0  0
  4 45  1  0  0  0  0
  5  6  1  0  0  0  0
  5  7  1  0  0  0  0
  5 27  1  0  0  0  0
  6 28  1  0  0  0  0
  6 29  1  0  0  0  0
  6 30  1  0  0  0  0
  7  8  1  0  0  0  0
  7 31  1  0  0  0  0
  7 32  1  0  0  0  0
  8  9  1  0  0  0  0
  8 33  1  0  0  0  0
  9 10  2  0  0  0  0
  9 11  1  0  0  0  0
 11 12  1  0  0  0  0
 11 34  1  0  0  0  0
 11 35  1  0  0  0  0
 12 16  1  0  0  0  0
 12 13  1  0  0  0  0
 13 14  2  0  0  0  0
 13 36  1  0  0  0  0
 14 15  1  0  0  0  0
 14 37  1  0  0  0  0
 15 16  2  0  0  0  0
 15 38  1  0  0  0  0
 17 18  1  0  0  0  0
 17 39  1  0  0  0  0
 17 40  1  0  0  0  0
 18 19  1  0  0  0  0
 18 20  1  0  0  0  0
 18 41  1  0  0  0  0
 19 42  1  0  0  0  0
 19 43  1  0  0  0  0
 19 44  1  0  0  0  0
M  CHG  1   4   1
M  END
> <s_m_source_file>
AV-unprocessed.smi

> <i_m_source_file_index>
1433

> <i_lp_mmshare_version>
43012

> <i_f3d_flags>
0

> <s_epik_input>
W0NIM11bQ0BASF0xW0NIMl1OKFtDSDJdW0NASF0oTzEpW0NIM10pW0NASF0oW0NIM10pW0NIMl1bTkhdQyg9TylbQ0gyXW4yW2NIXVtjSF1bY0hdbjI=

> <s_epik_cmdline>
J2VwaWtfcHl0aG9uJywgJy1waCcsICc3LjAnLCAnLXRuJywgJzgnLCAnLW1hJywgJzIwMCcsICctbWV0YWxfYmluZGluZycsICctaW1hZScsICc8aW5maWxlLm1hZT4nLCAnLW9tYWUnLCAnPG91dGZpbGUubWFlPic=

> <r_lp_tautomer_probability>
1

> <r_epik_Ionization_Penalty>
0.748405

> <r_epik_Ionization_Penalty_Charging>
0.748396

> <r_epik_Ionization_Penalty_Neutral>
8.54426e-06

> <r_epik_State_Penalty>
0.775162

> <r_epik_Charging_Adjusted_Penalty>
1.52356

> <i_epik_Tot_Q>
1

> <i_epik_Tot_abs_Q>
1

> <r_epik_Metal_State_Penalty>
0.775167

> <b_epik_Metal_Only>
0

> <s_lp_Force_Field>
OPLS_2005

> <r_lp_Energy>
20.9037

> <b_lp_Chiralities_Consistent>
1

> <s_lp_Variant>
AV-unprocessed.smi:1433-9

> <Gold.Version>
5.8.1

> <Gold.Id.Protein>
6NUR|6NUR_protein|mol2

> <Gold.PLP.Fitness>
46.0268

> <Gold.PLP.PLP>
-32.0590

> <Gold.PLP.part.hbond>
-3.0000

> <Gold.PLP.part.metal>
0.0000

> <Gold.PLP.part.buried>
-3.1403

> <Gold.PLP.part.nonpolar>
-25.6164

> <Gold.PLP.part.repulsive>
0.2335

> <Gold.PLP.ligand.clash>
0.0000

> <Gold.PLP.ligand.torsion>
0.5364

> <Gold.PLP.Chemscore.Hbond>
4.0000

> <Gold.PLP.Chemscore.CHOScore>
0.9894

> <Gold.PLP.Chemscore.Metal>
0.0000

> <Gold.Chemscore.Hbonds>
donor molecule, donor type, donor heavy atom, donor atom, acceptor molecule, acceptor atom, score
      L1  H     4    45       P1  7948  2.00
      L1  H     8    33       P1  7948  0.95
      P1  H  7989  7998       L1    16  0.96
      L1  C    15    38       P1  8028  1.00

> <Gold.PLP.Chemscore.Internal.Correction>
0.0722

> <Gold.Rescore>
     Score         DG    S(hbond)    S(metal)    S(lipo)     H(rot)  DE(clash)    DE(int)     intcor
     16.23     -17.01       2.50        0.00      68.09       1.87       0.22       0.56       ----

> <Gold.Chemscore.Fitness>
16.2309

> <Gold.Chemscore.DG>
-17.0071

> <Gold.Chemscore.ZeroCoef>
-5.4800

> <Gold.Chemscore.Hbond>
2.4959

> <Gold.Chemscore.Metal>
0.0000

> <Gold.Chemscore.Lipo>
68.0926

> <Gold.Chemscore.Internal_Hbond>
0.0000

> <Gold.Chemscore.DEClash>
0.2156

> <Gold.Chemscore.DEInternal>
0.5606

> <Gold.Chemscore.Rot>
1.8657

> <Gold.Chemscore.Internal.Correction>
   9.000000E+99

> <Gold.Chemscore.Hbonds>
donor molecule, donor type, donor heavy atom, donor atom, acceptor molecule, acceptor atom, score
      L1  H     4    45       P1  7948  1.00
      L1  H     8    33       P1  7948  0.21
      P1  H  7989  7998       L1    16  0.33

> <Gold.Chemscore.Hbond.Weighted>
-8.3364

> <Gold.Chemscore.Metal.Weighted>
-0.0000

> <Gold.Chemscore.Lipo.Weighted>
-7.9668

> <Gold.Chemscore.Internal_Hbond.Weighted>
0.0000

> <Gold.Chemscore.DEClash.Weighted>
0.2156

> <Gold.Chemscore.DEInternal.Weighted>
0.5606

> <Gold.Chemscore.Rot.Weighted>
4.7761

> <Gold.Chemscore.Internal.Correction.Weighted>
   9.000000E+99

> <Gold.Protein.RotatedTorsions>
[ 6907 6896 6895 6894 ] final -135.44 input  -60.11 | X-H torsion
[ 7974 7965 7964 7962 ] final  -74.78 input  175.53 | X-H torsion
[ 8008 7997 7996 7995 ] final -179.43 input   59.86 | X-H torsion
[ 10167 10162 10161 10158 ] final  -71.43 input  -65.29 | X-H torsion
[ 10718 10713 10712 10709 ] final  177.46 input   66.30 | X-H torsion
[ 10763 10752 10751 10750 ] final -142.52 input  -60.55 | X-H torsion
[ 11005 11000 10999 10996 ] final   52.04 input  -57.11 | X-H torsion

> <Gold.Protein.ActiveResidues>
 VAL166  LYS551  ARG553  GLY616  TRP617  ASP618  TYR619  PRO620  LYS621  CYS622 
 ASP623  PHE694  ASN695  SER759  ASP760  ASP761  ALA762  ILE779  LEU786  VAL792 
 PHE793  MET794  SER795  GLU796  ALA797  LYS798  CYS799  TRP800  GLU811  SER814 

> <Gold.Protein.RotatedAtoms>
  150.9979  133.6084  159.2698 H   0  0  0  0  0  0  0  0  0  0  0  0  # atno 6907 bound_to 6896
  151.3281  135.0834  159.9339 H   0  0  0  0  0  0  0  0  0  0  0  0  # atno 6908 bound_to 6896
  152.5265  133.9614  159.7773 H   0  0  0  0  0  0  0  0  0  0  0  0  # atno 6909 bound_to 6896
  145.6346  140.9328  143.1068 H   0  0  0  0  0  0  0  0  0  0  0  0  # atno 7974 bound_to 7965
  156.0304  140.1281  157.0264 H   0  0  0  0  0  0  0  0  0  0  0  0  # atno 8008 bound_to 7997
  154.4348  140.1050  156.6162 H   0  0  0  0  0  0  0  0  0  0  0  0  # atno 8009 bound_to 7997
  155.5815  140.3468  155.4543 H   0  0  0  0  0  0  0  0  0  0  0  0  # atno 8010 bound_to 7997
  140.5274  143.2325  151.7323 H   0  0  0  0  0  0  0  0  0  0  0  0  # atno 10167 bound_to 10162
  156.9051  130.9891  151.3029 H   0  0  0  0  0  0  0  0  0  0  0  0  # atno 10718 bound_to 10713
  154.8506  135.3494  154.6040 H   0  0  0  0  0  0  0  0  0  0  0  0  # atno 10763 bound_to 10752
  153.6649  135.6988  153.5170 H   0  0  0  0  0  0  0  0  0  0  0  0  # atno 10764 bound_to 10752
  153.2788  135.4270  155.1016 H   0  0  0  0  0  0  0  0  0  0  0  0  # atno 10765 bound_to 10752
  140.0882  134.5245  155.8878 H   0  0  0  0  0  0  0  0  0  0  0  0  # atno 11005 bound_to 11000
  144.7180  139.8128  143.7392 LP  0  0  0  0  0  0  0  0  0  0  0  0  # atno 17320 bound_to 7965
  146.1329  139.4368  143.0157 LP  0  0  0  0  0  0  0  0  0  0  0  0  # atno 17321 bound_to 7965
  139.4943  144.4165  152.0024 LP  0  0  0  0  0  0  0  0  0  0  0  0  # atno 17342 bound_to 10162
  140.3265  144.3366  150.5997 LP  0  0  0  0  0  0  0  0  0  0  0  0  # atno 17343 bound_to 10162
  157.6002  130.8507  149.8791 LP  0  0  0  0  0  0  0  0  0  0  0  0  # atno 17370 bound_to 10713
  156.0563  130.3708  150.1084 LP  0  0  0  0  0  0  0  0  0  0  0  0  # atno 17371 bound_to 10713
  141.2069  133.6660  156.6274 LP  0  0  0  0  0  0  0  0  0  0  0  0  # atno 17394 bound_to 11000
  140.3389  134.7865  157.4383 LP  0  0  0  0  0  0  0  0  0  0  0  0  # atno 17395 bound_to 11000

$$$$
