AV-unprocessed.smi:2628|AV-procd|sdf|10243|dock6
  -GOLD-   2272014253D 1   1.00000     0.00000
 Structure written by MMmdl.
 38 38  0  0  0  0  0  0  0  0  1 V2000
  144.3339  132.4642  149.3028 C   0  0  0  0  0  0  0  0  0  0  0  0
  144.5451  132.6903  150.8036 C   0  0  0  0  0  0  0  0  0  0  0  0
  144.1546  134.1099  151.2462 C   0  0  0  0  0  0  0  0  0  0  0  0
  144.2418  134.3529  152.7672 C   0  0  0  0  0  0  0  0  0  0  0  0
  143.5578  135.5537  153.2154 N   0  0  0  0  0  0  0  0  0  0  0  0
  142.4383  135.5280  154.0519 C   0  0  0  0  0  0  0  0  0  0  0  0
  141.9641  134.2899  154.4614 N   0  0  0  0  0  0  0  0  0  0  0  0
  141.8043  136.6653  154.4639 C   0  0  0  0  0  0  0  0  0  0  0  0
  140.6862  136.5911  155.2963 N   0  0  0  0  0  0  0  0  0  0  0  0
  139.8480  137.6362  155.8644 C   0  0  0  0  0  0  0  0  0  0  0  0
  138.4267  137.5802  155.2940 C   0  0  0  0  0  0  0  0  0  0  0  0
  138.4836  137.7007  153.8821 O   0  0  0  0  0  0  0  0  0  0  0  0
  139.1915  138.8545  153.4642 C   0  0  0  0  0  0  0  0  0  0  0  0
  142.2969  137.9804  154.0179 C   0  0  0  0  0  0  0  0  0  0  0  0
  141.8256  139.0796  154.3053 O   0  0  0  0  0  0  0  0  0  0  0  0
  143.4086  137.9392  153.1802 N   0  0  0  0  0  0  0  0  0  0  0  0
  144.0626  136.7915  152.7511 C   0  0  0  0  0  0  0  0  0  0  0  0
  145.0284  136.8974  151.9944 O   0  0  0  0  0  0  0  0  0  0  0  0
  143.7676  138.8234  152.8509 H   0  0  0  0  0  0  0  0  0  0  0  0
  144.6192  131.4509  149.0196 H   0  0  0  0  0  0  0  0  0  0  0  0
  144.9347  133.1562  148.7121 H   0  0  0  0  0  0  0  0  0  0  0  0
  143.2889  132.6056  149.0258 H   0  0  0  0  0  0  0  0  0  0  0  0
  143.9614  131.9589  151.3637 H   0  0  0  0  0  0  0  0  0  0  0  0
  145.5917  132.5011  151.0426 H   0  0  0  0  0  0  0  0  0  0  0  0
  144.7778  134.8346  150.7215 H   0  0  0  0  0  0  0  0  0  0  0  0
  143.1315  134.3095  150.9261 H   0  0  0  0  0  0  0  0  0  0  0  0
  143.7861  133.5292  153.3171 H   0  0  0  0  0  0  0  0  0  0  0  0
  145.2758  134.3774  153.1134 H   0  0  0  0  0  0  0  0  0  0  0  0
  142.4048  133.4290  154.1713 H   0  0  0  0  0  0  0  0  0  0  0  0
  141.2150  134.2044  155.1331 H   0  0  0  0  0  0  0  0  0  0  0  0
  140.4047  135.6598  155.5652 H   0  0  0  0  0  0  0  0  0  0  0  0
  139.7979  137.4987  156.9448 H   0  0  0  0  0  0  0  0  0  0  0  0
  140.2933  138.6140  155.6775 H   0  0  0  0  0  0  0  0  0  0  0  0
  137.9351  136.6502  155.5847 H   0  0  0  0  0  0  0  0  0  0  0  0
  137.8376  138.4024  155.7031 H   0  0  0  0  0  0  0  0  0  0  0  0
  139.2027  138.9037  152.3753 H   0  0  0  0  0  0  0  0  0  0  0  0
  140.2253  138.8297  153.8112 H   0  0  0  0  0  0  0  0  0  0  0  0
  138.7182  139.7638  153.8371 H   0  0  0  0  0  0  0  0  0  0  0  0
  1  2  1  0  0  0  0
  1 20  1  0  0  0  0
  1 21  1  0  0  0  0
  1 22  1  0  0  0  0
  2  3  1  0  0  0  0
  2 23  1  0  0  0  0
  2 24  1  0  0  0  0
  3  4  1  0  0  0  0
  3 25  1  0  0  0  0
  3 26  1  0  0  0  0
  4  5  1  0  0  0  0
  4 27  1  0  0  0  0
  4 28  1  0  0  0  0
  5 17  1  0  0  0  0
  5  6  1  0  0  0  0
  6  7  1  0  0  0  0
  6  8  2  0  0  0  0
  7 29  1  0  0  0  0
  7 30  1  0  0  0  0
  8  9  1  0  0  0  0
  8 14  1  0  0  0  0
  9 10  1  0  0  0  0
  9 31  1  0  0  0  0
 10 11  1  0  0  0  0
 10 32  1  0  0  0  0
 10 33  1  0  0  0  0
 11 12  1  0  0  0  0
 11 34  1  0  0  0  0
 11 35  1  0  0  0  0
 12 13  1  0  0  0  0
 13 36  1  0  0  0  0
 13 37  1  0  0  0  0
 13 38  1  0  0  0  0
 14 15  2  0  0  0  0
 14 16  1  0  0  0  0
 16 19  1  0  0  0  0
 16 17  1  0  0  0  0
 17 18  2  0  0  0  0
M  END
> <s_m_source_file>
AV-unprocessed.smi

> <i_m_source_file_index>
2628

> <i_lp_mmshare_version>
43012

> <i_f3d_flags>
0

> <s_epik_input>
W0NIM11bQ0gyXVtDSDJdW0NIMl1uMWMoW05IMl0pYyhjKD1PKVtuSF1jMT1PKVtOSF1bQ0gyXVtDSDJdT1tDSDNd

> <s_epik_cmdline>
J2VwaWtfcHl0aG9uJywgJy1waCcsICc3LjAnLCAnLXRuJywgJzgnLCAnLW1hJywgJzIwMCcsICctbWV0YWxfYmluZGluZycsICctaW1hZScsICc8aW5maWxlLm1hZT4nLCAnLW9tYWUnLCAnPG91dGZpbGUubWFlPic=

> <r_lp_tautomer_probability>
1

> <r_epik_Ionization_Penalty>
1.09794e-05

> <r_epik_Ionization_Penalty_Charging>
2.75876e-06

> <r_epik_Ionization_Penalty_Neutral>
8.2206e-06

> <r_epik_State_Penalty>
-0

> <r_epik_Charging_Adjusted_Penalty>
2.75876e-06

> <i_epik_Tot_Q>
0

> <i_epik_Tot_abs_Q>
0

> <r_epik_Metal_State_Penalty>
-0

> <b_epik_Metal_Only>
0

> <s_epik_Chemistry_Notes>
This compound has an imine and may undergo hydrolysis.

> <s_lp_Force_Field>
OPLS_2005

> <r_lp_Energy>
18.1798

> <b_lp_Chiralities_Consistent>
1

> <s_lp_Variant>
AV-unprocessed.smi:2628-1

> <Gold.Version>
5.8.1

> <Gold.Id.Protein>
6NUR|6NUR_protein|mol2

> <Gold.PLP.Fitness>
41.3150

> <Gold.PLP.PLP>
-30.2378

> <Gold.PLP.part.hbond>
-4.0000

> <Gold.PLP.part.metal>
0.0000

> <Gold.PLP.part.buried>
-7.5967

> <Gold.PLP.part.nonpolar>
-21.1744

> <Gold.PLP.part.repulsive>
2.9292

> <Gold.PLP.ligand.clash>
0.0000

> <Gold.PLP.ligand.torsion>
0.1141

> <Gold.PLP.Chemscore.Hbond>
3.7600

> <Gold.PLP.Chemscore.CHOScore>
0.0000

> <Gold.PLP.Chemscore.Metal>
0.0000

> <Gold.Chemscore.Hbonds>
donor molecule, donor type, donor heavy atom, donor atom, acceptor molecule, acceptor atom, score
      L1  H     7    29       P1 10957  0.77
      L1  H     7    30       P1 11000  0.75
      L1  H     9    31       P1 11000  1.00
      L1  H    16    19       P1 10175  1.00

> <Gold.PLP.Chemscore.Internal.Correction>
0.0254

> <Gold.Rescore>
     Score         DG    S(hbond)    S(metal)    S(lipo)     H(rot)  DE(clash)    DE(int)     intcor
     15.50     -17.06       3.60        0.00      47.70       2.35       0.04       1.51       ----

> <Gold.Chemscore.Fitness>
15.5032

> <Gold.Chemscore.DG>
-17.0563

> <Gold.Chemscore.ZeroCoef>
-5.4800

> <Gold.Chemscore.Hbond>
3.5950

> <Gold.Chemscore.Metal>
0.0000

> <Gold.Chemscore.Lipo>
47.7003

> <Gold.Chemscore.Internal_Hbond>
0.0000

> <Gold.Chemscore.DEClash>
0.0408

> <Gold.Chemscore.DEInternal>
1.5122

> <Gold.Chemscore.Rot>
2.3484

> <Gold.Chemscore.Internal.Correction>
   9.000000E+99

> <Gold.Chemscore.Hbonds>
donor molecule, donor type, donor heavy atom, donor atom, acceptor molecule, acceptor atom, score
      L1  H     7    29       P1 10957  0.78
      L1  H     7    30       P1 11000  0.09
      L1  H     9    31       P1 11000  0.91
      L1  H    16    19       P1 10175  0.97

> <Gold.Chemscore.Hbond.Weighted>
-12.0074

> <Gold.Chemscore.Metal.Weighted>
-0.0000

> <Gold.Chemscore.Lipo.Weighted>
-5.5809

> <Gold.Chemscore.Internal_Hbond.Weighted>
0.0000

> <Gold.Chemscore.DEClash.Weighted>
0.0408

> <Gold.Chemscore.DEInternal.Weighted>
1.5122

> <Gold.Chemscore.Rot.Weighted>
6.0120

> <Gold.Chemscore.Internal.Correction.Weighted>
   9.000000E+99

> <Gold.Protein.RotatedTorsions>
[ 6907 6896 6895 6894 ] final -175.66 input  -60.11 | X-H torsion
[ 7974 7965 7964 7962 ] final   23.47 input  175.53 | X-H torsion
[ 8008 7997 7996 7995 ] final -118.98 input   59.86 | X-H torsion
[ 10167 10162 10161 10158 ] final -136.57 input  -65.29 | X-H torsion
[ 10718 10713 10712 10709 ] final  -73.68 input   66.30 | X-H torsion
[ 10763 10752 10751 10750 ] final  -14.52 input  -60.55 | X-H torsion
[ 11005 11000 10999 10996 ] final -110.94 input  -57.11 | X-H torsion

> <Gold.Protein.ActiveResidues>
 VAL166  LYS551  ARG553  GLY616  TRP617  ASP618  TYR619  PRO620  LYS621  CYS622 
 ASP623  PHE694  ASN695  SER759  ASP760  ASP761  ALA762  ILE779  LEU786  VAL792 
 PHE793  MET794  SER795  GLU796  ALA797  LYS798  CYS799  TRP800  GLU811  SER814 

> <Gold.Protein.RotatedAtoms>
  151.5921  133.3365  159.3029 H   0  0  0  0  0  0  0  0  0  0  0  0  # atno 6907 bound_to 6896
  150.8254  134.7486  159.6820 H   0  0  0  0  0  0  0  0  0  0  0  0  # atno 6908 bound_to 6896
  152.4344  134.5721  159.9975 H   0  0  0  0  0  0  0  0  0  0  0  0  # atno 6909 bound_to 6896
  146.1983  139.7740  142.8781 H   0  0  0  0  0  0  0  0  0  0  0  0  # atno 7974 bound_to 7965
  155.1084  140.0397  157.2717 H   0  0  0  0  0  0  0  0  0  0  0  0  # atno 8008 bound_to 7997
  154.6704  140.2611  155.6988 H   0  0  0  0  0  0  0  0  0  0  0  0  # atno 8009 bound_to 7997
  156.2656  140.2799  156.1210 H   0  0  0  0  0  0  0  0  0  0  0  0  # atno 8010 bound_to 7997
  139.8665  143.7011  152.2644 H   0  0  0  0  0  0  0  0  0  0  0  0  # atno 10167 bound_to 10162
  156.0271  130.4399  150.2778 H   0  0  0  0  0  0  0  0  0  0  0  0  # atno 10718 bound_to 10713
  153.5295  135.7015  153.5690 H   0  0  0  0  0  0  0  0  0  0  0  0  # atno 10763 bound_to 10752
  153.3704  135.3946  155.1784 H   0  0  0  0  0  0  0  0  0  0  0  0  # atno 10764 bound_to 10752
  154.8686  135.3810  154.4791 H   0  0  0  0  0  0  0  0  0  0  0  0  # atno 10765 bound_to 10752
  141.0763  133.9296  157.2383 H   0  0  0  0  0  0  0  0  0  0  0  0  # atno 11005 bound_to 11000
  145.3571  141.0319  143.3306 LP  0  0  0  0  0  0  0  0  0  0  0  0  # atno 17320 bound_to 7965
  144.8627  139.5154  143.6805 LP  0  0  0  0  0  0  0  0  0  0  0  0  # atno 17321 bound_to 7965
  139.7324  144.7579  151.0781 LP  0  0  0  0  0  0  0  0  0  0  0  0  # atno 17342 bound_to 10162
  140.7767  143.5072  150.9698 LP  0  0  0  0  0  0  0  0  0  0  0  0  # atno 17343 bound_to 10162
  157.0882  131.0162  151.3131 LP  0  0  0  0  0  0  0  0  0  0  0  0  # atno 17370 bound_to 10713
  157.4875  130.7802  149.7474 LP  0  0  0  0  0  0  0  0  0  0  0  0  # atno 17371 bound_to 10713
  139.9575  135.0162  156.9169 LP  0  0  0  0  0  0  0  0  0  0  0  0  # atno 17394 bound_to 11000
  140.5566  134.0575  155.7385 LP  0  0  0  0  0  0  0  0  0  0  0  0  # atno 17395 bound_to 11000

$$$$
