AV-unprocessed.smi:45|AV-procd|sdf|407|dock6
  -GOLD-   2262016263D 1   1.00000     0.00000
 Structure written by MMmdl.
 60 63  0  0  0  0  0  0  0  0  1 V2000
  143.5597  132.4536  148.3813 C   0  0  0  0  0  0  0  0  0  0  0  0
  143.7629  131.7700  149.6094 O   0  0  0  0  0  0  0  0  0  0  0  0
  144.2549  132.4866  150.6806 C   0  0  0  0  0  0  0  0  0  0  0  0
  144.0397  133.8760  150.8628 C   0  0  0  0  0  0  0  0  0  0  0  0
  144.5816  134.5455  151.9755 C   0  0  0  0  0  0  0  0  0  0  0  0
  145.3425  133.8383  152.9265 C   0  0  0  0  0  0  0  0  0  0  0  0
  145.9709  134.5734  154.0982 C   0  0  0  0  0  0  0  0  0  0  0  0
  147.1256  133.8888  154.6667 N   0  0  0  0  0  0  0  0  0  0  0  0
  148.2724  134.6788  154.8469 C   0  0  0  0  0  0  0  0  0  0  0  0
  148.1270  136.0153  154.6885 N   0  0  0  0  0  0  0  0  0  0  0  0
  149.1891  136.7980  154.9053 C   0  0  0  0  0  0  0  0  0  0  0  0
  148.9972  138.1710  154.7566 N   0  0  0  0  0  0  0  0  0  0  0  0
  147.6645  138.7455  154.6106 C   0  0  0  0  0  0  0  0  0  0  0  0
  147.8413  140.0076  153.7687 C   0  0  0  0  0  0  0  0  0  0  0  0
  149.2596  140.4470  154.1075 C   0  0  0  0  0  0  0  0  0  0  0  0
  150.0112  139.1207  154.2954 C   0  0  1  0  0  0  0  0  0  0  0  0
  151.2074  139.2527  155.2616 C   0  0  0  0  0  0  0  0  0  0  0  0
  151.9213  140.4401  154.9900 O   0  0  0  0  0  0  0  0  0  0  0  0
  150.4072  136.3704  155.2514 N   0  0  0  0  0  0  0  0  0  0  0  0
  150.5757  135.0417  155.4137 C   0  0  0  0  0  0  0  0  0  0  0  0
  149.5188  134.1197  155.2376 C   0  0  0  0  0  0  0  0  0  0  0  0
  149.7304  132.6466  155.4617 C   0  0  0  0  0  0  0  0  0  0  0  0
  148.9516  131.8097  155.0044 O   0  0  0  0  0  0  0  0  0  0  0  0
  150.7826  132.3349  156.2352 N   0  0  0  0  0  0  0  0  0  0  0  0
  151.1275  130.9892  156.6767 C   0  0  0  0  0  0  0  0  0  0  0  0
  152.3616  130.4531  155.9731 C   0  0  0  0  0  0  0  0  0  0  0  0
  152.1948  129.3620  155.2182 N   0  0  0  0  0  0  0  0  0  0  0  0
  153.2916  128.8733  154.6000 C   0  0  0  0  0  0  0  0  0  0  0  0
  154.5533  129.4870  154.7330 C   0  0  0  0  0  0  0  0  0  0  0  0
  154.6051  130.6358  155.5480 C   0  0  0  0  0  0  0  0  0  0  0  0
  153.5061  131.1168  156.1684 N   0  0  0  0  0  0  0  0  0  0  0  0
  145.5544  132.4561  152.7585 C   0  0  0  0  0  0  0  0  0  0  0  0
  145.0171  131.7860  151.6425 C   0  0  0  0  0  0  0  0  0  0  0  0
  145.3135  130.0947  151.4558 Cl  0  0  0  0  0  0  0  0  0  0  0  0
  150.3626  138.7729  153.3228 H   0  0  0  0  0  0  0  0  0  0  0  0
  143.1830  131.7515  147.6376 H   0  0  0  0  0  0  0  0  0  0  0  0
  144.4927  132.8696  147.9986 H   0  0  0  0  0  0  0  0  0  0  0  0
  142.8226  133.2513  148.4839 H   0  0  0  0  0  0  0  0  0  0  0  0
  143.4648  134.4546  150.1581 H   0  0  0  0  0  0  0  0  0  0  0  0
  144.4218  135.6078  152.0905 H   0  0  0  0  0  0  0  0  0  0  0  0
  146.2913  135.5580  153.7573 H   0  0  0  0  0  0  0  0  0  0  0  0
  145.2265  134.7452  154.8767 H   0  0  0  0  0  0  0  0  0  0  0  0
  146.8986  133.3138  155.4661 H   0  0  0  0  0  0  0  0  0  0  0  0
  146.9672  138.0539  154.1359 H   0  0  0  0  0  0  0  0  0  0  0  0
  147.2790  138.9912  155.6007 H   0  0  0  0  0  0  0  0  0  0  0  0
  147.7769  139.7581  152.7088 H   0  0  0  0  0  0  0  0  0  0  0  0
  147.0928  140.7703  153.9841 H   0  0  0  0  0  0  0  0  0  0  0  0
  149.7039  141.0788  153.3378 H   0  0  0  0  0  0  0  0  0  0  0  0
  149.2466  141.0139  155.0396 H   0  0  0  0  0  0  0  0  0  0  0  0
  150.8717  139.2630  156.2990 H   0  0  0  0  0  0  0  0  0  0  0  0
  151.9009  138.4190  155.1619 H   0  0  0  0  0  0  0  0  0  0  0  0
  152.4531  140.6493  155.7426 H   0  0  0  0  0  0  0  0  0  0  0  0
  151.5660  134.7190  155.7003 H   0  0  0  0  0  0  0  0  0  0  0  0
  151.3573  133.0865  156.5872 H   0  0  0  0  0  0  0  0  0  0  0  0
  151.2721  130.9587  157.7584 H   0  0  0  0  0  0  0  0  0  0  0  0
  150.2799  130.3351  156.4690 H   0  0  0  0  0  0  0  0  0  0  0  0
  153.1609  127.9916  153.9902 H   0  0  0  0  0  0  0  0  0  0  0  0
  155.4305  129.1008  154.2358 H   0  0  0  0  0  0  0  0  0  0  0  0
  155.5306  131.1705  155.7020 H   0  0  0  0  0  0  0  0  0  0  0  0
  146.1474  131.9092  153.4770 H   0  0  0  0  0  0  0  0  0  0  0  0
  1  2  1  0  0  0  0
  1 36  1  0  0  0  0
  1 37  1  0  0  0  0
  1 38  1  0  0  0  0
  2  3  1  0  0  0  0
  3 33  1  0  0  0  0
  3  4  2  0  0  0  0
  4  5  1  0  0  0  0
  4 39  1  0  0  0  0
  5  6  2  0  0  0  0
  5 40  1  0  0  0  0
  6  7  1  0  0  0  0
  6 32  1  0  0  0  0
  7  8  1  0  0  0  0
  7 41  1  0  0  0  0
  7 42  1  0  0  0  0
  8  9  1  0  0  0  0
  8 43  1  0  0  0  0
  9 21  1  0  0  0  0
  9 10  2  0  0  0  0
 10 11  1  0  0  0  0
 11 12  1  0  0  0  0
 11 19  2  0  0  0  0
 12 16  1  0  0  0  0
 12 13  1  0  0  0  0
 13 14  1  0  0  0  0
 13 44  1  0  0  0  0
 13 45  1  0  0  0  0
 14 15  1  0  0  0  0
 14 46  1  0  0  0  0
 14 47  1  0  0  0  0
 15 16  1  0  0  0  0
 15 48  1  0  0  0  0
 15 49  1  0  0  0  0
 16 35  1  0  0  0  0
 16 17  1  0  0  0  0
 17 18  1  0  0  0  0
 17 50  1  0  0  0  0
 17 51  1  0  0  0  0
 18 52  1  0  0  0  0
 19 20  1  0  0  0  0
 20 21  2  0  0  0  0
 20 53  1  0  0  0  0
 21 22  1  0  0  0  0
 22 23  2  0  0  0  0
 22 24  1  0  0  0  0
 24 25  1  0  0  0  0
 24 54  1  0  0  0  0
 25 26  1  0  0  0  0
 25 55  1  0  0  0  0
 25 56  1  0  0  0  0
 26 31  1  0  0  0  0
 26 27  2  0  0  0  0
 27 28  1  0  0  0  0
 28 29  2  0  0  0  0
 28 57  1  0  0  0  0
 29 30  1  0  0  0  0
 29 58  1  0  0  0  0
 30 31  2  0  0  0  0
 30 59  1  0  0  0  0
 32 33  2  0  0  0  0
 32 60  1  0  0  0  0
 33 34  1  0  0  0  0
M  END
> <s_m_source_file>
AV-unprocessed.smi

> <i_m_source_file_index>
45

> <i_lp_mmshare_version>
43012

> <i_f3d_flags>
0

> <s_epik_input>
W0NIM11PYzFbY0hdW2NIXWMoW2NIXWMxQ2wpW0NIMl1bTkhdYzJuYyhOM1tDSDJdW0NIMl1bQ0gyXVtDQEhdM1tDSDJdW09IXSluW2NIXWMyQyg9TylbTkhdW0NIMl1jNG5bY0hdW2NIXVtjSF1uNA==

> <s_epik_cmdline>
J2VwaWtfcHl0aG9uJywgJy1waCcsICc3LjAnLCAnLXRuJywgJzgnLCAnLW1hJywgJzIwMCcsICctbWV0YWxfYmluZGluZycsICctaW1hZScsICc8aW5maWxlLm1hZT4nLCAnLW9tYWUnLCAnPG91dGZpbGUubWFlPic=

> <r_lp_tautomer_probability>
1

> <r_epik_Ionization_Penalty>
0.0522664

> <r_epik_Ionization_Penalty_Charging>
0

> <r_epik_Ionization_Penalty_Neutral>
0.0522664

> <r_epik_State_Penalty>
0.0369431

> <r_epik_Charging_Adjusted_Penalty>
0.0369431

> <i_epik_Tot_Q>
0

> <i_epik_Tot_abs_Q>
0

> <r_epik_Metal_State_Penalty>
0.0404664

> <b_epik_Metal_Only>
0

> <s_epik_Chemistry_Notes>
This compound contains an electron-poor aromatic ring that is susceptible to covalent hydrolysis at low pH, typically resulting in measured values for nitrogen ring protonation that are around two units higher than predicted values.

> <s_lp_Force_Field>
OPLS_2005

> <r_lp_Energy>
30.7934

> <b_lp_Chiralities_Consistent>
1

> <s_lp_Variant>
AV-unprocessed.smi:45-1

> <Gold.Version>
5.8.1

> <Gold.Id.Protein>
6NUR|6NUR_protein|mol2

> <Gold.PLP.Fitness>
51.8662

> <Gold.PLP.PLP>
-47.9154

> <Gold.PLP.part.hbond>
-2.0000

> <Gold.PLP.part.metal>
0.0000

> <Gold.PLP.part.buried>
-7.5333

> <Gold.PLP.part.nonpolar>
-40.7427

> <Gold.PLP.part.repulsive>
1.1770

> <Gold.PLP.ligand.clash>
0.0000

> <Gold.PLP.ligand.torsion>
1.7474

> <Gold.PLP.Chemscore.Hbond>
1.3247

> <Gold.PLP.Chemscore.CHOScore>
1.0000

> <Gold.PLP.Chemscore.Metal>
0.0000

> <Gold.Chemscore.Hbonds>
donor molecule, donor type, donor heavy atom, donor atom, acceptor molecule, acceptor atom, score
      P1  H  7989  7998       L1    18  0.72
      P1  H 10785 10796       L1     2  0.39
      L1  C    28    57       P1 10737  1.00

> <Gold.PLP.Chemscore.Internal.Correction>
0.4716

> <Gold.Rescore>
     Score         DG    S(hbond)    S(metal)    S(lipo)     H(rot)  DE(clash)    DE(int)     intcor
      9.87     -14.21       0.78        0.00     121.42       3.16       0.15       4.19       ----

> <Gold.Chemscore.Fitness>
9.8716

> <Gold.Chemscore.DG>
-14.2128

> <Gold.Chemscore.ZeroCoef>
-5.4800

> <Gold.Chemscore.Hbond>
0.7809

> <Gold.Chemscore.Metal>
0.0000

> <Gold.Chemscore.Lipo>
121.4245

> <Gold.Chemscore.Internal_Hbond>
0.0000

> <Gold.Chemscore.DEClash>
0.1485

> <Gold.Chemscore.DEInternal>
4.1928

> <Gold.Chemscore.Rot>
3.1571

> <Gold.Chemscore.Internal.Correction>
   9.000000E+99

> <Gold.Chemscore.Hbonds>
donor molecule, donor type, donor heavy atom, donor atom, acceptor molecule, acceptor atom, score
      P1  H  7989  7998       L1    18  0.51
      P1  H 10785 10796       L1     2  0.01

> <Gold.Chemscore.Hbond.Weighted>
-2.6083

> <Gold.Chemscore.Metal.Weighted>
-0.0000

> <Gold.Chemscore.Lipo.Weighted>
-14.2067

> <Gold.Chemscore.Internal_Hbond.Weighted>
0.0000

> <Gold.Chemscore.DEClash.Weighted>
0.1485

> <Gold.Chemscore.DEInternal.Weighted>
4.1928

> <Gold.Chemscore.Rot.Weighted>
8.0822

> <Gold.Chemscore.Internal.Correction.Weighted>
   9.000000E+99

> <Gold.Protein.RotatedTorsions>
[ 6907 6896 6895 6894 ] final  156.68 input  -60.11 | X-H torsion
[ 7974 7965 7964 7962 ] final  161.60 input  175.53 | X-H torsion
[ 8008 7997 7996 7995 ] final -112.51 input   59.86 | X-H torsion
[ 10167 10162 10161 10158 ] final -172.50 input  -65.29 | X-H torsion
[ 10718 10713 10712 10709 ] final   90.89 input   66.30 | X-H torsion
[ 10763 10752 10751 10750 ] final -120.87 input  -60.55 | X-H torsion
[ 11005 11000 10999 10996 ] final   49.60 input  -57.11 | X-H torsion

> <Gold.Protein.ActiveResidues>
 VAL166  LYS551  ARG553  GLY616  TRP617  ASP618  TYR619  PRO620  LYS621  CYS622 
 ASP623  PHE694  ASN695  SER759  ASP760  ASP761  ALA762  ILE779  LEU786  VAL792 
 PHE793  MET794  SER795  GLU796  ALA797  LYS798  CYS799  TRP800  GLU811  SER814 

> <Gold.Protein.RotatedAtoms>
  152.0261  133.3918  159.4277 H   0  0  0  0  0  0  0  0  0  0  0  0  # atno 6907 bound_to 6896
  150.6886  134.3572  159.4944 H   0  0  0  0  0  0  0  0  0  0  0  0  # atno 6908 bound_to 6896
  152.1352  134.9104  160.0607 H   0  0  0  0  0  0  0  0  0  0  0  0  # atno 6909 bound_to 6896
  144.7678  139.7921  143.6308 H   0  0  0  0  0  0  0  0  0  0  0  0  # atno 7974 bound_to 7965
  155.0064  140.0394  157.2381 H   0  0  0  0  0  0  0  0  0  0  0  0  # atno 8008 bound_to 7997
  154.7499  140.2765  155.6279 H   0  0  0  0  0  0  0  0  0  0  0  0  # atno 8009 bound_to 7997
  156.2883  140.2649  156.2249 H   0  0  0  0  0  0  0  0  0  0  0  0  # atno 8010 bound_to 7997
  139.5741  144.1574  152.1425 H   0  0  0  0  0  0  0  0  0  0  0  0  # atno 10167 bound_to 10162
  157.6960  131.0387  150.3647 H   0  0  0  0  0  0  0  0  0  0  0  0  # atno 10718 bound_to 10713
  154.8655  135.4187  154.2530 H   0  0  0  0  0  0  0  0  0  0  0  0  # atno 10763 bound_to 10752
  153.3472  135.6997  153.6823 H   0  0  0  0  0  0  0  0  0  0  0  0  # atno 10764 bound_to 10752
  153.5778  135.3579  155.2836 H   0  0  0  0  0  0  0  0  0  0  0  0  # atno 10765 bound_to 10752
  140.1089  134.4981  155.8695 H   0  0  0  0  0  0  0  0  0  0  0  0  # atno 11005 bound_to 11000
  146.1799  139.4987  142.9873 LP  0  0  0  0  0  0  0  0  0  0  0  0  # atno 17320 bound_to 7965
  145.6417  141.0283  143.1808 LP  0  0  0  0  0  0  0  0  0  0  0  0  # atno 17321 bound_to 7965
  140.1113  144.5455  150.6923 LP  0  0  0  0  0  0  0  0  0  0  0  0  # atno 17342 bound_to 10162
  140.7024  143.2444  151.4825 LP  0  0  0  0  0  0  0  0  0  0  0  0  # atno 17343 bound_to 10162
  156.4079  130.3928  149.6913 LP  0  0  0  0  0  0  0  0  0  0  0  0  # atno 17370 bound_to 10713
  156.4207  130.7767  151.2784 LP  0  0  0  0  0  0  0  0  0  0  0  0  # atno 17371 bound_to 10713
  141.2125  133.6720  156.6666 LP  0  0  0  0  0  0  0  0  0  0  0  0  # atno 17394 bound_to 11000
  140.3118  134.8080  157.4182 LP  0  0  0  0  0  0  0  0  0  0  0  0  # atno 17395 bound_to 11000

$$$$
