AV-unprocessed.smi:668|AV-procd|sdf|3260|dock9
  -GOLD-   22720 0213D 1   1.00000     0.00000
 Structure written by MMmdl.
 38 39  0  0  0  0  0  0  0  0  1 V2000
  152.6030  131.0415  157.8715 C   0  0  0  0  0  0  0  0  0  0  0  0
  152.2568  132.4163  157.7450 O   0  0  0  0  0  0  0  0  0  0  0  0
  151.4182  132.7888  156.7145 C   0  0  0  0  0  0  0  0  0  0  0  0
  151.2095  134.1619  156.4781 C   0  0  0  0  0  0  0  0  0  0  0  0
  150.3528  134.5514  155.4308 C   0  0  0  0  0  0  0  0  0  0  0  0
  149.7345  133.5498  154.6439 C   0  0  0  0  0  0  0  0  0  0  0  0
  148.8379  133.8022  153.5694 N   0  0  0  0  0  0  0  0  0  0  0  0
  147.9910  132.9585  152.9552 C   0  0  0  0  0  0  0  0  0  0  0  0
  147.8191  131.7758  153.2484 O   0  0  0  0  0  0  0  0  0  0  0  0
  147.3341  133.5736  151.9619 N   0  0  0  0  0  0  0  0  0  0  0  0
  146.3534  132.9350  151.0822 C   0  0  1  0  0  0  0  0  0  0  0  0
  145.2858  132.1775  151.8937 C   0  0  0  0  0  0  0  0  0  0  0  0
  143.9383  132.4373  151.2076 C   0  0  0  0  0  0  0  0  0  0  0  0
  144.2631  133.1666  149.9006 C   0  0  0  0  0  0  0  0  0  0  0  0
  145.5844  133.9088  150.1503 C   0  0  1  0  0  0  0  0  0  0  0  0
  145.3277  135.3133  150.7396 C   0  0  0  0  0  0  0  0  0  0  0  0
  145.1051  136.3019  149.8700 N   0  0  0  0  0  0  0  0  0  0  0  0
  145.3377  135.5071  151.9542 O   0  0  0  0  0  0  0  0  0  0  0  0
  150.0034  132.2041  154.9687 C   0  0  0  0  0  0  0  0  0  0  0  0
  150.8226  131.8238  155.9715 N   0  0  0  0  0  0  0  0  0  0  0  0
  153.2667  130.9145  158.7266 H   0  0  0  0  0  0  0  0  0  0  0  0
  153.1298  130.6787  156.9876 H   0  0  0  0  0  0  0  0  0  0  0  0
  151.7212  130.4226  158.0425 H   0  0  0  0  0  0  0  0  0  0  0  0
  151.6949  134.9052  157.0932 H   0  0  0  0  0  0  0  0  0  0  0  0
  150.1838  135.6036  155.2671 H   0  0  0  0  0  0  0  0  0  0  0  0
  148.8176  134.7580  153.2447 H   0  0  0  0  0  0  0  0  0  0  0  0
  147.5357  134.5472  151.7864 H   0  0  0  0  0  0  0  0  0  0  0  0
  146.8702  132.2058  150.4546 H   0  0  0  0  0  0  0  0  0  0  0  0
  145.5147  131.1115  151.9252 H   0  0  0  0  0  0  0  0  0  0  0  0
  145.2412  132.5262  152.9266 H   0  0  0  0  0  0  0  0  0  0  0  0
  143.3818  131.5162  151.0310 H   0  0  0  0  0  0  0  0  0  0  0  0
  143.3201  133.0721  151.8434 H   0  0  0  0  0  0  0  0  0  0  0  0
  144.4079  132.4367  149.1030 H   0  0  0  0  0  0  0  0  0  0  0  0
  143.4505  133.8237  149.5867 H   0  0  0  0  0  0  0  0  0  0  0  0
  146.1276  134.0264  149.2109 H   0  0  0  0  0  0  0  0  0  0  0  0
  144.9266  137.2377  150.2046 H   0  0  0  0  0  0  0  0  0  0  0  0
  145.1108  136.1081  148.8792 H   0  0  0  0  0  0  0  0  0  0  0  0
  149.5475  131.4033  154.4047 H   0  0  0  0  0  0  0  0  0  0  0  0
  1  2  1  0  0  0  0
  1 21  1  0  0  0  0
  1 22  1  0  0  0  0
  1 23  1  0  0  0  0
  2  3  1  0  0  0  0
  3 20  1  0  0  0  0
  3  4  2  0  0  0  0
  4  5  1  0  0  0  0
  4 24  1  0  0  0  0
  5  6  2  0  0  0  0
  5 25  1  0  0  0  0
  6  7  1  0  0  0  0
  6 19  1  0  0  0  0
  7  8  1  0  0  0  0
  7 26  1  0  0  0  0
  8  9  2  0  0  0  0
  8 10  1  0  0  0  0
 10 11  1  0  0  0  0
 10 27  1  0  0  0  0
 11 15  1  0  0  0  0
 11 12  1  0  0  0  0
 11 28  1  0  0  0  0
 12 13  1  0  0  0  0
 12 29  1  0  0  0  0
 12 30  1  0  0  0  0
 13 14  1  0  0  0  0
 13 31  1  0  0  0  0
 13 32  1  0  0  0  0
 14 15  1  0  0  0  0
 14 33  1  0  0  0  0
 14 34  1  0  0  0  0
 15 16  1  0  0  0  0
 15 35  1  0  0  0  0
 16 17  1  0  0  0  0
 16 18  2  0  0  0  0
 17 36  1  0  0  0  0
 17 37  1  0  0  0  0
 19 20  2  0  0  0  0
 19 38  1  0  0  0  0
M  END
> <s_m_source_file>
AV-unprocessed.smi

> <i_m_source_file_index>
668

> <i_lp_mmshare_version>
43012

> <i_f3d_flags>
0

> <s_epik_input>
W0NIM11PYzFbY0hdW2NIXWMoW2NIXW4xKVtOSF1DKD1PKVtOSF1bQ0BASF0yW0NIMl1bQ0gyXVtDSDJdW0NASF0yQyg9TylbTkgyXQ==

> <s_epik_cmdline>
J2VwaWtfcHl0aG9uJywgJy1waCcsICc3LjAnLCAnLXRuJywgJzgnLCAnLW1hJywgJzIwMCcsICctbWV0YWxfYmluZGluZycsICctaW1hZScsICc8aW5maWxlLm1hZT4nLCAnLW9tYWUnLCAnPG91dGZpbGUubWFlPic=

> <r_lp_tautomer_probability>
1

> <r_epik_Ionization_Penalty>
9.0916e-05

> <r_epik_Ionization_Penalty_Charging>
0

> <r_epik_Ionization_Penalty_Neutral>
9.0916e-05

> <r_epik_State_Penalty>
-0

> <r_epik_Charging_Adjusted_Penalty>
0

> <i_epik_Tot_Q>
0

> <i_epik_Tot_abs_Q>
0

> <r_epik_Metal_State_Penalty>
-0

> <b_epik_Metal_Only>
0

> <s_lp_Force_Field>
OPLS_2005

> <r_lp_Energy>
16.947

> <b_lp_Chiralities_Consistent>
1

> <s_lp_Variant>
AV-unprocessed.smi:668-2

> <Gold.Version>
5.8.1

> <Gold.Id.Protein>
6NUR|6NUR_protein|mol2

> <Gold.PLP.Fitness>
45.2279

> <Gold.PLP.PLP>
-33.8158

> <Gold.PLP.part.hbond>
-5.0000

> <Gold.PLP.part.metal>
0.0000

> <Gold.PLP.part.buried>
-3.1140

> <Gold.PLP.part.nonpolar>
-24.9769

> <Gold.PLP.part.repulsive>
0.4182

> <Gold.PLP.ligand.clash>
0.0000

> <Gold.PLP.ligand.torsion>
0.8693

> <Gold.PLP.Chemscore.Hbond>
4.3766

> <Gold.PLP.Chemscore.CHOScore>
0.0000

> <Gold.PLP.Chemscore.Metal>
0.0000

> <Gold.Chemscore.Hbonds>
donor molecule, donor type, donor heavy atom, donor atom, acceptor molecule, acceptor atom, score
      L1  H     7    26       P1  7948  1.00
      L1  H    10    27       P1  7948  0.68
      L1  H    17    36       P1 10171  0.74
      L1  H    17    37       P1  7921  0.71
      P1  H  6896  6909       L1     2  1.00

> <Gold.PLP.Chemscore.Internal.Correction>
0.0210

> <Gold.Rescore>
     Score         DG    S(hbond)    S(metal)    S(lipo)     H(rot)  DE(clash)    DE(int)     intcor
     12.49     -17.57       2.98        0.00      59.09       1.86       0.15       4.93       ----

> <Gold.Chemscore.Fitness>
12.4926

> <Gold.Chemscore.DG>
-17.5694

> <Gold.Chemscore.ZeroCoef>
-5.4800

> <Gold.Chemscore.Hbond>
2.9789

> <Gold.Chemscore.Metal>
0.0000

> <Gold.Chemscore.Lipo>
59.0929

> <Gold.Chemscore.Internal_Hbond>
0.0000

> <Gold.Chemscore.DEClash>
0.1470

> <Gold.Chemscore.DEInternal>
4.9298

> <Gold.Chemscore.Rot>
1.8648

> <Gold.Chemscore.Internal.Correction>
   9.000000E+99

> <Gold.Chemscore.Hbonds>
donor molecule, donor type, donor heavy atom, donor atom, acceptor molecule, acceptor atom, score
      L1  H     7    26       P1  7948  0.24
      L1  H    10    27       P1  7948  0.26
      L1  H    17    36       P1 10171  0.74
      L1  H    17    37       P1  7921  0.66
      P1  H  6896  6909       L1     2  0.81

> <Gold.Chemscore.Hbond.Weighted>
-9.9494

> <Gold.Chemscore.Metal.Weighted>
-0.0000

> <Gold.Chemscore.Lipo.Weighted>
-6.9139

> <Gold.Chemscore.Internal_Hbond.Weighted>
0.0000

> <Gold.Chemscore.DEClash.Weighted>
0.1470

> <Gold.Chemscore.DEInternal.Weighted>
4.9298

> <Gold.Chemscore.Rot.Weighted>
4.7739

> <Gold.Chemscore.Internal.Correction.Weighted>
   9.000000E+99

> <Gold.Protein.RotatedTorsions>
[ 6907 6896 6895 6894 ] final  -79.52 input  -60.11 | X-H torsion
[ 7974 7965 7964 7962 ] final  -62.14 input  175.53 | X-H torsion
[ 8008 7997 7996 7995 ] final  -25.04 input   59.86 | X-H torsion
[ 10167 10162 10161 10158 ] final  -90.53 input  -65.29 | X-H torsion
[ 10718 10713 10712 10709 ] final   23.18 input   66.30 | X-H torsion
[ 10763 10752 10751 10750 ] final -168.27 input  -60.55 | X-H torsion
[ 11005 11000 10999 10996 ] final  -29.93 input  -57.11 | X-H torsion

> <Gold.Protein.ActiveResidues>
 VAL166  LYS551  ARG553  GLY616  TRP617  ASP618  TYR619  PRO620  LYS621  CYS622 
 ASP623  PHE694  ASN695  SER759  ASP760  ASP761  ALA762  ILE779  LEU786  VAL792 
 PHE793  MET794  SER795  GLU796  ALA797  LYS798  CYS799  TRP800  GLU811  SER814 

> <Gold.Protein.RotatedAtoms>
  150.6948  134.4109  159.5160 H   0  0  0  0  0  0  0  0  0  0  0  0  # atno 6907 bound_to 6896
  152.1867  134.8704  160.0530 H   0  0  0  0  0  0  0  0  0  0  0  0  # atno 6908 bound_to 6896
  151.9675  133.3680  159.4095 H   0  0  0  0  0  0  0  0  0  0  0  0  # atno 6909 bound_to 6896
  145.7949  140.8689  143.0261 H   0  0  0  0  0  0  0  0  0  0  0  0  # atno 7974 bound_to 7965
  154.4497  140.1937  156.0557 H   0  0  0  0  0  0  0  0  0  0  0  0  # atno 8008 bound_to 7997
  156.0620  140.3295  155.7446 H   0  0  0  0  0  0  0  0  0  0  0  0  # atno 8009 bound_to 7997
  155.5396  140.0585  157.2863 H   0  0  0  0  0  0  0  0  0  0  0  0  # atno 8010 bound_to 7997
  140.3539  143.2876  151.9693 H   0  0  0  0  0  0  0  0  0  0  0  0  # atno 10167 bound_to 10162
  157.1626  130.6723  149.6049 H   0  0  0  0  0  0  0  0  0  0  0  0  # atno 10718 bound_to 10713
  154.6646  135.2930  154.9822 H   0  0  0  0  0  0  0  0  0  0  0  0  # atno 10763 bound_to 10752
  154.0870  135.6596  153.4850 H   0  0  0  0  0  0  0  0  0  0  0  0  # atno 10764 bound_to 10752
  153.0450  135.5211  154.7613 H   0  0  0  0  0  0  0  0  0  0  0  0  # atno 10765 bound_to 10752
  140.9339  133.7321  156.0977 H   0  0  0  0  0  0  0  0  0  0  0  0  # atno 11005 bound_to 11000
  144.6776  140.0176  143.7484 LP  0  0  0  0  0  0  0  0  0  0  0  0  # atno 17320 bound_to 7965
  145.9939  139.3036  143.0968 LP  0  0  0  0  0  0  0  0  0  0  0  0  # atno 17321 bound_to 7965
  139.4822  144.6051  151.7535 LP  0  0  0  0  0  0  0  0  0  0  0  0  # atno 17342 bound_to 10162
  140.5192  144.0905  150.6017 LP  0  0  0  0  0  0  0  0  0  0  0  0  # atno 17343 bound_to 10162
  155.9751  130.4706  150.6437 LP  0  0  0  0  0  0  0  0  0  0  0  0  # atno 17370 bound_to 10713
  157.4118  131.0824  151.1213 LP  0  0  0  0  0  0  0  0  0  0  0  0  # atno 17371 bound_to 10713
  140.7825  134.3709  157.5484 LP  0  0  0  0  0  0  0  0  0  0  0  0  # atno 17394 bound_to 11000
  139.8803  134.9090  156.2982 LP  0  0  0  0  0  0  0  0  0  0  0  0  # atno 17395 bound_to 11000

$$$$
