AV-unprocessed.smi:2605|AV-procd|sdf|10195|dock7
  -GOLD-   2272014203D 1   1.00000     0.00000
 Structure written by MMmdl.
 26 27  0  0  0  0  0  0  0  0  2 V2000
  151.4483  139.2995  154.9020 C   0  0  0  0  0  0  0  0  0  0  0  0
  151.7705  140.1655  155.9662 C   0  0  0  0  0  0  0  0  0  0  0  0
  150.9123  141.2522  156.2374 C   0  0  0  0  0  0  0  0  0  0  0  0
  151.2285  142.2190  157.3677 C   0  0  2  0  0  0  0  0  0  0  0  0
  150.2077  142.1478  158.5272 C   0  0  0  0  0  0  0  0  0  0  0  0
  150.5882  143.0790  159.5856 N   0  0  0  0  0  0  0  0  0  0  0  0
  150.5659  144.4369  159.0507 C   0  0  0  0  0  0  0  0  0  0  0  0
  151.5997  144.5680  157.9165 C   0  0  0  0  0  0  0  0  0  0  0  0
  151.3014  143.5989  156.8428 N   0  3  0  0  0  0  0  0  0  0  0  0
  149.7727  141.4247  155.4210 C   0  0  0  0  0  0  0  0  0  0  0  0
  149.5416  140.5011  154.3817 C   0  0  0  0  0  0  0  0  0  0  0  0
  150.3583  139.4584  154.1215 N   0  0  0  0  0  0  0  0  0  0  0  0
  152.0844  138.4579  154.6710 H   0  0  0  0  0  0  0  0  0  0  0  0
  152.6574  139.9920  156.5580 H   0  0  0  0  0  0  0  0  0  0  0  0
  152.2143  141.9637  157.7615 H   0  0  0  0  0  0  0  0  0  0  0  0
  149.1976  142.3788  158.1871 H   0  0  0  0  0  0  0  0  0  0  0  0
  150.1831  141.1398  158.9422 H   0  0  0  0  0  0  0  0  0  0  0  0
  149.9323  143.0065  160.3515 H   0  0  0  0  0  0  0  0  0  0  0  0
  149.5640  144.6825  158.6953 H   0  0  0  0  0  0  0  0  0  0  0  0
  150.8009  145.1365  159.8532 H   0  0  0  0  0  0  0  0  0  0  0  0
  151.5825  145.5756  157.5012 H   0  0  0  0  0  0  0  0  0  0  0  0
  152.6085  144.3949  158.2945 H   0  0  0  0  0  0  0  0  0  0  0  0
  152.0174  143.6499  156.1325 H   0  0  0  0  0  0  0  0  0  0  0  0
  149.0875  142.2444  155.5778 H   0  0  0  0  0  0  0  0  0  0  0  0
  148.6792  140.6056  153.7402 H   0  0  0  0  0  0  0  0  0  0  0  0
  150.4093  143.8327  156.4314 H   0  0  0  0  0  0  0  0  0  0  0  0
  1 12  1  0  0  0  0
  1  2  2  0  0  0  0
  1 13  1  0  0  0  0
  2  3  1  0  0  0  0
  2 14  1  0  0  0  0
  3  4  1  0  0  0  0
  3 10  2  0  0  0  0
  4  9  1  0  0  0  0
  4  5  1  0  0  0  0
  4 15  1  0  0  0  0
  5  6  1  0  0  0  0
  5 16  1  0  0  0  0
  5 17  1  0  0  0  0
  6  7  1  0  0  0  0
  6 18  1  0  0  0  0
  7  8  1  0  0  0  0
  7 19  1  0  0  0  0
  7 20  1  0  0  0  0
  8  9  1  0  0  0  0
  8 21  1  0  0  0  0
  8 22  1  0  0  0  0
  9 23  1  0  0  0  0
  9 26  1  0  0  0  0
 10 11  1  0  0  0  0
 10 24  1  0  0  0  0
 11 12  2  0  0  0  0
 11 25  1  0  0  0  0
M  CHG  1   9   1
M  END
> <s_m_source_file>
AV-unprocessed.smi

> <i_m_source_file_index>
2605

> <i_lp_mmshare_version>
43012

> <i_f3d_flags>
0

> <s_epik_input>
W2NIXTFbY0hdbltjSF1bY0hdYzFbQ0BASF0yW0NIMl1bTkhdW0NIMl1bQ0gyXVtOSF0y

> <s_epik_cmdline>
J2VwaWtfcHl0aG9uJywgJy1waCcsICc3LjAnLCAnLXRuJywgJzgnLCAnLW1hJywgJzIwMCcsICctbWV0YWxfYmluZGluZycsICctaW1hZScsICc8aW5maWxlLm1hZT4nLCAnLW9tYWUnLCAnPG91dGZpbGUubWFlPic=

> <r_epik_Ionization_Penalty>
0.0246915

> <r_epik_Ionization_Penalty_Charging>
0.015072

> <r_epik_Ionization_Penalty_Neutral>
0.00961942

> <r_epik_State_Penalty>
0.518662

> <r_epik_Charging_Adjusted_Penalty>
0.533734

> <i_epik_Tot_Q>
1

> <i_epik_Tot_abs_Q>
1

> <r_epik_Metal_State_Penalty>
0.520249

> <b_epik_Metal_Only>
0

> <s_lp_Force_Field>
OPLS_2005

> <r_lp_Energy>
7.08803

> <b_lp_Chiralities_Consistent>
1

> <s_lp_Variant>
AV-unprocessed.smi:2605-3

> <Gold.Version>
5.8.1

> <Gold.Id.Protein>
6NUR|6NUR_protein|mol2

> <Gold.PLP.Fitness>
34.2625

> <Gold.PLP.PLP>
-27.8860

> <Gold.PLP.part.hbond>
-3.0000

> <Gold.PLP.part.metal>
0.0000

> <Gold.PLP.part.buried>
-0.9134

> <Gold.PLP.part.nonpolar>
-23.5582

> <Gold.PLP.part.repulsive>
0.3798

> <Gold.PLP.ligand.clash>
0.0000

> <Gold.PLP.ligand.torsion>
0.0707

> <Gold.PLP.Chemscore.Hbond>
2.0000

> <Gold.PLP.Chemscore.CHOScore>
0.1687

> <Gold.PLP.Chemscore.Metal>
0.0000

> <Gold.Chemscore.Hbonds>
donor molecule, donor type, donor heavy atom, donor atom, acceptor molecule, acceptor atom, score
      L1  H     9    26       P1  8028  2.00
      L1  C    11    25       P1  7957  0.17

> <Gold.PLP.Chemscore.Internal.Correction>
0.0118

> <Gold.Rescore>
     Score         DG    S(hbond)    S(metal)    S(lipo)     H(rot)  DE(clash)    DE(int)     intcor
     14.72     -14.80       0.99        0.00      73.24       1.00       0.06       0.01       ----

> <Gold.Chemscore.Fitness>
14.7249

> <Gold.Chemscore.DG>
-14.7992

> <Gold.Chemscore.ZeroCoef>
-5.4800

> <Gold.Chemscore.Hbond>
0.9912

> <Gold.Chemscore.Metal>
0.0000

> <Gold.Chemscore.Lipo>
73.2365

> <Gold.Chemscore.Internal_Hbond>
0.0000

> <Gold.Chemscore.DEClash>
0.0600

> <Gold.Chemscore.DEInternal>
0.0143

> <Gold.Chemscore.Rot>
1.0000

> <Gold.Chemscore.Internal.Correction>
   9.000000E+99

> <Gold.Chemscore.Hbonds>
donor molecule, donor type, donor heavy atom, donor atom, acceptor molecule, acceptor atom, score
      L1  H     9    26       P1  8028  1.00

> <Gold.Chemscore.Hbond.Weighted>
-3.3106

> <Gold.Chemscore.Metal.Weighted>
-0.0000

> <Gold.Chemscore.Lipo.Weighted>
-8.5687

> <Gold.Chemscore.Internal_Hbond.Weighted>
0.0000

> <Gold.Chemscore.DEClash.Weighted>
0.0600

> <Gold.Chemscore.DEInternal.Weighted>
0.0143

> <Gold.Chemscore.Rot.Weighted>
2.5600

> <Gold.Chemscore.Internal.Correction.Weighted>
   9.000000E+99

> <Gold.Protein.RotatedTorsions>
[ 6907 6896 6895 6894 ] final -111.57 input  -60.11 | X-H torsion
[ 7974 7965 7964 7962 ] final  126.39 input  175.53 | X-H torsion
[ 8008 7997 7996 7995 ] final   26.47 input   59.86 | X-H torsion
[ 10167 10162 10161 10158 ] final  126.46 input  -65.29 | X-H torsion
[ 10718 10713 10712 10709 ] final -155.48 input   66.30 | X-H torsion
[ 10763 10752 10751 10750 ] final  -10.05 input  -60.55 | X-H torsion
[ 11005 11000 10999 10996 ] final   -9.31 input  -57.11 | X-H torsion

> <Gold.Protein.ActiveResidues>
 VAL166  LYS551  ARG553  GLY616  TRP617  ASP618  TYR619  PRO620  LYS621  CYS622 
 ASP623  PHE694  ASN695  SER759  ASP760  ASP761  ALA762  ILE779  LEU786  VAL792 
 PHE793  MET794  SER795  GLU796  ALA797  LYS798  CYS799  TRP800  GLU811  SER814 

> <Gold.Protein.RotatedAtoms>
  150.7699  133.9216  159.3399 H   0  0  0  0  0  0  0  0  0  0  0  0  # atno 6907 bound_to 6896
  151.7105  135.0911  160.0276 H   0  0  0  0  0  0  0  0  0  0  0  0  # atno 6908 bound_to 6896
  152.3712  133.6384  159.6124 H   0  0  0  0  0  0  0  0  0  0  0  0  # atno 6909 bound_to 6896
  145.0622  139.3796  143.5000 H   0  0  0  0  0  0  0  0  0  0  0  0  # atno 7974 bound_to 7965
  155.0278  140.3155  155.4769 H   0  0  0  0  0  0  0  0  0  0  0  0  # atno 8008 bound_to 7997
  156.2880  140.2186  156.5341 H   0  0  0  0  0  0  0  0  0  0  0  0  # atno 8009 bound_to 7997
  154.7396  140.0474  157.0787 H   0  0  0  0  0  0  0  0  0  0  0  0  # atno 8010 bound_to 7997
  139.5630  144.6894  151.3989 H   0  0  0  0  0  0  0  0  0  0  0  0  # atno 10167 bound_to 10162
  156.5134  130.8445  151.2655 H   0  0  0  0  0  0  0  0  0  0  0  0  # atno 10718 bound_to 10713
  153.4636  135.7016  153.6036 H   0  0  0  0  0  0  0  0  0  0  0  0  # atno 10763 bound_to 10752
  153.4320  135.3800  155.2176 H   0  0  0  0  0  0  0  0  0  0  0  0  # atno 10764 bound_to 10752
  154.8727  135.3953  154.4064 H   0  0  0  0  0  0  0  0  0  0  0  0  # atno 10765 bound_to 10752
  140.7328  133.8735  155.8906 H   0  0  0  0  0  0  0  0  0  0  0  0  # atno 11005 bound_to 11000
  146.3525  140.0326  142.8649 LP  0  0  0  0  0  0  0  0  0  0  0  0  # atno 17320 bound_to 7965
  145.1395  140.9563  143.4497 LP  0  0  0  0  0  0  0  0  0  0  0  0  # atno 17321 bound_to 7965
  140.6911  143.7858  150.7257 LP  0  0  0  0  0  0  0  0  0  0  0  0  # atno 17342 bound_to 10162
  140.1341  143.4500  152.2236 LP  0  0  0  0  0  0  0  0  0  0  0  0  # atno 17343 bound_to 10162
  157.7447  130.9942  150.2698 LP  0  0  0  0  0  0  0  0  0  0  0  0  # atno 17370 bound_to 10713
  156.3218  130.3787  149.7568 LP  0  0  0  0  0  0  0  0  0  0  0  0  # atno 17371 bound_to 10713
  140.9906  134.1284  157.4411 LP  0  0  0  0  0  0  0  0  0  0  0  0  # atno 17394 bound_to 11000
  139.8822  135.0039  156.6216 LP  0  0  0  0  0  0  0  0  0  0  0  0  # atno 17395 bound_to 11000

$$$$
