AV-unprocessed.smi:1446|AV-procd|sdf|5889|dock4
  -GOLD-   22720 5573D 1   1.00000     0.00000
 Structure written by MMmdl.
 47 48  0  0  0  0  0  0  0  0  1 V2000
  145.4108  136.0734  151.7587 C   0  0  0  0  0  0  0  0  0  0  0  0
  145.7504  135.2580  153.0013 C   0  0  0  0  0  0  0  0  0  0  0  0
  144.8717  134.6247  153.5853 O   0  0  0  0  0  0  0  0  0  0  0  0
  147.0338  135.2818  153.3938 N   0  0  0  0  0  0  0  0  0  0  0  0
  147.5802  134.5767  154.5556 C   0  0  2  0  0  0  0  0  0  0  0  0
  148.1629  135.6127  155.5374 C   0  0  0  0  0  0  0  0  0  0  0  0
  147.9909  135.4747  156.7499 O   0  0  0  0  0  0  0  0  0  0  0  0
  148.8268  136.6393  154.9730 N   0  0  0  0  0  0  0  0  0  0  0  0
  149.4515  137.7425  155.6125 C   0  0  0  0  0  0  0  0  0  0  0  0
  149.9797  138.7192  154.7426 C   0  0  0  0  0  0  0  0  0  0  0  0
  150.6159  139.8555  155.2780 C   0  0  0  0  0  0  0  0  0  0  0  0
  150.7201  140.0005  156.6820 C   0  0  0  0  0  0  0  0  0  0  0  0
  151.3381  141.1141  157.2916 N   0  0  0  0  0  0  0  0  0  0  0  0
  150.7625  142.4192  156.9750 C   0  0  0  0  0  0  0  0  0  0  0  0
  151.7133  143.5455  157.4172 C   0  0  0  0  0  0  0  0  0  0  0  0
  152.0293  143.3967  158.7976 O   0  0  0  0  0  0  0  0  0  0  0  0
  152.6941  142.1650  159.0577 C   0  0  0  0  0  0  0  0  0  0  0  0
  151.7760  140.9901  158.6789 C   0  0  0  0  0  0  0  0  0  0  0  0
  150.1578  138.9681  157.4678 C   0  0  0  0  0  0  0  0  0  0  0  0
  149.5458  137.8797  156.9566 N   0  0  0  0  0  0  0  0  0  0  0  0
  148.7015  133.6074  154.0764 C   0  0  0  0  0  0  0  0  0  0  0  0
  148.1588  132.5178  153.1302 C   0  0  0  0  0  0  0  0  0  0  0  0
  149.4507  132.9323  155.2441 C   0  0  0  0  0  0  0  0  0  0  0  0
  145.6015  137.1320  151.9351 H   0  0  0  0  0  0  0  0  0  0  0  0
  144.3601  135.9547  151.4918 H   0  0  0  0  0  0  0  0  0  0  0  0
  146.0166  135.7482  150.9126 H   0  0  0  0  0  0  0  0  0  0  0  0
  147.6829  135.8370  152.8553 H   0  0  0  0  0  0  0  0  0  0  0  0
  146.7880  134.0024  155.0409 H   0  0  0  0  0  0  0  0  0  0  0  0
  148.8921  136.6266  153.9658 H   0  0  0  0  0  0  0  0  0  0  0  0
  149.9014  138.6037  153.6712 H   0  0  0  0  0  0  0  0  0  0  0  0
  151.0196  140.5904  154.5982 H   0  0  0  0  0  0  0  0  0  0  0  0
  150.5589  142.5250  155.9103 H   0  0  0  0  0  0  0  0  0  0  0  0
  149.8067  142.5158  157.4914 H   0  0  0  0  0  0  0  0  0  0  0  0
  152.6275  143.5387  156.8214 H   0  0  0  0  0  0  0  0  0  0  0  0
  151.2413  144.5158  157.2635 H   0  0  0  0  0  0  0  0  0  0  0  0
  153.6319  142.1206  158.5015 H   0  0  0  0  0  0  0  0  0  0  0  0
  152.9493  142.1154  160.1162 H   0  0  0  0  0  0  0  0  0  0  0  0
  150.9036  140.9741  159.3337 H   0  0  0  0  0  0  0  0  0  0  0  0
  152.3146  140.0528  158.8227 H   0  0  0  0  0  0  0  0  0  0  0  0
  150.1751  139.0160  158.5464 H   0  0  0  0  0  0  0  0  0  0  0  0
  149.4374  134.1811  153.5100 H   0  0  0  0  0  0  0  0  0  0  0  0
  147.3850  131.9227  153.6161 H   0  0  0  0  0  0  0  0  0  0  0  0
  148.9521  131.8376  152.8186 H   0  0  0  0  0  0  0  0  0  0  0  0
  147.7319  132.9407  152.2209 H   0  0  0  0  0  0  0  0  0  0  0  0
  148.7636  132.3828  155.8883 H   0  0  0  0  0  0  0  0  0  0  0  0
  149.9841  133.6538  155.8633 H   0  0  0  0  0  0  0  0  0  0  0  0
  150.1943  132.2252  154.8760 H   0  0  0  0  0  0  0  0  0  0  0  0
  1  2  1  0  0  0  0
  1 24  1  0  0  0  0
  1 25  1  0  0  0  0
  1 26  1  0  0  0  0
  2  3  2  0  0  0  0
  2  4  1  0  0  0  0
  4  5  1  0  0  0  0
  4 27  1  0  0  0  0
  5  6  1  0  0  0  0
  5 21  1  0  0  0  0
  5 28  1  0  0  0  0
  6  7  2  0  0  0  0
  6  8  1  0  0  0  0
  8  9  1  0  0  0  0
  8 29  1  0  0  0  0
  9 20  1  0  0  0  0
  9 10  2  0  0  0  0
 10 11  1  0  0  0  0
 10 30  1  0  0  0  0
 11 12  2  0  0  0  0
 11 31  1  0  0  0  0
 12 13  1  0  0  0  0
 12 19  1  0  0  0  0
 13 18  1  0  0  0  0
 13 14  1  0  0  0  0
 14 15  1  0  0  0  0
 14 32  1  0  0  0  0
 14 33  1  0  0  0  0
 15 16  1  0  0  0  0
 15 34  1  0  0  0  0
 15 35  1  0  0  0  0
 16 17  1  0  0  0  0
 17 18  1  0  0  0  0
 17 36  1  0  0  0  0
 17 37  1  0  0  0  0
 18 38  1  0  0  0  0
 18 39  1  0  0  0  0
 19 20  2  0  0  0  0
 19 40  1  0  0  0  0
 21 22  1  0  0  0  0
 21 23  1  0  0  0  0
 21 41  1  0  0  0  0
 22 42  1  0  0  0  0
 22 43  1  0  0  0  0
 22 44  1  0  0  0  0
 23 45  1  0  0  0  0
 23 46  1  0  0  0  0
 23 47  1  0  0  0  0
M  END
> <s_m_source_file>
AV-unprocessed.smi

> <i_m_source_file_index>
1446

> <i_lp_mmshare_version>
43012

> <i_f3d_flags>
0

> <s_epik_input>
W0NIM11DKD1PKVtOSF1bQ0BASF0oW0NIXShbQ0gzXSlbQ0gzXSlDKD1PKVtOSF1jMVtjSF1bY0hdYyhbY0hdbjEpTjJbQ0gyXVtDSDJdT1tDSDJdW0NIMl0y

> <s_epik_cmdline>
J2VwaWtfcHl0aG9uJywgJy1waCcsICc3LjAnLCAnLXRuJywgJzgnLCAnLW1hJywgJzIwMCcsICctbWV0YWxfYmluZGluZycsICctaW1hZScsICc8aW5maWxlLm1hZT4nLCAnLW9tYWUnLCAnPG91dGZpbGUubWFlPic=

> <r_lp_tautomer_probability>
1

> <r_epik_Ionization_Penalty>
0.00298315

> <r_epik_Ionization_Penalty_Charging>
0

> <r_epik_Ionization_Penalty_Neutral>
0.00298315

> <r_epik_State_Penalty>
0.0038483

> <r_epik_Charging_Adjusted_Penalty>
0.0038483

> <i_epik_Tot_Q>
0

> <i_epik_Tot_abs_Q>
0

> <r_epik_Metal_State_Penalty>
-0

> <b_epik_Metal_Only>
0

> <s_lp_Force_Field>
OPLS_2005

> <r_lp_Energy>
27.9322

> <b_lp_Chiralities_Consistent>
1

> <s_lp_Variant>
AV-unprocessed.smi:1446-1

> <Gold.Version>
5.8.1

> <Gold.Id.Protein>
6NUR|6NUR_protein|mol2

> <Gold.PLP.Fitness>
36.9037

> <Gold.PLP.PLP>
-32.2173

> <Gold.PLP.part.hbond>
-1.8591

> <Gold.PLP.part.metal>
0.0000

> <Gold.PLP.part.buried>
-2.9589

> <Gold.PLP.part.nonpolar>
-27.9681

> <Gold.PLP.part.repulsive>
0.1130

> <Gold.PLP.ligand.clash>
0.0000

> <Gold.PLP.ligand.torsion>
0.8414

> <Gold.PLP.Chemscore.Hbond>
1.9913

> <Gold.PLP.Chemscore.CHOScore>
0.0000

> <Gold.PLP.Chemscore.Metal>
0.0000

> <Gold.Chemscore.Hbonds>
donor molecule, donor type, donor heavy atom, donor atom, acceptor molecule, acceptor atom, score
      L1  H     4    27       P1  7948  1.00
      L1  H     8    29       P1  7948  0.75

> <Gold.PLP.Chemscore.Internal.Correction>
0.3954

> <Gold.Rescore>
     Score         DG    S(hbond)    S(metal)    S(lipo)     H(rot)  DE(clash)    DE(int)     intcor
     15.27     -17.61       1.94        0.00      86.34       1.74       0.32       2.02       ----

> <Gold.Chemscore.Fitness>
15.2739

> <Gold.Chemscore.DG>
-17.6148

> <Gold.Chemscore.ZeroCoef>
-5.4800

> <Gold.Chemscore.Hbond>
1.9418

> <Gold.Chemscore.Metal>
0.0000

> <Gold.Chemscore.Lipo>
86.3406

> <Gold.Chemscore.Internal_Hbond>
0.0000

> <Gold.Chemscore.DEClash>
0.3186

> <Gold.Chemscore.DEInternal>
2.0224

> <Gold.Chemscore.Rot>
1.7394

> <Gold.Chemscore.Internal.Correction>
   9.000000E+99

> <Gold.Chemscore.Hbonds>
donor molecule, donor type, donor heavy atom, donor atom, acceptor molecule, acceptor atom, score
      L1  H     4    27       P1  7948  0.99
      L1  H     8    29       P1  7948  0.75

> <Gold.Chemscore.Hbond.Weighted>
-6.4858

> <Gold.Chemscore.Metal.Weighted>
-0.0000

> <Gold.Chemscore.Lipo.Weighted>
-10.1019

> <Gold.Chemscore.Internal_Hbond.Weighted>
0.0000

> <Gold.Chemscore.DEClash.Weighted>
0.3186

> <Gold.Chemscore.DEInternal.Weighted>
2.0224

> <Gold.Chemscore.Rot.Weighted>
4.4528

> <Gold.Chemscore.Internal.Correction.Weighted>
   9.000000E+99

> <Gold.Protein.RotatedTorsions>
[ 6907 6896 6895 6894 ] final  -48.97 input  -60.11 | X-H torsion
[ 7974 7965 7964 7962 ] final    4.09 input  175.53 | X-H torsion
[ 8008 7997 7996 7995 ] final   70.11 input   59.86 | X-H torsion
[ 10167 10162 10161 10158 ] final   53.18 input  -65.29 | X-H torsion
[ 10718 10713 10712 10709 ] final  -50.81 input   66.30 | X-H torsion
[ 10763 10752 10751 10750 ] final   98.02 input  -60.55 | X-H torsion
[ 11005 11000 10999 10996 ] final -165.66 input  -57.11 | X-H torsion

> <Gold.Protein.ActiveResidues>
 VAL166  LYS551  ARG553  GLY616  TRP617  ASP618  TYR619  PRO620  LYS621  CYS622 
 ASP623  PHE694  ASN695  SER759  ASP760  ASP761  ALA762  ILE779  LEU786  VAL792 
 PHE793  MET794  SER795  GLU796  ALA797  LYS798  CYS799  TRP800  GLU811  SER814 

> <Gold.Protein.RotatedAtoms>
  150.8852  134.8248  159.7253 H   0  0  0  0  0  0  0  0  0  0  0  0  # atno 6907 bound_to 6896
  152.4803  134.4734  159.9652 H   0  0  0  0  0  0  0  0  0  0  0  0  # atno 6908 bound_to 6896
  151.4804  133.3509  159.2872 H   0  0  0  0  0  0  0  0  0  0  0  0  # atno 6909 bound_to 6896
  146.2444  140.0588  142.8370 H   0  0  0  0  0  0  0  0  0  0  0  0  # atno 7974 bound_to 7965
  155.7339  140.3491  155.5072 H   0  0  0  0  0  0  0  0  0  0  0  0  # atno 8008 bound_to 7997
  155.9157  140.1058  157.1267 H   0  0  0  0  0  0  0  0  0  0  0  0  # atno 8009 bound_to 7997
  154.4062  140.1259  156.4602 H   0  0  0  0  0  0  0  0  0  0  0  0  # atno 8010 bound_to 7997
  140.2435  144.3557  150.6372 H   0  0  0  0  0  0  0  0  0  0  0  0  # atno 10167 bound_to 10162
  156.1767  130.4150  149.9567 H   0  0  0  0  0  0  0  0  0  0  0  0  # atno 10718 bound_to 10713
  153.2839  135.4163  155.1105 H   0  0  0  0  0  0  0  0  0  0  0  0  # atno 10763 bound_to 10752
  154.8498  135.3502  154.6073 H   0  0  0  0  0  0  0  0  0  0  0  0  # atno 10764 bound_to 10752
  153.6495  135.7053  153.5272 H   0  0  0  0  0  0  0  0  0  0  0  0  # atno 10765 bound_to 10752
  140.5732  134.5216  157.5165 H   0  0  0  0  0  0  0  0  0  0  0  0  # atno 11005 bound_to 11000
  145.0919  140.9290  143.4764 LP  0  0  0  0  0  0  0  0  0  0  0  0  # atno 17320 bound_to 7965
  145.0762  139.2994  143.5807 LP  0  0  0  0  0  0  0  0  0  0  0  0  # atno 17321 bound_to 7965
  140.6095  143.2169  151.6914 LP  0  0  0  0  0  0  0  0  0  0  0  0  # atno 17342 bound_to 10162
  139.5069  144.3664  152.0513 LP  0  0  0  0  0  0  0  0  0  0  0  0  # atno 17343 bound_to 10162
  156.7351  130.9058  151.3628 LP  0  0  0  0  0  0  0  0  0  0  0  0  # atno 17370 bound_to 10713
  157.6840  130.9167  150.0339 LP  0  0  0  0  0  0  0  0  0  0  0  0  # atno 17371 bound_to 10713
  139.9352  134.7889  156.0823 LP  0  0  0  0  0  0  0  0  0  0  0  0  # atno 17394 bound_to 11000
  141.1043  133.6666  156.2827 LP  0  0  0  0  0  0  0  0  0  0  0  0  # atno 17395 bound_to 11000

$$$$
