AV-unprocessed.smi:3039|AV-procd|sdf|11594|dock2
  -GOLD-   2272016573D 1   1.00000     0.00000
 Structure written by MMmdl.
 38 39  0  0  0  0  0  0  0  0  1 V2000
  150.8102  139.6374  158.2341 O   0  0  0  0  0  0  0  0  0  0  0  0
  152.0390  139.6897  158.2828 C   0  0  0  0  0  0  0  0  0  0  0  0
  152.8722  138.4789  157.8623 C   0  0  0  0  0  0  0  0  0  0  0  0
  152.7152  138.2319  156.3863 C   0  0  0  0  0  0  0  0  0  0  0  0
  151.5286  137.9227  155.6644 C   0  0  0  0  0  0  0  0  0  0  0  0
  151.9618  137.7995  154.3758 C   0  0  0  0  0  0  0  0  0  0  0  0
  153.2988  138.0181  154.3010 O   0  0  0  0  0  0  0  0  0  0  0  0
  153.7709  138.2953  155.5890 N   0  0  0  0  0  0  0  0  0  0  0  0
  152.7205  140.7706  158.6957 N   0  0  0  0  0  0  0  0  0  0  0  0
  152.1320  142.0383  159.1293 C   0  0  1  0  0  0  0  0  0  0  0  0
  153.1554  142.8017  160.0039 C   0  0  0  0  0  0  0  0  0  0  0  0
  152.4973  143.7215  161.0489 C   0  0  0  0  0  0  0  0  0  0  0  0
  151.8993  145.0199  160.4917 C   0  0  0  0  0  0  0  0  0  0  0  0
  150.8613  144.8155  159.3784 C   0  0  0  0  0  0  0  0  0  0  0  0
  151.4990  144.3415  158.0624 C   0  0  0  0  0  0  0  0  0  0  0  0
  151.6088  142.8096  157.8801 C   0  0  2  0  0  0  0  0  0  0  0  0
  150.2621  142.2405  157.3672 C   0  0  0  0  0  0  0  0  0  0  0  0
  150.0524  142.5139  155.9971 O   0  0  0  0  0  0  0  0  0  0  0  0
  153.9195  138.6616  158.1055 H   0  0  0  0  0  0  0  0  0  0  0  0
  152.5686  137.6060  158.4423 H   0  0  0  0  0  0  0  0  0  0  0  0
  150.5216  137.8052  156.0359 H   0  0  0  0  0  0  0  0  0  0  0  0
  151.4648  137.5718  153.4443 H   0  0  0  0  0  0  0  0  0  0  0  0
  153.7290  140.7165  158.7009 H   0  0  0  0  0  0  0  0  0  0  0  0
  151.2701  141.8080  159.7582 H   0  0  0  0  0  0  0  0  0  0  0  0
  153.7532  142.0800  160.5628 H   0  0  0  0  0  0  0  0  0  0  0  0
  153.8685  143.3504  159.3877 H   0  0  0  0  0  0  0  0  0  0  0  0
  151.7309  143.1686  161.5935 H   0  0  0  0  0  0  0  0  0  0  0  0
  153.2468  143.9900  161.7940 H   0  0  0  0  0  0  0  0  0  0  0  0
  151.4290  145.5607  161.3138 H   0  0  0  0  0  0  0  0  0  0  0  0
  152.6999  145.6684  160.1338 H   0  0  0  0  0  0  0  0  0  0  0  0
  150.0663  144.1417  159.6997 H   0  0  0  0  0  0  0  0  0  0  0  0
  150.3807  145.7771  159.1951 H   0  0  0  0  0  0  0  0  0  0  0  0
  150.9316  144.7577  157.2292 H   0  0  0  0  0  0  0  0  0  0  0  0
  152.4881  144.7898  157.9607 H   0  0  0  0  0  0  0  0  0  0  0  0
  152.3352  142.6780  157.0758 H   0  0  0  0  0  0  0  0  0  0  0  0
  150.2070  141.1642  157.5319 H   0  0  0  0  0  0  0  0  0  0  0  0
  149.4256  142.6840  157.9079 H   0  0  0  0  0  0  0  0  0  0  0  0
  149.6489  143.3651  155.9192 H   0  0  0  0  0  0  0  0  0  0  0  0
  1  2  2  0  0  0  0
  2  3  1  0  0  0  0
  2  9  1  0  0  0  0
  3  4  1  0  0  0  0
  3 19  1  0  0  0  0
  3 20  1  0  0  0  0
  4  8  2  0  0  0  0
  4  5  1  0  0  0  0
  5  6  2  0  0  0  0
  5 21  1  0  0  0  0
  6  7  1  0  0  0  0
  6 22  1  0  0  0  0
  7  8  1  0  0  0  0
  9 10  1  0  0  0  0
  9 23  1  0  0  0  0
 10 16  1  0  0  0  0
 10 11  1  0  0  0  0
 10 24  1  0  0  0  0
 11 12  1  0  0  0  0
 11 25  1  0  0  0  0
 11 26  1  0  0  0  0
 12 13  1  0  0  0  0
 12 27  1  0  0  0  0
 12 28  1  0  0  0  0
 13 14  1  0  0  0  0
 13 29  1  0  0  0  0
 13 30  1  0  0  0  0
 14 15  1  0  0  0  0
 14 31  1  0  0  0  0
 14 32  1  0  0  0  0
 15 16  1  0  0  0  0
 15 33  1  0  0  0  0
 15 34  1  0  0  0  0
 16 17  1  0  0  0  0
 16 35  1  0  0  0  0
 17 18  1  0  0  0  0
 17 36  1  0  0  0  0
 17 37  1  0  0  0  0
 18 38  1  0  0  0  0
M  END
> <s_m_source_file>
AV-unprocessed.smi

> <i_m_source_file_index>
3039

> <i_lp_mmshare_version>
43012

> <i_f3d_flags>
0

> <s_epik_input>
bjFvW2NIXVtjSF1jMVtDSDJdQyg9TylbTkhdW0NAQEhdMltDSDJdW0NIMl1bQ0gyXVtDSDJdW0NIMl1bQ0BIXTJbQ0gyXVtPSF0=

> <s_epik_cmdline>
J2VwaWtfcHl0aG9uJywgJy1waCcsICc3LjAnLCAnLXRuJywgJzgnLCAnLW1hJywgJzIwMCcsICctbWV0YWxfYmluZGluZycsICctaW1hZScsICc8aW5maWxlLm1hZT4nLCAnLW9tYWUnLCAnPG91dGZpbGUubWFlPic=

> <r_lp_tautomer_probability>
1

> <r_epik_Ionization_Penalty>
3.05817e-07

> <r_epik_Ionization_Penalty_Charging>
0

> <r_epik_Ionization_Penalty_Neutral>
3.05817e-07

> <r_epik_State_Penalty>
-0

> <r_epik_Charging_Adjusted_Penalty>
0

> <i_epik_Tot_Q>
0

> <i_epik_Tot_abs_Q>
0

> <r_epik_Metal_State_Penalty>
-0

> <b_epik_Metal_Only>
0

> <s_lp_Force_Field>
OPLS_2005

> <r_lp_Energy>
18.8226

> <b_lp_Chiralities_Consistent>
1

> <s_lp_Variant>
AV-unprocessed.smi:3039-4

> <Gold.Version>
5.8.1

> <Gold.Id.Protein>
6NUR|6NUR_protein|mol2

> <Gold.PLP.Fitness>
45.3810

> <Gold.PLP.PLP>
-38.3590

> <Gold.PLP.part.hbond>
-2.9878

> <Gold.PLP.part.metal>
0.0000

> <Gold.PLP.part.buried>
-6.0947

> <Gold.PLP.part.nonpolar>
-29.8124

> <Gold.PLP.part.repulsive>
0.1509

> <Gold.PLP.ligand.clash>
0.0000

> <Gold.PLP.ligand.torsion>
0.4740

> <Gold.PLP.Chemscore.Hbond>
1.6720

> <Gold.PLP.Chemscore.CHOScore>
0.9684

> <Gold.PLP.Chemscore.Metal>
0.0000

> <Gold.Chemscore.Hbonds>
donor molecule, donor type, donor heavy atom, donor atom, acceptor molecule, acceptor atom, score
      L1  H    18    38       P1  8028  1.00
      P1  H  7997  8010       L1     8  0.61
      L1  C     6    22       P1  7949  1.00

> <Gold.PLP.Chemscore.Internal.Correction>
0.0488

> <Gold.Rescore>
     Score         DG    S(hbond)    S(metal)    S(lipo)     H(rot)  DE(clash)    DE(int)     intcor
     15.93     -18.14       1.79        0.00     106.61       2.26       0.03       2.17       ----

> <Gold.Chemscore.Fitness>
15.9325

> <Gold.Chemscore.DG>
-18.1358

> <Gold.Chemscore.ZeroCoef>
-5.4800

> <Gold.Chemscore.Hbond>
1.7879

> <Gold.Chemscore.Metal>
0.0000

> <Gold.Chemscore.Lipo>
106.6129

> <Gold.Chemscore.Internal_Hbond>
0.0000

> <Gold.Chemscore.DEClash>
0.0287

> <Gold.Chemscore.DEInternal>
2.1746

> <Gold.Chemscore.Rot>
2.2616

> <Gold.Chemscore.Internal.Correction>
   9.000000E+99

> <Gold.Chemscore.Hbonds>
donor molecule, donor type, donor heavy atom, donor atom, acceptor molecule, acceptor atom, score
      L1  H    18    38       P1  8028  0.97
      P1  H  7997  8010       L1     8  0.13

> <Gold.Chemscore.Hbond.Weighted>
-5.9717

> <Gold.Chemscore.Metal.Weighted>
-0.0000

> <Gold.Chemscore.Lipo.Weighted>
-12.4737

> <Gold.Chemscore.Internal_Hbond.Weighted>
0.0000

> <Gold.Chemscore.DEClash.Weighted>
0.0287

> <Gold.Chemscore.DEInternal.Weighted>
2.1746

> <Gold.Chemscore.Rot.Weighted>
5.7896

> <Gold.Chemscore.Internal.Correction.Weighted>
   9.000000E+99

> <Gold.Protein.RotatedTorsions>
[ 6907 6896 6895 6894 ] final  150.83 input  -60.11 | X-H torsion
[ 7974 7965 7964 7962 ] final  -14.58 input  175.53 | X-H torsion
[ 8008 7997 7996 7995 ] final   93.79 input   59.86 | X-H torsion
[ 10167 10162 10161 10158 ] final   52.17 input  -65.29 | X-H torsion
[ 10718 10713 10712 10709 ] final   36.54 input   66.30 | X-H torsion
[ 10763 10752 10751 10750 ] final  -52.27 input  -60.55 | X-H torsion
[ 11005 11000 10999 10996 ] final  -14.84 input  -57.11 | X-H torsion

> <Gold.Protein.ActiveResidues>
 VAL166  LYS551  ARG553  GLY616  TRP617  ASP618  TYR619  PRO620  LYS621  CYS622 
 ASP623  PHE694  ASN695  SER759  ASP760  ASP761  ALA762  ILE779  LEU786  VAL792 
 PHE793  MET794  SER795  GLU796  ALA797  LYS798  CYS799  TRP800  GLU811  SER814 

> <Gold.Protein.RotatedAtoms>
  152.1090  133.4290  159.4621 H   0  0  0  0  0  0  0  0  0  0  0  0  # atno 6907 bound_to 6896
  150.6866  134.2671  159.4582 H   0  0  0  0  0  0  0  0  0  0  0  0  # atno 6908 bound_to 6896
  152.0538  134.9637  160.0625 H   0  0  0  0  0  0  0  0  0  0  0  0  # atno 6909 bound_to 6896
  146.2068  140.3369  142.8404 H   0  0  0  0  0  0  0  0  0  0  0  0  # atno 7974 bound_to 7965
  156.0507  140.3308  155.7348 H   0  0  0  0  0  0  0  0  0  0  0  0  # atno 8008 bound_to 7997
  155.5605  140.0618  157.2847 H   0  0  0  0  0  0  0  0  0  0  0  0  # atno 8009 bound_to 7997
  154.4434  140.1878  156.0766 H   0  0  0  0  0  0  0  0  0  0  0  0  # atno 8010 bound_to 7997
  140.2541  144.3446  150.6338 H   0  0  0  0  0  0  0  0  0  0  0  0  # atno 10167 bound_to 10162
  157.3361  130.7523  149.6880 H   0  0  0  0  0  0  0  0  0  0  0  0  # atno 10718 bound_to 10713
  154.1401  135.6506  153.4940 H   0  0  0  0  0  0  0  0  0  0  0  0  # atno 10763 bound_to 10752
  153.0168  135.5313  154.6914 H   0  0  0  0  0  0  0  0  0  0  0  0  # atno 10764 bound_to 10752
  154.6173  135.2960  155.0337 H   0  0  0  0  0  0  0  0  0  0  0  0  # atno 10765 bound_to 10752
  140.7905  133.8291  155.9375 H   0  0  0  0  0  0  0  0  0  0  0  0  # atno 11005 bound_to 11000
  144.8812  140.7403  143.5985 LP  0  0  0  0  0  0  0  0  0  0  0  0  # atno 17320 bound_to 7965
  145.3290  139.1765  143.4547 LP  0  0  0  0  0  0  0  0  0  0  0  0  # atno 17321 bound_to 7965
  140.6017  143.2167  151.7059 LP  0  0  0  0  0  0  0  0  0  0  0  0  # atno 17342 bound_to 10162
  139.5037  144.3782  152.0402 LP  0  0  0  0  0  0  0  0  0  0  0  0  # atno 17343 bound_to 10162
  155.9701  130.4181  150.4311 LP  0  0  0  0  0  0  0  0  0  0  0  0  # atno 17370 bound_to 10713
  157.2351  131.0513  151.2469 LP  0  0  0  0  0  0  0  0  0  0  0  0  # atno 17371 bound_to 10713
  140.9394  134.1921  157.4808 LP  0  0  0  0  0  0  0  0  0  0  0  0  # atno 17394 bound_to 11000
  139.8732  134.9865  156.5329 LP  0  0  0  0  0  0  0  0  0  0  0  0  # atno 17395 bound_to 11000

$$$$
