AV-unprocessed.smi:720|AV-procd|sdf|3501|dock3
  -GOLD-   22720 0493D 1   1.00000     0.00000
 Structure written by MMmdl.
 46 48  0  0  0  0  0  0  0  0  1 V2000
  147.0582  135.1769  154.4626 C   0  0  0  0  0  0  0  0  0  0  0  0
  145.9277  136.0453  154.7691 N   0  0  0  0  0  0  0  0  0  0  0  0
  145.0058  136.0051  153.6415 C   0  0  0  0  0  0  0  0  0  0  0  0
  146.3440  137.4306  154.9934 C   0  0  0  0  0  0  0  0  0  0  0  0
  147.0514  138.0689  153.7786 C   0  0  0  0  0  0  0  0  0  0  0  0
  147.3288  139.4851  153.9489 N   0  0  0  0  0  0  0  0  0  0  0  0
  146.8632  140.5469  153.1980 C   0  0  0  0  0  0  0  0  0  0  0  0
  147.3652  141.6923  153.7474 C   0  0  0  0  0  0  0  0  0  0  0  0
  148.1260  141.2186  154.8511 C   0  0  0  0  0  0  0  0  0  0  0  0
  148.8170  142.1250  155.6944 N   0  0  0  0  0  0  0  0  0  0  0  0
  149.3888  141.8695  156.8876 C   0  0  0  0  0  0  0  0  0  0  0  0
  149.4180  140.7643  157.4260 O   0  0  0  0  0  0  0  0  0  0  0  0
  149.9614  142.9409  157.4650 N   0  0  0  0  0  0  0  0  0  0  0  0
  150.6613  143.0058  158.7500 C   0  0  2  0  0  0  0  0  0  0  0  0
  150.2535  144.2301  159.6030 C   0  0  0  0  0  0  0  0  0  0  0  0
  151.5942  144.9530  159.8281 C   0  0  1  0  0  0  0  0  0  0  0  0
  152.4858  144.1095  160.7606 C   0  0  0  0  0  0  0  0  0  0  0  0
  152.9079  142.9325  159.8588 C   0  0  0  0  0  0  0  0  0  0  0  0
  152.1733  143.2403  158.5409 C   0  0  2  0  0  0  0  0  0  0  0  0
  152.2770  144.7616  158.4810 C   0  0  0  0  0  0  0  0  0  0  0  0
  148.0946  139.8999  154.9816 N   0  0  0  0  0  0  0  0  0  0  0  0
  147.7242  135.0807  155.3178 H   0  0  0  0  0  0  0  0  0  0  0  0
  147.6335  135.5540  153.6157 H   0  0  0  0  0  0  0  0  0  0  0  0
  146.7125  134.1718  154.2185 H   0  0  0  0  0  0  0  0  0  0  0  0
  144.1228  136.6130  153.8425 H   0  0  0  0  0  0  0  0  0  0  0  0
  144.6654  134.9851  153.4595 H   0  0  0  0  0  0  0  0  0  0  0  0
  145.4760  136.3762  152.7294 H   0  0  0  0  0  0  0  0  0  0  0  0
  145.5060  138.0402  155.3352 H   0  0  0  0  0  0  0  0  0  0  0  0
  147.0660  137.4254  155.8113 H   0  0  0  0  0  0  0  0  0  0  0  0
  148.0122  137.5753  153.6286 H   0  0  0  0  0  0  0  0  0  0  0  0
  146.4794  137.9066  152.8632 H   0  0  0  0  0  0  0  0  0  0  0  0
  146.2206  140.3997  152.3426 H   0  0  0  0  0  0  0  0  0  0  0  0
  147.2097  142.7074  153.4129 H   0  0  0  0  0  0  0  0  0  0  0  0
  148.8872  143.0731  155.3555 H   0  0  0  0  0  0  0  0  0  0  0  0
  149.9295  143.8032  156.9403 H   0  0  0  0  0  0  0  0  0  0  0  0
  150.5006  142.0723  159.2923 H   0  0  0  0  0  0  0  0  0  0  0  0
  149.5590  144.8799  159.0677 H   0  0  0  0  0  0  0  0  0  0  0  0
  149.7777  143.9405  160.5405 H   0  0  0  0  0  0  0  0  0  0  0  0
  151.4842  145.9902  160.1459 H   0  0  0  0  0  0  0  0  0  0  0  0
  153.3593  144.6773  161.0831 H   0  0  0  0  0  0  0  0  0  0  0  0
  151.9523  143.7797  161.6527 H   0  0  0  0  0  0  0  0  0  0  0  0
  153.9884  142.9335  159.7089 H   0  0  0  0  0  0  0  0  0  0  0  0
  152.6308  141.9642  160.2773 H   0  0  0  0  0  0  0  0  0  0  0  0
  152.5914  142.7143  157.6818 H   0  0  0  0  0  0  0  0  0  0  0  0
  151.7248  145.2030  157.6495 H   0  0  0  0  0  0  0  0  0  0  0  0
  153.3059  145.1258  158.4603 H   0  0  0  0  0  0  0  0  0  0  0  0
  1  2  1  0  0  0  0
  1 22  1  0  0  0  0
  1 23  1  0  0  0  0
  1 24  1  0  0  0  0
  2  3  1  0  0  0  0
  2  4  1  0  0  0  0
  3 25  1  0  0  0  0
  3 26  1  0  0  0  0
  3 27  1  0  0  0  0
  4  5  1  0  0  0  0
  4 28  1  0  0  0  0
  4 29  1  0  0  0  0
  5  6  1  0  0  0  0
  5 30  1  0  0  0  0
  5 31  1  0  0  0  0
  6 21  1  0  0  0  0
  6  7  1  0  0  0  0
  7  8  2  0  0  0  0
  7 32  1  0  0  0  0
  8  9  1  0  0  0  0
  8 33  1  0  0  0  0
  9 10  1  0  0  0  0
  9 21  2  0  0  0  0
 10 11  1  0  0  0  0
 10 34  1  0  0  0  0
 11 12  2  0  0  0  0
 11 13  1  0  0  0  0
 13 14  1  0  0  0  0
 13 35  1  0  0  0  0
 14 19  1  0  0  0  0
 14 15  1  0  0  0  0
 14 36  1  0  0  0  0
 15 16  1  0  0  0  0
 15 37  1  0  0  0  0
 15 38  1  0  0  0  0
 16 20  1  0  0  0  0
 16 17  1  0  0  0  0
 16 39  1  0  0  0  0
 17 18  1  0  0  0  0
 17 40  1  0  0  0  0
 17 41  1  0  0  0  0
 18 19  1  0  0  0  0
 18 42  1  0  0  0  0
 18 43  1  0  0  0  0
 19 20  1  0  0  0  0
 19 44  1  0  0  0  0
 20 45  1  0  0  0  0
 20 46  1  0  0  0  0
M  END
> <s_m_source_file>
AV-unprocessed.smi

> <i_m_source_file_index>
720

> <i_lp_mmshare_version>
43012

> <i_f3d_flags>
0

> <s_epik_input>
W0NIM11OKFtDSDNdKVtDSDJdW0NIMl1uMVtjSF1bY0hdYyhuMSlbTkhdQyg9TylbTkhdW0NASF0oW0NIMl1bQ0BIXTIzKVtDQEhdKFtDSDJdMylbQ0gyXVtDSDJdMg==

> <s_epik_cmdline>
J2VwaWtfcHl0aG9uJywgJy1waCcsICc3LjAnLCAnLXRuJywgJzgnLCAnLW1hJywgJzIwMCcsICctbWV0YWxfYmluZGluZycsICctaW1hZScsICc8aW5maWxlLm1hZT4nLCAnLW9tYWUnLCAnPG91dGZpbGUubWFlPic=

> <r_lp_tautomer_probability>
1

> <r_epik_Ionization_Penalty>
1.83819

> <r_epik_Ionization_Penalty_Charging>
0

> <r_epik_Ionization_Penalty_Neutral>
1.83819

> <r_epik_State_Penalty>
1.95467

> <r_epik_Charging_Adjusted_Penalty>
1.95467

> <i_epik_Tot_Q>
0

> <i_epik_Tot_abs_Q>
0

> <r_epik_Metal_State_Penalty>
1.95467

> <b_epik_Metal_Only>
0

> <s_lp_Force_Field>
OPLS_2005

> <r_lp_Energy>
62.6494

> <b_lp_Chiralities_Consistent>
1

> <s_lp_Variant>
AV-unprocessed.smi:720-7

> <Gold.Version>
5.8.1

> <Gold.Id.Protein>
6NUR|6NUR_protein|mol2

> <Gold.PLP.Fitness>
44.1256

> <Gold.PLP.PLP>
-36.2025

> <Gold.PLP.part.hbond>
-2.0000

> <Gold.PLP.part.metal>
0.0000

> <Gold.PLP.part.buried>
-5.4616

> <Gold.PLP.part.nonpolar>
-29.6020

> <Gold.PLP.part.repulsive>
0.2615

> <Gold.PLP.ligand.clash>
0.0000

> <Gold.PLP.ligand.torsion>
0.1793

> <Gold.PLP.Chemscore.Hbond>
1.8640

> <Gold.PLP.Chemscore.CHOScore>
0.8837

> <Gold.PLP.Chemscore.Metal>
0.0000

> <Gold.Chemscore.Hbonds>
donor molecule, donor type, donor heavy atom, donor atom, acceptor molecule, acceptor atom, score
      L1  H    10    34       P1  8028  1.00
      L1  H    13    35       P1  8028  0.85
      L1  C     7    32       P1 10175  0.88

> <Gold.PLP.Chemscore.Internal.Correction>
0.0384

> <Gold.Rescore>
     Score         DG    S(hbond)    S(metal)    S(lipo)     H(rot)  DE(clash)    DE(int)     intcor
     18.09     -19.57       1.83        0.00     101.55       1.53       0.10       1.37       ----

> <Gold.Chemscore.Fitness>
18.0945

> <Gold.Chemscore.DG>
-19.5695

> <Gold.Chemscore.ZeroCoef>
-5.4800

> <Gold.Chemscore.Hbond>
1.8347

> <Gold.Chemscore.Metal>
0.0000

> <Gold.Chemscore.Lipo>
101.5512

> <Gold.Chemscore.Internal_Hbond>
0.0000

> <Gold.Chemscore.DEClash>
0.1038

> <Gold.Chemscore.DEInternal>
1.3712

> <Gold.Chemscore.Rot>
1.5312

> <Gold.Chemscore.Internal.Correction>
   9.000000E+99

> <Gold.Chemscore.Hbonds>
donor molecule, donor type, donor heavy atom, donor atom, acceptor molecule, acceptor atom, score
      L1  H    10    34       P1  8028  0.94
      L1  H    13    35       P1  8028  0.83

> <Gold.Chemscore.Hbond.Weighted>
-6.1278

> <Gold.Chemscore.Metal.Weighted>
-0.0000

> <Gold.Chemscore.Lipo.Weighted>
-11.8815

> <Gold.Chemscore.Internal_Hbond.Weighted>
0.0000

> <Gold.Chemscore.DEClash.Weighted>
0.1038

> <Gold.Chemscore.DEInternal.Weighted>
1.3712

> <Gold.Chemscore.Rot.Weighted>
3.9199

> <Gold.Chemscore.Internal.Correction.Weighted>
   9.000000E+99

> <Gold.Protein.RotatedTorsions>
[ 6907 6896 6895 6894 ] final -107.12 input  -60.11 | X-H torsion
[ 7974 7965 7964 7962 ] final  -75.65 input  175.53 | X-H torsion
[ 8008 7997 7996 7995 ] final  113.86 input   59.86 | X-H torsion
[ 10167 10162 10161 10158 ] final   50.27 input  -65.29 | X-H torsion
[ 10718 10713 10712 10709 ] final  -80.00 input   66.30 | X-H torsion
[ 10763 10752 10751 10750 ] final -106.71 input  -60.55 | X-H torsion
[ 11005 11000 10999 10996 ] final  172.91 input  -57.11 | X-H torsion

> <Gold.Protein.ActiveResidues>
 VAL166  LYS551  ARG553  GLY616  TRP617  ASP618  TYR619  PRO620  LYS621  CYS622 
 ASP623  PHE694  ASN695  SER759  ASP760  ASP761  ALA762  ILE779  LEU786  VAL792 
 PHE793  MET794  SER795  GLU796  ALA797  LYS798  CYS799  TRP800  GLU811  SER814 

> <Gold.Protein.RotatedAtoms>
  150.7426  133.9874  159.3595 H   0  0  0  0  0  0  0  0  0  0  0  0  # atno 6907 bound_to 6896
  151.7820  135.0757  160.0384 H   0  0  0  0  0  0  0  0  0  0  0  0  # atno 6908 bound_to 6896
  152.3267  133.5877  159.5818 H   0  0  0  0  0  0  0  0  0  0  0  0  # atno 6909 bound_to 6896
  145.6232  140.9357  143.1127 H   0  0  0  0  0  0  0  0  0  0  0  0  # atno 7974 bound_to 7965
  156.2285  140.2971  156.0127 H   0  0  0  0  0  0  0  0  0  0  0  0  # atno 8008 bound_to 7997
  155.2291  140.0418  157.2977 H   0  0  0  0  0  0  0  0  0  0  0  0  # atno 8009 bound_to 7997
  154.5955  140.2413  155.7870 H   0  0  0  0  0  0  0  0  0  0  0  0  # atno 8010 bound_to 7997
  140.2742  144.3231  150.6281 H   0  0  0  0  0  0  0  0  0  0  0  0  # atno 10167 bound_to 10162
  156.0080  130.4561  150.3733 H   0  0  0  0  0  0  0  0  0  0  0  0  # atno 10718 bound_to 10713
  154.8030  135.4702  154.0322 H   0  0  0  0  0  0  0  0  0  0  0  0  # atno 10763 bound_to 10752
  153.1813  135.6841  153.8482 H   0  0  0  0  0  0  0  0  0  0  0  0  # atno 10764 bound_to 10752
  153.8031  135.3227  155.3370 H   0  0  0  0  0  0  0  0  0  0  0  0  # atno 10765 bound_to 10752
  140.3348  134.7327  157.4160 H   0  0  0  0  0  0  0  0  0  0  0  0  # atno 11005 bound_to 11000
  144.7223  139.7990  143.7377 LP  0  0  0  0  0  0  0  0  0  0  0  0  # atno 17320 bound_to 7965
  146.1415  139.4473  143.0106 LP  0  0  0  0  0  0  0  0  0  0  0  0  # atno 17321 bound_to 7965
  140.5865  143.2170  151.7333 LP  0  0  0  0  0  0  0  0  0  0  0  0  # atno 17342 bound_to 10162
  139.4980  144.4003  152.0188 LP  0  0  0  0  0  0  0  0  0  0  0  0  # atno 17343 bound_to 10162
  157.1816  131.0393  151.2745 LP  0  0  0  0  0  0  0  0  0  0  0  0  # atno 17370 bound_to 10713
  157.4140  130.7401  149.6861 LP  0  0  0  0  0  0  0  0  0  0  0  0  # atno 17371 bound_to 10713
  140.0830  134.5705  155.8521 LP  0  0  0  0  0  0  0  0  0  0  0  0  # atno 17394 bound_to 11000
  141.2054  133.6647  156.6178 LP  0  0  0  0  0  0  0  0  0  0  0  0  # atno 17395 bound_to 11000

$$$$
