AV-unprocessed.smi:66|AV-procd|sdf|622|dock10
  -GOLD-   2262016513D 1   1.00000     0.00000
 Structure written by MMmdl.
 28 30  0  0  0  0  0  0  0  0  2 V2000
  153.3964  138.8752  155.1018 O   0  0  0  0  0  0  0  0  0  0  0  0
  152.5097  138.1642  155.6222 C   0  0  0  0  0  0  0  0  0  0  0  0
  152.6887  137.0282  156.1165 O   0  5  0  0  0  0  0  0  0  0  0  0
  151.0899  138.7436  155.6544 C   0  0  1  0  0  0  0  0  0  0  0  0
  150.9569  140.0431  154.8500 C   0  0  0  0  0  0  0  0  0  0  0  0
  149.4741  140.0411  154.4930 C   0  0  1  0  0  0  0  0  0  0  0  0
  149.1797  140.8577  153.3793 O   0  0  0  0  0  0  0  0  0  0  0  0
  149.1836  138.5614  154.2307 C   0  0  0  0  0  0  0  0  0  0  0  0
  150.1209  137.8186  155.0651 N   0  0  0  0  0  0  0  0  0  0  0  0
  149.5374  136.8681  155.9157 C   0  0  0  0  0  0  0  0  0  0  0  0
  149.6552  136.9826  157.2594 N   0  0  0  0  0  0  0  0  0  0  0  0
  149.0557  136.0524  158.0162 C   0  0  0  0  0  0  0  0  0  0  0  0
  148.3208  134.9927  157.6368 N   0  0  0  0  0  0  0  0  0  0  0  0
  148.1942  134.8783  156.3070 C   0  0  0  0  0  0  0  0  0  0  0  0
  147.4934  133.8914  155.6261 N   0  0  0  0  0  0  0  0  0  0  0  0
  147.6881  134.2420  154.3542 C   0  0  0  0  0  0  0  0  0  0  0  0
  148.4297  135.3424  154.1420 N   0  0  0  0  0  0  0  0  0  0  0  0
  148.7876  135.8006  155.3974 C   0  0  0  0  0  0  0  0  0  0  0  0
  148.6744  135.7276  153.2408 H   0  0  0  0  0  0  0  0  0  0  0  0
  150.8214  138.9519  156.6909 H   0  0  0  0  0  0  0  0  0  0  0  0
  151.2518  140.9243  155.4208 H   0  0  0  0  0  0  0  0  0  0  0  0
  151.5629  140.0079  153.9423 H   0  0  0  0  0  0  0  0  0  0  0  0
  148.8946  140.3804  155.3530 H   0  0  0  0  0  0  0  0  0  0  0  0
  149.0502  140.3003  152.6272 H   0  0  0  0  0  0  0  0  0  0  0  0
  148.1382  138.3173  154.4278 H   0  0  0  0  0  0  0  0  0  0  0  0
  149.3922  138.3015  153.1920 H   0  0  0  0  0  0  0  0  0  0  0  0
  149.1768  136.1747  159.0823 H   0  0  0  0  0  0  0  0  0  0  0  0
  147.2727  133.6706  153.5372 H   0  0  0  0  0  0  0  0  0  0  0  0
  1  2  2  0  0  0  0
  2  3  1  0  0  0  0
  2  4  1  0  0  0  0
  4  9  1  0  0  0  0
  4  5  1  0  0  0  0
  4 20  1  0  0  0  0
  5  6  1  0  0  0  0
  5 21  1  0  0  0  0
  5 22  1  0  0  0  0
  6  7  1  0  0  0  0
  6  8  1  0  0  0  0
  6 23  1  0  0  0  0
  7 24  1  0  0  0  0
  8  9  1  0  0  0  0
  8 25  1  0  0  0  0
  8 26  1  0  0  0  0
  9 10  1  0  0  0  0
 10 18  1  0  0  0  0
 10 11  2  0  0  0  0
 11 12  1  0  0  0  0
 12 13  2  0  0  0  0
 12 27  1  0  0  0  0
 13 14  1  0  0  0  0
 14 18  2  0  0  0  0
 14 15  1  0  0  0  0
 15 16  2  0  0  0  0
 16 17  1  0  0  0  0
 16 28  1  0  0  0  0
 17 19  1  0  0  0  0
 17 18  1  0  0  0  0
M  CHG  1   3  -1
M  END
> <s_m_source_file>
AV-unprocessed.smi

> <i_m_source_file_index>
66

> <i_lp_mmshare_version>
43012

> <i_f3d_flags>
0

> <s_epik_input>
Tz1DKFtPSF0pW0NAQEhdMVtDSDJdW0NAQEhdKFtPSF0pW0NIMl1OMWMobltjSF1uMiljKGMyMylbbkhdW2NIXW4z

> <s_epik_cmdline>
J2VwaWtfcHl0aG9uJywgJy1waCcsICc3LjAnLCAnLXRuJywgJzgnLCAnLW1hJywgJzIwMCcsICctbWV0YWxfYmluZGluZycsICctaW1hZScsICc8aW5maWxlLm1hZT4nLCAnLW9tYWUnLCAnPG91dGZpbGUubWFlPic=

> <r_lp_tautomer_probability>
0.0419193

> <r_epik_Ionization_Penalty>
0.0157405

> <r_epik_Ionization_Penalty_Charging>
0.000248217

> <r_epik_Ionization_Penalty_Neutral>
0.0154923

> <r_epik_State_Penalty>
1.99742

> <r_epik_Charging_Adjusted_Penalty>
1.99767

> <i_epik_Tot_Q>
-1

> <i_epik_Tot_abs_Q>
1

> <r_epik_Metal_State_Penalty>
2.31035

> <b_epik_Metal_Only>
0

> <s_lp_Force_Field>
OPLS_2005

> <r_lp_Energy>
24.7496

> <b_lp_Chiralities_Consistent>
1

> <s_lp_Variant>
AV-unprocessed.smi:66-6

> <Gold.Version>
5.8.1

> <Gold.Id.Protein>
6NUR|6NUR_protein|mol2

> <Gold.PLP.Fitness>
37.4786

> <Gold.PLP.PLP>
-18.8853

> <Gold.PLP.part.hbond>
-5.3480

> <Gold.PLP.part.metal>
0.0000

> <Gold.PLP.part.buried>
0.0005

> <Gold.PLP.part.nonpolar>
-13.6223

> <Gold.PLP.part.repulsive>
0.1299

> <Gold.PLP.ligand.clash>
0.0000

> <Gold.PLP.ligand.torsion>
0.2452

> <Gold.PLP.Chemscore.Hbond>
6.3180

> <Gold.PLP.Chemscore.CHOScore>
0.0000

> <Gold.PLP.Chemscore.Metal>
0.0000

> <Gold.Chemscore.Hbonds>
donor molecule, donor type, donor heavy atom, donor atom, acceptor molecule, acceptor atom, score
      L1  H     7    24       P1  7957  0.83
      L1  H    17    19       P1  7948  0.86
      P1  H  7997  8008       L1     1  2.00
      P1  H  8011  8017       L1     7  0.75
      P1  H 10752 10763       L1     3  1.60

> <Gold.PLP.Chemscore.Internal.Correction>
0.1297

> <Gold.Rescore>
     Score         DG    S(hbond)    S(metal)    S(lipo)     H(rot)  DE(clash)    DE(int)     intcor
     13.54     -15.45       3.81        0.00      30.59       2.48       1.64       0.27       ----

> <Gold.Chemscore.Fitness>
13.5397

> <Gold.Chemscore.DG>
-15.4527

> <Gold.Chemscore.ZeroCoef>
-5.4800

> <Gold.Chemscore.Hbond>
3.8121

> <Gold.Chemscore.Metal>
0.0000

> <Gold.Chemscore.Lipo>
30.5915

> <Gold.Chemscore.Internal_Hbond>
0.0000

> <Gold.Chemscore.DEClash>
1.6425

> <Gold.Chemscore.DEInternal>
0.2705

> <Gold.Chemscore.Rot>
2.4762

> <Gold.Chemscore.Internal.Correction>
   9.000000E+99

> <Gold.Chemscore.Hbonds>
donor molecule, donor type, donor heavy atom, donor atom, acceptor molecule, acceptor atom, score
      L1  H     7    24       P1  7957  0.80
      L1  H    17    19       P1  7948  0.83
      P1  H  7997  8008       L1     1  0.96
      P1  H  8011  8017       L1     7  0.09
      P1  H 10752 10763       L1     3  0.79

> <Gold.Chemscore.Hbond.Weighted>
-12.7326

> <Gold.Chemscore.Metal.Weighted>
-0.0000

> <Gold.Chemscore.Lipo.Weighted>
-3.5792

> <Gold.Chemscore.Internal_Hbond.Weighted>
0.0000

> <Gold.Chemscore.DEClash.Weighted>
1.6425

> <Gold.Chemscore.DEInternal.Weighted>
0.2705

> <Gold.Chemscore.Rot.Weighted>
6.3391

> <Gold.Chemscore.Internal.Correction.Weighted>
   9.000000E+99

> <Gold.Protein.RotatedTorsions>
[ 6907 6896 6895 6894 ] final  147.80 input  -60.11 | X-H torsion
[ 7974 7965 7964 7962 ] final  157.63 input  175.53 | X-H torsion
[ 8008 7997 7996 7995 ] final  -10.49 input   59.86 | X-H torsion
[ 10167 10162 10161 10158 ] final  137.61 input  -65.29 | X-H torsion
[ 10718 10713 10712 10709 ] final  -88.42 input   66.30 | X-H torsion
[ 10763 10752 10751 10750 ] final   92.47 input  -60.55 | X-H torsion
[ 11005 11000 10999 10996 ] final  114.72 input  -57.11 | X-H torsion

> <Gold.Protein.ActiveResidues>
 VAL166  LYS551  ARG553  GLY616  TRP617  ASP618  TYR619  PRO620  LYS621  CYS622 
 ASP623  PHE694  ASN695  SER759  ASP760  ASP761  ALA762  ILE779  LEU786  VAL792 
 PHE793  MET794  SER795  GLU796  ALA797  LYS798  CYS799  TRP800  GLU811  SER814 

> <Gold.Protein.RotatedAtoms>
  152.1500  133.4516  159.4808 H   0  0  0  0  0  0  0  0  0  0  0  0  # atno 6907 bound_to 6896
  150.6894  134.2201  159.4402 H   0  0  0  0  0  0  0  0  0  0  0  0  # atno 6908 bound_to 6896
  152.0097  134.9882  160.0618 H   0  0  0  0  0  0  0  0  0  0  0  0  # atno 6909 bound_to 6896
  144.7892  139.7367  143.6228 H   0  0  0  0  0  0  0  0  0  0  0  0  # atno 7974 bound_to 7965
  154.5549  140.2327  155.8425 H   0  0  0  0  0  0  0  0  0  0  0  0  # atno 8008 bound_to 7997
  156.1980  140.3060  155.9427 H   0  0  0  0  0  0  0  0  0  0  0  0  # atno 8009 bound_to 7997
  155.2998  140.0430  157.3019 H   0  0  0  0  0  0  0  0  0  0  0  0  # atno 8010 bound_to 7997
  139.5138  144.6400  151.5594 H   0  0  0  0  0  0  0  0  0  0  0  0  # atno 10167 bound_to 10162
  155.9984  130.4835  150.5017 H   0  0  0  0  0  0  0  0  0  0  0  0  # atno 10718 bound_to 10713
  153.2195  135.4360  155.0473 H   0  0  0  0  0  0  0  0  0  0  0  0  # atno 10763 bound_to 10752
  154.8242  135.3353  154.6948 H   0  0  0  0  0  0  0  0  0  0  0  0  # atno 10764 bound_to 10752
  153.7381  135.7006  153.5029 H   0  0  0  0  0  0  0  0  0  0  0  0  # atno 10765 bound_to 10752
  139.8989  134.9572  156.6935 H   0  0  0  0  0  0  0  0  0  0  0  0  # atno 11005 bound_to 11000
  146.2137  139.5511  142.9664 LP  0  0  0  0  0  0  0  0  0  0  0  0  # atno 17320 bound_to 7965
  145.5840  141.0379  143.2106 LP  0  0  0  0  0  0  0  0  0  0  0  0  # atno 17321 bound_to 7965
  140.6163  143.9341  150.6491 LP  0  0  0  0  0  0  0  0  0  0  0  0  # atno 17342 bound_to 10162
  140.2601  143.3530  152.1330 LP  0  0  0  0  0  0  0  0  0  0  0  0  # atno 17343 bound_to 10162
  157.3000  131.0643  151.2075 LP  0  0  0  0  0  0  0  0  0  0  0  0  # atno 17370 bound_to 10713
  157.3057  130.6865  149.6188 LP  0  0  0  0  0  0  0  0  0  0  0  0  # atno 17371 bound_to 10713
  140.7206  133.9144  155.8144 LP  0  0  0  0  0  0  0  0  0  0  0  0  # atno 17394 bound_to 11000
  141.0230  134.0862  157.4099 LP  0  0  0  0  0  0  0  0  0  0  0  0  # atno 17395 bound_to 11000

$$$$
