AV-unprocessed.smi:2829|AV-procd|sdf|10903|dock10
  -GOLD-   2272015353D 1   1.00000     0.00000
 Structure written by MMmdl.
 50 53  0  0  0  0  0  0  0  0  1 V2000
  145.9215  132.0182  149.5060 C   0  0  0  0  0  0  0  0  0  0  0  0
  145.1176  132.2188  150.8106 C   0  0  0  0  0  0  0  0  0  0  0  0
  143.6352  131.9340  150.4899 C   0  0  0  0  0  0  0  0  0  0  0  0
  145.6383  131.1934  151.8392 C   0  0  0  0  0  0  0  0  0  0  0  0
  145.2629  133.6425  151.3777 C   0  0  0  0  0  0  0  0  0  0  0  0
  144.8567  134.8001  150.6761 C   0  0  0  0  0  0  0  0  0  0  0  0
  145.0477  136.0441  151.3003 C   0  0  0  0  0  0  0  0  0  0  0  0
  145.6296  136.0694  152.5831 C   0  0  0  0  0  0  0  0  0  0  0  0
  145.8005  137.3601  153.1452 N   0  0  0  0  0  0  0  0  0  0  0  0
  146.7958  137.8002  153.9395 C   0  0  0  0  0  0  0  0  0  0  0  0
  147.6942  137.0951  154.3946 O   0  0  0  0  0  0  0  0  0  0  0  0
  146.7328  139.1149  154.2149 N   0  0  0  0  0  0  0  0  0  0  0  0
  147.6552  139.8948  155.0413 C   0  0  1  0  0  0  0  0  0  0  0  0
  149.0632  139.9821  154.4220 C   0  0  2  0  0  0  0  0  0  0  0  0
  150.2371  139.3705  155.1382 C   0  0  0  0  0  0  0  0  0  0  0  0
  150.8536  140.5672  155.8676 C   0  0  0  0  0  0  0  0  0  0  0  0
  149.7892  141.5097  155.9762 O   0  0  0  0  0  0  0  0  0  0  0  0
  149.0573  141.4698  154.7548 C   0  0  2  0  0  0  0  0  0  0  0  0
  147.5307  141.4274  154.8938 C   0  0  0  0  0  0  0  0  0  0  0  0
  146.6477  142.1012  153.8258 C   0  0  0  0  0  0  0  0  0  0  0  0
  145.6868  142.5290  154.9379 C   0  0  0  0  0  0  0  0  0  0  0  0
  146.8085  142.2764  155.9498 C   0  0  0  0  0  0  0  0  0  0  0  0
  145.9949  134.9181  153.2003 N   0  0  0  0  0  0  0  0  0  0  0  0
  145.8162  133.7319  152.6118 N   0  0  0  0  0  0  0  0  0  0  0  0
  145.8030  131.0046  149.1209 H   0  0  0  0  0  0  0  0  0  0  0  0
  146.9896  132.1762  149.6610 H   0  0  0  0  0  0  0  0  0  0  0  0
  145.5902  132.6980  148.7199 H   0  0  0  0  0  0  0  0  0  0  0  0
  143.2402  132.6543  149.7724 H   0  0  0  0  0  0  0  0  0  0  0  0
  143.0105  131.9836  151.3822 H   0  0  0  0  0  0  0  0  0  0  0  0
  143.5047  130.9391  150.0627 H   0  0  0  0  0  0  0  0  0  0  0  0
  145.5656  130.1748  151.4568 H   0  0  0  0  0  0  0  0  0  0  0  0
  145.0706  131.2280  152.7697 H   0  0  0  0  0  0  0  0  0  0  0  0
  146.6844  131.3781  152.0863 H   0  0  0  0  0  0  0  0  0  0  0  0
  144.4141  134.7635  149.6929 H   0  0  0  0  0  0  0  0  0  0  0  0
  144.7556  136.9566  150.8011 H   0  0  0  0  0  0  0  0  0  0  0  0
  145.1159  138.0481  152.8687 H   0  0  0  0  0  0  0  0  0  0  0  0
  145.9573  139.6245  153.8164 H   0  0  0  0  0  0  0  0  0  0  0  0
  147.6989  139.5842  156.0876 H   0  0  0  0  0  0  0  0  0  0  0  0
  149.0558  139.8209  153.3422 H   0  0  0  0  0  0  0  0  0  0  0  0
  149.9079  138.6111  155.8483 H   0  0  0  0  0  0  0  0  0  0  0  0
  150.9492  138.9050  154.4563 H   0  0  0  0  0  0  0  0  0  0  0  0
  151.2578  140.3028  156.8449 H   0  0  0  0  0  0  0  0  0  0  0  0
  151.6564  141.0062  155.2732 H   0  0  0  0  0  0  0  0  0  0  0  0
  149.4594  142.1087  153.9674 H   0  0  0  0  0  0  0  0  0  0  0  0
  147.1385  142.9549  153.3563 H   0  0  0  0  0  0  0  0  0  0  0  0
  146.2096  141.4412  153.0774 H   0  0  0  0  0  0  0  0  0  0  0  0
  145.3569  143.5663  154.8764 H   0  0  0  0  0  0  0  0  0  0  0  0
  144.8446  141.8468  155.0565 H   0  0  0  0  0  0  0  0  0  0  0  0
  146.4979  141.7298  156.8405 H   0  0  0  0  0  0  0  0  0  0  0  0
  147.3563  143.1848  156.2053 H   0  0  0  0  0  0  0  0  0  0  0  0
  1  2  1  0  0  0  0
  1 25  1  0  0  0  0
  1 26  1  0  0  0  0
  1 27  1  0  0  0  0
  2  3  1  0  0  0  0
  2  4  1  0  0  0  0
  2  5  1  0  0  0  0
  3 28  1  0  0  0  0
  3 29  1  0  0  0  0
  3 30  1  0  0  0  0
  4 31  1  0  0  0  0
  4 32  1  0  0  0  0
  4 33  1  0  0  0  0
  5 24  1  0  0  0  0
  5  6  2  0  0  0  0
  6  7  1  0  0  0  0
  6 34  1  0  0  0  0
  7  8  2  0  0  0  0
  7 35  1  0  0  0  0
  8  9  1  0  0  0  0
  8 23  1  0  0  0  0
  9 10  1  0  0  0  0
  9 36  1  0  0  0  0
 10 11  2  0  0  0  0
 10 12  1  0  0  0  0
 12 13  1  0  0  0  0
 12 37  1  0  0  0  0
 13 19  1  0  0  0  0
 13 14  1  0  0  0  0
 13 38  1  0  0  0  0
 14 18  1  0  0  0  0
 14 15  1  0  0  0  0
 14 39  1  0  0  0  0
 15 16  1  0  0  0  0
 15 40  1  0  0  0  0
 15 41  1  0  0  0  0
 16 17  1  0  0  0  0
 16 42  1  0  0  0  0
 16 43  1  0  0  0  0
 17 18  1  0  0  0  0
 18 19  1  0  0  0  0
 18 44  1  0  0  0  0
 19 22  1  0  0  0  0
 19 20  1  0  0  0  0
 20 21  1  0  0  0  0
 20 45  1  0  0  0  0
 20 46  1  0  0  0  0
 21 22  1  0  0  0  0
 21 47  1  0  0  0  0
 21 48  1  0  0  0  0
 22 49  1  0  0  0  0
 22 50  1  0  0  0  0
 23 24  2  0  0  0  0
M  END
> <s_m_source_file>
AV-unprocessed.smi

> <i_m_source_file_index>
2829

> <i_lp_mmshare_version>
43012

> <i_f3d_flags>
0

> <s_epik_input>
W0NIM11DKFtDSDNdKShbQ0gzXSljMVtjSF1bY0hdYyhubjEpW05IXUMoPU8pW05IXVtDQEBIXTJbQ0BIXShbQ0gyXVtDSDJdTzMpW0NAQEhdM0MyNFtDSDJdW0NIMl1bQ0gyXTQ=

> <s_epik_cmdline>
J2VwaWtfcHl0aG9uJywgJy1waCcsICc3LjAnLCAnLXRuJywgJzgnLCAnLW1hJywgJzIwMCcsICctbWV0YWxfYmluZGluZycsICctaW1hZScsICc8aW5maWxlLm1hZT4nLCAnLW9tYWUnLCAnPG91dGZpbGUubWFlPic=

> <r_lp_tautomer_probability>
1

> <r_epik_Ionization_Penalty>
0.011915

> <r_epik_Ionization_Penalty_Charging>
0

> <r_epik_Ionization_Penalty_Neutral>
0.011915

> <r_epik_State_Penalty>
0.00486223

> <r_epik_Charging_Adjusted_Penalty>
0.00486223

> <i_epik_Tot_Q>
0

> <i_epik_Tot_abs_Q>
0

> <r_epik_Metal_State_Penalty>
-0

> <b_epik_Metal_Only>
0

> <s_lp_Force_Field>
OPLS_2005

> <r_lp_Energy>
59.5844

> <b_lp_Chiralities_Consistent>
1

> <s_lp_Variant>
AV-unprocessed.smi:2829-6

> <Gold.Version>
5.8.1

> <Gold.Id.Protein>
6NUR|6NUR_protein|mol2

> <Gold.PLP.Fitness>
39.7817

> <Gold.PLP.PLP>
-40.2954

> <Gold.PLP.part.hbond>
0.0000

> <Gold.PLP.part.metal>
0.0000

> <Gold.PLP.part.buried>
-6.3465

> <Gold.PLP.part.nonpolar>
-36.8120

> <Gold.PLP.part.repulsive>
1.6169

> <Gold.PLP.ligand.clash>
0.0000

> <Gold.PLP.ligand.torsion>
0.3549

> <Gold.PLP.Chemscore.Hbond>
0.0000

> <Gold.PLP.Chemscore.CHOScore>
0.0000

> <Gold.PLP.Chemscore.Metal>
0.0000

> <Gold.PLP.Chemscore.Internal.Correction>
0.1960

> <Gold.Rescore>
     Score         DG    S(hbond)    S(metal)    S(lipo)     H(rot)  DE(clash)    DE(int)     intcor
     13.43     -14.72       0.00        0.00     104.38       1.16       0.07       1.23       ----

> <Gold.Chemscore.Fitness>
13.4267

> <Gold.Chemscore.DG>
-14.7183

> <Gold.Chemscore.ZeroCoef>
-5.4800

> <Gold.Chemscore.Hbond>
0.0000

> <Gold.Chemscore.Metal>
0.0000

> <Gold.Chemscore.Lipo>
104.3798

> <Gold.Chemscore.Internal_Hbond>
0.0000

> <Gold.Chemscore.DEClash>
0.0654

> <Gold.Chemscore.DEInternal>
1.2263

> <Gold.Chemscore.Rot>
1.1618

> <Gold.Chemscore.Internal.Correction>
   9.000000E+99

> <Gold.Chemscore.Hbond.Weighted>
-0.0000

> <Gold.Chemscore.Metal.Weighted>
-0.0000

> <Gold.Chemscore.Lipo.Weighted>
-12.2124

> <Gold.Chemscore.Internal_Hbond.Weighted>
0.0000

> <Gold.Chemscore.DEClash.Weighted>
0.0654

> <Gold.Chemscore.DEInternal.Weighted>
1.2263

> <Gold.Chemscore.Rot.Weighted>
2.9741

> <Gold.Chemscore.Internal.Correction.Weighted>
   9.000000E+99

> <Gold.Protein.RotatedTorsions>
[ 6907 6896 6895 6894 ] final   27.81 input  -60.11 | X-H torsion
[ 7974 7965 7964 7962 ] final  -21.48 input  175.53 | X-H torsion
[ 8008 7997 7996 7995 ] final  -77.54 input   59.86 | X-H torsion
[ 10167 10162 10161 10158 ] final   40.02 input  -65.29 | X-H torsion
[ 10718 10713 10712 10709 ] final    8.55 input   66.30 | X-H torsion
[ 10763 10752 10751 10750 ] final  -87.86 input  -60.55 | X-H torsion
[ 11005 11000 10999 10996 ] final  150.22 input  -57.11 | X-H torsion

> <Gold.Protein.ActiveResidues>
 VAL166  LYS551  ARG553  GLY616  TRP617  ASP618  TYR619  PRO620  LYS621  CYS622 
 ASP623  PHE694  ASN695  SER759  ASP760  ASP761  ALA762  ILE779  LEU786  VAL792 
 PHE793  MET794  SER795  GLU796  ALA797  LYS798  CYS799  TRP800  GLU811  SER814 

> <Gold.Protein.RotatedAtoms>
  152.0077  134.9894  160.0566 H   0  0  0  0  0  0  0  0  0  0  0  0  # atno 6907 bound_to 6896
  152.1459  133.4487  159.4798 H   0  0  0  0  0  0  0  0  0  0  0  0  # atno 6908 bound_to 6896
  150.6870  134.2167  159.4423 H   0  0  0  0  0  0  0  0  0  0  0  0  # atno 6909 bound_to 6896
  146.1731  140.4346  142.8524 H   0  0  0  0  0  0  0  0  0  0  0  0  # atno 7974 bound_to 7965
  154.5606  140.0709  156.8813 H   0  0  0  0  0  0  0  0  0  0  0  0  # atno 8008 bound_to 7997
  155.2819  140.3372  155.4239 H   0  0  0  0  0  0  0  0  0  0  0  0  # atno 8009 bound_to 7997
  156.2039  140.1732  156.7827 H   0  0  0  0  0  0  0  0  0  0  0  0  # atno 8010 bound_to 7997
  140.3783  144.2014  150.6131 H   0  0  0  0  0  0  0  0  0  0  0  0  # atno 10167 bound_to 10162
  156.9533  130.5905  149.5658 H   0  0  0  0  0  0  0  0  0  0  0  0  # atno 10718 bound_to 10713
  154.6382  135.5398  153.7759 H   0  0  0  0  0  0  0  0  0  0  0  0  # atno 10763 bound_to 10752
  153.0320  135.6452  154.1199 H   0  0  0  0  0  0  0  0  0  0  0  0  # atno 10764 bound_to 10752
  154.1125  135.2926  155.3207 H   0  0  0  0  0  0  0  0  0  0  0  0  # atno 10765 bound_to 10752
  140.1112  134.8923  157.1939 H   0  0  0  0  0  0  0  0  0  0  0  0  # atno 11005 bound_to 11000
  144.8193  140.6522  143.6363 LP  0  0  0  0  0  0  0  0  0  0  0  0  # atno 17320 bound_to 7965
  145.4287  139.1552  143.4034 LP  0  0  0  0  0  0  0  0  0  0  0  0  # atno 17321 bound_to 7965
  140.4964  143.2331  151.8743 LP  0  0  0  0  0  0  0  0  0  0  0  0  # atno 17342 bound_to 10162
  139.4797  144.5109  151.8934 LP  0  0  0  0  0  0  0  0  0  0  0  0  # atno 17343 bound_to 10162
  156.0353  130.5441  150.8638 LP  0  0  0  0  0  0  0  0  0  0  0  0  # atno 17370 bound_to 10713
  157.5707  131.0946  150.9422 LP  0  0  0  0  0  0  0  0  0  0  0  0  # atno 17371 bound_to 10713
  140.3088  134.3047  155.7271 LP  0  0  0  0  0  0  0  0  0  0  0  0  # atno 17394 bound_to 11000
  141.2130  133.7637  156.9747 LP  0  0  0  0  0  0  0  0  0  0  0  0  # atno 17395 bound_to 11000

$$$$
