AV-unprocessed.smi:2963|AV-procd|sdf|11320|dock4
  -GOLD-   2272016223D 1   1.00000     0.00000
 Structure written by MMmdl.
 42 44  0  0  0  0  0  0  0  0  2 V2000
  150.7550  137.9230  154.3839 C   0  0  0  0  0  0  0  0  0  0  0  0
  151.6695  139.0078  154.3922 O   0  0  0  0  0  0  0  0  0  0  0  0
  152.4985  139.0577  155.5440 C   0  0  0  0  0  0  0  0  0  0  0  0
  151.7007  139.4295  156.8056 C   0  0  0  0  0  0  0  0  0  0  0  0
  151.2190  140.8158  156.7548 N   0  0  0  0  0  0  0  0  0  0  0  0
  150.3301  141.4157  155.9143 C   0  0  0  0  0  0  0  0  0  0  0  0
  149.4657  140.6435  154.5843 S   0  0  0  0  0  0  0  0  0  0  0  0
  148.1203  141.7844  154.1421 C   0  0  0  0  0  0  0  0  0  0  0  0
  147.0586  141.9747  155.2389 C   0  0  0  0  0  0  0  0  0  0  0  0
  147.1812  141.3479  156.2943 O   0  0  0  0  0  0  0  0  0  0  0  0
  146.0363  142.8354  154.9853 N   0  0  0  0  0  0  0  0  0  0  0  0
  145.8922  143.5692  153.7266 C   0  0  0  0  0  0  0  0  0  0  0  0
  144.6238  144.3949  153.9138 C   0  0  0  0  0  0  0  0  0  0  0  0
  144.2146  144.0205  155.2445 N   0  0  0  0  0  0  0  0  0  0  0  0
  145.0244  143.1378  155.8339 C   0  0  0  0  0  0  0  0  0  0  0  0
  144.8393  142.7001  156.9700 O   0  0  0  0  0  0  0  0  0  0  0  0
  150.2209  142.7200  156.2919 N   0  3  0  0  0  0  0  0  0  0  0  0
  151.0448  142.9570  157.3936 C   0  0  0  0  0  0  0  0  0  0  0  0
  151.2691  144.1146  158.1325 C   0  0  0  0  0  0  0  0  0  0  0  0
  152.1752  144.0130  159.2087 C   0  0  0  0  0  0  0  0  0  0  0  0
  152.8194  142.7964  159.5145 C   0  0  0  0  0  0  0  0  0  0  0  0
  152.5856  141.6291  158.7580 C   0  0  0  0  0  0  0  0  0  0  0  0
  151.6882  141.7381  157.6963 C   0  0  0  0  0  0  0  0  0  0  0  0
  150.1223  137.9902  153.4989 H   0  0  0  0  0  0  0  0  0  0  0  0
  150.1061  137.9460  155.2604 H   0  0  0  0  0  0  0  0  0  0  0  0
  151.2665  136.9613  154.3513 H   0  0  0  0  0  0  0  0  0  0  0  0
  152.9279  138.0639  155.6759 H   0  0  0  0  0  0  0  0  0  0  0  0
  153.3373  139.7378  155.3877 H   0  0  0  0  0  0  0  0  0  0  0  0
  150.8449  138.7716  156.9567 H   0  0  0  0  0  0  0  0  0  0  0  0
  152.3302  139.3264  157.6898 H   0  0  0  0  0  0  0  0  0  0  0  0
  148.5624  142.7524  153.9047 H   0  0  0  0  0  0  0  0  0  0  0  0
  147.6459  141.4055  153.2368 H   0  0  0  0  0  0  0  0  0  0  0  0
  146.7523  144.2156  153.5454 H   0  0  0  0  0  0  0  0  0  0  0  0
  145.7858  142.8851  152.8832 H   0  0  0  0  0  0  0  0  0  0  0  0
  144.8185  145.4667  153.8594 H   0  0  0  0  0  0  0  0  0  0  0  0
  143.8525  144.1351  153.1878 H   0  0  0  0  0  0  0  0  0  0  0  0
  143.3871  144.4004  155.6816 H   0  0  0  0  0  0  0  0  0  0  0  0
  150.7766  145.0482  157.9025 H   0  0  0  0  0  0  0  0  0  0  0  0
  152.3797  144.8857  159.8122 H   0  0  0  0  0  0  0  0  0  0  0  0
  153.5063  142.7571  160.3475 H   0  0  0  0  0  0  0  0  0  0  0  0
  153.0817  140.7010  159.0018 H   0  0  0  0  0  0  0  0  0  0  0  0
  149.6228  143.3938  155.8318 H   0  0  0  0  0  0  0  0  0  0  0  0
  1  2  1  0  0  0  0
  1 24  1  0  0  0  0
  1 25  1  0  0  0  0
  1 26  1  0  0  0  0
  2  3  1  0  0  0  0
  3  4  1  0  0  0  0
  3 27  1  0  0  0  0
  3 28  1  0  0  0  0
  4  5  1  0  0  0  0
  4 29  1  0  0  0  0
  4 30  1  0  0  0  0
  5 23  1  0  0  0  0
  5  6  1  0  0  0  0
  6  7  1  0  0  0  0
  6 17  2  0  0  0  0
  7  8  1  0  0  0  0
  8  9  1  0  0  0  0
  8 31  1  0  0  0  0
  8 32  1  0  0  0  0
  9 10  2  0  0  0  0
  9 11  1  0  0  0  0
 11 15  1  0  0  0  0
 11 12  1  0  0  0  0
 12 13  1  0  0  0  0
 12 33  1  0  0  0  0
 12 34  1  0  0  0  0
 13 14  1  0  0  0  0
 13 35  1  0  0  0  0
 13 36  1  0  0  0  0
 14 15  1  0  0  0  0
 14 37  1  0  0  0  0
 15 16  2  0  0  0  0
 17 18  1  0  0  0  0
 17 42  1  0  0  0  0
 18 23  2  0  0  0  0
 18 19  1  0  0  0  0
 19 20  2  0  0  0  0
 19 38  1  0  0  0  0
 20 21  1  0  0  0  0
 20 39  1  0  0  0  0
 21 22  2  0  0  0  0
 21 40  1  0  0  0  0
 22 23  1  0  0  0  0
 22 41  1  0  0  0  0
M  CHG  1  17   1
M  END
> <s_m_source_file>
AV-unprocessed.smi

> <i_m_source_file_index>
2963

> <i_lp_mmshare_version>
43012

> <i_f3d_flags>
0

> <s_epik_input>
W2NIXTFbY0hdW2NIXVtjSF1jKGMxMiluKFtDSDJdW0NIMl1PW0NIM10pYyhuMilTW0NIMl1DKD1PKU4zW0NIMl1bQ0gyXVtOSF1DMz1P

> <s_epik_cmdline>
J2VwaWtfcHl0aG9uJywgJy1waCcsICc3LjAnLCAnLXRuJywgJzgnLCAnLW1hJywgJzIwMCcsICctbWV0YWxfYmluZGluZycsICctaW1hZScsICc8aW5maWxlLm1hZT4nLCAnLW9tYWUnLCAnPG91dGZpbGUubWFlPic=

> <r_lp_tautomer_probability>
0.9999

> <r_epik_Ionization_Penalty>
1.70838

> <r_epik_Ionization_Penalty_Charging>
1.70836

> <r_epik_Ionization_Penalty_Neutral>
2.53969e-05

> <r_epik_State_Penalty>
1.81492

> <r_epik_Charging_Adjusted_Penalty>
3.52327

> <i_epik_Tot_Q>
1

> <i_epik_Tot_abs_Q>
1

> <r_epik_Metal_State_Penalty>
1.84772

> <b_epik_Metal_Only>
0

> <s_lp_Force_Field>
OPLS_2005

> <r_lp_Energy>
48.5569

> <b_lp_Chiralities_Consistent>
1

> <s_lp_Variant>
AV-unprocessed.smi:2963-2

> <Gold.Version>
5.8.1

> <Gold.Id.Protein>
6NUR|6NUR_protein|mol2

> <Gold.PLP.Fitness>
58.2745

> <Gold.PLP.PLP>
-49.9146

> <Gold.PLP.part.hbond>
-1.8479

> <Gold.PLP.part.metal>
0.0000

> <Gold.PLP.part.buried>
-3.7761

> <Gold.PLP.part.nonpolar>
-44.6005

> <Gold.PLP.part.repulsive>
0.3466

> <Gold.PLP.ligand.clash>
0.0000

> <Gold.PLP.ligand.torsion>
0.2552

> <Gold.PLP.Chemscore.Hbond>
2.9413

> <Gold.PLP.Chemscore.CHOScore>
0.0000

> <Gold.PLP.Chemscore.Metal>
0.0000

> <Gold.Chemscore.Hbonds>
donor molecule, donor type, donor heavy atom, donor atom, acceptor molecule, acceptor atom, score
      L1  H    17    42       P1  8028  1.98
      P1  H  7989  7998       L1     2  0.96

> <Gold.PLP.Chemscore.Internal.Correction>
0.0465

> <Gold.Rescore>
     Score         DG    S(hbond)    S(metal)    S(lipo)     H(rot)  DE(clash)    DE(int)     intcor
     14.13     -17.45       1.76        0.00     104.37       2.39       0.04       3.29       ----

> <Gold.Chemscore.Fitness>
14.1270

> <Gold.Chemscore.DG>
-17.4514

> <Gold.Chemscore.ZeroCoef>
-5.4800

> <Gold.Chemscore.Hbond>
1.7627

> <Gold.Chemscore.Metal>
0.0000

> <Gold.Chemscore.Lipo>
104.3665

> <Gold.Chemscore.Internal_Hbond>
0.0000

> <Gold.Chemscore.DEClash>
0.0389

> <Gold.Chemscore.DEInternal>
3.2854

> <Gold.Chemscore.Rot>
2.3933

> <Gold.Chemscore.Internal.Correction>
   9.000000E+99

> <Gold.Chemscore.Hbonds>
donor molecule, donor type, donor heavy atom, donor atom, acceptor molecule, acceptor atom, score
      L1  H    17    42       P1  8028  0.91
      P1  H  7989  7998       L1     2  0.60

> <Gold.Chemscore.Hbond.Weighted>
-5.8874

> <Gold.Chemscore.Metal.Weighted>
-0.0000

> <Gold.Chemscore.Lipo.Weighted>
-12.2109

> <Gold.Chemscore.Internal_Hbond.Weighted>
0.0000

> <Gold.Chemscore.DEClash.Weighted>
0.0389

> <Gold.Chemscore.DEInternal.Weighted>
3.2854

> <Gold.Chemscore.Rot.Weighted>
6.1270

> <Gold.Chemscore.Internal.Correction.Weighted>
   9.000000E+99

> <Gold.Protein.RotatedTorsions>
[ 6907 6896 6895 6894 ] final -178.32 input  -60.11 | X-H torsion
[ 7974 7965 7964 7962 ] final  -17.37 input  175.53 | X-H torsion
[ 8008 7997 7996 7995 ] final   77.07 input   59.86 | X-H torsion
[ 10167 10162 10161 10158 ] final   -2.79 input  -65.29 | X-H torsion
[ 10718 10713 10712 10709 ] final  -34.22 input   66.30 | X-H torsion
[ 10763 10752 10751 10750 ] final  -98.91 input  -60.55 | X-H torsion
[ 11005 11000 10999 10996 ] final   92.62 input  -57.11 | X-H torsion

> <Gold.Protein.ActiveResidues>
 VAL166  LYS551  ARG553  GLY616  TRP617  ASP618  TYR619  PRO620  LYS621  CYS622 
 ASP623  PHE694  ASN695  SER759  ASP760  ASP761  ALA762  ILE779  LEU786  VAL792 
 PHE793  MET794  SER795  GLU796  ALA797  LYS798  CYS799  TRP800  GLU811  SER814 

> <Gold.Protein.RotatedAtoms>
  151.6354  133.3329  159.3117 H   0  0  0  0  0  0  0  0  0  0  0  0  # atno 6907 bound_to 6896
  150.8035  134.7149  159.6634 H   0  0  0  0  0  0  0  0  0  0  0  0  # atno 6908 bound_to 6896
  152.4129  134.6097  160.0074 H   0  0  0  0  0  0  0  0  0  0  0  0  # atno 6909 bound_to 6896
  146.1944  140.3770  142.8446 H   0  0  0  0  0  0  0  0  0  0  0  0  # atno 7974 bound_to 7965
  155.8363  140.3464  155.5604 H   0  0  0  0  0  0  0  0  0  0  0  0  # atno 8008 bound_to 7997
  155.8188  140.0910  157.1881 H   0  0  0  0  0  0  0  0  0  0  0  0  # atno 8009 bound_to 7997
  154.4004  140.1434  156.3463 H   0  0  0  0  0  0  0  0  0  0  0  0  # atno 8010 bound_to 7997
  140.6865  143.6615  150.8262 H   0  0  0  0  0  0  0  0  0  0  0  0  # atno 10167 bound_to 10162
  156.3532  130.4311  149.7687 H   0  0  0  0  0  0  0  0  0  0  0  0  # atno 10718 bound_to 10713
  154.7454  135.4992  153.9195 H   0  0  0  0  0  0  0  0  0  0  0  0  # atno 10763 bound_to 10752
  153.1087  135.6703  153.9548 H   0  0  0  0  0  0  0  0  0  0  0  0  # atno 10764 bound_to 10752
  153.9314  135.3077  155.3424 H   0  0  0  0  0  0  0  0  0  0  0  0  # atno 10765 bound_to 10752
  139.8821  134.8743  156.3599 H   0  0  0  0  0  0  0  0  0  0  0  0  # atno 11005 bound_to 11000
  144.8550  140.7057  143.6144 LP  0  0  0  0  0  0  0  0  0  0  0  0  # atno 17320 bound_to 7965
  145.3691  139.1663  143.4342 LP  0  0  0  0  0  0  0  0  0  0  0  0  # atno 17321 bound_to 7965
  140.0323  143.5431  152.2755 LP  0  0  0  0  0  0  0  0  0  0  0  0  # atno 17342 bound_to 10162
  139.6228  144.7632  151.2703 LP  0  0  0  0  0  0  0  0  0  0  0  0  # atno 17343 bound_to 10162
  156.4879  130.8071  151.3082 LP  0  0  0  0  0  0  0  0  0  0  0  0  # atno 17370 bound_to 10713
  157.7464  130.9985  150.2854 LP  0  0  0  0  0  0  0  0  0  0  0  0  # atno 17371 bound_to 10713
  140.9537  133.7434  156.0306 LP  0  0  0  0  0  0  0  0  0  0  0  0  # atno 17394 bound_to 11000
  140.8075  134.3438  157.5421 LP  0  0  0  0  0  0  0  0  0  0  0  0  # atno 17395 bound_to 11000

$$$$
