AV-unprocessed.smi:2821|AV-procd|sdf|10857|dock2
  -GOLD-   2272015303D 1   1.00000     0.00000
 Structure written by MMmdl.
 36 37  0  0  0  0  0  0  0  0  1 V2000
  152.8354  138.3043  156.7738 C   0  0  0  0  0  0  0  0  0  0  0  0
  153.1711  138.3170  155.2808 C   0  0  0  0  0  0  0  0  0  0  0  0
  151.9655  138.1613  154.5379 O   0  0  0  0  0  0  0  0  0  0  0  0
  150.9911  139.1295  154.6660 C   0  0  0  0  0  0  0  0  0  0  0  0
  149.7582  138.9723  153.9977 C   0  0  0  0  0  0  0  0  0  0  0  0
  148.7660  139.8837  154.1037 N   0  0  0  0  0  0  0  0  0  0  0  0
  149.0110  140.9573  154.8872 C   0  0  0  0  0  0  0  0  0  0  0  0
  150.2404  141.1298  155.5608 C   0  0  0  0  0  0  0  0  0  0  0  0
  150.4321  142.2657  156.3622 N   0  0  0  0  0  0  0  0  0  0  0  0
  150.5274  142.1859  157.8177 C   0  0  1  0  0  0  0  0  0  0  0  0
  151.7166  141.2837  158.1857 C   0  0  0  0  0  0  0  0  0  0  0  0
  150.6601  143.5932  158.4460 C   0  0  2  0  0  0  0  0  0  0  0  0
  151.9629  144.3186  158.0993 C   0  0  0  0  0  0  0  0  0  0  0  0
  152.1060  145.2811  159.2548 C   0  0  0  0  0  0  0  0  0  0  0  0
  151.6227  144.4293  160.4217 C   0  0  0  0  0  0  0  0  0  0  0  0
  150.6671  143.5271  159.8724 O   0  0  0  0  0  0  0  0  0  0  0  0
  151.2333  140.2166  155.4403 N   0  0  0  0  0  0  0  0  0  0  0  0
  153.7364  138.4210  157.3761 H   0  0  0  0  0  0  0  0  0  0  0  0
  152.3604  137.3657  157.0601 H   0  0  0  0  0  0  0  0  0  0  0  0
  152.1551  139.1172  157.0285 H   0  0  0  0  0  0  0  0  0  0  0  0
  153.6580  139.2595  155.0248 H   0  0  0  0  0  0  0  0  0  0  0  0
  153.8649  137.5061  155.0538 H   0  0  0  0  0  0  0  0  0  0  0  0
  149.5652  138.1082  153.3794 H   0  0  0  0  0  0  0  0  0  0  0  0
  148.2165  141.6839  154.9769 H   0  0  0  0  0  0  0  0  0  0  0  0
  150.3797  143.1797  155.9365 H   0  0  0  0  0  0  0  0  0  0  0  0
  149.6301  141.7079  158.2119 H   0  0  0  0  0  0  0  0  0  0  0  0
  151.7855  141.1285  159.2623 H   0  0  0  0  0  0  0  0  0  0  0  0
  152.6612  141.7131  157.8499 H   0  0  0  0  0  0  0  0  0  0  0  0
  151.6173  140.2994  157.7268 H   0  0  0  0  0  0  0  0  0  0  0  0
  149.8174  144.2200  158.1494 H   0  0  0  0  0  0  0  0  0  0  0  0
  152.8013  143.6204  158.0921 H   0  0  0  0  0  0  0  0  0  0  0  0
  151.9269  144.8208  157.1322 H   0  0  0  0  0  0  0  0  0  0  0  0
  153.1240  145.6488  159.3868 H   0  0  0  0  0  0  0  0  0  0  0  0
  151.4453  146.1374  159.1133 H   0  0  0  0  0  0  0  0  0  0  0  0
  152.4466  143.8482  160.8378 H   0  0  0  0  0  0  0  0  0  0  0  0
  151.1909  145.0286  161.2235 H   0  0  0  0  0  0  0  0  0  0  0  0
  1  2  1  0  0  0  0
  1 18  1  0  0  0  0
  1 19  1  0  0  0  0
  1 20  1  0  0  0  0
  2  3  1  0  0  0  0
  2 21  1  0  0  0  0
  2 22  1  0  0  0  0
  3  4  1  0  0  0  0
  4 17  1  0  0  0  0
  4  5  2  0  0  0  0
  5  6  1  0  0  0  0
  5 23  1  0  0  0  0
  6  7  2  0  0  0  0
  7  8  1  0  0  0  0
  7 24  1  0  0  0  0
  8  9  1  0  0  0  0
  8 17  2  0  0  0  0
  9 10  1  0  0  0  0
  9 25  1  0  0  0  0
 10 11  1  0  0  0  0
 10 12  1  0  0  0  0
 10 26  1  0  0  0  0
 11 27  1  0  0  0  0
 11 28  1  0  0  0  0
 11 29  1  0  0  0  0
 12 16  1  0  0  0  0
 12 13  1  0  0  0  0
 12 30  1  0  0  0  0
 13 14  1  0  0  0  0
 13 31  1  0  0  0  0
 13 32  1  0  0  0  0
 14 15  1  0  0  0  0
 14 33  1  0  0  0  0
 14 34  1  0  0  0  0
 15 16  1  0  0  0  0
 15 35  1  0  0  0  0
 15 36  1  0  0  0  0
M  END
> <s_m_source_file>
AV-unprocessed.smi

> <i_m_source_file_index>
2821

> <i_lp_mmshare_version>
43012

> <i_f3d_flags>
0

> <s_epik_input>
W0NIM11bQ0gyXU9jMVtjSF1uW2NIXWMobjEpW05IXVtDQEhdKFtDSDNdKVtDQEBIXTJbQ0gyXVtDSDJdW0NIMl1PMg==

> <s_epik_cmdline>
J2VwaWtfcHl0aG9uJywgJy1waCcsICc3LjAnLCAnLXRuJywgJzgnLCAnLW1hJywgJzIwMCcsICctbWV0YWxfYmluZGluZycsICctaW1hZScsICc8aW5maWxlLm1hZT4nLCAnLW9tYWUnLCAnPG91dGZpbGUubWFlPic=

> <r_lp_tautomer_probability>
1

> <r_epik_Ionization_Penalty>
4.69533e-05

> <r_epik_Ionization_Penalty_Charging>
0

> <r_epik_Ionization_Penalty_Neutral>
4.69533e-05

> <r_epik_State_Penalty>
-0

> <r_epik_Charging_Adjusted_Penalty>
0

> <i_epik_Tot_Q>
0

> <i_epik_Tot_abs_Q>
0

> <r_epik_Metal_State_Penalty>
-0

> <b_epik_Metal_Only>
0

> <s_lp_Force_Field>
OPLS_2005

> <r_lp_Energy>
28.2268

> <b_lp_Chiralities_Consistent>
1

> <s_lp_Variant>
AV-unprocessed.smi:2821-2

> <Gold.Version>
5.8.1

> <Gold.Id.Protein>
6NUR|6NUR_protein|mol2

> <Gold.PLP.Fitness>
42.0786

> <Gold.PLP.PLP>
-37.2642

> <Gold.PLP.part.hbond>
-2.2429

> <Gold.PLP.part.metal>
0.0000

> <Gold.PLP.part.buried>
-4.5225

> <Gold.PLP.part.nonpolar>
-31.1895

> <Gold.PLP.part.repulsive>
0.4483

> <Gold.PLP.ligand.clash>
0.0000

> <Gold.PLP.ligand.torsion>
0.6895

> <Gold.PLP.Chemscore.Hbond>
1.0488

> <Gold.PLP.Chemscore.CHOScore>
1.0000

> <Gold.PLP.Chemscore.Metal>
0.0000

> <Gold.Chemscore.Hbonds>
donor molecule, donor type, donor heavy atom, donor atom, acceptor molecule, acceptor atom, score
      L1  H     9    25       P1  8028  0.51
      L1  C     5    23       P1  7948  1.00

> <Gold.PLP.Chemscore.Internal.Correction>
0.0471

> <Gold.Rescore>
     Score         DG    S(hbond)    S(metal)    S(lipo)     H(rot)  DE(clash)    DE(int)     intcor
     13.62     -15.40       0.98        0.00      90.88       1.55       0.03       1.74       ----

> <Gold.Chemscore.Fitness>
13.6216

> <Gold.Chemscore.DG>
-15.4009

> <Gold.Chemscore.ZeroCoef>
-5.4800

> <Gold.Chemscore.Hbond>
0.9758

> <Gold.Chemscore.Metal>
0.0000

> <Gold.Chemscore.Lipo>
90.8810

> <Gold.Chemscore.Internal_Hbond>
0.0000

> <Gold.Chemscore.DEClash>
0.0348

> <Gold.Chemscore.DEInternal>
1.7445

> <Gold.Chemscore.Rot>
1.5514

> <Gold.Chemscore.Internal.Correction>
   9.000000E+99

> <Gold.Chemscore.Hbonds>
donor molecule, donor type, donor heavy atom, donor atom, acceptor molecule, acceptor atom, score
      L1  H     9    25       P1  8028  0.52

> <Gold.Chemscore.Hbond.Weighted>
-3.2593

> <Gold.Chemscore.Metal.Weighted>
-0.0000

> <Gold.Chemscore.Lipo.Weighted>
-10.6331

> <Gold.Chemscore.Internal_Hbond.Weighted>
0.0000

> <Gold.Chemscore.DEClash.Weighted>
0.0348

> <Gold.Chemscore.DEInternal.Weighted>
1.7445

> <Gold.Chemscore.Rot.Weighted>
3.9715

> <Gold.Chemscore.Internal.Correction.Weighted>
   9.000000E+99

> <Gold.Protein.RotatedTorsions>
[ 6907 6896 6895 6894 ] final  -94.72 input  -60.11 | X-H torsion
[ 7974 7965 7964 7962 ] final -127.96 input  175.53 | X-H torsion
[ 8008 7997 7996 7995 ] final  -41.02 input   59.86 | X-H torsion
[ 10167 10162 10161 10158 ] final -116.69 input  -65.29 | X-H torsion
[ 10718 10713 10712 10709 ] final   55.16 input   66.30 | X-H torsion
[ 10763 10752 10751 10750 ] final  -58.20 input  -60.55 | X-H torsion
[ 11005 11000 10999 10996 ] final  -95.66 input  -57.11 | X-H torsion

> <Gold.Protein.ActiveResidues>
 VAL166  LYS551  ARG553  GLY616  TRP617  ASP618  TYR619  PRO620  LYS621  CYS622 
 ASP623  PHE694  ASN695  SER759  ASP760  ASP761  ALA762  ILE779  LEU786  VAL792 
 PHE793  MET794  SER795  GLU796  ALA797  LYS798  CYS799  TRP800  GLU811  SER814 

> <Gold.Protein.RotatedAtoms>
  150.6948  134.1769  159.4233 H   0  0  0  0  0  0  0  0  0  0  0  0  # atno 6907 bound_to 6896
  151.9745  135.0058  160.0563 H   0  0  0  0  0  0  0  0  0  0  0  0  # atno 6908 bound_to 6896
  152.1812  133.4673  159.4996 H   0  0  0  0  0  0  0  0  0  0  0  0  # atno 6909 bound_to 6896
  144.9718  140.7553  143.4665 H   0  0  0  0  0  0  0  0  0  0  0  0  # atno 7974 bound_to 7965
  154.4007  140.1510  156.3122 H   0  0  0  0  0  0  0  0  0  0  0  0  # atno 8008 bound_to 7997
  155.8605  140.3453  155.5732 H   0  0  0  0  0  0  0  0  0  0  0  0  # atno 8009 bound_to 7997
  155.7885  140.0853  157.2012 H   0  0  0  0  0  0  0  0  0  0  0  0  # atno 8010 bound_to 7997
  140.0765  143.4828  152.1950 H   0  0  0  0  0  0  0  0  0  0  0  0  # atno 10167 bound_to 10162
  157.5321  130.8637  149.8701 H   0  0  0  0  0  0  0  0  0  0  0  0  # atno 10718 bound_to 10713
  154.2344  135.6355  153.5186 H   0  0  0  0  0  0  0  0  0  0  0  0  # atno 10763 bound_to 10752
  152.9942  135.5527  154.5978 H   0  0  0  0  0  0  0  0  0  0  0  0  # atno 10764 bound_to 10752
  154.5469  135.2898  155.1019 H   0  0  0  0  0  0  0  0  0  0  0  0  # atno 10765 bound_to 10752
  141.1435  133.8042  157.0465 H   0  0  0  0  0  0  0  0  0  0  0  0  # atno 11005 bound_to 11000
  145.2547  139.2017  143.4923 LP  0  0  0  0  0  0  0  0  0  0  0  0  # atno 17320 bound_to 7965
  146.3384  140.2467  142.8597 LP  0  0  0  0  0  0  0  0  0  0  0  0  # atno 17321 bound_to 7965
  139.5805  144.7508  151.3653 LP  0  0  0  0  0  0  0  0  0  0  0  0  # atno 17342 bound_to 10162
  140.7099  143.7417  150.7549 LP  0  0  0  0  0  0  0  0  0  0  0  0  # atno 17343 bound_to 10162
  156.0430  130.3734  150.1387 LP  0  0  0  0  0  0  0  0  0  0  0  0  # atno 17370 bound_to 10713
  156.9571  130.9793  151.3486 LP  0  0  0  0  0  0  0  0  0  0  0  0  # atno 17371 bound_to 10713
  140.0659  134.9729  157.1385 LP  0  0  0  0  0  0  0  0  0  0  0  0  # atno 17394 bound_to 11000
  140.3780  134.2318  155.7173 LP  0  0  0  0  0  0  0  0  0  0  0  0  # atno 17395 bound_to 11000

$$$$
