AV-unprocessed.smi:1749|AV-procd|sdf|7049|dock10
  -GOLD-   22720 8263D 1   1.00000     0.00000
 Structure written by MMmdl.
 31 32  0  0  0  0  0  0  0  0  2 V2000
  152.7935  143.9049  162.3721 C   0  0  0  0  0  0  0  0  0  0  0  0
  151.9703  143.8604  161.0770 C   0  0  1  0  0  0  0  0  0  0  0  0
  151.9617  145.2274  160.3664 C   0  0  0  0  0  0  0  0  0  0  0  0
  151.1342  145.1830  159.0725 C   0  0  0  0  0  0  0  0  0  0  0  0
  151.6375  144.0814  158.1278 C   0  0  0  0  0  0  0  0  0  0  0  0
  151.6463  142.7077  158.8225 C   0  0  1  0  0  0  0  0  0  0  0  0
  152.1799  141.7062  157.9038 N   0  0  0  0  0  0  0  0  0  0  0  0
  152.2613  140.3790  158.1236 C   0  0  0  0  0  0  0  0  0  0  0  0
  151.8795  139.9291  159.2032 O   0  0  0  0  0  0  0  0  0  0  0  0
  152.7667  139.6010  157.1300 N   0  5  0  0  0  0  0  0  0  0  0  0
  152.0193  139.1635  156.0995 C   0  0  0  0  0  0  0  0  0  0  0  0
  150.6824  139.2861  156.0745 N   0  0  0  0  0  0  0  0  0  0  0  0
  150.1079  138.7650  154.9230 N   0  0  0  0  0  0  0  0  0  0  0  0
  151.0321  138.2703  154.1001 C   0  0  0  0  0  0  0  0  0  0  0  0
  152.6873  138.3961  154.6566 S   0  0  0  0  0  0  0  0  0  0  0  0
  152.4751  142.7595  160.1234 C   0  0  0  0  0  0  0  0  0  0  0  0
  153.8382  144.1437  162.1708 H   0  0  0  0  0  0  0  0  0  0  0  0
  152.7647  142.9444  162.8875 H   0  0  0  0  0  0  0  0  0  0  0  0
  152.4055  144.6583  163.0578 H   0  0  0  0  0  0  0  0  0  0  0  0
  150.9425  143.6183  161.3514 H   0  0  0  0  0  0  0  0  0  0  0  0
  151.5586  145.9919  161.0314 H   0  0  0  0  0  0  0  0  0  0  0  0
  152.9840  145.5286  160.1332 H   0  0  0  0  0  0  0  0  0  0  0  0
  150.0855  145.0055  159.3142 H   0  0  0  0  0  0  0  0  0  0  0  0
  151.1766  146.1500  158.5707 H   0  0  0  0  0  0  0  0  0  0  0  0
  151.0096  144.0460  157.2367 H   0  0  0  0  0  0  0  0  0  0  0  0
  152.6441  144.3297  157.7869 H   0  0  0  0  0  0  0  0  0  0  0  0
  150.6154  142.4464  159.0688 H   0  0  0  0  0  0  0  0  0  0  0  0
  152.5118  142.0456  157.0130 H   0  0  0  0  0  0  0  0  0  0  0  0
  150.7380  137.8300  153.1592 H   0  0  0  0  0  0  0  0  0  0  0  0
  153.5247  142.9363  159.8829 H   0  0  0  0  0  0  0  0  0  0  0  0
  152.4346  141.7933  160.6279 H   0  0  0  0  0  0  0  0  0  0  0  0
  1  2  1  0  0  0  0
  1 17  1  0  0  0  0
  1 18  1  0  0  0  0
  1 19  1  0  0  0  0
  2 16  1  0  0  0  0
  2  3  1  0  0  0  0
  2 20  1  0  0  0  0
  3  4  1  0  0  0  0
  3 21  1  0  0  0  0
  3 22  1  0  0  0  0
  4  5  1  0  0  0  0
  4 23  1  0  0  0  0
  4 24  1  0  0  0  0
  5  6  1  0  0  0  0
  5 25  1  0  0  0  0
  5 26  1  0  0  0  0
  6  7  1  0  0  0  0
  6 16  1  0  0  0  0
  6 27  1  0  0  0  0
  7  8  1  0  0  0  0
  7 28  1  0  0  0  0
  8  9  2  0  0  0  0
  8 10  1  0  0  0  0
 10 11  1  0  0  0  0
 11 15  1  0  0  0  0
 11 12  2  0  0  0  0
 12 13  1  0  0  0  0
 13 14  2  0  0  0  0
 14 15  1  0  0  0  0
 14 29  1  0  0  0  0
 16 30  1  0  0  0  0
 16 31  1  0  0  0  0
M  CHG  1  10  -1
M  END
> <s_m_source_file>
AV-unprocessed.smi

> <i_m_source_file_index>
1749

> <i_lp_mmshare_version>
43012

> <i_f3d_flags>
0

> <s_epik_input>
W0NIM11bQ0BASF0xW0NIMl1bQ0gyXVtDSDJdW0NASF0oW0NIMl0xKVtOSF1DKD1PKVtOSF1jMm5uW2NIXXMy

> <s_epik_cmdline>
J2VwaWtfcHl0aG9uJywgJy1waCcsICc3LjAnLCAnLXRuJywgJzgnLCAnLW1hJywgJzIwMCcsICctbWV0YWxfYmluZGluZycsICctaW1hZScsICc8aW5maWxlLm1hZT4nLCAnLW9tYWUnLCAnPG91dGZpbGUubWFlPic=

> <r_lp_tautomer_probability>
1

> <r_epik_Ionization_Penalty>
4.55442

> <r_epik_Ionization_Penalty_Charging>
4.5081

> <r_epik_Ionization_Penalty_Neutral>
0.0463156

> <r_epik_State_Penalty>
4.50781

> <r_epik_Charging_Adjusted_Penalty>
9.01591

> <i_epik_Tot_Q>
-1

> <i_epik_Tot_abs_Q>
1

> <r_epik_Metal_State_Penalty>
0.823335

> <b_epik_Metal_Only>
1

> <s_lp_Force_Field>
OPLS_2005

> <r_lp_Energy>
8.86437

> <b_lp_Chiralities_Consistent>
1

> <s_lp_Variant>
AV-unprocessed.smi:1749-6

> <Gold.Version>
5.8.1

> <Gold.Id.Protein>
6NUR|6NUR_protein|mol2

> <Gold.PLP.Fitness>
44.0646

> <Gold.PLP.PLP>
-36.4118

> <Gold.PLP.part.hbond>
-1.0000

> <Gold.PLP.part.metal>
0.0000

> <Gold.PLP.part.buried>
-3.9383

> <Gold.PLP.part.nonpolar>
-30.4870

> <Gold.PLP.part.repulsive>
0.1951

> <Gold.PLP.ligand.clash>
0.0000

> <Gold.PLP.ligand.torsion>
0.7781

> <Gold.PLP.Chemscore.Hbond>
2.0000

> <Gold.PLP.Chemscore.CHOScore>
1.0671

> <Gold.PLP.Chemscore.Metal>
0.0000

> <Gold.Chemscore.Hbonds>
donor molecule, donor type, donor heavy atom, donor atom, acceptor molecule, acceptor atom, score
      P1  H  7997  8010       L1    10  2.00
      L1  C    14    29       P1  7948  0.29
      L1  C    14    29       P1  7949  0.77

> <Gold.PLP.Chemscore.Internal.Correction>
0.0078

> <Gold.Rescore>
     Score         DG    S(hbond)    S(metal)    S(lipo)     H(rot)  DE(clash)    DE(int)     intcor
     13.18     -15.65       0.48        0.00      95.12       1.00       0.06       2.41       ----

> <Gold.Chemscore.Fitness>
13.1780

> <Gold.Chemscore.DG>
-15.6532

> <Gold.Chemscore.ZeroCoef>
-5.4800

> <Gold.Chemscore.Hbond>
0.4802

> <Gold.Chemscore.Metal>
0.0000

> <Gold.Chemscore.Lipo>
95.1224

> <Gold.Chemscore.Internal_Hbond>
0.0000

> <Gold.Chemscore.DEClash>
0.0624

> <Gold.Chemscore.DEInternal>
2.4128

> <Gold.Chemscore.Rot>
1.0000

> <Gold.Chemscore.Internal.Correction>
   9.000000E+99

> <Gold.Chemscore.Hbonds>
donor molecule, donor type, donor heavy atom, donor atom, acceptor molecule, acceptor atom, score
      P1  H  7997  8010       L1    10  0.60

> <Gold.Chemscore.Hbond.Weighted>
-1.6039

> <Gold.Chemscore.Metal.Weighted>
-0.0000

> <Gold.Chemscore.Lipo.Weighted>
-11.1293

> <Gold.Chemscore.Internal_Hbond.Weighted>
0.0000

> <Gold.Chemscore.DEClash.Weighted>
0.0624

> <Gold.Chemscore.DEInternal.Weighted>
2.4128

> <Gold.Chemscore.Rot.Weighted>
2.5600

> <Gold.Chemscore.Internal.Correction.Weighted>
   9.000000E+99

> <Gold.Protein.RotatedTorsions>
[ 6907 6896 6895 6894 ] final  128.18 input  -60.11 | X-H torsion
[ 7974 7965 7964 7962 ] final  -91.45 input  175.53 | X-H torsion
[ 8008 7997 7996 7995 ] final   70.30 input   59.86 | X-H torsion
[ 10167 10162 10161 10158 ] final  159.95 input  -65.29 | X-H torsion
[ 10718 10713 10712 10709 ] final -147.24 input   66.30 | X-H torsion
[ 10763 10752 10751 10750 ] final -128.44 input  -60.55 | X-H torsion
[ 11005 11000 10999 10996 ] final -175.69 input  -57.11 | X-H torsion

> <Gold.Protein.ActiveResidues>
 VAL166  LYS551  ARG553  GLY616  TRP617  ASP618  TYR619  PRO620  LYS621  CYS622 
 ASP623  PHE694  ASN695  SER759  ASP760  ASP761  ALA762  ILE779  LEU786  VAL792 
 PHE793  MET794  SER795  GLU796  ALA797  LYS798  CYS799  TRP800  GLU811  SER814 

> <Gold.Protein.RotatedAtoms>
  152.3744  133.6461  159.6111 H   0  0  0  0  0  0  0  0  0  0  0  0  # atno 6907 bound_to 6896
  150.7693  133.9218  159.3409 H   0  0  0  0  0  0  0  0  0  0  0  0  # atno 6908 bound_to 6896
  151.7035  135.0927  160.0306 H   0  0  0  0  0  0  0  0  0  0  0  0  # atno 6909 bound_to 6896
  145.4130  140.9546  143.2224 H   0  0  0  0  0  0  0  0  0  0  0  0  # atno 7974 bound_to 7965
  155.7368  140.3491  155.5085 H   0  0  0  0  0  0  0  0  0  0  0  0  # atno 8008 bound_to 7997
  155.9132  140.1054  157.1285 H   0  0  0  0  0  0  0  0  0  0  0  0  # atno 8009 bound_to 7997
  154.4059  140.1264  156.4570 H   0  0  0  0  0  0  0  0  0  0  0  0  # atno 8010 bound_to 7997
  139.4836  144.4681  151.8614 H   0  0  0  0  0  0  0  0  0  0  0  0  # atno 10167 bound_to 10162
  156.4050  130.7953  151.2166 H   0  0  0  0  0  0  0  0  0  0  0  0  # atno 10718 bound_to 10713
  154.8756  135.3928  154.3758 H   0  0  0  0  0  0  0  0  0  0  0  0  # atno 10763 bound_to 10752
  153.4511  135.7028  153.6113 H   0  0  0  0  0  0  0  0  0  0  0  0  # atno 10764 bound_to 10752
  153.4652  135.3803  155.2329 H   0  0  0  0  0  0  0  0  0  0  0  0  # atno 10765 bound_to 10752
  140.4605  134.6259  157.4840 H   0  0  0  0  0  0  0  0  0  0  0  0  # atno 11005 bound_to 11000
  144.8296  139.5650  143.6949 LP  0  0  0  0  0  0  0  0  0  0  0  0  # atno 17320 bound_to 7965
  146.2695  139.6601  142.9306 LP  0  0  0  0  0  0  0  0  0  0  0  0  # atno 17321 bound_to 7965
  140.4148  144.2322  150.5888 LP  0  0  0  0  0  0  0  0  0  0  0  0  # atno 17342 bound_to 10162
  140.4932  143.2341  151.8788 LP  0  0  0  0  0  0  0  0  0  0  0  0  # atno 17343 bound_to 10162
  157.7505  131.0275  150.4008 LP  0  0  0  0  0  0  0  0  0  0  0  0  # atno 17370 bound_to 10713
  156.4295  130.3969  149.6770 LP  0  0  0  0  0  0  0  0  0  0  0  0  # atno 17371 bound_to 10713
  139.9948  134.6928  155.9627 LP  0  0  0  0  0  0  0  0  0  0  0  0  # atno 17394 bound_to 11000
  141.1623  133.6538  156.4362 LP  0  0  0  0  0  0  0  0  0  0  0  0  # atno 17395 bound_to 11000

$$$$
