AV-unprocessed.smi:148|AV-procd|sdf|1219|dock3
  -GOLD-   2262018403D 1   1.00000     0.00000
 Structure written by MMmdl.
 63 67  0  0  0  0  0  0  0  0  1 V2000
  156.8334  134.0043  161.3502 O   0  0  0  0  0  0  0  0  0  0  0  0
  156.1387  134.6920  162.3718 C   0  0  0  0  0  0  0  0  0  0  0  0
  155.5982  136.0688  161.8980 C   0  0  1  0  0  0  0  0  0  0  0  0
  154.7047  136.0274  160.6180 C   0  0  0  0  0  0  0  0  0  0  0  0
  154.4171  137.3129  160.0037 N   0  0  0  0  0  0  0  0  0  0  0  0
  155.3369  138.2474  159.5841 C   0  0  0  0  0  0  0  0  0  0  0  0
  154.8294  139.3368  159.0752 N   0  0  0  0  0  0  0  0  0  0  0  0
  153.4560  139.1341  159.1439 C   0  0  0  0  0  0  0  0  0  0  0  0
  152.3150  139.9094  158.7916 C   0  0  0  0  0  0  0  0  0  0  0  0
  152.3585  141.1582  158.2743 N   0  0  0  0  0  0  0  0  0  0  0  0
  152.9322  142.0845  159.2495 C   0  0  0  0  0  0  0  0  0  0  0  0
  153.2318  143.4479  158.6144 C   0  0  0  0  0  0  0  0  0  0  0  0
  151.9676  144.0190  157.9645 C   0  0  0  0  0  0  0  0  0  0  0  0
  151.4052  143.0206  156.9437 C   0  0  0  0  0  0  0  0  0  0  0  0
  151.1459  141.6282  157.5780 C   0  0  1  0  0  0  0  0  0  0  0  0
  150.5836  140.5813  156.5639 C   0  0  2  0  0  0  0  0  0  0  0  0
  151.6227  139.6692  155.8818 C   0  0  0  0  0  0  0  0  0  0  0  0
  151.0585  139.3311  154.4921 C   0  0  0  0  0  0  0  0  0  0  0  0
  149.6680  139.9696  154.4278 C   0  0  0  0  0  0  0  0  0  0  0  0
  149.7461  141.1417  155.4048 C   0  0  1  0  0  0  0  0  0  0  0  0
  148.4596  141.5476  155.8243 O   0  0  0  0  0  0  0  0  0  0  0  0
  151.0891  139.3658  158.9905 N   0  0  0  0  0  0  0  0  0  0  0  0
  150.9787  138.1455  159.5242 C   0  0  0  0  0  0  0  0  0  0  0  0
  151.9467  137.3164  159.9211 N   0  0  0  0  0  0  0  0  0  0  0  0
  153.1806  137.8576  159.7082 C   0  0  0  0  0  0  0  0  0  0  0  0
  154.9256  136.9019  163.0305 C   0  0  1  0  0  0  0  0  0  0  0  0
  153.6830  136.2831  163.6601 C   0  0  0  0  0  0  0  0  0  0  0  0
  154.2569  135.3087  164.6847 C   0  0  0  0  0  0  0  0  0  0  0  0
  155.5232  135.8428  165.0558 O   0  0  0  0  0  0  0  0  0  0  0  0
  155.7977  137.0107  164.2895 C   0  0  0  0  0  0  0  0  0  0  0  0
  157.7259  133.8702  161.6310 H   0  0  0  0  0  0  0  0  0  0  0  0
  155.3221  134.0584  162.7155 H   0  0  0  0  0  0  0  0  0  0  0  0
  156.7901  134.8034  163.2381 H   0  0  0  0  0  0  0  0  0  0  0  0
  156.4905  136.6219  161.6012 H   0  0  0  0  0  0  0  0  0  0  0  0
  155.1501  135.3978  159.8476 H   0  0  0  0  0  0  0  0  0  0  0  0
  153.7515  135.5553  160.8596 H   0  0  0  0  0  0  0  0  0  0  0  0
  156.4025  138.0997  159.6841 H   0  0  0  0  0  0  0  0  0  0  0  0
  152.2371  142.2100  160.0812 H   0  0  0  0  0  0  0  0  0  0  0  0
  153.8516  141.6682  159.6648 H   0  0  0  0  0  0  0  0  0  0  0  0
  153.6119  144.1372  159.3689 H   0  0  0  0  0  0  0  0  0  0  0  0
  154.0169  143.3404  157.8646 H   0  0  0  0  0  0  0  0  0  0  0  0
  151.2188  144.2260  158.7301 H   0  0  0  0  0  0  0  0  0  0  0  0
  152.1907  144.9690  157.4783 H   0  0  0  0  0  0  0  0  0  0  0  0
  150.4869  143.4372  156.5333 H   0  0  0  0  0  0  0  0  0  0  0  0
  152.1067  142.9411  156.1140 H   0  0  0  0  0  0  0  0  0  0  0  0
  150.3819  141.7775  158.3412 H   0  0  0  0  0  0  0  0  0  0  0  0
  149.9063  139.9140  157.0989 H   0  0  0  0  0  0  0  0  0  0  0  0
  152.5917  140.1535  155.7732 H   0  0  0  0  0  0  0  0  0  0  0  0
  151.7876  138.7667  156.4714 H   0  0  0  0  0  0  0  0  0  0  0  0
  151.6997  139.7636  153.7228 H   0  0  0  0  0  0  0  0  0  0  0  0
  151.0172  138.2559  154.3155 H   0  0  0  0  0  0  0  0  0  0  0  0
  149.3929  140.2790  153.4188 H   0  0  0  0  0  0  0  0  0  0  0  0
  148.9239  139.2470  154.7674 H   0  0  0  0  0  0  0  0  0  0  0  0
  150.2470  141.9730  154.9110 H   0  0  0  0  0  0  0  0  0  0  0  0
  148.5555  142.2454  156.4545 H   0  0  0  0  0  0  0  0  0  0  0  0
  149.9699  137.7839  159.6573 H   0  0  0  0  0  0  0  0  0  0  0  0
  154.6919  137.8936  162.6406 H   0  0  0  0  0  0  0  0  0  0  0  0
  153.1254  137.0617  164.1829 H   0  0  0  0  0  0  0  0  0  0  0  0
  152.9879  135.8168  162.9645 H   0  0  0  0  0  0  0  0  0  0  0  0
  153.6053  135.1917  165.5508 H   0  0  0  0  0  0  0  0  0  0  0  0
  154.4090  134.3254  164.2385 H   0  0  0  0  0  0  0  0  0  0  0  0
  156.8649  137.1036  164.0908 H   0  0  0  0  0  0  0  0  0  0  0  0
  155.4987  137.8807  164.8759 H   0  0  0  0  0  0  0  0  0  0  0  0
  1  2  1  0  0  0  0
  1 31  1  0  0  0  0
  2  3  1  0  0  0  0
  2 32  1  0  0  0  0
  2 33  1  0  0  0  0
  3  4  1  0  0  0  0
  3 26  1  0  0  0  0
  3 34  1  0  0  0  0
  4  5  1  0  0  0  0
  4 35  1  0  0  0  0
  4 36  1  0  0  0  0
  5 25  1  0  0  0  0
  5  6  1  0  0  0  0
  6  7  2  0  0  0  0
  6 37  1  0  0  0  0
  7  8  1  0  0  0  0
  8 25  2  0  0  0  0
  8  9  1  0  0  0  0
  9 10  1  0  0  0  0
  9 22  2  0  0  0  0
 10 15  1  0  0  0  0
 10 11  1  0  0  0  0
 11 12  1  0  0  0  0
 11 38  1  0  0  0  0
 11 39  1  0  0  0  0
 12 13  1  0  0  0  0
 12 40  1  0  0  0  0
 12 41  1  0  0  0  0
 13 14  1  0  0  0  0
 13 42  1  0  0  0  0
 13 43  1  0  0  0  0
 14 15  1  0  0  0  0
 14 44  1  0  0  0  0
 14 45  1  0  0  0  0
 15 16  1  0  0  0  0
 15 46  1  0  0  0  0
 16 20  1  0  0  0  0
 16 17  1  0  0  0  0
 16 47  1  0  0  0  0
 17 18  1  0  0  0  0
 17 48  1  0  0  0  0
 17 49  1  0  0  0  0
 18 19  1  0  0  0  0
 18 50  1  0  0  0  0
 18 51  1  0  0  0  0
 19 20  1  0  0  0  0
 19 52  1  0  0  0  0
 19 53  1  0  0  0  0
 20 21  1  0  0  0  0
 20 54  1  0  0  0  0
 21 55  1  0  0  0  0
 22 23  1  0  0  0  0
 23 24  2  0  0  0  0
 23 56  1  0  0  0  0
 24 25  1  0  0  0  0
 26 30  1  0  0  0  0
 26 27  1  0  0  0  0
 26 57  1  0  0  0  0
 27 28  1  0  0  0  0
 27 58  1  0  0  0  0
 27 59  1  0  0  0  0
 28 29  1  0  0  0  0
 28 60  1  0  0  0  0
 28 61  1  0  0  0  0
 29 30  1  0  0  0  0
 30 62  1  0  0  0  0
 30 63  1  0  0  0  0
M  END
> <s_m_source_file>
AV-unprocessed.smi

> <i_m_source_file_index>
148

> <i_lp_mmshare_version>
43012

> <i_f3d_flags>
0

> <s_epik_input>
W0NIMl0xT1tDSDJdW0NIMl1bQ0BIXTFbQ0BIXShbQ0gyXVtPSF0pW0NIMl1uKFtjSF1uMiljKGMyMyluW2NIXW5jM040W0NIMl1bQ0gyXVtDSDJdW0NIMl1bQ0BIXTRbQ0BASF01W0NIMl1bQ0gyXVtDSDJdW0NASF01W09IXQ==

> <s_epik_cmdline>
J2VwaWtfcHl0aG9uJywgJy1waCcsICc3LjAnLCAnLXRuJywgJzgnLCAnLW1hJywgJzIwMCcsICctbWV0YWxfYmluZGluZycsICctaW1hZScsICc8aW5maWxlLm1hZT4nLCAnLW9tYWUnLCAnPG91dGZpbGUubWFlPic=

> <r_lp_tautomer_probability>
1

> <r_epik_Ionization_Penalty>
0.00556303

> <r_epik_Ionization_Penalty_Charging>
0

> <r_epik_Ionization_Penalty_Neutral>
0.00556303

> <r_epik_State_Penalty>
0.00401767

> <r_epik_Charging_Adjusted_Penalty>
0.00401767

> <i_epik_Tot_Q>
0

> <i_epik_Tot_abs_Q>
0

> <r_epik_Metal_State_Penalty>
-0

> <b_epik_Metal_Only>
0

> <s_lp_Force_Field>
OPLS_2005

> <r_lp_Energy>
73.5051

> <b_lp_Chiralities_Consistent>
1

> <s_lp_Variant>
AV-unprocessed.smi:148-18

> <Gold.Version>
5.8.1

> <Gold.Id.Protein>
6NUR|6NUR_protein|mol2

> <Gold.PLP.Fitness>
47.5883

> <Gold.PLP.PLP>
-43.3045

> <Gold.PLP.part.hbond>
-1.9924

> <Gold.PLP.part.metal>
0.0000

> <Gold.PLP.part.buried>
-3.2318

> <Gold.PLP.part.nonpolar>
-38.1286

> <Gold.PLP.part.repulsive>
0.0914

> <Gold.PLP.ligand.clash>
0.0000

> <Gold.PLP.ligand.torsion>
1.1519

> <Gold.PLP.Chemscore.Hbond>
1.9913

> <Gold.PLP.Chemscore.CHOScore>
0.0000

> <Gold.PLP.Chemscore.Metal>
0.0000

> <Gold.Chemscore.Hbonds>
donor molecule, donor type, donor heavy atom, donor atom, acceptor molecule, acceptor atom, score
      P1  H  6896  6907       L1    24  0.60
      P1  H  7997  8009       L1     7  1.00

> <Gold.PLP.Chemscore.Internal.Correction>
0.6138

> <Gold.Rescore>
     Score         DG    S(hbond)    S(metal)    S(lipo)     H(rot)  DE(clash)    DE(int)     intcor
     12.65     -16.56       1.85        0.00     114.65       3.32       0.26       3.66       ----

> <Gold.Chemscore.Fitness>
12.6474

> <Gold.Chemscore.DG>
-16.5626

> <Gold.Chemscore.ZeroCoef>
-5.4800

> <Gold.Chemscore.Hbond>
1.8470

> <Gold.Chemscore.Metal>
0.0000

> <Gold.Chemscore.Lipo>
114.6454

> <Gold.Chemscore.Internal_Hbond>
0.0000

> <Gold.Chemscore.DEClash>
0.2570

> <Gold.Chemscore.DEInternal>
3.6582

> <Gold.Chemscore.Rot>
3.3203

> <Gold.Chemscore.Internal.Correction>
   9.000000E+99

> <Gold.Chemscore.Hbonds>
donor molecule, donor type, donor heavy atom, donor atom, acceptor molecule, acceptor atom, score
      P1  H  6896  6907       L1    24  0.57
      P1  H  7997  8009       L1     7  0.65

> <Gold.Chemscore.Hbond.Weighted>
-6.1691

> <Gold.Chemscore.Metal.Weighted>
-0.0000

> <Gold.Chemscore.Lipo.Weighted>
-13.4135

> <Gold.Chemscore.Internal_Hbond.Weighted>
0.0000

> <Gold.Chemscore.DEClash.Weighted>
0.2570

> <Gold.Chemscore.DEInternal.Weighted>
3.6582

> <Gold.Chemscore.Rot.Weighted>
8.5000

> <Gold.Chemscore.Internal.Correction.Weighted>
   9.000000E+99

> <Gold.Protein.RotatedTorsions>
[ 6907 6896 6895 6894 ] final   16.07 input  -60.11 | X-H torsion
[ 7974 7965 7964 7962 ] final -143.24 input  175.53 | X-H torsion
[ 8008 7997 7996 7995 ] final  111.89 input   59.86 | X-H torsion
[ 10167 10162 10161 10158 ] final   39.00 input  -65.29 | X-H torsion
[ 10718 10713 10712 10709 ] final  174.46 input   66.30 | X-H torsion
[ 10763 10752 10751 10750 ] final  127.22 input  -60.55 | X-H torsion
[ 11005 11000 10999 10996 ] final  100.49 input  -57.11 | X-H torsion

> <Gold.Protein.ActiveResidues>
 VAL166  LYS551  ARG553  GLY616  TRP617  ASP618  TYR619  PRO620  LYS621  CYS622 
 ASP623  PHE694  ASN695  SER759  ASP760  ASP761  ALA762  ILE779  LEU786  VAL792 
 PHE793  MET794  SER795  GLU796  ALA797  LYS798  CYS799  TRP800  GLU811  SER814 

> <Gold.Protein.RotatedAtoms>
  151.8280  135.0630  160.0433 H   0  0  0  0  0  0  0  0  0  0  0  0  # atno 6907 bound_to 6896
  152.2901  133.5549  159.5560 H   0  0  0  0  0  0  0  0  0  0  0  0  # atno 6908 bound_to 6896
  150.7226  134.0356  159.3790 H   0  0  0  0  0  0  0  0  0  0  0  0  # atno 6909 bound_to 6896
  144.8384  140.5859  143.5469 H   0  0  0  0  0  0  0  0  0  0  0  0  # atno 7974 bound_to 7965
  156.2155  140.3010  155.9829 H   0  0  0  0  0  0  0  0  0  0  0  0  # atno 8008 bound_to 7997
  155.2617  140.0430  157.3015 H   0  0  0  0  0  0  0  0  0  0  0  0  # atno 8009 bound_to 7997
  154.5761  140.2362  155.8129 H   0  0  0  0  0  0  0  0  0  0  0  0  # atno 8010 bound_to 7997
  140.3882  144.1888  150.6130 H   0  0  0  0  0  0  0  0  0  0  0  0  # atno 10167 bound_to 10162
  156.9492  131.0026  151.2952 H   0  0  0  0  0  0  0  0  0  0  0  0  # atno 10718 bound_to 10713
  153.7059  135.3276  155.3235 H   0  0  0  0  0  0  0  0  0  0  0  0  # atno 10763 bound_to 10752
  154.8399  135.4465  154.1363 H   0  0  0  0  0  0  0  0  0  0  0  0  # atno 10764 bound_to 10752
  153.2444  135.6974  153.7826 H   0  0  0  0  0  0  0  0  0  0  0  0  # atno 10765 bound_to 10752
  139.8771  134.9142  156.4764 H   0  0  0  0  0  0  0  0  0  0  0  0  # atno 11005 bound_to 11000
  145.4746  139.1500  143.3795 LP  0  0  0  0  0  0  0  0  0  0  0  0  # atno 17320 bound_to 7965
  146.2680  140.4880  142.8826 LP  0  0  0  0  0  0  0  0  0  0  0  0  # atno 17321 bound_to 7965
  140.4867  143.2361  151.8877 LP  0  0  0  0  0  0  0  0  0  0  0  0  # atno 17342 bound_to 10162
  139.4790  144.5210  151.8801 LP  0  0  0  0  0  0  0  0  0  0  0  0  # atno 17343 bound_to 10162
  157.5733  130.8325  149.8421 LP  0  0  0  0  0  0  0  0  0  0  0  0  # atno 17370 bound_to 10713
  156.0370  130.3749  150.1534 LP  0  0  0  0  0  0  0  0  0  0  0  0  # atno 17371 bound_to 10713
  140.8759  133.7954  155.9414 LP  0  0  0  0  0  0  0  0  0  0  0  0  # atno 17394 bound_to 11000
  140.8905  134.2501  157.5097 LP  0  0  0  0  0  0  0  0  0  0  0  0  # atno 17395 bound_to 11000

$$$$
