AV-unprocessed.smi:898|AV-procd|sdf|4083|dock5
  -GOLD-   22720 1573D 1   1.00000     0.00000
 Structure written by MMmdl.
 34 36  0  0  0  0  0  0  0  0  1 V2000
  152.4603  139.7768  156.4783 O   0  0  0  0  0  0  0  0  0  0  0  0
  151.5058  139.6878  157.2507 C   0  0  0  0  0  0  0  0  0  0  0  0
  150.6659  138.6410  157.3323 N   0  0  0  0  0  0  0  0  0  0  0  0
  150.6848  137.4361  156.5809 C   0  0  0  0  0  0  0  0  0  0  0  0
  151.4682  137.2366  155.5120 N   0  0  0  0  0  0  0  0  0  0  0  0
  151.2900  135.9722  154.9680 N   0  0  0  0  0  0  0  0  0  0  0  0
  150.3801  135.2542  155.6376 C   0  0  0  0  0  0  0  0  0  0  0  0
  150.0193  133.8604  155.2439 C   0  0  0  0  0  0  0  0  0  0  0  0
  149.5953  133.5427  153.8284 C   0  0  0  0  0  0  0  0  0  0  0  0
  148.5894  133.4629  154.9481 C   0  0  0  0  0  0  0  0  0  0  0  0
  149.6534  136.0826  157.0108 S   0  0  0  0  0  0  0  0  0  0  0  0
  151.1772  140.6424  158.1338 N   0  0  0  0  0  0  0  0  0  0  0  0
  151.8863  141.9063  158.3152 C   0  0  2  0  0  0  0  0  0  0  0  0
  152.2054  142.1297  159.8086 C   0  0  0  0  0  0  0  0  0  0  0  0
  152.9985  143.4230  160.0574 C   0  0  0  0  0  0  0  0  0  0  0  0
  152.2367  144.6757  159.6021 C   0  0  0  0  0  0  0  0  0  0  0  0
  151.9158  144.6366  157.8180 S   0  0  0  0  0  0  0  0  0  0  0  0
  151.0374  143.0517  157.7364 C   0  0  0  0  0  0  0  0  0  0  0  0
  149.9309  138.7099  158.0202 H   0  0  0  0  0  0  0  0  0  0  0  0
  150.6500  133.1401  155.7612 H   0  0  0  0  0  0  0  0  0  0  0  0
  149.5028  134.3721  153.1295 H   0  0  0  0  0  0  0  0  0  0  0  0
  149.9453  132.6066  153.3981 H   0  0  0  0  0  0  0  0  0  0  0  0
  148.2688  132.4724  155.2644 H   0  0  0  0  0  0  0  0  0  0  0  0
  147.8217  134.2333  154.9822 H   0  0  0  0  0  0  0  0  0  0  0  0
  150.3770  140.4835  158.7282 H   0  0  0  0  0  0  0  0  0  0  0  0
  152.8227  141.8651  157.7549 H   0  0  0  0  0  0  0  0  0  0  0  0
  151.2810  142.1509  160.3874 H   0  0  0  0  0  0  0  0  0  0  0  0
  152.7837  141.2875  160.1906 H   0  0  0  0  0  0  0  0  0  0  0  0
  153.2224  143.5067  161.1214 H   0  0  0  0  0  0  0  0  0  0  0  0
  153.9607  143.3705  159.5465 H   0  0  0  0  0  0  0  0  0  0  0  0
  151.2878  144.7586  160.1328 H   0  0  0  0  0  0  0  0  0  0  0  0
  152.8121  145.5723  159.8337 H   0  0  0  0  0  0  0  0  0  0  0  0
  150.7895  142.8531  156.6930 H   0  0  0  0  0  0  0  0  0  0  0  0
  150.0947  143.1430  158.2775 H   0  0  0  0  0  0  0  0  0  0  0  0
  1  2  2  0  0  0  0
  2  3  1  0  0  0  0
  2 12  1  0  0  0  0
  3  4  1  0  0  0  0
  3 19  1  0  0  0  0
  4 11  1  0  0  0  0
  4  5  2  0  0  0  0
  5  6  1  0  0  0  0
  6  7  2  0  0  0  0
  7  8  1  0  0  0  0
  7 11  1  0  0  0  0
  8 10  1  0  0  0  0
  8  9  1  0  0  0  0
  8 20  1  0  0  0  0
  9 10  1  0  0  0  0
  9 21  1  0  0  0  0
  9 22  1  0  0  0  0
 10 23  1  0  0  0  0
 10 24  1  0  0  0  0
 12 13  1  0  0  0  0
 12 25  1  0  0  0  0
 13 18  1  0  0  0  0
 13 14  1  0  0  0  0
 13 26  1  0  0  0  0
 14 15  1  0  0  0  0
 14 27  1  0  0  0  0
 14 28  1  0  0  0  0
 15 16  1  0  0  0  0
 15 29  1  0  0  0  0
 15 30  1  0  0  0  0
 16 17  1  0  0  0  0
 16 31  1  0  0  0  0
 16 32  1  0  0  0  0
 17 18  1  0  0  0  0
 18 33  1  0  0  0  0
 18 34  1  0  0  0  0
M  END
> <s_m_source_file>
AV-unprocessed.smi

> <i_m_source_file_index>
898

> <i_lp_mmshare_version>
43012

> <i_f3d_flags>
0

> <s_epik_input>
W0NIMl0xU1tDSDJdW0NIMl1bQ0gyXVtDQEhdMVtOSF1DKD1PKVtOSF1jMm5uYyhzMilbQ0hdM1tDSDJdW0NIMl0z

> <s_epik_cmdline>
J2VwaWtfcHl0aG9uJywgJy1waCcsICc3LjAnLCAnLXRuJywgJzgnLCAnLW1hJywgJzIwMCcsICctbWV0YWxfYmluZGluZycsICctaW1hZScsICc8aW5maWxlLm1hZT4nLCAnLW9tYWUnLCAnPG91dGZpbGUubWFlPic=

> <r_lp_tautomer_probability>
1

> <r_epik_Ionization_Penalty>
0.000291725

> <r_epik_Ionization_Penalty_Charging>
0

> <r_epik_Ionization_Penalty_Neutral>
0.000291725

> <r_epik_State_Penalty>
-0

> <r_epik_Charging_Adjusted_Penalty>
0

> <i_epik_Tot_Q>
0

> <i_epik_Tot_abs_Q>
0

> <r_epik_Metal_State_Penalty>
0.160962

> <b_epik_Metal_Only>
0

> <s_lp_Force_Field>
OPLS_2005

> <r_lp_Energy>
2.16534

> <b_lp_Chiralities_Consistent>
1

> <s_lp_Variant>
AV-unprocessed.smi:898-1

> <Gold.Version>
5.8.1

> <Gold.Id.Protein>
6NUR|6NUR_protein|mol2

> <Gold.PLP.Fitness>
38.4177

> <Gold.PLP.PLP>
-32.6956

> <Gold.PLP.part.hbond>
-2.0112

> <Gold.PLP.part.metal>
0.0000

> <Gold.PLP.part.buried>
-5.2000

> <Gold.PLP.part.nonpolar>
-25.5050

> <Gold.PLP.part.repulsive>
0.3323

> <Gold.PLP.ligand.clash>
0.0000

> <Gold.PLP.ligand.torsion>
0.2065

> <Gold.PLP.Chemscore.Hbond>
2.0000

> <Gold.PLP.Chemscore.CHOScore>
0.0000

> <Gold.PLP.Chemscore.Metal>
0.0000

> <Gold.Chemscore.Hbonds>
donor molecule, donor type, donor heavy atom, donor atom, acceptor molecule, acceptor atom, score
      P1  H  7997  8009       L1     1  1.00
      P1  H 10752 10764       L1     6  1.00

> <Gold.PLP.Chemscore.Internal.Correction>
0.1351

> <Gold.Rescore>
     Score         DG    S(hbond)    S(metal)    S(lipo)     H(rot)  DE(clash)    DE(int)     intcor
     17.71     -19.28       1.95        0.00      88.56       1.20       0.12       1.46       ----

> <Gold.Chemscore.Fitness>
17.7073

> <Gold.Chemscore.DG>
-19.2839

> <Gold.Chemscore.ZeroCoef>
-5.4800

> <Gold.Chemscore.Hbond>
1.9543

> <Gold.Chemscore.Metal>
0.0000

> <Gold.Chemscore.Lipo>
88.5571

> <Gold.Chemscore.Internal_Hbond>
0.0000

> <Gold.Chemscore.DEClash>
0.1214

> <Gold.Chemscore.DEInternal>
1.4552

> <Gold.Chemscore.Rot>
1.2050

> <Gold.Chemscore.Internal.Correction>
   9.000000E+99

> <Gold.Chemscore.Hbonds>
donor molecule, donor type, donor heavy atom, donor atom, acceptor molecule, acceptor atom, score
      P1  H  7997  8009       L1     1  1.00
      P1  H 10752 10764       L1     6  0.26

> <Gold.Chemscore.Hbond.Weighted>
-6.5274

> <Gold.Chemscore.Metal.Weighted>
-0.0000

> <Gold.Chemscore.Lipo.Weighted>
-10.3612

> <Gold.Chemscore.Internal_Hbond.Weighted>
0.0000

> <Gold.Chemscore.DEClash.Weighted>
0.1214

> <Gold.Chemscore.DEInternal.Weighted>
1.4552

> <Gold.Chemscore.Rot.Weighted>
3.0847

> <Gold.Chemscore.Internal.Correction.Weighted>
   9.000000E+99

> <Gold.Protein.RotatedTorsions>
[ 6907 6896 6895 6894 ] final   45.14 input  -60.11 | X-H torsion
[ 7974 7965 7964 7962 ] final -146.13 input  175.53 | X-H torsion
[ 8008 7997 7996 7995 ] final -163.80 input   59.86 | X-H torsion
[ 10167 10162 10161 10158 ] final  147.19 input  -65.29 | X-H torsion
[ 10718 10713 10712 10709 ] final   52.64 input   66.30 | X-H torsion
[ 10763 10752 10751 10750 ] final  -57.86 input  -60.55 | X-H torsion
[ 11005 11000 10999 10996 ] final  112.24 input  -57.11 | X-H torsion

> <Gold.Protein.ActiveResidues>
 VAL166  LYS551  ARG553  GLY616  TRP617  ASP618  TYR619  PRO620  LYS621  CYS622 
 ASP623  PHE694  ASN695  SER759  ASP760  ASP761  ALA762  ILE779  LEU786  VAL792 
 PHE793  MET794  SER795  GLU796  ALA797  LYS798  CYS799  TRP800  GLU811  SER814 

> <Gold.Protein.RotatedAtoms>
  152.2409  134.8229  160.0460 H   0  0  0  0  0  0  0  0  0  0  0  0  # atno 6907 bound_to 6896
  151.8944  133.3518  159.3817 H   0  0  0  0  0  0  0  0  0  0  0  0  # atno 6908 bound_to 6896
  150.7053  134.4818  159.5518 H   0  0  0  0  0  0  0  0  0  0  0  0  # atno 6909 bound_to 6896
  144.8180  140.5496  143.5597 H   0  0  0  0  0  0  0  0  0  0  0  0  # atno 7974 bound_to 7965
  155.8264  140.0927  157.1818 H   0  0  0  0  0  0  0  0  0  0  0  0  # atno 8008 bound_to 7997
  154.3979  140.1427  156.3622 H   0  0  0  0  0  0  0  0  0  0  0  0  # atno 8009 bound_to 7997
  155.8212  140.3446  155.5518 H   0  0  0  0  0  0  0  0  0  0  0  0  # atno 8010 bound_to 7997
  139.4894  144.5774  151.6939 H   0  0  0  0  0  0  0  0  0  0  0  0  # atno 10167 bound_to 10162
  157.5094  130.8490  149.8415 H   0  0  0  0  0  0  0  0  0  0  0  0  # atno 10718 bound_to 10713
  154.2291  135.6364  153.5169 H   0  0  0  0  0  0  0  0  0  0  0  0  # atno 10763 bound_to 10752
  152.9953  135.5515  154.6032 H   0  0  0  0  0  0  0  0  0  0  0  0  # atno 10764 bound_to 10752
  154.5511  135.2901  155.0982 H   0  0  0  0  0  0  0  0  0  0  0  0  # atno 10765 bound_to 10752
  139.8922  134.9525  156.6556 H   0  0  0  0  0  0  0  0  0  0  0  0  # atno 11005 bound_to 11000
  145.5169  139.1477  143.3574 LP  0  0  0  0  0  0  0  0  0  0  0  0  # atno 17320 bound_to 7965
  146.2484  140.5310  142.8904 LP  0  0  0  0  0  0  0  0  0  0  0  0  # atno 17321 bound_to 7965
  140.5373  144.0636  150.6075 LP  0  0  0  0  0  0  0  0  0  0  0  0  # atno 17342 bound_to 10162
  140.3646  143.2889  152.0346 LP  0  0  0  0  0  0  0  0  0  0  0  0  # atno 17343 bound_to 10162
  156.0279  130.3773  150.1771 LP  0  0  0  0  0  0  0  0  0  0  0  0  # atno 17370 bound_to 10713
  156.9960  130.9908  151.3403 LP  0  0  0  0  0  0  0  0  0  0  0  0  # atno 17371 bound_to 10713
  140.7487  133.8916  155.8331 LP  0  0  0  0  0  0  0  0  0  0  0  0  # atno 17394 bound_to 11000
  141.0018  134.1139  157.4309 LP  0  0  0  0  0  0  0  0  0  0  0  0  # atno 17395 bound_to 11000

$$$$
