AV-unprocessed.smi:2785|AV-procd|sdf|10747|dock5
  -GOLD-   2272015183D 1   1.00000     0.00000
 Structure written by MMmdl.
 37 38  0  0  0  0  0  0  0  0  1 V2000
  152.4558  143.4017  162.0953 C   0  0  0  0  0  0  0  0  0  0  0  0
  152.3545  142.3754  160.9522 C   0  0  0  0  0  0  0  0  0  0  0  0
  153.5409  141.3983  160.9542 C   0  0  0  0  0  0  0  0  0  0  0  0
  152.2186  143.0071  159.6322 N   0  0  0  0  0  0  0  0  0  0  0  0
  151.9363  144.4243  159.4709 C   0  0  0  0  0  0  0  0  0  0  0  0
  152.1339  144.6983  157.9768 C   0  0  0  0  0  0  0  0  0  0  0  0
  152.1460  143.3311  157.2739 C   0  0  2  0  0  0  0  0  0  0  0  0
  150.8612  143.0976  156.6182 N   0  0  0  0  0  0  0  0  0  0  0  0
  150.6023  142.1045  155.7547 C   0  0  0  0  0  0  0  0  0  0  0  0
  151.4448  141.2828  155.3928 O   0  0  0  0  0  0  0  0  0  0  0  0
  149.3191  142.1323  155.3537 N   0  0  0  0  0  0  0  0  0  0  0  0
  148.6588  141.2475  154.4603 C   0  0  0  0  0  0  0  0  0  0  0  0
  147.7563  141.8656  153.5649 C   0  0  0  0  0  0  0  0  0  0  0  0
  147.0488  141.0753  152.6380 C   0  0  0  0  0  0  0  0  0  0  0  0
  147.2645  139.6858  152.6314 C   0  0  0  0  0  0  0  0  0  0  0  0
  146.6073  138.8854  151.7590 F   0  0  0  0  0  0  0  0  0  0  0  0
  148.1805  139.1491  153.5549 C   0  0  0  0  0  0  0  0  0  0  0  0
  148.8590  139.9055  154.4438 N   0  0  0  0  0  0  0  0  0  0  0  0
  152.3108  142.3749  158.4540 C   0  0  0  0  0  0  0  0  0  0  0  0
  152.5227  141.1721  158.3012 O   0  0  0  0  0  0  0  0  0  0  0  0
  152.4621  142.9013  163.0640 H   0  0  0  0  0  0  0  0  0  0  0  0
  151.6062  144.0852  162.0883 H   0  0  0  0  0  0  0  0  0  0  0  0
  153.3685  143.9950  162.0310 H   0  0  0  0  0  0  0  0  0  0  0  0
  151.4493  141.7943  161.1390 H   0  0  0  0  0  0  0  0  0  0  0  0
  153.6283  140.8908  161.9151 H   0  0  0  0  0  0  0  0  0  0  0  0
  154.4812  141.9172  160.7653 H   0  0  0  0  0  0  0  0  0  0  0  0
  153.4237  140.6313  160.1883 H   0  0  0  0  0  0  0  0  0  0  0  0
  150.9054  144.6278  159.7633 H   0  0  0  0  0  0  0  0  0  0  0  0
  152.5975  145.0393  160.0828 H   0  0  0  0  0  0  0  0  0  0  0  0
  151.3772  145.3786  157.5830 H   0  0  0  0  0  0  0  0  0  0  0  0
  153.0998  145.1830  157.8268 H   0  0  0  0  0  0  0  0  0  0  0  0
  152.9815  143.2499  156.5763 H   0  0  0  0  0  0  0  0  0  0  0  0
  150.1091  143.7259  156.8599 H   0  0  0  0  0  0  0  0  0  0  0  0
  148.7448  142.8668  155.7398 H   0  0  0  0  0  0  0  0  0  0  0  0
  147.6033  142.9349  153.5855 H   0  0  0  0  0  0  0  0  0  0  0  0
  146.3541  141.5278  151.9460 H   0  0  0  0  0  0  0  0  0  0  0  0
  148.3742  138.0869  153.5814 H   0  0  0  0  0  0  0  0  0  0  0  0
  1  2  1  0  0  0  0
  1 21  1  0  0  0  0
  1 22  1  0  0  0  0
  1 23  1  0  0  0  0
  2  3  1  0  0  0  0
  2  4  1  0  0  0  0
  2 24  1  0  0  0  0
  3 25  1  0  0  0  0
  3 26  1  0  0  0  0
  3 27  1  0  0  0  0
  4 19  1  0  0  0  0
  4  5  1  0  0  0  0
  5  6  1  0  0  0  0
  5 28  1  0  0  0  0
  5 29  1  0  0  0  0
  6  7  1  0  0  0  0
  6 30  1  0  0  0  0
  6 31  1  0  0  0  0
  7  8  1  0  0  0  0
  7 19  1  0  0  0  0
  7 32  1  0  0  0  0
  8  9  1  0  0  0  0
  8 33  1  0  0  0  0
  9 10  2  0  0  0  0
  9 11  1  0  0  0  0
 11 12  1  0  0  0  0
 11 34  1  0  0  0  0
 12 18  1  0  0  0  0
 12 13  2  0  0  0  0
 13 14  1  0  0  0  0
 13 35  1  0  0  0  0
 14 15  2  0  0  0  0
 14 36  1  0  0  0  0
 15 16  1  0  0  0  0
 15 17  1  0  0  0  0
 17 18  2  0  0  0  0
 17 37  1  0  0  0  0
 19 20  2  0  0  0  0
M  END
> <s_m_source_file>
AV-unprocessed.smi

> <i_m_source_file_index>
2785

> <i_lp_mmshare_version>
43012

> <i_f3d_flags>
0

> <s_epik_input>
W0NIM11bQ0hdKFtDSDNdKU4xW0NIMl1bQ0gyXVtDQEhdKEMxPU8pW05IXUMoPU8pW05IXWMyW2NIXVtjSF1jKEYpW2NIXW4y

> <s_epik_cmdline>
J2VwaWtfcHl0aG9uJywgJy1waCcsICc3LjAnLCAnLXRuJywgJzgnLCAnLW1hJywgJzIwMCcsICctbWV0YWxfYmluZGluZycsICctaW1hZScsICc8aW5maWxlLm1hZT4nLCAnLW9tYWUnLCAnPG91dGZpbGUubWFlPic=

> <r_lp_tautomer_probability>
1

> <r_epik_Ionization_Penalty>
3.20266e-05

> <r_epik_Ionization_Penalty_Charging>
0

> <r_epik_Ionization_Penalty_Neutral>
3.20266e-05

> <r_epik_State_Penalty>
-0

> <r_epik_Charging_Adjusted_Penalty>
0

> <i_epik_Tot_Q>
0

> <i_epik_Tot_abs_Q>
0

> <r_epik_Metal_State_Penalty>
-0

> <b_epik_Metal_Only>
0

> <s_lp_Force_Field>
OPLS_2005

> <r_lp_Energy>
23.5858

> <b_lp_Chiralities_Consistent>
1

> <s_lp_Variant>
AV-unprocessed.smi:2785-2

> <Gold.Version>
5.8.1

> <Gold.Id.Protein>
6NUR|6NUR_protein|mol2

> <Gold.PLP.Fitness>
50.5738

> <Gold.PLP.PLP>
-45.4052

> <Gold.PLP.part.hbond>
-3.0000

> <Gold.PLP.part.metal>
0.0000

> <Gold.PLP.part.buried>
-0.6376

> <Gold.PLP.part.nonpolar>
-39.1395

> <Gold.PLP.part.repulsive>
0.3367

> <Gold.PLP.ligand.clash>
0.0000

> <Gold.PLP.ligand.torsion>
0.8347

> <Gold.PLP.Chemscore.Hbond>
1.6266

> <Gold.PLP.Chemscore.CHOScore>
0.6277

> <Gold.PLP.Chemscore.Metal>
0.0000

> <Gold.Chemscore.Hbonds>
donor molecule, donor type, donor heavy atom, donor atom, acceptor molecule, acceptor atom, score
      L1  H     8    33       P1  8028  0.59
      L1  H    11    34       P1  8028  0.64
      P1  H  7989  7998       L1    10  0.45
      L1  C    17    37       P1  7948  0.87

> <Gold.PLP.Chemscore.Internal.Correction>
0.0752

> <Gold.Rescore>
     Score         DG    S(hbond)    S(metal)    S(lipo)     H(rot)  DE(clash)    DE(int)     intcor
     12.92     -17.77       1.37        0.00      94.13       1.29       2.26       2.58       ----

> <Gold.Chemscore.Fitness>
12.9247

> <Gold.Chemscore.DG>
-17.7657

> <Gold.Chemscore.ZeroCoef>
-5.4800

> <Gold.Chemscore.Hbond>
1.3679

> <Gold.Chemscore.Metal>
0.0000

> <Gold.Chemscore.Lipo>
94.1272

> <Gold.Chemscore.Internal_Hbond>
0.0000

> <Gold.Chemscore.DEClash>
2.2620

> <Gold.Chemscore.DEInternal>
2.5790

> <Gold.Chemscore.Rot>
1.2875

> <Gold.Chemscore.Internal.Correction>
   9.000000E+99

> <Gold.Chemscore.Hbonds>
donor molecule, donor type, donor heavy atom, donor atom, acceptor molecule, acceptor atom, score
      L1  H     8    33       P1  8028  0.57
      L1  H    11    34       P1  8028  0.64
      P1  H  7989  7998       L1    10  0.42

> <Gold.Chemscore.Hbond.Weighted>
-4.5687

> <Gold.Chemscore.Metal.Weighted>
-0.0000

> <Gold.Chemscore.Lipo.Weighted>
-11.0129

> <Gold.Chemscore.Internal_Hbond.Weighted>
0.0000

> <Gold.Chemscore.DEClash.Weighted>
2.2620

> <Gold.Chemscore.DEInternal.Weighted>
2.5790

> <Gold.Chemscore.Rot.Weighted>
3.2959

> <Gold.Chemscore.Internal.Correction.Weighted>
   9.000000E+99

> <Gold.Protein.RotatedTorsions>
[ 6907 6896 6895 6894 ] final -151.70 input  -60.11 | X-H torsion
[ 7974 7965 7964 7962 ] final -111.14 input  175.53 | X-H torsion
[ 8008 7997 7996 7995 ] final   63.24 input   59.86 | X-H torsion
[ 10167 10162 10161 10158 ] final  124.10 input  -65.29 | X-H torsion
[ 10718 10713 10712 10709 ] final -140.31 input   66.30 | X-H torsion
[ 10763 10752 10751 10750 ] final   57.67 input  -60.55 | X-H torsion
[ 11005 11000 10999 10996 ] final  143.99 input  -57.11 | X-H torsion

> <Gold.Protein.ActiveResidues>
 VAL166  LYS551  ARG553  GLY616  TRP617  ASP618  TYR619  PRO620  LYS621  CYS622 
 ASP623  PHE694  ASN695  SER759  ASP760  ASP761  ALA762  ILE779  LEU786  VAL792 
 PHE793  MET794  SER795  GLU796  ALA797  LYS798  CYS799  TRP800  GLU811  SER814 

> <Gold.Protein.RotatedAtoms>
  151.2169  133.4524  159.2599 H   0  0  0  0  0  0  0  0  0  0  0  0  # atno 6907 bound_to 6896
  151.0922  134.9923  159.8418 H   0  0  0  0  0  0  0  0  0  0  0  0  # atno 6908 bound_to 6896
  152.5435  134.2102  159.8800 H   0  0  0  0  0  0  0  0  0  0  0  0  # atno 6909 bound_to 6896
  145.1597  140.8872  143.3598 H   0  0  0  0  0  0  0  0  0  0  0  0  # atno 7974 bound_to 7965
  155.6271  140.3496  155.4671 H   0  0  0  0  0  0  0  0  0  0  0  0  # atno 8008 bound_to 7997
  156.0033  140.1218  157.0550 H   0  0  0  0  0  0  0  0  0  0  0  0  # atno 8009 bound_to 7997
  154.4256  140.1096  156.5713 H   0  0  0  0  0  0  0  0  0  0  0  0  # atno 8010 bound_to 7997
  139.5761  144.6964  151.3650 H   0  0  0  0  0  0  0  0  0  0  0  0  # atno 10167 bound_to 10162
  156.3208  130.7533  151.1631 H   0  0  0  0  0  0  0  0  0  0  0  0  # atno 10718 bound_to 10713
  152.9854  135.5633  154.5428 H   0  0  0  0  0  0  0  0  0  0  0  0  # atno 10763 bound_to 10752
  154.4879  135.2791  155.1522 H   0  0  0  0  0  0  0  0  0  0  0  0  # atno 10764 bound_to 10752
  154.3003  135.6308  153.5475 H   0  0  0  0  0  0  0  0  0  0  0  0  # atno 10765 bound_to 10752
  140.0597  134.9211  157.1162 H   0  0  0  0  0  0  0  0  0  0  0  0  # atno 11005 bound_to 11000
  145.0343  139.3313  143.6008 LP  0  0  0  0  0  0  0  0  0  0  0  0  # atno 17320 bound_to 7965
  146.3484  139.9693  142.8708 LP  0  0  0  0  0  0  0  0  0  0  0  0  # atno 17321 bound_to 7965
  140.7043  143.7553  150.7455 LP  0  0  0  0  0  0  0  0  0  0  0  0  # atno 17342 bound_to 10162
  140.1073  143.4732  152.2391 LP  0  0  0  0  0  0  0  0  0  0  0  0  # atno 17343 bound_to 10162
  157.7411  131.0508  150.5118 LP  0  0  0  0  0  0  0  0  0  0  0  0  # atno 17370 bound_to 10713
  156.5270  130.4175  149.6221 LP  0  0  0  0  0  0  0  0  0  0  0  0  # atno 17371 bound_to 10713
  140.3789  134.2308  155.7172 LP  0  0  0  0  0  0  0  0  0  0  0  0  # atno 17394 bound_to 11000
  141.1967  133.8075  157.0658 LP  0  0  0  0  0  0  0  0  0  0  0  0  # atno 17395 bound_to 11000

$$$$
