AV-unprocessed.smi:2820|AV-procd|sdf|10855|dock8
  -GOLD-   2272015303D 1   1.00000     0.00000
 Structure written by MMmdl.
 30 31  0  0  0  0  0  0  0  0  2 V2000
  147.5038  139.2799  153.5594 C   0  0  0  0  0  0  0  0  0  0  0  0
  148.6669  140.1375  153.4020 N   0  0  0  0  0  0  0  0  0  0  0  0
  149.1500  140.8942  154.4780 C   0  0  0  0  0  0  0  0  0  0  0  0
  150.4472  140.6314  154.9693 C   0  0  0  0  0  0  0  0  0  0  0  0
  150.9516  141.3815  156.0515 C   0  0  0  0  0  0  0  0  0  0  0  0
  150.1468  142.3895  156.6300 C   0  0  0  0  0  0  0  0  0  0  0  0
  150.5586  143.1848  157.7074 N   0  0  0  0  0  0  0  0  0  0  0  0
  151.8306  142.7607  158.2785 C   0  0  0  0  0  0  0  0  0  0  0  0
  152.1614  143.6114  159.5171 C   0  0  0  0  0  0  0  0  0  0  0  0
  152.1576  144.9908  159.1612 O   0  0  0  0  0  0  0  0  0  0  0  0
  150.8869  145.4155  158.6773 C   0  0  0  0  0  0  0  0  0  0  0  0
  150.5237  144.6125  157.4163 C   0  0  0  0  0  0  0  0  0  0  0  0
  148.9108  142.6117  156.1325 N   0  3  0  0  0  0  0  0  0  0  0  0
  148.3914  141.9156  155.0978 C   0  0  0  0  0  0  0  0  0  0  0  0
  147.2830  138.7778  152.6174 H   0  0  0  0  0  0  0  0  0  0  0  0
  146.6278  139.8623  153.8465 H   0  0  0  0  0  0  0  0  0  0  0  0
  147.6840  138.5160  154.3164 H   0  0  0  0  0  0  0  0  0  0  0  0
  149.1231  140.1820  152.5017 H   0  0  0  0  0  0  0  0  0  0  0  0
  151.0558  139.8589  154.5217 H   0  0  0  0  0  0  0  0  0  0  0  0
  151.9437  141.1807  156.4289 H   0  0  0  0  0  0  0  0  0  0  0  0
  151.7804  141.7059  158.5520 H   0  0  0  0  0  0  0  0  0  0  0  0
  152.6232  142.8656  157.5364 H   0  0  0  0  0  0  0  0  0  0  0  0
  151.4433  143.4293  160.3182 H   0  0  0  0  0  0  0  0  0  0  0  0
  153.1452  143.3464  159.9044 H   0  0  0  0  0  0  0  0  0  0  0  0
  150.1293  145.2885  159.4523 H   0  0  0  0  0  0  0  0  0  0  0  0
  150.9316  146.4799  158.4465 H   0  0  0  0  0  0  0  0  0  0  0  0
  151.2270  144.8455  156.6157 H   0  0  0  0  0  0  0  0  0  0  0  0
  149.5296  144.8947  157.0668 H   0  0  0  0  0  0  0  0  0  0  0  0
  147.3915  142.2024  154.8072 H   0  0  0  0  0  0  0  0  0  0  0  0
  148.3401  143.3420  156.5593 H   0  0  0  0  0  0  0  0  0  0  0  0
  1  2  1  0  0  0  0
  1 15  1  0  0  0  0
  1 16  1  0  0  0  0
  1 17  1  0  0  0  0
  2  3  1  0  0  0  0
  2 18  1  0  0  0  0
  3 14  1  0  0  0  0
  3  4  2  0  0  0  0
  4  5  1  0  0  0  0
  4 19  1  0  0  0  0
  5  6  2  0  0  0  0
  5 20  1  0  0  0  0
  6  7  1  0  0  0  0
  6 13  1  0  0  0  0
  7 12  1  0  0  0  0
  7  8  1  0  0  0  0
  8  9  1  0  0  0  0
  8 21  1  0  0  0  0
  8 22  1  0  0  0  0
  9 10  1  0  0  0  0
  9 23  1  0  0  0  0
  9 24  1  0  0  0  0
 10 11  1  0  0  0  0
 11 12  1  0  0  0  0
 11 25  1  0  0  0  0
 11 26  1  0  0  0  0
 12 27  1  0  0  0  0
 12 28  1  0  0  0  0
 13 14  2  0  0  0  0
 13 30  1  0  0  0  0
 14 29  1  0  0  0  0
M  CHG  1  13   1
M  END
> <s_m_source_file>
AV-unprocessed.smi

> <i_m_source_file_index>
2820

> <i_lp_mmshare_version>
43012

> <i_f3d_flags>
0

> <s_epik_input>
W0NIM11bTkhdYzFbY0hdW2NIXWMobltjSF0xKU4yW0NIMl1bQ0gyXU9bQ0gyXVtDSDJdMg==

> <s_epik_cmdline>
J2VwaWtfcHl0aG9uJywgJy1waCcsICc3LjAnLCAnLXRuJywgJzgnLCAnLW1hJywgJzIwMCcsICctbWV0YWxfYmluZGluZycsICctaW1hZScsICc8aW5maWxlLm1hZT4nLCAnLW9tYWUnLCAnPG91dGZpbGUubWFlPic=

> <r_lp_tautomer_probability>
0.999846

> <r_epik_Ionization_Penalty>
1.60145

> <r_epik_Ionization_Penalty_Charging>
1.60145

> <r_epik_Ionization_Penalty_Neutral>
8.44735e-08

> <r_epik_State_Penalty>
1.69965

> <r_epik_Charging_Adjusted_Penalty>
3.3011

> <i_epik_Tot_Q>
1

> <i_epik_Tot_abs_Q>
1

> <r_epik_Metal_State_Penalty>
5.75781

> <b_epik_Metal_Only>
0

> <s_lp_Force_Field>
OPLS_2005

> <r_lp_Energy>
26.3697

> <b_lp_Chiralities_Consistent>
1

> <s_lp_Variant>
AV-unprocessed.smi:2820-2

> <Gold.Version>
5.8.1

> <Gold.Id.Protein>
6NUR|6NUR_protein|mol2

> <Gold.PLP.Fitness>
38.3888

> <Gold.PLP.PLP>
-31.1512

> <Gold.PLP.part.hbond>
-1.4705

> <Gold.PLP.part.metal>
0.0000

> <Gold.PLP.part.buried>
-4.1651

> <Gold.PLP.part.nonpolar>
-26.7828

> <Gold.PLP.part.repulsive>
0.3471

> <Gold.PLP.ligand.clash>
0.0000

> <Gold.PLP.ligand.torsion>
0.6525

> <Gold.PLP.Chemscore.Hbond>
2.8160

> <Gold.PLP.Chemscore.CHOScore>
0.0000

> <Gold.PLP.Chemscore.Metal>
0.0000

> <Gold.Chemscore.Hbonds>
donor molecule, donor type, donor heavy atom, donor atom, acceptor molecule, acceptor atom, score
      L1  H     2    18       P1  7957  0.76
      L1  H    13    30       P1  8028  0.06

> <Gold.PLP.Chemscore.Internal.Correction>
0.0946

> <Gold.Rescore>
     Score         DG    S(hbond)    S(metal)    S(lipo)     H(rot)  DE(clash)    DE(int)     intcor
     17.32     -18.19       1.98        0.00      74.03       1.00       0.07       0.80       ----

> <Gold.Chemscore.Fitness>
17.3215

> <Gold.Chemscore.DG>
-18.1874

> <Gold.Chemscore.ZeroCoef>
-5.4800

> <Gold.Chemscore.Hbond>
1.9776

> <Gold.Chemscore.Metal>
0.0000

> <Gold.Chemscore.Lipo>
74.0343

> <Gold.Chemscore.Internal_Hbond>
0.0000

> <Gold.Chemscore.DEClash>
0.0665

> <Gold.Chemscore.DEInternal>
0.7993

> <Gold.Chemscore.Rot>
1.0000

> <Gold.Chemscore.Internal.Correction>
   9.000000E+99

> <Gold.Chemscore.Hbonds>
donor molecule, donor type, donor heavy atom, donor atom, acceptor molecule, acceptor atom, score
      L1  H     2    18       P1  7957  0.75
      L1  H    13    30       P1  8028  0.03

> <Gold.Chemscore.Hbond.Weighted>
-6.6053

> <Gold.Chemscore.Metal.Weighted>
-0.0000

> <Gold.Chemscore.Lipo.Weighted>
-8.6620

> <Gold.Chemscore.Internal_Hbond.Weighted>
0.0000

> <Gold.Chemscore.DEClash.Weighted>
0.0665

> <Gold.Chemscore.DEInternal.Weighted>
0.7993

> <Gold.Chemscore.Rot.Weighted>
2.5600

> <Gold.Chemscore.Internal.Correction.Weighted>
   9.000000E+99

> <Gold.Protein.RotatedTorsions>
[ 6907 6896 6895 6894 ] final    7.06 input  -60.11 | X-H torsion
[ 7974 7965 7964 7962 ] final -123.62 input  175.53 | X-H torsion
[ 8008 7997 7996 7995 ] final  124.37 input   59.86 | X-H torsion
[ 10167 10162 10161 10158 ] final -154.60 input  -65.29 | X-H torsion
[ 10718 10713 10712 10709 ] final -125.13 input   66.30 | X-H torsion
[ 10763 10752 10751 10750 ] final   99.01 input  -60.55 | X-H torsion
[ 11005 11000 10999 10996 ] final -161.17 input  -57.11 | X-H torsion

> <Gold.Protein.ActiveResidues>
 VAL166  LYS551  ARG553  GLY616  TRP617  ASP618  TYR619  PRO620  LYS621  CYS622 
 ASP623  PHE694  ASN695  SER759  ASP760  ASP761  ALA762  ILE779  LEU786  VAL792 
 PHE793  MET794  SER795  GLU796  ALA797  LYS798  CYS799  TRP800  GLU811  SER814 

> <Gold.Protein.RotatedAtoms>
  151.6838  135.0957  160.0220 H   0  0  0  0  0  0  0  0  0  0  0  0  # atno 6907 bound_to 6896
  152.3820  133.6554  159.6177 H   0  0  0  0  0  0  0  0  0  0  0  0  # atno 6908 bound_to 6896
  150.7754  133.9015  159.3384 H   0  0  0  0  0  0  0  0  0  0  0  0  # atno 6909 bound_to 6896
  145.0168  140.7953  143.4405 H   0  0  0  0  0  0  0  0  0  0  0  0  # atno 7974 bound_to 7965
  156.2799  140.2741  156.1777 H   0  0  0  0  0  0  0  0  0  0  0  0  # atno 8008 bound_to 7997
  155.0589  140.0386  157.2587 H   0  0  0  0  0  0  0  0  0  0  0  0  # atno 8009 bound_to 7997
  154.7133  140.2673  155.6614 H   0  0  0  0  0  0  0  0  0  0  0  0  # atno 8010 bound_to 7997
  139.7000  143.9279  152.2424 H   0  0  0  0  0  0  0  0  0  0  0  0  # atno 10167 bound_to 10162
  156.1648  130.6627  151.0099 H   0  0  0  0  0  0  0  0  0  0  0  0  # atno 10718 bound_to 10713
  153.2961  135.4128  155.1211 H   0  0  0  0  0  0  0  0  0  0  0  0  # atno 10763 bound_to 10752
  154.8535  135.3530  154.5915 H   0  0  0  0  0  0  0  0  0  0  0  0  # atno 10764 bound_to 10752
  153.6338  135.7059  153.5324 H   0  0  0  0  0  0  0  0  0  0  0  0  # atno 10765 bound_to 10752
  140.6234  134.4727  157.5225 H   0  0  0  0  0  0  0  0  0  0  0  0  # atno 11005 bound_to 11000
  145.1949  139.2282  143.5223 LP  0  0  0  0  0  0  0  0  0  0  0  0  # atno 17320 bound_to 7965
  146.3479  140.1754  142.8589 LP  0  0  0  0  0  0  0  0  0  0  0  0  # atno 17321 bound_to 7965
  139.9119  144.6851  150.8553 LP  0  0  0  0  0  0  0  0  0  0  0  0  # atno 17342 bound_to 10162
  140.7707  143.3437  151.2155 LP  0  0  0  0  0  0  0  0  0  0  0  0  # atno 17343 bound_to 10162
  157.6759  131.0850  150.7494 LP  0  0  0  0  0  0  0  0  0  0  0  0  # atno 17370 bound_to 10713
  156.7556  130.4782  149.5447 LP  0  0  0  0  0  0  0  0  0  0  0  0  # atno 17371 bound_to 10713
  139.9144  134.8276  156.1416 LP  0  0  0  0  0  0  0  0  0  0  0  0  # atno 17394 bound_to 11000
  141.0726  133.6790  156.2172 LP  0  0  0  0  0  0  0  0  0  0  0  0  # atno 17395 bound_to 11000

$$$$
