AV-unprocessed.smi:2883|AV-procd|sdf|11077|dock3
  -GOLD-   2272015553D 1   1.00000     0.00000
 Structure written by MMmdl.
 40 42  0  0  0  0  0  0  0  0  2 V2000
  147.1512  138.9424  152.8554 C   0  0  0  0  0  0  0  0  0  0  0  0
  147.6586  139.8365  154.0108 C   0  0  0  0  0  0  0  0  0  0  0  0
  147.6073  141.2905  153.4885 C   0  0  0  0  0  0  0  0  0  0  0  0
  146.7282  139.6923  155.2289 C   0  0  0  0  0  0  0  0  0  0  0  0
  149.0893  139.4504  154.4120 C   0  0  0  0  0  0  0  0  0  0  0  0
  149.7087  138.4505  153.7593 N   0  3  0  0  0  0  0  0  0  0  0  0
  151.0067  138.1653  154.0246 C   0  0  0  0  0  0  0  0  0  0  0  0
  151.7277  138.9316  154.9579 C   0  0  0  0  0  0  0  0  0  0  0  0
  151.0416  139.9915  155.5729 C   0  0  0  0  0  0  0  0  0  0  0  0
  151.7093  140.8043  156.4990 N   0  0  0  0  0  0  0  0  0  0  0  0
  150.9721  141.7360  157.3482 C   0  0  2  0  0  0  0  0  0  0  0  0
  151.2776  143.2032  157.0374 C   0  0  0  0  0  0  0  0  0  0  0  0
  151.6682  143.7434  158.4205 C   0  0  2  0  0  0  0  0  0  0  0  0
  153.0715  143.2786  158.8300 C   0  0  0  0  0  0  0  0  0  0  0  0
  152.8312  141.8020  159.1385 C   0  0  0  0  0  0  0  0  0  0  0  0
  151.3276  141.6555  158.8468 C   0  0  1  0  0  0  0  0  0  0  0  0
  150.8704  142.9302  159.2651 O   0  0  0  0  0  0  0  0  0  0  0  0
  149.7487  140.2411  155.2729 N   0  0  0  0  0  0  0  0  0  0  0  0
  146.1517  139.2383  152.5343 H   0  0  0  0  0  0  0  0  0  0  0  0
  147.0906  137.8929  153.1462 H   0  0  0  0  0  0  0  0  0  0  0  0
  147.8064  139.0061  151.9855 H   0  0  0  0  0  0  0  0  0  0  0  0
  148.2771  141.4315  152.6391 H   0  0  0  0  0  0  0  0  0  0  0  0
  147.8888  142.0113  154.2568 H   0  0  0  0  0  0  0  0  0  0  0  0
  146.6024  141.5579  153.1594 H   0  0  0  0  0  0  0  0  0  0  0  0
  145.7009  139.9609  154.9799 H   0  0  0  0  0  0  0  0  0  0  0  0
  147.0466  140.3361  156.0498 H   0  0  0  0  0  0  0  0  0  0  0  0
  146.7186  138.6668  155.6006 H   0  0  0  0  0  0  0  0  0  0  0  0
  151.4287  137.3375  153.4739 H   0  0  0  0  0  0  0  0  0  0  0  0
  152.7633  138.7178  155.1797 H   0  0  0  0  0  0  0  0  0  0  0  0
  152.6669  140.5941  156.7409 H   0  0  0  0  0  0  0  0  0  0  0  0
  149.9009  141.5724  157.2198 H   0  0  0  0  0  0  0  0  0  0  0  0
  152.0745  143.3434  156.3053 H   0  0  0  0  0  0  0  0  0  0  0  0
  150.3838  143.7030  156.6622 H   0  0  0  0  0  0  0  0  0  0  0  0
  151.5050  144.8146  158.5404 H   0  0  0  0  0  0  0  0  0  0  0  0
  153.8080  143.4333  158.0407 H   0  0  0  0  0  0  0  0  0  0  0  0
  153.4105  143.8057  159.7226 H   0  0  0  0  0  0  0  0  0  0  0  0
  153.4521  141.1347  158.5402 H   0  0  0  0  0  0  0  0  0  0  0  0
  153.0375  141.5982  160.1898 H   0  0  0  0  0  0  0  0  0  0  0  0
  150.8567  140.8234  159.3710 H   0  0  0  0  0  0  0  0  0  0  0  0
  149.2050  137.8964  153.0662 H   0  0  0  0  0  0  0  0  0  0  0  0
  1  2  1  0  0  0  0
  1 19  1  0  0  0  0
  1 20  1  0  0  0  0
  1 21  1  0  0  0  0
  2  3  1  0  0  0  0
  2  4  1  0  0  0  0
  2  5  1  0  0  0  0
  3 22  1  0  0  0  0
  3 23  1  0  0  0  0
  3 24  1  0  0  0  0
  4 25  1  0  0  0  0
  4 26  1  0  0  0  0
  4 27  1  0  0  0  0
  5 18  1  0  0  0  0
  5  6  2  0  0  0  0
  6  7  1  0  0  0  0
  6 40  1  0  0  0  0
  7  8  2  0  0  0  0
  7 28  1  0  0  0  0
  8  9  1  0  0  0  0
  8 29  1  0  0  0  0
  9 10  1  0  0  0  0
  9 18  2  0  0  0  0
 10 11  1  0  0  0  0
 10 30  1  0  0  0  0
 11 16  1  0  0  0  0
 11 12  1  0  0  0  0
 11 31  1  0  0  0  0
 12 13  1  0  0  0  0
 12 32  1  0  0  0  0
 12 33  1  0  0  0  0
 13 17  1  0  0  0  0
 13 14  1  0  0  0  0
 13 34  1  0  0  0  0
 14 15  1  0  0  0  0
 14 35  1  0  0  0  0
 14 36  1  0  0  0  0
 15 16  1  0  0  0  0
 15 37  1  0  0  0  0
 15 38  1  0  0  0  0
 16 17  1  0  0  0  0
 16 39  1  0  0  0  0
M  CHG  1   6   1
M  END
> <s_m_source_file>
AV-unprocessed.smi

> <i_m_source_file_index>
2883

> <i_lp_mmshare_version>
43012

> <i_f3d_flags>
0

> <s_epik_input>
W0NIM11DKFtDSDNdKShbQ0gzXSljMW5bY0hdW2NIXWMobjEpW05IXVtDQEhdKFtDSDJdW0NAQEhdMjMpW0NAQEhdKE8zKVtDSDJdW0NIMl0y

> <s_epik_cmdline>
J2VwaWtfcHl0aG9uJywgJy1waCcsICc3LjAnLCAnLXRuJywgJzgnLCAnLW1hJywgJzIwMCcsICctbWV0YWxfYmluZGluZycsICctaW1hZScsICc8aW5maWxlLm1hZT4nLCAnLW9tYWUnLCAnPG91dGZpbGUubWFlPic=

> <r_lp_tautomer_probability>
0.999336

> <r_epik_Ionization_Penalty>
0.371831

> <r_epik_Ionization_Penalty_Charging>
0.371821

> <r_epik_Ionization_Penalty_Neutral>
1.06897e-05

> <r_epik_State_Penalty>
0.369311

> <r_epik_Charging_Adjusted_Penalty>
0.741132

> <i_epik_Tot_Q>
1

> <i_epik_Tot_abs_Q>
1

> <r_epik_Metal_State_Penalty>
0.621338

> <b_epik_Metal_Only>
0

> <s_lp_Force_Field>
OPLS_2005

> <r_lp_Energy>
39.227

> <b_lp_Chiralities_Consistent>
1

> <s_lp_Variant>
AV-unprocessed.smi:2883-3

> <Gold.Version>
5.8.1

> <Gold.Id.Protein>
6NUR|6NUR_protein|mol2

> <Gold.PLP.Fitness>
41.9253

> <Gold.PLP.PLP>
-36.1804

> <Gold.PLP.part.hbond>
-2.2418

> <Gold.PLP.part.metal>
0.0000

> <Gold.PLP.part.buried>
-3.7280

> <Gold.PLP.part.nonpolar>
-30.0468

> <Gold.PLP.part.repulsive>
0.2948

> <Gold.PLP.ligand.clash>
0.0000

> <Gold.PLP.ligand.torsion>
0.2001

> <Gold.PLP.Chemscore.Hbond>
2.0000

> <Gold.PLP.Chemscore.CHOScore>
0.0000

> <Gold.PLP.Chemscore.Metal>
0.0000

> <Gold.Chemscore.Hbonds>
donor molecule, donor type, donor heavy atom, donor atom, acceptor molecule, acceptor atom, score
      L1  H     6    40       P1  7948  1.95

> <Gold.PLP.Chemscore.Internal.Correction>
0.1451

> <Gold.Rescore>
     Score         DG    S(hbond)    S(metal)    S(lipo)     H(rot)  DE(clash)    DE(int)     intcor
     16.76     -17.01       0.96        0.00      96.44       1.16       0.08       0.17       ----

> <Gold.Chemscore.Fitness>
16.7562

> <Gold.Chemscore.DG>
-17.0094

> <Gold.Chemscore.ZeroCoef>
-5.4800

> <Gold.Chemscore.Hbond>
0.9649

> <Gold.Chemscore.Metal>
0.0000

> <Gold.Chemscore.Lipo>
96.4367

> <Gold.Chemscore.Internal_Hbond>
0.0000

> <Gold.Chemscore.DEClash>
0.0835

> <Gold.Chemscore.DEInternal>
0.1697

> <Gold.Chemscore.Rot>
1.1626

> <Gold.Chemscore.Internal.Correction>
   9.000000E+99

> <Gold.Chemscore.Hbonds>
donor molecule, donor type, donor heavy atom, donor atom, acceptor molecule, acceptor atom, score
      L1  H     6    40       P1  7948  0.87

> <Gold.Chemscore.Hbond.Weighted>
-3.2226

> <Gold.Chemscore.Metal.Weighted>
-0.0000

> <Gold.Chemscore.Lipo.Weighted>
-11.2831

> <Gold.Chemscore.Internal_Hbond.Weighted>
0.0000

> <Gold.Chemscore.DEClash.Weighted>
0.0835

> <Gold.Chemscore.DEInternal.Weighted>
0.1697

> <Gold.Chemscore.Rot.Weighted>
2.9763

> <Gold.Chemscore.Internal.Correction.Weighted>
   9.000000E+99

> <Gold.Protein.RotatedTorsions>
[ 6907 6896 6895 6894 ] final   29.52 input  -60.11 | X-H torsion
[ 7974 7965 7964 7962 ] final   50.70 input  175.53 | X-H torsion
[ 8008 7997 7996 7995 ] final  175.64 input   59.86 | X-H torsion
[ 10167 10162 10161 10158 ] final  124.45 input  -65.29 | X-H torsion
[ 10718 10713 10712 10709 ] final  -38.01 input   66.30 | X-H torsion
[ 10763 10752 10751 10750 ] final   17.03 input  -60.55 | X-H torsion
[ 11005 11000 10999 10996 ] final  -95.51 input  -57.11 | X-H torsion

> <Gold.Protein.ActiveResidues>
 VAL166  LYS551  ARG553  GLY616  TRP617  ASP618  TYR619  PRO620  LYS621  CYS622 
 ASP623  PHE694  ASN695  SER759  ASP760  ASP761  ALA762  ILE779  LEU786  VAL792 
 PHE793  MET794  SER795  GLU796  ALA797  LYS798  CYS799  TRP800  GLU811  SER814 

> <Gold.Protein.RotatedAtoms>
  152.0328  134.9758  160.0572 H   0  0  0  0  0  0  0  0  0  0  0  0  # atno 6907 bound_to 6896
  152.1227  133.4358  159.4691 H   0  0  0  0  0  0  0  0  0  0  0  0  # atno 6908 bound_to 6896
  150.6850  134.2434  159.4525 H   0  0  0  0  0  0  0  0  0  0  0  0  # atno 6909 bound_to 6896
  145.9986  139.4415  143.0029 H   0  0  0  0  0  0  0  0  0  0  0  0  # atno 7974 bound_to 7965
  156.0849  140.1404  156.9666 H   0  0  0  0  0  0  0  0  0  0  0  0  # atno 8008 bound_to 7997
  154.4607  140.0944  156.6932 H   0  0  0  0  0  0  0  0  0  0  0  0  # atno 8009 bound_to 7997
  155.5015  140.3451  155.4374 H   0  0  0  0  0  0  0  0  0  0  0  0  # atno 8010 bound_to 7997
  139.5741  144.6954  151.3700 H   0  0  0  0  0  0  0  0  0  0  0  0  # atno 10167 bound_to 10162
  156.3087  130.4249  149.8072 H   0  0  0  0  0  0  0  0  0  0  0  0  # atno 10718 bound_to 10713
  153.1376  135.6753  153.9078 H   0  0  0  0  0  0  0  0  0  0  0  0  # atno 10763 bound_to 10752
  153.8545  135.3089  155.3435 H   0  0  0  0  0  0  0  0  0  0  0  0  # atno 10764 bound_to 10752
  154.7760  135.4914  153.9829 H   0  0  0  0  0  0  0  0  0  0  0  0  # atno 10765 bound_to 10752
  141.1439  133.8031  157.0445 H   0  0  0  0  0  0  0  0  0  0  0  0  # atno 11005 bound_to 11000
  145.7521  140.9968  143.1245 LP  0  0  0  0  0  0  0  0  0  0  0  0  # atno 17320 bound_to 7965
  144.6912  139.9227  143.7468 LP  0  0  0  0  0  0  0  0  0  0  0  0  # atno 17321 bound_to 7965
  140.7024  143.7598  150.7425 LP  0  0  0  0  0  0  0  0  0  0  0  0  # atno 17342 bound_to 10162
  140.1112  143.4697  152.2369 LP  0  0  0  0  0  0  0  0  0  0  0  0  # atno 17343 bound_to 10162
  156.5423  130.8305  151.3273 LP  0  0  0  0  0  0  0  0  0  0  0  0  # atno 17370 bound_to 10713
  157.7386  130.9816  150.2260 LP  0  0  0  0  0  0  0  0  0  0  0  0  # atno 17371 bound_to 10713
  140.0671  134.9723  157.1404 LP  0  0  0  0  0  0  0  0  0  0  0  0  # atno 17394 bound_to 11000
  140.3764  134.2335  155.7174 LP  0  0  0  0  0  0  0  0  0  0  0  0  # atno 17395 bound_to 11000

$$$$
