AV-unprocessed.smi:1406|AV-procd|sdf|5719|dock4
  -GOLD-   22720 5353D 1   1.00000     0.00000
 Structure written by MMmdl.
 41 43  0  0  0  0  0  0  0  0  2 V2000
  153.1408  141.0839  159.3487 C   0  0  0  0  0  0  0  0  0  0  0  0
  151.9015  141.4017  158.4878 C   0  0  2  0  0  0  0  0  0  0  0  0
  151.8129  140.5208  157.2321 C   0  0  0  0  0  0  0  0  0  0  0  0
  152.6136  139.6034  157.0488 O   0  0  0  0  0  0  0  0  0  0  0  0
  150.8327  140.8170  156.3644 N   0  0  0  0  0  0  0  0  0  0  0  0
  150.6146  140.1307  155.0956 C   0  0  1  0  0  0  0  0  0  0  0  0
  150.8508  138.6088  155.1499 C   0  0  0  0  0  0  0  0  0  0  0  0
  149.7761  137.9959  154.2304 C   0  0  0  0  0  0  0  0  0  0  0  0
  149.0551  139.1459  153.6512 N   0  3  1  0  0  0  0  0  0  0  0  0
  147.6667  138.9140  153.1971 C   0  0  0  0  0  0  0  0  0  0  0  0
  147.1214  140.2047  152.5524 C   0  0  0  0  0  0  0  0  0  0  0  0
  147.2713  141.4220  153.4886 C   0  0  0  0  0  0  0  0  0  0  0  0
  148.7182  141.5561  154.0026 C   0  0  0  0  0  0  0  0  0  0  0  0
  149.1595  140.2289  154.6405 C   0  0  2  0  0  0  0  0  0  0  0  0
  151.8347  142.8093  158.1154 N   0  0  0  0  0  0  0  0  0  0  0  0
  152.6445  143.8206  158.4366 C   0  0  0  0  0  0  0  0  0  0  0  0
  152.2545  144.9953  157.9626 N   0  0  0  0  0  0  0  0  0  0  0  0
  151.1116  144.6134  157.3193 C   0  0  0  0  0  0  0  0  0  0  0  0
  150.8076  143.3178  157.3894 N   0  0  0  0  0  0  0  0  0  0  0  0
  153.1401  140.0412  159.6680 H   0  0  0  0  0  0  0  0  0  0  0  0
  153.1564  141.7000  160.2483 H   0  0  0  0  0  0  0  0  0  0  0  0
  154.0728  141.2634  158.8114 H   0  0  0  0  0  0  0  0  0  0  0  0
  151.0228  141.1914  159.1003 H   0  0  0  0  0  0  0  0  0  0  0  0
  150.2157  141.5849  156.5864 H   0  0  0  0  0  0  0  0  0  0  0  0
  151.2578  140.5677  154.3287 H   0  0  0  0  0  0  0  0  0  0  0  0
  151.8598  138.3559  154.8219 H   0  0  0  0  0  0  0  0  0  0  0  0
  150.7301  138.2240  156.1636 H   0  0  0  0  0  0  0  0  0  0  0  0
  150.2069  137.3764  153.4432 H   0  0  0  0  0  0  0  0  0  0  0  0
  149.0931  137.3769  154.8143 H   0  0  0  0  0  0  0  0  0  0  0  0
  147.6488  138.0958  152.4764 H   0  0  0  0  0  0  0  0  0  0  0  0
  147.0437  138.6152  154.0415 H   0  0  0  0  0  0  0  0  0  0  0  0
  147.6610  140.3977  151.6242 H   0  0  0  0  0  0  0  0  0  0  0  0
  146.0748  140.0713  152.2768 H   0  0  0  0  0  0  0  0  0  0  0  0
  146.9705  142.3330  152.9704 H   0  0  0  0  0  0  0  0  0  0  0  0
  146.5942  141.3112  154.3366 H   0  0  0  0  0  0  0  0  0  0  0  0
  149.3825  141.8172  153.1777 H   0  0  0  0  0  0  0  0  0  0  0  0
  148.7850  142.3670  154.7286 H   0  0  0  0  0  0  0  0  0  0  0  0
  148.5036  139.9945  155.4824 H   0  0  0  0  0  0  0  0  0  0  0  0
  153.5353  143.6963  159.0347 H   0  0  0  0  0  0  0  0  0  0  0  0
  150.4811  145.3121  156.7894 H   0  0  0  0  0  0  0  0  0  0  0  0
  149.5890  139.4429  152.8469 H   0  0  0  0  0  0  0  0  0  0  0  0
  1  2  1  0  0  0  0
  1 20  1  0  0  0  0
  1 21  1  0  0  0  0
  1 22  1  0  0  0  0
  2  3  1  0  0  0  0
  2 15  1  0  0  0  0
  2 23  1  0  0  0  0
  3  4  2  0  0  0  0
  3  5  1  0  0  0  0
  5  6  1  0  0  0  0
  5 24  1  0  0  0  0
  6 14  1  0  0  0  0
  6  7  1  0  0  0  0
  6 25  1  0  0  0  0
  7  8  1  0  0  0  0
  7 26  1  0  0  0  0
  7 27  1  0  0  0  0
  8  9  1  0  0  0  0
  8 28  1  0  0  0  0
  8 29  1  0  0  0  0
  9 14  1  0  0  0  0
  9 10  1  0  0  0  0
  9 41  1  0  0  0  0
 10 11  1  0  0  0  0
 10 30  1  0  0  0  0
 10 31  1  0  0  0  0
 11 12  1  0  0  0  0
 11 32  1  0  0  0  0
 11 33  1  0  0  0  0
 12 13  1  0  0  0  0
 12 34  1  0  0  0  0
 12 35  1  0  0  0  0
 13 14  1  0  0  0  0
 13 36  1  0  0  0  0
 13 37  1  0  0  0  0
 14 38  1  0  0  0  0
 15 19  1  0  0  0  0
 15 16  1  0  0  0  0
 16 17  2  0  0  0  0
 16 39  1  0  0  0  0
 17 18  1  0  0  0  0
 18 19  2  0  0  0  0
 18 40  1  0  0  0  0
M  CHG  1   9   1
M  END
> <s_m_source_file>
AV-unprocessed.smi

> <i_m_source_file_index>
1406

> <i_lp_mmshare_version>
43012

> <i_f3d_flags>
0

> <s_epik_input>
bjFbY0hdbltjSF1uMVtDQEhdKFtDSDNdKUMoPU8pW05IXVtDQEhdKFtDSDJdW0NIMl0yKVtDQEBIXShOMjMpW0NIMl1bQ0gyXVtDSDJdW0NIMl0z

> <s_epik_cmdline>
J2VwaWtfcHl0aG9uJywgJy1waCcsICc3LjAnLCAnLXRuJywgJzgnLCAnLW1hJywgJzIwMCcsICctbWV0YWxfYmluZGluZycsICctaW1hZScsICc8aW5maWxlLm1hZT4nLCAnLW9tYWUnLCAnPG91dGZpbGUubWFlPic=

> <r_lp_tautomer_probability>
1

> <r_epik_Ionization_Penalty>
0.00197066

> <r_epik_Ionization_Penalty_Charging>
0.00196223

> <r_epik_Ionization_Penalty_Neutral>
8.43107e-06

> <r_epik_State_Penalty>
0.00133866

> <r_epik_Charging_Adjusted_Penalty>
0.00330089

> <i_epik_Tot_Q>
1

> <i_epik_Tot_abs_Q>
1

> <r_epik_Metal_State_Penalty>
-0

> <b_epik_Metal_Only>
0

> <s_lp_Force_Field>
OPLS_2005

> <r_lp_Energy>
39.7149

> <b_lp_Chiralities_Consistent>
1

> <s_lp_Variant>
AV-unprocessed.smi:1406-11

> <Gold.Version>
5.8.1

> <Gold.Id.Protein>
6NUR|6NUR_protein|mol2

> <Gold.PLP.Fitness>
43.4726

> <Gold.PLP.PLP>
-38.3650

> <Gold.PLP.part.hbond>
-2.0000

> <Gold.PLP.part.metal>
0.0000

> <Gold.PLP.part.buried>
-2.4281

> <Gold.PLP.part.nonpolar>
-34.3881

> <Gold.PLP.part.repulsive>
0.3250

> <Gold.PLP.ligand.clash>
0.0000

> <Gold.PLP.ligand.torsion>
0.5355

> <Gold.PLP.Chemscore.Hbond>
1.3280

> <Gold.PLP.Chemscore.CHOScore>
0.6983

> <Gold.PLP.Chemscore.Metal>
0.0000

> <Gold.Chemscore.Hbonds>
donor molecule, donor type, donor heavy atom, donor atom, acceptor molecule, acceptor atom, score
      L1  H     9    41       P1  7957  0.98
      P1  H  7997  8009       L1     4  0.11
      L1  C    18    40       P1  8028  0.74

> <Gold.PLP.Chemscore.Internal.Correction>
0.0999

> <Gold.Rescore>
     Score         DG    S(hbond)    S(metal)    S(lipo)     H(rot)  DE(clash)    DE(int)     intcor
      9.65     -12.72       1.05        0.00      73.19       1.89       0.35       2.73       ----

> <Gold.Chemscore.Fitness>
9.6457

> <Gold.Chemscore.DG>
-12.7216

> <Gold.Chemscore.ZeroCoef>
-5.4800

> <Gold.Chemscore.Hbond>
1.0502

> <Gold.Chemscore.Metal>
0.0000

> <Gold.Chemscore.Lipo>
73.1935

> <Gold.Chemscore.Internal_Hbond>
0.0000

> <Gold.Chemscore.DEClash>
0.3478

> <Gold.Chemscore.DEInternal>
2.7281

> <Gold.Chemscore.Rot>
1.8865

> <Gold.Chemscore.Internal.Correction>
   9.000000E+99

> <Gold.Chemscore.Hbonds>
donor molecule, donor type, donor heavy atom, donor atom, acceptor molecule, acceptor atom, score
      L1  H     9    41       P1  7957  0.93
      P1  H  7997  8009       L1     4  0.11

> <Gold.Chemscore.Hbond.Weighted>
-3.5075

> <Gold.Chemscore.Metal.Weighted>
-0.0000

> <Gold.Chemscore.Lipo.Weighted>
-8.5636

> <Gold.Chemscore.Internal_Hbond.Weighted>
0.0000

> <Gold.Chemscore.DEClash.Weighted>
0.3478

> <Gold.Chemscore.DEInternal.Weighted>
2.7281

> <Gold.Chemscore.Rot.Weighted>
4.8295

> <Gold.Chemscore.Internal.Correction.Weighted>
   9.000000E+99

> <Gold.Protein.RotatedTorsions>
[ 6907 6896 6895 6894 ] final  108.66 input  -60.11 | X-H torsion
[ 7974 7965 7964 7962 ] final   49.48 input  175.53 | X-H torsion
[ 8008 7997 7996 7995 ] final  133.03 input   59.86 | X-H torsion
[ 10167 10162 10161 10158 ] final  117.82 input  -65.29 | X-H torsion
[ 10718 10713 10712 10709 ] final -104.77 input   66.30 | X-H torsion
[ 10763 10752 10751 10750 ] final   62.86 input  -60.55 | X-H torsion
[ 11005 11000 10999 10996 ] final  -89.41 input  -57.11 | X-H torsion

> <Gold.Protein.ActiveResidues>
 VAL166  LYS551  ARG553  GLY616  TRP617  ASP618  TYR619  PRO620  LYS621  CYS622 
 ASP623  PHE694  ASN695  SER759  ASP760  ASP761  ALA762  ILE779  LEU786  VAL792 
 PHE793  MET794  SER795  GLU796  ALA797  LYS798  CYS799  TRP800  GLU811  SER814 

> <Gold.Protein.RotatedAtoms>
  152.5102  133.9057  159.7462 H   0  0  0  0  0  0  0  0  0  0  0  0  # atno 6907 bound_to 6896
  150.9462  133.6592  159.2788 H   0  0  0  0  0  0  0  0  0  0  0  0  # atno 6908 bound_to 6896
  151.3886  135.0957  159.9572 H   0  0  0  0  0  0  0  0  0  0  0  0  # atno 6909 bound_to 6896
  146.0104  139.4537  142.9959 H   0  0  0  0  0  0  0  0  0  0  0  0  # atno 7974 bound_to 7965
  156.2988  140.2531  156.3187 H   0  0  0  0  0  0  0  0  0  0  0  0  # atno 8008 bound_to 7997
  154.9256  140.0399  157.2040 H   0  0  0  0  0  0  0  0  0  0  0  0  # atno 8009 bound_to 7997
  154.8268  140.2869  155.5753 H   0  0  0  0  0  0  0  0  0  0  0  0  # atno 8010 bound_to 7997
  139.6153  144.7090  151.2753 H   0  0  0  0  0  0  0  0  0  0  0  0  # atno 10167 bound_to 10162
  156.0318  130.5531  150.7444 H   0  0  0  0  0  0  0  0  0  0  0  0  # atno 10718 bound_to 10713
  152.9997  135.5450  154.6260 H   0  0  0  0  0  0  0  0  0  0  0  0  # atno 10763 bound_to 10752
  154.5548  135.2829  155.0977 H   0  0  0  0  0  0  0  0  0  0  0  0  # atno 10764 bound_to 10752
  154.2202  135.6452  153.5195 H   0  0  0  0  0  0  0  0  0  0  0  0  # atno 10765 bound_to 10752
  141.1585  133.7629  156.9591 H   0  0  0  0  0  0  0  0  0  0  0  0  # atno 11005 bound_to 11000
  145.7350  141.0029  143.1331 LP  0  0  0  0  0  0  0  0  0  0  0  0  # atno 17320 bound_to 7965
  144.6951  139.9030  143.7459 LP  0  0  0  0  0  0  0  0  0  0  0  0  # atno 17321 bound_to 7965
  140.7346  143.6759  150.8041 LP  0  0  0  0  0  0  0  0  0  0  0  0  # atno 17342 bound_to 10162
  140.0361  143.5393  152.2738 LP  0  0  0  0  0  0  0  0  0  0  0  0  # atno 17343 bound_to 10162
  157.5004  131.0918  151.0320 LP  0  0  0  0  0  0  0  0  0  0  0  0  # atno 17370 bound_to 10713
  157.0703  130.5861  149.5401 LP  0  0  0  0  0  0  0  0  0  0  0  0  # atno 17371 bound_to 10713
  140.1205  134.9420  157.2196 LP  0  0  0  0  0  0  0  0  0  0  0  0  # atno 17394 bound_to 11000
  140.3078  134.3058  155.7274 LP  0  0  0  0  0  0  0  0  0  0  0  0  # atno 17395 bound_to 11000

$$$$
