AV-unprocessed.smi:2406|AV-procd|sdf|9517|dock9
  -GOLD-   2272013153D 1   1.00000     0.00000
 Structure written by MMmdl.
 36 37  0  0  0  0  0  0  0  0  1 V2000
  150.7546  141.7582  156.1334 C   0  0  0  0  0  0  0  0  0  0  0  0
  150.5524  140.7041  155.1988 O   0  0  0  0  0  0  0  0  0  0  0  0
  149.2934  140.5462  154.6578 C   0  0  0  0  0  0  0  0  0  0  0  0
  148.9586  139.3286  154.0305 C   0  0  0  0  0  0  0  0  0  0  0  0
  147.6561  139.2054  153.4963 C   0  0  0  0  0  0  0  0  0  0  0  0
  147.3563  137.9604  152.8831 N   0  0  0  0  0  0  0  0  0  0  0  0
  146.1632  137.3475  152.7910 C   0  0  0  0  0  0  0  0  0  0  0  0
  145.0957  137.8033  153.2018 O   0  0  0  0  0  0  0  0  0  0  0  0
  146.2810  136.1529  152.1928 N   0  0  0  0  0  0  0  0  0  0  0  0
  145.2016  135.1906  151.9793 C   0  0  1  0  0  0  0  0  0  0  0  0
  144.1442  135.8025  151.0495 C   0  0  0  0  0  0  0  0  0  0  0  0
  145.7693  133.8759  151.4123 C   0  0  0  0  0  0  0  0  0  0  0  0
  144.7236  132.7838  151.2656 C   0  0  0  0  0  0  0  0  0  0  0  0
  145.0340  131.4857  150.5561 C   0  0  0  0  0  0  0  0  0  0  0  0
  144.0980  132.4886  149.9233 C   0  0  0  0  0  0  0  0  0  0  0  0
  146.7846  140.2395  153.5936 N   0  0  0  0  0  0  0  0  0  0  0  0
  147.1991  141.3514  154.2038 C   0  0  0  0  0  0  0  0  0  0  0  0
  148.4012  141.5625  154.7412 N   0  0  0  0  0  0  0  0  0  0  0  0
  151.7901  141.7454  156.4729 H   0  0  0  0  0  0  0  0  0  0  0  0
  150.1175  141.6403  157.0110 H   0  0  0  0  0  0  0  0  0  0  0  0
  150.5660  142.7336  155.6827 H   0  0  0  0  0  0  0  0  0  0  0  0
  149.6753  138.5225  153.9688 H   0  0  0  0  0  0  0  0  0  0  0  0
  148.1459  137.4661  152.4950 H   0  0  0  0  0  0  0  0  0  0  0  0
  147.1998  135.8692  151.8856 H   0  0  0  0  0  0  0  0  0  0  0  0
  144.7149  134.9573  152.9280 H   0  0  0  0  0  0  0  0  0  0  0  0
  143.3175  135.1105  150.8868 H   0  0  0  0  0  0  0  0  0  0  0  0
  144.5667  136.0508  150.0754 H   0  0  0  0  0  0  0  0  0  0  0  0
  143.7281  136.7159  151.4757 H   0  0  0  0  0  0  0  0  0  0  0  0
  146.2022  134.0596  150.4284 H   0  0  0  0  0  0  0  0  0  0  0  0
  146.5820  133.5133  152.0436 H   0  0  0  0  0  0  0  0  0  0  0  0
  144.0550  132.7070  152.1212 H   0  0  0  0  0  0  0  0  0  0  0  0
  146.0216  131.3721  150.1134 H   0  0  0  0  0  0  0  0  0  0  0  0
  144.5987  130.5759  150.9643 H   0  0  0  0  0  0  0  0  0  0  0  0
  143.0376  132.2457  149.9066 H   0  0  0  0  0  0  0  0  0  0  0  0
  144.4643  133.0390  149.0587 H   0  0  0  0  0  0  0  0  0  0  0  0
  146.4887  142.1621  154.2702 H   0  0  0  0  0  0  0  0  0  0  0  0
  1  2  1  0  0  0  0
  1 19  1  0  0  0  0
  1 20  1  0  0  0  0
  1 21  1  0  0  0  0
  2  3  1  0  0  0  0
  3 18  1  0  0  0  0
  3  4  2  0  0  0  0
  4  5  1  0  0  0  0
  4 22  1  0  0  0  0
  5  6  1  0  0  0  0
  5 16  2  0  0  0  0
  6  7  1  0  0  0  0
  6 23  1  0  0  0  0
  7  8  2  0  0  0  0
  7  9  1  0  0  0  0
  9 10  1  0  0  0  0
  9 24  1  0  0  0  0
 10 11  1  0  0  0  0
 10 12  1  0  0  0  0
 10 25  1  0  0  0  0
 11 26  1  0  0  0  0
 11 27  1  0  0  0  0
 11 28  1  0  0  0  0
 12 13  1  0  0  0  0
 12 29  1  0  0  0  0
 12 30  1  0  0  0  0
 13 15  1  0  0  0  0
 13 14  1  0  0  0  0
 13 31  1  0  0  0  0
 14 15  1  0  0  0  0
 14 32  1  0  0  0  0
 14 33  1  0  0  0  0
 15 34  1  0  0  0  0
 15 35  1  0  0  0  0
 16 17  1  0  0  0  0
 17 18  2  0  0  0  0
 17 36  1  0  0  0  0
M  END
> <s_m_source_file>
AV-unprocessed.smi

> <i_m_source_file_index>
2406

> <i_lp_mmshare_version>
43012

> <i_f3d_flags>
0

> <s_epik_input>
W0NIM11PYzFbY0hdYyhuW2NIXW4xKVtOSF1DKD1PKVtOSF1bQ0BIXShbQ0gzXSlbQ0gyXVtDSF0yW0NIMl1bQ0gyXTI=

> <s_epik_cmdline>
J2VwaWtfcHl0aG9uJywgJy1waCcsICc3LjAnLCAnLXRuJywgJzgnLCAnLW1hJywgJzIwMCcsICctbWV0YWxfYmluZGluZycsICctaW1hZScsICc8aW5maWxlLm1hZT4nLCAnLW9tYWUnLCAnPG91dGZpbGUubWFlPic=

> <r_lp_tautomer_probability>
1

> <r_epik_Ionization_Penalty>
2.82876e-05

> <r_epik_Ionization_Penalty_Charging>
0

> <r_epik_Ionization_Penalty_Neutral>
2.82876e-05

> <r_epik_State_Penalty>
-0

> <r_epik_Charging_Adjusted_Penalty>
0

> <i_epik_Tot_Q>
0

> <i_epik_Tot_abs_Q>
0

> <r_epik_Metal_State_Penalty>
-0

> <b_epik_Metal_Only>
0

> <s_lp_Force_Field>
OPLS_2005

> <r_lp_Energy>
10.7025

> <b_lp_Chiralities_Consistent>
1

> <s_lp_Variant>
AV-unprocessed.smi:2406-2

> <Gold.Version>
5.8.1

> <Gold.Id.Protein>
6NUR|6NUR_protein|mol2

> <Gold.PLP.Fitness>
38.1753

> <Gold.PLP.PLP>
-30.4769

> <Gold.PLP.part.hbond>
-3.0000

> <Gold.PLP.part.metal>
0.0000

> <Gold.PLP.part.buried>
-2.7630

> <Gold.PLP.part.nonpolar>
-25.3213

> <Gold.PLP.part.repulsive>
0.8624

> <Gold.PLP.ligand.clash>
0.0000

> <Gold.PLP.ligand.torsion>
0.7484

> <Gold.PLP.Chemscore.Hbond>
2.8720

> <Gold.PLP.Chemscore.CHOScore>
0.0000

> <Gold.PLP.Chemscore.Metal>
0.0000

> <Gold.Chemscore.Hbonds>
donor molecule, donor type, donor heavy atom, donor atom, acceptor molecule, acceptor atom, score
      L1  H     6    23       P1  7948  1.00
      L1  H     9    24       P1  7948  0.98
      P1  H  7989  7998       L1     2  0.88

> <Gold.PLP.Chemscore.Internal.Correction>
0.5792

> <Gold.Rescore>
     Score         DG    S(hbond)    S(metal)    S(lipo)     H(rot)  DE(clash)    DE(int)     intcor
     13.39     -15.84       2.48        0.00      58.13       1.85       0.58       1.86       ----

> <Gold.Chemscore.Fitness>
13.3936

> <Gold.Chemscore.DG>
-15.8407

> <Gold.Chemscore.ZeroCoef>
-5.4800

> <Gold.Chemscore.Hbond>
2.4805

> <Gold.Chemscore.Metal>
0.0000

> <Gold.Chemscore.Lipo>
58.1302

> <Gold.Chemscore.Internal_Hbond>
0.0000

> <Gold.Chemscore.DEClash>
0.5845

> <Gold.Chemscore.DEInternal>
1.8626

> <Gold.Chemscore.Rot>
1.8458

> <Gold.Chemscore.Internal.Correction>
   9.000000E+99

> <Gold.Chemscore.Hbonds>
donor molecule, donor type, donor heavy atom, donor atom, acceptor molecule, acceptor atom, score
      L1  H     6    23       P1  7948  0.97
      L1  H     9    24       P1  7948  0.92
      P1  H  7989  7998       L1     2  0.18

> <Gold.Chemscore.Hbond.Weighted>
-8.2848

> <Gold.Chemscore.Metal.Weighted>
-0.0000

> <Gold.Chemscore.Lipo.Weighted>
-6.8012

> <Gold.Chemscore.Internal_Hbond.Weighted>
0.0000

> <Gold.Chemscore.DEClash.Weighted>
0.5845

> <Gold.Chemscore.DEInternal.Weighted>
1.8626

> <Gold.Chemscore.Rot.Weighted>
4.7254

> <Gold.Chemscore.Internal.Correction.Weighted>
   9.000000E+99

> <Gold.Protein.RotatedTorsions>
[ 6907 6896 6895 6894 ] final  147.09 input  -60.11 | X-H torsion
[ 7974 7965 7964 7962 ] final  163.54 input  175.53 | X-H torsion
[ 8008 7997 7996 7995 ] final -114.61 input   59.86 | X-H torsion
[ 10167 10162 10161 10158 ] final  -25.09 input  -65.29 | X-H torsion
[ 10718 10713 10712 10709 ] final -153.96 input   66.30 | X-H torsion
[ 10763 10752 10751 10750 ] final  108.39 input  -60.55 | X-H torsion
[ 11005 11000 10999 10996 ] final   62.19 input  -57.11 | X-H torsion

> <Gold.Protein.ActiveResidues>
 VAL166  LYS551  ARG553  GLY616  TRP617  ASP618  TYR619  PRO620  LYS621  CYS622 
 ASP623  PHE694  ASN695  SER759  ASP760  ASP761  ALA762  ILE779  LEU786  VAL792 
 PHE793  MET794  SER795  GLU796  ALA797  LYS798  CYS799  TRP800  GLU811  SER814 

> <Gold.Protein.RotatedAtoms>
  152.1593  133.4571  159.4852 H   0  0  0  0  0  0  0  0  0  0  0  0  # atno 6907 bound_to 6896
  150.6905  134.2091  159.4361 H   0  0  0  0  0  0  0  0  0  0  0  0  # atno 6908 bound_to 6896
  151.9992  134.9937  160.0615 H   0  0  0  0  0  0  0  0  0  0  0  0  # atno 6909 bound_to 6896
  144.7585  139.8197  143.6341 H   0  0  0  0  0  0  0  0  0  0  0  0  # atno 7974 bound_to 7965
  155.0390  140.0392  157.2502 H   0  0  0  0  0  0  0  0  0  0  0  0  # atno 8008 bound_to 7997
  154.7232  140.2716  155.6498 H   0  0  0  0  0  0  0  0  0  0  0  0  # atno 8009 bound_to 7997
  156.2822  140.2698  156.1910 H   0  0  0  0  0  0  0  0  0  0  0  0  # atno 8010 bound_to 7997
  140.7287  143.4296  151.0823 H   0  0  0  0  0  0  0  0  0  0  0  0  # atno 10167 bound_to 10162
  156.4929  130.8355  151.2577 H   0  0  0  0  0  0  0  0  0  0  0  0  # atno 10718 bound_to 10713
  153.4200  135.3813  155.2105 H   0  0  0  0  0  0  0  0  0  0  0  0  # atno 10763 bound_to 10752
  154.8744  135.3815  154.4396 H   0  0  0  0  0  0  0  0  0  0  0  0  # atno 10764 bound_to 10752
  153.4915  135.7088  153.5944 H   0  0  0  0  0  0  0  0  0  0  0  0  # atno 10765 bound_to 10752
  140.0109  134.6298  155.9782 H   0  0  0  0  0  0  0  0  0  0  0  0  # atno 11005 bound_to 11000
  146.1623  139.4741  142.9980 LP  0  0  0  0  0  0  0  0  0  0  0  0  # atno 17320 bound_to 7965
  145.6698  141.0219  143.1664 LP  0  0  0  0  0  0  0  0  0  0  0  0  # atno 17321 bound_to 7965
  139.7951  143.8163  152.3156 LP  0  0  0  0  0  0  0  0  0  0  0  0  # atno 17342 bound_to 10162
  139.8160  144.7316  150.9634 LP  0  0  0  0  0  0  0  0  0  0  0  0  # atno 17343 bound_to 10162
  157.7472  131.0007  150.2938 LP  0  0  0  0  0  0  0  0  0  0  0  0  # atno 17370 bound_to 10713
  156.3409  130.3815  149.7410 LP  0  0  0  0  0  0  0  0  0  0  0  0  # atno 17371 bound_to 10713
  141.1710  133.6537  156.4652 LP  0  0  0  0  0  0  0  0  0  0  0  0  # atno 17394 bound_to 11000
  140.4556  134.6888  157.5061 LP  0  0  0  0  0  0  0  0  0  0  0  0  # atno 17395 bound_to 11000

$$$$
