AV-unprocessed.smi:286|AV-procd|sdf|2173|dock7
  -GOLD-   2262021533D 1   1.00000     0.00000
 Structure written by MMmdl.
 46 48  0  0  0  0  0  0  0  0  1 V2000
  152.7961  139.7447  155.8630 O   0  0  0  0  0  0  0  0  0  0  0  0
  151.6483  139.7474  155.4146 C   0  0  0  0  0  0  0  0  0  0  0  0
  151.1597  138.7585  154.4598 C   0  0  0  0  0  0  0  0  0  0  0  0
  151.9790  137.7790  154.0411 F   0  0  0  0  0  0  0  0  0  0  0  0
  149.8962  138.8095  153.9846 C   0  0  0  0  0  0  0  0  0  0  0  0
  148.9864  139.7847  154.3606 N   0  0  0  0  0  0  0  0  0  0  0  0
  147.5784  139.8302  153.8048 C   0  0  2  0  0  0  0  0  0  0  0  0
  146.5432  139.7114  154.9395 C   0  0  0  0  0  0  0  0  0  0  0  0
  145.6435  138.5903  154.4577 C   0  0  0  0  0  0  0  0  0  0  0  0
  146.5997  137.7575  153.6173 C   0  0  0  0  0  0  0  0  0  0  0  0
  147.3700  138.7456  152.9455 O   0  0  0  0  0  0  0  0  0  0  0  0
  149.3766  140.7886  155.2735 C   0  0  0  0  0  0  0  0  0  0  0  0
  148.5922  141.6826  155.6012 O   0  0  0  0  0  0  0  0  0  0  0  0
  150.6950  140.7280  155.7836 N   0  0  0  0  0  0  0  0  0  0  0  0
  151.1093  141.7694  156.7095 C   0  0  0  0  0  0  0  0  0  0  0  0
  151.6720  141.2173  158.0399 C   0  0  2  0  0  0  0  0  0  0  0  0
  150.6807  140.4258  158.6667 O   0  0  0  0  0  0  0  0  0  0  0  0
  152.1218  142.3375  159.0097 C   0  0  0  0  0  0  0  0  0  0  0  0
  152.5036  141.7817  160.3992 C   0  0  0  0  0  0  0  0  0  0  0  0
  153.0189  142.8889  161.3326 C   0  0  0  0  0  0  0  0  0  0  0  0
  151.9946  144.0259  161.4656 C   0  0  0  0  0  0  0  0  0  0  0  0
  151.6182  144.5932  160.0886 C   0  0  0  0  0  0  0  0  0  0  0  0
  151.0995  143.4901  159.1516 C   0  0  0  0  0  0  0  0  0  0  0  0
  149.6052  138.0476  153.2781 H   0  0  0  0  0  0  0  0  0  0  0  0
  147.5146  140.7596  153.2360 H   0  0  0  0  0  0  0  0  0  0  0  0
  147.0346  139.4307  155.8723 H   0  0  0  0  0  0  0  0  0  0  0  0
  146.0147  140.6535  155.0870 H   0  0  0  0  0  0  0  0  0  0  0  0
  145.1890  138.0261  155.2724 H   0  0  0  0  0  0  0  0  0  0  0  0
  144.8464  138.9911  153.8304 H   0  0  0  0  0  0  0  0  0  0  0  0
  147.2411  137.1451  154.2525 H   0  0  0  0  0  0  0  0  0  0  0  0
  146.0845  137.1033  152.9136 H   0  0  0  0  0  0  0  0  0  0  0  0
  151.8572  142.3640  156.1818 H   0  0  0  0  0  0  0  0  0  0  0  0
  150.2787  142.4611  156.8593 H   0  0  0  0  0  0  0  0  0  0  0  0
  152.5330  140.5794  157.8364 H   0  0  0  0  0  0  0  0  0  0  0  0
  149.9960  140.2497  158.0396 H   0  0  0  0  0  0  0  0  0  0  0  0
  153.0321  142.7661  158.5871 H   0  0  0  0  0  0  0  0  0  0  0  0
  151.6404  141.2995  160.8589 H   0  0  0  0  0  0  0  0  0  0  0  0
  153.2676  141.0105  160.2958 H   0  0  0  0  0  0  0  0  0  0  0  0
  153.2401  142.4721  162.3153 H   0  0  0  0  0  0  0  0  0  0  0  0
  153.9588  143.2850  160.9463 H   0  0  0  0  0  0  0  0  0  0  0  0
  151.0992  143.6552  161.9662 H   0  0  0  0  0  0  0  0  0  0  0  0
  152.3973  144.8181  162.0974 H   0  0  0  0  0  0  0  0  0  0  0  0
  150.8623  145.3708  160.2012 H   0  0  0  0  0  0  0  0  0  0  0  0
  152.4894  145.0729  159.6411 H   0  0  0  0  0  0  0  0  0  0  0  0
  150.8801  143.9268  158.1775 H   0  0  0  0  0  0  0  0  0  0  0  0
  150.1540  143.1086  159.5386 H   0  0  0  0  0  0  0  0  0  0  0  0
  1  2  2  0  0  0  0
  2 14  1  0  0  0  0
  2  3  1  0  0  0  0
  3  4  1  0  0  0  0
  3  5  2  0  0  0  0
  5  6  1  0  0  0  0
  5 24  1  0  0  0  0
  6  7  1  0  0  0  0
  6 12  1  0  0  0  0
  7 11  1  0  0  0  0
  7  8  1  0  0  0  0
  7 25  1  0  0  0  0
  8  9  1  0  0  0  0
  8 26  1  0  0  0  0
  8 27  1  0  0  0  0
  9 10  1  0  0  0  0
  9 28  1  0  0  0  0
  9 29  1  0  0  0  0
 10 11  1  0  0  0  0
 10 30  1  0  0  0  0
 10 31  1  0  0  0  0
 12 13  2  0  0  0  0
 12 14  1  0  0  0  0
 14 15  1  0  0  0  0
 15 16  1  0  0  0  0
 15 32  1  0  0  0  0
 15 33  1  0  0  0  0
 16 17  1  0  0  0  0
 16 18  1  0  0  0  0
 16 34  1  0  0  0  0
 17 35  1  0  0  0  0
 18 23  1  0  0  0  0
 18 19  1  0  0  0  0
 18 36  1  0  0  0  0
 19 20  1  0  0  0  0
 19 37  1  0  0  0  0
 19 38  1  0  0  0  0
 20 21  1  0  0  0  0
 20 39  1  0  0  0  0
 20 40  1  0  0  0  0
 21 22  1  0  0  0  0
 21 41  1  0  0  0  0
 21 42  1  0  0  0  0
 22 23  1  0  0  0  0
 22 43  1  0  0  0  0
 22 44  1  0  0  0  0
 23 45  1  0  0  0  0
 23 46  1  0  0  0  0
M  END
> <s_m_source_file>
AV-unprocessed.smi

> <i_m_source_file_index>
286

> <i_lp_mmshare_version>
43012

> <i_f3d_flags>
0

> <s_epik_input>
TzFbQ0gyXVtDSDJdW0NIMl1bQ0BIXTFuKFtjSF1jKEYpYzI9TyljKD1PKW4yW0NIMl1bQ0BIXShbT0hdKVtDSF0zW0NIMl1bQ0gyXVtDSDJdW0NIMl1bQ0gyXTM=

> <s_epik_cmdline>
J2VwaWtfcHl0aG9uJywgJy1waCcsICc3LjAnLCAnLXRuJywgJzgnLCAnLW1hJywgJzIwMCcsICctbWV0YWxfYmluZGluZycsICctaW1hZScsICc8aW5maWxlLm1hZT4nLCAnLW9tYWUnLCAnPG91dGZpbGUubWFlPic=

> <r_lp_tautomer_probability>
1

> <r_epik_Ionization_Penalty>
3.15564e-07

> <r_epik_Ionization_Penalty_Charging>
2.06416e-08

> <r_epik_Ionization_Penalty_Neutral>
2.94923e-07

> <r_epik_State_Penalty>
-0

> <r_epik_Charging_Adjusted_Penalty>
2.06416e-08

> <i_epik_Tot_Q>
0

> <i_epik_Tot_abs_Q>
0

> <r_epik_Metal_State_Penalty>
-0

> <b_epik_Metal_Only>
0

> <s_epik_Chemistry_Notes>
This compound contains an acetal/aminal-like group ( X-CH(R)-Y where X, Y are N, S, or O) that may be acid/base labile, releasing an aldehyde.

> <s_lp_Force_Field>
OPLS_2005

> <r_lp_Energy>
41.5856

> <b_lp_Chiralities_Consistent>
1

> <s_lp_Variant>
AV-unprocessed.smi:286-1

> <Gold.Version>
5.8.1

> <Gold.Id.Protein>
6NUR|6NUR_protein|mol2

> <Gold.PLP.Fitness>
50.8404

> <Gold.PLP.PLP>
-45.1437

> <Gold.PLP.part.hbond>
-1.0000

> <Gold.PLP.part.metal>
0.0000

> <Gold.PLP.part.buried>
-4.4989

> <Gold.PLP.part.nonpolar>
-41.1522

> <Gold.PLP.part.repulsive>
1.1494

> <Gold.PLP.ligand.clash>
0.0000

> <Gold.PLP.ligand.torsion>
0.1696

> <Gold.PLP.Chemscore.Hbond>
1.0000

> <Gold.PLP.Chemscore.CHOScore>
1.0000

> <Gold.PLP.Chemscore.Metal>
0.0000

> <Gold.Chemscore.Hbonds>
donor molecule, donor type, donor heavy atom, donor atom, acceptor molecule, acceptor atom, score
      P1  H  7997  8009       L1     1  1.00
      L1  C     5    24       P1  7948  1.00
      L1  C     5    24       P1  7957  0.02

> <Gold.PLP.Chemscore.Internal.Correction>
0.0359

> <Gold.Rescore>
     Score         DG    S(hbond)    S(metal)    S(lipo)     H(rot)  DE(clash)    DE(int)     intcor
     12.19     -15.02       1.00        0.00     102.96       2.28       0.11       2.73       ----

> <Gold.Chemscore.Fitness>
12.1866

> <Gold.Chemscore.DG>
-15.0249

> <Gold.Chemscore.ZeroCoef>
-5.4800

> <Gold.Chemscore.Hbond>
0.9953

> <Gold.Chemscore.Metal>
0.0000

> <Gold.Chemscore.Lipo>
102.9567

> <Gold.Chemscore.Internal_Hbond>
0.0000

> <Gold.Chemscore.DEClash>
0.1094

> <Gold.Chemscore.DEInternal>
2.7290

> <Gold.Chemscore.Rot>
2.2756

> <Gold.Chemscore.Internal.Correction>
   9.000000E+99

> <Gold.Chemscore.Hbonds>
donor molecule, donor type, donor heavy atom, donor atom, acceptor molecule, acceptor atom, score
      P1  H  7997  8009       L1     1  1.00

> <Gold.Chemscore.Hbond.Weighted>
-3.3244

> <Gold.Chemscore.Metal.Weighted>
-0.0000

> <Gold.Chemscore.Lipo.Weighted>
-12.0459

> <Gold.Chemscore.Internal_Hbond.Weighted>
0.0000

> <Gold.Chemscore.DEClash.Weighted>
0.1094

> <Gold.Chemscore.DEInternal.Weighted>
2.7290

> <Gold.Chemscore.Rot.Weighted>
5.8254

> <Gold.Chemscore.Internal.Correction.Weighted>
   9.000000E+99

> <Gold.Protein.RotatedTorsions>
[ 6907 6896 6895 6894 ] final  129.74 input  -60.11 | X-H torsion
[ 7974 7965 7964 7962 ] final  -51.60 input  175.53 | X-H torsion
[ 8008 7997 7996 7995 ] final -160.12 input   59.86 | X-H torsion
[ 10167 10162 10161 10158 ] final   57.51 input  -65.29 | X-H torsion
[ 10718 10713 10712 10709 ] final  101.05 input   66.30 | X-H torsion
[ 10763 10752 10751 10750 ] final -153.66 input  -60.55 | X-H torsion
[ 11005 11000 10999 10996 ] final  -17.53 input  -57.11 | X-H torsion

> <Gold.Protein.ActiveResidues>
 VAL166  LYS551  ARG553  GLY616  TRP617  ASP618  TYR619  PRO620  LYS621  CYS622 
 ASP623  PHE694  ASN695  SER759  ASP760  ASP761  ALA762  ILE779  LEU786  VAL792 
 PHE793  MET794  SER795  GLU796  ALA797  LYS798  CYS799  TRP800  GLU811  SER814 

> <Gold.Protein.RotatedAtoms>
  152.3594  133.6278  159.6003 H   0  0  0  0  0  0  0  0  0  0  0  0  # atno 6907 bound_to 6896
  150.7591  133.9448  159.3476 H   0  0  0  0  0  0  0  0  0  0  0  0  # atno 6908 bound_to 6896
  151.7288  135.0880  160.0347 H   0  0  0  0  0  0  0  0  0  0  0  0  # atno 6909 bound_to 6896
  145.9171  140.7865  142.9666 H   0  0  0  0  0  0  0  0  0  0  0  0  # atno 7974 bound_to 7965
  155.7727  140.0854  157.2100 H   0  0  0  0  0  0  0  0  0  0  0  0  # atno 8008 bound_to 7997
  154.3995  140.1522  156.3018 H   0  0  0  0  0  0  0  0  0  0  0  0  # atno 8009 bound_to 7997
  155.8731  140.3424  155.5838 H   0  0  0  0  0  0  0  0  0  0  0  0  # atno 8010 bound_to 7997
  140.1972  144.4025  150.6545 H   0  0  0  0  0  0  0  0  0  0  0  0  # atno 10167 bound_to 10162
  157.6839  131.0715  150.5194 H   0  0  0  0  0  0  0  0  0  0  0  0  # atno 10718 bound_to 10713
  154.7912  135.3208  154.7772 H   0  0  0  0  0  0  0  0  0  0  0  0  # atno 10763 bound_to 10752
  153.8460  135.6866  153.4802 H   0  0  0  0  0  0  0  0  0  0  0  0  # atno 10764 bound_to 10752
  153.1584  135.4671  154.9677 H   0  0  0  0  0  0  0  0  0  0  0  0  # atno 10765 bound_to 10752
  140.8178  133.8091  155.9628 H   0  0  0  0  0  0  0  0  0  0  0  0  # atno 11005 bound_to 11000
  144.6749  140.1918  143.7396 LP  0  0  0  0  0  0  0  0  0  0  0  0  # atno 17320 bound_to 7965
  145.8597  139.2216  143.1724 LP  0  0  0  0  0  0  0  0  0  0  0  0  # atno 17321 bound_to 7965
  140.6415  143.2204  151.6279 LP  0  0  0  0  0  0  0  0  0  0  0  0  # atno 17342 bound_to 10162
  139.5232  144.3141  152.0967 LP  0  0  0  0  0  0  0  0  0  0  0  0  # atno 17343 bound_to 10162
  156.5508  130.4231  149.6109 LP  0  0  0  0  0  0  0  0  0  0  0  0  # atno 17370 bound_to 10713
  156.2904  130.7121  151.1968 LP  0  0  0  0  0  0  0  0  0  0  0  0  # atno 17371 bound_to 10713
  140.9131  134.2236  157.4973 LP  0  0  0  0  0  0  0  0  0  0  0  0  # atno 17394 bound_to 11000
  139.8710  134.9759  156.4900 LP  0  0  0  0  0  0  0  0  0  0  0  0  # atno 17395 bound_to 11000

$$$$
