AV-unprocessed.smi:3105|AV-procd|sdf|11820|dock3
  -GOLD-   2272017193D 1   1.00000     0.00000
 Structure written by MMmdl.
 34 34  0  0  0  0  0  0  0  0  2 V2000
  149.0513  142.0043  158.2542 C   0  0  0  0  0  0  0  0  0  0  0  0
  149.9624  141.4435  157.1413 C   0  0  1  0  0  0  0  0  0  0  0  0
  149.6690  142.1133  155.8526 N   0  3  0  0  0  0  0  0  0  0  0  0
  148.4376  141.6647  155.1690 C   0  0  0  0  0  0  0  0  0  0  0  0
  148.7755  140.7652  153.9669 C   0  0  0  0  0  0  0  0  0  0  0  0
  149.5211  139.4847  154.3576 C   0  0  0  0  0  0  0  0  0  0  0  0
  149.8994  138.6832  153.3592 N   0  0  0  0  0  0  0  0  0  0  0  0
  149.7575  139.2177  155.5342 O   0  0  0  0  0  0  0  0  0  0  0  0
  151.4730  141.5849  157.4718 C   0  0  2  0  0  0  0  0  0  0  0  0
  152.0083  140.4059  158.3077 C   0  0  0  0  0  0  0  0  0  0  0  0
  151.7788  142.8448  158.1384 N   0  0  0  0  0  0  0  0  0  0  0  0
  151.5911  144.1284  157.6675 C   0  0  0  0  0  0  0  0  0  0  0  0
  152.0279  144.9866  158.6354 C   0  0  0  0  0  0  0  0  0  0  0  0
  152.4760  144.1250  159.6748 C   0  0  0  0  0  0  0  0  0  0  0  0
  152.3274  142.8450  159.3746 N   0  0  0  0  0  0  0  0  0  0  0  0
  149.2014  141.4854  159.2008 H   0  0  0  0  0  0  0  0  0  0  0  0
  147.9955  141.8943  158.0084 H   0  0  0  0  0  0  0  0  0  0  0  0
  149.2434  143.0640  158.4241 H   0  0  0  0  0  0  0  0  0  0  0  0
  149.7444  140.3802  157.0272 H   0  0  0  0  0  0  0  0  0  0  0  0
  149.6264  143.1109  156.0034 H   0  0  0  0  0  0  0  0  0  0  0  0
  147.8163  141.1198  155.8816 H   0  0  0  0  0  0  0  0  0  0  0  0
  147.8652  142.5302  154.8346 H   0  0  0  0  0  0  0  0  0  0  0  0
  147.8565  140.4891  153.4474 H   0  0  0  0  0  0  0  0  0  0  0  0
  149.3889  141.3148  153.2516 H   0  0  0  0  0  0  0  0  0  0  0  0
  150.3926  137.8240  153.5549 H   0  0  0  0  0  0  0  0  0  0  0  0
  149.6880  138.9393  152.4052 H   0  0  0  0  0  0  0  0  0  0  0  0
  152.0217  141.5935  156.5284 H   0  0  0  0  0  0  0  0  0  0  0  0
  151.9125  139.4592  157.7765 H   0  0  0  0  0  0  0  0  0  0  0  0
  151.4738  140.3098  159.2535 H   0  0  0  0  0  0  0  0  0  0  0  0
  153.0658  140.5399  158.5381 H   0  0  0  0  0  0  0  0  0  0  0  0
  151.1661  144.3238  156.6939 H   0  0  0  0  0  0  0  0  0  0  0  0
  152.0291  146.0662  158.6048 H   0  0  0  0  0  0  0  0  0  0  0  0
  152.9024  144.3897  160.6313 H   0  0  0  0  0  0  0  0  0  0  0  0
  150.4395  141.9167  155.2299 H   0  0  0  0  0  0  0  0  0  0  0  0
  1  2  1  0  0  0  0
  1 16  1  0  0  0  0
  1 17  1  0  0  0  0
  1 18  1  0  0  0  0
  2  3  1  0  0  0  0
  2  9  1  0  0  0  0
  2 19  1  0  0  0  0
  3  4  1  0  0  0  0
  3 20  1  0  0  0  0
  3 34  1  0  0  0  0
  4  5  1  0  0  0  0
  4 21  1  0  0  0  0
  4 22  1  0  0  0  0
  5  6  1  0  0  0  0
  5 23  1  0  0  0  0
  5 24  1  0  0  0  0
  6  7  1  0  0  0  0
  6  8  2  0  0  0  0
  7 25  1  0  0  0  0
  7 26  1  0  0  0  0
  9 10  1  0  0  0  0
  9 11  1  0  0  0  0
  9 27  1  0  0  0  0
 10 28  1  0  0  0  0
 10 29  1  0  0  0  0
 10 30  1  0  0  0  0
 11 15  1  0  0  0  0
 11 12  1  0  0  0  0
 12 13  2  0  0  0  0
 12 31  1  0  0  0  0
 13 14  1  0  0  0  0
 13 32  1  0  0  0  0
 14 15  2  0  0  0  0
 14 33  1  0  0  0  0
M  CHG  1   3   1
M  END
> <s_m_source_file>
AV-unprocessed.smi

> <i_m_source_file_index>
3105

> <i_lp_mmshare_version>
43012

> <i_f3d_flags>
0

> <s_epik_input>
W05IMl1DKD1PKVtDSDJdW0NIMl1bTkhdW0NAQEhdKFtDSDNdKVtDQEhdKFtDSDNdKW4xW2NIXVtjSF1bY0hdbjE=

> <s_epik_cmdline>
J2VwaWtfcHl0aG9uJywgJy1waCcsICc3LjAnLCAnLXRuJywgJzgnLCAnLW1hJywgJzIwMCcsICctbWV0YWxfYmluZGluZycsICctaW1hZScsICc8aW5maWxlLm1hZT4nLCAnLW9tYWUnLCAnPG91dGZpbGUubWFlPic=

> <r_lp_tautomer_probability>
1

> <r_epik_Ionization_Penalty>
0.00475669

> <r_epik_Ionization_Penalty_Charging>
0.00474654

> <r_epik_Ionization_Penalty_Neutral>
1.01546e-05

> <r_epik_State_Penalty>
-0

> <r_epik_Charging_Adjusted_Penalty>
0.00474654

> <i_epik_Tot_Q>
1

> <i_epik_Tot_abs_Q>
1

> <r_epik_Metal_State_Penalty>
-0

> <b_epik_Metal_Only>
0

> <s_lp_Force_Field>
OPLS_2005

> <r_lp_Energy>
9.05092

> <b_lp_Chiralities_Consistent>
1

> <s_lp_Variant>
AV-unprocessed.smi:3105-2

> <Gold.Version>
5.8.1

> <Gold.Id.Protein>
6NUR|6NUR_protein|mol2

> <Gold.PLP.Fitness>
43.1962

> <Gold.PLP.PLP>
-33.2369

> <Gold.PLP.part.hbond>
-3.0000

> <Gold.PLP.part.metal>
0.0000

> <Gold.PLP.part.buried>
-3.3689

> <Gold.PLP.part.nonpolar>
-27.3144

> <Gold.PLP.part.repulsive>
0.2544

> <Gold.PLP.ligand.clash>
0.0000

> <Gold.PLP.ligand.torsion>
1.1181

> <Gold.PLP.Chemscore.Hbond>
3.0000

> <Gold.PLP.Chemscore.CHOScore>
1.0000

> <Gold.PLP.Chemscore.Metal>
0.0000

> <Gold.Chemscore.Hbonds>
donor molecule, donor type, donor heavy atom, donor atom, acceptor molecule, acceptor atom, score
      L1  H     3    20       P1  8028  2.00
      L1  H     7    26       P1  7957  1.00
      L1  C    12    31       P1  8028  1.00

> <Gold.PLP.Chemscore.Internal.Correction>
0.1955

> <Gold.Rescore>
     Score         DG    S(hbond)    S(metal)    S(lipo)     H(rot)  DE(clash)    DE(int)     intcor
     14.23     -15.36       2.55        0.00      73.89       2.85       0.03       1.10       ----

> <Gold.Chemscore.Fitness>
14.2252

> <Gold.Chemscore.DG>
-15.3561

> <Gold.Chemscore.ZeroCoef>
-5.4800

> <Gold.Chemscore.Hbond>
2.5508

> <Gold.Chemscore.Metal>
0.0000

> <Gold.Chemscore.Lipo>
73.8947

> <Gold.Chemscore.Internal_Hbond>
0.0000

> <Gold.Chemscore.DEClash>
0.0310

> <Gold.Chemscore.DEInternal>
1.0999

> <Gold.Chemscore.Rot>
2.8473

> <Gold.Chemscore.Internal.Correction>
   9.000000E+99

> <Gold.Chemscore.Hbonds>
donor molecule, donor type, donor heavy atom, donor atom, acceptor molecule, acceptor atom, score
      L1  H     3    20       P1  8028  0.95
      L1  H     7    26       P1  7957  0.68

> <Gold.Chemscore.Hbond.Weighted>
-8.5196

> <Gold.Chemscore.Metal.Weighted>
-0.0000

> <Gold.Chemscore.Lipo.Weighted>
-8.6457

> <Gold.Chemscore.Internal_Hbond.Weighted>
0.0000

> <Gold.Chemscore.DEClash.Weighted>
0.0310

> <Gold.Chemscore.DEInternal.Weighted>
1.0999

> <Gold.Chemscore.Rot.Weighted>
7.2892

> <Gold.Chemscore.Internal.Correction.Weighted>
   9.000000E+99

> <Gold.Protein.RotatedTorsions>
[ 6907 6896 6895 6894 ] final -112.61 input  -60.11 | X-H torsion
[ 7974 7965 7964 7962 ] final -106.87 input  175.53 | X-H torsion
[ 8008 7997 7996 7995 ] final   65.10 input   59.86 | X-H torsion
[ 10167 10162 10161 10158 ] final  178.84 input  -65.29 | X-H torsion
[ 10718 10713 10712 10709 ] final -104.50 input   66.30 | X-H torsion
[ 10763 10752 10751 10750 ] final  -14.66 input  -60.55 | X-H torsion
[ 11005 11000 10999 10996 ] final -179.64 input  -57.11 | X-H torsion

> <Gold.Protein.ActiveResidues>
 VAL166  LYS551  ARG553  GLY616  TRP617  ASP618  TYR619  PRO620  LYS621  CYS622 
 ASP623  PHE694  ASN695  SER759  ASP760  ASP761  ALA762  ILE779  LEU786  VAL792 
 PHE793  MET794  SER795  GLU796  ALA797  LYS798  CYS799  TRP800  GLU811  SER814 

> <Gold.Protein.RotatedAtoms>
  150.7770  133.9064  159.3356 H   0  0  0  0  0  0  0  0  0  0  0  0  # atno 6907 bound_to 6896
  151.6937  135.0940  160.0247 H   0  0  0  0  0  0  0  0  0  0  0  0  # atno 6908 bound_to 6896
  152.3810  133.6507  159.6196 H   0  0  0  0  0  0  0  0  0  0  0  0  # atno 6909 bound_to 6896
  145.2124  140.9102  143.3306 H   0  0  0  0  0  0  0  0  0  0  0  0  # atno 7974 bound_to 7965
  155.6564  140.3497  155.4767 H   0  0  0  0  0  0  0  0  0  0  0  0  # atno 8008 bound_to 7997
  155.9805  140.1173  157.0754 H   0  0  0  0  0  0  0  0  0  0  0  0  # atno 8009 bound_to 7997
  154.4190  140.1139  156.5414 H   0  0  0  0  0  0  0  0  0  0  0  0  # atno 8010 bound_to 7997
  139.5311  144.2632  152.0690 H   0  0  0  0  0  0  0  0  0  0  0  0  # atno 10167 bound_to 10162
  156.0307  130.5518  150.7406 H   0  0  0  0  0  0  0  0  0  0  0  0  # atno 10718 bound_to 10713
  153.5316  135.7014  153.5680 H   0  0  0  0  0  0  0  0  0  0  0  0  # atno 10763 bound_to 10752
  153.3685  135.3951  155.1771 H   0  0  0  0  0  0  0  0  0  0  0  0  # atno 10764 bound_to 10752
  154.8684  135.3806  154.4813 H   0  0  0  0  0  0  0  0  0  0  0  0  # atno 10765 bound_to 10752
  140.4164  134.6645  157.4641 H   0  0  0  0  0  0  0  0  0  0  0  0  # atno 11005 bound_to 11000
  144.9843  139.3752  143.6246 LP  0  0  0  0  0  0  0  0  0  0  0  0  # atno 17320 bound_to 7965
  146.3394  139.8997  142.8796 LP  0  0  0  0  0  0  0  0  0  0  0  0  # atno 17321 bound_to 7965
  140.2095  144.4576  150.6392 LP  0  0  0  0  0  0  0  0  0  0  0  0  # atno 17342 bound_to 10162
  140.6489  143.2220  151.6122 LP  0  0  0  0  0  0  0  0  0  0  0  0  # atno 17343 bound_to 10162
  157.4975  131.0916  151.0354 LP  0  0  0  0  0  0  0  0  0  0  0  0  # atno 17370 bound_to 10713
  157.0743  130.5877  149.5408 LP  0  0  0  0  0  0  0  0  0  0  0  0  # atno 17371 bound_to 10713
  140.0231  134.6518  155.9211 LP  0  0  0  0  0  0  0  0  0  0  0  0  # atno 17394 bound_to 11000
  141.1801  133.6545  156.4985 LP  0  0  0  0  0  0  0  0  0  0  0  0  # atno 17395 bound_to 11000

$$$$
