AV-unprocessed.smi:1436|AV-procd|sdf|5861|dock6
  -GOLD-   22720 5533D 1   1.00000     0.00000
 Structure written by MMmdl.
 44 45  0  0  0  0  0  0  0  0  2 V2000
  150.2483  130.4344  154.3857 C   0  0  0  0  0  0  0  0  0  0  0  0
  150.2456  131.6046  155.3268 C   0  0  0  0  0  0  0  0  0  0  0  0
  150.5080  131.4084  156.6072 N   0  0  0  0  0  0  0  0  0  0  0  0
  150.4486  132.6692  157.2082 O   0  0  0  0  0  0  0  0  0  0  0  0
  150.1566  133.5878  156.2533 C   0  0  0  0  0  0  0  0  0  0  0  0
  150.0720  135.0075  156.7021 C   0  0  0  0  0  0  0  0  0  0  0  0
  150.0141  132.9804  155.0354 C   0  0  0  0  0  0  0  0  0  0  0  0
  149.7122  133.6101  153.6986 C   0  0  0  0  0  0  0  0  0  0  0  0
  148.2953  133.2168  153.2909 C   0  0  0  0  0  0  0  0  0  0  0  0
  147.8199  132.1475  153.6704 O   0  0  0  0  0  0  0  0  0  0  0  0
  147.6124  134.1254  152.5761 N   0  0  0  0  0  0  0  0  0  0  0  0
  146.1863  134.0714  152.2588 C   0  0  2  0  0  0  0  0  0  0  0  0
  145.8915  132.7976  151.4557 C   0  0  0  0  0  0  0  0  0  0  0  0
  145.7570  135.3419  151.4885 C   0  0  0  0  0  0  0  0  0  0  0  0
  146.2776  136.5932  152.0981 N   0  3  0  0  0  0  0  0  0  0  0  0
  145.8753  137.8140  151.3619 C   0  0  0  0  0  0  0  0  0  0  0  0
  146.5117  139.0587  152.0050 C   0  0  0  0  0  0  0  0  0  0  0  0
  146.1515  139.1293  153.3792 O   0  0  0  0  0  0  0  0  0  0  0  0
  146.6094  137.9976  154.1087 C   0  0  0  0  0  0  0  0  0  0  0  0
  145.9595  136.7260  153.5400 C   0  0  0  0  0  0  0  0  0  0  0  0
  151.2077  130.3496  153.8748 H   0  0  0  0  0  0  0  0  0  0  0  0
  149.4745  130.5389  153.6252 H   0  0  0  0  0  0  0  0  0  0  0  0
  150.0670  129.4958  154.9107 H   0  0  0  0  0  0  0  0  0  0  0  0
  151.0617  135.3929  156.9471 H   0  0  0  0  0  0  0  0  0  0  0  0
  149.4438  135.0968  157.5886 H   0  0  0  0  0  0  0  0  0  0  0  0
  149.6474  135.6416  155.9241 H   0  0  0  0  0  0  0  0  0  0  0  0
  149.7954  134.6969  153.7352 H   0  0  0  0  0  0  0  0  0  0  0  0
  150.4113  133.2786  152.9300 H   0  0  0  0  0  0  0  0  0  0  0  0
  148.1029  134.9639  152.2997 H   0  0  0  0  0  0  0  0  0  0  0  0
  145.6084  134.0049  153.1818 H   0  0  0  0  0  0  0  0  0  0  0  0
  144.8291  132.7190  151.2225 H   0  0  0  0  0  0  0  0  0  0  0  0
  146.1707  131.9055  152.0173 H   0  0  0  0  0  0  0  0  0  0  0  0
  146.4406  132.7834  150.5133 H   0  0  0  0  0  0  0  0  0  0  0  0
  146.1415  135.2636  150.4702 H   0  0  0  0  0  0  0  0  0  0  0  0
  144.6710  135.3947  151.3990 H   0  0  0  0  0  0  0  0  0  0  0  0
  146.1917  137.7408  150.3206 H   0  0  0  0  0  0  0  0  0  0  0  0
  144.7878  137.9027  151.3649 H   0  0  0  0  0  0  0  0  0  0  0  0
  147.5972  139.0364  151.9075 H   0  0  0  0  0  0  0  0  0  0  0  0
  146.1665  139.9614  151.5008 H   0  0  0  0  0  0  0  0  0  0  0  0
  147.6981  137.9326  154.0625 H   0  0  0  0  0  0  0  0  0  0  0  0
  146.3412  138.1203  155.1582 H   0  0  0  0  0  0  0  0  0  0  0  0
  144.8778  136.7656  153.6767 H   0  0  0  0  0  0  0  0  0  0  0  0
  146.3188  135.8574  154.0908 H   0  0  0  0  0  0  0  0  0  0  0  0
  147.2841  136.5439  152.0254 H   0  0  0  0  0  0  0  0  0  0  0  0
  1  2  1  0  0  0  0
  1 21  1  0  0  0  0
  1 22  1  0  0  0  0
  1 23  1  0  0  0  0
  2  7  1  0  0  0  0
  2  3  2  0  0  0  0
  3  4  1  0  0  0  0
  4  5  1  0  0  0  0
  5  6  1  0  0  0  0
  5  7  2  0  0  0  0
  6 24  1  0  0  0  0
  6 25  1  0  0  0  0
  6 26  1  0  0  0  0
  7  8  1  0  0  0  0
  8  9  1  0  0  0  0
  8 27  1  0  0  0  0
  8 28  1  0  0  0  0
  9 10  2  0  0  0  0
  9 11  1  0  0  0  0
 11 12  1  0  0  0  0
 11 29  1  0  0  0  0
 12 13  1  0  0  0  0
 12 14  1  0  0  0  0
 12 30  1  0  0  0  0
 13 31  1  0  0  0  0
 13 32  1  0  0  0  0
 13 33  1  0  0  0  0
 14 15  1  0  0  0  0
 14 34  1  0  0  0  0
 14 35  1  0  0  0  0
 15 20  1  0  0  0  0
 15 16  1  0  0  0  0
 15 44  1  0  0  0  0
 16 17  1  0  0  0  0
 16 36  1  0  0  0  0
 16 37  1  0  0  0  0
 17 18  1  0  0  0  0
 17 38  1  0  0  0  0
 17 39  1  0  0  0  0
 18 19  1  0  0  0  0
 19 20  1  0  0  0  0
 19 40  1  0  0  0  0
 19 41  1  0  0  0  0
 20 42  1  0  0  0  0
 20 43  1  0  0  0  0
M  CHG  1  15   1
M  END
> <s_m_source_file>
AV-unprocessed.smi

> <i_m_source_file_index>
1436

> <i_lp_mmshare_version>
43012

> <i_f3d_flags>
0

> <s_epik_input>
W0NIM11jMW5vYyhbQ0gzXSljMVtDSDJdQyg9TylbTkhdW0NASF0oW0NIM10pW0NIMl1OMltDSDJdW0NIMl1PW0NIMl1bQ0gyXTI=

> <s_epik_cmdline>
J2VwaWtfcHl0aG9uJywgJy1waCcsICc3LjAnLCAnLXRuJywgJzgnLCAnLW1hJywgJzIwMCcsICctbWV0YWxfYmluZGluZycsICctaW1hZScsICc8aW5maWxlLm1hZT4nLCAnLW9tYWUnLCAnPG91dGZpbGUubWFlPic=

> <r_epik_Ionization_Penalty>
0.663207

> <r_epik_Ionization_Penalty_Charging>
0.663207

> <r_epik_Ionization_Penalty_Neutral>
1.07515e-07

> <r_epik_State_Penalty>
0.682743

> <r_epik_Charging_Adjusted_Penalty>
1.34595

> <i_epik_Tot_Q>
1

> <i_epik_Tot_abs_Q>
1

> <r_epik_Metal_State_Penalty>
0.682743

> <b_epik_Metal_Only>
0

> <s_lp_Force_Field>
OPLS_2005

> <r_lp_Energy>
13.3689

> <b_lp_Chiralities_Consistent>
1

> <s_lp_Variant>
AV-unprocessed.smi:1436-3

> <Gold.Version>
5.8.1

> <Gold.Id.Protein>
6NUR|6NUR_protein|mol2

> <Gold.PLP.Fitness>
40.1259

> <Gold.PLP.PLP>
-29.2203

> <Gold.PLP.part.hbond>
-3.0000

> <Gold.PLP.part.metal>
0.0000

> <Gold.PLP.part.buried>
0.1514

> <Gold.PLP.part.nonpolar>
-26.9057

> <Gold.PLP.part.repulsive>
0.3623

> <Gold.PLP.ligand.clash>
0.0000

> <Gold.PLP.ligand.torsion>
0.5795

> <Gold.PLP.Chemscore.Hbond>
4.0000

> <Gold.PLP.Chemscore.CHOScore>
0.0000

> <Gold.PLP.Chemscore.Metal>
0.0000

> <Gold.Chemscore.Hbonds>
donor molecule, donor type, donor heavy atom, donor atom, acceptor molecule, acceptor atom, score
      L1  H    11    29       P1  7948  1.00
      L1  H    15    44       P1  7948  2.00
      P1  H  6896  6909       L1     4  0.46

> <Gold.PLP.Chemscore.Internal.Correction>
0.0645

> <Gold.Rescore>
     Score         DG    S(hbond)    S(metal)    S(lipo)     H(rot)  DE(clash)    DE(int)     intcor
     15.43     -17.88       2.95        0.00      60.94       1.79       0.42       2.03       ----

> <Gold.Chemscore.Fitness>
15.4275

> <Gold.Chemscore.DG>
-17.8781

> <Gold.Chemscore.ZeroCoef>
-5.4800

> <Gold.Chemscore.Hbond>
2.9521

> <Gold.Chemscore.Metal>
0.0000

> <Gold.Chemscore.Lipo>
60.9373

> <Gold.Chemscore.Internal_Hbond>
0.0000

> <Gold.Chemscore.DEClash>
0.4235

> <Gold.Chemscore.DEInternal>
2.0271

> <Gold.Chemscore.Rot>
1.7936

> <Gold.Chemscore.Internal.Correction>
   9.000000E+99

> <Gold.Chemscore.Hbonds>
donor molecule, donor type, donor heavy atom, donor atom, acceptor molecule, acceptor atom, score
      L1  H    11    29       P1  7948  0.62
      L1  H    15    44       P1  7948  1.00
      P1  H  6896  6909       L1     4  0.42

> <Gold.Chemscore.Hbond.Weighted>
-9.8600

> <Gold.Chemscore.Metal.Weighted>
-0.0000

> <Gold.Chemscore.Lipo.Weighted>
-7.1297

> <Gold.Chemscore.Internal_Hbond.Weighted>
0.0000

> <Gold.Chemscore.DEClash.Weighted>
0.4235

> <Gold.Chemscore.DEInternal.Weighted>
2.0271

> <Gold.Chemscore.Rot.Weighted>
4.5916

> <Gold.Chemscore.Internal.Correction.Weighted>
   9.000000E+99

> <Gold.Protein.RotatedTorsions>
[ 6907 6896 6895 6894 ] final  -26.07 input  -60.11 | X-H torsion
[ 7974 7965 7964 7962 ] final  -37.87 input  175.53 | X-H torsion
[ 8008 7997 7996 7995 ] final -175.01 input   59.86 | X-H torsion
[ 10167 10162 10161 10158 ] final  147.69 input  -65.29 | X-H torsion
[ 10718 10713 10712 10709 ] final   77.81 input   66.30 | X-H torsion
[ 10763 10752 10751 10750 ] final -171.30 input  -60.55 | X-H torsion
[ 11005 11000 10999 10996 ] final -153.66 input  -57.11 | X-H torsion

> <Gold.Protein.ActiveResidues>
 VAL166  LYS551  ARG553  GLY616  TRP617  ASP618  TYR619  PRO620  LYS621  CYS622 
 ASP623  PHE694  ASN695  SER759  ASP760  ASP761  ALA762  ILE779  LEU786  VAL792 
 PHE793  MET794  SER795  GLU796  ALA797  LYS798  CYS799  TRP800  GLU811  SER814 

> <Gold.Protein.RotatedAtoms>
  151.1661  135.0296  159.8731 H   0  0  0  0  0  0  0  0  0  0  0  0  # atno 6907 bound_to 6896
  152.5450  134.1223  159.8414 H   0  0  0  0  0  0  0  0  0  0  0  0  # atno 6908 bound_to 6896
  151.1324  133.4981  159.2631 H   0  0  0  0  0  0  0  0  0  0  0  0  # atno 6909 bound_to 6896
  146.0536  140.6447  142.9030 H   0  0  0  0  0  0  0  0  0  0  0  0  # atno 7974 bound_to 7965
  155.9772  140.1174  157.0759 H   0  0  0  0  0  0  0  0  0  0  0  0  # atno 8008 bound_to 7997
  154.4172  140.1151  156.5454 H   0  0  0  0  0  0  0  0  0  0  0  0  # atno 8009 bound_to 7997
  155.6519  140.3473  155.4753 H   0  0  0  0  0  0  0  0  0  0  0  0  # atno 8010 bound_to 7997
  139.4886  144.5736  151.7008 H   0  0  0  0  0  0  0  0  0  0  0  0  # atno 10167 bound_to 10162
  157.6723  130.9839  150.1695 H   0  0  0  0  0  0  0  0  0  0  0  0  # atno 10718 bound_to 10713
  154.6320  135.2888  155.0205 H   0  0  0  0  0  0  0  0  0  0  0  0  # atno 10763 bound_to 10752
  154.1363  135.6525  153.4936 H   0  0  0  0  0  0  0  0  0  0  0  0  # atno 10764 bound_to 10752
  153.0284  135.5322  154.7151 H   0  0  0  0  0  0  0  0  0  0  0  0  # atno 10765 bound_to 10752
  140.7057  134.3888  157.5204 H   0  0  0  0  0  0  0  0  0  0  0  0  # atno 11005 bound_to 11000
  144.7136  140.4129  143.7061 LP  0  0  0  0  0  0  0  0  0  0  0  0  # atno 17320 bound_to 7965
  145.6682  139.1594  143.2770 LP  0  0  0  0  0  0  0  0  0  0  0  0  # atno 17321 bound_to 7965
  140.5328  144.0704  150.6059 LP  0  0  0  0  0  0  0  0  0  0  0  0  # atno 17342 bound_to 10162
  140.3699  143.2860  152.0289 LP  0  0  0  0  0  0  0  0  0  0  0  0  # atno 17343 bound_to 10162
  156.2452  130.3695  149.8292 LP  0  0  0  0  0  0  0  0  0  0  0  0  # atno 17370 bound_to 10713
  156.6081  130.8575  151.3448 LP  0  0  0  0  0  0  0  0  0  0  0  0  # atno 17371 bound_to 10713
  139.8885  134.8855  156.2472 LP  0  0  0  0  0  0  0  0  0  0  0  0  # atno 17394 bound_to 11000
  141.0126  133.7087  156.1137 LP  0  0  0  0  0  0  0  0  0  0  0  0  # atno 17395 bound_to 11000

$$$$
