AV-unprocessed.smi:2416|AV-procd|sdf|9547|dock1
  -GOLD-   2272013183D 1   1.00000     0.00000
 Structure written by MMmdl.
 40 41  0  0  0  0  0  0  0  0  1 V2000
  147.2383  139.0091  153.3194 C   0  0  0  0  0  0  0  0  0  0  0  0
  147.4932  139.4872  154.6339 O   0  0  0  0  0  0  0  0  0  0  0  0
  148.1250  140.7648  154.7309 C   0  0  2  0  0  0  0  0  0  0  0  0
  147.4466  141.7602  153.7766 C   0  0  0  0  0  0  0  0  0  0  0  0
  149.6601  140.6557  154.6881 C   0  0  0  0  0  0  0  0  0  0  0  0
  149.6769  141.6655  155.8336 C   0  0  2  0  0  0  0  0  0  0  0  0
  150.7365  141.3994  156.8006 N   0  0  0  0  0  0  0  0  0  0  0  0
  150.8462  142.0080  157.9894 C   0  0  0  0  0  0  0  0  0  0  0  0
  150.0564  142.8651  158.3868 O   0  0  0  0  0  0  0  0  0  0  0  0
  151.9152  141.5581  158.6701 N   0  0  0  0  0  0  0  0  0  0  0  0
  152.3550  141.9379  159.9664 C   0  0  0  0  0  0  0  0  0  0  0  0
  153.3692  141.1217  160.5168 C   0  0  0  0  0  0  0  0  0  0  0  0
  153.8725  141.4115  161.8003 C   0  0  0  0  0  0  0  0  0  0  0  0
  153.3457  142.5115  162.4998 C   0  0  0  0  0  0  0  0  0  0  0  0
  153.7965  142.8281  163.7369 F   0  0  0  0  0  0  0  0  0  0  0  0
  152.3383  143.2745  161.8811 C   0  0  0  0  0  0  0  0  0  0  0  0
  151.8555  142.9978  160.6509 N   0  0  0  0  0  0  0  0  0  0  0  0
  148.2739  141.1457  156.2403 C   0  0  0  0  0  0  0  0  0  0  0  0
  147.3042  142.1997  156.7846 C   0  0  0  0  0  0  0  0  0  0  0  0
  148.2300  139.9753  157.2436 C   0  0  0  0  0  0  0  0  0  0  0  0
  146.8629  137.9877  153.3789 H   0  0  0  0  0  0  0  0  0  0  0  0
  148.1402  138.9932  152.7071 H   0  0  0  0  0  0  0  0  0  0  0  0
  146.4795  139.6035  152.8113 H   0  0  0  0  0  0  0  0  0  0  0  0
  147.8091  142.7770  153.9253 H   0  0  0  0  0  0  0  0  0  0  0  0
  146.3663  141.7741  153.9219 H   0  0  0  0  0  0  0  0  0  0  0  0
  147.6380  141.5172  152.7319 H   0  0  0  0  0  0  0  0  0  0  0  0
  150.0374  139.6697  154.9664 H   0  0  0  0  0  0  0  0  0  0  0  0
  150.1182  141.0117  153.7650 H   0  0  0  0  0  0  0  0  0  0  0  0
  149.6623  142.6942  155.4660 H   0  0  0  0  0  0  0  0  0  0  0  0
  151.4245  140.7054  156.5475 H   0  0  0  0  0  0  0  0  0  0  0  0
  152.4762  140.8568  158.2095 H   0  0  0  0  0  0  0  0  0  0  0  0
  153.7611  140.2800  159.9644 H   0  0  0  0  0  0  0  0  0  0  0  0
  154.6474  140.8002  162.2387 H   0  0  0  0  0  0  0  0  0  0  0  0
  151.9082  144.1274  162.3850 H   0  0  0  0  0  0  0  0  0  0  0  0
  147.5268  142.4529  157.8215 H   0  0  0  0  0  0  0  0  0  0  0  0
  146.2723  141.8493  156.7451 H   0  0  0  0  0  0  0  0  0  0  0  0
  147.3531  143.1310  156.2206 H   0  0  0  0  0  0  0  0  0  0  0  0
  148.5276  140.2905  158.2443 H   0  0  0  0  0  0  0  0  0  0  0  0
  148.8924  139.1585  156.9568 H   0  0  0  0  0  0  0  0  0  0  0  0
  147.2259  139.5576  157.3239 H   0  0  0  0  0  0  0  0  0  0  0  0
  1  2  1  0  0  0  0
  1 21  1  0  0  0  0
  1 22  1  0  0  0  0
  1 23  1  0  0  0  0
  2  3  1  0  0  0  0
  3 18  1  0  0  0  0
  3  4  1  0  0  0  0
  3  5  1  0  0  0  0
  4 24  1  0  0  0  0
  4 25  1  0  0  0  0
  4 26  1  0  0  0  0
  5  6  1  0  0  0  0
  5 27  1  0  0  0  0
  5 28  1  0  0  0  0
  6  7  1  0  0  0  0
  6 18  1  0  0  0  0
  6 29  1  0  0  0  0
  7  8  1  0  0  0  0
  7 30  1  0  0  0  0
  8  9  2  0  0  0  0
  8 10  1  0  0  0  0
 10 11  1  0  0  0  0
 10 31  1  0  0  0  0
 11 17  1  0  0  0  0
 11 12  2  0  0  0  0
 12 13  1  0  0  0  0
 12 32  1  0  0  0  0
 13 14  2  0  0  0  0
 13 33  1  0  0  0  0
 14 15  1  0  0  0  0
 14 16  1  0  0  0  0
 16 17  2  0  0  0  0
 16 34  1  0  0  0  0
 18 19  1  0  0  0  0
 18 20  1  0  0  0  0
 19 35  1  0  0  0  0
 19 36  1  0  0  0  0
 19 37  1  0  0  0  0
 20 38  1  0  0  0  0
 20 39  1  0  0  0  0
 20 40  1  0  0  0  0
M  END
> <s_m_source_file>
AV-unprocessed.smi

> <i_m_source_file_index>
2416

> <i_lp_mmshare_version>
43012

> <i_f3d_flags>
0

> <s_epik_input>
W0NIM11PW0NAQF0xKFtDSDNdKVtDSDJdW0NASF0oQzEoW0NIM10pW0NIM10pW05IXUMoPU8pW05IXWMyW2NIXVtjSF1jKEYpW2NIXW4y

> <s_epik_cmdline>
J2VwaWtfcHl0aG9uJywgJy1waCcsICc3LjAnLCAnLXRuJywgJzgnLCAnLW1hJywgJzIwMCcsICctbWV0YWxfYmluZGluZycsICctaW1hZScsICc8aW5maWxlLm1hZT4nLCAnLW9tYWUnLCAnPG91dGZpbGUubWFlPic=

> <r_lp_tautomer_probability>
1

> <r_epik_Ionization_Penalty>
3.67756e-05

> <r_epik_Ionization_Penalty_Charging>
0

> <r_epik_Ionization_Penalty_Neutral>
3.67756e-05

> <r_epik_State_Penalty>
-0

> <r_epik_Charging_Adjusted_Penalty>
0

> <i_epik_Tot_Q>
0

> <i_epik_Tot_abs_Q>
0

> <r_epik_Metal_State_Penalty>
-0

> <b_epik_Metal_Only>
0

> <s_lp_Force_Field>
OPLS_2005

> <r_lp_Energy>
27.0586

> <b_lp_Chiralities_Consistent>
1

> <s_lp_Variant>
AV-unprocessed.smi:2416-4

> <Gold.Version>
5.8.1

> <Gold.Id.Protein>
6NUR|6NUR_protein|mol2

> <Gold.PLP.Fitness>
39.7852

> <Gold.PLP.PLP>
-40.0974

> <Gold.PLP.part.hbond>
-0.1669

> <Gold.PLP.part.metal>
0.0000

> <Gold.PLP.part.buried>
-3.2284

> <Gold.PLP.part.nonpolar>
-34.9701

> <Gold.PLP.part.repulsive>
0.4576

> <Gold.PLP.ligand.clash>
0.0000

> <Gold.PLP.ligand.torsion>
0.3434

> <Gold.PLP.Chemscore.Hbond>
0.0000

> <Gold.PLP.Chemscore.CHOScore>
0.0000

> <Gold.PLP.Chemscore.Metal>
0.0000

> <Gold.PLP.Chemscore.Internal.Correction>
0.3745

> <Gold.Rescore>
     Score         DG    S(hbond)    S(metal)    S(lipo)     H(rot)  DE(clash)    DE(int)     intcor
     10.51     -12.28       0.00        0.00      85.82       1.27       0.08       1.69       ----

> <Gold.Chemscore.Fitness>
10.5075

> <Gold.Chemscore.DG>
-12.2821

> <Gold.Chemscore.ZeroCoef>
-5.4800

> <Gold.Chemscore.Hbond>
0.0000

> <Gold.Chemscore.Metal>
0.0000

> <Gold.Chemscore.Lipo>
85.8234

> <Gold.Chemscore.Internal_Hbond>
0.0000

> <Gold.Chemscore.DEClash>
0.0836

> <Gold.Chemscore.DEInternal>
1.6910

> <Gold.Chemscore.Rot>
1.2653

> <Gold.Chemscore.Internal.Correction>
   9.000000E+99

> <Gold.Chemscore.Hbond.Weighted>
-0.0000

> <Gold.Chemscore.Metal.Weighted>
-0.0000

> <Gold.Chemscore.Lipo.Weighted>
-10.0413

> <Gold.Chemscore.Internal_Hbond.Weighted>
0.0000

> <Gold.Chemscore.DEClash.Weighted>
0.0836

> <Gold.Chemscore.DEInternal.Weighted>
1.6910

> <Gold.Chemscore.Rot.Weighted>
3.2392

> <Gold.Chemscore.Internal.Correction.Weighted>
   9.000000E+99

> <Gold.Protein.RotatedTorsions>
[ 6907 6896 6895 6894 ] final  120.35 input  -60.11 | X-H torsion
[ 7974 7965 7964 7962 ] final  136.29 input  175.53 | X-H torsion
[ 8008 7997 7996 7995 ] final -112.85 input   59.86 | X-H torsion
[ 10167 10162 10161 10158 ] final -105.76 input  -65.29 | X-H torsion
[ 10718 10713 10712 10709 ] final   -1.00 input   66.30 | X-H torsion
[ 10763 10752 10751 10750 ] final   26.36 input  -60.55 | X-H torsion
[ 11005 11000 10999 10996 ] final   49.40 input  -57.11 | X-H torsion

> <Gold.Protein.ActiveResidues>
 VAL166  LYS551  ARG553  GLY616  TRP617  ASP618  TYR619  PRO620  LYS621  CYS622 
 ASP623  PHE694  ASN695  SER759  ASP760  ASP761  ALA762  ILE779  LEU786  VAL792 
 PHE793  MET794  SER795  GLU796  ALA797  LYS798  CYS799  TRP800  GLU811  SER814 

> <Gold.Protein.RotatedAtoms>
  152.4404  133.7438  159.6655 H   0  0  0  0  0  0  0  0  0  0  0  0  # atno 6907 bound_to 6896
  150.8294  133.8106  159.3111 H   0  0  0  0  0  0  0  0  0  0  0  0  # atno 6908 bound_to 6896
  151.5765  135.1063  160.0059 H   0  0  0  0  0  0  0  0  0  0  0  0  # atno 6909 bound_to 6896
  144.9580  139.4743  143.5493 H   0  0  0  0  0  0  0  0  0  0  0  0  # atno 7974 bound_to 7965
  155.0116  140.0393  157.2401 H   0  0  0  0  0  0  0  0  0  0  0  0  # atno 8008 bound_to 7997
  154.7456  140.2757  155.6313 H   0  0  0  0  0  0  0  0  0  0  0  0  # atno 8009 bound_to 7997
  156.2874  140.2657  156.2195 H   0  0  0  0  0  0  0  0  0  0  0  0  # atno 8010 bound_to 7997
  140.1951  143.3862  152.1175 H   0  0  0  0  0  0  0  0  0  0  0  0  # atno 10167 bound_to 10162
  156.8122  130.5428  149.5707 H   0  0  0  0  0  0  0  0  0  0  0  0  # atno 10718 bound_to 10713
  153.0628  135.6562  154.0424 H   0  0  0  0  0  0  0  0  0  0  0  0  # atno 10763 bound_to 10752
  154.0087  135.2930  155.3396 H   0  0  0  0  0  0  0  0  0  0  0  0  # atno 10764 bound_to 10752
  154.6973  135.5258  153.8545 H   0  0  0  0  0  0  0  0  0  0  0  0  # atno 10765 bound_to 10752
  140.1106  134.4959  155.8681 H   0  0  0  0  0  0  0  0  0  0  0  0  # atno 11005 bound_to 11000
  146.3343  139.8710  142.8840 LP  0  0  0  0  0  0  0  0  0  0  0  0  # atno 17320 bound_to 7965
  145.2743  141.0119  143.3754 LP  0  0  0  0  0  0  0  0  0  0  0  0  # atno 17321 bound_to 7965
  139.5240  144.7078  151.5300 LP  0  0  0  0  0  0  0  0  0  0  0  0  # atno 17342 bound_to 10162
  140.6429  143.8852  150.6709 LP  0  0  0  0  0  0  0  0  0  0  0  0  # atno 17343 bound_to 10162
  156.1038  130.5989  150.9937 LP  0  0  0  0  0  0  0  0  0  0  0  0  # atno 17370 bound_to 10713
  157.6500  131.0898  150.8071 LP  0  0  0  0  0  0  0  0  0  0  0  0  # atno 17371 bound_to 10713
  141.2129  133.6726  156.6698 LP  0  0  0  0  0  0  0  0  0  0  0  0  # atno 17394 bound_to 11000
  140.3096  134.8097  157.4165 LP  0  0  0  0  0  0  0  0  0  0  0  0  # atno 17395 bound_to 11000

$$$$
