AV-unprocessed.smi:1868|AV-procd|sdf|7587|dock5
  -GOLD-   22720 9293D 1   1.00000     0.00000
 Structure written by MMmdl.
 47 49  0  0  0  0  0  0  0  0  2 V2000
  154.5563  138.8803  159.2483 C   0  0  0  0  0  0  0  0  0  0  0  0
  153.9281  140.1265  159.7863 C   0  0  0  0  0  0  0  0  0  0  0  0
  153.2898  140.9956  159.0030 N   0  0  0  0  0  0  0  0  0  0  0  0
  152.8718  141.9610  159.8986 C   0  0  0  0  0  0  0  0  0  0  0  0
  152.1379  143.1507  159.6908 C   0  0  0  0  0  0  0  0  0  0  0  0
  151.8249  143.9948  160.7763 C   0  0  0  0  0  0  0  0  0  0  0  0
  152.2407  143.6627  162.0819 C   0  0  0  0  0  0  0  0  0  0  0  0
  152.9724  142.4818  162.3113 C   0  0  0  0  0  0  0  0  0  0  0  0
  153.2818  141.6421  161.2245 C   0  0  0  0  0  0  0  0  0  0  0  0
  153.9709  140.4385  161.1049 N   0  0  0  0  0  0  0  0  0  0  0  0
  154.5953  139.6850  162.1843 C   0  0  0  0  0  0  0  0  0  0  0  0
  156.0930  139.4158  161.9361 C   0  0  1  0  0  0  0  0  0  0  0  0
  156.8208  140.6189  162.0919 O   0  0  0  0  0  0  0  0  0  0  0  0
  156.6533  138.3726  162.9231 C   0  0  0  0  0  0  0  0  0  0  0  0
  155.7897  137.1690  163.0403 N   0  3  2  0  0  0  0  0  0  0  0  0
  155.1305  137.0408  164.3671 C   0  0  0  0  0  0  0  0  0  0  0  0
  154.1487  135.8553  164.3880 C   0  0  0  0  0  0  0  0  0  0  0  0
  154.8241  134.5304  163.9895 C   0  0  2  0  0  0  0  0  0  0  0  0
  155.7366  133.9708  165.0951 C   0  0  0  0  0  0  0  0  0  0  0  0
  155.5565  134.7139  162.6482 C   0  0  0  0  0  0  0  0  0  0  0  0
  156.5074  135.9240  162.6644 C   0  0  0  0  0  0  0  0  0  0  0  0
  154.4564  138.8402  158.1630 H   0  0  0  0  0  0  0  0  0  0  0  0
  154.0688  138.0009  159.6693 H   0  0  0  0  0  0  0  0  0  0  0  0
  155.6173  138.8503  159.4954 H   0  0  0  0  0  0  0  0  0  0  0  0
  151.8147  143.4139  158.6947 H   0  0  0  0  0  0  0  0  0  0  0  0
  151.2630  144.9016  160.6061 H   0  0  0  0  0  0  0  0  0  0  0  0
  151.9967  144.3154  162.9075 H   0  0  0  0  0  0  0  0  0  0  0  0
  153.2922  142.2264  163.3106 H   0  0  0  0  0  0  0  0  0  0  0  0
  154.4585  140.2375  163.1150 H   0  0  0  0  0  0  0  0  0  0  0  0
  154.0580  138.7450  162.3126 H   0  0  0  0  0  0  0  0  0  0  0  0
  156.2199  139.0753  160.9095 H   0  0  0  0  0  0  0  0  0  0  0  0
  157.3743  140.7359  161.3340 H   0  0  0  0  0  0  0  0  0  0  0  0
  157.6472  138.0791  162.5811 H   0  0  0  0  0  0  0  0  0  0  0  0
  156.7915  138.8139  163.9113 H   0  0  0  0  0  0  0  0  0  0  0  0
  155.8881  136.9225  165.1428 H   0  0  0  0  0  0  0  0  0  0  0  0
  154.5817  137.9505  164.6075 H   0  0  0  0  0  0  0  0  0  0  0  0
  153.6914  135.7643  165.3740 H   0  0  0  0  0  0  0  0  0  0  0  0
  153.3316  136.0621  163.6953 H   0  0  0  0  0  0  0  0  0  0  0  0
  154.0368  133.7910  163.8363 H   0  0  0  0  0  0  0  0  0  0  0  0
  156.5629  134.6419  165.3270 H   0  0  0  0  0  0  0  0  0  0  0  0
  156.1647  133.0124  164.8002 H   0  0  0  0  0  0  0  0  0  0  0  0
  155.1769  133.8072  166.0167 H   0  0  0  0  0  0  0  0  0  0  0  0
  156.1066  133.8083  162.3903 H   0  0  0  0  0  0  0  0  0  0  0  0
  154.8204  134.8548  161.8553 H   0  0  0  0  0  0  0  0  0  0  0  0
  156.9470  136.0387  161.6727 H   0  0  0  0  0  0  0  0  0  0  0  0
  157.3340  135.7542  163.3557 H   0  0  0  0  0  0  0  0  0  0  0  0
  155.0558  137.2858  162.3556 H   0  0  0  0  0  0  0  0  0  0  0  0
  1  2  1  0  0  0  0
  1 22  1  0  0  0  0
  1 23  1  0  0  0  0
  1 24  1  0  0  0  0
  2 10  1  0  0  0  0
  2  3  2  0  0  0  0
  3  4  1  0  0  0  0
  4  9  2  0  0  0  0
  4  5  1  0  0  0  0
  5  6  2  0  0  0  0
  5 25  1  0  0  0  0
  6  7  1  0  0  0  0
  6 26  1  0  0  0  0
  7  8  2  0  0  0  0
  7 27  1  0  0  0  0
  8  9  1  0  0  0  0
  8 28  1  0  0  0  0
  9 10  1  0  0  0  0
 10 11  1  0  0  0  0
 11 12  1  0  0  0  0
 11 29  1  0  0  0  0
 11 30  1  0  0  0  0
 12 13  1  0  0  0  0
 12 14  1  0  0  0  0
 12 31  1  0  0  0  0
 13 32  1  0  0  0  0
 14 15  1  0  0  0  0
 14 33  1  0  0  0  0
 14 34  1  0  0  0  0
 15 21  1  0  0  0  0
 15 16  1  0  0  0  0
 15 47  1  0  0  0  0
 16 17  1  0  0  0  0
 16 35  1  0  0  0  0
 16 36  1  0  0  0  0
 17 18  1  0  0  0  0
 17 37  1  0  0  0  0
 17 38  1  0  0  0  0
 18 19  1  0  0  0  0
 18 20  1  0  0  0  0
 18 39  1  0  0  0  0
 19 40  1  0  0  0  0
 19 41  1  0  0  0  0
 19 42  1  0  0  0  0
 20 21  1  0  0  0  0
 20 43  1  0  0  0  0
 20 44  1  0  0  0  0
 21 45  1  0  0  0  0
 21 46  1  0  0  0  0
M  CHG  1  15   1
M  END
> <s_m_source_file>
AV-unprocessed.smi

> <i_m_source_file_index>
1868

> <i_lp_mmshare_version>
43012

> <i_f3d_flags>
0

> <s_epik_input>
W2NIXTFbY0hdW2NIXVtjSF1jKGMxMiluKGMobjIpW0NIM10pW0NIMl1bQ0BIXShbT0hdKVtDSDJdTjNbQ0gyXVtDSDJdW0NIXShbQ0gzXSlbQ0gyXVtDSDJdMw==

> <s_epik_cmdline>
J2VwaWtfcHl0aG9uJywgJy1waCcsICc3LjAnLCAnLXRuJywgJzgnLCAnLW1hJywgJzIwMCcsICctbWV0YWxfYmluZGluZycsICctaW1hZScsICc8aW5maWxlLm1hZT4nLCAnLW9tYWUnLCAnPG91dGZpbGUubWFlPic=

> <r_epik_Ionization_Penalty>
0.101157

> <r_epik_Ionization_Penalty_Charging>
0.00181365

> <r_epik_Ionization_Penalty_Neutral>
0.0993436

> <r_epik_State_Penalty>
0.0871902

> <r_epik_Charging_Adjusted_Penalty>
0.0890039

> <i_epik_Tot_Q>
1

> <i_epik_Tot_abs_Q>
1

> <r_epik_Metal_State_Penalty>
9.24346e-05

> <b_epik_Metal_Only>
0

> <s_lp_Force_Field>
OPLS_2005

> <r_lp_Energy>
23.8168

> <b_lp_Chiralities_Consistent>
1

> <s_lp_Variant>
AV-unprocessed.smi:1868-4

> <Gold.Version>
5.8.1

> <Gold.Id.Protein>
6NUR|6NUR_protein|mol2

> <Gold.PLP.Fitness>
43.5056

> <Gold.PLP.PLP>
-45.2485

> <Gold.PLP.part.hbond>
-1.0000

> <Gold.PLP.part.metal>
0.0000

> <Gold.PLP.part.buried>
-3.6290

> <Gold.PLP.part.nonpolar>
-39.4252

> <Gold.PLP.part.repulsive>
0.0000

> <Gold.PLP.ligand.clash>
0.0000

> <Gold.PLP.ligand.torsion>
0.8958

> <Gold.PLP.Chemscore.Hbond>
0.0000

> <Gold.PLP.Chemscore.CHOScore>
0.0000

> <Gold.PLP.Chemscore.Metal>
0.0000

> <Gold.PLP.Chemscore.Internal.Correction>
0.0487

> <Gold.Rescore>
     Score         DG    S(hbond)    S(metal)    S(lipo)     H(rot)  DE(clash)    DE(int)     intcor
     14.23     -15.78       0.00        0.00     130.08       1.92       0.72       0.84       ----

> <Gold.Chemscore.Fitness>
14.2298

> <Gold.Chemscore.DG>
-15.7842

> <Gold.Chemscore.ZeroCoef>
-5.4800

> <Gold.Chemscore.Hbond>
0.0000

> <Gold.Chemscore.Metal>
0.0000

> <Gold.Chemscore.Lipo>
130.0761

> <Gold.Chemscore.Internal_Hbond>
0.0000

> <Gold.Chemscore.DEClash>
0.7180

> <Gold.Chemscore.DEInternal>
0.8363

> <Gold.Chemscore.Rot>
1.9198

> <Gold.Chemscore.Internal.Correction>
   9.000000E+99

> <Gold.Chemscore.Hbond.Weighted>
-0.0000

> <Gold.Chemscore.Metal.Weighted>
-0.0000

> <Gold.Chemscore.Lipo.Weighted>
-15.2189

> <Gold.Chemscore.Internal_Hbond.Weighted>
0.0000

> <Gold.Chemscore.DEClash.Weighted>
0.7180

> <Gold.Chemscore.DEInternal.Weighted>
0.8363

> <Gold.Chemscore.Rot.Weighted>
4.9147

> <Gold.Chemscore.Internal.Correction.Weighted>
   9.000000E+99

> <Gold.Protein.RotatedTorsions>
[ 6907 6896 6895 6894 ] final   61.46 input  -60.11 | X-H torsion
[ 7974 7965 7964 7962 ] final  132.80 input  175.53 | X-H torsion
[ 8008 7997 7996 7995 ] final -110.11 input   59.86 | X-H torsion
[ 10167 10162 10161 10158 ] final   87.63 input  -65.29 | X-H torsion
[ 10718 10713 10712 10709 ] final  148.41 input   66.30 | X-H torsion
[ 10763 10752 10751 10750 ] final -127.11 input  -60.55 | X-H torsion
[ 11005 11000 10999 10996 ] final  143.13 input  -57.11 | X-H torsion

> <Gold.Protein.ActiveResidues>
 VAL166  LYS551  ARG553  GLY616  TRP617  ASP618  TYR619  PRO620  LYS621  CYS622 
 ASP623  PHE694  ASN695  SER759  ASP760  ASP761  ALA762  ILE779  LEU786  VAL792 
 PHE793  MET794  SER795  GLU796  ALA797  LYS798  CYS799  TRP800  GLU811  SER814 

> <Gold.Protein.RotatedAtoms>
  152.4091  134.6156  160.0037 H   0  0  0  0  0  0  0  0  0  0  0  0  # atno 6907 bound_to 6896
  151.6339  133.3324  159.3123 H   0  0  0  0  0  0  0  0  0  0  0  0  # atno 6908 bound_to 6896
  150.7983  134.7099  159.6643 H   0  0  0  0  0  0  0  0  0  0  0  0  # atno 6909 bound_to 6896
  144.9931  139.4387  143.5329 H   0  0  0  0  0  0  0  0  0  0  0  0  # atno 7974 bound_to 7965
  154.9696  140.0398  157.2228 H   0  0  0  0  0  0  0  0  0  0  0  0  # atno 8008 bound_to 7997
  154.7813  140.2819  155.6039 H   0  0  0  0  0  0  0  0  0  0  0  0  # atno 8009 bound_to 7997
  156.2936  140.2591  156.2639 H   0  0  0  0  0  0  0  0  0  0  0  0  # atno 8010 bound_to 7997
  139.8754  144.6470  150.8902 H   0  0  0  0  0  0  0  0  0  0  0  0  # atno 10167 bound_to 10162
  157.3089  131.0884  151.1331 H   0  0  0  0  0  0  0  0  0  0  0  0  # atno 10718 bound_to 10713
  154.8750  135.3973  154.3541 H   0  0  0  0  0  0  0  0  0  0  0  0  # atno 10763 bound_to 10752
  153.4323  135.7025  153.6228 H   0  0  0  0  0  0  0  0  0  0  0  0  # atno 10764 bound_to 10752
  153.4845  135.3762  155.2429 H   0  0  0  0  0  0  0  0  0  0  0  0  # atno 10765 bound_to 10752
  140.0530  134.9245  157.1050 H   0  0  0  0  0  0  0  0  0  0  0  0  # atno 11005 bound_to 11000
  146.3436  139.9274  142.8758 LP  0  0  0  0  0  0  0  0  0  0  0  0  # atno 17320 bound_to 7965
  145.2258  140.9953  143.4019 LP  0  0  0  0  0  0  0  0  0  0  0  0  # atno 17321 bound_to 7965
  140.7754  143.3629  151.1794 LP  0  0  0  0  0  0  0  0  0  0  0  0  # atno 17342 bound_to 10162
  139.7245  143.9170  152.2997 LP  0  0  0  0  0  0  0  0  0  0  0  0  # atno 17343 bound_to 10162
  157.2661  130.6682  149.5997 LP  0  0  0  0  0  0  0  0  0  0  0  0  # atno 17370 bound_to 10713
  155.9676  130.4493  150.5655 LP  0  0  0  0  0  0  0  0  0  0  0  0  # atno 17371 bound_to 10713
  140.3888  134.2207  155.7167 LP  0  0  0  0  0  0  0  0  0  0  0  0  # atno 17394 bound_to 11000
  141.1939  133.8140  157.0779 LP  0  0  0  0  0  0  0  0  0  0  0  0  # atno 17395 bound_to 11000

$$$$
