AV-unprocessed.smi:1006|AV-procd|sdf|4392|dock3
  -GOLD-   22720 2323D 1   1.00000     0.00000
 Structure written by MMmdl.
 46 48  0  0  0  0  0  0  0  0  2 V2000
  145.7220  135.5012  151.2032 C   0  0  0  0  0  0  0  0  0  0  0  0
  145.6890  136.5175  152.3250 C   0  0  0  0  0  0  0  0  0  0  0  0
  144.4951  136.8537  152.9952 C   0  0  0  0  0  0  0  0  0  0  0  0
  144.5915  137.8098  154.0213 C   0  0  0  0  0  0  0  0  0  0  0  0
  143.4664  138.2028  154.7415 N   0  0  0  0  0  0  0  0  0  0  0  0
  145.7696  138.3779  154.3459 N   0  0  0  0  0  0  0  0  0  0  0  0
  146.8663  138.0137  153.6683 C   0  0  0  0  0  0  0  0  0  0  0  0
  148.4419  138.7357  154.0913 S   0  0  0  0  0  0  0  0  0  0  0  0
  147.9692  140.0785  155.2258 C   0  0  0  0  0  0  0  0  0  0  0  0
  149.1406  141.0331  155.5079 C   0  0  2  0  0  0  0  0  0  0  0  0
  149.0151  142.1728  154.6786 O   0  0  0  0  0  0  0  0  0  0  0  0
  150.5044  140.3596  155.2622 C   0  0  0  0  0  0  0  0  0  0  0  0
  151.3332  140.3274  156.4545 N   0  0  0  0  0  0  0  0  0  0  0  0
  152.1905  139.3549  156.8198 C   0  0  0  0  0  0  0  0  0  0  0  0
  152.8552  139.5247  157.9589 N   0  0  0  0  0  0  0  0  0  0  0  0
  152.3743  140.7521  158.3818 C   0  0  0  0  0  0  0  0  0  0  0  0
  152.6819  141.5097  159.5332 C   0  0  0  0  0  0  0  0  0  0  0  0
  152.0622  142.7581  159.7667 C   0  0  0  0  0  0  0  0  0  0  0  0
  152.4246  143.5404  161.0168 C   0  0  0  0  0  0  0  0  0  0  0  0
  151.1163  143.2657  158.8400 C   0  0  0  0  0  0  0  0  0  0  0  0
  150.4388  144.6052  159.0689 C   0  0  0  0  0  0  0  0  0  0  0  0
  150.7961  142.5210  157.6855 C   0  0  0  0  0  0  0  0  0  0  0  0
  151.4212  141.2813  157.4630 C   0  0  0  0  0  0  0  0  0  0  0  0
  146.8580  137.1070  152.6807 N   0  3  0  0  0  0  0  0  0  0  0  0
  144.7134  135.2346  150.8859 H   0  0  0  0  0  0  0  0  0  0  0  0
  146.2289  134.5930  151.5303 H   0  0  0  0  0  0  0  0  0  0  0  0
  146.2541  135.9012  150.3395 H   0  0  0  0  0  0  0  0  0  0  0  0
  143.5511  136.3972  152.7334 H   0  0  0  0  0  0  0  0  0  0  0  0
  142.5530  137.8167  154.5512 H   0  0  0  0  0  0  0  0  0  0  0  0
  143.5301  138.8756  155.4922 H   0  0  0  0  0  0  0  0  0  0  0  0
  147.1451  140.6301  154.7718 H   0  0  0  0  0  0  0  0  0  0  0  0
  147.5978  139.6574  156.1608 H   0  0  0  0  0  0  0  0  0  0  0  0
  149.0920  141.3634  156.5465 H   0  0  0  0  0  0  0  0  0  0  0  0
  149.1739  142.9442  155.2009 H   0  0  0  0  0  0  0  0  0  0  0  0
  150.3615  139.3339  154.9202 H   0  0  0  0  0  0  0  0  0  0  0  0
  151.0487  140.8773  154.4713 H   0  0  0  0  0  0  0  0  0  0  0  0
  152.3332  138.4712  156.2153 H   0  0  0  0  0  0  0  0  0  0  0  0
  153.4024  141.1224  160.2385 H   0  0  0  0  0  0  0  0  0  0  0  0
  152.8616  144.5029  160.7503 H   0  0  0  0  0  0  0  0  0  0  0  0
  153.1489  143.0014  161.6281 H   0  0  0  0  0  0  0  0  0  0  0  0
  151.5391  143.7183  161.6274 H   0  0  0  0  0  0  0  0  0  0  0  0
  149.7384  144.8389  158.2666 H   0  0  0  0  0  0  0  0  0  0  0  0
  151.1788  145.4049  159.1108 H   0  0  0  0  0  0  0  0  0  0  0  0
  149.8825  144.5976  160.0065 H   0  0  0  0  0  0  0  0  0  0  0  0
  150.0754  142.8948  156.9732 H   0  0  0  0  0  0  0  0  0  0  0  0
  147.7197  136.8575  152.1949 H   0  0  0  0  0  0  0  0  0  0  0  0
  1  2  1  0  0  0  0
  1 25  1  0  0  0  0
  1 26  1  0  0  0  0
  1 27  1  0  0  0  0
  2 24  1  0  0  0  0
  2  3  2  0  0  0  0
  3  4  1  0  0  0  0
  3 28  1  0  0  0  0
  4  5  1  0  0  0  0
  4  6  2  0  0  0  0
  5 29  1  0  0  0  0
  5 30  1  0  0  0  0
  6  7  1  0  0  0  0
  7  8  1  0  0  0  0
  7 24  2  0  0  0  0
  8  9  1  0  0  0  0
  9 10  1  0  0  0  0
  9 31  1  0  0  0  0
  9 32  1  0  0  0  0
 10 11  1  0  0  0  0
 10 12  1  0  0  0  0
 10 33  1  0  0  0  0
 11 34  1  0  0  0  0
 12 13  1  0  0  0  0
 12 35  1  0  0  0  0
 12 36  1  0  0  0  0
 13 23  1  0  0  0  0
 13 14  1  0  0  0  0
 14 15  2  0  0  0  0
 14 37  1  0  0  0  0
 15 16  1  0  0  0  0
 16 23  2  0  0  0  0
 16 17  1  0  0  0  0
 17 18  2  0  0  0  0
 17 38  1  0  0  0  0
 18 19  1  0  0  0  0
 18 20  1  0  0  0  0
 19 39  1  0  0  0  0
 19 40  1  0  0  0  0
 19 41  1  0  0  0  0
 20 21  1  0  0  0  0
 20 22  2  0  0  0  0
 21 42  1  0  0  0  0
 21 43  1  0  0  0  0
 21 44  1  0  0  0  0
 22 23  1  0  0  0  0
 22 45  1  0  0  0  0
 24 46  1  0  0  0  0
M  CHG  1  24   1
M  END
> <s_m_source_file>
AV-unprocessed.smi

> <i_m_source_file_index>
1006

> <i_lp_mmshare_version>
43012

> <i_f3d_flags>
0

> <s_epik_input>
W0NIM11jMVtjSF1jKFtOSDJdKW5jKG4xKVNbQ0gyXVtDQEhdKFtPSF0pW0NIMl1uKFtjSF1uMiljKGMyMylbY0hdYyhbQ0gzXSljKFtjSF0zKVtDSDNd

> <s_epik_cmdline>
J2VwaWtfcHl0aG9uJywgJy1waCcsICc3LjAnLCAnLXRuJywgJzgnLCAnLW1hJywgJzIwMCcsICctbWV0YWxfYmluZGluZycsICctaW1hZScsICc8aW5maWxlLm1hZT4nLCAnLW9tYWUnLCAnPG91dGZpbGUubWFlPic=

> <r_lp_tautomer_probability>
0.999762

> <r_epik_Ionization_Penalty>
0.549885

> <r_epik_Ionization_Penalty_Charging>
0.440405

> <r_epik_Ionization_Penalty_Neutral>
0.10948

> <r_epik_State_Penalty>
0.546419

> <r_epik_Charging_Adjusted_Penalty>
0.986823

> <i_epik_Tot_Q>
1

> <i_epik_Tot_abs_Q>
1

> <r_epik_Metal_State_Penalty>
0.699827

> <b_epik_Metal_Only>
0

> <s_lp_Force_Field>
OPLS_2005

> <r_lp_Energy>
10.4004

> <b_lp_Chiralities_Consistent>
1

> <s_lp_Variant>
AV-unprocessed.smi:1006-3

> <Gold.Version>
5.8.1

> <Gold.Id.Protein>
6NUR|6NUR_protein|mol2

> <Gold.PLP.Fitness>
50.9422

> <Gold.PLP.PLP>
-42.2181

> <Gold.PLP.part.hbond>
-5.0000

> <Gold.PLP.part.metal>
0.0000

> <Gold.PLP.part.buried>
-1.4029

> <Gold.PLP.part.nonpolar>
-36.7293

> <Gold.PLP.part.repulsive>
0.1750

> <Gold.PLP.ligand.clash>
0.0000

> <Gold.PLP.ligand.torsion>
1.7500

> <Gold.PLP.Chemscore.Hbond>
4.0257

> <Gold.PLP.Chemscore.CHOScore>
0.0000

> <Gold.PLP.Chemscore.Metal>
0.0000

> <Gold.Chemscore.Hbonds>
donor molecule, donor type, donor heavy atom, donor atom, acceptor molecule, acceptor atom, score
      L1  H    11    34       P1  8028  1.00
      L1  H    24    46       P1  7948  1.40
      P1  H  7997  8010       L1    15  0.72

> <Gold.PLP.Chemscore.Internal.Correction>
0.1469

> <Gold.Rescore>
     Score         DG    S(hbond)    S(metal)    S(lipo)     H(rot)  DE(clash)    DE(int)     intcor
     16.72     -18.76       2.32        0.00     110.55       2.89       0.33       1.72       ----

> <Gold.Chemscore.Fitness>
16.7215

> <Gold.Chemscore.DG>
-18.7650

> <Gold.Chemscore.ZeroCoef>
-5.4800

> <Gold.Chemscore.Hbond>
2.3201

> <Gold.Chemscore.Metal>
0.0000

> <Gold.Chemscore.Lipo>
110.5510

> <Gold.Chemscore.Internal_Hbond>
0.0000

> <Gold.Chemscore.DEClash>
0.3275

> <Gold.Chemscore.DEInternal>
1.7160

> <Gold.Chemscore.Rot>
2.8901

> <Gold.Chemscore.Internal.Correction>
   9.000000E+99

> <Gold.Chemscore.Hbonds>
donor molecule, donor type, donor heavy atom, donor atom, acceptor molecule, acceptor atom, score
      L1  H    11    34       P1  8028  0.96
      L1  H    24    46       P1  7948  0.69
      P1  H  7997  8010       L1    15  0.03
      P1  H  8011  8017       L1    11  0.01

> <Gold.Chemscore.Hbond.Weighted>
-7.7491

> <Gold.Chemscore.Metal.Weighted>
-0.0000

> <Gold.Chemscore.Lipo.Weighted>
-12.9345

> <Gold.Chemscore.Internal_Hbond.Weighted>
0.0000

> <Gold.Chemscore.DEClash.Weighted>
0.3275

> <Gold.Chemscore.DEInternal.Weighted>
1.7160

> <Gold.Chemscore.Rot.Weighted>
7.3986

> <Gold.Chemscore.Internal.Correction.Weighted>
   9.000000E+99

> <Gold.Protein.RotatedTorsions>
[ 6907 6896 6895 6894 ] final -164.18 input  -60.11 | X-H torsion
[ 7974 7965 7964 7962 ] final -158.53 input  175.53 | X-H torsion
[ 8008 7997 7996 7995 ] final   31.42 input   59.86 | X-H torsion
[ 10167 10162 10161 10158 ] final  145.10 input  -65.29 | X-H torsion
[ 10718 10713 10712 10709 ] final    5.68 input   66.30 | X-H torsion
[ 10763 10752 10751 10750 ] final   50.96 input  -60.55 | X-H torsion
[ 11005 11000 10999 10996 ] final  -77.61 input  -57.11 | X-H torsion

> <Gold.Protein.ActiveResidues>
 VAL166  LYS551  ARG553  GLY616  TRP617  ASP618  TYR619  PRO620  LYS621  CYS622 
 ASP623  PHE694  ASN695  SER759  ASP760  ASP761  ALA762  ILE779  LEU786  VAL792 
 PHE793  MET794  SER795  GLU796  ALA797  LYS798  CYS799  TRP800  GLU811  SER814 

> <Gold.Protein.RotatedAtoms>
  151.4078  133.3737  159.2739 H   0  0  0  0  0  0  0  0  0  0  0  0  # atno 6907 bound_to 6896
  150.9385  134.8797  159.7608 H   0  0  0  0  0  0  0  0  0  0  0  0  # atno 6908 bound_to 6896
  152.5061  134.4027  159.9474 H   0  0  0  0  0  0  0  0  0  0  0  0  # atno 6909 bound_to 6896
  144.7502  140.3815  143.6054 H   0  0  0  0  0  0  0  0  0  0  0  0  # atno 7974 bound_to 7965
  155.1061  140.3234  155.4534 H   0  0  0  0  0  0  0  0  0  0  0  0  # atno 8008 bound_to 7997
  156.2703  140.2052  156.6134 H   0  0  0  0  0  0  0  0  0  0  0  0  # atno 8009 bound_to 7997
  154.6792  140.0528  157.0234 H   0  0  0  0  0  0  0  0  0  0  0  0  # atno 8010 bound_to 7997
  139.4933  144.5926  151.6650 H   0  0  0  0  0  0  0  0  0  0  0  0  # atno 10167 bound_to 10162
  156.9110  130.5756  149.5647 H   0  0  0  0  0  0  0  0  0  0  0  0  # atno 10718 bound_to 10713
  152.9785  135.5861  154.4338 H   0  0  0  0  0  0  0  0  0  0  0  0  # atno 10763 bound_to 10752
  154.3948  135.2768  155.2135 H   0  0  0  0  0  0  0  0  0  0  0  0  # atno 10764 bound_to 10752
  154.3992  135.6107  153.5941 H   0  0  0  0  0  0  0  0  0  0  0  0  # atno 10765 bound_to 10752
  141.1661  133.7029  156.7846 H   0  0  0  0  0  0  0  0  0  0  0  0  # atno 11005 bound_to 11000
  145.6973  139.1653  143.2613 LP  0  0  0  0  0  0  0  0  0  0  0  0  # atno 17320 bound_to 7965
  146.1441  140.7017  142.9353 LP  0  0  0  0  0  0  0  0  0  0  0  0  # atno 17321 bound_to 7965
  140.5556  144.0354  150.6146 LP  0  0  0  0  0  0  0  0  0  0  0  0  # atno 17342 bound_to 10162
  140.3422  143.3012  152.0576 LP  0  0  0  0  0  0  0  0  0  0  0  0  # atno 17343 bound_to 10162
  156.0536  130.5601  150.9043 LP  0  0  0  0  0  0  0  0  0  0  0  0  # atno 17370 bound_to 10713
  157.5967  131.0943  150.9028 LP  0  0  0  0  0  0  0  0  0  0  0  0  # atno 17371 bound_to 10713
  140.2369  134.8643  157.3534 LP  0  0  0  0  0  0  0  0  0  0  0  0  # atno 17394 bound_to 11000
  140.1834  134.4461  155.7758 LP  0  0  0  0  0  0  0  0  0  0  0  0  # atno 17395 bound_to 11000

$$$$
