AV-unprocessed.smi:645|AV-procd|sdf|3162|dock3
  -GOLD-   22720 0 83D 1   1.00000     0.00000
 Structure written by MMmdl.
 22 23  0  0  0  0  0  0  0  0  2 V2000
  150.0405  139.5957  158.0257 C   0  0  0  0  0  0  0  0  0  0  0  0
  150.6147  140.7243  157.1437 C   0  0  2  0  0  0  0  0  0  0  0  0
  151.3366  141.8008  157.9732 C   0  0  0  0  0  0  0  0  0  0  0  0
  150.9590  143.1656  157.9282 C   0  0  0  0  0  0  0  0  0  0  0  0
  151.6616  144.0956  158.7198 C   0  0  0  0  0  0  0  0  0  0  0  0
  152.6851  143.7587  159.5316 N   0  0  0  0  0  0  0  0  0  0  0  0
  153.0465  142.4598  159.5768 C   0  0  0  0  0  0  0  0  0  0  0  0
  152.4090  141.4519  158.8274 C   0  0  0  0  0  0  0  0  0  0  0  0
  149.5566  141.2550  156.3054 N   0  0  0  0  0  0  0  0  0  0  0  0
  149.8234  141.0883  155.0115 C   0  0  0  0  0  0  0  0  0  0  0  0
  149.0584  141.4891  154.1373 O   0  0  0  0  0  0  0  0  0  0  0  0
  150.9966  140.4453  154.8590 N   0  5  0  0  0  0  0  0  0  0  0  0
  151.5492  140.1644  156.0595 C   0  0  0  0  0  0  0  0  0  0  0  0
  152.5897  139.5631  156.3262 O   0  0  0  0  0  0  0  0  0  0  0  0
  150.8185  139.0845  158.5930 H   0  0  0  0  0  0  0  0  0  0  0  0
  149.5310  138.8395  157.4264 H   0  0  0  0  0  0  0  0  0  0  0  0
  149.3167  139.9887  158.7400 H   0  0  0  0  0  0  0  0  0  0  0  0
  150.1511  143.5132  157.3022 H   0  0  0  0  0  0  0  0  0  0  0  0
  151.3922  145.1413  158.6999 H   0  0  0  0  0  0  0  0  0  0  0  0
  153.8703  142.2146  160.2307 H   0  0  0  0  0  0  0  0  0  0  0  0
  152.7491  140.4299  158.9037 H   0  0  0  0  0  0  0  0  0  0  0  0
  148.7363  141.7152  156.6708 H   0  0  0  0  0  0  0  0  0  0  0  0
  1  2  1  0  0  0  0
  1 15  1  0  0  0  0
  1 16  1  0  0  0  0
  1 17  1  0  0  0  0
  2 13  1  0  0  0  0
  2  3  1  0  0  0  0
  2  9  1  0  0  0  0
  3  8  1  0  0  0  0
  3  4  2  0  0  0  0
  4  5  1  0  0  0  0
  4 18  1  0  0  0  0
  5  6  2  0  0  0  0
  5 19  1  0  0  0  0
  6  7  1  0  0  0  0
  7  8  2  0  0  0  0
  7 20  1  0  0  0  0
  8 21  1  0  0  0  0
  9 10  1  0  0  0  0
  9 22  1  0  0  0  0
 10 11  2  0  0  0  0
 10 12  1  0  0  0  0
 12 13  1  0  0  0  0
 13 14  2  0  0  0  0
M  CHG  1  12  -1
M  END
> <s_m_source_file>
AV-unprocessed.smi

> <i_m_source_file_index>
645

> <i_lp_mmshare_version>
43012

> <i_f3d_flags>
0

> <s_epik_input>
Tz1DMVtOSF1DKD1PKVtOSF1bQ0BAXTEoW0NIM10pYzJbY0hdW2NIXW5bY0hdW2NIXTI=

> <s_epik_cmdline>
J2VwaWtfcHl0aG9uJywgJy1waCcsICc3LjAnLCAnLXRuJywgJzgnLCAnLW1hJywgJzIwMCcsICctbWV0YWxfYmluZGluZycsICctaW1hZScsICc8aW5maWxlLm1hZT4nLCAnLW9tYWUnLCAnPG91dGZpbGUubWFlPic=

> <r_epik_Ionization_Penalty>
1.83307

> <r_epik_Ionization_Penalty_Charging>
1.82122

> <r_epik_Ionization_Penalty_Neutral>
0.0118514

> <r_epik_State_Penalty>
1.93645

> <r_epik_Charging_Adjusted_Penalty>
3.75767

> <i_epik_Tot_Q>
-1

> <i_epik_Tot_abs_Q>
1

> <r_epik_Metal_State_Penalty>
0.53507

> <b_epik_Metal_Only>
0

> <s_lp_Force_Field>
OPLS_2005

> <r_lp_Energy>
9.09868

> <b_lp_Chiralities_Consistent>
1

> <s_lp_Variant>
AV-unprocessed.smi:645-4

> <Gold.Version>
5.8.1

> <Gold.Id.Protein>
6NUR|6NUR_protein|mol2

> <Gold.PLP.Fitness>
35.2636

> <Gold.PLP.PLP>
-27.2727

> <Gold.PLP.part.hbond>
-3.8974

> <Gold.PLP.part.metal>
0.0000

> <Gold.PLP.part.buried>
-3.1115

> <Gold.PLP.part.nonpolar>
-20.4655

> <Gold.PLP.part.repulsive>
0.3095

> <Gold.PLP.ligand.clash>
0.0000

> <Gold.PLP.ligand.torsion>
0.0685

> <Gold.PLP.Chemscore.Hbond>
2.6820

> <Gold.PLP.Chemscore.CHOScore>
0.0000

> <Gold.PLP.Chemscore.Metal>
0.0000

> <Gold.Chemscore.Hbonds>
donor molecule, donor type, donor heavy atom, donor atom, acceptor molecule, acceptor atom, score
      P1  H  7989  7998       L1    12  1.00
      P1  H  7997  8008       L1    14  1.00
      P1  H  8011  8017       L1    11  0.45

> <Gold.PLP.Chemscore.Internal.Correction>
0.0820

> <Gold.Rescore>
     Score         DG    S(hbond)    S(metal)    S(lipo)     H(rot)  DE(clash)    DE(int)     intcor
     15.77     -15.83       1.93        0.00      55.19       1.00       0.01       0.05       ----

> <Gold.Chemscore.Fitness>
15.7711

> <Gold.Chemscore.DG>
-15.8323

> <Gold.Chemscore.ZeroCoef>
-5.4800

> <Gold.Chemscore.Hbond>
1.9327

> <Gold.Chemscore.Metal>
0.0000

> <Gold.Chemscore.Lipo>
55.1891

> <Gold.Chemscore.Internal_Hbond>
0.0000

> <Gold.Chemscore.DEClash>
0.0075

> <Gold.Chemscore.DEInternal>
0.0537

> <Gold.Chemscore.Rot>
1.0000

> <Gold.Chemscore.Internal.Correction>
   9.000000E+99

> <Gold.Chemscore.Hbonds>
donor molecule, donor type, donor heavy atom, donor atom, acceptor molecule, acceptor atom, score
      P1  H  7989  7998       L1    12  0.66
      P1  H  7997  8008       L1    14  1.00
      P1  H  8011  8017       L1    11  0.45

> <Gold.Chemscore.Hbond.Weighted>
-6.4552

> <Gold.Chemscore.Metal.Weighted>
-0.0000

> <Gold.Chemscore.Lipo.Weighted>
-6.4571

> <Gold.Chemscore.Internal_Hbond.Weighted>
0.0000

> <Gold.Chemscore.DEClash.Weighted>
0.0075

> <Gold.Chemscore.DEInternal.Weighted>
0.0537

> <Gold.Chemscore.Rot.Weighted>
2.5600

> <Gold.Chemscore.Internal.Correction.Weighted>
   9.000000E+99

> <Gold.Protein.RotatedTorsions>
[ 6907 6896 6895 6894 ] final  159.59 input  -60.11 | X-H torsion
[ 7974 7965 7964 7962 ] final   74.84 input  175.53 | X-H torsion
[ 8008 7997 7996 7995 ] final  -40.87 input   59.86 | X-H torsion
[ 10167 10162 10161 10158 ] final  -71.85 input  -65.29 | X-H torsion
[ 10718 10713 10712 10709 ] final  -63.18 input   66.30 | X-H torsion
[ 10763 10752 10751 10750 ] final  -42.73 input  -60.55 | X-H torsion
[ 11005 11000 10999 10996 ] final   -0.03 input  -57.11 | X-H torsion

> <Gold.Protein.ActiveResidues>
 VAL166  LYS551  ARG553  GLY616  TRP617  ASP618  TYR619  PRO620  LYS621  CYS622 
 ASP623  PHE694  ASN695  SER759  ASP760  ASP761  ALA762  ILE779  LEU786  VAL792 
 PHE793  MET794  SER795  GLU796  ALA797  LYS798  CYS799  TRP800  GLU811  SER814 

> <Gold.Protein.RotatedAtoms>
  151.9834  133.3765  159.4115 H   0  0  0  0  0  0  0  0  0  0  0  0  # atno 6907 bound_to 6896
  150.6931  134.4015  159.5130 H   0  0  0  0  0  0  0  0  0  0  0  0  # atno 6908 bound_to 6896
  152.1737  134.8812  160.0583 H   0  0  0  0  0  0  0  0  0  0  0  0  # atno 6909 bound_to 6896
  145.7232  139.2656  143.1584 H   0  0  0  0  0  0  0  0  0  0  0  0  # atno 7974 bound_to 7965
  154.4008  140.1514  156.3098 H   0  0  0  0  0  0  0  0  0  0  0  0  # atno 8008 bound_to 7997
  155.8625  140.3453  155.5744 H   0  0  0  0  0  0  0  0  0  0  0  0  # atno 8009 bound_to 7997
  155.7864  140.0850  157.2022 H   0  0  0  0  0  0  0  0  0  0  0  0  # atno 8010 bound_to 7997
  140.5240  143.2328  151.7380 H   0  0  0  0  0  0  0  0  0  0  0  0  # atno 10167 bound_to 10162
  156.0807  130.4218  150.1241 H   0  0  0  0  0  0  0  0  0  0  0  0  # atno 10718 bound_to 10713
  153.9838  135.6713  153.4751 H   0  0  0  0  0  0  0  0  0  0  0  0  # atno 10763 bound_to 10752
  153.0736  135.4961  154.8353 H   0  0  0  0  0  0  0  0  0  0  0  0  # atno 10764 bound_to 10752
  154.7149  135.3105  154.9101 H   0  0  0  0  0  0  0  0  0  0  0  0  # atno 10765 bound_to 10752
  140.6318  133.9568  155.8278 H   0  0  0  0  0  0  0  0  0  0  0  0  # atno 11005 bound_to 11000
  146.0607  140.7974  142.9736 LP  0  0  0  0  0  0  0  0  0  0  0  0  # atno 17320 bound_to 7965
  144.6911  140.3192  143.7235 LP  0  0  0  0  0  0  0  0  0  0  0  0  # atno 17321 bound_to 7965
  139.4932  144.4213  151.9974 LP  0  0  0  0  0  0  0  0  0  0  0  0  # atno 17342 bound_to 10162
  140.3311  144.3315  150.5987 LP  0  0  0  0  0  0  0  0  0  0  0  0  # atno 17343 bound_to 10162
  156.9273  130.9702  151.3539 LP  0  0  0  0  0  0  0  0  0  0  0  0  # atno 17370 bound_to 10713
  157.5922  130.8452  149.8677 LP  0  0  0  0  0  0  0  0  0  0  0  0  # atno 17371 bound_to 10713
  141.0670  134.0262  157.3580 LP  0  0  0  0  0  0  0  0  0  0  0  0  # atno 17394 bound_to 11000
  139.9113  135.0190  156.7703 LP  0  0  0  0  0  0  0  0  0  0  0  0  # atno 17395 bound_to 11000

$$$$
