AV-unprocessed.smi:426|AV-procd|sdf|2541|dock6
  -GOLD-   2262022503D 1   1.00000     0.00000
 Structure written by MMmdl.
 37 38  0  0  0  0  0  0  0  0  1 V2000
  154.6695  135.8616  163.2634 C   0  0  0  0  0  0  0  0  0  0  0  0
  154.9297  135.8064  161.7485 C   0  0  0  0  0  0  0  0  0  0  0  0
  156.4305  135.9308  161.4368 C   0  0  0  0  0  0  0  0  0  0  0  0
  154.1338  136.8961  161.0169 C   0  0  0  0  0  0  0  0  0  0  0  0
  153.2701  136.5725  160.2017 O   0  0  0  0  0  0  0  0  0  0  0  0
  154.4647  138.1657  161.3193 N   0  0  0  0  0  0  0  0  0  0  0  0
  153.9029  139.3789  160.8355 C   0  0  0  0  0  0  0  0  0  0  0  0
  152.9890  139.4699  159.7597 C   0  0  0  0  0  0  0  0  0  0  0  0
  152.4896  140.7344  159.3932 C   0  0  0  0  0  0  0  0  0  0  0  0
  152.9027  141.8798  160.1137 C   0  0  0  0  0  0  0  0  0  0  0  0
  152.4068  143.1561  159.7671 N   0  0  0  0  0  0  0  0  0  0  0  0
  152.7293  143.6799  158.4407 C   0  0  0  0  0  0  0  0  0  0  0  0
  151.8824  144.9269  158.1349 C   0  0  0  0  0  0  0  0  0  0  0  0
  152.0608  145.8927  159.1653 O   0  0  0  0  0  0  0  0  0  0  0  0
  151.6349  145.3997  160.4310 C   0  0  0  0  0  0  0  0  0  0  0  0
  152.4705  144.1677  160.8194 C   0  0  0  0  0  0  0  0  0  0  0  0
  153.7765  141.7879  161.1462 N   0  0  0  0  0  0  0  0  0  0  0  0
  154.2532  140.5743  161.4938 C   0  0  0  0  0  0  0  0  0  0  0  0
  153.6049  135.7810  163.4866 H   0  0  0  0  0  0  0  0  0  0  0  0
  155.0323  136.7930  163.7004 H   0  0  0  0  0  0  0  0  0  0  0  0
  155.1730  135.0410  163.7749 H   0  0  0  0  0  0  0  0  0  0  0  0
  154.5932  134.8329  161.3877 H   0  0  0  0  0  0  0  0  0  0  0  0
  156.6164  135.8992  160.3624 H   0  0  0  0  0  0  0  0  0  0  0  0
  156.9910  135.1123  161.8892 H   0  0  0  0  0  0  0  0  0  0  0  0
  156.8444  136.8648  161.8193 H   0  0  0  0  0  0  0  0  0  0  0  0
  155.2455  138.2757  161.9502 H   0  0  0  0  0  0  0  0  0  0  0  0
  152.6506  138.6033  159.2144 H   0  0  0  0  0  0  0  0  0  0  0  0
  151.8057  140.8087  158.5612 H   0  0  0  0  0  0  0  0  0  0  0  0
  153.7904  143.9304  158.3995 H   0  0  0  0  0  0  0  0  0  0  0  0
  152.5423  142.9220  157.6791 H   0  0  0  0  0  0  0  0  0  0  0  0
  152.1862  145.3627  157.1831 H   0  0  0  0  0  0  0  0  0  0  0  0
  150.8263  144.6676  158.0436 H   0  0  0  0  0  0  0  0  0  0  0  0
  151.7564  146.1854  161.1766 H   0  0  0  0  0  0  0  0  0  0  0  0
  150.5723  145.1535  160.3991 H   0  0  0  0  0  0  0  0  0  0  0  0
  152.1099  143.7842  161.7726 H   0  0  0  0  0  0  0  0  0  0  0  0
  153.5122  144.4552  160.9671 H   0  0  0  0  0  0  0  0  0  0  0  0
  154.9407  140.5603  162.3272 H   0  0  0  0  0  0  0  0  0  0  0  0
  1  2  1  0  0  0  0
  1 19  1  0  0  0  0
  1 20  1  0  0  0  0
  1 21  1  0  0  0  0
  2  3  1  0  0  0  0
  2  4  1  0  0  0  0
  2 22  1  0  0  0  0
  3 23  1  0  0  0  0
  3 24  1  0  0  0  0
  3 25  1  0  0  0  0
  4  5  2  0  0  0  0
  4  6  1  0  0  0  0
  6  7  1  0  0  0  0
  6 26  1  0  0  0  0
  7 18  1  0  0  0  0
  7  8  2  0  0  0  0
  8  9  1  0  0  0  0
  8 27  1  0  0  0  0
  9 10  2  0  0  0  0
  9 28  1  0  0  0  0
 10 11  1  0  0  0  0
 10 17  1  0  0  0  0
 11 16  1  0  0  0  0
 11 12  1  0  0  0  0
 12 13  1  0  0  0  0
 12 29  1  0  0  0  0
 12 30  1  0  0  0  0
 13 14  1  0  0  0  0
 13 31  1  0  0  0  0
 13 32  1  0  0  0  0
 14 15  1  0  0  0  0
 15 16  1  0  0  0  0
 15 33  1  0  0  0  0
 15 34  1  0  0  0  0
 16 35  1  0  0  0  0
 16 36  1  0  0  0  0
 17 18  2  0  0  0  0
 18 37  1  0  0  0  0
M  END
> <s_m_source_file>
AV-unprocessed.smi

> <i_m_source_file_index>
426

> <i_lp_mmshare_version>
43012

> <i_f3d_flags>
0

> <s_epik_input>
W0NIM11bQ0hdKFtDSDNdKUMoPU8pW05IXWMxW2NIXVtjSF1jKG5bY0hdMSlOMltDSDJdW0NIMl1PW0NIMl1bQ0gyXTI=

> <s_epik_cmdline>
J2VwaWtfcHl0aG9uJywgJy1waCcsICc3LjAnLCAnLXRuJywgJzgnLCAnLW1hJywgJzIwMCcsICctbWV0YWxfYmluZGluZycsICctaW1hZScsICc8aW5maWxlLm1hZT4nLCAnLW9tYWUnLCAnPG91dGZpbGUubWFlPic=

> <r_lp_tautomer_probability>
1

> <r_epik_Ionization_Penalty>
0.000693659

> <r_epik_Ionization_Penalty_Charging>
0

> <r_epik_Ionization_Penalty_Neutral>
0.000693659

> <r_epik_State_Penalty>
0.000430321

> <r_epik_Charging_Adjusted_Penalty>
0.000430321

> <i_epik_Tot_Q>
0

> <i_epik_Tot_abs_Q>
0

> <r_epik_Metal_State_Penalty>
-0

> <b_epik_Metal_Only>
0

> <s_lp_Force_Field>
OPLS_2005

> <r_lp_Energy>
23.904

> <b_lp_Chiralities_Consistent>
1

> <s_lp_Variant>
AV-unprocessed.smi:426-1

> <Gold.Version>
5.8.1

> <Gold.Id.Protein>
6NUR|6NUR_protein|mol2

> <Gold.PLP.Fitness>
38.5522

> <Gold.PLP.PLP>
-35.9295

> <Gold.PLP.part.hbond>
-2.0000

> <Gold.PLP.part.metal>
0.0000

> <Gold.PLP.part.buried>
-6.3038

> <Gold.PLP.part.nonpolar>
-28.2499

> <Gold.PLP.part.repulsive>
0.1081

> <Gold.PLP.ligand.clash>
0.0000

> <Gold.PLP.ligand.torsion>
0.3648

> <Gold.PLP.Chemscore.Hbond>
1.0000

> <Gold.PLP.Chemscore.CHOScore>
0.0000

> <Gold.PLP.Chemscore.Metal>
0.0000

> <Gold.Chemscore.Hbonds>
donor molecule, donor type, donor heavy atom, donor atom, acceptor molecule, acceptor atom, score
      P1  H  6896  6907       L1     5  1.00

> <Gold.PLP.Chemscore.Internal.Correction>
0.3522

> <Gold.Rescore>
     Score         DG    S(hbond)    S(metal)    S(lipo)     H(rot)  DE(clash)    DE(int)     intcor
     15.28     -16.70       0.99        0.00      93.35       1.18       0.01       1.40       ----

> <Gold.Chemscore.Fitness>
15.2817

> <Gold.Chemscore.DG>
-16.6976

> <Gold.Chemscore.ZeroCoef>
-5.4800

> <Gold.Chemscore.Hbond>
0.9891

> <Gold.Chemscore.Metal>
0.0000

> <Gold.Chemscore.Lipo>
93.3493

> <Gold.Chemscore.Internal_Hbond>
0.0000

> <Gold.Chemscore.DEClash>
0.0130

> <Gold.Chemscore.DEInternal>
1.4029

> <Gold.Chemscore.Rot>
1.1750

> <Gold.Chemscore.Internal.Correction>
   9.000000E+99

> <Gold.Chemscore.Hbonds>
donor molecule, donor type, donor heavy atom, donor atom, acceptor molecule, acceptor atom, score
      P1  H  6896  6907       L1     5  0.99

> <Gold.Chemscore.Hbond.Weighted>
-3.3037

> <Gold.Chemscore.Metal.Weighted>
-0.0000

> <Gold.Chemscore.Lipo.Weighted>
-10.9219

> <Gold.Chemscore.Internal_Hbond.Weighted>
0.0000

> <Gold.Chemscore.DEClash.Weighted>
0.0130

> <Gold.Chemscore.DEInternal.Weighted>
1.4029

> <Gold.Chemscore.Rot.Weighted>
3.0080

> <Gold.Chemscore.Internal.Correction.Weighted>
   9.000000E+99

> <Gold.Protein.RotatedTorsions>
[ 6907 6896 6895 6894 ] final   40.08 input  -60.11 | X-H torsion
[ 7974 7965 7964 7962 ] final -118.19 input  175.53 | X-H torsion
[ 8008 7997 7996 7995 ] final -130.26 input   59.86 | X-H torsion
[ 10167 10162 10161 10158 ] final  127.48 input  -65.29 | X-H torsion
[ 10718 10713 10712 10709 ] final  138.43 input   66.30 | X-H torsion
[ 10763 10752 10751 10750 ] final  -80.54 input  -60.55 | X-H torsion
[ 11005 11000 10999 10996 ] final -141.76 input  -57.11 | X-H torsion

> <Gold.Protein.ActiveResidues>
 VAL166  LYS551  ARG553  GLY616  TRP617  ASP618  TYR619  PRO620  LYS621  CYS622 
 ASP623  PHE694  ASN695  SER759  ASP760  ASP761  ALA762  ILE779  LEU786  VAL792 
 PHE793  MET794  SER795  GLU796  ALA797  LYS798  CYS799  TRP800  GLU811  SER814 

> <Gold.Protein.RotatedAtoms>
  152.1779  134.8779  160.0528 H   0  0  0  0  0  0  0  0  0  0  0  0  # atno 6907 bound_to 6896
  151.9714  133.3722  159.4081 H   0  0  0  0  0  0  0  0  0  0  0  0  # atno 6908 bound_to 6896
  150.6912  134.4059  159.5183 H   0  0  0  0  0  0  0  0  0  0  0  0  # atno 6909 bound_to 6896
  145.0766  140.8396  143.4064 H   0  0  0  0  0  0  0  0  0  0  0  0  # atno 7974 bound_to 7965
  155.2928  140.0449  157.3024 H   0  0  0  0  0  0  0  0  0  0  0  0  # atno 8008 bound_to 7997
  154.5532  140.2323  155.8420 H   0  0  0  0  0  0  0  0  0  0  0  0  # atno 8009 bound_to 7997
  156.1984  140.3032  155.9483 H   0  0  0  0  0  0  0  0  0  0  0  0  # atno 8010 bound_to 7997
  139.5576  144.6859  151.4137 H   0  0  0  0  0  0  0  0  0  0  0  0  # atno 10167 bound_to 10162
  157.4253  131.1043  151.0309 H   0  0  0  0  0  0  0  0  0  0  0  0  # atno 10718 bound_to 10713
  154.5525  135.5657  153.6934 H   0  0  0  0  0  0  0  0  0  0  0  0  # atno 10763 bound_to 10752
  152.9993  135.6254  154.2355 H   0  0  0  0  0  0  0  0  0  0  0  0  # atno 10764 bound_to 10752
  154.2290  135.2866  155.2876 H   0  0  0  0  0  0  0  0  0  0  0  0  # atno 10765 bound_to 10752
  140.8292  134.2537  157.4865 H   0  0  0  0  0  0  0  0  0  0  0  0  # atno 11005 bound_to 11000
  145.1228  139.2682  143.5579 LP  0  0  0  0  0  0  0  0  0  0  0  0  # atno 17320 bound_to 7965
  146.3530  140.0857  142.8615 LP  0  0  0  0  0  0  0  0  0  0  0  0  # atno 17321 bound_to 7965
  140.6851  143.7992  150.7175 LP  0  0  0  0  0  0  0  0  0  0  0  0  # atno 17342 bound_to 10162
  140.1457  143.4402  152.2164 LP  0  0  0  0  0  0  0  0  0  0  0  0  # atno 17343 bound_to 10162
  157.1225  130.6067  149.5508 LP  0  0  0  0  0  0  0  0  0  0  0  0  # atno 17370 bound_to 10713
  155.9894  130.4942  150.7214 LP  0  0  0  0  0  0  0  0  0  0  0  0  # atno 17371 bound_to 10713
  139.8705  134.9577  156.4277 LP  0  0  0  0  0  0  0  0  0  0  0  0  # atno 17394 bound_to 11000
  140.9016  133.7775  155.9687 LP  0  0  0  0  0  0  0  0  0  0  0  0  # atno 17395 bound_to 11000

$$$$
