AV-unprocessed.smi:1959|AV-procd|sdf|7913|dock3
  -GOLD-   2272010 73D 1   1.00000     0.00000
 Structure written by MMmdl.
 44 45  0  0  0  0  0  0  0  0  1 V2000
  150.9145  141.8817  156.4093 C   0  0  0  0  0  0  0  0  0  0  0  0
  151.2735  142.5080  157.7246 C   0  0  0  0  0  0  0  0  0  0  0  0
  150.8535  143.7629  158.2477 C   0  0  0  0  0  0  0  0  0  0  0  0
  151.4663  143.8424  159.4663 C   0  0  0  0  0  0  0  0  0  0  0  0
  151.4216  144.9199  160.4993 C   0  0  0  0  0  0  0  0  0  0  0  0
  152.2018  142.6807  159.6226 N   0  0  0  0  0  0  0  0  0  0  0  0
  153.0365  142.2650  160.7416 C   0  0  0  0  0  0  0  0  0  0  0  0
  154.0096  141.1355  160.3813 C   0  0  0  0  0  0  0  0  0  0  0  0
  153.6042  140.0481  159.9673 O   0  0  0  0  0  0  0  0  0  0  0  0
  155.3106  141.4177  160.5491 N   0  0  0  0  0  0  0  0  0  0  0  0
  156.4221  140.5078  160.2813 C   0  0  1  0  0  0  0  0  0  0  0  0
  157.5531  141.2430  159.5454 C   0  0  0  0  0  0  0  0  0  0  0  0
  156.8953  139.7600  161.5526 C   0  0  0  0  0  0  0  0  0  0  0  0
  155.9018  138.9360  162.2485 N   0  0  0  0  0  0  0  0  0  0  0  0
  156.4528  138.4039  163.4911 C   0  0  0  0  0  0  0  0  0  0  0  0
  155.4339  137.5395  164.2528 C   0  0  0  0  0  0  0  0  0  0  0  0
  154.9885  136.4805  163.4128 O   0  0  0  0  0  0  0  0  0  0  0  0
  154.3995  136.9514  162.2054 C   0  0  0  0  0  0  0  0  0  0  0  0
  155.4090  137.8236  161.4379 C   0  0  0  0  0  0  0  0  0  0  0  0
  152.0798  141.8647  158.5527 N   0  0  0  0  0  0  0  0  0  0  0  0
  150.1894  142.4892  155.8673 H   0  0  0  0  0  0  0  0  0  0  0  0
  150.4775  140.8929  156.5509 H   0  0  0  0  0  0  0  0  0  0  0  0
  151.7942  141.7712  155.7749 H   0  0  0  0  0  0  0  0  0  0  0  0
  150.2007  144.4952  157.7960 H   0  0  0  0  0  0  0  0  0  0  0  0
  150.7848  145.7434  160.1758 H   0  0  0  0  0  0  0  0  0  0  0  0
  152.4179  145.3211  160.6866 H   0  0  0  0  0  0  0  0  0  0  0  0
  151.0250  144.5398  161.4407 H   0  0  0  0  0  0  0  0  0  0  0  0
  153.5976  143.1290  161.0990 H   0  0  0  0  0  0  0  0  0  0  0  0
  152.3975  141.9398  161.5645 H   0  0  0  0  0  0  0  0  0  0  0  0
  155.5524  142.3349  160.8954 H   0  0  0  0  0  0  0  0  0  0  0  0
  156.0470  139.7498  159.5910 H   0  0  0  0  0  0  0  0  0  0  0  0
  158.3713  140.5624  159.3089 H   0  0  0  0  0  0  0  0  0  0  0  0
  157.9605  142.0587  160.1437 H   0  0  0  0  0  0  0  0  0  0  0  0
  157.1971  141.6686  158.6067 H   0  0  0  0  0  0  0  0  0  0  0  0
  157.7827  139.1650  161.3315 H   0  0  0  0  0  0  0  0  0  0  0  0
  157.2360  140.5289  162.2476 H   0  0  0  0  0  0  0  0  0  0  0  0
  157.3413  137.8077  163.2765 H   0  0  0  0  0  0  0  0  0  0  0  0
  156.7763  139.2234  164.1338 H   0  0  0  0  0  0  0  0  0  0  0  0
  155.8893  137.1166  165.1483 H   0  0  0  0  0  0  0  0  0  0  0  0
  154.5829  138.1399  164.5781 H   0  0  0  0  0  0  0  0  0  0  0  0
  154.0990  136.0970  161.5988 H   0  0  0  0  0  0  0  0  0  0  0  0
  153.4949  137.5178  162.4325 H   0  0  0  0  0  0  0  0  0  0  0  0
  154.9198  138.1966  160.5398 H   0  0  0  0  0  0  0  0  0  0  0  0
  156.2458  137.2057  161.1087 H   0  0  0  0  0  0  0  0  0  0  0  0
  1  2  1  0  0  0  0
  1 21  1  0  0  0  0
  1 22  1  0  0  0  0
  1 23  1  0  0  0  0
  2 20  2  0  0  0  0
  2  3  1  0  0  0  0
  3  4  2  0  0  0  0
  3 24  1  0  0  0  0
  4  5  1  0  0  0  0
  4  6  1  0  0  0  0
  5 25  1  0  0  0  0
  5 26  1  0  0  0  0
  5 27  1  0  0  0  0
  6  7  1  0  0  0  0
  6 20  1  0  0  0  0
  7  8  1  0  0  0  0
  7 28  1  0  0  0  0
  7 29  1  0  0  0  0
  8  9  2  0  0  0  0
  8 10  1  0  0  0  0
 10 11  1  0  0  0  0
 10 30  1  0  0  0  0
 11 12  1  0  0  0  0
 11 13  1  0  0  0  0
 11 31  1  0  0  0  0
 12 32  1  0  0  0  0
 12 33  1  0  0  0  0
 12 34  1  0  0  0  0
 13 14  1  0  0  0  0
 13 35  1  0  0  0  0
 13 36  1  0  0  0  0
 14 19  1  0  0  0  0
 14 15  1  0  0  0  0
 15 16  1  0  0  0  0
 15 37  1  0  0  0  0
 15 38  1  0  0  0  0
 16 17  1  0  0  0  0
 16 39  1  0  0  0  0
 16 40  1  0  0  0  0
 17 18  1  0  0  0  0
 18 19  1  0  0  0  0
 18 41  1  0  0  0  0
 18 42  1  0  0  0  0
 19 43  1  0  0  0  0
 19 44  1  0  0  0  0
M  END
> <s_m_source_file>
AV-unprocessed.smi

> <i_m_source_file_index>
1959

> <i_lp_mmshare_version>
43012

> <i_f3d_flags>
0

> <s_epik_input>
W0NIM11jMVtjSF1jKFtDSDNdKW4objEpW0NIMl1DKD1PKVtOSF1bQ0BIXShbQ0gzXSlbQ0gyXU4yW0NIMl1bQ0gyXU9bQ0gyXVtDSDJdMg==

> <s_epik_cmdline>
J2VwaWtfcHl0aG9uJywgJy1waCcsICc3LjAnLCAnLXRuJywgJzgnLCAnLW1hJywgJzIwMCcsICctbWV0YWxfYmluZGluZycsICctaW1hZScsICc8aW5maWxlLm1hZT4nLCAnLW9tYWUnLCAnPG91dGZpbGUubWFlPic=

> <r_lp_tautomer_probability>
1

> <r_epik_Ionization_Penalty>
0.197284

> <r_epik_Ionization_Penalty_Charging>
0

> <r_epik_Ionization_Penalty_Neutral>
0.197284

> <r_epik_State_Penalty>
0.186684

> <r_epik_Charging_Adjusted_Penalty>
0.186684

> <i_epik_Tot_Q>
0

> <i_epik_Tot_abs_Q>
0

> <r_epik_Metal_State_Penalty>
0.186639

> <b_epik_Metal_Only>
0

> <s_lp_Force_Field>
OPLS_2005

> <r_lp_Energy>
28.5782

> <b_lp_Chiralities_Consistent>
1

> <s_lp_Variant>
AV-unprocessed.smi:1959-2

> <Gold.Version>
5.8.1

> <Gold.Id.Protein>
6NUR|6NUR_protein|mol2

> <Gold.PLP.Fitness>
41.6232

> <Gold.PLP.PLP>
-42.6255

> <Gold.PLP.part.hbond>
-1.0000

> <Gold.PLP.part.metal>
0.0000

> <Gold.PLP.part.buried>
-6.4331

> <Gold.PLP.part.nonpolar>
-35.6786

> <Gold.PLP.part.repulsive>
0.0921

> <Gold.PLP.ligand.clash>
0.0000

> <Gold.PLP.ligand.torsion>
0.5328

> <Gold.PLP.Chemscore.Hbond>
0.0000

> <Gold.PLP.Chemscore.CHOScore>
0.0000

> <Gold.PLP.Chemscore.Metal>
0.0000

> <Gold.PLP.Chemscore.Internal.Correction>
0.0633

> <Gold.Rescore>
     Score         DG    S(hbond)    S(metal)    S(lipo)     H(rot)  DE(clash)    DE(int)     intcor
     11.75     -13.50       0.00        0.00     105.64       1.70       0.04       1.71       ----

> <Gold.Chemscore.Fitness>
11.7457

> <Gold.Chemscore.DG>
-13.4998

> <Gold.Chemscore.ZeroCoef>
-5.4800

> <Gold.Chemscore.Hbond>
0.0000

> <Gold.Chemscore.Metal>
0.0000

> <Gold.Chemscore.Lipo>
105.6379

> <Gold.Chemscore.Internal_Hbond>
0.0000

> <Gold.Chemscore.DEClash>
0.0445

> <Gold.Chemscore.DEInternal>
1.7096

> <Gold.Chemscore.Rot>
1.6952

> <Gold.Chemscore.Internal.Correction>
   9.000000E+99

> <Gold.Chemscore.Hbond.Weighted>
-0.0000

> <Gold.Chemscore.Metal.Weighted>
-0.0000

> <Gold.Chemscore.Lipo.Weighted>
-12.3596

> <Gold.Chemscore.Internal_Hbond.Weighted>
0.0000

> <Gold.Chemscore.DEClash.Weighted>
0.0445

> <Gold.Chemscore.DEInternal.Weighted>
1.7096

> <Gold.Chemscore.Rot.Weighted>
4.3398

> <Gold.Chemscore.Internal.Correction.Weighted>
   9.000000E+99

> <Gold.Protein.RotatedTorsions>
[ 6907 6896 6895 6894 ] final  -12.32 input  -60.11 | X-H torsion
[ 7974 7965 7964 7962 ] final  -77.40 input  175.53 | X-H torsion
[ 8008 7997 7996 7995 ] final  163.97 input   59.86 | X-H torsion
[ 10167 10162 10161 10158 ] final   -8.88 input  -65.29 | X-H torsion
[ 10718 10713 10712 10709 ] final  146.26 input   66.30 | X-H torsion
[ 10763 10752 10751 10750 ] final   67.05 input  -60.55 | X-H torsion
[ 11005 11000 10999 10996 ] final  143.15 input  -57.11 | X-H torsion

> <Gold.Protein.ActiveResidues>
 VAL166  LYS551  ARG553  GLY616  TRP617  ASP618  TYR619  PRO620  LYS621  CYS622 
 ASP623  PHE694  ASN695  SER759  ASP760  ASP761  ALA762  ILE779  LEU786  VAL792 
 PHE793  MET794  SER795  GLU796  ALA797  LYS798  CYS799  TRP800  GLU811  SER814 

> <Gold.Protein.RotatedAtoms>
  151.3724  135.0925  159.9469 H   0  0  0  0  0  0  0  0  0  0  0  0  # atno 6907 bound_to 6896
  152.5131  133.9151  159.7517 H   0  0  0  0  0  0  0  0  0  0  0  0  # atno 6908 bound_to 6896
  150.9568  133.6434  159.2791 H   0  0  0  0  0  0  0  0  0  0  0  0  # atno 6909 bound_to 6896
  145.6002  140.9410  143.1245 H   0  0  0  0  0  0  0  0  0  0  0  0  # atno 7974 bound_to 7965
  156.1916  140.1709  156.8080 H   0  0  0  0  0  0  0  0  0  0  0  0  # atno 8008 bound_to 7997
  154.5478  140.0723  156.8650 H   0  0  0  0  0  0  0  0  0  0  0  0  # atno 8009 bound_to 7997
  155.3087  140.3366  155.4247 H   0  0  0  0  0  0  0  0  0  0  0  0  # atno 8010 bound_to 7997
  140.7072  143.5919  150.8885 H   0  0  0  0  0  0  0  0  0  0  0  0  # atno 10167 bound_to 10162
  157.3353  131.0927  151.1128 H   0  0  0  0  0  0  0  0  0  0  0  0  # atno 10718 bound_to 10713
  153.0168  135.5298  154.6919 H   0  0  0  0  0  0  0  0  0  0  0  0  # atno 10763 bound_to 10752
  154.6051  135.2872  155.0495 H   0  0  0  0  0  0  0  0  0  0  0  0  # atno 10764 bound_to 10752
  154.1538  135.6559  153.5022 H   0  0  0  0  0  0  0  0  0  0  0  0  # atno 10765 bound_to 10752
  140.0532  134.9245  157.1053 H   0  0  0  0  0  0  0  0  0  0  0  0  # atno 11005 bound_to 11000
  144.7313  139.7718  143.7346 LP  0  0  0  0  0  0  0  0  0  0  0  0  # atno 17320 bound_to 7965
  146.1581  139.4686  143.0005 LP  0  0  0  0  0  0  0  0  0  0  0  0  # atno 17321 bound_to 7965
  139.9645  143.6126  152.2992 LP  0  0  0  0  0  0  0  0  0  0  0  0  # atno 17342 bound_to 10162
  139.6691  144.7661  151.1817 LP  0  0  0  0  0  0  0  0  0  0  0  0  # atno 17343 bound_to 10162
  157.2361  130.6547  149.5870 LP  0  0  0  0  0  0  0  0  0  0  0  0  # atno 17370 bound_to 10713
  155.9700  130.4583  150.5995 LP  0  0  0  0  0  0  0  0  0  0  0  0  # atno 17371 bound_to 10713
  140.3885  134.2210  155.7167 LP  0  0  0  0  0  0  0  0  0  0  0  0  # atno 17394 bound_to 11000
  141.1940  133.8138  157.0776 LP  0  0  0  0  0  0  0  0  0  0  0  0  # atno 17395 bound_to 11000

$$$$
