AV-unprocessed.smi:713|AV-procd|sdf|3478|dock10
  -GOLD-   22720 0473D 1   1.00000     0.00000
 Structure written by MMmdl.
 41 42  0  0  0  0  0  0  0  0  1 V2000
  150.0130  144.4319  159.8216 C   0  0  0  0  0  0  0  0  0  0  0  0
  151.1469  143.7793  159.0051 C   0  0  2  0  0  0  0  0  0  0  0  0
  150.6281  142.6855  158.0592 C   0  0  0  0  0  0  0  0  0  0  0  0
  149.9671  141.7421  158.4950 O   0  0  0  0  0  0  0  0  0  0  0  0
  150.9387  142.8252  156.7605 N   0  0  0  0  0  0  0  0  0  0  0  0
  150.5583  141.9012  155.6964 C   0  0  2  0  0  0  0  0  0  0  0  0
  149.0430  141.6360  155.7639 C   0  0  0  0  0  0  0  0  0  0  0  0
  148.6028  140.6221  154.6967 C   0  0  0  0  0  0  0  0  0  0  0  0
  149.3955  139.3112  154.8129 C   0  0  0  0  0  0  0  0  0  0  0  0
  150.9118  139.5643  154.7347 C   0  0  2  0  0  0  0  0  0  0  0  0
  151.8256  137.9654  154.9152 S   0  0  0  0  0  0  0  0  0  0  0  0
  152.9755  138.3099  156.3115 C   0  0  0  0  0  0  0  0  0  0  0  0
  150.8777  136.9299  155.3547 O   0  0  0  0  0  0  0  0  0  0  0  0
  152.6238  137.7494  153.6988 O   0  0  0  0  0  0  0  0  0  0  0  0
  151.3499  140.5812  155.8071 C   0  0  0  0  0  0  0  0  0  0  0  0
  152.2107  143.2493  159.8509 N   0  0  0  0  0  0  0  0  0  0  0  0
  153.3813  142.6351  159.4537 C   0  0  0  0  0  0  0  0  0  0  0  0
  154.0545  142.2628  160.5818 C   0  0  0  0  0  0  0  0  0  0  0  0
  153.2004  142.6828  161.6385 C   0  0  0  0  0  0  0  0  0  0  0  0
  152.0957  143.2627  161.1998 N   0  0  0  0  0  0  0  0  0  0  0  0
  149.2628  144.8746  159.1655 H   0  0  0  0  0  0  0  0  0  0  0  0
  150.4017  145.2286  160.4565 H   0  0  0  0  0  0  0  0  0  0  0  0
  149.5033  143.7153  160.4670 H   0  0  0  0  0  0  0  0  0  0  0  0
  151.5907  144.5655  158.3917 H   0  0  0  0  0  0  0  0  0  0  0  0
  151.4846  143.6301  156.4892 H   0  0  0  0  0  0  0  0  0  0  0  0
  150.7794  142.3664  154.7336 H   0  0  0  0  0  0  0  0  0  0  0  0
  148.7769  141.2567  156.7518 H   0  0  0  0  0  0  0  0  0  0  0  0
  148.4931  142.5689  155.6325 H   0  0  0  0  0  0  0  0  0  0  0  0
  147.5356  140.4201  154.7937 H   0  0  0  0  0  0  0  0  0  0  0  0
  148.7471  141.0499  153.7039 H   0  0  0  0  0  0  0  0  0  0  0  0
  149.1529  138.8205  155.7564 H   0  0  0  0  0  0  0  0  0  0  0  0
  149.0886  138.6270  154.0215 H   0  0  0  0  0  0  0  0  0  0  0  0
  151.1527  139.9574  153.7464 H   0  0  0  0  0  0  0  0  0  0  0  0
  153.6381  137.4559  156.4491 H   0  0  0  0  0  0  0  0  0  0  0  0
  152.4119  138.4717  157.2295 H   0  0  0  0  0  0  0  0  0  0  0  0
  153.5710  139.1945  156.0862 H   0  0  0  0  0  0  0  0  0  0  0  0
  152.4156  140.7851  155.7108 H   0  0  0  0  0  0  0  0  0  0  0  0
  151.2059  140.1528  156.7999 H   0  0  0  0  0  0  0  0  0  0  0  0
  153.6360  142.5152  158.4110 H   0  0  0  0  0  0  0  0  0  0  0  0
  155.0090  141.7617  160.6429 H   0  0  0  0  0  0  0  0  0  0  0  0
  153.3464  142.5800  162.7038 H   0  0  0  0  0  0  0  0  0  0  0  0
  1  2  1  0  0  0  0
  1 21  1  0  0  0  0
  1 22  1  0  0  0  0
  1 23  1  0  0  0  0
  2  3  1  0  0  0  0
  2 16  1  0  0  0  0
  2 24  1  0  0  0  0
  3  4  2  0  0  0  0
  3  5  1  0  0  0  0
  5  6  1  0  0  0  0
  5 25  1  0  0  0  0
  6 15  1  0  0  0  0
  6  7  1  0  0  0  0
  6 26  1  0  0  0  0
  7  8  1  0  0  0  0
  7 27  1  0  0  0  0
  7 28  1  0  0  0  0
  8  9  1  0  0  0  0
  8 29  1  0  0  0  0
  8 30  1  0  0  0  0
  9 10  1  0  0  0  0
  9 31  1  0  0  0  0
  9 32  1  0  0  0  0
 10 11  1  0  0  0  0
 10 15  1  0  0  0  0
 10 33  1  0  0  0  0
 11 12  1  0  0  0  0
 11 13  2  0  0  0  0
 11 14  2  0  0  0  0
 12 34  1  0  0  0  0
 12 35  1  0  0  0  0
 12 36  1  0  0  0  0
 15 37  1  0  0  0  0
 15 38  1  0  0  0  0
 16 20  1  0  0  0  0
 16 17  1  0  0  0  0
 17 18  2  0  0  0  0
 17 39  1  0  0  0  0
 18 19  1  0  0  0  0
 18 40  1  0  0  0  0
 19 20  2  0  0  0  0
 19 41  1  0  0  0  0
M  END
> <s_m_source_file>
AV-unprocessed.smi

> <i_m_source_file_index>
713

> <i_lp_mmshare_version>
43012

> <i_f3d_flags>
0

> <s_epik_input>
bjFbY0hdW2NIXVtjSF1uMVtDQEhdKFtDSDNdKUMoPU8pW05IXVtDQEBIXTJbQ0gyXVtDSDJdW0NIMl1bQ0BIXShbQ0gyXTIpUyg9TykoPU8pW0NIM10=

> <s_epik_cmdline>
J2VwaWtfcHl0aG9uJywgJy1waCcsICc3LjAnLCAnLXRuJywgJzgnLCAnLW1hJywgJzIwMCcsICctbWV0YWxfYmluZGluZycsICctaW1hZScsICc8aW5maWxlLm1hZT4nLCAnLW9tYWUnLCAnPG91dGZpbGUubWFlPic=

> <r_lp_tautomer_probability>
1

> <r_epik_Ionization_Penalty>
4.07816e-05

> <r_epik_Ionization_Penalty_Charging>
0

> <r_epik_Ionization_Penalty_Neutral>
4.07816e-05

> <r_epik_State_Penalty>
-0

> <r_epik_Charging_Adjusted_Penalty>
0

> <i_epik_Tot_Q>
0

> <i_epik_Tot_abs_Q>
0

> <r_epik_Metal_State_Penalty>
-0

> <b_epik_Metal_Only>
0

> <s_lp_Force_Field>
OPLS_2005

> <r_lp_Energy>
7.47495

> <b_lp_Chiralities_Consistent>
1

> <s_lp_Variant>
AV-unprocessed.smi:713-5

> <Gold.Version>
5.8.1

> <Gold.Id.Protein>
6NUR|6NUR_protein|mol2

> <Gold.PLP.Fitness>
43.9848

> <Gold.PLP.PLP>
-42.1645

> <Gold.PLP.part.hbond>
-2.7124

> <Gold.PLP.part.metal>
0.0000

> <Gold.PLP.part.buried>
-5.6491

> <Gold.PLP.part.nonpolar>
-34.7187

> <Gold.PLP.part.repulsive>
0.4465

> <Gold.PLP.ligand.clash>
0.0000

> <Gold.PLP.ligand.torsion>
0.3653

> <Gold.PLP.Chemscore.Hbond>
0.7716

> <Gold.PLP.Chemscore.CHOScore>
0.0000

> <Gold.PLP.Chemscore.Metal>
0.0000

> <Gold.Chemscore.Hbonds>
donor molecule, donor type, donor heavy atom, donor atom, acceptor molecule, acceptor atom, score
      P1  H 10752 10765       L1    14  0.48

> <Gold.PLP.Chemscore.Internal.Correction>
0.2361

> <Gold.Rescore>
     Score         DG    S(hbond)    S(metal)    S(lipo)     H(rot)  DE(clash)    DE(int)     intcor
     12.72     -15.15       0.94        0.00      93.42       1.72       0.24       2.18       ----

> <Gold.Chemscore.Fitness>
12.7190

> <Gold.Chemscore.DG>
-15.1485

> <Gold.Chemscore.ZeroCoef>
-5.4800

> <Gold.Chemscore.Hbond>
0.9442

> <Gold.Chemscore.Metal>
0.0000

> <Gold.Chemscore.Lipo>
93.4246

> <Gold.Chemscore.Internal_Hbond>
0.0000

> <Gold.Chemscore.DEClash>
0.2446

> <Gold.Chemscore.DEInternal>
2.1849

> <Gold.Chemscore.Rot>
1.7249

> <Gold.Chemscore.Internal.Correction>
   9.000000E+99

> <Gold.Chemscore.Hbonds>
donor molecule, donor type, donor heavy atom, donor atom, acceptor molecule, acceptor atom, score
      P1  H 10752 10765       L1    14  0.08

> <Gold.Chemscore.Hbond.Weighted>
-3.1535

> <Gold.Chemscore.Metal.Weighted>
-0.0000

> <Gold.Chemscore.Lipo.Weighted>
-10.9307

> <Gold.Chemscore.Internal_Hbond.Weighted>
0.0000

> <Gold.Chemscore.DEClash.Weighted>
0.2446

> <Gold.Chemscore.DEInternal.Weighted>
2.1849

> <Gold.Chemscore.Rot.Weighted>
4.4157

> <Gold.Chemscore.Internal.Correction.Weighted>
   9.000000E+99

> <Gold.Protein.RotatedTorsions>
[ 6907 6896 6895 6894 ] final -149.76 input  -60.11 | X-H torsion
[ 7974 7965 7964 7962 ] final   14.58 input  175.53 | X-H torsion
[ 8008 7997 7996 7995 ] final  -57.60 input   59.86 | X-H torsion
[ 10167 10162 10161 10158 ] final -101.59 input  -65.29 | X-H torsion
[ 10718 10713 10712 10709 ] final  152.66 input   66.30 | X-H torsion
[ 10763 10752 10751 10750 ] final  146.92 input  -60.55 | X-H torsion
[ 11005 11000 10999 10996 ] final   47.54 input  -57.11 | X-H torsion

> <Gold.Protein.ActiveResidues>
 VAL166  LYS551  ARG553  GLY616  TRP617  ASP618  TYR619  PRO620  LYS621  CYS622 
 ASP623  PHE694  ASN695  SER759  ASP760  ASP761  ALA762  ILE779  LEU786  VAL792 
 PHE793  MET794  SER795  GLU796  ALA797  LYS798  CYS799  TRP800  GLU811  SER814 

> <Gold.Protein.RotatedAtoms>
  151.1887  133.4680  159.2594 H   0  0  0  0  0  0  0  0  0  0  0  0  # atno 6907 bound_to 6896
  151.1185  135.0066  159.8537 H   0  0  0  0  0  0  0  0  0  0  0  0  # atno 6908 bound_to 6896
  152.5454  134.1801  159.8685 H   0  0  0  0  0  0  0  0  0  0  0  0  # atno 6909 bound_to 6896
  146.2301  139.9020  142.8538 H   0  0  0  0  0  0  0  0  0  0  0  0  # atno 7974 bound_to 7965
  154.4274  140.1103  156.5823 H   0  0  0  0  0  0  0  0  0  0  0  0  # atno 8008 bound_to 7997
  155.6099  140.3494  155.4600 H   0  0  0  0  0  0  0  0  0  0  0  0  # atno 8009 bound_to 7997
  156.0107  140.1218  157.0446 H   0  0  0  0  0  0  0  0  0  0  0  0  # atno 8010 bound_to 7997
  140.2397  143.3547  152.0813 H   0  0  0  0  0  0  0  0  0  0  0  0  # atno 10167 bound_to 10162
  157.2549  131.0786  151.1705 H   0  0  0  0  0  0  0  0  0  0  0  0  # atno 10718 bound_to 10713
  154.0298  135.2898  155.3370 H   0  0  0  0  0  0  0  0  0  0  0  0  # atno 10763 bound_to 10752
  154.6995  135.5194  153.8509 H   0  0  0  0  0  0  0  0  0  0  0  0  # atno 10764 bound_to 10752
  153.0645  135.6626  154.0512 H   0  0  0  0  0  0  0  0  0  0  0  0  # atno 10765 bound_to 10752
  140.1270  134.4755  155.8551 H   0  0  0  0  0  0  0  0  0  0  0  0  # atno 11005 bound_to 11000
  145.2313  140.9974  143.3989 LP  0  0  0  0  0  0  0  0  0  0  0  0  # atno 17320 bound_to 7965
  144.9528  139.4064  143.6394 LP  0  0  0  0  0  0  0  0  0  0  0  0  # atno 17321 bound_to 7965
  139.5081  144.6845  151.5924 LP  0  0  0  0  0  0  0  0  0  0  0  0  # atno 17342 bound_to 10162
  140.6123  143.9413  150.6462 LP  0  0  0  0  0  0  0  0  0  0  0  0  # atno 17343 bound_to 10162
  157.3238  130.6950  149.6284 LP  0  0  0  0  0  0  0  0  0  0  0  0  # atno 17370 bound_to 10713
  155.9665  130.4327  150.4977 LP  0  0  0  0  0  0  0  0  0  0  0  0  # atno 17371 bound_to 10713
  141.2163  133.6781  156.6997 LP  0  0  0  0  0  0  0  0  0  0  0  0  # atno 17394 bound_to 11000
  140.2891  134.8255  157.4001 LP  0  0  0  0  0  0  0  0  0  0  0  0  # atno 17395 bound_to 11000

$$$$
