AV-unprocessed.smi:36|AV-procd|sdf|297|dock9
  -GOLD-   2262016 93D 1   1.00000     0.00000
 Structure written by MMmdl.
 63 66  0  0  0  0  0  0  0  0  2 V2000
  146.8663  133.6432  162.1572 C   0  0  0  0  0  0  0  0  0  0  0  0
  146.3873  135.0971  162.0139 C   0  0  0  0  0  0  0  0  0  0  0  0
  145.0272  135.2690  162.7102 C   0  0  0  0  0  0  0  0  0  0  0  0
  147.4152  136.0530  162.6428 C   0  0  0  0  0  0  0  0  0  0  0  0
  146.1956  135.5256  160.1617 Si  0  0  0  0  0  0  0  0  0  0  0  0
  144.8901  134.4213  159.3323 C   0  0  0  0  0  0  0  0  0  0  0  0
  145.7377  137.3537  159.9227 C   0  0  0  0  0  0  0  0  0  0  0  0
  147.6866  135.2497  159.4134 O   0  0  0  0  0  0  0  0  0  0  0  0
  148.2504  133.9675  159.2402 C   0  0  0  0  0  0  0  0  0  0  0  0
  148.6943  133.8147  157.7801 C   0  0  2  0  0  0  0  0  0  0  0  0
  150.0702  134.1720  157.6240 O   0  0  0  0  0  0  0  0  0  0  0  0
  150.2412  134.9871  156.5003 C   0  0  2  0  0  0  0  0  0  0  0  0
  150.4274  136.4002  156.9627 N   0  0  0  0  0  0  0  0  0  0  0  0
  149.5104  137.2931  157.3924 C   0  0  0  0  0  0  0  0  0  0  0  0
  149.9490  138.4959  157.7588 N   0  0  0  0  0  0  0  0  0  0  0  0
  151.3156  138.3688  157.5590 C   0  0  0  0  0  0  0  0  0  0  0  0
  152.4012  139.2667  157.7489 C   0  0  0  0  0  0  0  0  0  0  0  0
  152.2360  140.5163  158.2077 N   0  5  0  0  0  0  0  0  0  0  0  0
  152.7663  140.8729  159.4049 C   0  0  0  0  0  0  0  0  0  0  0  0
  153.3801  140.1619  160.2035 O   0  0  0  0  0  0  0  0  0  0  0  0
  152.4794  142.3026  159.7781 C   0  0  0  0  0  0  0  0  0  0  0  0
  152.1904  143.2459  158.7657 C   0  0  0  0  0  0  0  0  0  0  0  0
  151.8973  144.5835  159.0958 C   0  0  0  0  0  0  0  0  0  0  0  0
  151.8796  144.9896  160.4431 C   0  0  0  0  0  0  0  0  0  0  0  0
  152.1522  144.0563  161.4606 C   0  0  0  0  0  0  0  0  0  0  0  0
  152.4462  142.7186  161.1315 C   0  0  0  0  0  0  0  0  0  0  0  0
  153.6438  138.7983  157.4652 N   0  0  0  0  0  0  0  0  0  0  0  0
  153.8092  137.5490  157.0148 C   0  0  0  0  0  0  0  0  0  0  0  0
  152.8867  136.6098  156.7835 N   0  0  0  0  0  0  0  0  0  0  0  0
  151.6341  137.0683  157.0724 C   0  0  0  0  0  0  0  0  0  0  0  0
  148.9511  134.8712  155.6882 C   0  0  0  0  0  0  0  0  0  0  0  0
  147.9223  134.6879  156.7845 C   0  0  1  0  0  0  0  0  0  0  0  0
  146.7631  134.0505  156.2889 O   0  0  0  0  0  0  0  0  0  0  0  0
  146.9834  133.3670  163.2057 H   0  0  0  0  0  0  0  0  0  0  0  0
  147.8287  133.4906  161.6681 H   0  0  0  0  0  0  0  0  0  0  0  0
  146.1562  132.9457  161.7121 H   0  0  0  0  0  0  0  0  0  0  0  0
  144.2775  134.5979  162.2901 H   0  0  0  0  0  0  0  0  0  0  0  0
  144.6534  136.2878  162.6032 H   0  0  0  0  0  0  0  0  0  0  0  0
  145.0978  135.0544  163.7771 H   0  0  0  0  0  0  0  0  0  0  0  0
  147.5375  135.8587  163.7089 H   0  0  0  0  0  0  0  0  0  0  0  0
  147.1086  137.0938  162.5304 H   0  0  0  0  0  0  0  0  0  0  0  0
  148.3949  135.9474  162.1765 H   0  0  0  0  0  0  0  0  0  0  0  0
  143.9149  134.5285  159.8070 H   0  0  0  0  0  0  0  0  0  0  0  0
  145.1644  133.3679  159.3849 H   0  0  0  0  0  0  0  0  0  0  0  0
  144.7657  134.6706  158.2786 H   0  0  0  0  0  0  0  0  0  0  0  0
  144.7884  137.5947  160.4004 H   0  0  0  0  0  0  0  0  0  0  0  0
  145.6422  137.6070  158.8671 H   0  0  0  0  0  0  0  0  0  0  0  0
  146.4928  138.0148  160.3474 H   0  0  0  0  0  0  0  0  0  0  0  0
  149.0861  133.8273  159.9255 H   0  0  0  0  0  0  0  0  0  0  0  0
  147.4967  133.2181  159.4836 H   0  0  0  0  0  0  0  0  0  0  0  0
  148.6221  132.7666  157.4844 H   0  0  0  0  0  0  0  0  0  0  0  0
  151.1516  134.7543  155.9470 H   0  0  0  0  0  0  0  0  0  0  0  0
  148.4598  137.0524  157.4444 H   0  0  0  0  0  0  0  0  0  0  0  0
  152.1986  142.9496  157.7268 H   0  0  0  0  0  0  0  0  0  0  0  0
  151.6843  145.2972  158.3137 H   0  0  0  0  0  0  0  0  0  0  0  0
  151.6541  146.0150  160.6960 H   0  0  0  0  0  0  0  0  0  0  0  0
  152.1336  144.3645  162.4955 H   0  0  0  0  0  0  0  0  0  0  0  0
  152.6424  142.0152  161.9279 H   0  0  0  0  0  0  0  0  0  0  0  0
  154.8295  137.2600  156.8108 H   0  0  0  0  0  0  0  0  0  0  0  0
  148.7756  135.7402  155.0532 H   0  0  0  0  0  0  0  0  0  0  0  0
  149.0217  133.9824  155.0592 H   0  0  0  0  0  0  0  0  0  0  0  0
  147.6621  135.6518  157.2244 H   0  0  0  0  0  0  0  0  0  0  0  0
  146.6688  133.2182  156.7258 H   0  0  0  0  0  0  0  0  0  0  0  0
  1  2  1  0  0  0  0
  1 34  1  0  0  0  0
  1 35  1  0  0  0  0
  1 36  1  0  0  0  0
  2  3  1  0  0  0  0
  2  4  1  0  0  0  0
  2  5  1  0  0  0  0
  3 37  1  0  0  0  0
  3 38  1  0  0  0  0
  3 39  1  0  0  0  0
  4 40  1  0  0  0  0
  4 41  1  0  0  0  0
  4 42  1  0  0  0  0
  5  6  1  0  0  0  0
  5  7  1  0  0  0  0
  5  8  1  0  0  0  0
  6 43  1  0  0  0  0
  6 44  1  0  0  0  0
  6 45  1  0  0  0  0
  7 46  1  0  0  0  0
  7 47  1  0  0  0  0
  7 48  1  0  0  0  0
  8  9  1  0  0  0  0
  9 10  1  0  0  0  0
  9 49  1  0  0  0  0
  9 50  1  0  0  0  0
 10 32  1  0  0  0  0
 10 11  1  0  0  0  0
 10 51  1  0  0  0  0
 11 12  1  0  0  0  0
 12 13  1  0  0  0  0
 12 31  1  0  0  0  0
 12 52  1  0  0  0  0
 13 30  1  0  0  0  0
 13 14  1  0  0  0  0
 14 15  2  0  0  0  0
 14 53  1  0  0  0  0
 15 16  1  0  0  0  0
 16 30  2  0  0  0  0
 16 17  1  0  0  0  0
 17 18  1  0  0  0  0
 17 27  2  0  0  0  0
 18 19  1  0  0  0  0
 19 20  2  0  0  0  0
 19 21  1  0  0  0  0
 21 26  1  0  0  0  0
 21 22  2  0  0  0  0
 22 23  1  0  0  0  0
 22 54  1  0  0  0  0
 23 24  2  0  0  0  0
 23 55  1  0  0  0  0
 24 25  1  0  0  0  0
 24 56  1  0  0  0  0
 25 26  2  0  0  0  0
 25 57  1  0  0  0  0
 26 58  1  0  0  0  0
 27 28  1  0  0  0  0
 28 29  2  0  0  0  0
 28 59  1  0  0  0  0
 29 30  1  0  0  0  0
 31 32  1  0  0  0  0
 31 60  1  0  0  0  0
 31 61  1  0  0  0  0
 32 33  1  0  0  0  0
 32 62  1  0  0  0  0
 33 63  1  0  0  0  0
M  CHG  1  18  -1
M  END
> <s_m_source_file>
AV-unprocessed.smi

> <i_m_source_file_index>
36

> <i_lp_mmshare_version>
43012

> <i_f3d_flags>
0

> <s_epik_input>
W0NIM11DKFtDSDNdKShbQ0gzXSlbU2ldKFtDSDNdKShbQ0gzXSlPW0NIMl1bQ0BASF0xT1tDQEhdKFtDSDJdW0NASF0xW09IXSluKFtjSF1uMiljKGMyMyluW2NIXW5jM1tOSF1DKD1PKWM0W2NIXVtjSF1bY0hdW2NIXVtjSF00

> <s_epik_cmdline>
J2VwaWtfcHl0aG9uJywgJy1waCcsICc3LjAnLCAnLXRuJywgJzgnLCAnLW1hJywgJzIwMCcsICctbWV0YWxfYmluZGluZycsICctaW1hZScsICc8aW5maWxlLm1hZT4nLCAnLW9tYWUnLCAnPG91dGZpbGUubWFlPic=

> <r_lp_tautomer_probability>
1

> <r_epik_Ionization_Penalty>
4.75685

> <r_epik_Ionization_Penalty_Charging>
3.55822

> <r_epik_Ionization_Penalty_Neutral>
1.19863

> <r_epik_State_Penalty>
3.564

> <r_epik_Charging_Adjusted_Penalty>
7.12222

> <i_epik_Tot_Q>
-1

> <i_epik_Tot_abs_Q>
1

> <r_epik_Metal_State_Penalty>
0.523258

> <b_epik_Metal_Only>
1

> <s_epik_Chemistry_Notes>
This compound contains an acetal/aminal-like group ( X-CH(R)-Y where X, Y are N, S, or O) that may be acid/base labile, releasing an aldehyde.

> <s_lp_Force_Field>
OPLS_2005

> <r_lp_Energy>
31.8386

> <b_lp_Chiralities_Consistent>
1

> <s_lp_Variant>
AV-unprocessed.smi:36-19

> <Gold.Version>
5.8.1

> <Gold.Id.Protein>
6NUR|6NUR_protein|mol2

> <Gold.PLP.Fitness>
56.3938

> <Gold.PLP.PLP>
-51.8722

> <Gold.PLP.part.hbond>
-3.0000

> <Gold.PLP.part.metal>
0.0000

> <Gold.PLP.part.buried>
-7.6711

> <Gold.PLP.part.nonpolar>
-41.8365

> <Gold.PLP.part.repulsive>
0.0000

> <Gold.PLP.ligand.clash>
0.0000

> <Gold.PLP.ligand.torsion>
2.3031

> <Gold.PLP.Chemscore.Hbond>
2.9120

> <Gold.PLP.Chemscore.CHOScore>
0.0000

> <Gold.PLP.Chemscore.Metal>
0.0000

> <Gold.Chemscore.Hbonds>
donor molecule, donor type, donor heavy atom, donor atom, acceptor molecule, acceptor atom, score
      P1  H  6896  6908       L1    11  0.93
      P1  H  7997  8010       L1    27  0.98
      P1  H 10752 10764       L1    29  1.00

> <Gold.PLP.Chemscore.Internal.Correction>
0.3919

> <Gold.Rescore>
     Score         DG    S(hbond)    S(metal)    S(lipo)     H(rot)  DE(clash)    DE(int)     intcor
     17.20     -19.11       1.91        0.00     120.40       2.67       0.00       1.91       ----

> <Gold.Chemscore.Fitness>
17.1967

> <Gold.Chemscore.DG>
-19.1087

> <Gold.Chemscore.ZeroCoef>
-5.4800

> <Gold.Chemscore.Hbond>
1.9094

> <Gold.Chemscore.Metal>
0.0000

> <Gold.Chemscore.Lipo>
120.4028

> <Gold.Chemscore.Internal_Hbond>
0.0000

> <Gold.Chemscore.DEClash>
0.0000

> <Gold.Chemscore.DEInternal>
1.9120

> <Gold.Chemscore.Rot>
2.6702

> <Gold.Chemscore.Internal.Correction>
   9.000000E+99

> <Gold.Chemscore.Hbonds>
donor molecule, donor type, donor heavy atom, donor atom, acceptor molecule, acceptor atom, score
      P1  H  6896  6908       L1    11  0.36
      P1  H  7997  8010       L1    27  0.50
      P1  H 10752 10764       L1    29  0.77

> <Gold.Chemscore.Hbond.Weighted>
-6.3773

> <Gold.Chemscore.Metal.Weighted>
-0.0000

> <Gold.Chemscore.Lipo.Weighted>
-14.0871

> <Gold.Chemscore.Internal_Hbond.Weighted>
0.0000

> <Gold.Chemscore.DEClash.Weighted>
0.0000

> <Gold.Chemscore.DEInternal.Weighted>
1.9120

> <Gold.Chemscore.Rot.Weighted>
6.8358

> <Gold.Chemscore.Internal.Correction.Weighted>
   9.000000E+99

> <Gold.Protein.RotatedTorsions>
[ 6907 6896 6895 6894 ] final  126.84 input  -60.11 | X-H torsion
[ 7974 7965 7964 7962 ] final -167.84 input  175.53 | X-H torsion
[ 8008 7997 7996 7995 ] final   55.79 input   59.86 | X-H torsion
[ 10167 10162 10161 10158 ] final   96.93 input  -65.29 | X-H torsion
[ 10718 10713 10712 10709 ] final  163.00 input   66.30 | X-H torsion
[ 10763 10752 10751 10750 ] final  -13.53 input  -60.55 | X-H torsion
[ 11005 11000 10999 10996 ] final  -35.42 input  -57.11 | X-H torsion

> <Gold.Protein.ActiveResidues>
 VAL166  LYS551  ARG553  GLY616  TRP617  ASP618  TYR619  PRO620  LYS621  CYS622 
 ASP623  PHE694  ASN695  SER759  ASP760  ASP761  ALA762  ILE779  LEU786  VAL792 
 PHE793  MET794  SER795  GLU796  ALA797  LYS798  CYS799  TRP800  GLU811  SER814 

> <Gold.Protein.RotatedAtoms>
  152.3867  133.6621  159.6204 H   0  0  0  0  0  0  0  0  0  0  0  0  # atno 6907 bound_to 6896
  150.7785  133.9023  159.3353 H   0  0  0  0  0  0  0  0  0  0  0  0  # atno 6908 bound_to 6896
  151.6818  135.0962  160.0268 H   0  0  0  0  0  0  0  0  0  0  0  0  # atno 6909 bound_to 6896
  144.7215  140.2458  143.6285 H   0  0  0  0  0  0  0  0  0  0  0  0  # atno 7974 bound_to 7965
  155.5068  140.3476  155.4381 H   0  0  0  0  0  0  0  0  0  0  0  0  # atno 8008 bound_to 7997
  156.0876  140.1402  156.9661 H   0  0  0  0  0  0  0  0  0  0  0  0  # atno 8009 bound_to 7997
  154.4616  140.0933  156.6884 H   0  0  0  0  0  0  0  0  0  0  0  0  # atno 8010 bound_to 7997
  139.7848  144.6875  150.9973 H   0  0  0  0  0  0  0  0  0  0  0  0  # atno 10167 bound_to 10162
  157.1146  131.0477  151.2442 H   0  0  0  0  0  0  0  0  0  0  0  0  # atno 10718 bound_to 10713
  153.5147  135.7016  153.5763 H   0  0  0  0  0  0  0  0  0  0  0  0  # atno 10763 bound_to 10752
  153.3838  135.3913  155.1875 H   0  0  0  0  0  0  0  0  0  0  0  0  # atno 10764 bound_to 10752
  154.8700  135.3841  154.4630 H   0  0  0  0  0  0  0  0  0  0  0  0  # atno 10765 bound_to 10752
  140.9795  133.7064  156.1659 H   0  0  0  0  0  0  0  0  0  0  0  0  # atno 11005 bound_to 11000
  145.8276  139.2071  143.1902 LP  0  0  0  0  0  0  0  0  0  0  0  0  # atno 17320 bound_to 7965
  146.0459  140.8118  142.9805 LP  0  0  0  0  0  0  0  0  0  0  0  0  # atno 17321 bound_to 7965
  140.7819  143.4444  151.0504 LP  0  0  0  0  0  0  0  0  0  0  0  0  # atno 17342 bound_to 10162
  139.8123  143.7934  152.3172 LP  0  0  0  0  0  0  0  0  0  0  0  0  # atno 17343 bound_to 10162
  157.4529  130.7609  149.7167 LP  0  0  0  0  0  0  0  0  0  0  0  0  # atno 17370 bound_to 10713
  155.9842  130.3993  150.3322 LP  0  0  0  0  0  0  0  0  0  0  0  0  # atno 17371 bound_to 10713
  140.7208  134.4360  157.5575 LP  0  0  0  0  0  0  0  0  0  0  0  0  # atno 17394 bound_to 11000
  139.8944  134.8707  156.2178 LP  0  0  0  0  0  0  0  0  0  0  0  0  # atno 17395 bound_to 11000

$$$$
