AV-unprocessed.smi:497|AV-procd|sdf|2727|dock9
  -GOLD-   2262023173D 1   1.00000     0.00000
 Structure written by MMmdl.
 39 41  0  0  0  0  0  0  0  0  3 V2000
  151.2311  137.9537  154.4266 C   0  0  0  0  0  0  0  0  0  0  0  0
  151.5056  139.3135  154.7131 O   0  0  0  0  0  0  0  0  0  0  0  0
  152.5681  139.4677  155.6396 C   0  0  0  0  0  0  0  0  0  0  0  0
  152.0167  139.7150  157.0537 C   0  0  0  0  0  0  0  0  0  0  0  0
  151.4954  141.0879  157.2312 N   0  0  0  0  0  0  0  0  0  0  0  0
  150.5909  141.8216  156.5024 C   0  0  0  0  0  0  0  0  0  0  0  0
  149.8329  141.4251  155.2677 C   0  0  0  0  0  0  0  0  0  0  0  0
  148.3984  141.6214  155.4470 N   0  5  0  0  0  0  0  0  0  0  0  0
  147.4928  141.6366  154.4292 C   0  0  0  0  0  0  0  0  0  0  0  0
  147.4917  141.0102  153.3642 O   0  0  0  0  0  0  0  0  0  0  0  0
  146.3767  142.5772  154.6856 C   0  0  0  0  0  0  0  0  0  0  0  0
  145.5972  143.2789  153.8048 C   0  0  0  0  0  0  0  0  0  0  0  0
  144.6874  144.0479  154.5821 C   0  0  0  0  0  0  0  0  0  0  0  0
  144.9735  143.7628  155.8858 C   0  0  0  0  0  0  0  0  0  0  0  0
  145.9974  142.8713  155.9678 O   0  0  0  0  0  0  0  0  0  0  0  0
  150.4889  143.0399  157.1047 N   0  3  0  0  0  0  0  0  0  0  0  0
  151.3211  143.0948  158.2215 C   0  0  0  0  0  0  0  0  0  0  0  0
  151.5491  144.1186  159.1358 C   0  0  0  0  0  0  0  0  0  0  0  0
  152.4711  143.8510  160.1686 C   0  0  0  0  0  0  0  0  0  0  0  0
  153.1258  142.6061  160.2624 C   0  0  0  0  0  0  0  0  0  0  0  0
  152.8854  141.5767  159.3288 C   0  0  0  0  0  0  0  0  0  0  0  0
  151.9706  141.8471  158.3102 C   0  0  0  0  0  0  0  0  0  0  0  0
  150.4092  137.8889  153.7141 H   0  0  0  0  0  0  0  0  0  0  0  0
  150.9384  137.4124  155.3273 H   0  0  0  0  0  0  0  0  0  0  0  0
  152.0987  137.4603  153.9872 H   0  0  0  0  0  0  0  0  0  0  0  0
  153.1905  138.5733  155.6339 H   0  0  0  0  0  0  0  0  0  0  0  0
  153.2031  140.3021  155.3393 H   0  0  0  0  0  0  0  0  0  0  0  0
  151.2103  139.0125  157.2646 H   0  0  0  0  0  0  0  0  0  0  0  0
  152.7798  139.5220  157.8072 H   0  0  0  0  0  0  0  0  0  0  0  0
  150.2428  141.9954  154.4332 H   0  0  0  0  0  0  0  0  0  0  0  0
  150.0627  140.3823  155.0459 H   0  0  0  0  0  0  0  0  0  0  0  0
  145.6762  143.2450  152.7283 H   0  0  0  0  0  0  0  0  0  0  0  0
  143.9225  144.7246  154.2316 H   0  0  0  0  0  0  0  0  0  0  0  0
  144.5693  144.0887  156.8326 H   0  0  0  0  0  0  0  0  0  0  0  0
  151.0494  145.0733  159.0627 H   0  0  0  0  0  0  0  0  0  0  0  0
  152.6816  144.6160  160.9017 H   0  0  0  0  0  0  0  0  0  0  0  0
  153.8285  142.4370  161.0652 H   0  0  0  0  0  0  0  0  0  0  0  0
  153.3993  140.6302  159.4065 H   0  0  0  0  0  0  0  0  0  0  0  0
  149.8916  143.7804  156.7609 H   0  0  0  0  0  0  0  0  0  0  0  0
  1  2  1  0  0  0  0
  1 23  1  0  0  0  0
  1 24  1  0  0  0  0
  1 25  1  0  0  0  0
  2  3  1  0  0  0  0
  3  4  1  0  0  0  0
  3 26  1  0  0  0  0
  3 27  1  0  0  0  0
  4  5  1  0  0  0  0
  4 28  1  0  0  0  0
  4 29  1  0  0  0  0
  5 22  1  0  0  0  0
  5  6  1  0  0  0  0
  6  7  1  0  0  0  0
  6 16  2  0  0  0  0
  7  8  1  0  0  0  0
  7 30  1  0  0  0  0
  7 31  1  0  0  0  0
  8  9  1  0  0  0  0
  9 10  2  0  0  0  0
  9 11  1  0  0  0  0
 11 15  1  0  0  0  0
 11 12  2  0  0  0  0
 12 13  1  0  0  0  0
 12 32  1  0  0  0  0
 13 14  2  0  0  0  0
 13 33  1  0  0  0  0
 14 15  1  0  0  0  0
 14 34  1  0  0  0  0
 16 17  1  0  0  0  0
 16 39  1  0  0  0  0
 17 22  2  0  0  0  0
 17 18  1  0  0  0  0
 18 19  2  0  0  0  0
 18 35  1  0  0  0  0
 19 20  1  0  0  0  0
 19 36  1  0  0  0  0
 20 21  2  0  0  0  0
 20 37  1  0  0  0  0
 21 22  1  0  0  0  0
 21 38  1  0  0  0  0
M  CHG  1   8  -1
M  CHG  1  16   1
M  END
> <s_m_source_file>
AV-unprocessed.smi

> <i_m_source_file_index>
497

> <i_lp_mmshare_version>
43012

> <i_f3d_flags>
0

> <s_epik_input>
W2NIXTFbY0hdW2NIXVtjSF1jKGMxMiluKFtDSDJdW0NIMl1PW0NIM10pYyhuMilbQ0gyXVtOSF1DKD1PKWMzW2NIXVtjSF1bY0hdbzM=

> <s_epik_cmdline>
J2VwaWtfcHl0aG9uJywgJy1waCcsICc3LjAnLCAnLXRuJywgJzgnLCAnLW1hJywgJzIwMCcsICctbWV0YWxfYmluZGluZycsICctaW1hZScsICc8aW5maWxlLm1hZT4nLCAnLW9tYWUnLCAnPG91dGZpbGUubWFlPic=

> <r_epik_Ionization_Penalty>
6.0511

> <r_epik_Ionization_Penalty_Charging>
6.0511

> <r_epik_Ionization_Penalty_Neutral>
2.61117e-12

> <r_epik_State_Penalty>
7.24158

> <r_epik_Charging_Adjusted_Penalty>
13.2927

> <i_epik_Tot_Q>
0

> <i_epik_Tot_abs_Q>
2

> <r_epik_Metal_State_Penalty>
3.25464

> <b_epik_Metal_Only>
1

> <s_lp_Force_Field>
OPLS_2005

> <r_lp_Energy>
9.23096

> <b_lp_Chiralities_Consistent>
1

> <s_lp_Variant>
AV-unprocessed.smi:497-4

> <Gold.Version>
5.8.1

> <Gold.Id.Protein>
6NUR|6NUR_protein|mol2

> <Gold.PLP.Fitness>
56.7673

> <Gold.PLP.PLP>
-49.7786

> <Gold.PLP.part.hbond>
-2.0000

> <Gold.PLP.part.metal>
0.0000

> <Gold.PLP.part.buried>
-6.7104

> <Gold.PLP.part.nonpolar>
-42.7494

> <Gold.PLP.part.repulsive>
0.6313

> <Gold.PLP.ligand.clash>
0.0000

> <Gold.PLP.ligand.torsion>
1.0722

> <Gold.PLP.Chemscore.Hbond>
3.0000

> <Gold.PLP.Chemscore.CHOScore>
0.0000

> <Gold.PLP.Chemscore.Metal>
0.0000

> <Gold.Chemscore.Hbonds>
donor molecule, donor type, donor heavy atom, donor atom, acceptor molecule, acceptor atom, score
      L1  H    16    39       P1  8028  2.00
      P1  H  7989  7998       L1     2  1.00

> <Gold.PLP.Chemscore.Internal.Correction>
0.1331

> <Gold.Rescore>
     Score         DG    S(hbond)    S(metal)    S(lipo)     H(rot)  DE(clash)    DE(int)     intcor
     17.97     -20.50       1.93        0.00     114.69       1.89       0.38       2.15       ----

> <Gold.Chemscore.Fitness>
17.9668

> <Gold.Chemscore.DG>
-20.4992

> <Gold.Chemscore.ZeroCoef>
-5.4800

> <Gold.Chemscore.Hbond>
1.9271

> <Gold.Chemscore.Metal>
0.0000

> <Gold.Chemscore.Lipo>
114.6905

> <Gold.Chemscore.Internal_Hbond>
0.0000

> <Gold.Chemscore.DEClash>
0.3773

> <Gold.Chemscore.DEInternal>
2.1550

> <Gold.Chemscore.Rot>
1.8892

> <Gold.Chemscore.Internal.Correction>
   9.000000E+99

> <Gold.Chemscore.Hbonds>
donor molecule, donor type, donor heavy atom, donor atom, acceptor molecule, acceptor atom, score
      L1  H    16    39       P1  8028  0.99
      P1  H  7989  7998       L1     2  0.49

> <Gold.Chemscore.Hbond.Weighted>
-6.4366

> <Gold.Chemscore.Metal.Weighted>
-0.0000

> <Gold.Chemscore.Lipo.Weighted>
-13.4188

> <Gold.Chemscore.Internal_Hbond.Weighted>
0.0000

> <Gold.Chemscore.DEClash.Weighted>
0.3773

> <Gold.Chemscore.DEInternal.Weighted>
2.1550

> <Gold.Chemscore.Rot.Weighted>
4.8363

> <Gold.Chemscore.Internal.Correction.Weighted>
   9.000000E+99

> <Gold.Protein.RotatedTorsions>
[ 6907 6896 6895 6894 ] final  -53.35 input  -60.11 | X-H torsion
[ 7974 7965 7964 7962 ] final  -58.59 input  175.53 | X-H torsion
[ 8008 7997 7996 7995 ] final  116.44 input   59.86 | X-H torsion
[ 10167 10162 10161 10158 ] final  -57.89 input  -65.29 | X-H torsion
[ 10718 10713 10712 10709 ] final -106.41 input   66.30 | X-H torsion
[ 10763 10752 10751 10750 ] final   21.47 input  -60.55 | X-H torsion
[ 11005 11000 10999 10996 ] final   43.07 input  -57.11 | X-H torsion

> <Gold.Protein.ActiveResidues>
 VAL166  LYS551  ARG553  GLY616  TRP617  ASP618  TYR619  PRO620  LYS621  CYS622 
 ASP623  PHE694  ASN695  SER759  ASP760  ASP761  ALA762  ILE779  LEU786  VAL792 
 PHE793  MET794  SER795  GLU796  ALA797  LYS798  CYS799  TRP800  GLU811  SER814 

> <Gold.Protein.RotatedAtoms>
  150.8435  134.7735  159.6951 H   0  0  0  0  0  0  0  0  0  0  0  0  # atno 6907 bound_to 6896
  152.4517  134.5376  159.9839 H   0  0  0  0  0  0  0  0  0  0  0  0  # atno 6908 bound_to 6896
  151.5511  133.3379  159.2989 H   0  0  0  0  0  0  0  0  0  0  0  0  # atno 6909 bound_to 6896
  145.8376  140.8439  143.0051 H   0  0  0  0  0  0  0  0  0  0  0  0  # atno 7974 bound_to 7965
  156.2439  140.2917  156.0523 H   0  0  0  0  0  0  0  0  0  0  0  0  # atno 8008 bound_to 7997
  155.1868  140.0405  157.2910 H   0  0  0  0  0  0  0  0  0  0  0  0  # atno 8009 bound_to 7997
  154.6222  140.2478  155.7542 H   0  0  0  0  0  0  0  0  0  0  0  0  # atno 8010 bound_to 7997
  140.6231  143.2427  151.5431 H   0  0  0  0  0  0  0  0  0  0  0  0  # atno 10167 bound_to 10162
  156.0389  130.5611  150.7677 H   0  0  0  0  0  0  0  0  0  0  0  0  # atno 10718 bound_to 10713
  153.0992  135.6668  153.9704 H   0  0  0  0  0  0  0  0  0  0  0  0  # atno 10763 bound_to 10752
  153.9279  135.3007  155.3448 H   0  0  0  0  0  0  0  0  0  0  0  0  # atno 10764 bound_to 10752
  154.7413  135.5078  153.9202 H   0  0  0  0  0  0  0  0  0  0  0  0  # atno 10765 bound_to 10752
  140.1679  134.4259  155.8275 H   0  0  0  0  0  0  0  0  0  0  0  0  # atno 11005 bound_to 11000
  144.6735  140.0764  143.7471 LP  0  0  0  0  0  0  0  0  0  0  0  0  # atno 17320 bound_to 7965
  145.9502  139.2728  143.1217 LP  0  0  0  0  0  0  0  0  0  0  0  0  # atno 17321 bound_to 7965
  139.5456  144.2531  152.1435 LP  0  0  0  0  0  0  0  0  0  0  0  0  # atno 17342 bound_to 10162
  140.1755  144.4894  150.6556 LP  0  0  0  0  0  0  0  0  0  0  0  0  # atno 17343 bound_to 10162
  157.5179  131.0929  151.0116 LP  0  0  0  0  0  0  0  0  0  0  0  0  # atno 17370 bound_to 10713
  157.0454  130.5766  149.5362 LP  0  0  0  0  0  0  0  0  0  0  0  0  # atno 17371 bound_to 10713
  141.2215  133.6943  156.7711 LP  0  0  0  0  0  0  0  0  0  0  0  0  # atno 17394 bound_to 11000
  140.2412  134.8612  157.3575 LP  0  0  0  0  0  0  0  0  0  0  0  0  # atno 17395 bound_to 11000

$$$$
