AV-unprocessed.smi:1224|AV-procd|sdf|5134|dock3
  -GOLD-   22720 4193D 1   1.00000     0.00000
 Structure written by MMmdl.
 44 46  0  0  0  0  0  0  0  0  2 V2000
  152.0802  144.8384  160.4404 C   0  0  0  0  0  0  0  0  0  0  0  0
  151.8819  143.5937  159.5920 C   0  0  0  0  0  0  0  0  0  0  0  0
  151.1191  143.7001  158.4069 C   0  0  0  0  0  0  0  0  0  0  0  0
  150.9544  142.5444  157.6527 C   0  0  0  0  0  0  0  0  0  0  0  0
  150.2715  142.3216  156.4550 N   0  3  0  0  0  0  0  0  0  0  0  0
  150.3944  141.0130  156.0985 C   0  0  0  0  0  0  0  0  0  0  0  0
  151.1449  140.3976  157.0521 N   0  0  0  0  0  0  0  0  0  0  0  0
  151.5793  138.9983  157.1542 C   0  0  0  0  0  0  0  0  0  0  0  0
  151.1465  138.3307  158.4742 C   0  0  2  0  0  0  0  0  0  0  0  0
  151.6320  137.0027  158.4947 O   0  0  0  0  0  0  0  0  0  0  0  0
  149.6162  138.2917  158.6147 C   0  0  0  0  0  0  0  0  0  0  0  0
  149.2134  137.5594  159.8115 N   0  0  0  0  0  0  0  0  0  0  0  0
  147.9227  136.8950  159.6715 C   0  0  0  0  0  0  0  0  0  0  0  0
  147.5408  136.1527  160.9081 C   0  0  0  0  0  0  0  0  0  0  0  0
  147.4136  136.6496  162.1809 C   0  0  0  0  0  0  0  0  0  0  0  0
  147.0309  135.6604  163.1337 C   0  0  0  0  0  0  0  0  0  0  0  0
  146.8699  134.4203  162.5754 C   0  0  0  0  0  0  0  0  0  0  0  0
  147.1876  134.4437  160.8620 S   0  0  0  0  0  0  0  0  0  0  0  0
  151.5179  141.3134  158.0406 C   0  0  0  0  0  0  0  0  0  0  0  0
  152.2737  141.1907  159.2037 C   0  0  0  0  0  0  0  0  0  0  0  0
  152.4522  142.3550  159.9849 C   0  0  0  0  0  0  0  0  0  0  0  0
  153.2703  142.2518  161.2609 C   0  0  0  0  0  0  0  0  0  0  0  0
  151.5503  145.6949  160.0222 H   0  0  0  0  0  0  0  0  0  0  0  0
  153.1379  145.0967  160.4982 H   0  0  0  0  0  0  0  0  0  0  0  0
  151.7060  144.6779  161.4516 H   0  0  0  0  0  0  0  0  0  0  0  0
  150.6830  144.6398  158.1007 H   0  0  0  0  0  0  0  0  0  0  0  0
  149.9766  140.5476  155.2173 H   0  0  0  0  0  0  0  0  0  0  0  0
  151.1904  138.4531  156.2932 H   0  0  0  0  0  0  0  0  0  0  0  0
  152.6665  138.9861  157.0624 H   0  0  0  0  0  0  0  0  0  0  0  0
  151.5837  138.8774  159.3110 H   0  0  0  0  0  0  0  0  0  0  0  0
  151.0949  136.4822  157.9163 H   0  0  0  0  0  0  0  0  0  0  0  0
  149.2428  139.3137  158.6887 H   0  0  0  0  0  0  0  0  0  0  0  0
  149.1597  137.8617  157.7219 H   0  0  0  0  0  0  0  0  0  0  0  0
  149.1757  138.2002  160.5978 H   0  0  0  0  0  0  0  0  0  0  0  0
  147.1519  137.6289  159.4329 H   0  0  0  0  0  0  0  0  0  0  0  0
  147.9523  136.1983  158.8331 H   0  0  0  0  0  0  0  0  0  0  0  0
  147.5799  137.6802  162.4578 H   0  0  0  0  0  0  0  0  0  0  0  0
  146.8892  135.8898  164.1797 H   0  0  0  0  0  0  0  0  0  0  0  0
  146.5862  133.4992  163.0626 H   0  0  0  0  0  0  0  0  0  0  0  0
  152.7080  140.2474  159.5006 H   0  0  0  0  0  0  0  0  0  0  0  0
  153.6743  141.2479  161.3958 H   0  0  0  0  0  0  0  0  0  0  0  0
  152.6528  142.4820  162.1295 H   0  0  0  0  0  0  0  0  0  0  0  0
  154.1097  142.9469  161.2375 H   0  0  0  0  0  0  0  0  0  0  0  0
  149.7600  143.0096  155.9174 H   0  0  0  0  0  0  0  0  0  0  0  0
  1  2  1  0  0  0  0
  1 23  1  0  0  0  0
  1 24  1  0  0  0  0
  1 25  1  0  0  0  0
  2 21  1  0  0  0  0
  2  3  2  0  0  0  0
  3  4  1  0  0  0  0
  3 26  1  0  0  0  0
  4 19  2  0  0  0  0
  4  5  1  0  0  0  0
  5  6  2  0  0  0  0
  5 44  1  0  0  0  0
  6  7  1  0  0  0  0
  6 27  1  0  0  0  0
  7  8  1  0  0  0  0
  7 19  1  0  0  0  0
  8  9  1  0  0  0  0
  8 28  1  0  0  0  0
  8 29  1  0  0  0  0
  9 10  1  0  0  0  0
  9 11  1  0  0  0  0
  9 30  1  0  0  0  0
 10 31  1  0  0  0  0
 11 12  1  0  0  0  0
 11 32  1  0  0  0  0
 11 33  1  0  0  0  0
 12 13  1  0  0  0  0
 12 34  1  0  0  0  0
 13 14  1  0  0  0  0
 13 35  1  0  0  0  0
 13 36  1  0  0  0  0
 14 18  1  0  0  0  0
 14 15  2  0  0  0  0
 15 16  1  0  0  0  0
 15 37  1  0  0  0  0
 16 17  2  0  0  0  0
 16 38  1  0  0  0  0
 17 18  1  0  0  0  0
 17 39  1  0  0  0  0
 19 20  1  0  0  0  0
 20 21  2  0  0  0  0
 20 40  1  0  0  0  0
 21 22  1  0  0  0  0
 22 41  1  0  0  0  0
 22 42  1  0  0  0  0
 22 43  1  0  0  0  0
M  CHG  1   5   1
M  END
> <s_m_source_file>
AV-unprocessed.smi

> <i_m_source_file_index>
1224

> <i_lp_mmshare_version>
43012

> <i_f3d_flags>
0

> <s_epik_input>
W0NIM11jKFtjSF0xKWMoW0NIM10pW2NIXWMoYzEyKW4oW2NIXW4yKVtDSDJdW0NASF0oW09IXSlbQ0gyXVtOSF1bQ0gyXWMzW2NIXVtjSF1bY0hdczM=

> <s_epik_cmdline>
J2VwaWtfcHl0aG9uJywgJy1waCcsICc3LjAnLCAnLXRuJywgJzgnLCAnLW1hJywgJzIwMCcsICctbWV0YWxfYmluZGluZycsICctaW1hZScsICc8aW5maWxlLm1hZT4nLCAnLW9tYWUnLCAnPG91dGZpbGUubWFlPic=

> <r_epik_Ionization_Penalty>
2.3772

> <r_epik_Ionization_Penalty_Charging>
0.996291

> <r_epik_Ionization_Penalty_Neutral>
1.38091

> <r_epik_State_Penalty>
2.60954

> <r_epik_Charging_Adjusted_Penalty>
3.60583

> <i_epik_Tot_Q>
1

> <i_epik_Tot_abs_Q>
1

> <r_epik_Metal_State_Penalty>
6.5861

> <b_epik_Metal_Only>
0

> <s_lp_Force_Field>
OPLS_2005

> <r_lp_Energy>
18.5574

> <b_lp_Chiralities_Consistent>
1

> <s_lp_Variant>
AV-unprocessed.smi:1224-7

> <Gold.Version>
5.8.1

> <Gold.Id.Protein>
6NUR|6NUR_protein|mol2

> <Gold.PLP.Fitness>
59.6096

> <Gold.PLP.PLP>
-54.0160

> <Gold.PLP.part.hbond>
-2.1335

> <Gold.PLP.part.metal>
0.0000

> <Gold.PLP.part.buried>
-6.8896

> <Gold.PLP.part.nonpolar>
-45.7672

> <Gold.PLP.part.repulsive>
0.0744

> <Gold.PLP.ligand.clash>
0.0000

> <Gold.PLP.ligand.torsion>
0.2232

> <Gold.PLP.Chemscore.Hbond>
2.0000

> <Gold.PLP.Chemscore.CHOScore>
0.0000

> <Gold.PLP.Chemscore.Metal>
0.0000

> <Gold.Chemscore.Hbonds>
donor molecule, donor type, donor heavy atom, donor atom, acceptor molecule, acceptor atom, score
      L1  H     5    44       P1  8028  2.00

> <Gold.PLP.Chemscore.Internal.Correction>
0.0400

> <Gold.Rescore>
     Score         DG    S(hbond)    S(metal)    S(lipo)     H(rot)  DE(clash)    DE(int)     intcor
     18.96     -19.23       0.99        0.00     141.86       2.40       0.05       0.21       ----

> <Gold.Chemscore.Fitness>
18.9643

> <Gold.Chemscore.DG>
-19.2284

> <Gold.Chemscore.ZeroCoef>
-5.4800

> <Gold.Chemscore.Hbond>
0.9858

> <Gold.Chemscore.Metal>
0.0000

> <Gold.Chemscore.Lipo>
141.8575

> <Gold.Chemscore.Internal_Hbond>
0.0000

> <Gold.Chemscore.DEClash>
0.0518

> <Gold.Chemscore.DEInternal>
0.2123

> <Gold.Chemscore.Rot>
2.3990

> <Gold.Chemscore.Internal.Correction>
   9.000000E+99

> <Gold.Chemscore.Hbonds>
donor molecule, donor type, donor heavy atom, donor atom, acceptor molecule, acceptor atom, score
      L1  H     5    44       P1  8028  0.97

> <Gold.Chemscore.Hbond.Weighted>
-3.2925

> <Gold.Chemscore.Metal.Weighted>
-0.0000

> <Gold.Chemscore.Lipo.Weighted>
-16.5973

> <Gold.Chemscore.Internal_Hbond.Weighted>
0.0000

> <Gold.Chemscore.DEClash.Weighted>
0.0518

> <Gold.Chemscore.DEInternal.Weighted>
0.2123

> <Gold.Chemscore.Rot.Weighted>
6.1415

> <Gold.Chemscore.Internal.Correction.Weighted>
   9.000000E+99

> <Gold.Protein.RotatedTorsions>
[ 6907 6896 6895 6894 ] final -152.48 input  -60.11 | X-H torsion
[ 7974 7965 7964 7962 ] final   71.99 input  175.53 | X-H torsion
[ 8008 7997 7996 7995 ] final -144.30 input   59.86 | X-H torsion
[ 10167 10162 10161 10158 ] final   88.52 input  -65.29 | X-H torsion
[ 10718 10713 10712 10709 ] final  -59.80 input   66.30 | X-H torsion
[ 10763 10752 10751 10750 ] final -130.90 input  -60.55 | X-H torsion
[ 11005 11000 10999 10996 ] final   47.30 input  -57.11 | X-H torsion

> <Gold.Protein.ActiveResidues>
 VAL166  LYS551  ARG553  GLY616  TRP617  ASP618  TYR619  PRO620  LYS621  CYS622 
 ASP623  PHE694  ASN695  SER759  ASP760  ASP761  ALA762  ILE779  LEU786  VAL792 
 PHE793  MET794  SER795  GLU796  ALA797  LYS798  CYS799  TRP800  GLU811  SER814 

> <Gold.Protein.RotatedAtoms>
  151.2284  133.4464  159.2602 H   0  0  0  0  0  0  0  0  0  0  0  0  # atno 6907 bound_to 6896
  151.0818  134.9863  159.8370 H   0  0  0  0  0  0  0  0  0  0  0  0  # atno 6908 bound_to 6896
  152.5425  134.2223  159.8845 H   0  0  0  0  0  0  0  0  0  0  0  0  # atno 6909 bound_to 6896
  145.7589  139.2792  143.1388 H   0  0  0  0  0  0  0  0  0  0  0  0  # atno 7974 bound_to 7965
  155.5246  140.0594  157.2900 H   0  0  0  0  0  0  0  0  0  0  0  0  # atno 8008 bound_to 7997
  154.4505  140.1946  156.0479 H   0  0  0  0  0  0  0  0  0  0  0  0  # atno 8009 bound_to 7997
  156.0694  140.3262  155.7562 H   0  0  0  0  0  0  0  0  0  0  0  0  # atno 8010 bound_to 7997
  139.8664  144.6516  150.8999 H   0  0  0  0  0  0  0  0  0  0  0  0  # atno 10167 bound_to 10162
  156.1036  130.4183  150.0765 H   0  0  0  0  0  0  0  0  0  0  0  0  # atno 10718 bound_to 10713
  154.8753  135.3847  154.4159 H   0  0  0  0  0  0  0  0  0  0  0  0  # atno 10763 bound_to 10752
  153.4867  135.7030  153.5912 H   0  0  0  0  0  0  0  0  0  0  0  0  # atno 10764 bound_to 10752
  153.4304  135.3880  155.2134 H   0  0  0  0  0  0  0  0  0  0  0  0  # atno 10765 bound_to 10752
  140.1292  134.4728  155.8535 H   0  0  0  0  0  0  0  0  0  0  0  0  # atno 11005 bound_to 11000
  146.0283  140.8282  142.9888 LP  0  0  0  0  0  0  0  0  0  0  0  0  # atno 17320 bound_to 7965
  144.6834  140.2731  143.7303 LP  0  0  0  0  0  0  0  0  0  0  0  0  # atno 17321 bound_to 7965
  140.7767  143.3701  151.1666 LP  0  0  0  0  0  0  0  0  0  0  0  0  # atno 17342 bound_to 10162
  139.7325  143.9050  152.3024 LP  0  0  0  0  0  0  0  0  0  0  0  0  # atno 17343 bound_to 10162
  156.8747  130.9536  151.3606 LP  0  0  0  0  0  0  0  0  0  0  0  0  # atno 17370 bound_to 10713
  157.6209  130.8654  149.9108 LP  0  0  0  0  0  0  0  0  0  0  0  0  # atno 17371 bound_to 10713
  141.2167  133.6789  156.7036 LP  0  0  0  0  0  0  0  0  0  0  0  0  # atno 17394 bound_to 11000
  140.2865  134.8275  157.3979 LP  0  0  0  0  0  0  0  0  0  0  0  0  # atno 17395 bound_to 11000

$$$$
