AV-unprocessed.smi:618|AV-procd|sdf|3076|dock5
  -GOLD-   22720 0 03D 1   1.00000     0.00000
 Structure written by MMmdl.
 41 43  0  0  0  0  0  0  0  0  2 V2000
  146.4096  138.9947  154.5081 O   0  0  0  0  0  0  0  0  0  0  0  0
  147.1301  138.4253  153.6888 C   0  0  0  0  0  0  0  0  0  0  0  0
  146.6651  137.5640  152.7734 N   0  0  0  0  0  0  0  0  0  0  0  0
  145.2635  137.1934  152.6091 C   0  0  0  0  0  0  0  0  0  0  0  0
  145.1051  135.7210  152.1901 C   0  0  2  0  0  0  0  0  0  0  0  0
  145.7150  135.4486  150.8020 C   0  0  0  0  0  0  0  0  0  0  0  0
  145.4488  134.0646  150.3448 N   0  3  1  0  0  0  0  0  0  0  0  0
  146.3270  133.0081  150.8945 C   0  0  0  0  0  0  0  0  0  0  0  0
  145.4778  131.7287  150.9540 C   0  0  0  0  0  0  0  0  0  0  0  0
  144.1242  132.1074  150.3434 C   0  0  0  0  0  0  0  0  0  0  0  0
  144.0483  133.6254  150.5137 C   0  0  1  0  0  0  0  0  0  0  0  0
  143.4925  134.0312  151.8978 C   0  0  0  0  0  0  0  0  0  0  0  0
  143.7166  135.4141  152.1329 O   0  0  0  0  0  0  0  0  0  0  0  0
  148.4632  138.5631  153.5929 N   0  0  0  0  0  0  0  0  0  0  0  0
  149.3258  139.3928  154.3592 C   0  0  0  0  0  0  0  0  0  0  0  0
  148.8132  140.6178  154.8335 C   0  0  0  0  0  0  0  0  0  0  0  0
  149.6380  141.4529  155.6105 C   0  0  0  0  0  0  0  0  0  0  0  0
  150.9491  141.0234  155.8928 C   0  0  0  0  0  0  0  0  0  0  0  0
  151.4516  139.8479  155.4602 N   0  0  0  0  0  0  0  0  0  0  0  0
  150.6554  139.0527  154.7133 C   0  0  0  0  0  0  0  0  0  0  0  0
  147.3261  137.1375  152.1403 H   0  0  0  0  0  0  0  0  0  0  0  0
  144.7476  137.3734  153.5527 H   0  0  0  0  0  0  0  0  0  0  0  0
  144.7982  137.8498  151.8717 H   0  0  0  0  0  0  0  0  0  0  0  0
  145.5910  135.0863  152.9331 H   0  0  0  0  0  0  0  0  0  0  0  0
  145.2737  136.1302  150.0736 H   0  0  0  0  0  0  0  0  0  0  0  0
  146.7886  135.6404  150.7996 H   0  0  0  0  0  0  0  0  0  0  0  0
  147.2017  132.8865  150.2550 H   0  0  0  0  0  0  0  0  0  0  0  0
  146.6811  133.2674  151.8931 H   0  0  0  0  0  0  0  0  0  0  0  0
  145.9436  130.8987  150.4218 H   0  0  0  0  0  0  0  0  0  0  0  0
  145.3477  131.4196  151.9919 H   0  0  0  0  0  0  0  0  0  0  0  0
  144.1249  131.8609  149.2807 H   0  0  0  0  0  0  0  0  0  0  0  0
  143.2875  131.5798  150.8029 H   0  0  0  0  0  0  0  0  0  0  0  0
  143.4323  134.0770  149.7351 H   0  0  0  0  0  0  0  0  0  0  0  0
  142.4211  133.8353  151.9405 H   0  0  0  0  0  0  0  0  0  0  0  0
  143.9465  133.4471  152.7002 H   0  0  0  0  0  0  0  0  0  0  0  0
  148.9235  137.9659  152.9217 H   0  0  0  0  0  0  0  0  0  0  0  0
  147.8014  140.9188  154.6030 H   0  0  0  0  0  0  0  0  0  0  0  0
  149.2746  142.3996  155.9821 H   0  0  0  0  0  0  0  0  0  0  0  0
  151.6099  141.6376  156.4864 H   0  0  0  0  0  0  0  0  0  0  0  0
  151.1049  138.1169  154.4206 H   0  0  0  0  0  0  0  0  0  0  0  0
  145.6218  134.0512  149.3495 H   0  0  0  0  0  0  0  0  0  0  0  0
  1  2  2  0  0  0  0
  2  3  1  0  0  0  0
  2 14  1  0  0  0  0
  3  4  1  0  0  0  0
  3 21  1  0  0  0  0
  4  5  1  0  0  0  0
  4 22  1  0  0  0  0
  4 23  1  0  0  0  0
  5 13  1  0  0  0  0
  5  6  1  0  0  0  0
  5 24  1  0  0  0  0
  6  7  1  0  0  0  0
  6 25  1  0  0  0  0
  6 26  1  0  0  0  0
  7 11  1  0  0  0  0
  7  8  1  0  0  0  0
  7 41  1  0  0  0  0
  8  9  1  0  0  0  0
  8 27  1  0  0  0  0
  8 28  1  0  0  0  0
  9 10  1  0  0  0  0
  9 29  1  0  0  0  0
  9 30  1  0  0  0  0
 10 11  1  0  0  0  0
 10 31  1  0  0  0  0
 10 32  1  0  0  0  0
 11 12  1  0  0  0  0
 11 33  1  0  0  0  0
 12 13  1  0  0  0  0
 12 34  1  0  0  0  0
 12 35  1  0  0  0  0
 14 15  1  0  0  0  0
 14 36  1  0  0  0  0
 15 20  1  0  0  0  0
 15 16  2  0  0  0  0
 16 17  1  0  0  0  0
 16 37  1  0  0  0  0
 17 18  2  0  0  0  0
 17 38  1  0  0  0  0
 18 19  1  0  0  0  0
 18 39  1  0  0  0  0
 19 20  2  0  0  0  0
 20 40  1  0  0  0  0
M  CHG  1   7   1
M  END
> <s_m_source_file>
AV-unprocessed.smi

> <i_m_source_file_index>
618

> <i_lp_mmshare_version>
43012

> <i_f3d_flags>
0

> <s_epik_input>
W2NIXTFuW2NIXVtjSF1bY0hdYzFbTkhdQyg9TylbTkhdW0NIMl1bQ0BIXShbQ0gyXTIpT1tDSDJdW0NAQEhdKE4yMylbQ0gyXVtDSDJdW0NIMl0z

> <s_epik_cmdline>
J2VwaWtfcHl0aG9uJywgJy1waCcsICc3LjAnLCAnLXRuJywgJzgnLCAnLW1hJywgJzIwMCcsICctbWV0YWxfYmluZGluZycsICctaW1hZScsICc8aW5maWxlLm1hZT4nLCAnLW9tYWUnLCAnPG91dGZpbGUubWFlPic=

> <r_epik_Ionization_Penalty>
0.111044

> <r_epik_Ionization_Penalty_Charging>
0.10673

> <r_epik_Ionization_Penalty_Neutral>
0.00431361

> <r_epik_State_Penalty>
0.0978747

> <r_epik_Charging_Adjusted_Penalty>
0.204605

> <i_epik_Tot_Q>
1

> <i_epik_Tot_abs_Q>
1

> <r_epik_Metal_State_Penalty>
0.0947591

> <b_epik_Metal_Only>
0

> <s_lp_Force_Field>
OPLS_2005

> <r_lp_Energy>
38.5016

> <b_lp_Chiralities_Consistent>
1

> <s_lp_Variant>
AV-unprocessed.smi:618-3

> <Gold.Version>
5.8.1

> <Gold.Id.Protein>
6NUR|6NUR_protein|mol2

> <Gold.PLP.Fitness>
46.3686

> <Gold.PLP.PLP>
-38.2153

> <Gold.PLP.part.hbond>
-5.0000

> <Gold.PLP.part.metal>
0.0000

> <Gold.PLP.part.buried>
-5.0911

> <Gold.PLP.part.nonpolar>
-29.6595

> <Gold.PLP.part.repulsive>
0.4294

> <Gold.PLP.ligand.clash>
0.0000

> <Gold.PLP.ligand.torsion>
0.4035

> <Gold.PLP.Chemscore.Hbond>
2.9865

> <Gold.PLP.Chemscore.CHOScore>
0.0000

> <Gold.PLP.Chemscore.Metal>
0.0000

> <Gold.Chemscore.Hbonds>
donor molecule, donor type, donor heavy atom, donor atom, acceptor molecule, acceptor atom, score
      L1  H     3    21       P1  7948  1.00
      L1  H     7    41       P1  7921  1.00
      L1  H    14    36       P1  7948  1.00
      P1  H  7989  7998       L1    19  0.01

> <Gold.PLP.Chemscore.Internal.Correction>
0.0007

> <Gold.Rescore>
     Score         DG    S(hbond)    S(metal)    S(lipo)     H(rot)  DE(clash)    DE(int)     intcor
     20.48     -22.18       2.73        0.00      92.62       1.27       0.07       1.63       ----

> <Gold.Chemscore.Fitness>
20.4799

> <Gold.Chemscore.DG>
-22.1833

> <Gold.Chemscore.ZeroCoef>
-5.4800

> <Gold.Chemscore.Hbond>
2.7266

> <Gold.Chemscore.Metal>
0.0000

> <Gold.Chemscore.Lipo>
92.6194

> <Gold.Chemscore.Internal_Hbond>
0.0000

> <Gold.Chemscore.DEClash>
0.0718

> <Gold.Chemscore.DEInternal>
1.6317

> <Gold.Chemscore.Rot>
1.2656

> <Gold.Chemscore.Internal.Correction>
   9.000000E+99

> <Gold.Chemscore.Hbonds>
donor molecule, donor type, donor heavy atom, donor atom, acceptor molecule, acceptor atom, score
      L1  H     3    21       P1  7948  0.95
      L1  H     7    41       P1  7921  0.64
      L1  H    14    36       P1  7948  0.92

> <Gold.Chemscore.Hbond.Weighted>
-9.1067

> <Gold.Chemscore.Metal.Weighted>
-0.0000

> <Gold.Chemscore.Lipo.Weighted>
-10.8365

> <Gold.Chemscore.Internal_Hbond.Weighted>
0.0000

> <Gold.Chemscore.DEClash.Weighted>
0.0718

> <Gold.Chemscore.DEInternal.Weighted>
1.6317

> <Gold.Chemscore.Rot.Weighted>
3.2399

> <Gold.Chemscore.Internal.Correction.Weighted>
   9.000000E+99

> <Gold.Protein.RotatedTorsions>
[ 6907 6896 6895 6894 ] final -164.52 input  -60.11 | X-H torsion
[ 7974 7965 7964 7962 ] final   72.91 input  175.53 | X-H torsion
[ 8008 7997 7996 7995 ] final   49.63 input   59.86 | X-H torsion
[ 10167 10162 10161 10158 ] final  151.70 input  -65.29 | X-H torsion
[ 10718 10713 10712 10709 ] final  118.79 input   66.30 | X-H torsion
[ 10763 10752 10751 10750 ] final  122.56 input  -60.55 | X-H torsion
[ 11005 11000 10999 10996 ] final   54.24 input  -57.11 | X-H torsion

> <Gold.Protein.ActiveResidues>
 VAL166  LYS551  ARG553  GLY616  TRP617  ASP618  TYR619  PRO620  LYS621  CYS622 
 ASP623  PHE694  ASN695  SER759  ASP760  ASP761  ALA762  ILE779  LEU786  VAL792 
 PHE793  MET794  SER795  GLU796  ALA797  LYS798  CYS799  TRP800  GLU811  SER814 

> <Gold.Protein.RotatedAtoms>
  151.4132  133.3721  159.2746 H   0  0  0  0  0  0  0  0  0  0  0  0  # atno 6907 bound_to 6896
  150.9348  134.8762  159.7585 H   0  0  0  0  0  0  0  0  0  0  0  0  # atno 6908 bound_to 6896
  152.5044  134.4079  159.9491 H   0  0  0  0  0  0  0  0  0  0  0  0  # atno 6909 bound_to 6896
  145.7475  139.2746  143.1450 H   0  0  0  0  0  0  0  0  0  0  0  0  # atno 7974 bound_to 7965
  155.4054  140.3440  155.4260 H   0  0  0  0  0  0  0  0  0  0  0  0  # atno 8008 bound_to 7997
  156.1480  140.1562  156.8848 H   0  0  0  0  0  0  0  0  0  0  0  0  # atno 8009 bound_to 7997
  154.5027  140.0810  156.7812 H   0  0  0  0  0  0  0  0  0  0  0  0  # atno 8010 bound_to 7997
  139.4838  144.5419  151.7549 H   0  0  0  0  0  0  0  0  0  0  0  0  # atno 10167 bound_to 10162
  157.6006  131.1051  150.7805 H   0  0  0  0  0  0  0  0  0  0  0  0  # atno 10718 bound_to 10713
  153.6317  135.3395  155.3044 H   0  0  0  0  0  0  0  0  0  0  0  0  # atno 10763 bound_to 10752
  154.8579  135.4297  154.2098 H   0  0  0  0  0  0  0  0  0  0  0  0  # atno 10764 bound_to 10752
  153.2996  135.7023  153.7289 H   0  0  0  0  0  0  0  0  0  0  0  0  # atno 10765 bound_to 10752
  140.0702  134.5480  155.9055 H   0  0  0  0  0  0  0  0  0  0  0  0  # atno 11005 bound_to 11000
  146.0388  140.8185  142.9839 LP  0  0  0  0  0  0  0  0  0  0  0  0  # atno 17320 bound_to 7965
  144.6857  140.2879  143.7282 LP  0  0  0  0  0  0  0  0  0  0  0  0  # atno 17321 bound_to 7965
  140.4960  144.1240  150.5960 LP  0  0  0  0  0  0  0  0  0  0  0  0  # atno 17342 bound_to 10162
  140.4117  143.2654  151.9825 LP  0  0  0  0  0  0  0  0  0  0  0  0  # atno 17343 bound_to 10162
  156.8205  130.4982  149.5344 LP  0  0  0  0  0  0  0  0  0  0  0  0  # atno 17370 bound_to 10713
  156.1079  130.6018  151.0000 LP  0  0  0  0  0  0  0  0  0  0  0  0  # atno 17371 bound_to 10713
  141.2009  133.6615  156.5920 LP  0  0  0  0  0  0  0  0  0  0  0  0  # atno 17394 bound_to 11000
  140.3638  134.7664  157.4552 LP  0  0  0  0  0  0  0  0  0  0  0  0  # atno 17395 bound_to 11000

$$$$
