AV-unprocessed.smi:1154|AV-procd|sdf|4901|dock5
  -GOLD-   22720 3473D 1   1.00000     0.00000
 Structure written by MMmdl.
 42 43  0  0  0  0  0  0  0  0  2 V2000
  151.2976  145.5974  160.0925 C   0  0  0  0  0  0  0  0  0  0  0  0
  152.0860  144.4008  159.5410 C   0  0  1  0  0  0  0  0  0  0  0  0
  152.6022  143.4978  160.6737 C   0  0  0  0  0  0  0  0  0  0  0  0
  153.3731  142.2971  160.1007 C   0  0  1  0  0  0  0  0  0  0  0  0
  153.8779  141.3711  161.2164 C   0  0  0  0  0  0  0  0  0  0  0  0
  152.4961  141.5349  159.0885 C   0  0  0  0  0  0  0  0  0  0  0  0
  152.0156  142.4296  158.0037 N   0  3  1  0  0  0  0  0  0  0  0  0
  151.2897  141.6845  156.9437 C   0  0  0  0  0  0  0  0  0  0  0  0
  150.4368  140.5381  157.5112 C   0  0  0  0  0  0  0  0  0  0  0  0
  150.7423  139.2887  156.8285 N   0  0  0  0  0  0  0  0  0  0  0  0
  150.9195  139.1746  155.5032 C   0  0  0  0  0  0  0  0  0  0  0  0
  150.8121  140.1229  154.7266 O   0  0  0  0  0  0  0  0  0  0  0  0
  151.2603  137.7820  154.9656 C   0  0  0  0  0  0  0  0  0  0  0  0
  151.2699  136.7844  156.0206 N   0  0  0  0  0  0  0  0  0  0  0  0
  150.2853  136.3082  156.7851 C   0  0  0  0  0  0  0  0  0  0  0  0
  150.7278  135.4059  157.6472 N   0  0  0  0  0  0  0  0  0  0  0  0
  152.0819  135.3388  157.3650 N   0  0  0  0  0  0  0  0  0  0  0  0
  152.4093  136.1530  156.3994 N   0  0  0  0  0  0  0  0  0  0  0  0
  151.2434  143.5790  158.5468 C   0  0  0  0  0  0  0  0  0  0  0  0
  150.4164  145.2722  160.6464 H   0  0  0  0  0  0  0  0  0  0  0  0
  150.9615  146.2515  159.2873 H   0  0  0  0  0  0  0  0  0  0  0  0
  151.9121  146.1954  160.7662 H   0  0  0  0  0  0  0  0  0  0  0  0
  152.9493  144.7975  159.0043 H   0  0  0  0  0  0  0  0  0  0  0  0
  153.2480  144.0705  161.3408 H   0  0  0  0  0  0  0  0  0  0  0  0
  151.7647  143.1457  161.2782 H   0  0  0  0  0  0  0  0  0  0  0  0
  154.2472  142.6785  159.5705 H   0  0  0  0  0  0  0  0  0  0  0  0
  153.0500  140.9490  161.7867 H   0  0  0  0  0  0  0  0  0  0  0  0
  154.5208  141.9101  161.9130 H   0  0  0  0  0  0  0  0  0  0  0  0
  154.4577  140.5427  160.8082 H   0  0  0  0  0  0  0  0  0  0  0  0
  153.0778  140.7198  158.6557 H   0  0  0  0  0  0  0  0  0  0  0  0
  151.6401  141.0812  159.5912 H   0  0  0  0  0  0  0  0  0  0  0  0
  150.6221  142.3687  156.4174 H   0  0  0  0  0  0  0  0  0  0  0  0
  151.9978  141.3132  156.2011 H   0  0  0  0  0  0  0  0  0  0  0  0
  150.6192  140.3984  158.5767 H   0  0  0  0  0  0  0  0  0  0  0  0
  149.3772  140.7715  157.3917 H   0  0  0  0  0  0  0  0  0  0  0  0
  150.8404  138.4608  157.3982 H   0  0  0  0  0  0  0  0  0  0  0  0
  150.5286  137.4930  154.2101 H   0  0  0  0  0  0  0  0  0  0  0  0
  152.2379  137.7927  154.4813 H   0  0  0  0  0  0  0  0  0  0  0  0
  149.2551  136.6244  156.7155 H   0  0  0  0  0  0  0  0  0  0  0  0
  150.3379  143.2110  159.0325 H   0  0  0  0  0  0  0  0  0  0  0  0
  150.9214  144.2312  157.7359 H   0  0  0  0  0  0  0  0  0  0  0  0
  152.8436  142.8103  157.5682 H   0  0  0  0  0  0  0  0  0  0  0  0
  1  2  1  0  0  0  0
  1 20  1  0  0  0  0
  1 21  1  0  0  0  0
  1 22  1  0  0  0  0
  2 19  1  0  0  0  0
  2  3  1  0  0  0  0
  2 23  1  0  0  0  0
  3  4  1  0  0  0  0
  3 24  1  0  0  0  0
  3 25  1  0  0  0  0
  4  5  1  0  0  0  0
  4  6  1  0  0  0  0
  4 26  1  0  0  0  0
  5 27  1  0  0  0  0
  5 28  1  0  0  0  0
  5 29  1  0  0  0  0
  6  7  1  0  0  0  0
  6 30  1  0  0  0  0
  6 31  1  0  0  0  0
  7  8  1  0  0  0  0
  7 19  1  0  0  0  0
  7 42  1  0  0  0  0
  8  9  1  0  0  0  0
  8 32  1  0  0  0  0
  8 33  1  0  0  0  0
  9 10  1  0  0  0  0
  9 34  1  0  0  0  0
  9 35  1  0  0  0  0
 10 11  1  0  0  0  0
 10 36  1  0  0  0  0
 11 12  2  0  0  0  0
 11 13  1  0  0  0  0
 13 14  1  0  0  0  0
 13 37  1  0  0  0  0
 13 38  1  0  0  0  0
 14 18  1  0  0  0  0
 14 15  1  0  0  0  0
 15 16  2  0  0  0  0
 15 39  1  0  0  0  0
 16 17  1  0  0  0  0
 17 18  2  0  0  0  0
 19 40  1  0  0  0  0
 19 41  1  0  0  0  0
M  CHG  1   7   1
M  END
> <s_m_source_file>
AV-unprocessed.smi

> <i_m_source_file_index>
1154

> <i_lp_mmshare_version>
43012

> <i_f3d_flags>
0

> <s_epik_input>
W0NIM11bQ0BASF0xW0NIMl1bQ0BASF0oW0NIM10pW0NIMl1OKFtDSDJdMSlbQ0gyXVtDSDJdW05IXUMoPU8pW0NIMl1uMltjSF1ubm4y

> <s_epik_cmdline>
J2VwaWtfcHl0aG9uJywgJy1waCcsICc3LjAnLCAnLXRuJywgJzgnLCAnLW1hJywgJzIwMCcsICctbWV0YWxfYmluZGluZycsICctaW1hZScsICc8aW5maWxlLm1hZT4nLCAnLW9tYWUnLCAnPG91dGZpbGUubWFlPic=

> <r_lp_tautomer_probability>
1

> <r_epik_Ionization_Penalty>
0.00217773

> <r_epik_Ionization_Penalty_Charging>
0.00217329

> <r_epik_Ionization_Penalty_Neutral>
4.43997e-06

> <r_epik_State_Penalty>
0.00149294

> <r_epik_Charging_Adjusted_Penalty>
0.00366623

> <i_epik_Tot_Q>
1

> <i_epik_Tot_abs_Q>
1

> <r_epik_Metal_State_Penalty>
-0

> <b_epik_Metal_Only>
0

> <s_lp_Force_Field>
OPLS_2005

> <r_lp_Energy>
19.913

> <b_lp_Chiralities_Consistent>
1

> <s_lp_Variant>
AV-unprocessed.smi:1154-2

> <Gold.Version>
5.8.1

> <Gold.Id.Protein>
6NUR|6NUR_protein|mol2

> <Gold.PLP.Fitness>
44.6388

> <Gold.PLP.PLP>
-39.0004

> <Gold.PLP.part.hbond>
-4.0000

> <Gold.PLP.part.metal>
0.0000

> <Gold.PLP.part.buried>
-5.1568

> <Gold.PLP.part.nonpolar>
-29.8469

> <Gold.PLP.part.repulsive>
0.1528

> <Gold.PLP.ligand.clash>
0.0000

> <Gold.PLP.ligand.torsion>
0.8342

> <Gold.PLP.Chemscore.Hbond>
2.4142

> <Gold.PLP.Chemscore.CHOScore>
0.0000

> <Gold.PLP.Chemscore.Metal>
0.0000

> <Gold.Chemscore.Hbonds>
donor molecule, donor type, donor heavy atom, donor atom, acceptor molecule, acceptor atom, score
      P1  H  6896  6907       L1    16  0.41
      P1  H  7989  7998       L1    12  1.00
      P1  H 10752 10763       L1    18  1.00

> <Gold.PLP.Chemscore.Internal.Correction>
0.0643

> <Gold.Rescore>
     Score         DG    S(hbond)    S(metal)    S(lipo)     H(rot)  DE(clash)    DE(int)     intcor
     13.64     -16.08       1.95        0.00      93.16       2.67       0.13       2.31       ----

> <Gold.Chemscore.Fitness>
13.6377

> <Gold.Chemscore.DG>
-16.0791

> <Gold.Chemscore.ZeroCoef>
-5.4800

> <Gold.Chemscore.Hbond>
1.9545

> <Gold.Chemscore.Metal>
0.0000

> <Gold.Chemscore.Lipo>
93.1585

> <Gold.Chemscore.Internal_Hbond>
0.0000

> <Gold.Chemscore.DEClash>
0.1268

> <Gold.Chemscore.DEInternal>
2.3146

> <Gold.Chemscore.Rot>
2.6674

> <Gold.Chemscore.Internal.Correction>
   9.000000E+99

> <Gold.Chemscore.Hbonds>
donor molecule, donor type, donor heavy atom, donor atom, acceptor molecule, acceptor atom, score
      P1  H  6896  6907       L1    16  0.10
      P1  H  7989  7998       L1    12  1.00
      P1  H 10752 10763       L1    18  0.76

> <Gold.Chemscore.Hbond.Weighted>
-6.5282

> <Gold.Chemscore.Metal.Weighted>
-0.0000

> <Gold.Chemscore.Lipo.Weighted>
-10.8995

> <Gold.Chemscore.Internal_Hbond.Weighted>
0.0000

> <Gold.Chemscore.DEClash.Weighted>
0.1268

> <Gold.Chemscore.DEInternal.Weighted>
2.3146

> <Gold.Chemscore.Rot.Weighted>
6.8286

> <Gold.Chemscore.Internal.Correction.Weighted>
   9.000000E+99

> <Gold.Protein.RotatedTorsions>
[ 6907 6896 6895 6894 ] final  -82.51 input  -60.11 | X-H torsion
[ 7974 7965 7964 7962 ] final  -52.16 input  175.53 | X-H torsion
[ 8008 7997 7996 7995 ] final -122.94 input   59.86 | X-H torsion
[ 10167 10162 10161 10158 ] final   69.18 input  -65.29 | X-H torsion
[ 10718 10713 10712 10709 ] final   82.67 input   66.30 | X-H torsion
[ 10763 10752 10751 10750 ] final   92.41 input  -60.55 | X-H torsion
[ 11005 11000 10999 10996 ] final   89.96 input  -57.11 | X-H torsion

> <Gold.Protein.ActiveResidues>
 VAL166  LYS551  ARG553  GLY616  TRP617  ASP618  TYR619  PRO620  LYS621  CYS622 
 ASP623  PHE694  ASN695  SER759  ASP760  ASP761  ALA762  ILE779  LEU786  VAL792 
 PHE793  MET794  SER795  GLU796  ALA797  LYS798  CYS799  TRP800  GLU811  SER814 

> <Gold.Protein.RotatedAtoms>
  150.6896  134.3654  159.4968 H   0  0  0  0  0  0  0  0  0  0  0  0  # atno 6907 bound_to 6896
  152.1477  134.9010  160.0559 H   0  0  0  0  0  0  0  0  0  0  0  0  # atno 6908 bound_to 6896
  152.0120  133.3830  159.4260 H   0  0  0  0  0  0  0  0  0  0  0  0  # atno 6909 bound_to 6896
  145.9110  140.7915  142.9695 H   0  0  0  0  0  0  0  0  0  0  0  0  # atno 7974 bound_to 7965
  155.1723  140.0408  157.2865 H   0  0  0  0  0  0  0  0  0  0  0  0  # atno 8008 bound_to 7997
  154.6260  140.2512  155.7463 H   0  0  0  0  0  0  0  0  0  0  0  0  # atno 8009 bound_to 7997
  156.2459  140.2885  156.0591 H   0  0  0  0  0  0  0  0  0  0  0  0  # atno 8010 bound_to 7997
  140.0706  144.5156  150.7230 H   0  0  0  0  0  0  0  0  0  0  0  0  # atno 10167 bound_to 10162
  157.6862  131.0058  150.2409 H   0  0  0  0  0  0  0  0  0  0  0  0  # atno 10718 bound_to 10713
  153.2188  135.4362  155.0466 H   0  0  0  0  0  0  0  0  0  0  0  0  # atno 10763 bound_to 10752
  154.8239  135.3351  154.6958 H   0  0  0  0  0  0  0  0  0  0  0  0  # atno 10764 bound_to 10752
  153.7391  135.7006  153.5027 H   0  0  0  0  0  0  0  0  0  0  0  0  # atno 10765 bound_to 10752
  139.8865  134.8584  156.3216 H   0  0  0  0  0  0  0  0  0  0  0  0  # atno 11005 bound_to 11000
  144.6743  140.1825  143.7404 LP  0  0  0  0  0  0  0  0  0  0  0  0  # atno 17320 bound_to 7965
  145.8672  139.2253  143.1682 LP  0  0  0  0  0  0  0  0  0  0  0  0  # atno 17321 bound_to 7965
  140.7127  143.2518  151.4530 LP  0  0  0  0  0  0  0  0  0  0  0  0  # atno 17342 bound_to 10162
  139.5838  144.1649  152.2003 LP  0  0  0  0  0  0  0  0  0  0  0  0  # atno 17343 bound_to 10162
  156.3023  130.3760  149.7738 LP  0  0  0  0  0  0  0  0  0  0  0  0  # atno 17370 bound_to 10713
  156.5364  130.8280  151.3254 LP  0  0  0  0  0  0  0  0  0  0  0  0  # atno 17371 bound_to 10713
  140.9783  133.7283  156.0634 LP  0  0  0  0  0  0  0  0  0  0  0  0  # atno 17394 bound_to 11000
  140.7782  134.3755  157.5493 LP  0  0  0  0  0  0  0  0  0  0  0  0  # atno 17395 bound_to 11000

$$$$
