AV-unprocessed.smi:1933|AV-procd|sdf|7820|dock1
  -GOLD-   22720 9563D 1   1.00000     0.00000
 Structure written by MMmdl.
 48 50  0  0  0  0  0  0  0  0  2 V2000
  144.4353  136.5161  152.2709 O   0  0  0  0  0  0  0  0  0  0  0  0
  145.6513  136.4542  152.0885 C   0  0  0  0  0  0  0  0  0  0  0  0
  146.4710  137.5113  152.1851 N   0  0  0  0  0  0  0  0  0  0  0  0
  146.0674  138.8733  152.5224 C   0  0  0  0  0  0  0  0  0  0  0  0
  146.7922  139.4369  153.7773 C   0  0  1  0  0  0  0  0  0  0  0  0
  148.3210  139.6633  153.5879 C   0  0  2  0  0  0  0  0  0  0  0  0
  149.1973  138.4092  153.6278 C   0  0  0  0  0  0  0  0  0  0  0  0
  150.4710  138.8319  154.3659 C   0  0  0  0  0  0  0  0  0  0  0  0
  150.3474  140.2325  154.5504 O   0  0  0  0  0  0  0  0  0  0  0  0
  148.9678  140.5137  154.6868 C   0  0  0  0  0  0  0  0  0  0  0  0
  146.1505  140.6973  154.2618 N   0  3  0  0  0  0  0  0  0  0  0  0
  146.1722  140.9225  155.7296 C   0  0  0  0  0  0  0  0  0  0  0  0
  145.3067  142.1433  156.0816 C   0  0  0  0  0  0  0  0  0  0  0  0
  145.7873  143.2833  155.3784 O   0  0  0  0  0  0  0  0  0  0  0  0
  145.7128  143.1157  153.9673 C   0  0  0  0  0  0  0  0  0  0  0  0
  146.5791  141.9190  153.5381 C   0  0  0  0  0  0  0  0  0  0  0  0
  146.3288  135.3465  151.7409 N   0  0  0  0  0  0  0  0  0  0  0  0
  145.8046  134.0682  151.4163 C   0  0  0  0  0  0  0  0  0  0  0  0
  144.4074  133.8804  151.2599 C   0  0  0  0  0  0  0  0  0  0  0  0
  143.9133  132.5972  150.9565 C   0  0  0  0  0  0  0  0  0  0  0  0
  144.8226  131.5325  150.8296 C   0  0  0  0  0  0  0  0  0  0  0  0
  146.1899  131.8023  151.0214 C   0  0  0  0  0  0  0  0  0  0  0  0
  146.6673  133.0309  151.3129 N   0  0  0  0  0  0  0  0  0  0  0  0
  147.4546  137.3601  152.0141 H   0  0  0  0  0  0  0  0  0  0  0  0
  146.2177  139.5362  151.6697 H   0  0  0  0  0  0  0  0  0  0  0  0
  144.9916  138.8405  152.6905 H   0  0  0  0  0  0  0  0  0  0  0  0
  146.6839  138.7072  154.5813 H   0  0  0  0  0  0  0  0  0  0  0  0
  148.4998  140.1626  152.6345 H   0  0  0  0  0  0  0  0  0  0  0  0
  148.7171  137.5888  154.1621 H   0  0  0  0  0  0  0  0  0  0  0  0
  149.4310  138.0618  152.6216 H   0  0  0  0  0  0  0  0  0  0  0  0
  150.5307  138.3433  155.3395 H   0  0  0  0  0  0  0  0  0  0  0  0
  151.3768  138.5913  153.8086 H   0  0  0  0  0  0  0  0  0  0  0  0
  148.7727  141.5798  154.5674 H   0  0  0  0  0  0  0  0  0  0  0  0
  148.6283  140.2096  155.6788 H   0  0  0  0  0  0  0  0  0  0  0  0
  145.7989  140.0458  156.2579 H   0  0  0  0  0  0  0  0  0  0  0  0
  147.1924  141.0981  156.0724 H   0  0  0  0  0  0  0  0  0  0  0  0
  144.2588  141.9626  155.8366 H   0  0  0  0  0  0  0  0  0  0  0  0
  145.3543  142.3423  157.1523 H   0  0  0  0  0  0  0  0  0  0  0  0
  144.6751  142.9741  153.6611 H   0  0  0  0  0  0  0  0  0  0  0  0
  146.0657  144.0271  153.4844 H   0  0  0  0  0  0  0  0  0  0  0  0
  147.6282  142.1319  153.7447 H   0  0  0  0  0  0  0  0  0  0  0  0
  146.4855  141.7697  152.4618 H   0  0  0  0  0  0  0  0  0  0  0  0
  147.3107  135.4708  151.5433 H   0  0  0  0  0  0  0  0  0  0  0  0
  143.7091  134.6954  151.3778 H   0  0  0  0  0  0  0  0  0  0  0  0
  142.8534  132.4330  150.8290 H   0  0  0  0  0  0  0  0  0  0  0  0
  144.4809  130.5344  150.5982 H   0  0  0  0  0  0  0  0  0  0  0  0
  146.9206  131.0112  150.9404 H   0  0  0  0  0  0  0  0  0  0  0  0
  145.1748  140.5904  154.0230 H   0  0  0  0  0  0  0  0  0  0  0  0
  1  2  2  0  0  0  0
  2  3  1  0  0  0  0
  2 17  1  0  0  0  0
  3  4  1  0  0  0  0
  3 24  1  0  0  0  0
  4  5  1  0  0  0  0
  4 25  1  0  0  0  0
  4 26  1  0  0  0  0
  5  6  1  0  0  0  0
  5 11  1  0  0  0  0
  5 27  1  0  0  0  0
  6 10  1  0  0  0  0
  6  7  1  0  0  0  0
  6 28  1  0  0  0  0
  7  8  1  0  0  0  0
  7 29  1  0  0  0  0
  7 30  1  0  0  0  0
  8  9  1  0  0  0  0
  8 31  1  0  0  0  0
  8 32  1  0  0  0  0
  9 10  1  0  0  0  0
 10 33  1  0  0  0  0
 10 34  1  0  0  0  0
 11 16  1  0  0  0  0
 11 12  1  0  0  0  0
 11 48  1  0  0  0  0
 12 13  1  0  0  0  0
 12 35  1  0  0  0  0
 12 36  1  0  0  0  0
 13 14  1  0  0  0  0
 13 37  1  0  0  0  0
 13 38  1  0  0  0  0
 14 15  1  0  0  0  0
 15 16  1  0  0  0  0
 15 39  1  0  0  0  0
 15 40  1  0  0  0  0
 16 41  1  0  0  0  0
 16 42  1  0  0  0  0
 17 18  1  0  0  0  0
 17 43  1  0  0  0  0
 18 23  1  0  0  0  0
 18 19  2  0  0  0  0
 19 20  1  0  0  0  0
 19 44  1  0  0  0  0
 20 21  2  0  0  0  0
 20 45  1  0  0  0  0
 21 22  1  0  0  0  0
 21 46  1  0  0  0  0
 22 23  2  0  0  0  0
 22 47  1  0  0  0  0
M  CHG  1  11   1
M  END
> <s_m_source_file>
AV-unprocessed.smi

> <i_m_source_file_index>
1933

> <i_lp_mmshare_version>
43012

> <i_f3d_flags>
0

> <s_epik_input>
bjFbY0hdW2NIXVtjSF1bY0hdYzFbTkhdQyg9TylbTkhdW0NIMl1bQ0BIXShbQ0BASF0yW0NIMl1bQ0gyXU9bQ0gyXTIpTjNbQ0gyXVtDSDJdT1tDSDJdW0NIMl0z

> <s_epik_cmdline>
J2VwaWtfcHl0aG9uJywgJy1waCcsICc3LjAnLCAnLXRuJywgJzgnLCAnLW1hJywgJzIwMCcsICctbWV0YWxfYmluZGluZycsICctaW1hZScsICc8aW5maWxlLm1hZT4nLCAnLW9tYWUnLCAnPG91dGZpbGUubWFlPic=

> <r_epik_Ionization_Penalty>
0.983294

> <r_epik_Ionization_Penalty_Charging>
0.98326

> <r_epik_Ionization_Penalty_Neutral>
3.39688e-05

> <r_epik_State_Penalty>
1.0303

> <r_epik_Charging_Adjusted_Penalty>
2.01356

> <i_epik_Tot_Q>
1

> <i_epik_Tot_abs_Q>
1

> <r_epik_Metal_State_Penalty>
1.0303

> <b_epik_Metal_Only>
0

> <s_lp_Force_Field>
OPLS_2005

> <r_lp_Energy>
43.6882

> <b_lp_Chiralities_Consistent>
1

> <s_lp_Variant>
AV-unprocessed.smi:1933-6

> <Gold.Version>
5.8.1

> <Gold.Id.Protein>
6NUR|6NUR_protein|mol2

> <Gold.PLP.Fitness>
49.9725

> <Gold.PLP.PLP>
-33.5779

> <Gold.PLP.part.hbond>
-4.0000

> <Gold.PLP.part.metal>
0.0000

> <Gold.PLP.part.buried>
0.3859

> <Gold.PLP.part.nonpolar>
-31.6342

> <Gold.PLP.part.repulsive>
1.3628

> <Gold.PLP.ligand.clash>
0.0000

> <Gold.PLP.ligand.torsion>
0.9312

> <Gold.PLP.Chemscore.Hbond>
5.0000

> <Gold.PLP.Chemscore.CHOScore>
0.9993

> <Gold.PLP.Chemscore.Metal>
0.0000

> <Gold.Chemscore.Hbonds>
donor molecule, donor type, donor heavy atom, donor atom, acceptor molecule, acceptor atom, score
      L1  H     3    24       P1  7948  1.00
      L1  H    11    48       P1 10175  1.37
      L1  H    17    43       P1  7948  1.00
      P1  H  7989  7998       L1     9  1.00
      L1  C    22    47       P1 10747  1.00

> <Gold.PLP.Chemscore.Internal.Correction>
0.2592

> <Gold.Rescore>
     Score         DG    S(hbond)    S(metal)    S(lipo)     H(rot)  DE(clash)    DE(int)     intcor
     16.36     -24.12       3.64        0.00      94.05       1.77       4.49       3.26       ----

> <Gold.Chemscore.Fitness>
16.3622

> <Gold.Chemscore.DG>
-24.1157

> <Gold.Chemscore.ZeroCoef>
-5.4800

> <Gold.Chemscore.Hbond>
3.6395

> <Gold.Chemscore.Metal>
0.0000

> <Gold.Chemscore.Lipo>
94.0474

> <Gold.Chemscore.Internal_Hbond>
0.0000

> <Gold.Chemscore.DEClash>
4.4932

> <Gold.Chemscore.DEInternal>
3.2604

> <Gold.Chemscore.Rot>
1.7671

> <Gold.Chemscore.Internal.Correction>
   9.000000E+99

> <Gold.Chemscore.Hbonds>
donor molecule, donor type, donor heavy atom, donor atom, acceptor molecule, acceptor atom, score
      L1  H     3    24       P1  7948  0.96
      L1  H    11    48       P1 10175  0.65
      L1  H    17    43       P1  7948  0.94
      P1  H  7989  7998       L1     9  0.39

> <Gold.Chemscore.Hbond.Weighted>
-12.1560

> <Gold.Chemscore.Metal.Weighted>
-0.0000

> <Gold.Chemscore.Lipo.Weighted>
-11.0035

> <Gold.Chemscore.Internal_Hbond.Weighted>
0.0000

> <Gold.Chemscore.DEClash.Weighted>
4.4932

> <Gold.Chemscore.DEInternal.Weighted>
3.2604

> <Gold.Chemscore.Rot.Weighted>
4.5238

> <Gold.Chemscore.Internal.Correction.Weighted>
   9.000000E+99

> <Gold.Protein.RotatedTorsions>
[ 6907 6896 6895 6894 ] final -105.55 input  -60.11 | X-H torsion
[ 7974 7965 7964 7962 ] final -165.68 input  175.53 | X-H torsion
[ 8008 7997 7996 7995 ] final  145.37 input   59.86 | X-H torsion
[ 10167 10162 10161 10158 ] final  -76.19 input  -65.29 | X-H torsion
[ 10718 10713 10712 10709 ] final  -69.80 input   66.30 | X-H torsion
[ 10763 10752 10751 10750 ] final -139.94 input  -60.55 | X-H torsion
[ 11005 11000 10999 10996 ] final  -51.93 input  -57.11 | X-H torsion

> <Gold.Protein.ActiveResidues>
 VAL166  LYS551  ARG553  GLY616  TRP617  ASP618  TYR619  PRO620  LYS621  CYS622 
 ASP623  PHE694  ASN695  SER759  ASP760  ASP761  ALA762  ILE779  LEU786  VAL792 
 PHE793  MET794  SER795  GLU796  ALA797  LYS798  CYS799  TRP800  GLU811  SER814 

> <Gold.Protein.RotatedAtoms>
  150.7343  134.0109  159.3669 H   0  0  0  0  0  0  0  0  0  0  0  0  # atno 6907 bound_to 6896
  151.8069  135.0690  160.0417 H   0  0  0  0  0  0  0  0  0  0  0  0  # atno 6908 bound_to 6896
  152.3101  133.5707  159.5711 H   0  0  0  0  0  0  0  0  0  0  0  0  # atno 6909 bound_to 6896
  144.7264  140.2778  143.6240 H   0  0  0  0  0  0  0  0  0  0  0  0  # atno 7974 bound_to 7965
  156.2885  140.2211  156.5205 H   0  0  0  0  0  0  0  0  0  0  0  0  # atno 8008 bound_to 7997
  154.7533  140.0479  157.0934 H   0  0  0  0  0  0  0  0  0  0  0  0  # atno 8009 bound_to 7997
  155.0082  140.3110  155.4843 H   0  0  0  0  0  0  0  0  0  0  0  0  # atno 8010 bound_to 7997
  140.4878  143.2387  151.7955 H   0  0  0  0  0  0  0  0  0  0  0  0  # atno 10167 bound_to 10162
  156.0438  130.4319  150.2201 H   0  0  0  0  0  0  0  0  0  0  0  0  # atno 10718 bound_to 10713
  154.8594  135.3568  154.5627 H   0  0  0  0  0  0  0  0  0  0  0  0  # atno 10763 bound_to 10752
  153.6242  135.7005  153.5304 H   0  0  0  0  0  0  0  0  0  0  0  0  # atno 10764 bound_to 10752
  153.3103  135.4180  155.1290 H   0  0  0  0  0  0  0  0  0  0  0  0  # atno 10765 bound_to 10752
  141.0897  133.6635  156.3949 H   0  0  0  0  0  0  0  0  0  0  0  0  # atno 11005 bound_to 11000
  145.7980  139.1953  143.2065 LP  0  0  0  0  0  0  0  0  0  0  0  0  # atno 17320 bound_to 7965
  146.0701  140.7878  142.9692 LP  0  0  0  0  0  0  0  0  0  0  0  0  # atno 17321 bound_to 7965
  139.4845  144.4689  151.9450 LP  0  0  0  0  0  0  0  0  0  0  0  0  # atno 17342 bound_to 10162
  140.3775  144.2778  150.5912 LP  0  0  0  0  0  0  0  0  0  0  0  0  # atno 17343 bound_to 10162
  157.0293  131.0002  151.3317 LP  0  0  0  0  0  0  0  0  0  0  0  0  # atno 17370 bound_to 10713
  157.5289  130.8045  149.7893 LP  0  0  0  0  0  0  0  0  0  0  0  0  # atno 17371 bound_to 10713
  140.5280  134.6240  157.5340 LP  0  0  0  0  0  0  0  0  0  0  0  0  # atno 17394 bound_to 11000
  139.9721  134.7276  156.0021 LP  0  0  0  0  0  0  0  0  0  0  0  0  # atno 17395 bound_to 11000

$$$$
