AV-unprocessed.smi:113|AV-procd|sdf|1102|dock1
  -GOLD-   2262018213D 1   1.00000     0.00000
 Structure written by MMmdl.
 53 56  0  0  0  0  0  0  0  0  2 V2000
  148.7466  141.7136  154.1024 C   0  0  0  0  0  0  0  0  0  0  0  0
  149.7142  141.4638  155.2397 C   0  0  0  0  0  0  0  0  0  0  0  0
  150.2259  140.1824  155.5228 C   0  0  0  0  0  0  0  0  0  0  0  0
  151.1319  140.0043  156.5980 C   0  0  0  0  0  0  0  0  0  0  0  0
  151.7074  138.6229  156.9290 C   0  0  0  0  0  0  0  0  0  0  0  0
  150.7536  137.5718  157.2534 N   0  0  0  0  0  0  0  0  0  0  0  0
  150.7824  136.3879  156.4759 C   0  0  0  0  0  0  0  0  0  0  0  0
  151.5887  136.2422  155.5547 O   0  0  0  0  0  0  0  0  0  0  0  0
  149.7773  135.3832  156.8331 C   0  0  0  0  0  0  0  0  0  0  0  0
  149.7451  134.0870  156.0391 C   0  0  0  0  0  0  0  0  0  0  0  0
  148.9078  135.6316  157.8417 C   0  0  0  0  0  0  0  0  0  0  0  0
  148.9044  136.7997  158.5846 N   0  0  0  0  0  0  0  0  0  0  0  0
  147.8915  137.0127  159.6823 C   0  0  1  0  0  0  0  0  0  0  0  0
  146.5286  136.4656  159.2792 C   0  0  0  0  0  0  0  0  0  0  0  0
  145.9266  136.1384  160.6313 C   0  0  2  0  0  0  0  0  0  0  0  0
  145.2274  137.2570  161.1425 O   0  0  0  0  0  0  0  0  0  0  0  0
  147.1485  135.8227  161.5168 C   0  0  1  0  0  0  0  0  0  0  0  0
  147.3578  134.3191  161.7572 C   0  0  0  0  0  0  0  0  0  0  0  0
  146.2979  133.7914  162.5260 O   0  0  0  0  0  0  0  0  0  0  0  0
  148.2923  136.3042  160.8111 O   0  0  0  0  0  0  0  0  0  0  0  0
  149.8269  137.8227  158.2898 C   0  0  0  0  0  0  0  0  0  0  0  0
  149.8048  138.8958  158.8975 O   0  0  0  0  0  0  0  0  0  0  0  0
  151.4977  141.1435  157.3669 C   0  0  0  0  0  0  0  0  0  0  0  0
  152.3930  141.0599  158.4602 C   0  0  0  0  0  0  0  0  0  0  0  0
  152.7306  142.2113  159.1983 C   0  0  0  0  0  0  0  0  0  0  0  0
  152.1810  143.4608  158.8556 C   0  0  0  0  0  0  0  0  0  0  0  0
  151.2898  143.5621  157.7714 C   0  0  0  0  0  0  0  0  0  0  0  0
  150.9499  142.4114  157.0324 C   0  0  0  0  0  0  0  0  0  0  0  0
  150.0929  142.5149  155.9948 N   0  3  0  0  0  0  0  0  0  0  0  0
  148.2829  140.7833  153.7729 H   0  0  0  0  0  0  0  0  0  0  0  0
  149.2685  142.1558  153.2536 H   0  0  0  0  0  0  0  0  0  0  0  0
  147.9538  142.3948  154.4134 H   0  0  0  0  0  0  0  0  0  0  0  0
  149.9157  139.3501  154.9088 H   0  0  0  0  0  0  0  0  0  0  0  0
  152.3200  138.2621  156.1011 H   0  0  0  0  0  0  0  0  0  0  0  0
  152.4038  138.6966  157.7658 H   0  0  0  0  0  0  0  0  0  0  0  0
  148.9668  133.4117  156.3962 H   0  0  0  0  0  0  0  0  0  0  0  0
  150.6998  133.5660  156.1199 H   0  0  0  0  0  0  0  0  0  0  0  0
  149.5530  134.2897  154.9848 H   0  0  0  0  0  0  0  0  0  0  0  0
  148.1688  134.8772  158.0717 H   0  0  0  0  0  0  0  0  0  0  0  0
  147.8783  138.0744  159.9328 H   0  0  0  0  0  0  0  0  0  0  0  0
  145.9642  137.1864  158.6864 H   0  0  0  0  0  0  0  0  0  0  0  0
  146.6611  135.5517  158.6983 H   0  0  0  0  0  0  0  0  0  0  0  0
  145.2274  135.3040  160.5647 H   0  0  0  0  0  0  0  0  0  0  0  0
  145.5269  137.4250  162.0229 H   0  0  0  0  0  0  0  0  0  0  0  0
  147.0891  136.3408  162.4757 H   0  0  0  0  0  0  0  0  0  0  0  0
  147.4342  133.7784  160.8135 H   0  0  0  0  0  0  0  0  0  0  0  0
  148.2877  134.1523  162.3012 H   0  0  0  0  0  0  0  0  0  0  0  0
  145.7350  134.5024  162.7918 H   0  0  0  0  0  0  0  0  0  0  0  0
  152.8344  140.1193  158.7530 H   0  0  0  0  0  0  0  0  0  0  0  0
  153.4145  142.1350  160.0312 H   0  0  0  0  0  0  0  0  0  0  0  0
  152.4435  144.3407  159.4248 H   0  0  0  0  0  0  0  0  0  0  0  0
  150.8710  144.5241  157.5129 H   0  0  0  0  0  0  0  0  0  0  0  0
  149.7121  143.4341  155.7710 H   0  0  0  0  0  0  0  0  0  0  0  0
  1  2  1  0  0  0  0
  1 30  1  0  0  0  0
  1 31  1  0  0  0  0
  1 32  1  0  0  0  0
  2 29  1  0  0  0  0
  2  3  2  0  0  0  0
  3  4  1  0  0  0  0
  3 33  1  0  0  0  0
  4  5  1  0  0  0  0
  4 23  2  0  0  0  0
  5  6  1  0  0  0  0
  5 34  1  0  0  0  0
  5 35  1  0  0  0  0
  6 21  1  0  0  0  0
  6  7  1  0  0  0  0
  7  8  2  0  0  0  0
  7  9  1  0  0  0  0
  9 10  1  0  0  0  0
  9 11  2  0  0  0  0
 10 36  1  0  0  0  0
 10 37  1  0  0  0  0
 10 38  1  0  0  0  0
 11 12  1  0  0  0  0
 11 39  1  0  0  0  0
 12 13  1  0  0  0  0
 12 21  1  0  0  0  0
 13 20  1  0  0  0  0
 13 14  1  0  0  0  0
 13 40  1  0  0  0  0
 14 15  1  0  0  0  0
 14 41  1  0  0  0  0
 14 42  1  0  0  0  0
 15 16  1  0  0  0  0
 15 17  1  0  0  0  0
 15 43  1  0  0  0  0
 16 44  1  0  0  0  0
 17 18  1  0  0  0  0
 17 20  1  0  0  0  0
 17 45  1  0  0  0  0
 18 19  1  0  0  0  0
 18 46  1  0  0  0  0
 18 47  1  0  0  0  0
 19 48  1  0  0  0  0
 21 22  2  0  0  0  0
 23 28  1  0  0  0  0
 23 24  1  0  0  0  0
 24 25  2  0  0  0  0
 24 49  1  0  0  0  0
 25 26  1  0  0  0  0
 25 50  1  0  0  0  0
 26 27  2  0  0  0  0
 26 51  1  0  0  0  0
 27 28  1  0  0  0  0
 27 52  1  0  0  0  0
 28 29  2  0  0  0  0
 29 53  1  0  0  0  0
M  CHG  1  29   1
M  END
> <s_m_source_file>
AV-unprocessed.smi

> <i_m_source_file_index>
113

> <i_lp_mmshare_version>
43012

> <i_f3d_flags>
0

> <s_epik_input>
W2NIXTFbY0hdW2NIXVtjSF1jKGMxMiluYyhbQ0gzXSlbY0hdYzJbQ0gyXW4zYyg9TyljKFtDSDNdKVtjSF1uKGMzPU8pW0NAQEhdNFtDSDJdW0NAQEhdKFtPSF0pW0NASF0oTzQpW0NIMl1bT0hd

> <s_epik_cmdline>
J2VwaWtfcHl0aG9uJywgJy1waCcsICc3LjAnLCAnLXRuJywgJzgnLCAnLW1hJywgJzIwMCcsICctbWV0YWxfYmluZGluZycsICctaW1hZScsICc8aW5maWxlLm1hZT4nLCAnLW9tYWUnLCAnPG91dGZpbGUubWFlPic=

> <r_lp_tautomer_probability>
1

> <r_epik_Ionization_Penalty>
0.705471

> <r_epik_Ionization_Penalty_Charging>
0.70547

> <r_epik_Ionization_Penalty_Neutral>
1.19947e-07

> <r_epik_State_Penalty>
0.728574

> <r_epik_Charging_Adjusted_Penalty>
1.43404

> <i_epik_Tot_Q>
1

> <i_epik_Tot_abs_Q>
1

> <r_epik_Metal_State_Penalty>
4.61665

> <b_epik_Metal_Only>
0

> <s_epik_Chemistry_Notes>
This compound contains an acetal/aminal-like group ( X-CH(R)-Y where X, Y are N, S, or O) that may be acid/base labile, releasing an aldehyde.

> <s_lp_Force_Field>
OPLS_2005

> <r_lp_Energy>
43.7755

> <b_lp_Chiralities_Consistent>
1

> <s_lp_Variant>
AV-unprocessed.smi:113-12

> <Gold.Version>
5.8.1

> <Gold.Id.Protein>
6NUR|6NUR_protein|mol2

> <Gold.PLP.Fitness>
54.4135

> <Gold.PLP.PLP>
-45.1558

> <Gold.PLP.part.hbond>
-4.9279

> <Gold.PLP.part.metal>
0.0000

> <Gold.PLP.part.buried>
-3.0390

> <Gold.PLP.part.nonpolar>
-38.6251

> <Gold.PLP.part.repulsive>
0.1773

> <Gold.PLP.ligand.clash>
0.0000

> <Gold.PLP.ligand.torsion>
0.5553

> <Gold.PLP.Chemscore.Hbond>
3.4469

> <Gold.PLP.Chemscore.CHOScore>
0.0000

> <Gold.PLP.Chemscore.Metal>
0.0000

> <Gold.Chemscore.Hbonds>
donor molecule, donor type, donor heavy atom, donor atom, acceptor molecule, acceptor atom, score
      L1  H    29    53       P1  8028  2.00
      P1  H  6931  6943       L1    20  0.14
      P1  H 10752 10763       L1     8  1.00

> <Gold.PLP.Chemscore.Internal.Correction>
0.0276

> <Gold.Rescore>
     Score         DG    S(hbond)    S(metal)    S(lipo)     H(rot)  DE(clash)    DE(int)     intcor
     17.21     -18.76       2.00        0.00     122.37       3.01       0.06       1.49       ----

> <Gold.Chemscore.Fitness>
17.2076

> <Gold.Chemscore.DG>
-18.7582

> <Gold.Chemscore.ZeroCoef>
-5.4800

> <Gold.Chemscore.Hbond>
1.9975

> <Gold.Chemscore.Metal>
0.0000

> <Gold.Chemscore.Lipo>
122.3703

> <Gold.Chemscore.Internal_Hbond>
0.0000

> <Gold.Chemscore.DEClash>
0.0593

> <Gold.Chemscore.DEInternal>
1.4914

> <Gold.Chemscore.Rot>
3.0120

> <Gold.Chemscore.Internal.Correction>
   9.000000E+99

> <Gold.Chemscore.Hbonds>
donor molecule, donor type, donor heavy atom, donor atom, acceptor molecule, acceptor atom, score
      L1  H    29    53       P1  8028  0.93
      P1  H  6931  6943       L1    20  0.01
      P1  H 10752 10763       L1     8  1.00

> <Gold.Chemscore.Hbond.Weighted>
-6.6717

> <Gold.Chemscore.Metal.Weighted>
-0.0000

> <Gold.Chemscore.Lipo.Weighted>
-14.3173

> <Gold.Chemscore.Internal_Hbond.Weighted>
0.0000

> <Gold.Chemscore.DEClash.Weighted>
0.0593

> <Gold.Chemscore.DEInternal.Weighted>
1.4914

> <Gold.Chemscore.Rot.Weighted>
7.7108

> <Gold.Chemscore.Internal.Correction.Weighted>
   9.000000E+99

> <Gold.Protein.RotatedTorsions>
[ 6907 6896 6895 6894 ] final  -44.71 input  -60.11 | X-H torsion
[ 7974 7965 7964 7962 ] final -118.03 input  175.53 | X-H torsion
[ 8008 7997 7996 7995 ] final -100.71 input   59.86 | X-H torsion
[ 10167 10162 10161 10158 ] final -126.45 input  -65.29 | X-H torsion
[ 10718 10713 10712 10709 ] final -107.17 input   66.30 | X-H torsion
[ 10763 10752 10751 10750 ] final   79.05 input  -60.55 | X-H torsion
[ 11005 11000 10999 10996 ] final   -6.16 input  -57.11 | X-H torsion

> <Gold.Protein.ActiveResidues>
 VAL166  LYS551  ARG553  GLY616  TRP617  ASP618  TYR619  PRO620  LYS621  CYS622 
 ASP623  PHE694  ASN695  SER759  ASP760  ASP761  ALA762  ILE779  LEU786  VAL792 
 PHE793  MET794  SER795  GLU796  ALA797  LYS798  CYS799  TRP800  GLU811  SER814 

> <Gold.Protein.RotatedAtoms>
  150.9299  134.8714  159.7543 H   0  0  0  0  0  0  0  0  0  0  0  0  # atno 6907 bound_to 6896
  152.5033  134.4095  159.9453 H   0  0  0  0  0  0  0  0  0  0  0  0  # atno 6908 bound_to 6896
  151.4122  133.3684  159.2780 H   0  0  0  0  0  0  0  0  0  0  0  0  # atno 6909 bound_to 6896
  145.0785  140.8409  143.4053 H   0  0  0  0  0  0  0  0  0  0  0  0  # atno 7974 bound_to 7965
  154.8324  140.0439  157.1486 H   0  0  0  0  0  0  0  0  0  0  0  0  # atno 8008 bound_to 7997
  154.9138  140.3017  155.5232 H   0  0  0  0  0  0  0  0  0  0  0  0  # atno 8009 bound_to 7997
  156.2988  140.2353  156.4180 H   0  0  0  0  0  0  0  0  0  0  0  0  # atno 8010 bound_to 7997
  139.9713  143.5842  152.2411 H   0  0  0  0  0  0  0  0  0  0  0  0  # atno 10167 bound_to 10162
  156.0424  130.5649  150.7783 H   0  0  0  0  0  0  0  0  0  0  0  0  # atno 10718 bound_to 10713
  153.0922  135.4854  154.8711 H   0  0  0  0  0  0  0  0  0  0  0  0  # atno 10763 bound_to 10752
  154.7283  135.3054  154.8937 H   0  0  0  0  0  0  0  0  0  0  0  0  # atno 10764 bound_to 10752
  153.9580  135.6815  153.4798 H   0  0  0  0  0  0  0  0  0  0  0  0  # atno 10765 bound_to 10752
  140.6990  133.9006  155.8670 H   0  0  0  0  0  0  0  0  0  0  0  0  # atno 11005 bound_to 11000
  145.1207  139.2695  143.5590 LP  0  0  0  0  0  0  0  0  0  0  0  0  # atno 17320 bound_to 7965
  146.3530  140.0830  142.8616 LP  0  0  0  0  0  0  0  0  0  0  0  0  # atno 17321 bound_to 7965
  139.6479  144.7659  151.2207 LP  0  0  0  0  0  0  0  0  0  0  0  0  # atno 17342 bound_to 10162
  140.7521  143.6209  150.8514 LP  0  0  0  0  0  0  0  0  0  0  0  0  # atno 17343 bound_to 10162
  157.5258  131.0934  151.0020 LP  0  0  0  0  0  0  0  0  0  0  0  0  # atno 17370 bound_to 10713
  157.0339  130.5722  149.5347 LP  0  0  0  0  0  0  0  0  0  0  0  0  # atno 17371 bound_to 10713
  141.0179  134.0930  157.4152 LP  0  0  0  0  0  0  0  0  0  0  0  0  # atno 17394 bound_to 11000
  139.8902  135.0110  156.6722 LP  0  0  0  0  0  0  0  0  0  0  0  0  # atno 17395 bound_to 11000

$$$$
