AV-unprocessed.smi:218|AV-procd|sdf|1668|dock9
  -GOLD-   2262020 83D 1   1.00000     0.00000
 Structure written by MMmdl.
 54 57  0  0  0  0  0  0  0  0  1 V2000
  153.9446  141.5022  160.4618 C   0  0  0  0  0  0  0  0  0  0  0  0
  152.9383  142.6535  160.5780 C   0  0  0  0  0  0  0  0  0  0  0  0
  152.8245  143.1493  162.0298 C   0  0  0  0  0  0  0  0  0  0  0  0
  151.6779  142.1521  160.1287 O   0  0  0  0  0  0  0  0  0  0  0  0
  151.5279  141.7188  158.8254 C   0  0  0  0  0  0  0  0  0  0  0  0
  151.8797  140.3883  158.5198 C   0  0  0  0  0  0  0  0  0  0  0  0
  151.7410  139.9343  157.1927 C   0  0  0  0  0  0  0  0  0  0  0  0
  152.0985  138.5096  156.8275 C   0  0  0  0  0  0  0  0  0  0  0  0
  151.6894  138.1570  155.4751 N   0  0  0  0  0  0  0  0  0  0  0  0
  150.8718  137.1024  155.2701 C   0  0  0  0  0  0  0  0  0  0  0  0
  151.3623  135.8368  155.2253 N   0  0  0  0  0  0  0  0  0  0  0  0
  150.5325  134.8073  155.0371 C   0  0  0  0  0  0  0  0  0  0  0  0
  149.2088  134.8242  154.8692 N   0  0  0  0  0  0  0  0  0  0  0  0
  148.7073  136.0944  154.8996 C   0  0  0  0  0  0  0  0  0  0  0  0
  149.4733  137.2770  155.1030 C   0  0  0  0  0  0  0  0  0  0  0  0
  148.6388  138.3848  155.1024 N   0  0  0  0  0  0  0  0  0  0  0  0
  147.4489  137.8814  154.9182 C   0  0  0  0  0  0  0  0  0  0  0  0
  147.3957  136.5125  154.7479 N   0  0  0  0  0  0  0  0  0  0  0  0
  146.1677  135.6564  154.5604 C   0  0  2  0  0  0  0  0  0  0  0  0
  146.2516  134.9772  153.3484 O   0  0  0  0  0  0  0  0  0  0  0  0
  145.7533  135.8116  152.3141 C   0  0  1  0  0  0  0  0  0  0  0  0
  145.4253  134.9535  151.0832 C   0  0  0  0  0  0  0  0  0  0  0  0
  144.9033  135.7553  150.0455 O   0  0  0  0  0  0  0  0  0  0  0  0
  144.5458  136.4929  152.9725 C   0  0  2  0  0  0  0  0  0  0  0  0
  144.4027  137.8093  152.4762 O   0  0  0  0  0  0  0  0  0  0  0  0
  144.8947  136.5218  154.4640 C   0  0  1  0  0  0  0  0  0  0  0  0
  143.8459  135.9740  155.2359 O   0  0  0  0  0  0  0  0  0  0  0  0
  151.2518  140.8282  156.2197 C   0  0  0  0  0  0  0  0  0  0  0  0
  150.9270  142.1389  156.6198 C   0  0  0  0  0  0  0  0  0  0  0  0
  151.0598  142.5809  157.8885 N   0  0  0  0  0  0  0  0  0  0  0  0
  146.1919  134.9755  155.4121 H   0  0  0  0  0  0  0  0  0  0  0  0
  146.5263  136.5433  152.0694 H   0  0  0  0  0  0  0  0  0  0  0  0
  143.6329  135.9232  152.7917 H   0  0  0  0  0  0  0  0  0  0  0  0
  145.0803  137.5355  154.8178 H   0  0  0  0  0  0  0  0  0  0  0  0
  154.9382  141.8145  160.7843 H   0  0  0  0  0  0  0  0  0  0  0  0
  154.0247  141.1579  159.4304 H   0  0  0  0  0  0  0  0  0  0  0  0
  153.6457  140.6514  161.0746 H   0  0  0  0  0  0  0  0  0  0  0  0
  153.2961  143.4588  159.9349 H   0  0  0  0  0  0  0  0  0  0  0  0
  153.7881  143.5011  162.3987 H   0  0  0  0  0  0  0  0  0  0  0  0
  152.4858  142.3515  162.6913 H   0  0  0  0  0  0  0  0  0  0  0  0
  152.1192  143.9748  162.1209 H   0  0  0  0  0  0  0  0  0  0  0  0
  152.2493  139.7293  159.2920 H   0  0  0  0  0  0  0  0  0  0  0  0
  153.1757  138.3700  156.9282 H   0  0  0  0  0  0  0  0  0  0  0  0
  151.6196  137.8390  157.5423 H   0  0  0  0  0  0  0  0  0  0  0  0
  152.0647  138.7269  154.7307 H   0  0  0  0  0  0  0  0  0  0  0  0
  150.9936  133.8309  155.0182 H   0  0  0  0  0  0  0  0  0  0  0  0
  146.5687  138.5078  154.9058 H   0  0  0  0  0  0  0  0  0  0  0  0
  146.3302  134.4686  150.7164 H   0  0  0  0  0  0  0  0  0  0  0  0
  144.7150  134.1647  151.3317 H   0  0  0  0  0  0  0  0  0  0  0  0
  145.1607  135.3800  149.2172 H   0  0  0  0  0  0  0  0  0  0  0  0
  143.9351  137.7721  151.6560 H   0  0  0  0  0  0  0  0  0  0  0  0
  143.2398  136.6670  155.4498 H   0  0  0  0  0  0  0  0  0  0  0  0
  151.1264  140.5202  155.1920 H   0  0  0  0  0  0  0  0  0  0  0  0
  150.5499  142.8517  155.9015 H   0  0  0  0  0  0  0  0  0  0  0  0
  1  2  1  0  0  0  0
  1 35  1  0  0  0  0
  1 36  1  0  0  0  0
  1 37  1  0  0  0  0
  2  3  1  0  0  0  0
  2  4  1  0  0  0  0
  2 38  1  0  0  0  0
  3 39  1  0  0  0  0
  3 40  1  0  0  0  0
  3 41  1  0  0  0  0
  4  5  1  0  0  0  0
  5 30  1  0  0  0  0
  5  6  2  0  0  0  0
  6  7  1  0  0  0  0
  6 42  1  0  0  0  0
  7  8  1  0  0  0  0
  7 28  2  0  0  0  0
  8  9  1  0  0  0  0
  8 43  1  0  0  0  0
  8 44  1  0  0  0  0
  9 10  1  0  0  0  0
  9 45  1  0  0  0  0
 10 15  1  0  0  0  0
 10 11  2  0  0  0  0
 11 12  1  0  0  0  0
 12 13  2  0  0  0  0
 12 46  1  0  0  0  0
 13 14  1  0  0  0  0
 14 18  1  0  0  0  0
 14 15  2  0  0  0  0
 15 16  1  0  0  0  0
 16 17  2  0  0  0  0
 17 18  1  0  0  0  0
 17 47  1  0  0  0  0
 18 19  1  0  0  0  0
 19 31  1  0  0  0  0
 19 26  1  0  0  0  0
 19 20  1  0  0  0  0
 20 21  1  0  0  0  0
 21 32  1  0  0  0  0
 21 22  1  0  0  0  0
 21 24  1  0  0  0  0
 22 23  1  0  0  0  0
 22 48  1  0  0  0  0
 22 49  1  0  0  0  0
 23 50  1  0  0  0  0
 24 33  1  0  0  0  0
 24 25  1  0  0  0  0
 24 26  1  0  0  0  0
 25 51  1  0  0  0  0
 26 34  1  0  0  0  0
 26 27  1  0  0  0  0
 27 52  1  0  0  0  0
 28 29  1  0  0  0  0
 28 53  1  0  0  0  0
 29 30  2  0  0  0  0
 29 54  1  0  0  0  0
M  END
> <s_m_source_file>
AV-unprocessed.smi

> <i_m_source_file_index>
218

> <i_lp_mmshare_version>
43012

> <i_f3d_flags>
0

> <s_epik_input>
W0NIM11bQ0hdKFtDSDNdKU9jMVtjSF1jKFtjSF1bY0hdbjEpW0NIMl1bTkhdYyhuW2NIXW4yKWMoYzIzKW5bY0hdbjNbQ0BASF00T1tDQEhdKFtDSDJdW09IXSlbQ0BASF0oW09IXSlbQ0BIXTRbT0hd

> <s_epik_cmdline>
J2VwaWtfcHl0aG9uJywgJy1waCcsICc3LjAnLCAnLXRuJywgJzgnLCAnLW1hJywgJzIwMCcsICctbWV0YWxfYmluZGluZycsICctaW1hZScsICc8aW5maWxlLm1hZT4nLCAnLW9tYWUnLCAnPG91dGZpbGUubWFlPic=

> <r_lp_tautomer_probability>
1

> <r_epik_Ionization_Penalty>
0.00457014

> <r_epik_Ionization_Penalty_Charging>
0

> <r_epik_Ionization_Penalty_Neutral>
0.00457014

> <r_epik_State_Penalty>
-0

> <r_epik_Charging_Adjusted_Penalty>
0

> <i_epik_Tot_Q>
0

> <i_epik_Tot_abs_Q>
0

> <r_epik_Metal_State_Penalty>
-0

> <b_epik_Metal_Only>
0

> <s_epik_Chemistry_Notes>
This compound contains an acetal/aminal-like group ( X-CH(R)-Y where X, Y are N, S, or O) that may be acid/base labile, releasing an aldehyde.

> <s_lp_Force_Field>
OPLS_2005

> <r_lp_Energy>
35.6768

> <b_lp_Chiralities_Consistent>
1

> <s_lp_Variant>
AV-unprocessed.smi:218-7

> <Gold.Version>
5.8.1

> <Gold.Id.Protein>
6NUR|6NUR_protein|mol2

> <Gold.PLP.Fitness>
53.4264

> <Gold.PLP.PLP>
-43.7252

> <Gold.PLP.part.hbond>
-5.6563

> <Gold.PLP.part.metal>
0.0000

> <Gold.PLP.part.buried>
-6.7031

> <Gold.PLP.part.nonpolar>
-30.7274

> <Gold.PLP.part.repulsive>
0.6745

> <Gold.PLP.ligand.clash>
0.0000

> <Gold.PLP.ligand.torsion>
1.2087

> <Gold.PLP.Chemscore.Hbond>
3.0000

> <Gold.PLP.Chemscore.CHOScore>
1.0000

> <Gold.PLP.Chemscore.Metal>
0.0000

> <Gold.Chemscore.Hbonds>
donor molecule, donor type, donor heavy atom, donor atom, acceptor molecule, acceptor atom, score
      L1  H    23    50       P1  7921  1.00
      L1  H    25    51       P1 10171  0.86
      P1  H 10752 10764       L1    11  1.00
      L1  C    29    54       P1  8028  1.00

> <Gold.PLP.Chemscore.Internal.Correction>
0.1185

> <Gold.Rescore>
     Score         DG    S(hbond)    S(metal)    S(lipo)     H(rot)  DE(clash)    DE(int)     intcor
     10.80     -12.12       2.90        0.00      81.25       4.90       0.08       1.24       ----

> <Gold.Chemscore.Fitness>
10.7987

> <Gold.Chemscore.DG>
-12.1217

> <Gold.Chemscore.ZeroCoef>
-5.4800

> <Gold.Chemscore.Hbond>
2.9003

> <Gold.Chemscore.Metal>
0.0000

> <Gold.Chemscore.Lipo>
81.2506

> <Gold.Chemscore.Internal_Hbond>
0.0000

> <Gold.Chemscore.DEClash>
0.0805

> <Gold.Chemscore.DEInternal>
1.2425

> <Gold.Chemscore.Rot>
4.9029

> <Gold.Chemscore.Internal.Correction>
   9.000000E+99

> <Gold.Chemscore.Hbonds>
donor molecule, donor type, donor heavy atom, donor atom, acceptor molecule, acceptor atom, score
      L1  H    23    50       P1  7921  0.99
      L1  H    25    51       P1 10171  0.81
      P1  H 10752 10764       L1    11  0.88

> <Gold.Chemscore.Hbond.Weighted>
-9.6869

> <Gold.Chemscore.Metal.Weighted>
-0.0000

> <Gold.Chemscore.Lipo.Weighted>
-9.5063

> <Gold.Chemscore.Internal_Hbond.Weighted>
0.0000

> <Gold.Chemscore.DEClash.Weighted>
0.0805

> <Gold.Chemscore.DEInternal.Weighted>
1.2425

> <Gold.Chemscore.Rot.Weighted>
12.5515

> <Gold.Chemscore.Internal.Correction.Weighted>
   9.000000E+99

> <Gold.Protein.RotatedTorsions>
[ 6907 6896 6895 6894 ] final   17.42 input  -60.11 | X-H torsion
[ 7974 7965 7964 7962 ] final  -61.47 input  175.53 | X-H torsion
[ 8008 7997 7996 7995 ] final  -43.30 input   59.86 | X-H torsion
[ 10167 10162 10161 10158 ] final  161.70 input  -65.29 | X-H torsion
[ 10718 10713 10712 10709 ] final -108.66 input   66.30 | X-H torsion
[ 10763 10752 10751 10750 ] final  -37.82 input  -60.55 | X-H torsion
[ 11005 11000 10999 10996 ] final  -19.56 input  -57.11 | X-H torsion

> <Gold.Protein.ActiveResidues>
 VAL166  LYS551  ARG553  GLY616  TRP617  ASP618  TYR619  PRO620  LYS621  CYS622 
 ASP623  PHE694  ASN695  SER759  ASP760  ASP761  ALA762  ILE779  LEU786  VAL792 
 PHE793  MET794  SER795  GLU796  ALA797  LYS798  CYS799  TRP800  GLU811  SER814 

> <Gold.Protein.RotatedAtoms>
  151.8494  135.0563  160.0456 H   0  0  0  0  0  0  0  0  0  0  0  0  # atno 6907 bound_to 6896
  152.2748  133.5411  159.5469 H   0  0  0  0  0  0  0  0  0  0  0  0  # atno 6908 bound_to 6896
  150.7166  134.0563  159.3858 H   0  0  0  0  0  0  0  0  0  0  0  0  # atno 6909 bound_to 6896
  145.8031  140.8643  143.0221 H   0  0  0  0  0  0  0  0  0  0  0  0  # atno 7974 bound_to 7965
  154.3997  140.1451  156.3496 H   0  0  0  0  0  0  0  0  0  0  0  0  # atno 8008 bound_to 7997
  155.8281  140.3467  155.5534 H   0  0  0  0  0  0  0  0  0  0  0  0  # atno 8009 bound_to 7997
  155.8217  140.0899  157.1835 H   0  0  0  0  0  0  0  0  0  0  0  0  # atno 8010 bound_to 7997
  139.4852  144.4511  151.8829 H   0  0  0  0  0  0  0  0  0  0  0  0  # atno 10167 bound_to 10162
  156.0497  130.5724  150.7992 H   0  0  0  0  0  0  0  0  0  0  0  0  # atno 10718 bound_to 10713
  153.9026  135.6801  153.4754 H   0  0  0  0  0  0  0  0  0  0  0  0  # atno 10763 bound_to 10752
  153.1121  135.4778  154.9051 H   0  0  0  0  0  0  0  0  0  0  0  0  # atno 10764 bound_to 10752
  154.7568  135.3199  154.8410 H   0  0  0  0  0  0  0  0  0  0  0  0  # atno 10765 bound_to 10752
  140.8378  133.7949  155.9828 H   0  0  0  0  0  0  0  0  0  0  0  0  # atno 11005 bound_to 11000
  144.6766  140.0288  143.7483 LP  0  0  0  0  0  0  0  0  0  0  0  0  # atno 17320 bound_to 7965
  145.9857  139.2975  143.1015 LP  0  0  0  0  0  0  0  0  0  0  0  0  # atno 17321 bound_to 7965
  140.3967  144.2545  150.5895 LP  0  0  0  0  0  0  0  0  0  0  0  0  # atno 17342 bound_to 10162
  140.5095  143.2294  151.8557 LP  0  0  0  0  0  0  0  0  0  0  0  0  # atno 17343 bound_to 10162
  157.5410  131.0940  150.9827 LP  0  0  0  0  0  0  0  0  0  0  0  0  # atno 17370 bound_to 10713
  157.0110  130.5636  149.5321 LP  0  0  0  0  0  0  0  0  0  0  0  0  # atno 17371 bound_to 10713
  140.8928  134.2474  157.5085 LP  0  0  0  0  0  0  0  0  0  0  0  0  # atno 17394 bound_to 11000
  139.8704  134.9669  156.4580 LP  0  0  0  0  0  0  0  0  0  0  0  0  # atno 17395 bound_to 11000

$$$$
