AV-unprocessed.smi:468|AV-procd|sdf|2652|dock4
  -GOLD-   2262023 63D 1   1.00000     0.00000
 Structure written by MMmdl.
 49 50  0  0  0  0  0  0  0  0  2 V2000
  149.6407  134.3399  154.7876 C   0  0  0  0  0  0  0  0  0  0  0  0
  149.3763  134.1489  156.1653 O   0  0  0  0  0  0  0  0  0  0  0  0
  148.9327  135.3321  156.8078 C   0  0  0  0  0  0  0  0  0  0  0  0
  148.6570  135.0355  158.2910 C   0  0  0  0  0  0  0  0  0  0  0  0
  148.4827  136.2597  159.0903 N   0  0  0  0  0  0  0  0  0  0  0  0
  147.8483  136.2253  160.2922 C   0  0  0  0  0  0  0  0  0  0  0  0
  147.7801  137.2196  161.0174 O   0  0  0  0  0  0  0  0  0  0  0  0
  147.1536  134.9202  160.7458 C   0  0  0  0  0  0  0  0  0  0  0  0
  145.6881  135.0594  161.2077 C   0  0  0  0  0  0  0  0  0  0  0  0
  146.0191  134.1407  162.3868 C   0  0  0  0  0  0  0  0  0  0  0  0
  147.4936  134.4989  162.1852 C   0  0  0  0  0  0  0  0  0  0  0  0
  149.0429  137.4420  158.5712 C   0  0  0  0  0  0  0  0  0  0  0  0
  148.3111  138.3562  157.8795 C   0  0  0  0  0  0  0  0  0  0  0  0
  146.9585  138.1564  157.6423 N   0  0  0  0  0  0  0  0  0  0  0  0
  148.9313  139.5336  157.3811 N   0  0  0  0  0  0  0  0  0  0  0  0
  148.1097  140.5036  156.6200 C   0  0  0  0  0  0  0  0  0  0  0  0
  148.7388  140.9091  155.2642 C   0  0  0  0  0  0  0  0  0  0  0  0
  147.7911  141.7401  154.3827 C   0  0  0  0  0  0  0  0  0  0  0  0
  149.2265  139.6663  154.5052 C   0  0  0  0  0  0  0  0  0  0  0  0
  150.2635  139.7657  157.5983 C   0  0  0  0  0  0  0  0  0  0  0  0
  150.7803  140.7900  157.1503 O   0  0  0  0  0  0  0  0  0  0  0  0
  150.9900  138.8514  158.3026 N   0  5  0  0  0  0  0  0  0  0  0  0
  150.4669  137.7027  158.8059 C   0  0  0  0  0  0  0  0  0  0  0  0
  151.1448  136.8980  159.4455 O   0  0  0  0  0  0  0  0  0  0  0  0
  149.9738  133.4002  154.3471 H   0  0  0  0  0  0  0  0  0  0  0  0
  150.4279  135.0795  154.6367 H   0  0  0  0  0  0  0  0  0  0  0  0
  148.7461  134.6647  154.2552 H   0  0  0  0  0  0  0  0  0  0  0  0
  149.6670  136.1319  156.6999 H   0  0  0  0  0  0  0  0  0  0  0  0
  148.0128  135.6712  156.3297 H   0  0  0  0  0  0  0  0  0  0  0  0
  147.7657  134.4120  158.3790 H   0  0  0  0  0  0  0  0  0  0  0  0
  149.4683  134.4266  158.6936 H   0  0  0  0  0  0  0  0  0  0  0  0
  147.2483  134.0934  160.0401 H   0  0  0  0  0  0  0  0  0  0  0  0
  145.3945  136.0579  161.5350 H   0  0  0  0  0  0  0  0  0  0  0  0
  144.9580  134.6413  160.5143 H   0  0  0  0  0  0  0  0  0  0  0  0
  145.6001  134.4559  163.3429 H   0  0  0  0  0  0  0  0  0  0  0  0
  145.8078  133.0911  162.1762 H   0  0  0  0  0  0  0  0  0  0  0  0
  148.1702  133.6468  162.2563 H   0  0  0  0  0  0  0  0  0  0  0  0
  147.8215  135.3245  162.8194 H   0  0  0  0  0  0  0  0  0  0  0  0
  146.4870  137.3286  157.9774 H   0  0  0  0  0  0  0  0  0  0  0  0
  146.4710  138.6890  156.9365 H   0  0  0  0  0  0  0  0  0  0  0  0
  147.1171  140.0826  156.4556 H   0  0  0  0  0  0  0  0  0  0  0  0
  147.9024  141.4038  157.2002 H   0  0  0  0  0  0  0  0  0  0  0  0
  149.6163  141.5254  155.4610 H   0  0  0  0  0  0  0  0  0  0  0  0
  146.8643  141.2023  154.1812 H   0  0  0  0  0  0  0  0  0  0  0  0
  148.2534  141.9781  153.4244 H   0  0  0  0  0  0  0  0  0  0  0  0
  147.5321  142.6871  154.8564 H   0  0  0  0  0  0  0  0  0  0  0  0
  148.3969  139.0034  154.2571 H   0  0  0  0  0  0  0  0  0  0  0  0
  149.9414  139.0976  155.1006 H   0  0  0  0  0  0  0  0  0  0  0  0
  149.7224  139.9424  153.5743 H   0  0  0  0  0  0  0  0  0  0  0  0
  1  2  1  0  0  0  0
  1 25  1  0  0  0  0
  1 26  1  0  0  0  0
  1 27  1  0  0  0  0
  2  3  1  0  0  0  0
  3  4  1  0  0  0  0
  3 28  1  0  0  0  0
  3 29  1  0  0  0  0
  4  5  1  0  0  0  0
  4 30  1  0  0  0  0
  4 31  1  0  0  0  0
  5  6  1  0  0  0  0
  5 12  1  0  0  0  0
  6  7  2  0  0  0  0
  6  8  1  0  0  0  0
  8 11  1  0  0  0  0
  8  9  1  0  0  0  0
  8 32  1  0  0  0  0
  9 10  1  0  0  0  0
  9 33  1  0  0  0  0
  9 34  1  0  0  0  0
 10 11  1  0  0  0  0
 10 35  1  0  0  0  0
 10 36  1  0  0  0  0
 11 37  1  0  0  0  0
 11 38  1  0  0  0  0
 12 23  1  0  0  0  0
 12 13  2  0  0  0  0
 13 14  1  0  0  0  0
 13 15  1  0  0  0  0
 14 39  1  0  0  0  0
 14 40  1  0  0  0  0
 15 16  1  0  0  0  0
 15 20  1  0  0  0  0
 16 17  1  0  0  0  0
 16 41  1  0  0  0  0
 16 42  1  0  0  0  0
 17 18  1  0  0  0  0
 17 19  1  0  0  0  0
 17 43  1  0  0  0  0
 18 44  1  0  0  0  0
 18 45  1  0  0  0  0
 18 46  1  0  0  0  0
 19 47  1  0  0  0  0
 19 48  1  0  0  0  0
 19 49  1  0  0  0  0
 20 21  2  0  0  0  0
 20 22  1  0  0  0  0
 22 23  1  0  0  0  0
 23 24  2  0  0  0  0
M  CHG  1  22  -1
M  END
> <s_m_source_file>
AV-unprocessed.smi

> <i_m_source_file_index>
468

> <i_lp_mmshare_version>
43012

> <i_f3d_flags>
0

> <s_epik_input>
W0NIMl0xW0NIMl1bQ0gyXVtDSF0xQyg9TylOKFtDSDJdW0NIMl1PW0NIM10pYzJjKFtOSDJdKW4oW0NIMl1bQ0hdKFtDSDNdKVtDSDNdKWMoPU8pW25IXWMyPU8=

> <s_epik_cmdline>
J2VwaWtfcHl0aG9uJywgJy1waCcsICc3LjAnLCAnLXRuJywgJzgnLCAnLW1hJywgJzIwMCcsICctbWV0YWxfYmluZGluZycsICctaW1hZScsICc8aW5maWxlLm1hZT4nLCAnLW9tYWUnLCAnPG91dGZpbGUubWFlPic=

> <r_lp_tautomer_probability>
1

> <r_epik_Ionization_Penalty>
5.91772

> <r_epik_Ionization_Penalty_Charging>
1.97379e-07

> <r_epik_Ionization_Penalty_Neutral>
5.91772

> <r_epik_State_Penalty>
5.91769

> <r_epik_Charging_Adjusted_Penalty>
5.91769

> <i_epik_Tot_Q>
-1

> <i_epik_Tot_abs_Q>
1

> <r_epik_Metal_State_Penalty>
1.85156

> <b_epik_Metal_Only>
1

> <s_lp_Force_Field>
OPLS_2005

> <r_lp_Energy>
46.8311

> <b_lp_Chiralities_Consistent>
1

> <s_lp_Variant>
AV-unprocessed.smi:468-2

> <Gold.Version>
5.8.1

> <Gold.Id.Protein>
6NUR|6NUR_protein|mol2

> <Gold.PLP.Fitness>
39.6651

> <Gold.PLP.PLP>
-33.0668

> <Gold.PLP.part.hbond>
-3.0000

> <Gold.PLP.part.metal>
0.0000

> <Gold.PLP.part.buried>
-5.6031

> <Gold.PLP.part.nonpolar>
-25.1131

> <Gold.PLP.part.repulsive>
0.0766

> <Gold.PLP.ligand.clash>
0.0000

> <Gold.PLP.ligand.torsion>
2.1823

> <Gold.PLP.Chemscore.Hbond>
2.7440

> <Gold.PLP.Chemscore.CHOScore>
0.0000

> <Gold.PLP.Chemscore.Metal>
0.0000

> <Gold.Chemscore.Hbonds>
donor molecule, donor type, donor heavy atom, donor atom, acceptor molecule, acceptor atom, score
      P1  H  6896  6908       L1    24  1.00
      P1  H  6931  6943       L1     7  0.90
      P1  H  6934  6947       L1     7  0.83

> <Gold.PLP.Chemscore.Internal.Correction>
2.7309

> <Gold.Rescore>
     Score         DG    S(hbond)    S(metal)    S(lipo)     H(rot)  DE(clash)    DE(int)     intcor
     13.28     -16.60       2.74        0.00      61.34       2.04       0.00       3.32       ----

> <Gold.Chemscore.Fitness>
13.2804

> <Gold.Chemscore.DG>
-16.5996

> <Gold.Chemscore.ZeroCoef>
-5.4800

> <Gold.Chemscore.Hbond>
2.7410

> <Gold.Chemscore.Metal>
0.0000

> <Gold.Chemscore.Lipo>
61.3435

> <Gold.Chemscore.Internal_Hbond>
0.0000

> <Gold.Chemscore.DEClash>
0.0018

> <Gold.Chemscore.DEInternal>
3.3174

> <Gold.Chemscore.Rot>
2.0362

> <Gold.Chemscore.Internal.Correction>
   9.000000E+99

> <Gold.Chemscore.Hbonds>
donor molecule, donor type, donor heavy atom, donor atom, acceptor molecule, acceptor atom, score
      P1  H  6896  6908       L1    24  0.97
      P1  H  6931  6943       L1     7  0.88
      P1  H  6934  6947       L1     7  0.83

> <Gold.Chemscore.Hbond.Weighted>
-9.1550

> <Gold.Chemscore.Metal.Weighted>
-0.0000

> <Gold.Chemscore.Lipo.Weighted>
-7.1772

> <Gold.Chemscore.Internal_Hbond.Weighted>
0.0000

> <Gold.Chemscore.DEClash.Weighted>
0.0018

> <Gold.Chemscore.DEInternal.Weighted>
3.3174

> <Gold.Chemscore.Rot.Weighted>
5.2126

> <Gold.Chemscore.Internal.Correction.Weighted>
   9.000000E+99

> <Gold.Protein.RotatedTorsions>
[ 6907 6896 6895 6894 ] final -150.58 input  -60.11 | X-H torsion
[ 7974 7965 7964 7962 ] final -127.42 input  175.53 | X-H torsion
[ 8008 7997 7996 7995 ] final  116.91 input   59.86 | X-H torsion
[ 10167 10162 10161 10158 ] final  -54.75 input  -65.29 | X-H torsion
[ 10718 10713 10712 10709 ] final -174.87 input   66.30 | X-H torsion
[ 10763 10752 10751 10750 ] final  -39.80 input  -60.55 | X-H torsion
[ 11005 11000 10999 10996 ] final  -74.31 input  -57.11 | X-H torsion

> <Gold.Protein.ActiveResidues>
 VAL166  LYS551  ARG553  GLY616  TRP617  ASP618  TYR619  PRO620  LYS621  CYS622 
 ASP623  PHE694  ASN695  SER759  ASP760  ASP761  ALA762  ILE779  LEU786  VAL792 
 PHE793  MET794  SER795  GLU796  ALA797  LYS798  CYS799  TRP800  GLU811  SER814 

> <Gold.Protein.RotatedAtoms>
  151.2006  133.4613  159.2595 H   0  0  0  0  0  0  0  0  0  0  0  0  # atno 6907 bound_to 6896
  151.1073  135.0007  159.8487 H   0  0  0  0  0  0  0  0  0  0  0  0  # atno 6908 bound_to 6896
  152.5448  134.1928  159.8733 H   0  0  0  0  0  0  0  0  0  0  0  0  # atno 6909 bound_to 6896
  144.9773  140.7605  143.4634 H   0  0  0  0  0  0  0  0  0  0  0  0  # atno 7974 bound_to 7965
  156.2465  140.2907  156.0596 H   0  0  0  0  0  0  0  0  0  0  0  0  # atno 8008 bound_to 7997
  155.1791  140.0404  157.2896 H   0  0  0  0  0  0  0  0  0  0  0  0  # atno 8009 bound_to 7997
  154.6272  140.2490  155.7484 H   0  0  0  0  0  0  0  0  0  0  0  0  # atno 8010 bound_to 7997
  140.6413  143.2509  151.4981 H   0  0  0  0  0  0  0  0  0  0  0  0  # atno 10167 bound_to 10162
  156.7915  130.9519  151.3120 H   0  0  0  0  0  0  0  0  0  0  0  0  # atno 10718 bound_to 10713
  153.9353  135.6767  153.4745 H   0  0  0  0  0  0  0  0  0  0  0  0  # atno 10763 bound_to 10752
  153.0959  135.4852  154.8774 H   0  0  0  0  0  0  0  0  0  0  0  0  # atno 10764 bound_to 10752
  154.7406  135.3160  154.8692 H   0  0  0  0  0  0  0  0  0  0  0  0  # atno 10765 bound_to 10752
  141.1633  133.6907  156.7346 H   0  0  0  0  0  0  0  0  0  0  0  0  # atno 11005 bound_to 11000
  145.2472  139.2047  143.4961 LP  0  0  0  0  0  0  0  0  0  0  0  0  # atno 17320 bound_to 7965
  146.3399  140.2378  142.8595 LP  0  0  0  0  0  0  0  0  0  0  0  0  # atno 17321 bound_to 7965
  139.5623  144.2127  152.1710 LP  0  0  0  0  0  0  0  0  0  0  0  0  # atno 17342 bound_to 10162
  140.1399  144.5212  150.6750 LP  0  0  0  0  0  0  0  0  0  0  0  0  # atno 17343 bound_to 10162
  157.6598  130.8956  149.9806 LP  0  0  0  0  0  0  0  0  0  0  0  0  # atno 17370 bound_to 10713
  156.1156  130.3648  149.9974 LP  0  0  0  0  0  0  0  0  0  0  0  0  # atno 17371 bound_to 10713
  140.2720  134.8385  157.3856 LP  0  0  0  0  0  0  0  0  0  0  0  0  # atno 17394 bound_to 11000
  140.1513  134.4846  155.7959 LP  0  0  0  0  0  0  0  0  0  0  0  0  # atno 17395 bound_to 11000

$$$$
