AV-unprocessed.smi:1722|AV-procd|sdf|6944|dock9
  -GOLD-   22720 8153D 1   1.00000     0.00000
 Structure written by MMmdl.
 38 39  0  0  0  0  0  0  0  0  2 V2000
  148.6701  138.5396  156.5973 O   0  0  0  0  0  0  0  0  0  0  0  0
  149.2602  139.0197  157.5645 C   0  0  0  0  0  0  0  0  0  0  0  0
  149.7469  140.4661  157.4963 C   0  0  0  0  0  0  0  0  0  0  0  0
  150.7478  140.6598  158.4872 O   0  0  0  0  0  0  0  0  0  0  0  0
  151.4640  141.8816  158.3749 C   0  0  0  0  0  0  0  0  0  0  0  0
  152.3569  142.0021  159.6227 C   0  0  0  0  0  0  0  0  0  0  0  0
  153.1173  143.3377  159.6458 C   0  0  0  0  0  0  0  0  0  0  0  0
  152.1504  144.5284  159.5510 C   0  0  0  0  0  0  0  0  0  0  0  0
  151.2544  144.4167  158.3073 C   0  0  0  0  0  0  0  0  0  0  0  0
  150.4956  143.0797  158.2835 C   0  0  0  0  0  0  0  0  0  0  0  0
  149.5537  138.3635  158.7045 N   0  0  0  0  0  0  0  0  0  0  0  0
  149.2128  137.0584  159.0976 C   0  0  0  0  0  0  0  0  0  0  0  0
  148.7096  136.7225  160.3176 C   0  0  0  0  0  0  0  0  0  0  0  0
  148.3934  135.3464  160.6794 C   0  0  0  0  0  0  0  0  0  0  0  0
  147.9072  134.9269  162.0554 C   0  0  0  0  0  0  0  0  0  0  0  0
  147.9123  133.5983  162.1532 F   0  0  0  0  0  0  0  0  0  0  0  0
  148.6952  135.4170  163.0126 F   0  0  0  0  0  0  0  0  0  0  0  0
  146.6638  135.3548  162.2747 F   0  0  0  0  0  0  0  0  0  0  0  0
  148.6927  134.4565  159.6661 C   0  0  0  0  0  0  0  0  0  0  0  0
  149.1827  134.7058  158.4318 N   0  5  0  0  0  0  0  0  0  0  0  0
  149.4670  135.9972  158.1014 C   0  0  0  0  0  0  0  0  0  0  0  0
  149.9262  136.2937  156.9977 O   0  0  0  0  0  0  0  0  0  0  0  0
  150.1511  140.6583  156.5014 H   0  0  0  0  0  0  0  0  0  0  0  0
  148.9047  141.1409  157.6515 H   0  0  0  0  0  0  0  0  0  0  0  0
  152.1077  141.8563  157.4934 H   0  0  0  0  0  0  0  0  0  0  0  0
  151.7446  141.9181  160.5216 H   0  0  0  0  0  0  0  0  0  0  0  0
  153.0648  141.1730  159.6537 H   0  0  0  0  0  0  0  0  0  0  0  0
  153.7103  143.4122  160.5579 H   0  0  0  0  0  0  0  0  0  0  0  0
  153.8226  143.3716  158.8144 H   0  0  0  0  0  0  0  0  0  0  0  0
  151.5289  144.5667  160.4466 H   0  0  0  0  0  0  0  0  0  0  0  0
  152.7113  145.4629  159.5238 H   0  0  0  0  0  0  0  0  0  0  0  0
  150.5472  145.2459  158.2833 H   0  0  0  0  0  0  0  0  0  0  0  0
  151.8652  144.5053  157.4080 H   0  0  0  0  0  0  0  0  0  0  0  0
  149.8975  143.0236  157.3746 H   0  0  0  0  0  0  0  0  0  0  0  0
  149.7935  143.0462  159.1176 H   0  0  0  0  0  0  0  0  0  0  0  0
  150.1175  138.8660  159.3750 H   0  0  0  0  0  0  0  0  0  0  0  0
  148.5456  137.4734  161.0729 H   0  0  0  0  0  0  0  0  0  0  0  0
  148.5167  133.3810  159.8816 H   0  0  0  0  0  0  0  0  0  0  0  0
  1  2  2  0  0  0  0
  2  3  1  0  0  0  0
  2 11  1  0  0  0  0
  3  4  1  0  0  0  0
  3 23  1  0  0  0  0
  3 24  1  0  0  0  0
  4  5  1  0  0  0  0
  5 10  1  0  0  0  0
  5  6  1  0  0  0  0
  5 25  1  0  0  0  0
  6  7  1  0  0  0  0
  6 26  1  0  0  0  0
  6 27  1  0  0  0  0
  7  8  1  0  0  0  0
  7 28  1  0  0  0  0
  7 29  1  0  0  0  0
  8  9  1  0  0  0  0
  8 30  1  0  0  0  0
  8 31  1  0  0  0  0
  9 10  1  0  0  0  0
  9 32  1  0  0  0  0
  9 33  1  0  0  0  0
 10 34  1  0  0  0  0
 10 35  1  0  0  0  0
 11 12  1  0  0  0  0
 11 36  1  0  0  0  0
 12 21  1  0  0  0  0
 12 13  2  0  0  0  0
 13 14  1  0  0  0  0
 13 37  1  0  0  0  0
 14 15  1  0  0  0  0
 14 19  2  0  0  0  0
 15 16  1  0  0  0  0
 15 17  1  0  0  0  0
 15 18  1  0  0  0  0
 19 20  1  0  0  0  0
 19 38  1  0  0  0  0
 20 21  1  0  0  0  0
 21 22  2  0  0  0  0
M  CHG  1  20  -1
M  END
> <s_m_source_file>
AV-unprocessed.smi

> <i_m_source_file_index>
1722

> <i_lp_mmshare_version>
43012

> <i_f3d_flags>
0

> <s_epik_input>
Tz1jMVtuSF1bY0hdYyhDKEYpKEYpRilbY0hdYzFbTkhdQyg9TylbQ0gyXU9bQ0hdMltDSDJdW0NIMl1bQ0gyXVtDSDJdW0NIMl0y

> <s_epik_cmdline>
J2VwaWtfcHl0aG9uJywgJy1waCcsICc3LjAnLCAnLXRuJywgJzgnLCAnLW1hJywgJzIwMCcsICctbWV0YWxfYmluZGluZycsICctaW1hZScsICc8aW5maWxlLm1hZT4nLCAnLW9tYWUnLCAnPG91dGZpbGUubWFlPic=

> <r_epik_Ionization_Penalty>
2.55378

> <r_epik_Ionization_Penalty_Charging>
0.0617094

> <r_epik_Ionization_Penalty_Neutral>
2.49207

> <r_epik_State_Penalty>
2.65647

> <r_epik_Charging_Adjusted_Penalty>
2.71818

> <i_epik_Tot_Q>
-1

> <i_epik_Tot_abs_Q>
1

> <r_epik_Metal_State_Penalty>
0.516461

> <b_epik_Metal_Only>
0

> <s_lp_Force_Field>
OPLS_2005

> <r_lp_Energy>
27.5399

> <b_lp_Chiralities_Consistent>
1

> <s_lp_Variant>
AV-unprocessed.smi:1722-2

> <Gold.Version>
5.8.1

> <Gold.Id.Protein>
6NUR|6NUR_protein|mol2

> <Gold.PLP.Fitness>
44.7082

> <Gold.PLP.PLP>
-40.6302

> <Gold.PLP.part.hbond>
-1.0000

> <Gold.PLP.part.metal>
0.0000

> <Gold.PLP.part.buried>
-0.6107

> <Gold.PLP.part.nonpolar>
-38.4784

> <Gold.PLP.part.repulsive>
0.1918

> <Gold.PLP.ligand.clash>
0.2062

> <Gold.PLP.ligand.torsion>
0.8963

> <Gold.PLP.Chemscore.Hbond>
2.0000

> <Gold.PLP.Chemscore.CHOScore>
0.0000

> <Gold.PLP.Chemscore.Metal>
0.0000

> <Gold.PLP.Chemscore.Internal.Correction>
0.0768

> <Gold.Rescore>
     Score         DG    S(hbond)    S(metal)    S(lipo)     H(rot)  DE(clash)    DE(int)     intcor
      9.74     -13.33       0.23        0.00      95.02       1.57       0.37       3.22       ----

> <Gold.Chemscore.Fitness>
9.7423

> <Gold.Chemscore.DG>
-13.3339

> <Gold.Chemscore.ZeroCoef>
-5.4800

> <Gold.Chemscore.Hbond>
0.2275

> <Gold.Chemscore.Metal>
0.0000

> <Gold.Chemscore.Lipo>
95.0236

> <Gold.Chemscore.Internal_Hbond>
0.0000

> <Gold.Chemscore.DEClash>
0.3715

> <Gold.Chemscore.DEInternal>
3.2200

> <Gold.Chemscore.Rot>
1.5717

> <Gold.Chemscore.Internal.Correction>
   9.000000E+99

> <Gold.Chemscore.Hbond.Weighted>
-0.7598

> <Gold.Chemscore.Metal.Weighted>
-0.0000

> <Gold.Chemscore.Lipo.Weighted>
-11.1178

> <Gold.Chemscore.Internal_Hbond.Weighted>
0.0000

> <Gold.Chemscore.DEClash.Weighted>
0.3715

> <Gold.Chemscore.DEInternal.Weighted>
3.2200

> <Gold.Chemscore.Rot.Weighted>
4.0237

> <Gold.Chemscore.Internal.Correction.Weighted>
   9.000000E+99

> <Gold.Protein.RotatedTorsions>
[ 6907 6896 6895 6894 ] final   24.73 input  -60.11 | X-H torsion
[ 7974 7965 7964 7962 ] final   93.06 input  175.53 | X-H torsion
[ 8008 7997 7996 7995 ] final  153.48 input   59.86 | X-H torsion
[ 10167 10162 10161 10158 ] final  -95.16 input  -65.29 | X-H torsion
[ 10718 10713 10712 10709 ] final -106.94 input   66.30 | X-H torsion
[ 10763 10752 10751 10750 ] final   59.23 input  -60.55 | X-H torsion
[ 11005 11000 10999 10996 ] final  105.63 input  -57.11 | X-H torsion

> <Gold.Protein.ActiveResidues>
 VAL166  LYS551  ARG553  GLY616  TRP617  ASP618  TYR619  PRO620  LYS621  CYS622 
 ASP623  PHE694  ASN695  SER759  ASP760  ASP761  ALA762  ILE779  LEU786  VAL792 
 PHE793  MET794  SER795  GLU796  ALA797  LYS798  CYS799  TRP800  GLU811  SER814 

> <Gold.Protein.RotatedAtoms>
  151.9619  135.0119  160.0547 H   0  0  0  0  0  0  0  0  0  0  0  0  # atno 6907 bound_to 6896
  152.1861  133.4736  159.4991 H   0  0  0  0  0  0  0  0  0  0  0  0  # atno 6908 bound_to 6896
  150.6926  134.1689  159.4248 H   0  0  0  0  0  0  0  0  0  0  0  0  # atno 6909 bound_to 6896
  145.4840  139.2278  143.2867 H   0  0  0  0  0  0  0  0  0  0  0  0  # atno 7974 bound_to 7965
  156.2579  140.1992  156.6497 H   0  0  0  0  0  0  0  0  0  0  0  0  # atno 8008 bound_to 7997
  154.6546  140.0568  157.0019 H   0  0  0  0  0  0  0  0  0  0  0  0  # atno 8009 bound_to 7997
  155.1366  140.3239  155.4464 H   0  0  0  0  0  0  0  0  0  0  0  0  # atno 8010 bound_to 7997
  140.3070  143.3127  152.0188 H   0  0  0  0  0  0  0  0  0  0  0  0  # atno 10167 bound_to 10162
  156.0413  130.5638  150.7752 H   0  0  0  0  0  0  0  0  0  0  0  0  # atno 10718 bound_to 10713
  152.9889  135.5579  154.5680 H   0  0  0  0  0  0  0  0  0  0  0  0  # atno 10763 bound_to 10752
  154.5086  135.2801  155.1363 H   0  0  0  0  0  0  0  0  0  0  0  0  # atno 10764 bound_to 10752
  154.2765  135.6353  153.5383 H   0  0  0  0  0  0  0  0  0  0  0  0  # atno 10765 bound_to 10752
  139.8804  134.9342  156.5543 H   0  0  0  0  0  0  0  0  0  0  0  0  # atno 11005 bound_to 11000
  146.2324  140.5628  142.8969 LP  0  0  0  0  0  0  0  0  0  0  0  0  # atno 17320 bound_to 7965
  144.7872  140.5961  143.6565 LP  0  0  0  0  0  0  0  0  0  0  0  0  # atno 17321 bound_to 7965
  139.4902  144.6413  151.6871 LP  0  0  0  0  0  0  0  0  0  0  0  0  # atno 17342 bound_to 10162
  140.5601  144.0283  150.6166 LP  0  0  0  0  0  0  0  0  0  0  0  0  # atno 17343 bound_to 10162
  157.5235  131.0933  151.0048 LP  0  0  0  0  0  0  0  0  0  0  0  0  # atno 17370 bound_to 10713
  157.0373  130.5735  149.5351 LP  0  0  0  0  0  0  0  0  0  0  0  0  # atno 17371 bound_to 10713
  140.8216  133.8349  155.8901 LP  0  0  0  0  0  0  0  0  0  0  0  0  # atno 17394 bound_to 11000
  140.9412  134.1898  157.4796 LP  0  0  0  0  0  0  0  0  0  0  0  0  # atno 17395 bound_to 11000

$$$$
