AV-unprocessed.smi:2184|AV-procd|sdf|8872|dock4
  -GOLD-   2272012 73D 1   1.00000     0.00000
 Structure written by MMmdl.
 47 48  0  0  0  0  0  0  0  0  1 V2000
  153.1241  142.1913  169.2750 C   0  0  0  0  0  0  0  0  0  0  0  0
  153.3264  142.1494  167.4733 S   0  0  0  0  0  0  0  0  0  0  0  0
  154.9242  141.2955  167.3238 C   0  0  1  0  0  0  0  0  0  0  0  0
  154.7941  139.8382  167.7946 C   0  0  0  0  0  0  0  0  0  0  0  0
  155.4805  141.3662  165.8964 C   0  0  0  0  0  0  0  0  0  0  0  0
  156.0579  142.3801  165.5026 O   0  0  0  0  0  0  0  0  0  0  0  0
  155.3030  140.2784  165.1302 N   0  0  0  0  0  0  0  0  0  0  0  0
  155.7527  140.1479  163.7479 C   0  0  0  0  0  0  0  0  0  0  0  0
  154.8425  140.8135  162.7250 C   0  0  0  0  0  0  0  0  0  0  0  0
  153.6693  141.5015  163.0997 C   0  0  0  0  0  0  0  0  0  0  0  0
  152.8724  142.0895  162.0993 C   0  0  0  0  0  0  0  0  0  0  0  0
  153.2643  141.9703  160.7449 C   0  0  0  0  0  0  0  0  0  0  0  0
  152.4806  142.5542  159.7265 N   0  0  0  0  0  0  0  0  0  0  0  0
  152.7555  143.9409  159.3572 C   0  0  0  0  0  0  0  0  0  0  0  0
  151.6271  144.5132  158.4770 C   0  0  2  0  0  0  0  0  0  0  0  0
  150.3478  144.8516  159.2633 C   0  0  0  0  0  0  0  0  0  0  0  0
  151.3694  143.6389  157.3758 O   0  0  0  0  0  0  0  0  0  0  0  0
  151.0480  142.2972  157.7410 C   0  0  1  0  0  0  0  0  0  0  0  0
  150.8067  141.5008  156.4544 C   0  0  0  0  0  0  0  0  0  0  0  0
  152.1926  141.7001  158.5791 C   0  0  0  0  0  0  0  0  0  0  0  0
  154.3918  141.3064  160.3888 N   0  0  0  0  0  0  0  0  0  0  0  0
  155.1522  140.7448  161.3519 C   0  0  0  0  0  0  0  0  0  0  0  0
  152.1657  142.6418  169.5322 H   0  0  0  0  0  0  0  0  0  0  0  0
  153.9141  142.7811  169.7394 H   0  0  0  0  0  0  0  0  0  0  0  0
  153.1527  141.1826  169.6865 H   0  0  0  0  0  0  0  0  0  0  0  0
  155.6222  141.7959  167.9970 H   0  0  0  0  0  0  0  0  0  0  0  0
  155.7410  139.3044  167.7016 H   0  0  0  0  0  0  0  0  0  0  0  0
  154.0459  139.2941  167.2169 H   0  0  0  0  0  0  0  0  0  0  0  0
  154.4963  139.7942  168.8425 H   0  0  0  0  0  0  0  0  0  0  0  0
  154.8222  139.4866  165.5319 H   0  0  0  0  0  0  0  0  0  0  0  0
  156.7660  140.5424  163.6544 H   0  0  0  0  0  0  0  0  0  0  0  0
  155.8127  139.0858  163.5098 H   0  0  0  0  0  0  0  0  0  0  0  0
  153.3782  141.5849  164.1364 H   0  0  0  0  0  0  0  0  0  0  0  0
  151.9839  142.6342  162.3817 H   0  0  0  0  0  0  0  0  0  0  0  0
  152.8752  144.5599  160.2476 H   0  0  0  0  0  0  0  0  0  0  0  0
  153.6995  143.9763  158.8116 H   0  0  0  0  0  0  0  0  0  0  0  0
  151.9863  145.4477  158.0451 H   0  0  0  0  0  0  0  0  0  0  0  0
  150.5466  145.6230  160.0074 H   0  0  0  0  0  0  0  0  0  0  0  0
  149.9468  143.9883  159.7939 H   0  0  0  0  0  0  0  0  0  0  0  0
  149.5701  145.2278  158.5984 H   0  0  0  0  0  0  0  0  0  0  0  0
  150.1253  142.2849  158.3213 H   0  0  0  0  0  0  0  0  0  0  0  0
  150.5429  140.4667  156.6768 H   0  0  0  0  0  0  0  0  0  0  0  0
  151.6956  141.4918  155.8230 H   0  0  0  0  0  0  0  0  0  0  0  0
  149.9911  141.9343  155.8753 H   0  0  0  0  0  0  0  0  0  0  0  0
  153.0961  141.6138  157.9741 H   0  0  0  0  0  0  0  0  0  0  0  0
  151.9212  140.6908  158.8848 H   0  0  0  0  0  0  0  0  0  0  0  0
  156.0368  140.2257  161.0133 H   0  0  0  0  0  0  0  0  0  0  0  0
  1  2  1  0  0  0  0
  1 23  1  0  0  0  0
  1 24  1  0  0  0  0
  1 25  1  0  0  0  0
  2  3  1  0  0  0  0
  3  4  1  0  0  0  0
  3  5  1  0  0  0  0
  3 26  1  0  0  0  0
  4 27  1  0  0  0  0
  4 28  1  0  0  0  0
  4 29  1  0  0  0  0
  5  6  2  0  0  0  0
  5  7  1  0  0  0  0
  7  8  1  0  0  0  0
  7 30  1  0  0  0  0
  8  9  1  0  0  0  0
  8 31  1  0  0  0  0
  8 32  1  0  0  0  0
  9 22  1  0  0  0  0
  9 10  2  0  0  0  0
 10 11  1  0  0  0  0
 10 33  1  0  0  0  0
 11 12  2  0  0  0  0
 11 34  1  0  0  0  0
 12 13  1  0  0  0  0
 12 21  1  0  0  0  0
 13 20  1  0  0  0  0
 13 14  1  0  0  0  0
 14 15  1  0  0  0  0
 14 35  1  0  0  0  0
 14 36  1  0  0  0  0
 15 16  1  0  0  0  0
 15 17  1  0  0  0  0
 15 37  1  0  0  0  0
 16 38  1  0  0  0  0
 16 39  1  0  0  0  0
 16 40  1  0  0  0  0
 17 18  1  0  0  0  0
 18 19  1  0  0  0  0
 18 20  1  0  0  0  0
 18 41  1  0  0  0  0
 19 42  1  0  0  0  0
 19 43  1  0  0  0  0
 19 44  1  0  0  0  0
 20 45  1  0  0  0  0
 20 46  1  0  0  0  0
 21 22  2  0  0  0  0
 22 47  1  0  0  0  0
M  END
> <s_m_source_file>
AV-unprocessed.smi

> <i_m_source_file_index>
2184

> <i_lp_mmshare_version>
43012

> <i_f3d_flags>
0

> <s_epik_input>
W0NIM11TW0NASF0oW0NIM10pQyg9TylbTkhdW0NIMl1jMVtjSF1bY0hdYyhuW2NIXTEpTjJbQ0gyXVtDQEBIXShbQ0gzXSlPW0NAQEhdKFtDSDNdKVtDSDJdMg==

> <s_epik_cmdline>
J2VwaWtfcHl0aG9uJywgJy1waCcsICc3LjAnLCAnLXRuJywgJzgnLCAnLW1hJywgJzIwMCcsICctbWV0YWxfYmluZGluZycsICctaW1hZScsICc8aW5maWxlLm1hZT4nLCAnLW9tYWUnLCAnPG91dGZpbGUubWFlPic=

> <r_lp_tautomer_probability>
1

> <r_epik_Ionization_Penalty>
0.00551702

> <r_epik_Ionization_Penalty_Charging>
0

> <r_epik_Ionization_Penalty_Neutral>
0.00551702

> <r_epik_State_Penalty>
0.00403758

> <r_epik_Charging_Adjusted_Penalty>
0.00403758

> <i_epik_Tot_Q>
0

> <i_epik_Tot_abs_Q>
0

> <r_epik_Metal_State_Penalty>
-0

> <b_epik_Metal_Only>
0

> <s_lp_Force_Field>
OPLS_2005

> <r_lp_Energy>
17.5653

> <b_lp_Chiralities_Consistent>
1

> <s_lp_Variant>
AV-unprocessed.smi:2184-4

> <Gold.Version>
5.8.1

> <Gold.Id.Protein>
6NUR|6NUR_protein|mol2

> <Gold.PLP.Fitness>
45.7473

> <Gold.PLP.PLP>
-48.0531

> <Gold.PLP.part.hbond>
-1.0000

> <Gold.PLP.part.metal>
0.0000

> <Gold.PLP.part.buried>
-5.1857

> <Gold.PLP.part.nonpolar>
-42.0528

> <Gold.PLP.part.repulsive>
0.1884

> <Gold.PLP.ligand.clash>
0.0685

> <Gold.PLP.ligand.torsion>
1.3215

> <Gold.PLP.Chemscore.Hbond>
0.0000

> <Gold.PLP.Chemscore.CHOScore>
0.0000

> <Gold.PLP.Chemscore.Metal>
0.0000

> <Gold.PLP.Chemscore.Internal.Correction>
0.4057

> <Gold.Rescore>
     Score         DG    S(hbond)    S(metal)    S(lipo)     H(rot)  DE(clash)    DE(int)     intcor
     14.59     -16.77       0.00        0.00     131.36       1.59       1.73       0.44       ----

> <Gold.Chemscore.Fitness>
14.5933

> <Gold.Chemscore.DG>
-16.7671

> <Gold.Chemscore.ZeroCoef>
-5.4800

> <Gold.Chemscore.Hbond>
0.0000

> <Gold.Chemscore.Metal>
0.0000

> <Gold.Chemscore.Lipo>
131.3634

> <Gold.Chemscore.Internal_Hbond>
0.0000

> <Gold.Chemscore.DEClash>
1.7322

> <Gold.Chemscore.DEInternal>
0.4417

> <Gold.Chemscore.Rot>
1.5947

> <Gold.Chemscore.Internal.Correction>
   9.000000E+99

> <Gold.Chemscore.Hbond.Weighted>
-0.0000

> <Gold.Chemscore.Metal.Weighted>
-0.0000

> <Gold.Chemscore.Lipo.Weighted>
-15.3695

> <Gold.Chemscore.Internal_Hbond.Weighted>
0.0000

> <Gold.Chemscore.DEClash.Weighted>
1.7322

> <Gold.Chemscore.DEInternal.Weighted>
0.4417

> <Gold.Chemscore.Rot.Weighted>
4.0824

> <Gold.Chemscore.Internal.Correction.Weighted>
   9.000000E+99

> <Gold.Protein.RotatedTorsions>
[ 6907 6896 6895 6894 ] final -163.34 input  -60.11 | X-H torsion
[ 7974 7965 7964 7962 ] final  -45.73 input  175.53 | X-H torsion
[ 8008 7997 7996 7995 ] final   10.38 input   59.86 | X-H torsion
[ 10167 10162 10161 10158 ] final   57.43 input  -65.29 | X-H torsion
[ 10718 10713 10712 10709 ] final  136.55 input   66.30 | X-H torsion
[ 10763 10752 10751 10750 ] final -164.68 input  -60.55 | X-H torsion
[ 11005 11000 10999 10996 ] final   17.00 input  -57.11 | X-H torsion

> <Gold.Protein.ActiveResidues>
 VAL166  LYS551  ARG553  GLY616  TRP617  ASP618  TYR619  PRO620  LYS621  CYS622 
 ASP623  PHE694  ASN695  SER759  ASP760  ASP761  ALA762  ILE779  LEU786  VAL792 
 PHE793  MET794  SER795  GLU796  ALA797  LYS798  CYS799  TRP800  GLU811  SER814 

> <Gold.Protein.RotatedAtoms>
  151.3945  133.3777  159.2724 H   0  0  0  0  0  0  0  0  0  0  0  0  # atno 6907 bound_to 6896
  150.9479  134.8884  159.7664 H   0  0  0  0  0  0  0  0  0  0  0  0  # atno 6908 bound_to 6896
  152.5099  134.3899  159.9432 H   0  0  0  0  0  0  0  0  0  0  0  0  # atno 6909 bound_to 6896
  145.9791  140.7303  142.9372 H   0  0  0  0  0  0  0  0  0  0  0  0  # atno 7974 bound_to 7965
  154.7926  140.2838  155.5980 H   0  0  0  0  0  0  0  0  0  0  0  0  # atno 8008 bound_to 7997
  156.2966  140.2602  156.2705 H   0  0  0  0  0  0  0  0  0  0  0  0  # atno 8009 bound_to 7997
  154.9653  140.0377  157.2198 H   0  0  0  0  0  0  0  0  0  0  0  0  # atno 8010 bound_to 7997
  140.1981  144.4017  150.6541 H   0  0  0  0  0  0  0  0  0  0  0  0  # atno 10167 bound_to 10162
  157.4455  131.1061  151.0094 H   0  0  0  0  0  0  0  0  0  0  0  0  # atno 10718 bound_to 10713
  154.7005  135.2987  154.9348 H   0  0  0  0  0  0  0  0  0  0  0  0  # atno 10763 bound_to 10752
  154.0282  135.6673  153.4782 H   0  0  0  0  0  0  0  0  0  0  0  0  # atno 10764 bound_to 10752
  153.0677  135.5078  154.8146 H   0  0  0  0  0  0  0  0  0  0  0  0  # atno 10765 bound_to 10752
  140.4408  134.1323  155.7690 H   0  0  0  0  0  0  0  0  0  0  0  0  # atno 11005 bound_to 11000
  144.6856  140.2877  143.7282 LP  0  0  0  0  0  0  0  0  0  0  0  0  # atno 17320 bound_to 7965
  145.7796  139.1886  143.2165 LP  0  0  0  0  0  0  0  0  0  0  0  0  # atno 17321 bound_to 7965
  140.6410  143.2203  151.6291 LP  0  0  0  0  0  0  0  0  0  0  0  0  # atno 17342 bound_to 10162
  139.5228  144.3151  152.0959 LP  0  0  0  0  0  0  0  0  0  0  0  0  # atno 17343 bound_to 10162
  157.0943  130.5955  149.5446 LP  0  0  0  0  0  0  0  0  0  0  0  0  # atno 17370 bound_to 10713
  155.9965  130.5035  150.7501 LP  0  0  0  0  0  0  0  0  0  0  0  0  # atno 17371 bound_to 10713
  141.1706  133.8616  157.1582 LP  0  0  0  0  0  0  0  0  0  0  0  0  # atno 17394 bound_to 11000
  140.0071  135.0004  157.0316 LP  0  0  0  0  0  0  0  0  0  0  0  0  # atno 17395 bound_to 11000

$$$$
