AV-unprocessed.smi:2057|AV-procd|sdf|8342|dock4
  -GOLD-   2272011 13D 1   1.00000     0.00000
 Structure written by MMmdl.
 45 47  0  0  0  0  0  0  0  0  2 V2000
  151.9154  146.0112  160.2952 C   0  0  0  0  0  0  0  0  0  0  0  0
  151.1669  145.1629  159.4364 O   0  0  0  0  0  0  0  0  0  0  0  0
  151.6457  143.8924  159.1982 C   0  0  0  0  0  0  0  0  0  0  0  0
  152.8887  143.5595  159.7671 C   0  0  0  0  0  0  0  0  0  0  0  0
  153.4470  142.2816  159.5845 C   0  0  0  0  0  0  0  0  0  0  0  0
  152.7717  141.3011  158.8164 C   0  0  0  0  0  0  0  0  0  0  0  0
  153.2593  140.0248  158.6176 O   0  0  0  0  0  0  0  0  0  0  0  0
  154.0662  139.4428  159.6309 C   0  0  0  0  0  0  0  0  0  0  0  0
  151.5284  141.6339  158.2252 C   0  0  0  0  0  0  0  0  0  0  0  0
  150.7770  140.5968  157.3958 C   0  0  2  0  0  0  0  0  0  0  0  0
  150.7686  139.3124  157.9906 O   0  0  0  0  0  0  0  0  0  0  0  0
  151.3497  140.5143  155.9674 C   0  0  0  0  0  0  0  0  0  0  0  0
  150.4313  139.8641  155.0206 N   0  0  0  0  0  0  0  0  0  0  0  0
  150.5532  138.6736  154.3671 C   0  0  0  0  0  0  0  0  0  0  0  0
  151.6995  137.7180  154.4729 C   0  0  0  0  0  0  0  0  0  0  0  0
  151.3358  136.3778  154.2153 O   0  0  0  0  0  0  0  0  0  0  0  0
  149.4326  138.5173  153.6056 N   0  3  0  0  0  0  0  0  0  0  0  0
  148.5896  139.6168  153.7711 C   0  0  0  0  0  0  0  0  0  0  0  0
  147.3507  139.9080  153.2087 C   0  0  0  0  0  0  0  0  0  0  0  0
  146.7539  141.1280  153.5893 C   0  0  0  0  0  0  0  0  0  0  0  0
  147.3875  142.0044  154.4939 C   0  0  0  0  0  0  0  0  0  0  0  0
  148.6431  141.6976  155.0584 C   0  0  0  0  0  0  0  0  0  0  0  0
  149.2258  140.4885  154.6787 C   0  0  0  0  0  0  0  0  0  0  0  0
  150.9693  142.9166  158.4275 C   0  0  0  0  0  0  0  0  0  0  0  0
  151.4104  146.9733  160.3800 H   0  0  0  0  0  0  0  0  0  0  0  0
  152.9146  146.1973  159.8990 H   0  0  0  0  0  0  0  0  0  0  0  0
  151.9965  145.5925  161.2992 H   0  0  0  0  0  0  0  0  0  0  0  0
  153.4198  144.2918  160.3574 H   0  0  0  0  0  0  0  0  0  0  0  0
  154.3987  142.0786  160.0511 H   0  0  0  0  0  0  0  0  0  0  0  0
  154.3500  138.4349  159.3285 H   0  0  0  0  0  0  0  0  0  0  0  0
  153.5257  139.3629  160.5751 H   0  0  0  0  0  0  0  0  0  0  0  0
  154.9841  140.0118  159.7853 H   0  0  0  0  0  0  0  0  0  0  0  0
  149.7294  140.8927  157.3396 H   0  0  0  0  0  0  0  0  0  0  0  0
  151.5435  138.8493  157.7105 H   0  0  0  0  0  0  0  0  0  0  0  0
  151.5378  141.5188  155.5861 H   0  0  0  0  0  0  0  0  0  0  0  0
  152.3123  140.0028  155.9532 H   0  0  0  0  0  0  0  0  0  0  0  0
  152.4794  138.0115  153.7697 H   0  0  0  0  0  0  0  0  0  0  0  0
  152.1256  137.7831  155.4744 H   0  0  0  0  0  0  0  0  0  0  0  0
  150.9836  136.3261  153.3395 H   0  0  0  0  0  0  0  0  0  0  0  0
  146.8644  139.2388  152.5140 H   0  0  0  0  0  0  0  0  0  0  0  0
  145.7920  141.3977  153.1777 H   0  0  0  0  0  0  0  0  0  0  0  0
  146.9017  142.9320  154.7599 H   0  0  0  0  0  0  0  0  0  0  0  0
  149.1219  142.3796  155.7451 H   0  0  0  0  0  0  0  0  0  0  0  0
  150.0103  143.1368  157.9846 H   0  0  0  0  0  0  0  0  0  0  0  0
  149.2645  137.7129  153.0151 H   0  0  0  0  0  0  0  0  0  0  0  0
  1  2  1  0  0  0  0
  1 25  1  0  0  0  0
  1 26  1  0  0  0  0
  1 27  1  0  0  0  0
  2  3  1  0  0  0  0
  3 24  1  0  0  0  0
  3  4  2  0  0  0  0
  4  5  1  0  0  0  0
  4 28  1  0  0  0  0
  5  6  2  0  0  0  0
  5 29  1  0  0  0  0
  6  7  1  0  0  0  0
  6  9  1  0  0  0  0
  7  8  1  0  0  0  0
  8 30  1  0  0  0  0
  8 31  1  0  0  0  0
  8 32  1  0  0  0  0
  9 10  1  0  0  0  0
  9 24  2  0  0  0  0
 10 11  1  0  0  0  0
 10 12  1  0  0  0  0
 10 33  1  0  0  0  0
 11 34  1  0  0  0  0
 12 13  1  0  0  0  0
 12 35  1  0  0  0  0
 12 36  1  0  0  0  0
 13 23  1  0  0  0  0
 13 14  1  0  0  0  0
 14 15  1  0  0  0  0
 14 17  2  0  0  0  0
 15 16  1  0  0  0  0
 15 37  1  0  0  0  0
 15 38  1  0  0  0  0
 16 39  1  0  0  0  0
 17 18  1  0  0  0  0
 17 45  1  0  0  0  0
 18 23  2  0  0  0  0
 18 19  1  0  0  0  0
 19 20  2  0  0  0  0
 19 40  1  0  0  0  0
 20 21  1  0  0  0  0
 20 41  1  0  0  0  0
 21 22  2  0  0  0  0
 21 42  1  0  0  0  0
 22 23  1  0  0  0  0
 22 43  1  0  0  0  0
 24 44  1  0  0  0  0
M  CHG  1  17   1
M  END
> <s_m_source_file>
AV-unprocessed.smi

> <i_m_source_file_index>
2057

> <i_lp_mmshare_version>
43012

> <i_f3d_flags>
0

> <s_epik_input>
W0NIM11PYzFbY0hdW2NIXWMoT1tDSDNdKWMoW2NIXTEpW0NASF0oW09IXSlbQ0gyXW4oYyhuMilbQ0gyXVtPSF0pYyhjMjMpW2NIXVtjSF1bY0hdW2NIXTM=

> <s_epik_cmdline>
J2VwaWtfcHl0aG9uJywgJy1waCcsICc3LjAnLCAnLXRuJywgJzgnLCAnLW1hJywgJzIwMCcsICctbWV0YWxfYmluZGluZycsICctaW1hZScsICc8aW5maWxlLm1hZT4nLCAnLW9tYWUnLCAnPG91dGZpbGUubWFlPic=

> <r_lp_tautomer_probability>
1

> <r_epik_Ionization_Penalty>
1.35643

> <r_epik_Ionization_Penalty_Charging>
1.35557

> <r_epik_Ionization_Penalty_Neutral>
0.000857128

> <r_epik_State_Penalty>
1.43401

> <r_epik_Charging_Adjusted_Penalty>
2.78958

> <i_epik_Tot_Q>
1

> <i_epik_Tot_abs_Q>
1

> <r_epik_Metal_State_Penalty>
5.47166

> <b_epik_Metal_Only>
0

> <s_lp_Force_Field>
OPLS_2005

> <r_lp_Energy>
20.8096

> <b_lp_Chiralities_Consistent>
1

> <s_lp_Variant>
AV-unprocessed.smi:2057-3

> <Gold.Version>
5.8.1

> <Gold.Id.Protein>
6NUR|6NUR_protein|mol2

> <Gold.PLP.Fitness>
62.3994

> <Gold.PLP.PLP>
-52.2547

> <Gold.PLP.part.hbond>
-5.1713

> <Gold.PLP.part.metal>
0.0000

> <Gold.PLP.part.buried>
0.7051

> <Gold.PLP.part.nonpolar>
-48.2238

> <Gold.PLP.part.repulsive>
0.2117

> <Gold.PLP.ligand.clash>
2.1546

> <Gold.PLP.ligand.torsion>
1.3971

> <Gold.PLP.Chemscore.Hbond>
5.0000

> <Gold.PLP.Chemscore.CHOScore>
0.0000

> <Gold.PLP.Chemscore.Metal>
0.0000

> <Gold.Chemscore.Hbonds>
donor molecule, donor type, donor heavy atom, donor atom, acceptor molecule, acceptor atom, score
      L1  H    16    39       P1  7949  0.95
      L1  H    17    45       P1  7948  2.00
      P1  H  7997  8009       L1     7  0.86
      P1  H 10752 10764       L1    16  0.95

> <Gold.PLP.Chemscore.Internal.Correction>
0.0936

> <Gold.Rescore>
     Score         DG    S(hbond)    S(metal)    S(lipo)     H(rot)  DE(clash)    DE(int)     intcor
     20.08     -21.63       2.71        0.00     131.73       3.25       0.22       1.33       ----

> <Gold.Chemscore.Fitness>
20.0792

> <Gold.Chemscore.DG>
-21.6274

> <Gold.Chemscore.ZeroCoef>
-5.4800

> <Gold.Chemscore.Hbond>
2.7140

> <Gold.Chemscore.Metal>
0.0000

> <Gold.Chemscore.Lipo>
131.7271

> <Gold.Chemscore.Internal_Hbond>
0.0000

> <Gold.Chemscore.DEClash>
0.2170

> <Gold.Chemscore.DEInternal>
1.3312

> <Gold.Chemscore.Rot>
3.2537

> <Gold.Chemscore.Internal.Correction>
   9.000000E+99

> <Gold.Chemscore.Hbonds>
donor molecule, donor type, donor heavy atom, donor atom, acceptor molecule, acceptor atom, score
      L1  H    16    39       P1  7949  0.21
      L1  H    17    45       P1  7948  0.98
      P1  H  7997  8009       L1     7  0.13
      P1  H 10752 10764       L1    16  0.16

> <Gold.Chemscore.Hbond.Weighted>
-9.0648

> <Gold.Chemscore.Metal.Weighted>
-0.0000

> <Gold.Chemscore.Lipo.Weighted>
-15.4121

> <Gold.Chemscore.Internal_Hbond.Weighted>
0.0000

> <Gold.Chemscore.DEClash.Weighted>
0.2170

> <Gold.Chemscore.DEInternal.Weighted>
1.3312

> <Gold.Chemscore.Rot.Weighted>
8.3295

> <Gold.Chemscore.Internal.Correction.Weighted>
   9.000000E+99

> <Gold.Protein.RotatedTorsions>
[ 6907 6896 6895 6894 ] final  -47.82 input  -60.11 | X-H torsion
[ 7974 7965 7964 7962 ] final  -11.95 input  175.53 | X-H torsion
[ 8008 7997 7996 7995 ] final  152.10 input   59.86 | X-H torsion
[ 10167 10162 10161 10158 ] final  -32.67 input  -65.29 | X-H torsion
[ 10718 10713 10712 10709 ] final  -92.73 input   66.30 | X-H torsion
[ 10763 10752 10751 10750 ] final  -78.18 input  -60.55 | X-H torsion
[ 11005 11000 10999 10996 ] final   -5.64 input  -57.11 | X-H torsion

> <Gold.Protein.ActiveResidues>
 VAL166  LYS551  ARG553  GLY616  TRP617  ASP618  TYR619  PRO620  LYS621  CYS622 
 ASP623  PHE694  ASN695  SER759  ASP760  ASP761  ALA762  ILE779  LEU786  VAL792 
 PHE793  MET794  SER795  GLU796  ALA797  LYS798  CYS799  TRP800  GLU811  SER814 

> <Gold.Protein.RotatedAtoms>
  150.8968  134.8377  159.7331 H   0  0  0  0  0  0  0  0  0  0  0  0  # atno 6907 bound_to 6896
  152.4869  134.4563  159.9601 H   0  0  0  0  0  0  0  0  0  0  0  0  # atno 6908 bound_to 6896
  151.4620  133.3551  159.2846 H   0  0  0  0  0  0  0  0  0  0  0  0  # atno 6909 bound_to 6896
  146.2169  140.2986  142.8373 H   0  0  0  0  0  0  0  0  0  0  0  0  # atno 7974 bound_to 7965
  156.2644  140.2030  156.6280 H   0  0  0  0  0  0  0  0  0  0  0  0  # atno 8008 bound_to 7997
  154.6705  140.0550  157.0185 H   0  0  0  0  0  0  0  0  0  0  0  0  # atno 8009 bound_to 7997
  155.1144  140.3218  155.4516 H   0  0  0  0  0  0  0  0  0  0  0  0  # atno 8010 bound_to 7997
  140.7217  143.3677  151.1838 H   0  0  0  0  0  0  0  0  0  0  0  0  # atno 10167 bound_to 10162
  156.0005  130.4999  150.5670 H   0  0  0  0  0  0  0  0  0  0  0  0  # atno 10718 bound_to 10713
  154.5225  135.5739  153.6692 H   0  0  0  0  0  0  0  0  0  0  0  0  # atno 10763 bound_to 10752
  152.9920  135.6185  154.2735 H   0  0  0  0  0  0  0  0  0  0  0  0  # atno 10764 bound_to 10752
  154.2657  135.2855  155.2739 H   0  0  0  0  0  0  0  0  0  0  0  0  # atno 10765 bound_to 10752
  140.6934  133.9052  155.8633 H   0  0  0  0  0  0  0  0  0  0  0  0  # atno 11005 bound_to 11000
  144.9074  140.7716  143.5829 LP  0  0  0  0  0  0  0  0  0  0  0  0  # atno 17320 bound_to 7965
  145.2915  139.1882  143.4738 LP  0  0  0  0  0  0  0  0  0  0  0  0  # atno 17321 bound_to 7965
  139.7242  143.9175  152.2996 LP  0  0  0  0  0  0  0  0  0  0  0  0  # atno 17342 bound_to 10162
  139.8942  144.6948  150.8737 LP  0  0  0  0  0  0  0  0  0  0  0  0  # atno 17343 bound_to 10162
  157.3571  131.0743  151.1667 LP  0  0  0  0  0  0  0  0  0  0  0  0  # atno 17370 bound_to 10713
  157.2464  130.6593  149.5912 LP  0  0  0  0  0  0  0  0  0  0  0  0  # atno 17371 bound_to 10713
  141.0223  134.0872  157.4107 LP  0  0  0  0  0  0  0  0  0  0  0  0  # atno 17394 bound_to 11000
  139.8917  135.0120  156.6806 LP  0  0  0  0  0  0  0  0  0  0  0  0  # atno 17395 bound_to 11000

$$$$
