AV-unprocessed.smi:264|AV-procd|sdf|2013|dock5
  -GOLD-   2262021213D 1   1.00000     0.00000
 Structure written by MMmdl.
 52 56  0  0  0  0  0  0  0  0  1 V2000
  146.2774  139.1880  156.0204 C   0  0  0  0  0  0  0  0  0  0  0  0
  146.0188  139.5798  154.5563 C   0  0  2  0  0  0  0  0  0  0  0  0
  144.7325  139.1251  154.1363 O   0  0  0  0  0  0  0  0  0  0  0  0
  144.8640  138.2545  153.0223 C   0  0  0  0  0  0  0  0  0  0  0  0
  146.1381  138.7235  152.3335 C   0  0  0  0  0  0  0  0  0  0  0  0
  147.0399  139.0706  153.5103 C   0  0  2  0  0  0  0  0  0  0  0  0
  147.6689  137.8784  153.9534 O   0  0  0  0  0  0  0  0  0  0  0  0
  148.1385  140.1081  153.1760 C   0  0  0  0  0  0  0  0  0  0  0  0
  148.8070  140.6384  154.3545 N   0  0  0  0  0  0  0  0  0  0  0  0
  148.3304  141.6118  155.2033 C   0  0  0  0  0  0  0  0  0  0  0  0
  149.1239  141.9262  156.1903 N   0  0  0  0  0  0  0  0  0  0  0  0
  150.2319  141.1058  156.0120 C   0  0  0  0  0  0  0  0  0  0  0  0
  151.4579  140.9281  156.7142 C   0  0  0  0  0  0  0  0  0  0  0  0
  151.7886  141.6578  157.8106 N   0  0  0  0  0  0  0  0  0  0  0  0
  152.3219  140.8841  158.9251 C   0  0  0  0  0  0  0  0  0  0  0  0
  152.9914  141.8203  159.9405 C   0  0  0  0  0  0  0  0  0  0  0  0
  152.0821  142.8411  160.3490 O   0  0  0  0  0  0  0  0  0  0  0  0
  151.5316  143.6298  159.2862 C   0  0  2  0  0  0  0  0  0  0  0  0
  152.5538  144.5992  158.6988 C   0  0  0  0  0  0  0  0  0  0  0  0
  152.5418  145.7322  159.7132 C   0  0  0  0  0  0  0  0  0  0  0  0
  151.1680  145.8689  160.0381 O   0  0  0  0  0  0  0  0  0  0  0  0
  150.5267  144.5996  159.9322 C   0  0  0  0  0  0  0  0  0  0  0  0
  150.8666  142.7046  158.2437 C   0  0  0  0  0  0  0  0  0  0  0  0
  152.3141  139.9819  156.2426 N   0  0  0  0  0  0  0  0  0  0  0  0
  152.0033  139.2689  155.1561 C   0  0  0  0  0  0  0  0  0  0  0  0
  150.9074  139.3380  154.3983 N   0  0  0  0  0  0  0  0  0  0  0  0
  150.0399  140.2780  154.8696 C   0  0  0  0  0  0  0  0  0  0  0  0
  147.2626  139.5214  156.3475 H   0  0  0  0  0  0  0  0  0  0  0  0
  146.2196  138.1088  156.1638 H   0  0  0  0  0  0  0  0  0  0  0  0
  145.5373  139.6439  156.6781 H   0  0  0  0  0  0  0  0  0  0  0  0
  145.9716  140.6681  154.5028 H   0  0  0  0  0  0  0  0  0  0  0  0
  144.9728  137.2294  153.3790 H   0  0  0  0  0  0  0  0  0  0  0  0
  143.9905  138.2997  152.3719 H   0  0  0  0  0  0  0  0  0  0  0  0
  146.5600  137.9778  151.6583 H   0  0  0  0  0  0  0  0  0  0  0  0
  145.9186  139.6184  151.7497 H   0  0  0  0  0  0  0  0  0  0  0  0
  148.0519  137.4444  153.2063 H   0  0  0  0  0  0  0  0  0  0  0  0
  148.8990  139.6578  152.5365 H   0  0  0  0  0  0  0  0  0  0  0  0
  147.7172  140.9392  152.6088 H   0  0  0  0  0  0  0  0  0  0  0  0
  147.3716  142.0894  155.0632 H   0  0  0  0  0  0  0  0  0  0  0  0
  151.5036  140.3428  159.4020 H   0  0  0  0  0  0  0  0  0  0  0  0
  153.0415  140.1369  158.5929 H   0  0  0  0  0  0  0  0  0  0  0  0
  153.2957  141.2547  160.8213 H   0  0  0  0  0  0  0  0  0  0  0  0
  153.9013  142.2514  159.5248 H   0  0  0  0  0  0  0  0  0  0  0  0
  153.5463  144.1811  158.5406 H   0  0  0  0  0  0  0  0  0  0  0  0
  152.2033  144.9767  157.7372 H   0  0  0  0  0  0  0  0  0  0  0  0
  153.1026  145.4582  160.6083 H   0  0  0  0  0  0  0  0  0  0  0  0
  152.9551  146.6601  159.3168 H   0  0  0  0  0  0  0  0  0  0  0  0
  149.6383  144.7251  159.3123 H   0  0  0  0  0  0  0  0  0  0  0  0
  150.1945  144.2527  160.9115 H   0  0  0  0  0  0  0  0  0  0  0  0
  150.5268  143.2906  157.3885 H   0  0  0  0  0  0  0  0  0  0  0  0
  149.9844  142.2344  158.6809 H   0  0  0  0  0  0  0  0  0  0  0  0
  152.7388  138.5401  154.8484 H   0  0  0  0  0  0  0  0  0  0  0  0
  1  2  1  0  0  0  0
  1 28  1  0  0  0  0
  1 29  1  0  0  0  0
  1 30  1  0  0  0  0
  2  6  1  0  0  0  0
  2  3  1  0  0  0  0
  2 31  1  0  0  0  0
  3  4  1  0  0  0  0
  4  5  1  0  0  0  0
  4 32  1  0  0  0  0
  4 33  1  0  0  0  0
  5  6  1  0  0  0  0
  5 34  1  0  0  0  0
  5 35  1  0  0  0  0
  6  7  1  0  0  0  0
  6  8  1  0  0  0  0
  7 36  1  0  0  0  0
  8  9  1  0  0  0  0
  8 37  1  0  0  0  0
  8 38  1  0  0  0  0
  9 27  1  0  0  0  0
  9 10  1  0  0  0  0
 10 11  2  0  0  0  0
 10 39  1  0  0  0  0
 11 12  1  0  0  0  0
 12 27  2  0  0  0  0
 12 13  1  0  0  0  0
 13 14  1  0  0  0  0
 13 24  2  0  0  0  0
 14 23  1  0  0  0  0
 14 15  1  0  0  0  0
 15 16  1  0  0  0  0
 15 40  1  0  0  0  0
 15 41  1  0  0  0  0
 16 17  1  0  0  0  0
 16 42  1  0  0  0  0
 16 43  1  0  0  0  0
 17 18  1  0  0  0  0
 18 22  1  0  0  0  0
 18 19  1  0  0  0  0
 18 23  1  0  0  0  0
 19 20  1  0  0  0  0
 19 44  1  0  0  0  0
 19 45  1  0  0  0  0
 20 21  1  0  0  0  0
 20 46  1  0  0  0  0
 20 47  1  0  0  0  0
 21 22  1  0  0  0  0
 22 48  1  0  0  0  0
 22 49  1  0  0  0  0
 23 50  1  0  0  0  0
 23 51  1  0  0  0  0
 24 25  1  0  0  0  0
 25 26  2  0  0  0  0
 25 52  1  0  0  0  0
 26 27  1  0  0  0  0
M  END
> <s_m_source_file>
AV-unprocessed.smi

> <i_m_source_file_index>
264

> <i_lp_mmshare_version>
43012

> <i_f3d_flags>
0

> <s_epik_input>
W0NIMl0xW0NIMl1PW0NAQEhdKFtDSDNdKVtDQEBdMShbT0hdKVtDSDJdbihbY0hdbjIpYyhjMjMpbltjSF1uYzNOKFtDSDJdNClbQ0gyXVtDSDJdT1tDQF00NVtDSDJdW0NIMl1PW0NIMl01

> <s_epik_cmdline>
J2VwaWtfcHl0aG9uJywgJy1waCcsICc3LjAnLCAnLXRuJywgJzgnLCAnLW1hJywgJzIwMCcsICctbWV0YWxfYmluZGluZycsICctaW1hZScsICc8aW5maWxlLm1hZT4nLCAnLW9tYWUnLCAnPG91dGZpbGUubWFlPic=

> <r_lp_tautomer_probability>
1

> <r_epik_Ionization_Penalty>
0.00539389

> <r_epik_Ionization_Penalty_Charging>
0

> <r_epik_Ionization_Penalty_Neutral>
0.00539389

> <r_epik_State_Penalty>
0.00375441

> <r_epik_Charging_Adjusted_Penalty>
0.00375441

> <i_epik_Tot_Q>
0

> <i_epik_Tot_abs_Q>
0

> <r_epik_Metal_State_Penalty>
-0

> <b_epik_Metal_Only>
0

> <s_lp_Force_Field>
OPLS_2005

> <r_lp_Energy>
54.0423

> <b_lp_Chiralities_Consistent>
1

> <s_lp_Variant>
AV-unprocessed.smi:264-7

> <Gold.Version>
5.8.1

> <Gold.Id.Protein>
6NUR|6NUR_protein|mol2

> <Gold.PLP.Fitness>
49.8480

> <Gold.PLP.PLP>
-44.3060

> <Gold.PLP.part.hbond>
-4.4464

> <Gold.PLP.part.metal>
0.0000

> <Gold.PLP.part.buried>
-0.9816

> <Gold.PLP.part.nonpolar>
-40.9130

> <Gold.PLP.part.repulsive>
1.6052

> <Gold.PLP.ligand.clash>
0.0000

> <Gold.PLP.ligand.torsion>
0.5257

> <Gold.PLP.Chemscore.Hbond>
2.1050

> <Gold.PLP.Chemscore.CHOScore>
0.0000

> <Gold.PLP.Chemscore.Metal>
0.0000

> <Gold.Chemscore.Hbonds>
donor molecule, donor type, donor heavy atom, donor atom, acceptor molecule, acceptor atom, score
      L1  H     7    36       P1  7948  1.00
      P1  H  7989  7998       L1    26  0.05
      P1  H  7997  8009       L1    24  1.00

> <Gold.PLP.Chemscore.Internal.Correction>
0.2785

> <Gold.Rescore>
     Score         DG    S(hbond)    S(metal)    S(lipo)     H(rot)  DE(clash)    DE(int)     intcor
     14.65     -16.61       1.76        0.00      90.88       2.11       0.14       1.82       ----

> <Gold.Chemscore.Fitness>
14.6511

> <Gold.Chemscore.DG>
-16.6140

> <Gold.Chemscore.ZeroCoef>
-5.4800

> <Gold.Chemscore.Hbond>
1.7643

> <Gold.Chemscore.Metal>
0.0000

> <Gold.Chemscore.Lipo>
90.8827

> <Gold.Chemscore.Internal_Hbond>
0.0000

> <Gold.Chemscore.DEClash>
0.1430

> <Gold.Chemscore.DEInternal>
1.8200

> <Gold.Chemscore.Rot>
2.1063

> <Gold.Chemscore.Internal.Correction>
   9.000000E+99

> <Gold.Chemscore.Hbonds>
donor molecule, donor type, donor heavy atom, donor atom, acceptor molecule, acceptor atom, score
      L1  H     7    36       P1  7948  0.94
      P1  H  7997  8009       L1    24  0.61

> <Gold.Chemscore.Hbond.Weighted>
-5.8929

> <Gold.Chemscore.Metal.Weighted>
-0.0000

> <Gold.Chemscore.Lipo.Weighted>
-10.6333

> <Gold.Chemscore.Internal_Hbond.Weighted>
0.0000

> <Gold.Chemscore.DEClash.Weighted>
0.1430

> <Gold.Chemscore.DEInternal.Weighted>
1.8200

> <Gold.Chemscore.Rot.Weighted>
5.3921

> <Gold.Chemscore.Internal.Correction.Weighted>
   9.000000E+99

> <Gold.Protein.RotatedTorsions>
[ 6907 6896 6895 6894 ] final -117.73 input  -60.11 | X-H torsion
[ 7974 7965 7964 7962 ] final  158.07 input  175.53 | X-H torsion
[ 8008 7997 7996 7995 ] final -161.21 input   59.86 | X-H torsion
[ 10167 10162 10161 10158 ] final   28.26 input  -65.29 | X-H torsion
[ 10718 10713 10712 10709 ] final   26.10 input   66.30 | X-H torsion
[ 10763 10752 10751 10750 ] final  156.24 input  -60.55 | X-H torsion
[ 11005 11000 10999 10996 ] final  -90.34 input  -57.11 | X-H torsion

> <Gold.Protein.ActiveResidues>
 VAL166  LYS551  ARG553  GLY616  TRP617  ASP618  TYR619  PRO620  LYS621  CYS622 
 ASP623  PHE694  ASN695  SER759  ASP760  ASP761  ALA762  ILE779  LEU786  VAL792 
 PHE793  MET794  SER795  GLU796  ALA797  LYS798  CYS799  TRP800  GLU811  SER814 

> <Gold.Protein.RotatedAtoms>
  150.8160  133.8336  159.3160 H   0  0  0  0  0  0  0  0  0  0  0  0  # atno 6907 bound_to 6896
  151.6108  135.1038  160.0090 H   0  0  0  0  0  0  0  0  0  0  0  0  # atno 6908 bound_to 6896
  152.4251  133.7142  159.6553 H   0  0  0  0  0  0  0  0  0  0  0  0  # atno 6909 bound_to 6896
  144.7867  139.7427  143.6238 H   0  0  0  0  0  0  0  0  0  0  0  0  # atno 7974 bound_to 7965
  155.7888  140.0875  157.2020 H   0  0  0  0  0  0  0  0  0  0  0  0  # atno 8008 bound_to 7997
  154.3986  140.1494  156.3196 H   0  0  0  0  0  0  0  0  0  0  0  0  # atno 8009 bound_to 7997
  155.8580  140.3431  155.5740 H   0  0  0  0  0  0  0  0  0  0  0  0  # atno 8010 bound_to 7997
  140.4868  144.0529  150.6283 H   0  0  0  0  0  0  0  0  0  0  0  0  # atno 10167 bound_to 10162
  157.2023  130.6895  149.6193 H   0  0  0  0  0  0  0  0  0  0  0  0  # atno 10718 bound_to 10713
  154.1812  135.2799  155.3051 H   0  0  0  0  0  0  0  0  0  0  0  0  # atno 10763 bound_to 10752
  154.6001  135.5532  153.7369 H   0  0  0  0  0  0  0  0  0  0  0  0  # atno 10764 bound_to 10752
  153.0137  135.6389  154.1951 H   0  0  0  0  0  0  0  0  0  0  0  0  # atno 10765 bound_to 10752
  141.1567  133.7686  156.9723 H   0  0  0  0  0  0  0  0  0  0  0  0  # atno 11005 bound_to 11000
  146.2101  139.5452  142.9686 LP  0  0  0  0  0  0  0  0  0  0  0  0  # atno 17320 bound_to 7965
  145.5904  141.0370  143.2073 LP  0  0  0  0  0  0  0  0  0  0  0  0  # atno 17321 bound_to 7965
  140.3787  143.2814  152.0195 LP  0  0  0  0  0  0  0  0  0  0  0  0  # atno 17342 bound_to 10162
  139.4843  144.6172  151.7324 LP  0  0  0  0  0  0  0  0  0  0  0  0  # atno 17343 bound_to 10162
  155.9699  130.4579  150.5978 LP  0  0  0  0  0  0  0  0  0  0  0  0  # atno 17370 bound_to 10713
  157.3755  131.0772  151.1521 LP  0  0  0  0  0  0  0  0  0  0  0  0  # atno 17371 bound_to 10713
  140.1121  134.9470  157.2080 LP  0  0  0  0  0  0  0  0  0  0  0  0  # atno 17394 bound_to 11000
  140.3181  134.2948  155.7252 LP  0  0  0  0  0  0  0  0  0  0  0  0  # atno 17395 bound_to 11000

$$$$
