AV-unprocessed.smi:243|AV-procd|sdf|1856|dock7
  -GOLD-   2262020483D 1   1.00000     0.00000
 Structure written by MMmdl.
 58 61  0  0  0  0  0  0  0  0  2 V2000
  144.7450  133.5108  151.8264 C   0  0  0  0  0  0  0  0  0  0  0  0
  145.8018  134.5947  151.5671 C   0  0  0  0  0  0  0  0  0  0  0  0
  147.0285  134.4061  152.3828 N   0  3  2  0  0  0  0  0  0  0  0  0
  147.6870  133.1048  152.1069 C   0  0  0  0  0  0  0  0  0  0  0  0
  149.0398  133.0116  152.8252 C   0  0  0  0  0  0  0  0  0  0  0  0
  148.8810  133.2287  154.3460 C   0  0  1  0  0  0  0  0  0  0  0  0
  150.1475  133.0804  155.0800 N   0  0  0  0  0  0  0  0  0  0  0  0
  150.8605  134.2889  155.4773 C   0  0  0  0  0  0  0  0  0  0  0  0
  150.3974  132.0154  155.8854 C   0  0  0  0  0  0  0  0  0  0  0  0
  150.3416  132.1468  157.2364 N   0  0  0  0  0  0  0  0  0  0  0  0
  150.5974  131.1011  158.0281 C   0  0  0  0  0  0  0  0  0  0  0  0
  150.9227  129.8541  157.6837 N   0  0  0  0  0  0  0  0  0  0  0  0
  150.9850  129.7156  156.3284 C   0  0  0  0  0  0  0  0  0  0  0  0
  150.7401  130.7356  155.3663 C   0  0  0  0  0  0  0  0  0  0  0  0
  150.8806  130.2195  154.0841 N   0  0  0  0  0  0  0  0  0  0  0  0
  151.1938  128.9674  154.2768 C   0  0  0  0  0  0  0  0  0  0  0  0
  151.2873  128.5811  155.5952 N   0  0  0  0  0  0  0  0  0  0  0  0
  151.6146  127.2550  156.0972 C   0  0  0  0  0  0  0  0  0  0  0  0
  153.0319  126.7739  155.7051 C   0  0  1  0  0  0  0  0  0  0  0  0
  153.2836  125.5198  156.3154 O   0  0  0  0  0  0  0  0  0  0  0  0
  153.2057  126.6167  154.1996 C   0  0  0  0  0  0  0  0  0  0  0  0
  154.6936  126.8743  154.0039 C   0  0  0  0  0  0  0  0  0  0  0  0
  154.9507  127.9363  154.9066 O   0  0  0  0  0  0  0  0  0  0  0  0
  154.1733  127.7403  156.0847 C   0  0  0  0  0  0  0  0  0  0  0  0
  148.1218  134.5515  154.6366 C   0  0  2  0  0  0  0  0  0  0  0  0
  147.8335  134.7405  156.1368 C   0  0  0  0  0  0  0  0  0  0  0  0
  146.8010  134.5934  153.8399 C   0  0  0  0  0  0  0  0  0  0  0  0
  143.8220  133.7423  151.2942 H   0  0  0  0  0  0  0  0  0  0  0  0
  144.5039  133.4398  152.8874 H   0  0  0  0  0  0  0  0  0  0  0  0
  145.0714  132.5283  151.4875 H   0  0  0  0  0  0  0  0  0  0  0  0
  146.0585  134.6376  150.5077 H   0  0  0  0  0  0  0  0  0  0  0  0
  145.3528  135.5575  151.8146 H   0  0  0  0  0  0  0  0  0  0  0  0
  147.0338  132.2886  152.4204 H   0  0  0  0  0  0  0  0  0  0  0  0
  147.8469  132.9893  151.0341 H   0  0  0  0  0  0  0  0  0  0  0  0
  149.4854  132.0361  152.6279 H   0  0  0  0  0  0  0  0  0  0  0  0
  149.7145  133.7486  152.3918 H   0  0  0  0  0  0  0  0  0  0  0  0
  148.2418  132.4235  154.7116 H   0  0  0  0  0  0  0  0  0  0  0  0
  150.7997  134.4409  156.5559 H   0  0  0  0  0  0  0  0  0  0  0  0
  150.4422  135.1706  154.9917 H   0  0  0  0  0  0  0  0  0  0  0  0
  151.9119  134.2267  155.1973 H   0  0  0  0  0  0  0  0  0  0  0  0
  150.5333  131.2903  159.0893 H   0  0  0  0  0  0  0  0  0  0  0  0
  151.3636  128.2873  153.4550 H   0  0  0  0  0  0  0  0  0  0  0  0
  151.5082  127.2645  157.1829 H   0  0  0  0  0  0  0  0  0  0  0  0
  150.8639  126.5569  155.7244 H   0  0  0  0  0  0  0  0  0  0  0  0
  152.8473  124.8486  155.8134 H   0  0  0  0  0  0  0  0  0  0  0  0
  152.8832  125.6468  153.8185 H   0  0  0  0  0  0  0  0  0  0  0  0
  152.6402  127.3855  153.6714 H   0  0  0  0  0  0  0  0  0  0  0  0
  155.2838  126.0009  154.2858 H   0  0  0  0  0  0  0  0  0  0  0  0
  154.9456  127.1462  152.9787 H   0  0  0  0  0  0  0  0  0  0  0  0
  153.8028  128.7131  156.4056 H   0  0  0  0  0  0  0  0  0  0  0  0
  154.7990  127.3478  156.8878 H   0  0  0  0  0  0  0  0  0  0  0  0
  148.7206  135.3991  154.3039 H   0  0  0  0  0  0  0  0  0  0  0  0
  147.2402  133.9159  156.5331 H   0  0  0  0  0  0  0  0  0  0  0  0
  147.2812  135.6632  156.3164 H   0  0  0  0  0  0  0  0  0  0  0  0
  148.7518  134.7981  156.7210 H   0  0  0  0  0  0  0  0  0  0  0  0
  146.3155  135.5518  154.0207 H   0  0  0  0  0  0  0  0  0  0  0  0
  146.1167  133.8236  154.2005 H   0  0  0  0  0  0  0  0  0  0  0  0
  147.6797  135.1206  152.0899 H   0  0  0  0  0  0  0  0  0  0  0  0
  1  2  1  0  0  0  0
  1 28  1  0  0  0  0
  1 29  1  0  0  0  0
  1 30  1  0  0  0  0
  2  3  1  0  0  0  0
  2 31  1  0  0  0  0
  2 32  1  0  0  0  0
  3 27  1  0  0  0  0
  3  4  1  0  0  0  0
  3 58  1  0  0  0  0
  4  5  1  0  0  0  0
  4 33  1  0  0  0  0
  4 34  1  0  0  0  0
  5  6  1  0  0  0  0
  5 35  1  0  0  0  0
  5 36  1  0  0  0  0
  6  7  1  0  0  0  0
  6 25  1  0  0  0  0
  6 37  1  0  0  0  0
  7  8  1  0  0  0  0
  7  9  1  0  0  0  0
  8 38  1  0  0  0  0
  8 39  1  0  0  0  0
  8 40  1  0  0  0  0
  9 14  1  0  0  0  0
  9 10  2  0  0  0  0
 10 11  1  0  0  0  0
 11 12  2  0  0  0  0
 11 41  1  0  0  0  0
 12 13  1  0  0  0  0
 13 17  1  0  0  0  0
 13 14  2  0  0  0  0
 14 15  1  0  0  0  0
 15 16  2  0  0  0  0
 16 17  1  0  0  0  0
 16 42  1  0  0  0  0
 17 18  1  0  0  0  0
 18 19  1  0  0  0  0
 18 43  1  0  0  0  0
 18 44  1  0  0  0  0
 19 24  1  0  0  0  0
 19 20  1  0  0  0  0
 19 21  1  0  0  0  0
 20 45  1  0  0  0  0
 21 22  1  0  0  0  0
 21 46  1  0  0  0  0
 21 47  1  0  0  0  0
 22 23  1  0  0  0  0
 22 48  1  0  0  0  0
 22 49  1  0  0  0  0
 23 24  1  0  0  0  0
 24 50  1  0  0  0  0
 24 51  1  0  0  0  0
 25 26  1  0  0  0  0
 25 27  1  0  0  0  0
 25 52  1  0  0  0  0
 26 53  1  0  0  0  0
 26 54  1  0  0  0  0
 26 55  1  0  0  0  0
 27 56  1  0  0  0  0
 27 57  1  0  0  0  0
M  CHG  1   3   1
M  END
> <s_m_source_file>
AV-unprocessed.smi

> <i_m_source_file_index>
243

> <i_lp_mmshare_version>
43012

> <i_f3d_flags>
0

> <s_epik_input>
W0NIM11bQ0gyXU4xW0NIMl1bQ0gyXVtDQEhdKFtDQEBIXShbQ0gzXSlbQ0gyXTEpTihbQ0gzXSljKG5bY0hdbjIpYyhjMjMpbltjSF1uM1tDSDJdW0NAQF00KFtPSF0pW0NIMl1bQ0gyXU9bQ0gyXTQ=

> <s_epik_cmdline>
J2VwaWtfcHl0aG9uJywgJy1waCcsICc3LjAnLCAnLXRuJywgJzgnLCAnLW1hJywgJzIwMCcsICctbWV0YWxfYmluZGluZycsICctaW1hZScsICc8aW5maWxlLm1hZT4nLCAnLW9tYWUnLCAnPG91dGZpbGUubWFlPic=

> <r_lp_tautomer_probability>
1

> <r_epik_Ionization_Penalty>
0.00253099

> <r_epik_Ionization_Penalty_Charging>
0.00137877

> <r_epik_Ionization_Penalty_Neutral>
0.00115221

> <r_epik_State_Penalty>
-0

> <r_epik_Charging_Adjusted_Penalty>
0.00137877

> <i_epik_Tot_Q>
1

> <i_epik_Tot_abs_Q>
1

> <r_epik_Metal_State_Penalty>
-0

> <b_epik_Metal_Only>
0

> <s_lp_Force_Field>
OPLS_2005

> <r_lp_Energy>
45.5206

> <b_lp_Chiralities_Consistent>
1

> <s_lp_Variant>
AV-unprocessed.smi:243-9

> <Gold.Version>
5.8.1

> <Gold.Id.Protein>
6NUR|6NUR_protein|mol2

> <Gold.PLP.Fitness>
33.6220

> <Gold.PLP.PLP>
-26.7372

> <Gold.PLP.part.hbond>
-1.0000

> <Gold.PLP.part.metal>
0.0000

> <Gold.PLP.part.buried>
-3.3837

> <Gold.PLP.part.nonpolar>
-23.4465

> <Gold.PLP.part.repulsive>
0.1433

> <Gold.PLP.ligand.clash>
0.0000

> <Gold.PLP.ligand.torsion>
1.5411

> <Gold.PLP.Chemscore.Hbond>
2.0000

> <Gold.PLP.Chemscore.CHOScore>
1.0000

> <Gold.PLP.Chemscore.Metal>
0.0000

> <Gold.Chemscore.Hbonds>
donor molecule, donor type, donor heavy atom, donor atom, acceptor molecule, acceptor atom, score
      L1  H     3    58       P1  7948  2.00
      L1  C    16    42       P1 10737  0.77

> <Gold.PLP.Chemscore.Internal.Correction>
0.9671

> <Gold.Rescore>
     Score         DG    S(hbond)    S(metal)    S(lipo)     H(rot)  DE(clash)    DE(int)     intcor
      7.77      -9.39       0.97        0.00      54.51       2.24       0.06       1.56       ----

> <Gold.Chemscore.Fitness>
7.7692

> <Gold.Chemscore.DG>
-9.3854

> <Gold.Chemscore.ZeroCoef>
-5.4800

> <Gold.Chemscore.Hbond>
0.9750

> <Gold.Chemscore.Metal>
0.0000

> <Gold.Chemscore.Lipo>
54.5138

> <Gold.Chemscore.Internal_Hbond>
0.0000

> <Gold.Chemscore.DEClash>
0.0577

> <Gold.Chemscore.DEInternal>
1.5585

> <Gold.Chemscore.Rot>
2.2379

> <Gold.Chemscore.Internal.Correction>
   9.000000E+99

> <Gold.Chemscore.Hbonds>
donor molecule, donor type, donor heavy atom, donor atom, acceptor molecule, acceptor atom, score
      L1  H     3    58       P1  7948  0.93

> <Gold.Chemscore.Hbond.Weighted>
-3.2564

> <Gold.Chemscore.Metal.Weighted>
-0.0000

> <Gold.Chemscore.Lipo.Weighted>
-6.3781

> <Gold.Chemscore.Internal_Hbond.Weighted>
0.0000

> <Gold.Chemscore.DEClash.Weighted>
0.0577

> <Gold.Chemscore.DEInternal.Weighted>
1.5585

> <Gold.Chemscore.Rot.Weighted>
5.7291

> <Gold.Chemscore.Internal.Correction.Weighted>
   9.000000E+99

> <Gold.Protein.RotatedTorsions>
[ 6907 6896 6895 6894 ] final  -45.79 input  -60.11 | X-H torsion
[ 7974 7965 7964 7962 ] final   70.20 input  175.53 | X-H torsion
[ 8008 7997 7996 7995 ] final -111.94 input   59.86 | X-H torsion
[ 10167 10162 10161 10158 ] final  113.23 input  -65.29 | X-H torsion
[ 10718 10713 10712 10709 ] final  -73.40 input   66.30 | X-H torsion
[ 10763 10752 10751 10750 ] final  -28.49 input  -60.55 | X-H torsion
[ 11005 11000 10999 10996 ] final -153.90 input  -57.11 | X-H torsion

> <Gold.Protein.ActiveResidues>
 VAL166  LYS551  ARG553  GLY616  TRP617  ASP618  TYR619  PRO620  LYS621  CYS622 
 ASP623  PHE694  ASN695  SER759  ASP760  ASP761  ALA762  ILE779  LEU786  VAL792 
 PHE793  MET794  SER795  GLU796  ALA797  LYS798  CYS799  TRP800  GLU811  SER814 

> <Gold.Protein.RotatedAtoms>
  150.9181  134.8599  159.7470 H   0  0  0  0  0  0  0  0  0  0  0  0  # atno 6907 bound_to 6896
  152.4979  134.4259  159.9506 H   0  0  0  0  0  0  0  0  0  0  0  0  # atno 6908 bound_to 6896
  151.4295  133.3635  159.2802 H   0  0  0  0  0  0  0  0  0  0  0  0  # atno 6909 bound_to 6896
  145.7810  139.2888  143.1265 H   0  0  0  0  0  0  0  0  0  0  0  0  # atno 7974 bound_to 7965
  154.9975  140.0394  157.2346 H   0  0  0  0  0  0  0  0  0  0  0  0  # atno 8008 bound_to 7997
  154.7573  140.2778  155.6220 H   0  0  0  0  0  0  0  0  0  0  0  0  # atno 8009 bound_to 7997
  156.2897  140.2635  156.2343 H   0  0  0  0  0  0  0  0  0  0  0  0  # atno 8010 bound_to 7997
  139.6477  144.7127  151.2110 H   0  0  0  0  0  0  0  0  0  0  0  0  # atno 10167 bound_to 10162
  156.0282  130.4393  150.2737 H   0  0  0  0  0  0  0  0  0  0  0  0  # atno 10718 bound_to 10713
  153.7491  135.6927  153.4949 H   0  0  0  0  0  0  0  0  0  0  0  0  # atno 10763 bound_to 10752
  153.2015  135.4435  155.0271 H   0  0  0  0  0  0  0  0  0  0  0  0  # atno 10764 bound_to 10752
  154.8193  135.3414  154.7013 H   0  0  0  0  0  0  0  0  0  0  0  0  # atno 10765 bound_to 10752
  140.7032  134.3915  157.5207 H   0  0  0  0  0  0  0  0  0  0  0  0  # atno 11005 bound_to 11000
  146.0074  140.8466  142.9988 LP  0  0  0  0  0  0  0  0  0  0  0  0  # atno 17320 bound_to 7965
  144.6796  140.2440  143.7340 LP  0  0  0  0  0  0  0  0  0  0  0  0  # atno 17321 bound_to 7965
  140.7522  143.6203  150.8520 LP  0  0  0  0  0  0  0  0  0  0  0  0  # atno 17342 bound_to 10162
  139.9848  143.5912  152.2931 LP  0  0  0  0  0  0  0  0  0  0  0  0  # atno 17343 bound_to 10162
  157.0840  131.0151  151.3146 LP  0  0  0  0  0  0  0  0  0  0  0  0  # atno 17370 bound_to 10713
  157.4906  130.7819  149.7503 LP  0  0  0  0  0  0  0  0  0  0  0  0  # atno 17371 bound_to 10713
  139.8891  134.8838  156.2438 LP  0  0  0  0  0  0  0  0  0  0  0  0  # atno 17394 bound_to 11000
  141.0146  133.7075  156.1168 LP  0  0  0  0  0  0  0  0  0  0  0  0  # atno 17395 bound_to 11000

$$$$
