AV-unprocessed.smi:1439|AV-procd|sdf|5872|dock9
  -GOLD-   22720 5553D 1   1.00000     0.00000
 Structure written by MMmdl.
 35 36  0  0  0  0  0  0  0  0  2 V2000
  143.5570  143.3600  154.6414 N   0  0  0  0  0  0  0  0  0  0  0  0
  144.8565  143.2924  154.9478 C   0  0  0  0  0  0  0  0  0  0  0  0
  145.2559  143.3714  156.1077 O   0  0  0  0  0  0  0  0  0  0  0  0
  145.8534  143.0806  153.8014 C   0  0  0  0  0  0  0  0  0  0  0  0
  146.7522  141.9022  154.0540 C   0  0  0  0  0  0  0  0  0  0  0  0
  146.8026  140.7378  153.3315 C   0  0  0  0  0  0  0  0  0  0  0  0
  147.9950  139.6388  153.9626 S   0  0  0  0  0  0  0  0  0  0  0  0
  148.3992  140.8139  155.2150 C   0  0  0  0  0  0  0  0  0  0  0  0
  149.3302  140.6338  156.1645 N   0  5  0  0  0  0  0  0  0  0  0  0
  150.6106  141.0037  155.9224 C   0  0  0  0  0  0  0  0  0  0  0  0
  151.4115  140.5241  155.1177 O   0  0  0  0  0  0  0  0  0  0  0  0
  151.0465  142.1799  156.8061 C   0  0  0  0  0  0  0  0  0  0  0  0
  151.2545  141.7604  158.2723 C   0  0  0  0  0  0  0  0  0  0  0  0
  151.6052  142.9453  159.1839 C   0  0  1  0  0  0  0  0  0  0  0  0
  152.3162  144.0886  158.4638 C   0  0  0  0  0  0  0  0  0  0  0  0
  152.0291  145.2499  159.3878 C   0  0  0  0  0  0  0  0  0  0  0  0
  150.6001  144.9536  159.8384 C   0  0  0  0  0  0  0  0  0  0  0  0
  150.4291  143.5425  159.7229 O   0  0  0  0  0  0  0  0  0  0  0  0
  147.6519  141.9195  155.1242 N   0  0  0  0  0  0  0  0  0  0  0  0
  142.8781  143.5281  155.3693 H   0  0  0  0  0  0  0  0  0  0  0  0
  143.2624  143.2721  153.6795 H   0  0  0  0  0  0  0  0  0  0  0  0
  145.3039  142.9435  152.8692 H   0  0  0  0  0  0  0  0  0  0  0  0
  146.4396  143.9918  153.6800 H   0  0  0  0  0  0  0  0  0  0  0  0
  146.2165  140.4617  152.4680 H   0  0  0  0  0  0  0  0  0  0  0  0
  151.9754  142.5820  156.4002 H   0  0  0  0  0  0  0  0  0  0  0  0
  150.3176  142.9918  156.7641 H   0  0  0  0  0  0  0  0  0  0  0  0
  150.3436  141.2877  158.6425 H   0  0  0  0  0  0  0  0  0  0  0  0
  152.0411  141.0074  158.3382 H   0  0  0  0  0  0  0  0  0  0  0  0
  152.2261  142.6097  160.0163 H   0  0  0  0  0  0  0  0  0  0  0  0
  153.3820  143.9063  158.3228 H   0  0  0  0  0  0  0  0  0  0  0  0
  151.8660  144.2689  157.4865 H   0  0  0  0  0  0  0  0  0  0  0  0
  152.7057  145.2212  160.2430 H   0  0  0  0  0  0  0  0  0  0  0  0
  152.1312  146.2213  158.9031 H   0  0  0  0  0  0  0  0  0  0  0  0
  150.4128  145.2930  160.8574 H   0  0  0  0  0  0  0  0  0  0  0  0
  149.8809  145.4431  159.1810 H   0  0  0  0  0  0  0  0  0  0  0  0
  1  2  1  0  0  0  0
  1 20  1  0  0  0  0
  1 21  1  0  0  0  0
  2  3  2  0  0  0  0
  2  4  1  0  0  0  0
  4  5  1  0  0  0  0
  4 22  1  0  0  0  0
  4 23  1  0  0  0  0
  5 19  1  0  0  0  0
  5  6  2  0  0  0  0
  6  7  1  0  0  0  0
  6 24  1  0  0  0  0
  7  8  1  0  0  0  0
  8  9  1  0  0  0  0
  8 19  2  0  0  0  0
  9 10  1  0  0  0  0
 10 11  2  0  0  0  0
 10 12  1  0  0  0  0
 12 13  1  0  0  0  0
 12 25  1  0  0  0  0
 12 26  1  0  0  0  0
 13 14  1  0  0  0  0
 13 27  1  0  0  0  0
 13 28  1  0  0  0  0
 14 18  1  0  0  0  0
 14 15  1  0  0  0  0
 14 29  1  0  0  0  0
 15 16  1  0  0  0  0
 15 30  1  0  0  0  0
 15 31  1  0  0  0  0
 16 17  1  0  0  0  0
 16 32  1  0  0  0  0
 16 33  1  0  0  0  0
 17 18  1  0  0  0  0
 17 34  1  0  0  0  0
 17 35  1  0  0  0  0
M  CHG  1   9  -1
M  END
> <s_m_source_file>
AV-unprocessed.smi

> <i_m_source_file_index>
1439

> <i_lp_mmshare_version>
43012

> <i_f3d_flags>
0

> <s_epik_input>
W05IMl1DKD1PKVtDSDJdYzFbY0hdc2MobjEpW05IXUMoPU8pW0NIMl1bQ0gyXVtDQEBIXTJbQ0gyXVtDSDJdW0NIMl1PMg==

> <s_epik_cmdline>
J2VwaWtfcHl0aG9uJywgJy1waCcsICc3LjAnLCAnLXRuJywgJzgnLCAnLW1hJywgJzIwMCcsICctbWV0YWxfYmluZGluZycsICctaW1hZScsICc8aW5maWxlLm1hZT4nLCAnLW9tYWUnLCAnPG91dGZpbGUubWFlPic=

> <r_lp_tautomer_probability>
1

> <r_epik_Ionization_Penalty>
4.85214

> <r_epik_Ionization_Penalty_Charging>
4.5239

> <r_epik_Ionization_Penalty_Neutral>
0.32824

> <r_epik_State_Penalty>
4.52362

> <r_epik_Charging_Adjusted_Penalty>
9.04752

> <i_epik_Tot_Q>
-1

> <i_epik_Tot_abs_Q>
1

> <r_epik_Metal_State_Penalty>
0.831335

> <b_epik_Metal_Only>
1

> <s_lp_Force_Field>
OPLS_2005

> <r_lp_Energy>
13.9468

> <b_lp_Chiralities_Consistent>
1

> <s_lp_Variant>
AV-unprocessed.smi:1439-4

> <Gold.Version>
5.8.1

> <Gold.Id.Protein>
6NUR|6NUR_protein|mol2

> <Gold.PLP.Fitness>
44.8174

> <Gold.PLP.PLP>
-40.1914

> <Gold.PLP.part.hbond>
-2.5058

> <Gold.PLP.part.metal>
0.0000

> <Gold.PLP.part.buried>
-6.2644

> <Gold.PLP.part.nonpolar>
-32.8213

> <Gold.PLP.part.repulsive>
1.3462

> <Gold.PLP.ligand.clash>
0.0000

> <Gold.PLP.ligand.torsion>
1.9885

> <Gold.PLP.Chemscore.Hbond>
1.9120

> <Gold.PLP.Chemscore.CHOScore>
0.8948

> <Gold.PLP.Chemscore.Metal>
0.0000

> <Gold.Chemscore.Hbonds>
donor molecule, donor type, donor heavy atom, donor atom, acceptor molecule, acceptor atom, score
      L1  H     1    21       P1 10174  1.00
      P1  H  7989  7998       L1    11  0.90
      L1  C     6    24       P1 10175  0.86

> <Gold.PLP.Chemscore.Internal.Correction>
0.1825

> <Gold.Rescore>
     Score         DG    S(hbond)    S(metal)    S(lipo)     H(rot)  DE(clash)    DE(int)     intcor
     13.39     -15.57       1.87        0.00      87.68       2.51       0.17       2.01       ----

> <Gold.Chemscore.Fitness>
13.3854

> <Gold.Chemscore.DG>
-15.5746

> <Gold.Chemscore.ZeroCoef>
-5.4800

> <Gold.Chemscore.Hbond>
1.8749

> <Gold.Chemscore.Metal>
0.0000

> <Gold.Chemscore.Lipo>
87.6815

> <Gold.Chemscore.Internal_Hbond>
0.0000

> <Gold.Chemscore.DEClash>
0.1745

> <Gold.Chemscore.DEInternal>
2.0147

> <Gold.Chemscore.Rot>
2.5103

> <Gold.Chemscore.Internal.Correction>
   9.000000E+99

> <Gold.Chemscore.Hbonds>
donor molecule, donor type, donor heavy atom, donor atom, acceptor molecule, acceptor atom, score
      L1  H     1    21       P1 10174  0.88
      P1  H  7989  7998       L1    11  0.88

> <Gold.Chemscore.Hbond.Weighted>
-6.2623

> <Gold.Chemscore.Metal.Weighted>
-0.0000

> <Gold.Chemscore.Lipo.Weighted>
-10.2587

> <Gold.Chemscore.Internal_Hbond.Weighted>
0.0000

> <Gold.Chemscore.DEClash.Weighted>
0.1745

> <Gold.Chemscore.DEInternal.Weighted>
2.0147

> <Gold.Chemscore.Rot.Weighted>
6.4264

> <Gold.Chemscore.Internal.Correction.Weighted>
   9.000000E+99

> <Gold.Protein.RotatedTorsions>
[ 6907 6896 6895 6894 ] final -128.36 input  -60.11 | X-H torsion
[ 7974 7965 7964 7962 ] final  -46.13 input  175.53 | X-H torsion
[ 8008 7997 7996 7995 ] final -145.92 input   59.86 | X-H torsion
[ 10167 10162 10161 10158 ] final   51.16 input  -65.29 | X-H torsion
[ 10718 10713 10712 10709 ] final   89.94 input   66.30 | X-H torsion
[ 10763 10752 10751 10750 ] final  114.00 input  -60.55 | X-H torsion
[ 11005 11000 10999 10996 ] final   16.92 input  -57.11 | X-H torsion

> <Gold.Protein.ActiveResidues>
 VAL166  LYS551  ARG553  GLY616  TRP617  ASP618  TYR619  PRO620  LYS621  CYS622 
 ASP623  PHE694  ASN695  SER759  ASP760  ASP761  ALA762  ILE779  LEU786  VAL792 
 PHE793  MET794  SER795  GLU796  ALA797  LYS798  CYS799  TRP800  GLU811  SER814 

> <Gold.Protein.RotatedAtoms>
  150.9170  133.6926  159.2840 H   0  0  0  0  0  0  0  0  0  0  0  0  # atno 6907 bound_to 6896
  151.4394  135.1017  159.9675 H   0  0  0  0  0  0  0  0  0  0  0  0  # atno 6908 bound_to 6896
  152.4960  133.8582  159.7292 H   0  0  0  0  0  0  0  0  0  0  0  0  # atno 6909 bound_to 6896
  145.9750  140.7343  142.9391 H   0  0  0  0  0  0  0  0  0  0  0  0  # atno 7974 bound_to 7965
  155.5510  140.0616  157.2850 H   0  0  0  0  0  0  0  0  0  0  0  0  # atno 8008 bound_to 7997
  154.4421  140.1902  156.0731 H   0  0  0  0  0  0  0  0  0  0  0  0  # atno 8009 bound_to 7997
  156.0516  140.3283  155.7361 H   0  0  0  0  0  0  0  0  0  0  0  0  # atno 8010 bound_to 7997
  140.2649  144.3331  150.6307 H   0  0  0  0  0  0  0  0  0  0  0  0  # atno 10167 bound_to 10162
  157.6957  131.0352  150.3502 H   0  0  0  0  0  0  0  0  0  0  0  0  # atno 10718 bound_to 10713
  153.5008  135.3638  155.2539 H   0  0  0  0  0  0  0  0  0  0  0  0  # atno 10763 bound_to 10752
  154.8748  135.3999  154.3481 H   0  0  0  0  0  0  0  0  0  0  0  0  # atno 10764 bound_to 10752
  153.4116  135.7078  153.6421 H   0  0  0  0  0  0  0  0  0  0  0  0  # atno 10765 bound_to 10752
  140.4417  134.1315  155.7691 H   0  0  0  0  0  0  0  0  0  0  0  0  # atno 11005 bound_to 11000
  144.6846  140.2813  143.7292 LP  0  0  0  0  0  0  0  0  0  0  0  0  # atno 17320 bound_to 7965
  145.7851  139.1906  143.2135 LP  0  0  0  0  0  0  0  0  0  0  0  0  # atno 17321 bound_to 7965
  140.5936  143.2167  151.7205 LP  0  0  0  0  0  0  0  0  0  0  0  0  # atno 17342 bound_to 10162
  139.5006  144.3901  152.0289 LP  0  0  0  0  0  0  0  0  0  0  0  0  # atno 17343 bound_to 10162
  156.3952  130.3905  149.7000 LP  0  0  0  0  0  0  0  0  0  0  0  0  # atno 17370 bound_to 10713
  156.4337  130.7827  151.2847 LP  0  0  0  0  0  0  0  0  0  0  0  0  # atno 17371 bound_to 10713
  141.1703  133.8623  157.1592 LP  0  0  0  0  0  0  0  0  0  0  0  0  # atno 17394 bound_to 11000
  140.0065  135.0006  157.0304 LP  0  0  0  0  0  0  0  0  0  0  0  0  # atno 17395 bound_to 11000

$$$$
