AV-unprocessed.smi:2784|AV-procd|sdf|10734|dock7
  -GOLD-   2272015173D 1   1.00000     0.00000
 Structure written by MMmdl.
 31 32  0  0  0  0  0  0  0  0  1 V2000
  153.3623  142.2503  161.7117 C   0  0  0  0  0  0  0  0  0  0  0  0
  152.2185  142.1530  160.8775 O   0  0  0  0  0  0  0  0  0  0  0  0
  152.2696  143.0044  159.7410 C   0  0  2  0  0  0  0  0  0  0  0  0
  152.5001  144.4484  160.1949 C   0  0  0  0  0  0  0  0  0  0  0  0
  151.8623  145.2957  159.1000 C   0  0  0  0  0  0  0  0  0  0  0  0
  150.6054  144.5150  158.7174 C   0  0  0  0  0  0  0  0  0  0  0  0
  150.9452  143.0281  158.9433 C   0  0  1  0  0  0  0  0  0  0  0  0
  151.1003  142.3257  157.6717 N   0  0  0  0  0  0  0  0  0  0  0  0
  151.5335  141.0651  157.5247 C   0  0  0  0  0  0  0  0  0  0  0  0
  151.8408  140.3675  158.4964 O   0  0  0  0  0  0  0  0  0  0  0  0
  151.5985  140.7353  156.1793 N   0  0  0  0  0  0  0  0  0  0  0  0
  150.7109  139.9349  155.6735 C   0  0  0  0  0  0  0  0  0  0  0  0
  149.6264  139.2550  156.2216 N   0  0  0  0  0  0  0  0  0  0  0  0
  149.0284  138.5341  155.2263 C   0  0  0  0  0  0  0  0  0  0  0  0
  149.7035  138.7471  154.1008 C   0  0  0  0  0  0  0  0  0  0  0  0
  150.7385  139.5997  154.3433 O   0  0  0  0  0  0  0  0  0  0  0  0
  153.2429  141.5910  162.5711 H   0  0  0  0  0  0  0  0  0  0  0  0
  153.4928  143.2667  162.0851 H   0  0  0  0  0  0  0  0  0  0  0  0
  154.2704  141.9522  161.1871 H   0  0  0  0  0  0  0  0  0  0  0  0
  153.1049  142.7215  159.0964 H   0  0  0  0  0  0  0  0  0  0  0  0
  151.9820  144.6301  161.1377 H   0  0  0  0  0  0  0  0  0  0  0  0
  153.5554  144.6768  160.3467 H   0  0  0  0  0  0  0  0  0  0  0  0
  151.6422  146.3119  159.4282 H   0  0  0  0  0  0  0  0  0  0  0  0
  152.5343  145.3577  158.2430 H   0  0  0  0  0  0  0  0  0  0  0  0
  149.7901  144.8000  159.3837 H   0  0  0  0  0  0  0  0  0  0  0  0
  150.2789  144.7387  157.7008 H   0  0  0  0  0  0  0  0  0  0  0  0
  150.1495  142.5664  159.5312 H   0  0  0  0  0  0  0  0  0  0  0  0
  150.8730  142.8448  156.8360 H   0  0  0  0  0  0  0  0  0  0  0  0
  149.3027  139.2635  157.1784 H   0  0  0  0  0  0  0  0  0  0  0  0
  148.1591  137.9285  155.4360 H   0  0  0  0  0  0  0  0  0  0  0  0
  149.5802  138.3833  153.0914 H   0  0  0  0  0  0  0  0  0  0  0  0
  1  2  1  0  0  0  0
  1 17  1  0  0  0  0
  1 18  1  0  0  0  0
  1 19  1  0  0  0  0
  2  3  1  0  0  0  0
  3  7  1  0  0  0  0
  3  4  1  0  0  0  0
  3 20  1  0  0  0  0
  4  5  1  0  0  0  0
  4 21  1  0  0  0  0
  4 22  1  0  0  0  0
  5  6  1  0  0  0  0
  5 23  1  0  0  0  0
  5 24  1  0  0  0  0
  6  7  1  0  0  0  0
  6 25  1  0  0  0  0
  6 26  1  0  0  0  0
  7  8  1  0  0  0  0
  7 27  1  0  0  0  0
  8 28  1  0  0  0  0
  8  9  1  0  0  0  0
  9 11  1  0  0  0  0
  9 10  2  0  0  0  0
 11 12  2  0  0  0  0
 12 16  1  0  0  0  0
 12 13  1  0  0  0  0
 13 29  1  0  0  0  0
 13 14  1  0  0  0  0
 14 30  1  0  0  0  0
 14 15  2  0  0  0  0
 15 31  1  0  0  0  0
 15 16  1  0  0  0  0
M  END
> <s_m_source_file>
AV-unprocessed.smi

> <i_m_source_file_index>
2784

> <i_lp_mmshare_version>
43012

> <i_f3d_flags>
0

> <s_epik_input>
W0NIM11PW0NAQEhdMVtDSDJdW0NIMl1bQ0gyXVtDQEhdMVtOSF1DKD1PKVtOSF1jMm5bY0hdW2NIXW8y

> <s_epik_cmdline>
J2VwaWtfcHl0aG9uJywgJy1waCcsICc3LjAnLCAnLXRuJywgJzgnLCAnLW1hJywgJzIwMCcsICctbWV0YWxfYmluZGluZycsICctaW1hZScsICc8aW5maWxlLm1hZT4nLCAnLW9tYWUnLCAnPG91dGZpbGUubWFlPic=

> <r_lp_tautomer_probability>
0.107061

> <r_epik_Ionization_Penalty>
1.29244

> <r_epik_Ionization_Penalty_Charging>
1.29208

> <r_epik_Ionization_Penalty_Neutral>
0.000359742

> <r_epik_State_Penalty>
2.59896

> <r_epik_Charging_Adjusted_Penalty>
3.89105

> <i_epik_Tot_Q>
0

> <i_epik_Tot_abs_Q>
0

> <r_epik_Metal_State_Penalty>
3.62496

> <b_epik_Metal_Only>
0

> <s_lp_Force_Field>
OPLS_2005

> <r_lp_Energy>
42.7812

> <b_lp_Chiralities_Consistent>
1

> <s_lp_Variant>
AV-unprocessed.smi:2784-9

> <Gold.Version>
5.8.1

> <Gold.Id.Protein>
6NUR|6NUR_protein|mol2

> <Gold.PLP.Fitness>
37.3062

> <Gold.PLP.PLP>
-30.4007

> <Gold.PLP.part.hbond>
-1.3278

> <Gold.PLP.part.metal>
0.0000

> <Gold.PLP.part.buried>
-5.0052

> <Gold.PLP.part.nonpolar>
-23.2786

> <Gold.PLP.part.repulsive>
0.2239

> <Gold.PLP.ligand.clash>
0.0000

> <Gold.PLP.ligand.torsion>
0.7572

> <Gold.PLP.Chemscore.Hbond>
1.0000

> <Gold.PLP.Chemscore.CHOScore>
1.8044

> <Gold.PLP.Chemscore.Metal>
0.0000

> <Gold.Chemscore.Hbonds>
donor molecule, donor type, donor heavy atom, donor atom, acceptor molecule, acceptor atom, score
      P1  H  7989  7998       L1    16  1.00
      L1  C    15    31       P1  7948  1.00
      L1  C    15    31       P1  7957  0.80

> <Gold.PLP.Chemscore.Internal.Correction>
0.0067

> <Gold.Rescore>
     Score         DG    S(hbond)    S(metal)    S(lipo)     H(rot)  DE(clash)    DE(int)     intcor
     15.04     -15.66       1.50        0.00      73.19       1.32       0.00       0.62       ----

> <Gold.Chemscore.Fitness>
15.0412

> <Gold.Chemscore.DG>
-15.6608

> <Gold.Chemscore.ZeroCoef>
-5.4800

> <Gold.Chemscore.Hbond>
1.4988

> <Gold.Chemscore.Metal>
0.0000

> <Gold.Chemscore.Lipo>
73.1888

> <Gold.Chemscore.Internal_Hbond>
0.0000

> <Gold.Chemscore.DEClash>
0.0000

> <Gold.Chemscore.DEInternal>
0.6196

> <Gold.Chemscore.Rot>
1.3235

> <Gold.Chemscore.Internal.Correction>
   9.000000E+99

> <Gold.Chemscore.Hbonds>
donor molecule, donor type, donor heavy atom, donor atom, acceptor molecule, acceptor atom, score
      P1  H  7989  7998       L1    16  0.65

> <Gold.Chemscore.Hbond.Weighted>
-5.0059

> <Gold.Chemscore.Metal.Weighted>
-0.0000

> <Gold.Chemscore.Lipo.Weighted>
-8.5631

> <Gold.Chemscore.Internal_Hbond.Weighted>
0.0000

> <Gold.Chemscore.DEClash.Weighted>
0.0000

> <Gold.Chemscore.DEInternal.Weighted>
0.6196

> <Gold.Chemscore.Rot.Weighted>
3.3882

> <Gold.Chemscore.Internal.Correction.Weighted>
   9.000000E+99

> <Gold.Protein.RotatedTorsions>
[ 6907 6896 6895 6894 ] final -103.90 input  -60.11 | X-H torsion
[ 7974 7965 7964 7962 ] final -105.33 input  175.53 | X-H torsion
[ 8008 7997 7996 7995 ] final   59.92 input   59.86 | X-H torsion
[ 10167 10162 10161 10158 ] final  151.47 input  -65.29 | X-H torsion
[ 10718 10713 10712 10709 ] final  115.06 input   66.30 | X-H torsion
[ 10763 10752 10751 10750 ] final  108.14 input  -60.55 | X-H torsion
[ 11005 11000 10999 10996 ] final   85.11 input  -57.11 | X-H torsion

> <Gold.Protein.ActiveResidues>
 VAL166  LYS551  ARG553  GLY616  TRP617  ASP618  TYR619  PRO620  LYS621  CYS622 
 ASP623  PHE694  ASN695  SER759  ASP760  ASP761  ALA762  ILE779  LEU786  VAL792 
 PHE793  MET794  SER795  GLU796  ALA797  LYS798  CYS799  TRP800  GLU811  SER814 

> <Gold.Protein.RotatedAtoms>
  150.7262  134.0358  159.3748 H   0  0  0  0  0  0  0  0  0  0  0  0  # atno 6907 bound_to 6896
  151.8330  135.0613  160.0448 H   0  0  0  0  0  0  0  0  0  0  0  0  # atno 6908 bound_to 6896
  152.2919  133.5534  159.5599 H   0  0  0  0  0  0  0  0  0  0  0  0  # atno 6909 bound_to 6896
  145.2318  140.9173  143.3200 H   0  0  0  0  0  0  0  0  0  0  0  0  # atno 7974 bound_to 7965
  155.5740  140.3490  155.4522 H   0  0  0  0  0  0  0  0  0  0  0  0  # atno 8008 bound_to 7997
  156.0423  140.1298  157.0167 H   0  0  0  0  0  0  0  0  0  0  0  0  # atno 8009 bound_to 7997
  154.4397  140.1021  156.6240 H   0  0  0  0  0  0  0  0  0  0  0  0  # atno 8010 bound_to 7997
  139.4840  144.5438  151.7519 H   0  0  0  0  0  0  0  0  0  0  0  0  # atno 10167 bound_to 10162
  157.6245  131.1007  150.7275 H   0  0  0  0  0  0  0  0  0  0  0  0  # atno 10718 bound_to 10713
  153.4165  135.3821  155.2084 H   0  0  0  0  0  0  0  0  0  0  0  0  # atno 10763 bound_to 10752
  154.8741  135.3807  154.4436 H   0  0  0  0  0  0  0  0  0  0  0  0  # atno 10764 bound_to 10752
  153.4951  135.7088  153.5925 H   0  0  0  0  0  0  0  0  0  0  0  0  # atno 10765 bound_to 10752
  139.8981  134.8264  156.2538 H   0  0  0  0  0  0  0  0  0  0  0  0  # atno 11005 bound_to 11000
  144.9670  139.3920  143.6328 LP  0  0  0  0  0  0  0  0  0  0  0  0  # atno 17320 bound_to 7965
  146.3351  139.8750  142.8834 LP  0  0  0  0  0  0  0  0  0  0  0  0  # atno 17321 bound_to 7965
  140.4981  144.1210  150.5965 LP  0  0  0  0  0  0  0  0  0  0  0  0  # atno 17342 bound_to 10162
  140.4094  143.2664  151.9852 LP  0  0  0  0  0  0  0  0  0  0  0  0  # atno 17343 bound_to 10162
  156.7626  130.4803  149.5434 LP  0  0  0  0  0  0  0  0  0  0  0  0  # atno 17370 bound_to 10713
  156.1408  130.6243  151.0465 LP  0  0  0  0  0  0  0  0  0  0  0  0  # atno 17371 bound_to 10713
  141.0207  133.7043  156.1263 LP  0  0  0  0  0  0  0  0  0  0  0  0  # atno 17394 bound_to 11000
  140.7238  134.4329  157.5572 LP  0  0  0  0  0  0  0  0  0  0  0  0  # atno 17395 bound_to 11000

$$$$
