AV-unprocessed.smi:3029|AV-procd|sdf|11532|dock8
  -GOLD-   2272016483D 1   1.00000     0.00000
 Structure written by MMmdl.
 41 42  0  0  0  0  0  0  0  0  3 V2000
  150.5146  139.3546  154.0633 O   0  0  0  0  0  0  0  0  0  0  0  0
  149.4436  139.9330  154.2480 C   0  0  0  0  0  0  0  0  0  0  0  0
  148.1657  139.3494  153.8269 C   0  0  0  0  0  0  0  0  0  0  0  0
  146.9958  139.9883  154.0232 C   0  0  0  0  0  0  0  0  0  0  0  0
  146.9668  141.2882  154.6648 C   0  0  0  0  0  0  0  0  0  0  0  0
  145.7178  141.9868  154.8745 N   0  3  0  0  0  0  0  0  0  0  0  0
  145.6575  143.1869  154.6237 O   0  0  0  0  0  0  0  0  0  0  0  0
  144.7546  141.3560  155.2978 O   0  5  0  0  0  0  0  0  0  0  0  0
  148.1418  141.8209  155.0531 C   0  0  0  0  0  0  0  0  0  0  0  0
  149.3680  141.1585  154.8512 N   0  0  0  0  0  0  0  0  0  0  0  0
  150.5778  141.8629  155.3038 C   0  0  0  0  0  0  0  0  0  0  0  0
  150.9877  141.4476  156.7286 C   0  0  0  0  0  0  0  0  0  0  0  0
  151.4878  142.5980  157.4674 N   0  0  0  0  0  0  0  0  0  0  0  0
  151.7476  142.2981  158.8702 C   0  0  1  0  0  0  0  0  0  0  0  0
  152.6831  141.0681  158.9311 C   0  0  0  0  0  0  0  0  0  0  0  0
  153.1253  140.7498  160.3639 C   0  0  0  0  0  0  0  0  0  0  0  0
  153.8006  141.9673  161.0019 C   0  0  0  0  0  0  0  0  0  0  0  0
  152.8597  143.1788  160.9845 C   0  0  0  0  0  0  0  0  0  0  0  0
  152.3816  143.5424  159.5583 C   0  0  2  0  0  0  0  0  0  0  0  0
  151.4270  144.7643  159.6181 C   0  0  0  0  0  0  0  0  0  0  0  0
  152.0419  145.8137  160.1647 F   0  0  0  0  0  0  0  0  0  0  0  0
  151.0366  145.0944  158.3867 F   0  0  0  0  0  0  0  0  0  0  0  0
  150.3279  144.4988  160.3238 F   0  0  0  0  0  0  0  0  0  0  0  0
  148.1648  138.3824  153.3456 H   0  0  0  0  0  0  0  0  0  0  0  0
  146.0804  139.5181  153.6948 H   0  0  0  0  0  0  0  0  0  0  0  0
  148.2309  142.7843  155.5345 H   0  0  0  0  0  0  0  0  0  0  0  0
  151.3930  141.6243  154.6192 H   0  0  0  0  0  0  0  0  0  0  0  0
  150.4737  142.9475  155.2408 H   0  0  0  0  0  0  0  0  0  0  0  0
  150.1386  141.0051  157.2514 H   0  0  0  0  0  0  0  0  0  0  0  0
  151.7642  140.6852  156.6735 H   0  0  0  0  0  0  0  0  0  0  0  0
  152.3107  142.9826  157.0253 H   0  0  0  0  0  0  0  0  0  0  0  0
  150.8101  142.0685  159.3788 H   0  0  0  0  0  0  0  0  0  0  0  0
  152.1914  140.1903  158.5118 H   0  0  0  0  0  0  0  0  0  0  0  0
  153.5686  141.2454  158.3185 H   0  0  0  0  0  0  0  0  0  0  0  0
  152.2614  140.4511  160.9590 H   0  0  0  0  0  0  0  0  0  0  0  0
  153.8104  139.9015  160.3625 H   0  0  0  0  0  0  0  0  0  0  0  0
  154.0905  141.7364  162.0274 H   0  0  0  0  0  0  0  0  0  0  0  0
  154.7197  142.2055  160.4651 H   0  0  0  0  0  0  0  0  0  0  0  0
  151.9974  142.9703  161.6189 H   0  0  0  0  0  0  0  0  0  0  0  0
  153.3719  144.0283  161.4365 H   0  0  0  0  0  0  0  0  0  0  0  0
  153.2635  143.8358  158.9858 H   0  0  0  0  0  0  0  0  0  0  0  0
  1  2  2  0  0  0  0
  2 10  1  0  0  0  0
  2  3  1  0  0  0  0
  3  4  2  0  0  0  0
  3 24  1  0  0  0  0
  4  5  1  0  0  0  0
  4 25  1  0  0  0  0
  5  6  1  0  0  0  0
  5  9  2  0  0  0  0
  6  7  2  0  0  0  0
  6  8  1  0  0  0  0
  9 10  1  0  0  0  0
  9 26  1  0  0  0  0
 10 11  1  0  0  0  0
 11 12  1  0  0  0  0
 11 27  1  0  0  0  0
 11 28  1  0  0  0  0
 12 13  1  0  0  0  0
 12 29  1  0  0  0  0
 12 30  1  0  0  0  0
 13 14  1  0  0  0  0
 13 31  1  0  0  0  0
 14 19  1  0  0  0  0
 14 15  1  0  0  0  0
 14 32  1  0  0  0  0
 15 16  1  0  0  0  0
 15 33  1  0  0  0  0
 15 34  1  0  0  0  0
 16 17  1  0  0  0  0
 16 35  1  0  0  0  0
 16 36  1  0  0  0  0
 17 18  1  0  0  0  0
 17 37  1  0  0  0  0
 17 38  1  0  0  0  0
 18 19  1  0  0  0  0
 18 39  1  0  0  0  0
 18 40  1  0  0  0  0
 19 20  1  0  0  0  0
 19 41  1  0  0  0  0
 20 21  1  0  0  0  0
 20 22  1  0  0  0  0
 20 23  1  0  0  0  0
M  CHG  1   6   1
M  CHG  1   8  -1
M  END
> <s_m_source_file>
AV-unprocessed.smi

> <i_m_source_file_index>
3029

> <i_lp_mmshare_version>
43012

> <i_f3d_flags>
0

> <s_epik_input>
Tz1jMVtjSF1bY0hdYyhbTitdKD1PKVtPLV0pW2NIXW4xW0NIMl1bQ0gyXVtOSF1bQ0BASF0yW0NIMl1bQ0gyXVtDSDJdW0NIMl1bQ0BIXTJDKEYpKEYpRg==

> <s_epik_cmdline>
J2VwaWtfcHl0aG9uJywgJy1waCcsICc3LjAnLCAnLXRuJywgJzgnLCAnLW1hJywgJzIwMCcsICctbWV0YWxfYmluZGluZycsICctaW1hZScsICc8aW5maWxlLm1hZT4nLCAnLW9tYWUnLCAnPG91dGZpbGUubWFlPic=

> <r_lp_tautomer_probability>
1

> <r_epik_Ionization_Penalty>
1.65565

> <r_epik_Ionization_Penalty_Charging>
3.32684e-10

> <r_epik_Ionization_Penalty_Neutral>
1.65565

> <r_epik_State_Penalty>
1.75811

> <r_epik_Charging_Adjusted_Penalty>
1.75811

> <i_epik_Tot_Q>
0

> <i_epik_Tot_abs_Q>
2

> <r_epik_Metal_State_Penalty>
1.75811

> <b_epik_Metal_Only>
0

> <s_lp_Force_Field>
OPLS_2005

> <r_lp_Energy>
36.7279

> <b_lp_Chiralities_Consistent>
1

> <s_lp_Variant>
AV-unprocessed.smi:3029-8

> <Gold.Version>
5.8.1

> <Gold.Id.Protein>
6NUR|6NUR_protein|mol2

> <Gold.PLP.Fitness>
48.3648

> <Gold.PLP.PLP>
-45.0640

> <Gold.PLP.part.hbond>
-1.0000

> <Gold.PLP.part.metal>
0.0000

> <Gold.PLP.part.buried>
-2.0147

> <Gold.PLP.part.nonpolar>
-41.9609

> <Gold.PLP.part.repulsive>
0.6788

> <Gold.PLP.ligand.clash>
0.0000

> <Gold.PLP.ligand.torsion>
1.3817

> <Gold.PLP.Chemscore.Hbond>
1.0000

> <Gold.PLP.Chemscore.CHOScore>
1.0000

> <Gold.PLP.Chemscore.Metal>
0.0000

> <Gold.Chemscore.Hbonds>
donor molecule, donor type, donor heavy atom, donor atom, acceptor molecule, acceptor atom, score
      P1  H  7989  7998       L1     1  1.00
      L1  C     9    26       P1  8028  1.00

> <Gold.PLP.Chemscore.Internal.Correction>
0.0643

> <Gold.Rescore>
     Score         DG    S(hbond)    S(metal)    S(lipo)     H(rot)  DE(clash)    DE(int)     intcor
      9.24     -14.55       0.34        0.00     108.49       1.86       2.42       2.89       ----

> <Gold.Chemscore.Fitness>
9.2422

> <Gold.Chemscore.DG>
-14.5513

> <Gold.Chemscore.ZeroCoef>
-5.4800

> <Gold.Chemscore.Hbond>
0.3401

> <Gold.Chemscore.Metal>
0.0000

> <Gold.Chemscore.Lipo>
108.4856

> <Gold.Chemscore.Internal_Hbond>
0.0000

> <Gold.Chemscore.DEClash>
2.4175

> <Gold.Chemscore.DEInternal>
2.8917

> <Gold.Chemscore.Rot>
1.8584

> <Gold.Chemscore.Internal.Correction>
   9.000000E+99

> <Gold.Chemscore.Hbonds>
donor molecule, donor type, donor heavy atom, donor atom, acceptor molecule, acceptor atom, score
      P1  H  7989  7998       L1     1  0.25

> <Gold.Chemscore.Hbond.Weighted>
-1.1361

> <Gold.Chemscore.Metal.Weighted>
-0.0000

> <Gold.Chemscore.Lipo.Weighted>
-12.6928

> <Gold.Chemscore.Internal_Hbond.Weighted>
0.0000

> <Gold.Chemscore.DEClash.Weighted>
2.4175

> <Gold.Chemscore.DEInternal.Weighted>
2.8917

> <Gold.Chemscore.Rot.Weighted>
4.7576

> <Gold.Chemscore.Internal.Correction.Weighted>
   9.000000E+99

> <Gold.Protein.RotatedTorsions>
[ 6907 6896 6895 6894 ] final -115.87 input  -60.11 | X-H torsion
[ 7974 7965 7964 7962 ] final   18.04 input  175.53 | X-H torsion
[ 8008 7997 7996 7995 ] final -115.77 input   59.86 | X-H torsion
[ 10167 10162 10161 10158 ] final -158.38 input  -65.29 | X-H torsion
[ 10718 10713 10712 10709 ] final  143.32 input   66.30 | X-H torsion
[ 10763 10752 10751 10750 ] final  -21.32 input  -60.55 | X-H torsion
[ 11005 11000 10999 10996 ] final  -29.89 input  -57.11 | X-H torsion

> <Gold.Protein.ActiveResidues>
 VAL166  LYS551  ARG553  GLY616  TRP617  ASP618  TYR619  PRO620  LYS621  CYS622 
 ASP623  PHE694  ASN695  SER759  ASP760  ASP761  ALA762  ILE779  LEU786  VAL792 
 PHE793  MET794  SER795  GLU796  ALA797  LYS798  CYS799  TRP800  GLU811  SER814 

> <Gold.Protein.RotatedAtoms>
  150.8011  133.8597  159.3228 H   0  0  0  0  0  0  0  0  0  0  0  0  # atno 6907 bound_to 6896
  151.6409  135.1011  160.0150 H   0  0  0  0  0  0  0  0  0  0  0  0  # atno 6908 bound_to 6896
  152.4099  133.6907  159.6423 H   0  0  0  0  0  0  0  0  0  0  0  0  # atno 6909 bound_to 6896
  146.2198  139.8515  142.8622 H   0  0  0  0  0  0  0  0  0  0  0  0  # atno 7974 bound_to 7965
  155.0573  140.0393  157.2565 H   0  0  0  0  0  0  0  0  0  0  0  0  # atno 8008 bound_to 7997
  154.7088  140.2688  155.6625 H   0  0  0  0  0  0  0  0  0  0  0  0  # atno 8009 bound_to 7997
  156.2783  140.2726  156.1723 H   0  0  0  0  0  0  0  0  0  0  0  0  # atno 8010 bound_to 7997
  139.6696  143.9768  152.2276 H   0  0  0  0  0  0  0  0  0  0  0  0  # atno 10167 bound_to 10162
  157.3703  131.0978  151.0834 H   0  0  0  0  0  0  0  0  0  0  0  0  # atno 10718 bound_to 10713
  153.6343  135.6988  153.5264 H   0  0  0  0  0  0  0  0  0  0  0  0  # atno 10763 bound_to 10752
  153.2834  135.4179  155.1099 H   0  0  0  0  0  0  0  0  0  0  0  0  # atno 10764 bound_to 10752
  154.8515  135.3607  154.5886 H   0  0  0  0  0  0  0  0  0  0  0  0  # atno 10765 bound_to 10752
  140.9335  133.7323  156.0971 H   0  0  0  0  0  0  0  0  0  0  0  0  # atno 11005 bound_to 11000
  145.2797  141.0135  143.3724 LP  0  0  0  0  0  0  0  0  0  0  0  0  # atno 17320 bound_to 7965
  144.9160  139.4470  143.6564 LP  0  0  0  0  0  0  0  0  0  0  0  0  # atno 17321 bound_to 7965
  139.9529  144.6609  150.8154 LP  0  0  0  0  0  0  0  0  0  0  0  0  # atno 17342 bound_to 10162
  140.7613  143.3171  151.2708 LP  0  0  0  0  0  0  0  0  0  0  0  0  # atno 17343 bound_to 10162
  157.1941  130.6365  149.5715 LP  0  0  0  0  0  0  0  0  0  0  0  0  # atno 17370 bound_to 10713
  155.9754  130.4712  150.6458 LP  0  0  0  0  0  0  0  0  0  0  0  0  # atno 17371 bound_to 10713
  140.7830  134.3703  157.5483 LP  0  0  0  0  0  0  0  0  0  0  0  0  # atno 17394 bound_to 11000
  139.8802  134.9094  156.2989 LP  0  0  0  0  0  0  0  0  0  0  0  0  # atno 17395 bound_to 11000

$$$$
