AV-unprocessed.smi:1046|AV-procd|sdf|4552|dock5
  -GOLD-   22720 2583D 1   1.00000     0.00000
 Structure written by MMmdl.
 54 56  0  0  0  0  0  0  0  0  3 V2000
  152.5168  142.7714  160.4298 C   0  0  0  0  0  0  0  0  0  0  0  0
  152.1028  142.0244  159.1734 C   0  0  0  0  0  0  0  0  0  0  0  0
  151.0872  142.5793  158.3626 C   0  0  0  0  0  0  0  0  0  0  0  0
  150.7326  141.8740  157.2188 C   0  0  0  0  0  0  0  0  0  0  0  0
  149.7838  142.1515  156.2328 N   0  3  0  0  0  0  0  0  0  0  0  0
  149.7977  141.1623  155.2974 C   0  0  0  0  0  0  0  0  0  0  0  0
  150.7402  140.2546  155.6719 N   0  0  0  0  0  0  0  0  0  0  0  0
  151.1549  139.0087  155.0099 C   0  0  0  0  0  0  0  0  0  0  0  0
  150.0356  137.9495  154.9697 C   0  0  2  0  0  0  0  0  0  0  0  0
  150.4594  136.8380  154.2036 O   0  0  0  0  0  0  0  0  0  0  0  0
  148.7394  138.5135  154.3533 C   0  0  0  0  0  0  0  0  0  0  0  0
  147.7736  137.4520  153.9695 N   0  3  0  0  0  0  0  0  0  0  0  0
  146.4800  138.0095  153.4963 C   0  0  0  0  0  0  0  0  0  0  0  0
  145.5352  136.8759  153.0465 C   0  0  0  0  0  0  0  0  0  0  0  0
  145.2860  135.8829  154.0910 N   0  0  0  0  0  0  0  0  0  0  0  0
  144.4302  136.3939  155.1669 C   0  0  0  0  0  0  0  0  0  0  0  0
  143.9683  135.3381  156.1841 C   0  0  0  0  0  0  0  0  0  0  0  0
  142.9755  134.5265  155.5962 O   0  0  0  0  0  0  0  0  0  0  0  0
  146.5740  135.3485  154.5395 C   0  0  0  0  0  0  0  0  0  0  0  0
  147.5491  136.4364  155.0336 C   0  0  0  0  0  0  0  0  0  0  0  0
  151.3496  140.6573  156.8674 C   0  0  0  0  0  0  0  0  0  0  0  0
  152.3501  140.0956  157.6580 C   0  0  0  0  0  0  0  0  0  0  0  0
  152.7241  140.7969  158.8266 C   0  0  0  0  0  0  0  0  0  0  0  0
  153.8126  140.2068  159.7075 C   0  0  0  0  0  0  0  0  0  0  0  0
  151.9917  143.7229  160.5193 H   0  0  0  0  0  0  0  0  0  0  0  0
  153.5864  142.9825  160.4169 H   0  0  0  0  0  0  0  0  0  0  0  0
  152.2902  142.1801  161.3174 H   0  0  0  0  0  0  0  0  0  0  0  0
  150.6077  143.5121  158.6216 H   0  0  0  0  0  0  0  0  0  0  0  0
  149.1736  141.1093  154.4170 H   0  0  0  0  0  0  0  0  0  0  0  0
  151.4476  139.2735  153.9930 H   0  0  0  0  0  0  0  0  0  0  0  0
  152.0530  138.6224  155.4922 H   0  0  0  0  0  0  0  0  0  0  0  0
  149.8546  137.6070  155.9881 H   0  0  0  0  0  0  0  0  0  0  0  0
  149.7529  136.5735  153.6338 H   0  0  0  0  0  0  0  0  0  0  0  0
  148.2538  139.2025  155.0464 H   0  0  0  0  0  0  0  0  0  0  0  0
  149.0032  139.1052  153.4751 H   0  0  0  0  0  0  0  0  0  0  0  0
  146.0225  138.6095  154.2843 H   0  0  0  0  0  0  0  0  0  0  0  0
  146.6581  138.6802  152.6548 H   0  0  0  0  0  0  0  0  0  0  0  0
  144.5898  137.2962  152.7012 H   0  0  0  0  0  0  0  0  0  0  0  0
  145.9706  136.3769  152.1796 H   0  0  0  0  0  0  0  0  0  0  0  0
  144.9227  137.2102  155.6947 H   0  0  0  0  0  0  0  0  0  0  0  0
  143.5360  136.8300  154.7189 H   0  0  0  0  0  0  0  0  0  0  0  0
  144.8039  134.7097  156.4940 H   0  0  0  0  0  0  0  0  0  0  0  0
  143.5491  135.7970  157.0792 H   0  0  0  0  0  0  0  0  0  0  0  0
  142.3398  134.3003  156.2583 H   0  0  0  0  0  0  0  0  0  0  0  0
  146.4277  134.5988  155.3160 H   0  0  0  0  0  0  0  0  0  0  0  0
  147.0402  134.8151  153.7100 H   0  0  0  0  0  0  0  0  0  0  0  0
  148.4910  135.9626  155.3066 H   0  0  0  0  0  0  0  0  0  0  0  0
  147.1698  136.9164  155.9364 H   0  0  0  0  0  0  0  0  0  0  0  0
  152.8257  139.1621  157.3987 H   0  0  0  0  0  0  0  0  0  0  0  0
  154.1346  139.2303  159.3442 H   0  0  0  0  0  0  0  0  0  0  0  0
  153.4544  140.0778  160.7292 H   0  0  0  0  0  0  0  0  0  0  0  0
  154.6847  140.8608  159.7255 H   0  0  0  0  0  0  0  0  0  0  0  0
  148.1762  136.9678  153.1794 H   0  0  0  0  0  0  0  0  0  0  0  0
  149.1721  142.9570  156.1977 H   0  0  0  0  0  0  0  0  0  0  0  0
  1  2  1  0  0  0  0
  1 25  1  0  0  0  0
  1 26  1  0  0  0  0
  1 27  1  0  0  0  0
  2 23  1  0  0  0  0
  2  3  2  0  0  0  0
  3  4  1  0  0  0  0
  3 28  1  0  0  0  0
  4 21  2  0  0  0  0
  4  5  1  0  0  0  0
  5  6  2  0  0  0  0
  5 54  1  0  0  0  0
  6  7  1  0  0  0  0
  6 29  1  0  0  0  0
  7  8  1  0  0  0  0
  7 21  1  0  0  0  0
  8  9  1  0  0  0  0
  8 30  1  0  0  0  0
  8 31  1  0  0  0  0
  9 10  1  0  0  0  0
  9 11  1  0  0  0  0
  9 32  1  0  0  0  0
 10 33  1  0  0  0  0
 11 12  1  0  0  0  0
 11 34  1  0  0  0  0
 11 35  1  0  0  0  0
 12 20  1  0  0  0  0
 12 13  1  0  0  0  0
 12 53  1  0  0  0  0
 13 14  1  0  0  0  0
 13 36  1  0  0  0  0
 13 37  1  0  0  0  0
 14 15  1  0  0  0  0
 14 38  1  0  0  0  0
 14 39  1  0  0  0  0
 15 16  1  0  0  0  0
 15 19  1  0  0  0  0
 16 17  1  0  0  0  0
 16 40  1  0  0  0  0
 16 41  1  0  0  0  0
 17 18  1  0  0  0  0
 17 42  1  0  0  0  0
 17 43  1  0  0  0  0
 18 44  1  0  0  0  0
 19 20  1  0  0  0  0
 19 45  1  0  0  0  0
 19 46  1  0  0  0  0
 20 47  1  0  0  0  0
 20 48  1  0  0  0  0
 21 22  1  0  0  0  0
 22 23  2  0  0  0  0
 22 49  1  0  0  0  0
 23 24  1  0  0  0  0
 24 50  1  0  0  0  0
 24 51  1  0  0  0  0
 24 52  1  0  0  0  0
M  CHG  1   5   1
M  CHG  1  12   1
M  END
> <s_m_source_file>
AV-unprocessed.smi

> <i_m_source_file_index>
1046

> <i_lp_mmshare_version>
43012

> <i_f3d_flags>
0

> <s_epik_input>
W0NIM11jKFtjSF0xKWMoW0NIM10pW2NIXWMoYzEyKW4oW2NIXW4yKVtDSDJdW0NASF0oW09IXSlbQ0gyXU4zW0NIMl1bQ0gyXU4oW0NIMl1bQ0gyXTMpW0NIMl1bQ0gyXVtPSF0=

> <s_epik_cmdline>
J2VwaWtfcHl0aG9uJywgJy1waCcsICc3LjAnLCAnLXRuJywgJzgnLCAnLW1hJywgJzIwMCcsICctbWV0YWxfYmluZGluZycsICctaW1hZScsICc8aW5maWxlLm1hZT4nLCAnLW9tYWUnLCAnPG91dGZpbGUubWFlPic=

> <r_epik_Ionization_Penalty>
1.22056

> <r_epik_Ionization_Penalty_Charging>
1.17959

> <r_epik_Ionization_Penalty_Neutral>
0.0409743

> <r_epik_State_Penalty>
1.27074

> <r_epik_Charging_Adjusted_Penalty>
2.45032

> <i_epik_Tot_Q>
2

> <i_epik_Tot_abs_Q>
2

> <r_epik_Metal_State_Penalty>
5.26922

> <b_epik_Metal_Only>
0

> <s_lp_Force_Field>
OPLS_2005

> <r_lp_Energy>
41.2385

> <b_lp_Chiralities_Consistent>
1

> <s_lp_Variant>
AV-unprocessed.smi:1046-5

> <Gold.Version>
5.8.1

> <Gold.Id.Protein>
6NUR|6NUR_protein|mol2

> <Gold.PLP.Fitness>
57.1950

> <Gold.PLP.PLP>
-39.7289

> <Gold.PLP.part.hbond>
-5.8110

> <Gold.PLP.part.metal>
0.0000

> <Gold.PLP.part.buried>
-4.2777

> <Gold.PLP.part.nonpolar>
-30.8841

> <Gold.PLP.part.repulsive>
0.1801

> <Gold.PLP.ligand.clash>
0.0000

> <Gold.PLP.ligand.torsion>
0.2805

> <Gold.PLP.Chemscore.Hbond>
5.9750

> <Gold.PLP.Chemscore.CHOScore>
0.0000

> <Gold.PLP.Chemscore.Metal>
0.0000

> <Gold.Chemscore.Hbonds>
donor molecule, donor type, donor heavy atom, donor atom, acceptor molecule, acceptor atom, score
      L1  H     5    54       P1  8028  1.95
      L1  H    10    33       P1  7948  1.00
      L1  H    12    53       P1  7948  2.00
      L1  H    18    44       P1 11000  0.91

> <Gold.PLP.Chemscore.Internal.Correction>
0.1020

> <Gold.Rescore>
     Score         DG    S(hbond)    S(metal)    S(lipo)     H(rot)  DE(clash)    DE(int)     intcor
     17.18     -18.40       3.15        0.00      92.39       3.29       0.05       1.17       ----

> <Gold.Chemscore.Fitness>
17.1791

> <Gold.Chemscore.DG>
-18.3983

> <Gold.Chemscore.ZeroCoef>
-5.4800

> <Gold.Chemscore.Hbond>
3.1526

> <Gold.Chemscore.Metal>
0.0000

> <Gold.Chemscore.Lipo>
92.3930

> <Gold.Chemscore.Internal_Hbond>
0.0000

> <Gold.Chemscore.DEClash>
0.0476

> <Gold.Chemscore.DEInternal>
1.1716

> <Gold.Chemscore.Rot>
3.2896

> <Gold.Chemscore.Internal.Correction>
   9.000000E+99

> <Gold.Chemscore.Hbonds>
donor molecule, donor type, donor heavy atom, donor atom, acceptor molecule, acceptor atom, score
      L1  H     5    54       P1  8028  0.93
      L1  H    10    33       P1  7948  0.43
      L1  H    12    53       P1  7948  1.00
      L1  H    18    44       P1 11000  0.29

> <Gold.Chemscore.Hbond.Weighted>
-10.5298

> <Gold.Chemscore.Metal.Weighted>
-0.0000

> <Gold.Chemscore.Lipo.Weighted>
-10.8100

> <Gold.Chemscore.Internal_Hbond.Weighted>
0.0000

> <Gold.Chemscore.DEClash.Weighted>
0.0476

> <Gold.Chemscore.DEInternal.Weighted>
1.1716

> <Gold.Chemscore.Rot.Weighted>
8.4215

> <Gold.Chemscore.Internal.Correction.Weighted>
   9.000000E+99

> <Gold.Protein.RotatedTorsions>
[ 6907 6896 6895 6894 ] final -101.89 input  -60.11 | X-H torsion
[ 7974 7965 7964 7962 ] final -102.76 input  175.53 | X-H torsion
[ 8008 7997 7996 7995 ] final   87.93 input   59.86 | X-H torsion
[ 10167 10162 10161 10158 ] final -146.86 input  -65.29 | X-H torsion
[ 10718 10713 10712 10709 ] final   17.72 input   66.30 | X-H torsion
[ 10763 10752 10751 10750 ] final  -75.06 input  -60.55 | X-H torsion
[ 11005 11000 10999 10996 ] final  155.47 input  -57.11 | X-H torsion

> <Gold.Protein.ActiveResidues>
 VAL166  LYS551  ARG553  GLY616  TRP617  ASP618  TYR619  PRO620  LYS621  CYS622 
 ASP623  PHE694  ASN695  SER759  ASP760  ASP761  ALA762  ILE779  LEU786  VAL792 
 PHE793  MET794  SER795  GLU796  ALA797  LYS798  CYS799  TRP800  GLU811  SER814 

> <Gold.Protein.RotatedAtoms>
  150.7173  134.0666  159.3849 H   0  0  0  0  0  0  0  0  0  0  0  0  # atno 6907 bound_to 6896
  151.8647  135.0509  160.0482 H   0  0  0  0  0  0  0  0  0  0  0  0  # atno 6908 bound_to 6896
  152.2690  133.5329  159.5464 H   0  0  0  0  0  0  0  0  0  0  0  0  # atno 6909 bound_to 6896
  145.2646  140.9280  143.3021 H   0  0  0  0  0  0  0  0  0  0  0  0  # atno 7974 bound_to 7965
  155.9815  140.3377  155.6668 H   0  0  0  0  0  0  0  0  0  0  0  0  # atno 8008 bound_to 7997
  155.6542  140.0709  157.2594 H   0  0  0  0  0  0  0  0  0  0  0  0  # atno 8009 bound_to 7997
  154.4193  140.1720  156.1694 H   0  0  0  0  0  0  0  0  0  0  0  0  # atno 8010 bound_to 7997
  139.7674  143.8287  152.2618 H   0  0  0  0  0  0  0  0  0  0  0  0  # atno 10167 bound_to 10162
  157.0862  130.6408  149.5838 H   0  0  0  0  0  0  0  0  0  0  0  0  # atno 10718 bound_to 10713
  154.4815  135.5844  153.6393 H   0  0  0  0  0  0  0  0  0  0  0  0  # atno 10763 bound_to 10752
  152.9848  135.6091  154.3240 H   0  0  0  0  0  0  0  0  0  0  0  0  # atno 10764 bound_to 10752
  154.3132  135.2844  155.2535 H   0  0  0  0  0  0  0  0  0  0  0  0  # atno 10765 bound_to 10752
  140.1584  134.8626  157.2543 H   0  0  0  0  0  0  0  0  0  0  0  0  # atno 11005 bound_to 11000
  144.9388  139.4212  143.6459 LP  0  0  0  0  0  0  0  0  0  0  0  0  # atno 17320 bound_to 7965
  146.3265  139.8338  142.8903 LP  0  0  0  0  0  0  0  0  0  0  0  0  # atno 17321 bound_to 7965
  139.8312  144.7253  150.9448 LP  0  0  0  0  0  0  0  0  0  0  0  0  # atno 17342 bound_to 10162
  140.7812  143.4068  151.1057 LP  0  0  0  0  0  0  0  0  0  0  0  0  # atno 17343 bound_to 10162
  155.9910  130.4963  150.7281 LP  0  0  0  0  0  0  0  0  0  0  0  0  # atno 17370 bound_to 10713
  157.4759  131.0898  151.0590 LP  0  0  0  0  0  0  0  0  0  0  0  0  # atno 17371 bound_to 10713
  140.2519  134.3672  155.7439 LP  0  0  0  0  0  0  0  0  0  0  0  0  # atno 17394 bound_to 11000
  141.2207  133.7321  156.8949 LP  0  0  0  0  0  0  0  0  0  0  0  0  # atno 17395 bound_to 11000

$$$$
