AV-unprocessed.smi:703|AV-procd|sdf|3440|dock1
  -GOLD-   22720 0423D 1   1.00000     0.00000
 Structure written by MMmdl.
 37 38  0  0  0  0  0  0  0  0  3 V2000
  146.1575  138.3711  152.3759 C   0  0  0  0  0  0  0  0  0  0  0  0
  146.4663  139.7913  152.8682 C   0  0  0  0  0  0  0  0  0  0  0  0
  147.8552  139.9192  153.3684 N   0  3  1  0  0  0  0  0  0  0  0  0
  148.1856  141.2485  153.9367 C   0  0  0  0  0  0  0  0  0  0  0  0
  148.9155  140.9856  155.2648 C   0  0  2  0  0  0  0  0  0  0  0  0
  149.9391  142.0681  155.6670 C   0  0  0  0  0  0  0  0  0  0  0  0
  149.4155  139.5327  155.1515 C   0  0  2  0  0  0  0  0  0  0  0  0
  150.6623  139.4611  154.3932 N   0  5  0  0  0  0  0  0  0  0  0  0
  151.8810  138.5351  154.9308 S   0  0  0  0  0  0  0  0  0  0  0  0
  151.7639  137.1351  154.4912 O   0  0  0  0  0  0  0  0  0  0  0  0
  153.1940  139.1787  154.7631 O   0  0  0  0  0  0  0  0  0  0  0  0
  151.5383  138.5326  156.7422 C   0  0  0  0  0  0  0  0  0  0  0  0
  152.7128  139.1030  157.4865 C   0  0  0  0  0  0  0  0  0  0  0  0
  152.7471  140.2246  158.3609 C   0  0  0  0  0  0  0  0  0  0  0  0
  154.0538  140.2863  158.7502 C   0  0  0  0  0  0  0  0  0  0  0  0
  154.7720  139.2968  158.1620 O   0  0  0  0  0  0  0  0  0  0  0  0
  153.9080  138.5486  157.3542 N   0  0  0  0  0  0  0  0  0  0  0  0
  148.2687  138.8960  154.3562 C   0  0  0  0  0  0  0  0  0  0  0  0
  145.1531  138.3189  151.9555 H   0  0  0  0  0  0  0  0  0  0  0  0
  146.2105  137.6438  153.1864 H   0  0  0  0  0  0  0  0  0  0  0  0
  146.8583  138.0617  151.5997 H   0  0  0  0  0  0  0  0  0  0  0  0
  146.3299  140.4857  152.0381 H   0  0  0  0  0  0  0  0  0  0  0  0
  145.7612  140.0878  153.6463 H   0  0  0  0  0  0  0  0  0  0  0  0
  148.8205  141.7799  153.2251 H   0  0  0  0  0  0  0  0  0  0  0  0
  147.2974  141.8608  154.1015 H   0  0  0  0  0  0  0  0  0  0  0  0
  148.1511  140.9799  156.0439 H   0  0  0  0  0  0  0  0  0  0  0  0
  150.7234  142.1966  154.9193 H   0  0  0  0  0  0  0  0  0  0  0  0
  150.4188  141.8389  156.6201 H   0  0  0  0  0  0  0  0  0  0  0  0
  149.4453  143.0336  155.7804 H   0  0  0  0  0  0  0  0  0  0  0  0
  149.5080  139.0811  156.1393 H   0  0  0  0  0  0  0  0  0  0  0  0
  150.6346  139.1156  156.9207 H   0  0  0  0  0  0  0  0  0  0  0  0
  151.3393  137.5073  157.0525 H   0  0  0  0  0  0  0  0  0  0  0  0
  151.9380  140.8740  158.6606 H   0  0  0  0  0  0  0  0  0  0  0  0
  154.6020  140.9447  159.4074 H   0  0  0  0  0  0  0  0  0  0  0  0
  147.4379  138.6900  155.0332 H   0  0  0  0  0  0  0  0  0  0  0  0
  148.5326  137.9543  153.8761 H   0  0  0  0  0  0  0  0  0  0  0  0
  148.4730  139.8039  152.5776 H   0  0  0  0  0  0  0  0  0  0  0  0
  1  2  1  0  0  0  0
  1 19  1  0  0  0  0
  1 20  1  0  0  0  0
  1 21  1  0  0  0  0
  2  3  1  0  0  0  0
  2 22  1  0  0  0  0
  2 23  1  0  0  0  0
  3 18  1  0  0  0  0
  3  4  1  0  0  0  0
  3 37  1  0  0  0  0
  4  5  1  0  0  0  0
  4 24  1  0  0  0  0
  4 25  1  0  0  0  0
  5  6  1  0  0  0  0
  5  7  1  0  0  0  0
  5 26  1  0  0  0  0
  6 27  1  0  0  0  0
  6 28  1  0  0  0  0
  6 29  1  0  0  0  0
  7  8  1  0  0  0  0
  7 18  1  0  0  0  0
  7 30  1  0  0  0  0
  8  9  1  0  0  0  0
  9 10  2  0  0  0  0
  9 11  2  0  0  0  0
  9 12  1  0  0  0  0
 12 13  1  0  0  0  0
 12 31  1  0  0  0  0
 12 32  1  0  0  0  0
 13 17  2  0  0  0  0
 13 14  1  0  0  0  0
 14 15  2  0  0  0  0
 14 33  1  0  0  0  0
 15 16  1  0  0  0  0
 15 34  1  0  0  0  0
 16 17  1  0  0  0  0
 18 35  1  0  0  0  0
 18 36  1  0  0  0  0
M  CHG  1   3   1
M  CHG  1   8  -1
M  END
> <s_m_source_file>
AV-unprocessed.smi

> <i_m_source_file_index>
703

> <i_lp_mmshare_version>
43012

> <i_f3d_flags>
0

> <s_epik_input>
W0NIM11bQ0gyXU4xW0NIMl1bQ0BASF0oW0NIM10pW0NASF0oW0NIMl0xKVtOSF1TKD1PKSg9TylbQ0gyXWMyW2NIXVtjSF1vbjI=

> <s_epik_cmdline>
J2VwaWtfcHl0aG9uJywgJy1waCcsICc3LjAnLCAnLXRuJywgJzgnLCAnLW1hJywgJzIwMCcsICctbWV0YWxfYmluZGluZycsICctaW1hZScsICc8aW5maWxlLm1hZT4nLCAnLW9tYWUnLCAnPG91dGZpbGUubWFlPic=

> <r_epik_Ionization_Penalty>
3.62494

> <r_epik_Ionization_Penalty_Charging>
3.62494

> <r_epik_Ionization_Penalty_Neutral>
2.0321e-10

> <r_epik_State_Penalty>
3.62558

> <r_epik_Charging_Adjusted_Penalty>
7.25052

> <i_epik_Tot_Q>
0

> <i_epik_Tot_abs_Q>
2

> <r_epik_Metal_State_Penalty>
0.530836

> <b_epik_Metal_Only>
1

> <s_lp_Force_Field>
OPLS_2005

> <r_lp_Energy>
16.9152

> <b_lp_Chiralities_Consistent>
1

> <s_lp_Variant>
AV-unprocessed.smi:703-15

> <Gold.Version>
5.8.1

> <Gold.Id.Protein>
6NUR|6NUR_protein|mol2

> <Gold.PLP.Fitness>
42.5890

> <Gold.PLP.PLP>
-29.1662

> <Gold.PLP.part.hbond>
-6.0144

> <Gold.PLP.part.metal>
0.0000

> <Gold.PLP.part.buried>
-0.7508

> <Gold.PLP.part.nonpolar>
-24.6494

> <Gold.PLP.part.repulsive>
0.3940

> <Gold.PLP.ligand.clash>
0.0000

> <Gold.PLP.ligand.torsion>
0.7643

> <Gold.PLP.Chemscore.Hbond>
4.6250

> <Gold.PLP.Chemscore.CHOScore>
0.0000

> <Gold.PLP.Chemscore.Metal>
0.0000

> <Gold.Chemscore.Hbonds>
donor molecule, donor type, donor heavy atom, donor atom, acceptor molecule, acceptor atom, score
      L1  H     3    37       P1  7957  1.00
      P1  H  7989  7998       L1     8  1.00
      P1  H  7997  8009       L1    16  0.11
      P1  H  7997  8010       L1    11  1.00
      P1  H 10752 10763       L1    10  1.00

> <Gold.PLP.Chemscore.Internal.Correction>
1.0765

> <Gold.Rescore>
     Score         DG    S(hbond)    S(metal)    S(lipo)     H(rot)  DE(clash)    DE(int)     intcor
     18.05     -21.08       3.50        0.00      69.31       1.63       0.27       2.76       ----

> <Gold.Chemscore.Fitness>
18.0512

> <Gold.Chemscore.DG>
-21.0822

> <Gold.Chemscore.ZeroCoef>
-5.4800

> <Gold.Chemscore.Hbond>
3.4956

> <Gold.Chemscore.Metal>
0.0000

> <Gold.Chemscore.Lipo>
69.3106

> <Gold.Chemscore.Internal_Hbond>
0.0000

> <Gold.Chemscore.DEClash>
0.2665

> <Gold.Chemscore.DEInternal>
2.7646

> <Gold.Chemscore.Rot>
1.6338

> <Gold.Chemscore.Internal.Correction>
   9.000000E+99

> <Gold.Chemscore.Hbonds>
donor molecule, donor type, donor heavy atom, donor atom, acceptor molecule, acceptor atom, score
      L1  H     3    37       P1  7957  1.00
      P1  H  7989  7998       L1     8  0.30
      P1  H  7997  8010       L1    11  0.99
      P1  H 10752 10763       L1    10  0.97

> <Gold.Chemscore.Hbond.Weighted>
-11.6754

> <Gold.Chemscore.Metal.Weighted>
-0.0000

> <Gold.Chemscore.Lipo.Weighted>
-8.1093

> <Gold.Chemscore.Internal_Hbond.Weighted>
0.0000

> <Gold.Chemscore.DEClash.Weighted>
0.2665

> <Gold.Chemscore.DEInternal.Weighted>
2.7646

> <Gold.Chemscore.Rot.Weighted>
4.1825

> <Gold.Chemscore.Internal.Correction.Weighted>
   9.000000E+99

> <Gold.Protein.RotatedTorsions>
[ 6907 6896 6895 6894 ] final  -61.22 input  -60.11 | X-H torsion
[ 7974 7965 7964 7962 ] final  146.38 input  175.53 | X-H torsion
[ 8008 7997 7996 7995 ] final  108.79 input   59.86 | X-H torsion
[ 10167 10162 10161 10158 ] final   92.28 input  -65.29 | X-H torsion
[ 10718 10713 10712 10709 ] final   -1.08 input   66.30 | X-H torsion
[ 10763 10752 10751 10750 ] final   40.74 input  -60.55 | X-H torsion
[ 11005 11000 10999 10996 ] final -111.23 input  -57.11 | X-H torsion

> <Gold.Protein.ActiveResidues>
 VAL166  LYS551  ARG553  GLY616  TRP617  ASP618  TYR619  PRO620  LYS621  CYS622 
 ASP623  PHE694  ASN695  SER759  ASP760  ASP761  ALA762  ILE779  LEU786  VAL792 
 PHE793  MET794  SER795  GLU796  ALA797  LYS798  CYS799  TRP800  GLU811  SER814 

> <Gold.Protein.RotatedAtoms>
  150.7800  134.6733  159.6403 H   0  0  0  0  0  0  0  0  0  0  0  0  # atno 6907 bound_to 6896
  152.3881  134.6481  160.0127 H   0  0  0  0  0  0  0  0  0  0  0  0  # atno 6908 bound_to 6896
  151.6790  133.3276  159.3251 H   0  0  0  0  0  0  0  0  0  0  0  0  # atno 6909 bound_to 6896
  144.8676  139.5898  143.5902 H   0  0  0  0  0  0  0  0  0  0  0  0  # atno 7974 bound_to 7965
  156.1930  140.3070  155.9370 H   0  0  0  0  0  0  0  0  0  0  0  0  # atno 8008 bound_to 7997
  155.3130  140.0452  157.3053 H   0  0  0  0  0  0  0  0  0  0  0  0  # atno 8009 bound_to 7997
  154.5475  140.2281  155.8548 H   0  0  0  0  0  0  0  0  0  0  0  0  # atno 8010 bound_to 7997
  139.8292  144.6695  150.9421 H   0  0  0  0  0  0  0  0  0  0  0  0  # atno 10167 bound_to 10162
  156.8110  130.5424  149.5709 H   0  0  0  0  0  0  0  0  0  0  0  0  # atno 10718 bound_to 10713
  152.9927  135.6182  154.2675 H   0  0  0  0  0  0  0  0  0  0  0  0  # atno 10763 bound_to 10752
  154.2409  135.2788  155.2856 H   0  0  0  0  0  0  0  0  0  0  0  0  # atno 10764 bound_to 10752
  154.5370  135.5772  153.6864 H   0  0  0  0  0  0  0  0  0  0  0  0  # atno 10765 bound_to 10752
  141.0746  133.9322  157.2415 H   0  0  0  0  0  0  0  0  0  0  0  0  # atno 11005 bound_to 11000
  146.2907  139.7131  142.9163 LP  0  0  0  0  0  0  0  0  0  0  0  0  # atno 17320 bound_to 7965
  145.4192  141.0405  143.2973 LP  0  0  0  0  0  0  0  0  0  0  0  0  # atno 17321 bound_to 7965
  140.7808  143.4017  151.1137 LP  0  0  0  0  0  0  0  0  0  0  0  0  # atno 17342 bound_to 10162
  139.7672  143.8547  152.3113 LP  0  0  0  0  0  0  0  0  0  0  0  0  # atno 17343 bound_to 10162
  156.1045  130.5994  150.9948 LP  0  0  0  0  0  0  0  0  0  0  0  0  # atno 17370 bound_to 10713
  157.6506  131.0897  150.8059 LP  0  0  0  0  0  0  0  0  0  0  0  0  # atno 17371 bound_to 10713
  139.9559  135.0165  156.9126 LP  0  0  0  0  0  0  0  0  0  0  0  0  # atno 17394 bound_to 11000
  140.5600  134.0544  155.7396 LP  0  0  0  0  0  0  0  0  0  0  0  0  # atno 17395 bound_to 11000

$$$$
