AV-unprocessed.smi:3277|AV-procd|sdf|12537|dock1
  -GOLD-   2272018453D 1   1.00000     0.00000
 Structure written by MMmdl.
 35 37  0  0  0  0  0  0  0  0  1 V2000
  147.2725  139.0104  152.9127 C   0  0  0  0  0  0  0  0  0  0  0  0
  148.6257  138.7964  153.4005 N   0  0  0  0  0  0  0  0  0  0  0  0
  149.2212  139.5514  154.3361 C   0  0  0  0  0  0  0  0  0  0  0  0
  148.6693  140.5009  154.8922 O   0  0  0  0  0  0  0  0  0  0  0  0
  150.6595  139.1805  154.7029 C   0  0  0  0  0  0  0  0  0  0  0  0
  151.0191  139.9165  155.9532 C   0  0  0  0  0  0  0  0  0  0  0  0
  150.9520  141.2450  156.0708 N   0  0  0  0  0  0  0  0  0  0  0  0
  151.3118  141.7026  157.3436 C   0  0  0  0  0  0  0  0  0  0  0  0
  151.2612  143.1686  157.6971 C   0  0  1  0  0  0  0  0  0  0  0  0
  150.2437  143.5468  158.7964 C   0  0  0  0  0  0  0  0  0  0  0  0
  151.0913  144.4129  159.7495 C   0  0  1  0  0  0  0  0  0  0  0  0
  152.0650  143.5090  160.5319 C   0  0  0  0  0  0  0  0  0  0  0  0
  153.1259  143.1524  159.4732 C   0  0  0  0  0  0  0  0  0  0  0  0
  152.5726  143.8238  158.1997 C   0  0  2  0  0  0  0  0  0  0  0  0
  152.0331  145.1265  158.7848 C   0  0  0  0  0  0  0  0  0  0  0  0
  151.6772  140.6834  158.1886 C   0  0  0  0  0  0  0  0  0  0  0  0
  151.5687  139.1218  157.4228 S   0  0  0  0  0  0  0  0  0  0  0  0
  147.0392  138.2836  152.1349 H   0  0  0  0  0  0  0  0  0  0  0  0
  147.1663  140.0092  152.4880 H   0  0  0  0  0  0  0  0  0  0  0  0
  146.5464  138.8945  153.7182 H   0  0  0  0  0  0  0  0  0  0  0  0
  149.1513  138.0376  152.9902 H   0  0  0  0  0  0  0  0  0  0  0  0
  150.7472  138.1064  154.8695 H   0  0  0  0  0  0  0  0  0  0  0  0
  151.3455  139.4510  153.8990 H   0  0  0  0  0  0  0  0  0  0  0  0
  150.9681  143.7121  156.7970 H   0  0  0  0  0  0  0  0  0  0  0  0
  149.4154  144.1164  158.3733 H   0  0  0  0  0  0  0  0  0  0  0  0
  149.8176  142.6868  159.3140 H   0  0  0  0  0  0  0  0  0  0  0  0
  150.4980  145.0692  160.3865 H   0  0  0  0  0  0  0  0  0  0  0  0
  152.5203  144.0493  161.3627 H   0  0  0  0  0  0  0  0  0  0  0  0
  151.5708  142.6255  160.9378 H   0  0  0  0  0  0  0  0  0  0  0  0
  154.0847  143.5974  159.7427 H   0  0  0  0  0  0  0  0  0  0  0  0
  153.2959  142.0820  159.3744 H   0  0  0  0  0  0  0  0  0  0  0  0
  153.3227  143.9495  157.4183 H   0  0  0  0  0  0  0  0  0  0  0  0
  151.5134  145.7505  158.0553 H   0  0  0  0  0  0  0  0  0  0  0  0
  152.7942  145.7265  159.2870 H   0  0  0  0  0  0  0  0  0  0  0  0
  151.9951  140.7561  159.2181 H   0  0  0  0  0  0  0  0  0  0  0  0
  1  2  1  0  0  0  0
  1 18  1  0  0  0  0
  1 19  1  0  0  0  0
  1 20  1  0  0  0  0
  2  3  1  0  0  0  0
  2 21  1  0  0  0  0
  3  4  2  0  0  0  0
  3  5  1  0  0  0  0
  5  6  1  0  0  0  0
  5 22  1  0  0  0  0
  5 23  1  0  0  0  0
  6 17  1  0  0  0  0
  6  7  2  0  0  0  0
  7  8  1  0  0  0  0
  8  9  1  0  0  0  0
  8 16  2  0  0  0  0
  9 14  1  0  0  0  0
  9 10  1  0  0  0  0
  9 24  1  0  0  0  0
 10 11  1  0  0  0  0
 10 25  1  0  0  0  0
 10 26  1  0  0  0  0
 11 15  1  0  0  0  0
 11 12  1  0  0  0  0
 11 27  1  0  0  0  0
 12 13  1  0  0  0  0
 12 28  1  0  0  0  0
 12 29  1  0  0  0  0
 13 14  1  0  0  0  0
 13 30  1  0  0  0  0
 13 31  1  0  0  0  0
 14 15  1  0  0  0  0
 14 32  1  0  0  0  0
 15 33  1  0  0  0  0
 15 34  1  0  0  0  0
 16 17  1  0  0  0  0
 16 35  1  0  0  0  0
M  END
> <s_m_source_file>
AV-unprocessed.smi

> <i_m_source_file_index>
3277

> <i_lp_mmshare_version>
43012

> <i_f3d_flags>
0

> <s_epik_input>
W0NIM11bTkhdQyg9TylbQ0gyXWMxbmMoW2NIXXMxKVtDQEhdKFtDSDJdW0NAQEhdMjMpW0NAQEhdKFtDSDJdMylbQ0gyXVtDSDJdMg==

> <s_epik_cmdline>
J2VwaWtfcHl0aG9uJywgJy1waCcsICc3LjAnLCAnLXRuJywgJzgnLCAnLW1hJywgJzIwMCcsICctbWV0YWxfYmluZGluZycsICctaW1hZScsICc8aW5maWxlLm1hZT4nLCAnLW9tYWUnLCAnPG91dGZpbGUubWFlPic=

> <r_lp_tautomer_probability>
1

> <r_epik_Ionization_Penalty>
8.50008e-05

> <r_epik_Ionization_Penalty_Charging>
0

> <r_epik_Ionization_Penalty_Neutral>
8.50008e-05

> <r_epik_State_Penalty>
-0

> <r_epik_Charging_Adjusted_Penalty>
0

> <i_epik_Tot_Q>
0

> <i_epik_Tot_abs_Q>
0

> <r_epik_Metal_State_Penalty>
-0

> <b_epik_Metal_Only>
0

> <s_lp_Force_Field>
OPLS_2005

> <r_lp_Energy>
45.709

> <b_lp_Chiralities_Consistent>
1

> <s_lp_Variant>
AV-unprocessed.smi:3277-2

> <Gold.Version>
5.8.1

> <Gold.Id.Protein>
6NUR|6NUR_protein|mol2

> <Gold.PLP.Fitness>
42.6050

> <Gold.PLP.PLP>
-40.7749

> <Gold.PLP.part.hbond>
-2.0000

> <Gold.PLP.part.metal>
0.0000

> <Gold.PLP.part.buried>
-4.9208

> <Gold.PLP.part.nonpolar>
-34.8029

> <Gold.PLP.part.repulsive>
0.1982

> <Gold.PLP.ligand.clash>
0.0000

> <Gold.PLP.ligand.torsion>
0.1774

> <Gold.PLP.Chemscore.Hbond>
0.7262

> <Gold.PLP.Chemscore.CHOScore>
0.0000

> <Gold.PLP.Chemscore.Metal>
0.0000

> <Gold.Chemscore.Hbonds>
donor molecule, donor type, donor heavy atom, donor atom, acceptor molecule, acceptor atom, score
      L1  H     2    21       P1  7948  0.71

> <Gold.PLP.Chemscore.Internal.Correction>
0.0064

> <Gold.Rescore>
     Score         DG    S(hbond)    S(metal)    S(lipo)     H(rot)  DE(clash)    DE(int)     intcor
     16.67     -18.69       0.85        0.00     119.62       1.41       0.26       1.77       ----

> <Gold.Chemscore.Fitness>
16.6657

> <Gold.Chemscore.DG>
-18.6915

> <Gold.Chemscore.ZeroCoef>
-5.4800

> <Gold.Chemscore.Hbond>
0.8475

> <Gold.Chemscore.Metal>
0.0000

> <Gold.Chemscore.Lipo>
119.6237

> <Gold.Chemscore.Internal_Hbond>
0.0000

> <Gold.Chemscore.DEClash>
0.2566

> <Gold.Chemscore.DEInternal>
1.7693

> <Gold.Chemscore.Rot>
1.4122

> <Gold.Chemscore.Internal.Correction>
   9.000000E+99

> <Gold.Chemscore.Hbonds>
donor molecule, donor type, donor heavy atom, donor atom, acceptor molecule, acceptor atom, score
      L1  H     2    21       P1  7948  0.69

> <Gold.Chemscore.Hbond.Weighted>
-2.8307

> <Gold.Chemscore.Metal.Weighted>
-0.0000

> <Gold.Chemscore.Lipo.Weighted>
-13.9960

> <Gold.Chemscore.Internal_Hbond.Weighted>
0.0000

> <Gold.Chemscore.DEClash.Weighted>
0.2566

> <Gold.Chemscore.DEInternal.Weighted>
1.7693

> <Gold.Chemscore.Rot.Weighted>
3.6151

> <Gold.Chemscore.Internal.Correction.Weighted>
   9.000000E+99

> <Gold.Protein.RotatedTorsions>
[ 6907 6896 6895 6894 ] final  -23.50 input  -60.11 | X-H torsion
[ 7974 7965 7964 7962 ] final  -61.61 input  175.53 | X-H torsion
[ 8008 7997 7996 7995 ] final   12.95 input   59.86 | X-H torsion
[ 10167 10162 10161 10158 ] final  -98.86 input  -65.29 | X-H torsion
[ 10718 10713 10712 10709 ] final  -22.17 input   66.30 | X-H torsion
[ 10763 10752 10751 10750 ] final   93.59 input  -60.55 | X-H torsion
[ 11005 11000 10999 10996 ] final -107.53 input  -57.11 | X-H torsion

> <Gold.Protein.ActiveResidues>
 VAL166  LYS551  ARG553  GLY616  TRP617  ASP618  TYR619  PRO620  LYS621  CYS622 
 ASP623  PHE694  ASN695  SER759  ASP760  ASP761  ALA762  ILE779  LEU786  VAL792 
 PHE793  MET794  SER795  GLU796  ALA797  LYS798  CYS799  TRP800  GLU811  SER814 

> <Gold.Protein.RotatedAtoms>
  151.2031  135.0450  159.8879 H   0  0  0  0  0  0  0  0  0  0  0  0  # atno 6907 bound_to 6896
  152.5431  134.0828  159.8253 H   0  0  0  0  0  0  0  0  0  0  0  0  # atno 6908 bound_to 6896
  151.0972  133.5223  159.2644 H   0  0  0  0  0  0  0  0  0  0  0  0  # atno 6909 bound_to 6896
  145.8013  140.8653  143.0230 H   0  0  0  0  0  0  0  0  0  0  0  0  # atno 7974 bound_to 7965
  154.8278  140.2894  155.5743 H   0  0  0  0  0  0  0  0  0  0  0  0  # atno 8008 bound_to 7997
  156.3003  140.2538  156.3128 H   0  0  0  0  0  0  0  0  0  0  0  0  # atno 8009 bound_to 7997
  154.9266  140.0384  157.2015 H   0  0  0  0  0  0  0  0  0  0  0  0  # atno 8010 bound_to 7997
  140.2685  143.3360  152.0558 H   0  0  0  0  0  0  0  0  0  0  0  0  # atno 10167 bound_to 10162
  156.5082  130.4604  149.6663 H   0  0  0  0  0  0  0  0  0  0  0  0  # atno 10718 bound_to 10713
  153.2320  135.4320  155.0606 H   0  0  0  0  0  0  0  0  0  0  0  0  # atno 10763 bound_to 10752
  154.8301  135.3382  154.6773 H   0  0  0  0  0  0  0  0  0  0  0  0  # atno 10764 bound_to 10752
  153.7200  135.7017  153.5071 H   0  0  0  0  0  0  0  0  0  0  0  0  # atno 10765 bound_to 10752
  141.0949  133.8989  157.1987 H   0  0  0  0  0  0  0  0  0  0  0  0  # atno 11005 bound_to 11000
  144.6768  140.0263  143.7483 LP  0  0  0  0  0  0  0  0  0  0  0  0  # atno 17320 bound_to 7965
  145.9875  139.2988  143.1005 LP  0  0  0  0  0  0  0  0  0  0  0  0  # atno 17321 bound_to 7965
  139.4996  144.6672  151.6328 LP  0  0  0  0  0  0  0  0  0  0  0  0  # atno 17342 bound_to 10162
  140.5909  143.9781  150.6324 LP  0  0  0  0  0  0  0  0  0  0  0  0  # atno 17343 bound_to 10162
  156.3266  130.7309  151.2231 LP  0  0  0  0  0  0  0  0  0  0  0  0  # atno 17370 bound_to 10713
  157.7454  131.0441  150.4777 LP  0  0  0  0  0  0  0  0  0  0  0  0  # atno 17371 bound_to 10713
  139.9783  135.0106  156.9687 LP  0  0  0  0  0  0  0  0  0  0  0  0  # atno 17394 bound_to 11000
  140.5164  134.0951  155.7282 LP  0  0  0  0  0  0  0  0  0  0  0  0  # atno 17395 bound_to 11000

$$$$
