AV-unprocessed.smi:3017|AV-procd|sdf|11476|dock3
  -GOLD-   2272016413D 1   1.00000     0.00000
 Structure written by MMmdl.
 37 38  0  0  0  0  0  0  0  0  1 V2000
  151.0909  144.5741  158.7168 C   0  0  0  0  0  0  0  0  0  0  0  0
  152.2257  143.9611  159.5496 C   0  0  1  0  0  0  0  0  0  0  0  0
  151.9057  144.0028  161.0562 C   0  0  0  0  0  0  0  0  0  0  0  0
  153.0427  143.3902  161.8891 C   0  0  0  0  0  0  0  0  0  0  0  0
  153.3539  141.9550  161.4374 C   0  0  0  0  0  0  0  0  0  0  0  0
  153.6802  141.9000  159.9311 C   0  0  1  0  0  0  0  0  0  0  0  0
  153.8350  140.5523  159.5061 O   0  0  0  0  0  0  0  0  0  0  0  0
  152.8417  139.6637  160.0046 C   0  0  0  0  0  0  0  0  0  0  0  0
  152.2398  138.8514  158.8551 C   0  0  0  0  0  0  0  0  0  0  0  0
  152.3439  137.6253  158.8762 O   0  0  0  0  0  0  0  0  0  0  0  0
  151.6376  139.5472  157.8716 N   0  0  0  0  0  0  0  0  0  0  0  0
  150.9888  139.0455  156.7127 C   0  0  0  0  0  0  0  0  0  0  0  0
  149.9321  139.8390  156.2068 C   0  0  0  0  0  0  0  0  0  0  0  0
  149.2165  139.4908  155.1141 N   0  0  0  0  0  0  0  0  0  0  0  0
  149.5583  138.3313  154.5128 C   0  0  0  0  0  0  0  0  0  0  0  0
  150.6087  137.5288  155.0012 C   0  0  0  0  0  0  0  0  0  0  0  0
  151.3197  137.8831  156.0937 N   0  0  0  0  0  0  0  0  0  0  0  0
  152.5363  142.5176  159.1069 C   0  0  0  0  0  0  0  0  0  0  0  0
  150.1634  144.0128  158.8343 H   0  0  0  0  0  0  0  0  0  0  0  0
  151.3433  144.5822  157.6561 H   0  0  0  0  0  0  0  0  0  0  0  0
  150.8968  145.6044  159.0164 H   0  0  0  0  0  0  0  0  0  0  0  0
  153.1184  144.5645  159.3789 H   0  0  0  0  0  0  0  0  0  0  0  0
  151.7344  145.0319  161.3742 H   0  0  0  0  0  0  0  0  0  0  0  0
  150.9791  143.4612  161.2525 H   0  0  0  0  0  0  0  0  0  0  0  0
  153.9382  144.0058  161.7942 H   0  0  0  0  0  0  0  0  0  0  0  0
  152.7738  143.3969  162.9457 H   0  0  0  0  0  0  0  0  0  0  0  0
  154.1833  141.5649  162.0269 H   0  0  0  0  0  0  0  0  0  0  0  0
  152.4969  141.3143  161.6487 H   0  0  0  0  0  0  0  0  0  0  0  0
  154.5922  142.4647  159.7276 H   0  0  0  0  0  0  0  0  0  0  0  0
  153.2792  138.9779  160.7312 H   0  0  0  0  0  0  0  0  0  0  0  0
  152.0420  140.2117  160.5035 H   0  0  0  0  0  0  0  0  0  0  0  0
  151.6279  140.5511  157.9793 H   0  0  0  0  0  0  0  0  0  0  0  0
  149.6527  140.7664  156.6853 H   0  0  0  0  0  0  0  0  0  0  0  0
  148.9920  138.0418  153.6400 H   0  0  0  0  0  0  0  0  0  0  0  0
  150.8778  136.6019  154.5167 H   0  0  0  0  0  0  0  0  0  0  0  0
  151.6403  141.9028  159.2067 H   0  0  0  0  0  0  0  0  0  0  0  0
  152.8030  142.5038  158.0496 H   0  0  0  0  0  0  0  0  0  0  0  0
  1  2  1  0  0  0  0
  1 19  1  0  0  0  0
  1 20  1  0  0  0  0
  1 21  1  0  0  0  0
  2 18  1  0  0  0  0
  2  3  1  0  0  0  0
  2 22  1  0  0  0  0
  3  4  1  0  0  0  0
  3 23  1  0  0  0  0
  3 24  1  0  0  0  0
  4  5  1  0  0  0  0
  4 25  1  0  0  0  0
  4 26  1  0  0  0  0
  5  6  1  0  0  0  0
  5 27  1  0  0  0  0
  5 28  1  0  0  0  0
  6  7  1  0  0  0  0
  6 18  1  0  0  0  0
  6 29  1  0  0  0  0
  7  8  1  0  0  0  0
  8  9  1  0  0  0  0
  8 30  1  0  0  0  0
  8 31  1  0  0  0  0
  9 10  2  0  0  0  0
  9 11  1  0  0  0  0
 11 12  1  0  0  0  0
 11 32  1  0  0  0  0
 12 17  1  0  0  0  0
 12 13  2  0  0  0  0
 13 14  1  0  0  0  0
 13 33  1  0  0  0  0
 14 15  2  0  0  0  0
 15 16  1  0  0  0  0
 15 34  1  0  0  0  0
 16 17  2  0  0  0  0
 16 35  1  0  0  0  0
 18 36  1  0  0  0  0
 18 37  1  0  0  0  0
M  END
> <s_m_source_file>
AV-unprocessed.smi

> <i_m_source_file_index>
3017

> <i_lp_mmshare_version>
43012

> <i_f3d_flags>
0

> <s_epik_input>
W0NIM11bQ0BASF0xW0NIMl1bQ0gyXVtDSDJdW0NASF0oW0NIMl0xKU9bQ0gyXUMoPU8pW05IXWMyW2NIXW5bY0hdW2NIXW4y

> <s_epik_cmdline>
J2VwaWtfcHl0aG9uJywgJy1waCcsICc3LjAnLCAnLXRuJywgJzgnLCAnLW1hJywgJzIwMCcsICctbWV0YWxfYmluZGluZycsICctaW1hZScsICc8aW5maWxlLm1hZT4nLCAnLW9tYWUnLCAnPG91dGZpbGUubWFlPic=

> <r_lp_tautomer_probability>
1

> <r_epik_Ionization_Penalty>
2.89243e-06

> <r_epik_Ionization_Penalty_Charging>
0

> <r_epik_Ionization_Penalty_Neutral>
2.89243e-06

> <r_epik_State_Penalty>
-0

> <r_epik_Charging_Adjusted_Penalty>
0

> <i_epik_Tot_Q>
0

> <i_epik_Tot_abs_Q>
0

> <r_epik_Metal_State_Penalty>
-0

> <b_epik_Metal_Only>
0

> <s_lp_Force_Field>
OPLS_2005

> <r_lp_Energy>
20.2083

> <b_lp_Chiralities_Consistent>
1

> <s_lp_Variant>
AV-unprocessed.smi:3017-2

> <Gold.Version>
5.8.1

> <Gold.Id.Protein>
6NUR|6NUR_protein|mol2

> <Gold.PLP.Fitness>
46.7771

> <Gold.PLP.PLP>
-39.7727

> <Gold.PLP.part.hbond>
-1.0000

> <Gold.PLP.part.metal>
0.0000

> <Gold.PLP.part.buried>
-4.9719

> <Gold.PLP.part.nonpolar>
-34.5326

> <Gold.PLP.part.repulsive>
0.2191

> <Gold.PLP.ligand.clash>
0.0000

> <Gold.PLP.ligand.torsion>
0.6589

> <Gold.PLP.Chemscore.Hbond>
0.3375

> <Gold.PLP.Chemscore.CHOScore>
2.4319

> <Gold.PLP.Chemscore.Metal>
0.0000

> <Gold.Chemscore.Hbonds>
donor molecule, donor type, donor heavy atom, donor atom, acceptor molecule, acceptor atom, score
      L1  C    15    34       P1  7948  1.00

> <Gold.PLP.Chemscore.Internal.Correction>
0.0141

> <Gold.Rescore>
     Score         DG    S(hbond)    S(metal)    S(lipo)     H(rot)  DE(clash)    DE(int)     intcor
     13.23     -14.94       0.03        0.00     113.06       1.51       0.05       1.66       ----

> <Gold.Chemscore.Fitness>
13.2324

> <Gold.Chemscore.DG>
-14.9427

> <Gold.Chemscore.ZeroCoef>
-5.4800

> <Gold.Chemscore.Hbond>
0.0315

> <Gold.Chemscore.Metal>
0.0000

> <Gold.Chemscore.Lipo>
113.0612

> <Gold.Chemscore.Internal_Hbond>
0.0000

> <Gold.Chemscore.DEClash>
0.0511

> <Gold.Chemscore.DEInternal>
1.6592

> <Gold.Chemscore.Rot>
1.5119

> <Gold.Chemscore.Internal.Correction>
   9.000000E+99

> <Gold.Chemscore.Hbond.Weighted>
-0.1052

> <Gold.Chemscore.Metal.Weighted>
-0.0000

> <Gold.Chemscore.Lipo.Weighted>
-13.2282

> <Gold.Chemscore.Internal_Hbond.Weighted>
0.0000

> <Gold.Chemscore.DEClash.Weighted>
0.0511

> <Gold.Chemscore.DEInternal.Weighted>
1.6592

> <Gold.Chemscore.Rot.Weighted>
3.8706

> <Gold.Chemscore.Internal.Correction.Weighted>
   9.000000E+99

> <Gold.Protein.RotatedTorsions>
[ 6907 6896 6895 6894 ] final   30.35 input  -60.11 | X-H torsion
[ 7974 7965 7964 7962 ] final -165.88 input  175.53 | X-H torsion
[ 8008 7997 7996 7995 ] final  116.89 input   59.86 | X-H torsion
[ 10167 10162 10161 10158 ] final -158.35 input  -65.29 | X-H torsion
[ 10718 10713 10712 10709 ] final    6.78 input   66.30 | X-H torsion
[ 10763 10752 10751 10750 ] final   38.52 input  -60.55 | X-H torsion
[ 11005 11000 10999 10996 ] final  160.54 input  -57.11 | X-H torsion

> <Gold.Protein.ActiveResidues>
 VAL166  LYS551  ARG553  GLY616  TRP617  ASP618  TYR619  PRO620  LYS621  CYS622 
 ASP623  PHE694  ASN695  SER759  ASP760  ASP761  ALA762  ILE779  LEU786  VAL792 
 PHE793  MET794  SER795  GLU796  ALA797  LYS798  CYS799  TRP800  GLU811  SER814 

> <Gold.Protein.RotatedAtoms>
  152.0448  134.9690  160.0574 H   0  0  0  0  0  0  0  0  0  0  0  0  # atno 6907 bound_to 6896
  152.1114  133.4298  159.4641 H   0  0  0  0  0  0  0  0  0  0  0  0  # atno 6908 bound_to 6896
  150.6844  134.2562  159.4574 H   0  0  0  0  0  0  0  0  0  0  0  0  # atno 6909 bound_to 6896
  144.7259  140.2749  143.6245 H   0  0  0  0  0  0  0  0  0  0  0  0  # atno 7974 bound_to 7965
  156.2464  140.2908  156.0594 H   0  0  0  0  0  0  0  0  0  0  0  0  # atno 8008 bound_to 7997
  155.1793  140.0404  157.2896 H   0  0  0  0  0  0  0  0  0  0  0  0  # atno 8009 bound_to 7997
  154.6271  140.2490  155.7485 H   0  0  0  0  0  0  0  0  0  0  0  0  # atno 8010 bound_to 7997
  139.6699  143.9763  152.2277 H   0  0  0  0  0  0  0  0  0  0  0  0  # atno 10167 bound_to 10162
  156.9273  130.5813  149.5649 H   0  0  0  0  0  0  0  0  0  0  0  0  # atno 10718 bound_to 10713
  152.9998  135.6247  154.2318 H   0  0  0  0  0  0  0  0  0  0  0  0  # atno 10763 bound_to 10752
  154.2060  135.2802  155.2976 H   0  0  0  0  0  0  0  0  0  0  0  0  # atno 10764 bound_to 10752
  154.5645  135.5695  153.7096 H   0  0  0  0  0  0  0  0  0  0  0  0  # atno 10765 bound_to 10752
  140.2069  134.8296  157.3079 H   0  0  0  0  0  0  0  0  0  0  0  0  # atno 11005 bound_to 11000
  145.8006  139.1963  143.2050 LP  0  0  0  0  0  0  0  0  0  0  0  0  # atno 17320 bound_to 7965
  146.0680  140.7900  142.9702 LP  0  0  0  0  0  0  0  0  0  0  0  0  # atno 17321 bound_to 7965
  139.9525  144.6611  150.8158 LP  0  0  0  0  0  0  0  0  0  0  0  0  # atno 17342 bound_to 10162
  140.7614  143.3173  151.2703 LP  0  0  0  0  0  0  0  0  0  0  0  0  # atno 17343 bound_to 10162
  156.0463  130.5539  150.8889 LP  0  0  0  0  0  0  0  0  0  0  0  0  # atno 17370 bound_to 10713
  157.5869  131.0945  150.9181 LP  0  0  0  0  0  0  0  0  0  0  0  0  # atno 17371 bound_to 10713
  140.1993  134.4274  155.7671 LP  0  0  0  0  0  0  0  0  0  0  0  0  # atno 17394 bound_to 11000
  141.2227  133.7064  156.8157 LP  0  0  0  0  0  0  0  0  0  0  0  0  # atno 17395 bound_to 11000

$$$$
