AV-unprocessed.smi:3335|AV-procd|sdf|12852|dock3
  -GOLD-   2272019243D 1   1.00000     0.00000
 Structure written by MMmdl.
 46 47  0  0  0  0  0  0  0  0  1 V2000
  145.5219  137.0266  151.5343 C   0  0  0  0  0  0  0  0  0  0  0  0
  145.9223  138.0684  152.5386 C   0  0  0  0  0  0  0  0  0  0  0  0
  145.4614  138.2178  153.8774 C   0  0  0  0  0  0  0  0  0  0  0  0
  146.0145  139.2455  154.4996 N   0  0  0  0  0  0  0  0  0  0  0  0
  146.8494  139.7883  153.5850 N   0  0  0  0  0  0  0  0  0  0  0  0
  147.6448  140.9636  153.9186 C   0  0  1  0  0  0  0  0  0  0  0  0
  146.7235  142.1866  154.0972 C   0  0  0  0  0  0  0  0  0  0  0  0
  148.5603  140.7240  155.1500 C   0  0  1  0  0  0  0  0  0  0  0  0
  149.6356  139.6426  154.9100 C   0  0  0  0  0  0  0  0  0  0  0  0
  149.2264  141.9890  155.4700 N   0  0  0  0  0  0  0  0  0  0  0  0
  149.2472  142.3565  156.8998 C   0  0  1  0  0  0  0  0  0  0  0  0
  147.9333  141.9096  157.5589 C   0  0  0  0  0  0  0  0  0  0  0  0
  150.4456  141.7502  157.6647 C   0  0  0  0  0  0  0  0  0  0  0  0
  150.5513  140.5236  157.7237 O   0  0  0  0  0  0  0  0  0  0  0  0
  151.3468  142.5699  158.2480 N   0  0  0  0  0  0  0  0  0  0  0  0
  152.5205  142.0806  158.9697 C   0  0  0  0  0  0  0  0  0  0  0  0
  153.3753  143.3136  159.2628 C   0  0  0  0  0  0  0  0  0  0  0  0
  152.3772  144.4623  159.2740 C   0  0  0  0  0  0  0  0  0  0  0  0
  151.3015  144.0320  158.2767 C   0  0  0  0  0  0  0  0  0  0  0  0
  146.8098  139.0966  152.3921 C   0  0  0  0  0  0  0  0  0  0  0  0
  144.8435  136.2885  151.9633 H   0  0  0  0  0  0  0  0  0  0  0  0
  146.3865  136.4839  151.1521 H   0  0  0  0  0  0  0  0  0  0  0  0
  145.0148  137.4693  150.6770 H   0  0  0  0  0  0  0  0  0  0  0  0
  144.7443  137.6129  154.4125 H   0  0  0  0  0  0  0  0  0  0  0  0
  148.2834  141.1564  153.0547 H   0  0  0  0  0  0  0  0  0  0  0  0
  147.2962  143.1055  154.2223 H   0  0  0  0  0  0  0  0  0  0  0  0
  146.0797  142.0788  154.9708 H   0  0  0  0  0  0  0  0  0  0  0  0
  146.0815  142.3225  153.2262 H   0  0  0  0  0  0  0  0  0  0  0  0
  147.9251  140.3975  155.9736 H   0  0  0  0  0  0  0  0  0  0  0  0
  149.1891  138.6703  154.7030 H   0  0  0  0  0  0  0  0  0  0  0  0
  150.2785  139.5058  155.7788 H   0  0  0  0  0  0  0  0  0  0  0  0
  150.2727  139.9004  154.0634 H   0  0  0  0  0  0  0  0  0  0  0  0
  148.8105  142.7278  154.9207 H   0  0  0  0  0  0  0  0  0  0  0  0
  149.2832  143.4424  156.9565 H   0  0  0  0  0  0  0  0  0  0  0  0
  147.8976  142.1956  158.6108 H   0  0  0  0  0  0  0  0  0  0  0  0
  147.8047  140.8277  157.5046 H   0  0  0  0  0  0  0  0  0  0  0  0
  147.0749  142.3695  157.0682 H   0  0  0  0  0  0  0  0  0  0  0  0
  152.1956  141.6102  159.8991 H   0  0  0  0  0  0  0  0  0  0  0  0
  153.0783  141.3412  158.3924 H   0  0  0  0  0  0  0  0  0  0  0  0
  153.9346  143.2291  160.1950 H   0  0  0  0  0  0  0  0  0  0  0  0
  154.0929  143.4622  158.4549 H   0  0  0  0  0  0  0  0  0  0  0  0
  151.9376  144.5541  160.2680 H   0  0  0  0  0  0  0  0  0  0  0  0
  152.8304  145.4207  159.0196 H   0  0  0  0  0  0  0  0  0  0  0  0
  151.5313  144.4152  157.2814 H   0  0  0  0  0  0  0  0  0  0  0  0
  150.3228  144.4112  158.5736 H   0  0  0  0  0  0  0  0  0  0  0  0
  147.4119  139.3895  151.5448 H   0  0  0  0  0  0  0  0  0  0  0  0
  1  2  1  0  0  0  0
  1 21  1  0  0  0  0
  1 22  1  0  0  0  0
  1 23  1  0  0  0  0
  2 20  2  0  0  0  0
  2  3  1  0  0  0  0
  3  4  2  0  0  0  0
  3 24  1  0  0  0  0
  4  5  1  0  0  0  0
  5  6  1  0  0  0  0
  5 20  1  0  0  0  0
  6  7  1  0  0  0  0
  6  8  1  0  0  0  0
  6 25  1  0  0  0  0
  7 26  1  0  0  0  0
  7 27  1  0  0  0  0
  7 28  1  0  0  0  0
  8  9  1  0  0  0  0
  8 10  1  0  0  0  0
  8 29  1  0  0  0  0
  9 30  1  0  0  0  0
  9 31  1  0  0  0  0
  9 32  1  0  0  0  0
 10 11  1  0  0  0  0
 10 33  1  0  0  0  0
 11 12  1  0  0  0  0
 11 13  1  0  0  0  0
 11 34  1  0  0  0  0
 12 35  1  0  0  0  0
 12 36  1  0  0  0  0
 12 37  1  0  0  0  0
 13 14  2  0  0  0  0
 13 15  1  0  0  0  0
 15 19  1  0  0  0  0
 15 16  1  0  0  0  0
 16 17  1  0  0  0  0
 16 38  1  0  0  0  0
 16 39  1  0  0  0  0
 17 18  1  0  0  0  0
 17 40  1  0  0  0  0
 17 41  1  0  0  0  0
 18 19  1  0  0  0  0
 18 42  1  0  0  0  0
 18 43  1  0  0  0  0
 19 44  1  0  0  0  0
 19 45  1  0  0  0  0
 20 46  1  0  0  0  0
M  END
> <s_m_source_file>
AV-unprocessed.smi

> <i_m_source_file_index>
3335

> <i_lp_mmshare_version>
43012

> <i_f3d_flags>
0

> <s_epik_input>
W0NIM11jMVtjSF1ubihbY0hdMSlbQ0BIXShbQ0gzXSlbQ0BIXShbQ0gzXSlbTkhdW0NASF0oW0NIM10pQyg9TylOMltDSDJdW0NIMl1bQ0gyXVtDSDJdMg==

> <s_epik_cmdline>
J2VwaWtfcHl0aG9uJywgJy1waCcsICc3LjAnLCAnLXRuJywgJzgnLCAnLW1hJywgJzIwMCcsICctbWV0YWxfYmluZGluZycsICctaW1hZScsICc8aW5maWxlLm1hZT4nLCAnLW9tYWUnLCAnPG91dGZpbGUubWFlPic=

> <r_lp_tautomer_probability>
1

> <r_epik_Ionization_Penalty>
0.918803

> <r_epik_Ionization_Penalty_Charging>
0

> <r_epik_Ionization_Penalty_Neutral>
0.918803

> <r_epik_State_Penalty>
0.958258

> <r_epik_Charging_Adjusted_Penalty>
0.958258

> <i_epik_Tot_Q>
0

> <i_epik_Tot_abs_Q>
0

> <r_epik_Metal_State_Penalty>
0.956786

> <b_epik_Metal_Only>
0

> <s_lp_Force_Field>
OPLS_2005

> <r_lp_Energy>
36.4187

> <b_lp_Chiralities_Consistent>
1

> <s_lp_Variant>
AV-unprocessed.smi:3335-16

> <Gold.Version>
5.8.1

> <Gold.Id.Protein>
6NUR|6NUR_protein|mol2

> <Gold.PLP.Fitness>
41.4482

> <Gold.PLP.PLP>
-39.1566

> <Gold.PLP.part.hbond>
-1.0000

> <Gold.PLP.part.metal>
0.0000

> <Gold.PLP.part.buried>
2.2767

> <Gold.PLP.part.nonpolar>
-41.9860

> <Gold.PLP.part.repulsive>
0.1157

> <Gold.PLP.ligand.clash>
0.0000

> <Gold.PLP.ligand.torsion>
1.0305

> <Gold.PLP.Chemscore.Hbond>
0.4000

> <Gold.PLP.Chemscore.CHOScore>
1.0000

> <Gold.PLP.Chemscore.Metal>
0.0000

> <Gold.Chemscore.Hbonds>
donor molecule, donor type, donor heavy atom, donor atom, acceptor molecule, acceptor atom, score
      L1  H    10    33       P1  8028  0.32
      L1  C    20    46       P1  7957  1.00

> <Gold.PLP.Chemscore.Internal.Correction>
0.1526

> <Gold.Rescore>
     Score         DG    S(hbond)    S(metal)    S(lipo)     H(rot)  DE(clash)    DE(int)     intcor
     13.10     -15.03       0.52        0.00     102.15       1.62       0.81       1.11       ----

> <Gold.Chemscore.Fitness>
13.1039

> <Gold.Chemscore.DG>
-15.0284

> <Gold.Chemscore.ZeroCoef>
-5.4800

> <Gold.Chemscore.Hbond>
0.5225

> <Gold.Chemscore.Metal>
0.0000

> <Gold.Chemscore.Lipo>
102.1503

> <Gold.Chemscore.Internal_Hbond>
0.0000

> <Gold.Chemscore.DEClash>
0.8130

> <Gold.Chemscore.DEInternal>
1.1115

> <Gold.Chemscore.Rot>
1.6204

> <Gold.Chemscore.Internal.Correction>
   9.000000E+99

> <Gold.Chemscore.Hbonds>
donor molecule, donor type, donor heavy atom, donor atom, acceptor molecule, acceptor atom, score
      L1  H    10    33       P1  8028  0.31

> <Gold.Chemscore.Hbond.Weighted>
-1.7450

> <Gold.Chemscore.Metal.Weighted>
-0.0000

> <Gold.Chemscore.Lipo.Weighted>
-11.9516

> <Gold.Chemscore.Internal_Hbond.Weighted>
0.0000

> <Gold.Chemscore.DEClash.Weighted>
0.8130

> <Gold.Chemscore.DEInternal.Weighted>
1.1115

> <Gold.Chemscore.Rot.Weighted>
4.1482

> <Gold.Chemscore.Internal.Correction.Weighted>
   9.000000E+99

> <Gold.Protein.RotatedTorsions>
[ 6907 6896 6895 6894 ] final   24.82 input  -60.11 | X-H torsion
[ 7974 7965 7964 7962 ] final  131.26 input  175.53 | X-H torsion
[ 8008 7997 7996 7995 ] final -152.33 input   59.86 | X-H torsion
[ 10167 10162 10161 10158 ] final  -94.38 input  -65.29 | X-H torsion
[ 10718 10713 10712 10709 ] final   25.59 input   66.30 | X-H torsion
[ 10763 10752 10751 10750 ] final -173.93 input  -60.55 | X-H torsion
[ 11005 11000 10999 10996 ] final  116.72 input  -57.11 | X-H torsion

> <Gold.Protein.ActiveResidues>
 VAL166  LYS551  ARG553  GLY616  TRP617  ASP618  TYR619  PRO620  LYS621  CYS622 
 ASP623  PHE694  ASN695  SER759  ASP760  ASP761  ALA762  ILE779  LEU786  VAL792 
 PHE793  MET794  SER795  GLU796  ALA797  LYS798  CYS799  TRP800  GLU811  SER814 

> <Gold.Protein.RotatedAtoms>
  151.9633  135.0113  160.0548 H   0  0  0  0  0  0  0  0  0  0  0  0  # atno 6907 bound_to 6896
  152.1849  133.4728  159.4986 H   0  0  0  0  0  0  0  0  0  0  0  0  # atno 6908 bound_to 6896
  150.6924  134.1704  159.4253 H   0  0  0  0  0  0  0  0  0  0  0  0  # atno 6909 bound_to 6896
  145.0092  139.4236  143.5253 H   0  0  0  0  0  0  0  0  0  0  0  0  # atno 7974 bound_to 7965
  155.6534  140.0714  157.2579 H   0  0  0  0  0  0  0  0  0  0  0  0  # atno 8008 bound_to 7997
  154.4157  140.1729  156.1749 H   0  0  0  0  0  0  0  0  0  0  0  0  # atno 8009 bound_to 7997
  155.9758  140.3358  155.6620 H   0  0  0  0  0  0  0  0  0  0  0  0  # atno 8010 bound_to 7997
  140.3150  143.3082  152.0107 H   0  0  0  0  0  0  0  0  0  0  0  0  # atno 10167 bound_to 10162
  157.1954  130.6865  149.6167 H   0  0  0  0  0  0  0  0  0  0  0  0  # atno 10718 bound_to 10713
  154.6022  135.2855  155.0523 H   0  0  0  0  0  0  0  0  0  0  0  0  # atno 10763 bound_to 10752
  154.1784  135.6461  153.5031 H   0  0  0  0  0  0  0  0  0  0  0  0  # atno 10764 bound_to 10752
  153.0161  135.5417  154.6745 H   0  0  0  0  0  0  0  0  0  0  0  0  # atno 10765 bound_to 10752
  139.9050  134.9601  156.7241 H   0  0  0  0  0  0  0  0  0  0  0  0  # atno 11005 bound_to 11000
  146.3467  139.9526  142.8727 LP  0  0  0  0  0  0  0  0  0  0  0  0  # atno 17320 bound_to 7965
  145.2046  140.9869  143.4136 LP  0  0  0  0  0  0  0  0  0  0  0  0  # atno 17321 bound_to 7965
  139.4886  144.6355  151.6984 LP  0  0  0  0  0  0  0  0  0  0  0  0  # atno 17342 bound_to 10162
  140.5534  144.0388  150.6137 LP  0  0  0  0  0  0  0  0  0  0  0  0  # atno 17343 bound_to 10162
  155.9706  130.4600  150.6059 LP  0  0  0  0  0  0  0  0  0  0  0  0  # atno 17370 bound_to 10713
  157.3819  131.0782  151.1469 LP  0  0  0  0  0  0  0  0  0  0  0  0  # atno 17371 bound_to 10713
  140.6977  133.9334  155.8005 LP  0  0  0  0  0  0  0  0  0  0  0  0  # atno 17394 bound_to 11000
  141.0395  134.0642  157.3919 LP  0  0  0  0  0  0  0  0  0  0  0  0  # atno 17395 bound_to 11000

$$$$
