AV-unprocessed.smi:1619|AV-procd|sdf|6489|dock6
  -GOLD-   22720 7153D 1   1.00000     0.00000
 Structure written by MMmdl.
 45 47  0  0  0  0  0  0  0  0  3 V2000
  152.0704  144.6383  160.1305 C   0  0  0  0  0  0  0  0  0  0  0  0
  151.8821  143.4330  159.2247 C   0  0  0  0  0  0  0  0  0  0  0  0
  151.0969  143.5816  158.0589 C   0  0  0  0  0  0  0  0  0  0  0  0
  150.9464  142.4625  157.2486 C   0  0  0  0  0  0  0  0  0  0  0  0
  150.2492  142.2857  156.0515 N   0  3  0  0  0  0  0  0  0  0  0  0
  150.3949  141.0000  155.6261 C   0  0  0  0  0  0  0  0  0  0  0  0
  151.1774  140.3539  156.5335 N   0  0  0  0  0  0  0  0  0  0  0  0
  151.6447  138.9611  156.5598 C   0  0  0  0  0  0  0  0  0  0  0  0
  152.3408  138.5364  155.2515 C   0  0  2  0  0  0  0  0  0  0  0  0
  153.3167  139.5024  154.9094 O   0  0  0  0  0  0  0  0  0  0  0  0
  151.3400  138.3982  154.0878 C   0  0  0  0  0  0  0  0  0  0  0  0
  150.3638  137.3021  154.3018 N   0  3  0  0  0  0  0  0  0  0  0  0
  150.9290  136.0378  154.8154 C   0  0  0  0  0  0  0  0  0  0  0  0
  149.7491  135.2704  155.4207 C   0  0  0  0  0  0  0  0  0  0  0  0
  148.6466  136.3133  155.6406 C   0  0  0  0  0  0  0  0  0  0  0  0
  149.2615  137.6489  155.2174 C   0  0  0  0  0  0  0  0  0  0  0  0
  151.5428  141.2264  157.5642 C   0  0  0  0  0  0  0  0  0  0  0  0
  152.3174  141.0614  158.7097 C   0  0  0  0  0  0  0  0  0  0  0  0
  152.4851  142.1889  159.5453 C   0  0  0  0  0  0  0  0  0  0  0  0
  153.3293  142.0416  160.7999 C   0  0  0  0  0  0  0  0  0  0  0  0
  151.5145  145.5025  159.7650 H   0  0  0  0  0  0  0  0  0  0  0  0
  153.1233  144.9163  160.1824 H   0  0  0  0  0  0  0  0  0  0  0  0
  151.7193  144.4203  161.1393 H   0  0  0  0  0  0  0  0  0  0  0  0
  150.6350  144.5256  157.8085 H   0  0  0  0  0  0  0  0  0  0  0  0
  149.9697  140.5729  154.7293 H   0  0  0  0  0  0  0  0  0  0  0  0
  152.3114  138.8400  157.4148 H   0  0  0  0  0  0  0  0  0  0  0  0
  150.7773  138.3280  156.7522 H   0  0  0  0  0  0  0  0  0  0  0  0
  152.8479  137.5861  155.4177 H   0  0  0  0  0  0  0  0  0  0  0  0
  153.5779  139.3657  154.0112 H   0  0  0  0  0  0  0  0  0  0  0  0
  150.7991  139.3347  153.9424 H   0  0  0  0  0  0  0  0  0  0  0  0
  151.8858  138.2113  153.1614 H   0  0  0  0  0  0  0  0  0  0  0  0
  151.4300  135.4682  154.0320 H   0  0  0  0  0  0  0  0  0  0  0  0
  151.6609  136.2538  155.5957 H   0  0  0  0  0  0  0  0  0  0  0  0
  149.3995  134.5012  154.7307 H   0  0  0  0  0  0  0  0  0  0  0  0
  150.0342  134.7736  156.3488 H   0  0  0  0  0  0  0  0  0  0  0  0
  147.7874  136.0792  155.0109 H   0  0  0  0  0  0  0  0  0  0  0  0
  148.3000  136.3382  156.6743 H   0  0  0  0  0  0  0  0  0  0  0  0
  149.6649  138.1591  156.0938 H   0  0  0  0  0  0  0  0  0  0  0  0
  148.5362  138.3123  154.7448 H   0  0  0  0  0  0  0  0  0  0  0  0
  152.7750  140.1145  158.9543 H   0  0  0  0  0  0  0  0  0  0  0  0
  153.7395  141.0355  160.8896 H   0  0  0  0  0  0  0  0  0  0  0  0
  152.7304  142.2374  161.6895 H   0  0  0  0  0  0  0  0  0  0  0  0
  154.1650  142.7414  160.7834 H   0  0  0  0  0  0  0  0  0  0  0  0
  149.9382  137.0924  153.4096 H   0  0  0  0  0  0  0  0  0  0  0  0
  149.7134  142.9890  155.5589 H   0  0  0  0  0  0  0  0  0  0  0  0
  1  2  1  0  0  0  0
  1 21  1  0  0  0  0
  1 22  1  0  0  0  0
  1 23  1  0  0  0  0
  2 19  1  0  0  0  0
  2  3  2  0  0  0  0
  3  4  1  0  0  0  0
  3 24  1  0  0  0  0
  4 17  2  0  0  0  0
  4  5  1  0  0  0  0
  5  6  2  0  0  0  0
  5 45  1  0  0  0  0
  6  7  1  0  0  0  0
  6 25  1  0  0  0  0
  7  8  1  0  0  0  0
  7 17  1  0  0  0  0
  8  9  1  0  0  0  0
  8 26  1  0  0  0  0
  8 27  1  0  0  0  0
  9 10  1  0  0  0  0
  9 11  1  0  0  0  0
  9 28  1  0  0  0  0
 10 29  1  0  0  0  0
 11 12  1  0  0  0  0
 11 30  1  0  0  0  0
 11 31  1  0  0  0  0
 12 16  1  0  0  0  0
 12 13  1  0  0  0  0
 12 44  1  0  0  0  0
 13 14  1  0  0  0  0
 13 32  1  0  0  0  0
 13 33  1  0  0  0  0
 14 15  1  0  0  0  0
 14 34  1  0  0  0  0
 14 35  1  0  0  0  0
 15 16  1  0  0  0  0
 15 36  1  0  0  0  0
 15 37  1  0  0  0  0
 16 38  1  0  0  0  0
 16 39  1  0  0  0  0
 17 18  1  0  0  0  0
 18 19  2  0  0  0  0
 18 40  1  0  0  0  0
 19 20  1  0  0  0  0
 20 41  1  0  0  0  0
 20 42  1  0  0  0  0
 20 43  1  0  0  0  0
M  CHG  1   5   1
M  CHG  1  12   1
M  END
> <s_m_source_file>
AV-unprocessed.smi

> <i_m_source_file_index>
1619

> <i_lp_mmshare_version>
43012

> <i_f3d_flags>
0

> <s_epik_input>
W0NIM11jKFtjSF0xKWMoW0NIM10pW2NIXWMoYzEyKW4oW2NIXW4yKVtDSDJdW0NASF0oW09IXSlbQ0gyXU4zW0NIMl1bQ0gyXVtDSDJdW0NIMl0z

> <s_epik_cmdline>
J2VwaWtfcHl0aG9uJywgJy1waCcsICc3LjAnLCAnLXRuJywgJzgnLCAnLW1hJywgJzIwMCcsICctbWV0YWxfYmluZGluZycsICctaW1hZScsICc8aW5maWxlLm1hZT4nLCAnLW9tYWUnLCAnPG91dGZpbGUubWFlPic=

> <r_epik_Ionization_Penalty>
1.18067

> <r_epik_Ionization_Penalty_Charging>
1.18067

> <r_epik_Ionization_Penalty_Neutral>
1.08888e-06

> <r_epik_State_Penalty>
1.26407

> <r_epik_Charging_Adjusted_Penalty>
2.44473

> <i_epik_Tot_Q>
2

> <i_epik_Tot_abs_Q>
2

> <r_epik_Metal_State_Penalty>
5.27628

> <b_epik_Metal_Only>
0

> <s_lp_Force_Field>
OPLS_2005

> <r_lp_Energy>
41.212

> <b_lp_Chiralities_Consistent>
1

> <s_lp_Variant>
AV-unprocessed.smi:1619-3

> <Gold.Version>
5.8.1

> <Gold.Id.Protein>
6NUR|6NUR_protein|mol2

> <Gold.PLP.Fitness>
59.0118

> <Gold.PLP.PLP>
-44.5765

> <Gold.PLP.part.hbond>
-4.1836

> <Gold.PLP.part.metal>
0.0000

> <Gold.PLP.part.buried>
-5.7297

> <Gold.PLP.part.nonpolar>
-35.0253

> <Gold.PLP.part.repulsive>
0.1699

> <Gold.PLP.ligand.clash>
0.0000

> <Gold.PLP.ligand.torsion>
0.2711

> <Gold.PLP.Chemscore.Hbond>
4.9840

> <Gold.PLP.Chemscore.CHOScore>
0.0000

> <Gold.PLP.Chemscore.Metal>
0.0000

> <Gold.Chemscore.Hbonds>
donor molecule, donor type, donor heavy atom, donor atom, acceptor molecule, acceptor atom, score
      L1  H     5    45       P1  8028  1.86
      L1  H    12    44       P1  7948  2.00
      P1  H  7997  8009       L1    10  1.00

> <Gold.PLP.Chemscore.Internal.Correction>
0.0255

> <Gold.Rescore>
     Score         DG    S(hbond)    S(metal)    S(lipo)     H(rot)  DE(clash)    DE(int)     intcor
     22.35     -22.81       2.84        0.00     112.48       2.08       0.06       0.40       ----

> <Gold.Chemscore.Fitness>
22.3527

> <Gold.Chemscore.DG>
-22.8118

> <Gold.Chemscore.ZeroCoef>
-5.4800

> <Gold.Chemscore.Hbond>
2.8440

> <Gold.Chemscore.Metal>
0.0000

> <Gold.Chemscore.Lipo>
112.4826

> <Gold.Chemscore.Internal_Hbond>
0.0000

> <Gold.Chemscore.DEClash>
0.0563

> <Gold.Chemscore.DEInternal>
0.4029

> <Gold.Chemscore.Rot>
2.0811

> <Gold.Chemscore.Internal.Correction>
   9.000000E+99

> <Gold.Chemscore.Hbonds>
donor molecule, donor type, donor heavy atom, donor atom, acceptor molecule, acceptor atom, score
      L1  H     5    45       P1  8028  0.89
      L1  H    12    44       P1  7948  0.34
      P1  H  7997  8009       L1    10  0.78

> <Gold.Chemscore.Hbond.Weighted>
-9.4989

> <Gold.Chemscore.Metal.Weighted>
-0.0000

> <Gold.Chemscore.Lipo.Weighted>
-13.1605

> <Gold.Chemscore.Internal_Hbond.Weighted>
0.0000

> <Gold.Chemscore.DEClash.Weighted>
0.0563

> <Gold.Chemscore.DEInternal.Weighted>
0.4029

> <Gold.Chemscore.Rot.Weighted>
5.3275

> <Gold.Chemscore.Internal.Correction.Weighted>
   9.000000E+99

> <Gold.Protein.RotatedTorsions>
[ 6907 6896 6895 6894 ] final   -7.00 input  -60.11 | X-H torsion
[ 7974 7965 7964 7962 ] final   57.81 input  175.53 | X-H torsion
[ 8008 7997 7996 7995 ] final -128.23 input   59.86 | X-H torsion
[ 10167 10162 10161 10158 ] final   59.34 input  -65.29 | X-H torsion
[ 10718 10713 10712 10709 ] final  -61.60 input   66.30 | X-H torsion
[ 10763 10752 10751 10750 ] final  167.20 input  -60.55 | X-H torsion
[ 11005 11000 10999 10996 ] final    4.39 input  -57.11 | X-H torsion

> <Gold.Protein.ActiveResidues>
 VAL166  LYS551  ARG553  GLY616  TRP617  ASP618  TYR619  PRO620  LYS621  CYS622 
 ASP623  PHE694  ASN695  SER759  ASP760  ASP761  ALA762  ILE779  LEU786  VAL792 
 PHE793  MET794  SER795  GLU796  ALA797  LYS798  CYS799  TRP800  GLU811  SER814 

> <Gold.Protein.RotatedAtoms>
  151.4566  135.1034  159.9712 H   0  0  0  0  0  0  0  0  0  0  0  0  # atno 6907 bound_to 6896
  152.4868  133.8391  159.7154 H   0  0  0  0  0  0  0  0  0  0  0  0  # atno 6908 bound_to 6896
  150.8985  133.7089  159.2912 H   0  0  0  0  0  0  0  0  0  0  0  0  # atno 6909 bound_to 6896
  145.9250  139.3761  143.0455 H   0  0  0  0  0  0  0  0  0  0  0  0  # atno 7974 bound_to 7965
  155.2593  140.0435  157.2995 H   0  0  0  0  0  0  0  0  0  0  0  0  # atno 8008 bound_to 7997
  154.5721  140.2376  155.8146 H   0  0  0  0  0  0  0  0  0  0  0  0  # atno 8009 bound_to 7997
  156.2130  140.2993  155.9783 H   0  0  0  0  0  0  0  0  0  0  0  0  # atno 8010 bound_to 7997
  140.1775  144.4216  150.6631 H   0  0  0  0  0  0  0  0  0  0  0  0  # atno 10167 bound_to 10162
  156.0911  130.4200  150.1016 H   0  0  0  0  0  0  0  0  0  0  0  0  # atno 10718 bound_to 10713
  154.3504  135.2753  155.2375 H   0  0  0  0  0  0  0  0  0  0  0  0  # atno 10763 bound_to 10752
  154.4607  135.5908  153.6257 H   0  0  0  0  0  0  0  0  0  0  0  0  # atno 10764 bound_to 10752
  152.9850  135.6064  154.3713 H   0  0  0  0  0  0  0  0  0  0  0  0  # atno 10765 bound_to 10752
  140.5825  134.0000  155.8053 H   0  0  0  0  0  0  0  0  0  0  0  0  # atno 11005 bound_to 11000
  145.8500  140.9534  143.0754 LP  0  0  0  0  0  0  0  0  0  0  0  0  # atno 17320 bound_to 7965
  144.6757  140.0394  143.7481 LP  0  0  0  0  0  0  0  0  0  0  0  0  # atno 17321 bound_to 7965
  140.6542  143.2233  151.6008 LP  0  0  0  0  0  0  0  0  0  0  0  0  # atno 17342 bound_to 10162
  139.5311  144.2914  152.1149 LP  0  0  0  0  0  0  0  0  0  0  0  0  # atno 17343 bound_to 10162
  156.9026  130.9625  151.3574 LP  0  0  0  0  0  0  0  0  0  0  0  0  # atno 17370 bound_to 10713
  157.6060  130.8548  149.8876 LP  0  0  0  0  0  0  0  0  0  0  0  0  # atno 17371 bound_to 10713
  141.0987  133.9802  157.3116 LP  0  0  0  0  0  0  0  0  0  0  0  0  # atno 17394 bound_to 11000
  139.9311  135.0200  156.8402 LP  0  0  0  0  0  0  0  0  0  0  0  0  # atno 17395 bound_to 11000

$$$$
