AV-unprocessed.smi:333|AV-procd|sdf|2360|dock3
  -GOLD-   2262022273D 1   1.00000     0.00000
 Structure written by MMmdl.
 25 25  0  0  0  0  0  0  0  0  2 V2000
  150.1504  138.2130  153.8424 N   0  0  0  0  0  0  0  0  0  0  0  0
  151.2338  137.9112  154.5691 C   0  0  0  0  0  0  0  0  0  0  0  0
  151.8828  136.9068  154.2759 O   0  0  0  0  0  0  0  0  0  0  0  0
  151.5080  138.8652  155.6685 C   0  0  0  0  0  0  0  0  0  0  0  0
  150.6649  139.8735  156.0067 C   0  0  0  0  0  0  0  0  0  0  0  0
  150.9473  140.8040  157.0901 C   0  0  0  0  0  0  0  0  0  0  0  0
  149.9620  141.9216  157.4101 C   0  0  0  0  0  0  0  0  0  0  0  0
  148.5731  141.6921  156.7920 C   0  0  0  0  0  0  0  0  0  0  0  0
  148.5125  142.2128  155.4811 O   0  0  0  0  0  0  0  0  0  0  0  0
  152.1645  140.5941  157.7468 C   0  0  0  0  0  0  0  0  0  0  0  0
  152.6163  141.5073  158.8996 C   0  0  0  0  0  0  0  0  0  0  0  0
  152.6432  142.7807  158.5039 F   0  0  0  0  0  0  0  0  0  0  0  0
  151.7896  141.4054  159.9404 F   0  0  0  0  0  0  0  0  0  0  0  0
  153.8416  141.2013  159.3354 F   0  0  0  0  0  0  0  0  0  0  0  0
  153.0235  139.5863  157.4280 N   0  5  0  0  0  0  0  0  0  0  0  0
  152.7718  138.7013  156.4241 C   0  0  0  0  0  0  0  0  0  0  0  0
  153.5806  137.8067  156.1742 O   0  0  0  0  0  0  0  0  0  0  0  0
  149.8820  137.6180  153.0726 H   0  0  0  0  0  0  0  0  0  0  0  0
  149.6062  139.0319  154.0704 H   0  0  0  0  0  0  0  0  0  0  0  0
  149.7389  140.0252  155.4729 H   0  0  0  0  0  0  0  0  0  0  0  0
  149.8653  142.0848  158.4814 H   0  0  0  0  0  0  0  0  0  0  0  0
  150.3779  142.8477  157.0122 H   0  0  0  0  0  0  0  0  0  0  0  0
  148.3535  140.6251  156.7520 H   0  0  0  0  0  0  0  0  0  0  0  0
  147.7943  142.1554  157.3984 H   0  0  0  0  0  0  0  0  0  0  0  0
  148.6587  143.1453  155.5206 H   0  0  0  0  0  0  0  0  0  0  0  0
  1  2  1  0  0  0  0
  1 18  1  0  0  0  0
  1 19  1  0  0  0  0
  2  3  2  0  0  0  0
  2  4  1  0  0  0  0
  4 16  1  0  0  0  0
  4  5  2  0  0  0  0
  5  6  1  0  0  0  0
  5 20  1  0  0  0  0
  6  7  1  0  0  0  0
  6 10  2  0  0  0  0
  7  8  1  0  0  0  0
  7 21  1  0  0  0  0
  7 22  1  0  0  0  0
  8  9  1  0  0  0  0
  8 23  1  0  0  0  0
  8 24  1  0  0  0  0
  9 25  1  0  0  0  0
 10 11  1  0  0  0  0
 10 15  1  0  0  0  0
 11 12  1  0  0  0  0
 11 13  1  0  0  0  0
 11 14  1  0  0  0  0
 15 16  1  0  0  0  0
 16 17  2  0  0  0  0
M  CHG  1  15  -1
M  END
> <s_m_source_file>
AV-unprocessed.smi

> <i_m_source_file_index>
333

> <i_lp_mmshare_version>
43012

> <i_f3d_flags>
0

> <s_epik_input>
W05IMl1DKD1PKWMxW2NIXWMoW0NIMl1bQ0gyXVtPSF0pYyhDKEYpKEYpRilbbkhdYzE9Tw==

> <s_epik_cmdline>
J2VwaWtfcHl0aG9uJywgJy1waCcsICc3LjAnLCAnLXRuJywgJzgnLCAnLW1hJywgJzIwMCcsICctbWV0YWxfYmluZGluZycsICctaW1hZScsICc8aW5maWxlLm1hZT4nLCAnLW9tYWUnLCAnPG91dGZpbGUubWFlPic=

> <r_epik_Ionization_Penalty>
0.0673264

> <r_epik_Ionization_Penalty_Charging>
0.00196754

> <r_epik_Ionization_Penalty_Neutral>
0.0653589

> <r_epik_State_Penalty>
0.0569931

> <r_epik_Charging_Adjusted_Penalty>
0.0589607

> <i_epik_Tot_Q>
-1

> <i_epik_Tot_abs_Q>
1

> <r_epik_Metal_State_Penalty>
0.0511714

> <b_epik_Metal_Only>
0

> <s_lp_Force_Field>
OPLS_2005

> <r_lp_Energy>
33.2875

> <b_lp_Chiralities_Consistent>
1

> <s_lp_Variant>
AV-unprocessed.smi:333-1

> <Gold.Version>
5.8.1

> <Gold.Id.Protein>
6NUR|6NUR_protein|mol2

> <Gold.PLP.Fitness>
38.7050

> <Gold.PLP.PLP>
-24.5785

> <Gold.PLP.part.hbond>
-5.0993

> <Gold.PLP.part.metal>
0.0000

> <Gold.PLP.part.buried>
-2.5454

> <Gold.PLP.part.nonpolar>
-17.8935

> <Gold.PLP.part.repulsive>
0.7375

> <Gold.PLP.ligand.clash>
4.2755

> <Gold.PLP.ligand.torsion>
0.4390

> <Gold.PLP.Chemscore.Hbond>
4.9750

> <Gold.PLP.Chemscore.CHOScore>
0.0000

> <Gold.PLP.Chemscore.Metal>
0.0000

> <Gold.Chemscore.Hbonds>
donor molecule, donor type, donor heavy atom, donor atom, acceptor molecule, acceptor atom, score
      L1  H     1    18       P1  7948  1.00
      L1  H     9    25       P1  8028  1.00
      P1  H  7997  8010       L1    15  1.95
      P1  H 10752 10763       L1     3  1.00

> <Gold.PLP.Chemscore.Internal.Correction>
4.3550

> <Gold.Rescore>
     Score         DG    S(hbond)    S(metal)    S(lipo)     H(rot)  DE(clash)    DE(int)     intcor
     12.44     -15.28       3.23        0.00      37.72       2.11       0.16       2.68       ----

> <Gold.Chemscore.Fitness>
12.4416

> <Gold.Chemscore.DG>
-15.2830

> <Gold.Chemscore.ZeroCoef>
-5.4800

> <Gold.Chemscore.Hbond>
3.2298

> <Gold.Chemscore.Metal>
0.0000

> <Gold.Chemscore.Lipo>
37.7179

> <Gold.Chemscore.Internal_Hbond>
0.0000

> <Gold.Chemscore.DEClash>
0.1572

> <Gold.Chemscore.DEInternal>
2.6842

> <Gold.Chemscore.Rot>
2.1084

> <Gold.Chemscore.Internal.Correction>
   9.000000E+99

> <Gold.Chemscore.Hbonds>
donor molecule, donor type, donor heavy atom, donor atom, acceptor molecule, acceptor atom, score
      L1  H     1    18       P1  7948  0.37
      L1  H     9    25       P1  8028  0.98
      P1  H  7997  8010       L1    15  0.23
      P1  H 10752 10763       L1     3  0.97

> <Gold.Chemscore.Hbond.Weighted>
-10.7876

> <Gold.Chemscore.Metal.Weighted>
-0.0000

> <Gold.Chemscore.Lipo.Weighted>
-4.4130

> <Gold.Chemscore.Internal_Hbond.Weighted>
0.0000

> <Gold.Chemscore.DEClash.Weighted>
0.1572

> <Gold.Chemscore.DEInternal.Weighted>
2.6842

> <Gold.Chemscore.Rot.Weighted>
5.3976

> <Gold.Chemscore.Internal.Correction.Weighted>
   9.000000E+99

> <Gold.Protein.RotatedTorsions>
[ 6907 6896 6895 6894 ] final  111.48 input  -60.11 | X-H torsion
[ 7974 7965 7964 7962 ] final -172.31 input  175.53 | X-H torsion
[ 8008 7997 7996 7995 ] final   30.56 input   59.86 | X-H torsion
[ 10167 10162 10161 10158 ] final -102.84 input  -65.29 | X-H torsion
[ 10718 10713 10712 10709 ] final   90.68 input   66.30 | X-H torsion
[ 10763 10752 10751 10750 ] final   30.16 input  -60.55 | X-H torsion
[ 11005 11000 10999 10996 ] final   51.12 input  -57.11 | X-H torsion

> <Gold.Protein.ActiveResidues>
 VAL166  LYS551  ARG553  GLY616  TRP617  ASP618  TYR619  PRO620  LYS621  CYS622 
 ASP623  PHE694  ASN695  SER759  ASP760  ASP761  ALA762  ILE779  LEU786  VAL792 
 PHE793  MET794  SER795  GLU796  ALA797  LYS798  CYS799  TRP800  GLU811  SER814 

> <Gold.Protein.RotatedAtoms>
  152.4967  133.8652  159.7270 H   0  0  0  0  0  0  0  0  0  0  0  0  # atno 6907 bound_to 6896
  150.9153  133.6938  159.2851 H   0  0  0  0  0  0  0  0  0  0  0  0  # atno 6908 bound_to 6896
  151.4333  135.1016  159.9701 H   0  0  0  0  0  0  0  0  0  0  0  0  # atno 6909 bound_to 6896
  144.7147  140.1791  143.6360 H   0  0  0  0  0  0  0  0  0  0  0  0  # atno 7974 bound_to 7965
  155.0924  140.3221  155.4570 H   0  0  0  0  0  0  0  0  0  0  0  0  # atno 8008 bound_to 7997
  156.2739  140.2075  156.5997 H   0  0  0  0  0  0  0  0  0  0  0  0  # atno 8009 bound_to 7997
  154.6893  140.0518  157.0334 H   0  0  0  0  0  0  0  0  0  0  0  0  # atno 8010 bound_to 7997
  140.2264  143.3639  152.0925 H   0  0  0  0  0  0  0  0  0  0  0  0  # atno 10167 bound_to 10162
  157.6959  131.0379  150.3614 H   0  0  0  0  0  0  0  0  0  0  0  0  # atno 10718 bound_to 10713
  153.0388  135.6471  154.1001 H   0  0  0  0  0  0  0  0  0  0  0  0  # atno 10763 bound_to 10752
  154.0711  135.2880  155.3309 H   0  0  0  0  0  0  0  0  0  0  0  0  # atno 10764 bound_to 10752
  154.6593  135.5397  153.8063 H   0  0  0  0  0  0  0  0  0  0  0  0  # atno 10765 bound_to 10752
  140.0959  134.5146  155.8808 H   0  0  0  0  0  0  0  0  0  0  0  0  # atno 11005 bound_to 11000
  145.8873  139.2356  143.1570 LP  0  0  0  0  0  0  0  0  0  0  0  0  # atno 17320 bound_to 7965
  145.9937  140.8580  143.0053 LP  0  0  0  0  0  0  0  0  0  0  0  0  # atno 17321 bound_to 7965
  139.5126  144.6919  151.5737 LP  0  0  0  0  0  0  0  0  0  0  0  0  # atno 17342 bound_to 10162
  140.6218  143.9244  150.6532 LP  0  0  0  0  0  0  0  0  0  0  0  0  # atno 17343 bound_to 10162
  156.4050  130.3923  149.6932 LP  0  0  0  0  0  0  0  0  0  0  0  0  # atno 17370 bound_to 10713
  156.4236  130.7781  151.2799 LP  0  0  0  0  0  0  0  0  0  0  0  0  # atno 17371 bound_to 10713
  141.2092  133.6681  156.6421 LP  0  0  0  0  0  0  0  0  0  0  0  0  # atno 17394 bound_to 11000
  140.3287  134.7947  157.4309 LP  0  0  0  0  0  0  0  0  0  0  0  0  # atno 17395 bound_to 11000

$$$$
