AV-unprocessed.smi:2256|AV-procd|sdf|9126|dock1
  -GOLD-   2272012333D 1   1.00000     0.00000
 Structure written by MMmdl.
 42 44  0  0  0  0  0  0  0  0  1 V2000
  150.2824  143.1060  158.3015 C   0  0  0  0  0  0  0  0  0  0  0  0
  150.6504  141.9616  157.3740 C   0  0  0  0  0  0  0  0  0  0  0  0
  149.8498  141.8254  156.2361 N   0  0  0  0  0  0  0  0  0  0  0  0
  150.0826  140.8721  155.3941 C   0  0  0  0  0  0  0  0  0  0  0  0
  151.1293  139.9561  155.5880 N   0  0  0  0  0  0  0  0  0  0  0  0
  151.2839  138.9146  154.5589 C   0  0  0  0  0  0  0  0  0  0  0  0
  151.4672  137.5080  155.1723 C   0  0  2  0  0  0  0  0  0  0  0  0
  151.7796  136.5661  154.1655 O   0  0  0  0  0  0  0  0  0  0  0  0
  150.2155  137.0070  155.9130 C   0  0  0  0  0  0  0  0  0  0  0  0
  150.4542  135.7090  156.4434 O   0  0  0  0  0  0  0  0  0  0  0  0
  150.0576  134.6121  155.7085 C   0  0  0  0  0  0  0  0  0  0  0  0
  149.0294  134.6461  154.7302 C   0  0  0  0  0  0  0  0  0  0  0  0
  148.6755  133.4856  154.0158 C   0  0  0  0  0  0  0  0  0  0  0  0
  149.3423  132.2749  154.2673 C   0  0  0  0  0  0  0  0  0  0  0  0
  150.3603  132.2407  155.2347 C   0  0  0  0  0  0  0  0  0  0  0  0
  151.1748  131.2226  155.6900 N   0  0  0  0  0  0  0  0  0  0  0  0
  152.0372  131.6867  156.6675 C   0  0  0  0  0  0  0  0  0  0  0  0
  151.8009  133.0214  156.8699 C   0  0  0  0  0  0  0  0  0  0  0  0
  150.7412  133.3992  155.9738 C   0  0  0  0  0  0  0  0  0  0  0  0
  151.9674  140.0265  156.6624 C   0  0  0  0  0  0  0  0  0  0  0  0
  152.8954  139.2293  156.8121 O   0  0  0  0  0  0  0  0  0  0  0  0
  151.6857  141.1118  157.6159 C   0  0  0  0  0  0  0  0  0  0  0  0
  152.5903  141.2101  158.8380 C   0  0  0  0  0  0  0  0  0  0  0  0
  151.1640  130.2639  155.3727 H   0  0  0  0  0  0  0  0  0  0  0  0
  150.0075  142.7252  159.2855 H   0  0  0  0  0  0  0  0  0  0  0  0
  149.4359  143.6743  157.9146 H   0  0  0  0  0  0  0  0  0  0  0  0
  151.1214  143.7930  158.4142 H   0  0  0  0  0  0  0  0  0  0  0  0
  149.4899  140.7247  154.4895 H   0  0  0  0  0  0  0  0  0  0  0  0
  150.3911  138.9192  153.9306 H   0  0  0  0  0  0  0  0  0  0  0  0
  152.0979  139.1381  153.8657 H   0  0  0  0  0  0  0  0  0  0  0  0
  152.2940  137.5082  155.8834 H   0  0  0  0  0  0  0  0  0  0  0  0
  151.2259  136.7294  153.4175 H   0  0  0  0  0  0  0  0  0  0  0  0
  149.9302  137.7084  156.6991 H   0  0  0  0  0  0  0  0  0  0  0  0
  149.3901  136.9528  155.2014 H   0  0  0  0  0  0  0  0  0  0  0  0
  148.4932  135.5556  154.5070 H   0  0  0  0  0  0  0  0  0  0  0  0
  147.8911  133.5264  153.2745 H   0  0  0  0  0  0  0  0  0  0  0  0
  149.0750  131.3816  153.7225 H   0  0  0  0  0  0  0  0  0  0  0  0
  152.7501  131.0275  157.1406 H   0  0  0  0  0  0  0  0  0  0  0  0
  152.3057  133.6753  157.5654 H   0  0  0  0  0  0  0  0  0  0  0  0
  153.6267  141.3497  158.5288 H   0  0  0  0  0  0  0  0  0  0  0  0
  152.5324  140.2911  159.4222 H   0  0  0  0  0  0  0  0  0  0  0  0
  152.3314  142.0350  159.4994 H   0  0  0  0  0  0  0  0  0  0  0  0
  1  2  1  0  0  0  0
  1 25  1  0  0  0  0
  1 26  1  0  0  0  0
  1 27  1  0  0  0  0
  2 22  2  0  0  0  0
  2  3  1  0  0  0  0
  3  4  2  0  0  0  0
  4  5  1  0  0  0  0
  4 28  1  0  0  0  0
  5  6  1  0  0  0  0
  5 20  1  0  0  0  0
  6  7  1  0  0  0  0
  6 29  1  0  0  0  0
  6 30  1  0  0  0  0
  7  8  1  0  0  0  0
  7  9  1  0  0  0  0
  7 31  1  0  0  0  0
  8 32  1  0  0  0  0
  9 10  1  0  0  0  0
  9 33  1  0  0  0  0
  9 34  1  0  0  0  0
 10 11  1  0  0  0  0
 11 19  1  0  0  0  0
 11 12  2  0  0  0  0
 12 13  1  0  0  0  0
 12 35  1  0  0  0  0
 13 14  2  0  0  0  0
 13 36  1  0  0  0  0
 14 15  1  0  0  0  0
 14 37  1  0  0  0  0
 15 19  2  0  0  0  0
 15 16  1  0  0  0  0
 16 24  1  0  0  0  0
 16 17  1  0  0  0  0
 17 18  2  0  0  0  0
 17 38  1  0  0  0  0
 18 19  1  0  0  0  0
 18 39  1  0  0  0  0
 20 21  2  0  0  0  0
 20 22  1  0  0  0  0
 22 23  1  0  0  0  0
 23 40  1  0  0  0  0
 23 41  1  0  0  0  0
 23 42  1  0  0  0  0
M  END
> <s_m_source_file>
AV-unprocessed.smi

> <i_m_source_file_index>
2256

> <i_lp_mmshare_version>
43012

> <i_f3d_flags>
0

> <s_epik_input>
W0NIM11jMW5bY0hdbihjKD1PKWMxW0NIM10pW0NIMl1bQ0BIXShbT0hdKVtDSDJdT2MoW2NIXVtjSF1bY0hdMiljKGMyMylbY0hdW2NIXVtuSF0z

> <s_epik_cmdline>
J2VwaWtfcHl0aG9uJywgJy1waCcsICc3LjAnLCAnLXRuJywgJzgnLCAnLW1hJywgJzIwMCcsICctbWV0YWxfYmluZGluZycsICctaW1hZScsICc8aW5maWxlLm1hZT4nLCAnLW9tYWUnLCAnPG91dGZpbGUubWFlPic=

> <r_lp_tautomer_probability>
1

> <r_epik_Ionization_Penalty>
4.18314e-05

> <r_epik_Ionization_Penalty_Charging>
1.04093e-07

> <r_epik_Ionization_Penalty_Neutral>
4.17273e-05

> <r_epik_State_Penalty>
-0

> <r_epik_Charging_Adjusted_Penalty>
1.04093e-07

> <i_epik_Tot_Q>
0

> <i_epik_Tot_abs_Q>
0

> <r_epik_Metal_State_Penalty>
-0

> <b_epik_Metal_Only>
0

> <s_lp_Force_Field>
OPLS_2005

> <r_lp_Energy>
26.398

> <b_lp_Chiralities_Consistent>
1

> <s_lp_Variant>
AV-unprocessed.smi:2256-1

> <Gold.Version>
5.8.1

> <Gold.Id.Protein>
6NUR|6NUR_protein|mol2

> <Gold.PLP.Fitness>
46.1818

> <Gold.PLP.PLP>
-39.5703

> <Gold.PLP.part.hbond>
-2.9454

> <Gold.PLP.part.metal>
0.0000

> <Gold.PLP.part.buried>
-3.9256

> <Gold.PLP.part.nonpolar>
-33.5224

> <Gold.PLP.part.repulsive>
0.4287

> <Gold.PLP.ligand.clash>
0.0000

> <Gold.PLP.ligand.torsion>
0.7510

> <Gold.PLP.Chemscore.Hbond>
2.6400

> <Gold.PLP.Chemscore.CHOScore>
0.0000

> <Gold.PLP.Chemscore.Metal>
0.0000

> <Gold.Chemscore.Hbonds>
donor molecule, donor type, donor heavy atom, donor atom, acceptor molecule, acceptor atom, score
      L1  H     8    32       P1  7949  0.61
      P1  H  7997  8009       L1    21  1.00
      P1  H 10752 10763       L1     8  0.89

> <Gold.PLP.Chemscore.Internal.Correction>
0.1935

> <Gold.Rescore>
     Score         DG    S(hbond)    S(metal)    S(lipo)     H(rot)  DE(clash)    DE(int)     intcor
     14.07     -16.83       2.31        0.00      87.42       2.58       0.06       2.70       ----

> <Gold.Chemscore.Fitness>
14.0716

> <Gold.Chemscore.DG>
-16.8345

> <Gold.Chemscore.ZeroCoef>
-5.4800

> <Gold.Chemscore.Hbond>
2.3149

> <Gold.Chemscore.Metal>
0.0000

> <Gold.Chemscore.Lipo>
87.4243

> <Gold.Chemscore.Internal_Hbond>
0.0000

> <Gold.Chemscore.DEClash>
0.0582

> <Gold.Chemscore.DEInternal>
2.7047

> <Gold.Chemscore.Rot>
2.5804

> <Gold.Chemscore.Internal.Correction>
   9.000000E+99

> <Gold.Chemscore.Hbonds>
donor molecule, donor type, donor heavy atom, donor atom, acceptor molecule, acceptor atom, score
      L1  H     8    32       P1  7949  0.33
      P1  H  7997  8009       L1    21  0.65
      P1  H 10752 10763       L1     8  0.84

> <Gold.Chemscore.Hbond.Weighted>
-7.7318

> <Gold.Chemscore.Metal.Weighted>
-0.0000

> <Gold.Chemscore.Lipo.Weighted>
-10.2286

> <Gold.Chemscore.Internal_Hbond.Weighted>
0.0000

> <Gold.Chemscore.DEClash.Weighted>
0.0582

> <Gold.Chemscore.DEInternal.Weighted>
2.7047

> <Gold.Chemscore.Rot.Weighted>
6.6059

> <Gold.Chemscore.Internal.Correction.Weighted>
   9.000000E+99

> <Gold.Protein.RotatedTorsions>
[ 6907 6896 6895 6894 ] final -150.94 input  -60.11 | X-H torsion
[ 7974 7965 7964 7962 ] final   25.95 input  175.53 | X-H torsion
[ 8008 7997 7996 7995 ] final -174.53 input   59.86 | X-H torsion
[ 10167 10162 10161 10158 ] final  -49.65 input  -65.29 | X-H torsion
[ 10718 10713 10712 10709 ] final  -39.71 input   66.30 | X-H torsion
[ 10763 10752 10751 10750 ] final   48.33 input  -60.55 | X-H torsion
[ 11005 11000 10999 10996 ] final   53.73 input  -57.11 | X-H torsion

> <Gold.Protein.ActiveResidues>
 VAL166  LYS551  ARG553  GLY616  TRP617  ASP618  TYR619  PRO620  LYS621  CYS622 
 ASP623  PHE694  ASN695  SER759  ASP760  ASP761  ALA762  ILE779  LEU786  VAL792 
 PHE793  MET794  SER795  GLU796  ALA797  LYS798  CYS799  TRP800  GLU811  SER814 

> <Gold.Protein.RotatedAtoms>
  151.2058  133.4584  159.2596 H   0  0  0  0  0  0  0  0  0  0  0  0  # atno 6907 bound_to 6896
  151.1025  134.9980  159.8465 H   0  0  0  0  0  0  0  0  0  0  0  0  # atno 6908 bound_to 6896
  152.5444  134.1983  159.8755 H   0  0  0  0  0  0  0  0  0  0  0  0  # atno 6909 bound_to 6896
  146.1862  139.7395  142.8864 H   0  0  0  0  0  0  0  0  0  0  0  0  # atno 7974 bound_to 7965
  155.9712  140.1163  157.0810 H   0  0  0  0  0  0  0  0  0  0  0  0  # atno 8008 bound_to 7997
  154.4157  140.1163  156.5376 H   0  0  0  0  0  0  0  0  0  0  0  0  # atno 8009 bound_to 7997
  155.6594  140.3473  155.4779 H   0  0  0  0  0  0  0  0  0  0  0  0  # atno 8010 bound_to 7997
  140.6675  143.2689  151.4245 H   0  0  0  0  0  0  0  0  0  0  0  0  # atno 10167 bound_to 10162
  156.2894  130.4226  149.8254 H   0  0  0  0  0  0  0  0  0  0  0  0  # atno 10718 bound_to 10713
  152.9793  135.5947  154.3908 H   0  0  0  0  0  0  0  0  0  0  0  0  # atno 10763 bound_to 10752
  154.3563  135.2767  155.2346 H   0  0  0  0  0  0  0  0  0  0  0  0  # atno 10764 bound_to 10752
  154.4363  135.6024  153.6155 H   0  0  0  0  0  0  0  0  0  0  0  0  # atno 10765 bound_to 10752
  140.0743  134.5426  155.9012 H   0  0  0  0  0  0  0  0  0  0  0  0  # atno 11005 bound_to 11000
  145.3930  141.0375  143.3113 LP  0  0  0  0  0  0  0  0  0  0  0  0  # atno 17320 bound_to 7965
  144.8402  139.5484  143.6903 LP  0  0  0  0  0  0  0  0  0  0  0  0  # atno 17321 bound_to 7965
  139.5929  144.1459  152.2110 LP  0  0  0  0  0  0  0  0  0  0  0  0  # atno 17342 bound_to 10162
  140.0819  144.5693  150.7116 LP  0  0  0  0  0  0  0  0  0  0  0  0  # atno 17343 bound_to 10162
  156.5672  130.8409  151.3346 LP  0  0  0  0  0  0  0  0  0  0  0  0  # atno 17370 bound_to 10713
  157.7338  130.9736  150.1996 LP  0  0  0  0  0  0  0  0  0  0  0  0  # atno 17371 bound_to 10713
  141.2024  133.6624  156.6003 LP  0  0  0  0  0  0  0  0  0  0  0  0  # atno 17394 bound_to 11000
  140.3580  134.7712  157.4514 LP  0  0  0  0  0  0  0  0  0  0  0  0  # atno 17395 bound_to 11000

$$$$
