AV-unprocessed.smi:243|AV-procd|sdf|1857|dock4
  -GOLD-   2262020483D 1   1.00000     0.00000
 Structure written by MMmdl.
 58 61  0  0  0  0  0  0  0  0  2 V2000
  145.8536  129.9949  152.1369 C   0  0  0  0  0  0  0  0  0  0  0  0
  145.3461  131.0794  151.1762 C   0  0  0  0  0  0  0  0  0  0  0  0
  146.3468  132.1564  150.9479 N   0  3  1  0  0  0  0  0  0  0  0  0
  145.9981  133.0558  149.8193 C   0  0  0  0  0  0  0  0  0  0  0  0
  144.8470  134.0068  150.1855 C   0  0  0  0  0  0  0  0  0  0  0  0
  145.1818  134.8246  151.4535 C   0  0  1  0  0  0  0  0  0  0  0  0
  144.1309  135.7946  151.7991 N   0  0  0  0  0  0  0  0  0  0  0  0
  142.7897  135.2865  152.0674 C   0  0  0  0  0  0  0  0  0  0  0  0
  144.4021  136.9892  152.3901 C   0  0  0  0  0  0  0  0  0  0  0  0
  143.8685  137.2923  153.6025 N   0  0  0  0  0  0  0  0  0  0  0  0
  144.1227  138.4695  154.1807 C   0  0  0  0  0  0  0  0  0  0  0  0
  144.8735  139.4747  153.7290 N   0  0  0  0  0  0  0  0  0  0  0  0
  145.4156  139.1793  152.5131 C   0  0  0  0  0  0  0  0  0  0  0  0
  145.2281  137.9745  151.7777 C   0  0  0  0  0  0  0  0  0  0  0  0
  145.9375  138.0358  150.5841 N   0  0  0  0  0  0  0  0  0  0  0  0
  146.5060  139.2100  150.6100 C   0  0  0  0  0  0  0  0  0  0  0  0
  146.2559  139.9592  151.7376 N   0  0  0  0  0  0  0  0  0  0  0  0
  146.7652  141.2911  152.0280 C   0  0  0  0  0  0  0  0  0  0  0  0
  148.2824  141.3203  152.3300 C   0  0  1  0  0  0  0  0  0  0  0  0
  148.9955  141.2563  151.1065 O   0  0  0  0  0  0  0  0  0  0  0  0
  148.7177  142.5776  153.0711 C   0  0  0  0  0  0  0  0  0  0  0  0
  149.9405  142.1033  153.8451 C   0  0  0  0  0  0  0  0  0  0  0  0
  149.5646  140.8042  154.2704 O   0  0  0  0  0  0  0  0  0  0  0  0
  148.7846  140.1874  153.2495 C   0  0  0  0  0  0  0  0  0  0  0  0
  145.6171  133.9022  152.6264 C   0  0  2  0  0  0  0  0  0  0  0  0
  146.1024  134.7085  153.8440 C   0  0  0  0  0  0  0  0  0  0  0  0
  146.7268  132.9321  152.1597 C   0  0  0  0  0  0  0  0  0  0  0  0
  145.1429  129.1698  152.1907 H   0  0  0  0  0  0  0  0  0  0  0  0
  145.9827  130.3732  153.1505 H   0  0  0  0  0  0  0  0  0  0  0  0
  146.8078  129.5860  151.8031 H   0  0  0  0  0  0  0  0  0  0  0  0
  145.1269  130.5979  150.2226 H   0  0  0  0  0  0  0  0  0  0  0  0
  144.4009  131.4890  151.5319 H   0  0  0  0  0  0  0  0  0  0  0  0
  146.8816  133.6384  149.5546 H   0  0  0  0  0  0  0  0  0  0  0  0
  145.7447  132.4713  148.9342 H   0  0  0  0  0  0  0  0  0  0  0  0
  144.6573  134.6766  149.3465 H   0  0  0  0  0  0  0  0  0  0  0  0
  143.9344  133.4278  150.3179 H   0  0  0  0  0  0  0  0  0  0  0  0
  146.0565  135.4284  151.2064 H   0  0  0  0  0  0  0  0  0  0  0  0
  142.4645  135.5408  153.0772 H   0  0  0  0  0  0  0  0  0  0  0  0
  142.7500  134.2015  151.9694 H   0  0  0  0  0  0  0  0  0  0  0  0
  142.0758  135.7069  151.3591 H   0  0  0  0  0  0  0  0  0  0  0  0
  143.6575  138.6290  155.1422 H   0  0  0  0  0  0  0  0  0  0  0  0
  147.1348  139.5618  149.8046 H   0  0  0  0  0  0  0  0  0  0  0  0
  146.5368  141.9371  151.1791 H   0  0  0  0  0  0  0  0  0  0  0  0
  146.2065  141.6926  152.8745 H   0  0  0  0  0  0  0  0  0  0  0  0
  148.7222  140.4797  150.6419 H   0  0  0  0  0  0  0  0  0  0  0  0
  148.9249  143.4255  152.4168 H   0  0  0  0  0  0  0  0  0  0  0  0
  147.9475  142.8853  153.7798 H   0  0  0  0  0  0  0  0  0  0  0  0
  150.8150  142.0374  153.1960 H   0  0  0  0  0  0  0  0  0  0  0  0
  150.1841  142.7489  154.6891 H   0  0  0  0  0  0  0  0  0  0  0  0
  147.9664  139.6560  153.7337 H   0  0  0  0  0  0  0  0  0  0  0  0
  149.3796  139.4482  152.7109 H   0  0  0  0  0  0  0  0  0  0  0  0
  144.7756  133.2980  152.9599 H   0  0  0  0  0  0  0  0  0  0  0  0
  146.9421  135.3538  153.5844 H   0  0  0  0  0  0  0  0  0  0  0  0
  146.4273  134.0475  154.6480 H   0  0  0  0  0  0  0  0  0  0  0  0
  145.3116  135.3406  154.2484 H   0  0  0  0  0  0  0  0  0  0  0  0
  147.0109  132.2598  152.9686 H   0  0  0  0  0  0  0  0  0  0  0  0
  147.6266  133.5017  151.9220 H   0  0  0  0  0  0  0  0  0  0  0  0
  147.1839  131.6730  150.6541 H   0  0  0  0  0  0  0  0  0  0  0  0
  1  2  1  0  0  0  0
  1 28  1  0  0  0  0
  1 29  1  0  0  0  0
  1 30  1  0  0  0  0
  2  3  1  0  0  0  0
  2 31  1  0  0  0  0
  2 32  1  0  0  0  0
  3 27  1  0  0  0  0
  3  4  1  0  0  0  0
  3 58  1  0  0  0  0
  4  5  1  0  0  0  0
  4 33  1  0  0  0  0
  4 34  1  0  0  0  0
  5  6  1  0  0  0  0
  5 35  1  0  0  0  0
  5 36  1  0  0  0  0
  6  7  1  0  0  0  0
  6 25  1  0  0  0  0
  6 37  1  0  0  0  0
  7  8  1  0  0  0  0
  7  9  1  0  0  0  0
  8 38  1  0  0  0  0
  8 39  1  0  0  0  0
  8 40  1  0  0  0  0
  9 14  1  0  0  0  0
  9 10  2  0  0  0  0
 10 11  1  0  0  0  0
 11 12  2  0  0  0  0
 11 41  1  0  0  0  0
 12 13  1  0  0  0  0
 13 17  1  0  0  0  0
 13 14  2  0  0  0  0
 14 15  1  0  0  0  0
 15 16  2  0  0  0  0
 16 17  1  0  0  0  0
 16 42  1  0  0  0  0
 17 18  1  0  0  0  0
 18 19  1  0  0  0  0
 18 43  1  0  0  0  0
 18 44  1  0  0  0  0
 19 24  1  0  0  0  0
 19 20  1  0  0  0  0
 19 21  1  0  0  0  0
 20 45  1  0  0  0  0
 21 22  1  0  0  0  0
 21 46  1  0  0  0  0
 21 47  1  0  0  0  0
 22 23  1  0  0  0  0
 22 48  1  0  0  0  0
 22 49  1  0  0  0  0
 23 24  1  0  0  0  0
 24 50  1  0  0  0  0
 24 51  1  0  0  0  0
 25 26  1  0  0  0  0
 25 27  1  0  0  0  0
 25 52  1  0  0  0  0
 26 53  1  0  0  0  0
 26 54  1  0  0  0  0
 26 55  1  0  0  0  0
 27 56  1  0  0  0  0
 27 57  1  0  0  0  0
M  CHG  1   3   1
M  END
> <s_m_source_file>
AV-unprocessed.smi

> <i_m_source_file_index>
243

> <i_lp_mmshare_version>
43012

> <i_f3d_flags>
0

> <s_epik_input>
W0NIM11bQ0gyXU4xW0NIMl1bQ0gyXVtDQEhdKFtDQEBIXShbQ0gzXSlbQ0gyXTEpTihbQ0gzXSljKG5bY0hdbjIpYyhjMjMpbltjSF1uM1tDSDJdW0NAQF00KFtPSF0pW0NIMl1bQ0gyXU9bQ0gyXTQ=

> <s_epik_cmdline>
J2VwaWtfcHl0aG9uJywgJy1waCcsICc3LjAnLCAnLXRuJywgJzgnLCAnLW1hJywgJzIwMCcsICctbWV0YWxfYmluZGluZycsICctaW1hZScsICc8aW5maWxlLm1hZT4nLCAnLW9tYWUnLCAnPG91dGZpbGUubWFlPic=

> <r_lp_tautomer_probability>
1

> <r_epik_Ionization_Penalty>
0.00253099

> <r_epik_Ionization_Penalty_Charging>
0.00137877

> <r_epik_Ionization_Penalty_Neutral>
0.00115221

> <r_epik_State_Penalty>
-0

> <r_epik_Charging_Adjusted_Penalty>
0.00137877

> <i_epik_Tot_Q>
1

> <i_epik_Tot_abs_Q>
1

> <r_epik_Metal_State_Penalty>
-0

> <b_epik_Metal_Only>
0

> <s_lp_Force_Field>
OPLS_2005

> <r_lp_Energy>
46.501

> <b_lp_Chiralities_Consistent>
1

> <s_lp_Variant>
AV-unprocessed.smi:243-10

> <Gold.Version>
5.8.1

> <Gold.Id.Protein>
6NUR|6NUR_protein|mol2

> <Gold.PLP.Fitness>
46.4344

> <Gold.PLP.PLP>
-37.5467

> <Gold.PLP.part.hbond>
-2.5977

> <Gold.PLP.part.metal>
0.0000

> <Gold.PLP.part.buried>
-4.2289

> <Gold.PLP.part.nonpolar>
-31.6827

> <Gold.PLP.part.repulsive>
0.8003

> <Gold.PLP.ligand.clash>
0.0000

> <Gold.PLP.ligand.torsion>
1.5709

> <Gold.PLP.Chemscore.Hbond>
2.7154

> <Gold.PLP.Chemscore.CHOScore>
1.0000

> <Gold.PLP.Chemscore.Metal>
0.0000

> <Gold.Chemscore.Hbonds>
donor molecule, donor type, donor heavy atom, donor atom, acceptor molecule, acceptor atom, score
      L1  H     3    58       P1 10747  1.00
      L1  C    16    42       P1  7957  0.10

> <Gold.PLP.Chemscore.Internal.Correction>
0.8833

> <Gold.Rescore>
     Score         DG    S(hbond)    S(metal)    S(lipo)     H(rot)  DE(clash)    DE(int)     intcor
     14.76     -17.50       2.16        0.00      90.05       2.24       1.39       1.35       ----

> <Gold.Chemscore.Fitness>
14.7607

> <Gold.Chemscore.DG>
-17.5012

> <Gold.Chemscore.ZeroCoef>
-5.4800

> <Gold.Chemscore.Hbond>
2.1599

> <Gold.Chemscore.Metal>
0.0000

> <Gold.Chemscore.Lipo>
90.0520

> <Gold.Chemscore.Internal_Hbond>
0.0000

> <Gold.Chemscore.DEClash>
1.3870

> <Gold.Chemscore.DEInternal>
1.3535

> <Gold.Chemscore.Rot>
2.2379

> <Gold.Chemscore.Internal.Correction>
   9.000000E+99

> <Gold.Chemscore.Hbonds>
donor molecule, donor type, donor heavy atom, donor atom, acceptor molecule, acceptor atom, score
      L1  H     3    58       P1 10747  0.96

> <Gold.Chemscore.Hbond.Weighted>
-7.2142

> <Gold.Chemscore.Metal.Weighted>
-0.0000

> <Gold.Chemscore.Lipo.Weighted>
-10.5361

> <Gold.Chemscore.Internal_Hbond.Weighted>
0.0000

> <Gold.Chemscore.DEClash.Weighted>
1.3870

> <Gold.Chemscore.DEInternal.Weighted>
1.3535

> <Gold.Chemscore.Rot.Weighted>
5.7291

> <Gold.Chemscore.Internal.Correction.Weighted>
   9.000000E+99

> <Gold.Protein.RotatedTorsions>
[ 6907 6896 6895 6894 ] final  -59.59 input  -60.11 | X-H torsion
[ 7974 7965 7964 7962 ] final -155.36 input  175.53 | X-H torsion
[ 8008 7997 7996 7995 ] final    5.39 input   59.86 | X-H torsion
[ 10167 10162 10161 10158 ] final   28.73 input  -65.29 | X-H torsion
[ 10718 10713 10712 10709 ] final   90.60 input   66.30 | X-H torsion
[ 10763 10752 10751 10750 ] final -139.93 input  -60.55 | X-H torsion
[ 11005 11000 10999 10996 ] final -169.83 input  -57.11 | X-H torsion

> <Gold.Protein.ActiveResidues>
 VAL166  LYS551  ARG553  GLY616  TRP617  ASP618  TYR619  PRO620  LYS621  CYS622 
 ASP623  PHE694  ASN695  SER759  ASP760  ASP761  ALA762  ILE779  LEU786  VAL792 
 PHE793  MET794  SER795  GLU796  ALA797  LYS798  CYS799  TRP800  GLU811  SER814 

> <Gold.Protein.RotatedAtoms>
  150.7919  134.6948  159.6516 H   0  0  0  0  0  0  0  0  0  0  0  0  # atno 6907 bound_to 6896
  152.4025  134.6259  160.0072 H   0  0  0  0  0  0  0  0  0  0  0  0  # atno 6908 bound_to 6896
  151.6526  133.3283  159.3191 H   0  0  0  0  0  0  0  0  0  0  0  0  # atno 6909 bound_to 6896
  144.7644  140.4259  143.5953 H   0  0  0  0  0  0  0  0  0  0  0  0  # atno 7974 bound_to 7965
  154.7278  140.2724  155.6483 H   0  0  0  0  0  0  0  0  0  0  0  0  # atno 8008 bound_to 7997
  156.2841  140.2721  156.1894 H   0  0  0  0  0  0  0  0  0  0  0  0  # atno 8009 bound_to 7997
  155.0422  140.0371  157.2503 H   0  0  0  0  0  0  0  0  0  0  0  0  # atno 8010 bound_to 7997
  140.4827  144.0590  150.6270 H   0  0  0  0  0  0  0  0  0  0  0  0  # atno 10167 bound_to 10162
  157.6959  131.0377  150.3603 H   0  0  0  0  0  0  0  0  0  0  0  0  # atno 10718 bound_to 10713
  154.8594  135.3568  154.5626 H   0  0  0  0  0  0  0  0  0  0  0  0  # atno 10763 bound_to 10752
  153.6241  135.7005  153.5304 H   0  0  0  0  0  0  0  0  0  0  0  0  # atno 10764 bound_to 10752
  153.3104  135.4180  155.1291 H   0  0  0  0  0  0  0  0  0  0  0  0  # atno 10765 bound_to 10752
  140.5264  134.5659  157.5062 H   0  0  0  0  0  0  0  0  0  0  0  0  # atno 11005 bound_to 11000
  145.6518  139.1566  143.2858 LP  0  0  0  0  0  0  0  0  0  0  0  0  # atno 17320 bound_to 7965
  146.1737  140.6606  142.9221 LP  0  0  0  0  0  0  0  0  0  0  0  0  # atno 17321 bound_to 7965
  140.3837  143.2789  152.0141 LP  0  0  0  0  0  0  0  0  0  0  0  0  # atno 17342 bound_to 10162
  139.4836  144.6134  151.7391 LP  0  0  0  0  0  0  0  0  0  0  0  0  # atno 17343 bound_to 10162
  156.4040  130.3921  149.6939 LP  0  0  0  0  0  0  0  0  0  0  0  0  # atno 17370 bound_to 10713
  156.4246  130.7785  151.2804 LP  0  0  0  0  0  0  0  0  0  0  0  0  # atno 17371 bound_to 10713
  139.9578  134.7505  156.0303 LP  0  0  0  0  0  0  0  0  0  0  0  0  # atno 17394 bound_to 11000
  141.1306  133.6587  156.3454 LP  0  0  0  0  0  0  0  0  0  0  0  0  # atno 17395 bound_to 11000

$$$$
