AV-unprocessed.smi:818|AV-procd|sdf|3832|dock3
  -GOLD-   22720 1273D 1   1.00000     0.00000
 Structure written by MMmdl.
 44 45  0  0  0  0  0  0  0  0  1 V2000
  145.1779  132.2432  149.8130 C   0  0  0  0  0  0  0  0  0  0  0  0
  144.0841  133.3155  149.8760 C   0  0  0  0  0  0  0  0  0  0  0  0
  144.4893  134.4457  150.6884 N   0  0  0  0  0  0  0  0  0  0  0  0
  145.5705  135.2847  150.5046 C   0  0  0  0  0  0  0  0  0  0  0  0
  145.5118  136.1908  151.5255 C   0  0  0  0  0  0  0  0  0  0  0  0
  146.3750  137.2778  151.8140 N   0  0  0  0  0  0  0  0  0  0  0  0
  146.3424  138.0809  152.8899 C   0  0  0  0  0  0  0  0  0  0  0  0
  145.5266  138.0018  153.8089 O   0  0  0  0  0  0  0  0  0  0  0  0
  147.3232  138.9948  152.8459 N   0  0  0  0  0  0  0  0  0  0  0  0
  147.5870  139.9973  153.8772 C   0  0  2  0  0  0  0  0  0  0  0  0
  147.0211  141.3421  153.3916 C   0  0  0  0  0  0  0  0  0  0  0  0
  149.0995  140.1636  154.0943 C   0  0  0  0  0  0  0  0  0  0  0  0
  149.6246  141.2763  154.0281 O   0  0  0  0  0  0  0  0  0  0  0  0
  149.7849  139.0427  154.3652 N   0  0  0  0  0  0  0  0  0  0  0  0
  151.2248  138.9769  154.5963 C   0  0  0  0  0  0  0  0  0  0  0  0
  151.6682  137.5654  155.0361 C   0  0  0  0  0  0  0  0  0  0  0  0
  152.5300  137.7608  156.2848 C   0  0  0  0  0  0  0  0  0  0  0  0
  151.9836  139.0326  156.9252 C   0  0  0  0  0  0  0  0  0  0  0  0
  151.6341  139.9276  155.7359 C   0  0  0  0  0  0  0  0  0  0  0  0
  144.3688  135.8401  152.2896 C   0  0  0  0  0  0  0  0  0  0  0  0
  143.7554  134.7841  151.7774 N   0  0  0  0  0  0  0  0  0  0  0  0
  144.8581  131.3994  149.2015 H   0  0  0  0  0  0  0  0  0  0  0  0
  145.4140  131.8634  150.8076 H   0  0  0  0  0  0  0  0  0  0  0  0
  146.0961  132.6399  149.3784 H   0  0  0  0  0  0  0  0  0  0  0  0
  143.8406  133.6703  148.8735 H   0  0  0  0  0  0  0  0  0  0  0  0
  143.1688  132.8957  150.2948 H   0  0  0  0  0  0  0  0  0  0  0  0
  146.2595  135.1605  149.6822 H   0  0  0  0  0  0  0  0  0  0  0  0
  147.0999  137.4558  151.1345 H   0  0  0  0  0  0  0  0  0  0  0  0
  147.9515  138.9812  152.0560 H   0  0  0  0  0  0  0  0  0  0  0  0
  147.0988  139.7098  154.8106 H   0  0  0  0  0  0  0  0  0  0  0  0
  147.1875  142.1305  154.1269 H   0  0  0  0  0  0  0  0  0  0  0  0
  145.9451  141.2748  153.2279 H   0  0  0  0  0  0  0  0  0  0  0  0
  147.4775  141.6607  152.4530 H   0  0  0  0  0  0  0  0  0  0  0  0
  149.2753  138.1719  154.4023 H   0  0  0  0  0  0  0  0  0  0  0  0
  151.7508  139.2726  153.6865 H   0  0  0  0  0  0  0  0  0  0  0  0
  150.8029  136.9528  155.2958 H   0  0  0  0  0  0  0  0  0  0  0  0
  152.2074  137.0395  154.2473 H   0  0  0  0  0  0  0  0  0  0  0  0
  152.4955  136.9031  156.9572 H   0  0  0  0  0  0  0  0  0  0  0  0
  153.5699  137.9152  155.9938 H   0  0  0  0  0  0  0  0  0  0  0  0
  151.0798  138.8007  157.4904 H   0  0  0  0  0  0  0  0  0  0  0  0
  152.6946  139.4992  157.6077 H   0  0  0  0  0  0  0  0  0  0  0  0
  152.5226  140.4844  155.4352 H   0  0  0  0  0  0  0  0  0  0  0  0
  150.8672  140.6622  155.9863 H   0  0  0  0  0  0  0  0  0  0  0  0
  143.9710  136.3069  153.1788 H   0  0  0  0  0  0  0  0  0  0  0  0
  1  2  1  0  0  0  0
  1 22  1  0  0  0  0
  1 23  1  0  0  0  0
  1 24  1  0  0  0  0
  2  3  1  0  0  0  0
  2 25  1  0  0  0  0
  2 26  1  0  0  0  0
  3 21  1  0  0  0  0
  3  4  1  0  0  0  0
  4  5  2  0  0  0  0
  4 27  1  0  0  0  0
  5  6  1  0  0  0  0
  5 20  1  0  0  0  0
  6  7  1  0  0  0  0
  6 28  1  0  0  0  0
  7  8  2  0  0  0  0
  7  9  1  0  0  0  0
  9 10  1  0  0  0  0
  9 29  1  0  0  0  0
 10 11  1  0  0  0  0
 10 12  1  0  0  0  0
 10 30  1  0  0  0  0
 11 31  1  0  0  0  0
 11 32  1  0  0  0  0
 11 33  1  0  0  0  0
 12 13  2  0  0  0  0
 12 14  1  0  0  0  0
 14 15  1  0  0  0  0
 14 34  1  0  0  0  0
 15 19  1  0  0  0  0
 15 16  1  0  0  0  0
 15 35  1  0  0  0  0
 16 17  1  0  0  0  0
 16 36  1  0  0  0  0
 16 37  1  0  0  0  0
 17 18  1  0  0  0  0
 17 38  1  0  0  0  0
 17 39  1  0  0  0  0
 18 19  1  0  0  0  0
 18 40  1  0  0  0  0
 18 41  1  0  0  0  0
 19 42  1  0  0  0  0
 19 43  1  0  0  0  0
 20 21  2  0  0  0  0
 20 44  1  0  0  0  0
M  END
> <s_m_source_file>
AV-unprocessed.smi

> <i_m_source_file_index>
818

> <i_lp_mmshare_version>
43012

> <i_f3d_flags>
0

> <s_epik_input>
W0NIM11bQ0gyXW4xW2NIXWMoW2NIXW4xKVtOSF1DKD1PKVtOSF1bQ0BIXShbQ0gzXSlDKD1PKVtOSF1bQ0hdMltDSDJdW0NIMl1bQ0gyXVtDSDJdMg==

> <s_epik_cmdline>
J2VwaWtfcHl0aG9uJywgJy1waCcsICc3LjAnLCAnLXRuJywgJzgnLCAnLW1hJywgJzIwMCcsICctbWV0YWxfYmluZGluZycsICctaW1hZScsICc8aW5maWxlLm1hZT4nLCAnLW9tYWUnLCAnPG91dGZpbGUubWFlPic=

> <r_lp_tautomer_probability>
1

> <r_epik_Ionization_Penalty>
0.00015627

> <r_epik_Ionization_Penalty_Charging>
0

> <r_epik_Ionization_Penalty_Neutral>
0.00015627

> <r_epik_State_Penalty>
-0

> <r_epik_Charging_Adjusted_Penalty>
0

> <i_epik_Tot_Q>
0

> <i_epik_Tot_abs_Q>
0

> <r_epik_Metal_State_Penalty>
-0

> <b_epik_Metal_Only>
0

> <s_lp_Force_Field>
OPLS_2005

> <r_lp_Energy>
21.5062

> <b_lp_Chiralities_Consistent>
1

> <s_lp_Variant>
AV-unprocessed.smi:818-1

> <Gold.Version>
5.8.1

> <Gold.Id.Protein>
6NUR|6NUR_protein|mol2

> <Gold.PLP.Fitness>
44.2729

> <Gold.PLP.PLP>
-36.6859

> <Gold.PLP.part.hbond>
-4.0000

> <Gold.PLP.part.metal>
0.0000

> <Gold.PLP.part.buried>
-3.6503

> <Gold.PLP.part.nonpolar>
-30.2067

> <Gold.PLP.part.repulsive>
0.7347

> <Gold.PLP.ligand.clash>
0.0000

> <Gold.PLP.ligand.torsion>
0.4063

> <Gold.PLP.Chemscore.Hbond>
1.7850

> <Gold.PLP.Chemscore.CHOScore>
1.0000

> <Gold.PLP.Chemscore.Metal>
0.0000

> <Gold.Chemscore.Hbonds>
donor molecule, donor type, donor heavy atom, donor atom, acceptor molecule, acceptor atom, score
      L1  H     6    28       P1  7948  0.05
      L1  H     9    29       P1  7957  0.66
      P1  H  7989  7998       L1    13  0.28
      P1  H  8011  8017       L1    13  0.72
      L1  C     4    27       P1  7921  1.00

> <Gold.PLP.Chemscore.Internal.Correction>
0.0447

> <Gold.Rescore>
     Score         DG    S(hbond)    S(metal)    S(lipo)     H(rot)  DE(clash)    DE(int)     intcor
     13.22     -15.60       1.44        0.00      82.26       1.68       0.77       1.60       ----

> <Gold.Chemscore.Fitness>
13.2227

> <Gold.Chemscore.DG>
-15.5997

> <Gold.Chemscore.ZeroCoef>
-5.4800

> <Gold.Chemscore.Hbond>
1.4382

> <Gold.Chemscore.Metal>
0.0000

> <Gold.Chemscore.Lipo>
82.2567

> <Gold.Chemscore.Internal_Hbond>
0.0000

> <Gold.Chemscore.DEClash>
0.7733

> <Gold.Chemscore.DEInternal>
1.6038

> <Gold.Chemscore.Rot>
1.6828

> <Gold.Chemscore.Internal.Correction>
   9.000000E+99

> <Gold.Chemscore.Hbonds>
donor molecule, donor type, donor heavy atom, donor atom, acceptor molecule, acceptor atom, score
      L1  H     6    28       P1  7948  0.05
      L1  H     9    29       P1  7957  0.64
      P1  H  7989  7998       L1    13  0.13
      P1  H  8011  8017       L1    13  0.69

> <Gold.Chemscore.Hbond.Weighted>
-4.8038

> <Gold.Chemscore.Metal.Weighted>
-0.0000

> <Gold.Chemscore.Lipo.Weighted>
-9.6240

> <Gold.Chemscore.Internal_Hbond.Weighted>
0.0000

> <Gold.Chemscore.DEClash.Weighted>
0.7733

> <Gold.Chemscore.DEInternal.Weighted>
1.6038

> <Gold.Chemscore.Rot.Weighted>
4.3081

> <Gold.Chemscore.Internal.Correction.Weighted>
   9.000000E+99

> <Gold.Protein.RotatedTorsions>
[ 6907 6896 6895 6894 ] final   85.79 input  -60.11 | X-H torsion
[ 7974 7965 7964 7962 ] final   55.84 input  175.53 | X-H torsion
[ 8008 7997 7996 7995 ] final   67.83 input   59.86 | X-H torsion
[ 10167 10162 10161 10158 ] final -145.53 input  -65.29 | X-H torsion
[ 10718 10713 10712 10709 ] final  101.30 input   66.30 | X-H torsion
[ 10763 10752 10751 10750 ] final  170.12 input  -60.55 | X-H torsion
[ 11005 11000 10999 10996 ] final   33.16 input  -57.11 | X-H torsion

> <Gold.Protein.ActiveResidues>
 VAL166  LYS551  ARG553  GLY616  TRP617  ASP618  TYR619  PRO620  LYS621  CYS622 
 ASP623  PHE694  ASN695  SER759  ASP760  ASP761  ALA762  ILE779  LEU786  VAL792 
 PHE793  MET794  SER795  GLU796  ALA797  LYS798  CYS799  TRP800  GLU811  SER814 

> <Gold.Protein.RotatedAtoms>
  152.5382  134.2531  159.8906 H   0  0  0  0  0  0  0  0  0  0  0  0  # atno 6907 bound_to 6896
  151.2494  133.4351  159.2618 H   0  0  0  0  0  0  0  0  0  0  0  0  # atno 6908 bound_to 6896
  151.0553  134.9714  159.8289 H   0  0  0  0  0  0  0  0  0  0  0  0  # atno 6909 bound_to 6896
  145.9461  139.3931  143.0334 H   0  0  0  0  0  0  0  0  0  0  0  0  # atno 7974 bound_to 7965
  155.6990  140.3495  155.4925 H   0  0  0  0  0  0  0  0  0  0  0  0  # atno 8008 bound_to 7997
  155.9457  140.1110  157.1041 H   0  0  0  0  0  0  0  0  0  0  0  0  # atno 8009 bound_to 7997
  154.4111  140.1204  156.4972 H   0  0  0  0  0  0  0  0  0  0  0  0  # atno 8010 bound_to 7997
  139.7797  143.8119  152.2637 H   0  0  0  0  0  0  0  0  0  0  0  0  # atno 10167 bound_to 10162
  157.6833  131.0722  150.5232 H   0  0  0  0  0  0  0  0  0  0  0  0  # atno 10718 bound_to 10713
  154.3930  135.2754  155.2143 H   0  0  0  0  0  0  0  0  0  0  0  0  # atno 10763 bound_to 10752
  154.4201  135.6002  153.6008 H   0  0  0  0  0  0  0  0  0  0  0  0  # atno 10764 bound_to 10752
  152.9832  135.5970  154.4187 H   0  0  0  0  0  0  0  0  0  0  0  0  # atno 10765 bound_to 10752
  140.2660  134.3137  155.7842 H   0  0  0  0  0  0  0  0  0  0  0  0  # atno 11005 bound_to 11000
  145.8234  140.9667  143.0886 LP  0  0  0  0  0  0  0  0  0  0  0  0  # atno 17320 bound_to 7965
  144.6787  140.0071  143.7484 LP  0  0  0  0  0  0  0  0  0  0  0  0  # atno 17321 bound_to 7965
  139.8178  144.7309  150.9612 LP  0  0  0  0  0  0  0  0  0  0  0  0  # atno 17342 bound_to 10162
  140.7818  143.4188  151.0874 LP  0  0  0  0  0  0  0  0  0  0  0  0  # atno 17343 bound_to 10162
  156.5544  130.4240  149.6092 LP  0  0  0  0  0  0  0  0  0  0  0  0  # atno 17370 bound_to 10713
  156.2874  130.7105  151.1945 LP  0  0  0  0  0  0  0  0  0  0  0  0  # atno 17371 bound_to 10713
  141.2184  133.7438  156.9261 LP  0  0  0  0  0  0  0  0  0  0  0  0  # atno 17394 bound_to 11000
  140.1419  134.9288  157.2478 LP  0  0  0  0  0  0  0  0  0  0  0  0  # atno 17395 bound_to 11000

$$$$
