AV-unprocessed.smi:1046|AV-procd|sdf|4557|dock5
  -GOLD-   22720 2593D 1   1.00000     0.00000
 Structure written by MMmdl.
 54 56  0  0  0  0  0  0  0  0  3 V2000
  151.9819  140.1153  156.8315 C   0  0  0  0  0  0  0  0  0  0  0  0
  150.8181  139.8032  155.9071 C   0  0  0  0  0  0  0  0  0  0  0  0
  149.9314  140.8417  155.5438 C   0  0  0  0  0  0  0  0  0  0  0  0
  148.8378  140.5932  154.6862 C   0  0  0  0  0  0  0  0  0  0  0  0
  147.8556  141.4452  154.2115 N   0  0  0  0  0  0  0  0  0  0  0  0
  147.1265  140.6243  153.4620 C   0  0  0  0  0  0  0  0  0  0  0  0
  147.5137  139.3355  153.4038 N   0  0  0  0  0  0  0  0  0  0  0  0
  146.8673  138.2641  152.6686 C   0  0  0  0  0  0  0  0  0  0  0  0
  146.1635  137.2563  153.5981 C   0  0  1  0  0  0  0  0  0  0  0  0
  145.3009  137.9816  154.4508 O   0  0  0  0  0  0  0  0  0  0  0  0
  145.3362  136.1909  152.8447 C   0  0  0  0  0  0  0  0  0  0  0  0
  146.1898  135.1636  152.1949 N   0  3  2  0  0  0  0  0  0  0  0  0
  145.5550  134.5356  151.0071 C   0  0  0  0  0  0  0  0  0  0  0  0
  146.5160  133.5435  150.3257 C   0  0  0  0  0  0  0  0  0  0  0  0
  146.9965  132.5042  151.2701 N   0  3  2  0  0  0  0  0  0  0  0  0
  145.9890  131.4466  151.5538 C   0  0  0  0  0  0  0  0  0  0  0  0
  146.5156  130.3790  152.5281 C   0  0  0  0  0  0  0  0  0  0  0  0
  147.7676  129.9003  152.0847 O   0  0  0  0  0  0  0  0  0  0  0  0
  147.6096  133.1217  152.4752 C   0  0  0  0  0  0  0  0  0  0  0  0
  146.6679  134.1374  153.1551 C   0  0  0  0  0  0  0  0  0  0  0  0
  148.6541  139.2666  154.1975 C   0  0  0  0  0  0  0  0  0  0  0  0
  149.5298  138.2248  154.5516 C   0  0  0  0  0  0  0  0  0  0  0  0
  150.6171  138.4904  155.4098 C   0  0  0  0  0  0  0  0  0  0  0  0
  151.5586  137.3598  155.7852 C   0  0  0  0  0  0  0  0  0  0  0  0
  151.9981  141.1695  157.1098 H   0  0  0  0  0  0  0  0  0  0  0  0
  152.9295  139.8836  156.3447 H   0  0  0  0  0  0  0  0  0  0  0  0
  151.9102  139.5288  157.7476 H   0  0  0  0  0  0  0  0  0  0  0  0
  150.0850  141.8418  155.9220 H   0  0  0  0  0  0  0  0  0  0  0  0
  146.2551  140.9781  152.9303 H   0  0  0  0  0  0  0  0  0  0  0  0
  146.1478  138.7107  151.9806 H   0  0  0  0  0  0  0  0  0  0  0  0
  147.6152  137.7624  152.0531 H   0  0  0  0  0  0  0  0  0  0  0  0
  146.9217  136.7802  154.2189 H   0  0  0  0  0  0  0  0  0  0  0  0
  145.8104  138.6191  154.9285 H   0  0  0  0  0  0  0  0  0  0  0  0
  144.6570  135.7166  153.5551 H   0  0  0  0  0  0  0  0  0  0  0  0
  144.7040  136.6465  152.0821 H   0  0  0  0  0  0  0  0  0  0  0  0
  144.6372  134.0276  151.3072 H   0  0  0  0  0  0  0  0  0  0  0  0
  145.2666  135.2978  150.2844 H   0  0  0  0  0  0  0  0  0  0  0  0
  146.0427  133.0817  149.4584 H   0  0  0  0  0  0  0  0  0  0  0  0
  147.3820  134.0854  149.9432 H   0  0  0  0  0  0  0  0  0  0  0  0
  145.0732  131.8905  151.9439 H   0  0  0  0  0  0  0  0  0  0  0  0
  145.7077  130.9477  150.6251 H   0  0  0  0  0  0  0  0  0  0  0  0
  146.6048  130.7563  153.5463 H   0  0  0  0  0  0  0  0  0  0  0  0
  145.8220  129.5384  152.5641 H   0  0  0  0  0  0  0  0  0  0  0  0
  148.0442  130.4176  151.3426 H   0  0  0  0  0  0  0  0  0  0  0  0
  147.9254  132.3604  153.1874 H   0  0  0  0  0  0  0  0  0  0  0  0
  148.5205  133.6341  152.1625 H   0  0  0  0  0  0  0  0  0  0  0  0
  147.2016  134.6250  153.9718 H   0  0  0  0  0  0  0  0  0  0  0  0
  145.8122  133.6300  153.6022 H   0  0  0  0  0  0  0  0  0  0  0  0
  149.3680  137.2296  154.1649 H   0  0  0  0  0  0  0  0  0  0  0  0
  151.2478  136.4167  155.3348 H   0  0  0  0  0  0  0  0  0  0  0  0
  151.5810  137.2226  156.8665 H   0  0  0  0  0  0  0  0  0  0  0  0
  152.5707  137.5767  155.4422 H   0  0  0  0  0  0  0  0  0  0  0  0
  147.0132  135.6510  151.8689 H   0  0  0  0  0  0  0  0  0  0  0  0
  147.7399  132.0203  150.7853 H   0  0  0  0  0  0  0  0  0  0  0  0
  1  2  1  0  0  0  0
  1 25  1  0  0  0  0
  1 26  1  0  0  0  0
  1 27  1  0  0  0  0
  2 23  1  0  0  0  0
  2  3  2  0  0  0  0
  3  4  1  0  0  0  0
  3 28  1  0  0  0  0
  4 21  2  0  0  0  0
  4  5  1  0  0  0  0
  5  6  2  0  0  0  0
  6  7  1  0  0  0  0
  6 29  1  0  0  0  0
  7  8  1  0  0  0  0
  7 21  1  0  0  0  0
  8  9  1  0  0  0  0
  8 30  1  0  0  0  0
  8 31  1  0  0  0  0
  9 10  1  0  0  0  0
  9 11  1  0  0  0  0
  9 32  1  0  0  0  0
 10 33  1  0  0  0  0
 11 12  1  0  0  0  0
 11 34  1  0  0  0  0
 11 35  1  0  0  0  0
 12 20  1  0  0  0  0
 12 13  1  0  0  0  0
 12 53  1  0  0  0  0
 13 14  1  0  0  0  0
 13 36  1  0  0  0  0
 13 37  1  0  0  0  0
 14 15  1  0  0  0  0
 14 38  1  0  0  0  0
 14 39  1  0  0  0  0
 15 16  1  0  0  0  0
 15 19  1  0  0  0  0
 15 54  1  0  0  0  0
 16 17  1  0  0  0  0
 16 40  1  0  0  0  0
 16 41  1  0  0  0  0
 17 18  1  0  0  0  0
 17 42  1  0  0  0  0
 17 43  1  0  0  0  0
 18 44  1  0  0  0  0
 19 20  1  0  0  0  0
 19 45  1  0  0  0  0
 19 46  1  0  0  0  0
 20 47  1  0  0  0  0
 20 48  1  0  0  0  0
 21 22  1  0  0  0  0
 22 23  2  0  0  0  0
 22 49  1  0  0  0  0
 23 24  1  0  0  0  0
 24 50  1  0  0  0  0
 24 51  1  0  0  0  0
 24 52  1  0  0  0  0
M  CHG  1  12   1
M  CHG  1  15   1
M  END
> <s_m_source_file>
AV-unprocessed.smi

> <i_m_source_file_index>
1046

> <i_lp_mmshare_version>
43012

> <i_f3d_flags>
0

> <s_epik_input>
W0NIM11jKFtjSF0xKWMoW0NIM10pW2NIXWMoYzEyKW4oW2NIXW4yKVtDSDJdW0NASF0oW09IXSlbQ0gyXU4zW0NIMl1bQ0gyXU4oW0NIMl1bQ0gyXTMpW0NIMl1bQ0gyXVtPSF0=

> <s_epik_cmdline>
J2VwaWtfcHl0aG9uJywgJy1waCcsICc3LjAnLCAnLXRuJywgJzgnLCAnLW1hJywgJzIwMCcsICctbWV0YWxfYmluZGluZycsICctaW1hZScsICc8aW5maWxlLm1hZT4nLCAnLW9tYWUnLCAnPG91dGZpbGUubWFlPic=

> <r_epik_Ionization_Penalty>
3.17398

> <r_epik_Ionization_Penalty_Charging>
3.09061

> <r_epik_Ionization_Penalty_Neutral>
0.0833726

> <r_epik_State_Penalty>
2.17606

> <r_epik_Charging_Adjusted_Penalty>
5.26667

> <i_epik_Tot_Q>
2

> <i_epik_Tot_abs_Q>
2

> <r_epik_Metal_State_Penalty>
2.08587

> <b_epik_Metal_Only>
0

> <s_lp_Force_Field>
OPLS_2005

> <r_lp_Energy>
29.1343

> <b_lp_Chiralities_Consistent>
1

> <s_lp_Variant>
AV-unprocessed.smi:1046-10

> <Gold.Version>
5.8.1

> <Gold.Id.Protein>
6NUR|6NUR_protein|mol2

> <Gold.PLP.Fitness>
53.2702

> <Gold.PLP.PLP>
-39.5027

> <Gold.PLP.part.hbond>
-3.0000

> <Gold.PLP.part.metal>
0.0000

> <Gold.PLP.part.buried>
-1.9652

> <Gold.PLP.part.nonpolar>
-34.3818

> <Gold.PLP.part.repulsive>
0.2027

> <Gold.PLP.ligand.clash>
0.0000

> <Gold.PLP.ligand.torsion>
0.5221

> <Gold.PLP.Chemscore.Hbond>
4.0000

> <Gold.PLP.Chemscore.CHOScore>
0.8816

> <Gold.PLP.Chemscore.Metal>
0.0000

> <Gold.Chemscore.Hbonds>
donor molecule, donor type, donor heavy atom, donor atom, acceptor molecule, acceptor atom, score
      L1  H    12    53       P1  7948  2.00
      L1  H    15    54       P1 10747  1.00
      L1  H    18    44       P1 10747  0.84
      L1  C     6    29       P1 10175  0.71

> <Gold.PLP.Chemscore.Internal.Correction>
0.1667

> <Gold.Rescore>
     Score         DG    S(hbond)    S(metal)    S(lipo)     H(rot)  DE(clash)    DE(int)     intcor
     17.66     -18.67       2.91        0.00     101.39       3.28       0.29       0.72       ----

> <Gold.Chemscore.Fitness>
17.6631

> <Gold.Chemscore.DG>
-18.6659

> <Gold.Chemscore.ZeroCoef>
-5.4800

> <Gold.Chemscore.Hbond>
2.9124

> <Gold.Chemscore.Metal>
0.0000

> <Gold.Chemscore.Lipo>
101.3881

> <Gold.Chemscore.Internal_Hbond>
0.0000

> <Gold.Chemscore.DEClash>
0.2866

> <Gold.Chemscore.DEInternal>
0.7163

> <Gold.Chemscore.Rot>
3.2828

> <Gold.Chemscore.Internal.Correction>
   9.000000E+99

> <Gold.Chemscore.Hbonds>
donor molecule, donor type, donor heavy atom, donor atom, acceptor molecule, acceptor atom, score
      L1  H    12    53       P1  7948  0.96
      L1  H    15    54       P1 10747  1.00
      L1  H    18    44       P1 10747  0.80

> <Gold.Chemscore.Hbond.Weighted>
-9.7275

> <Gold.Chemscore.Metal.Weighted>
-0.0000

> <Gold.Chemscore.Lipo.Weighted>
-11.8624

> <Gold.Chemscore.Internal_Hbond.Weighted>
0.0000

> <Gold.Chemscore.DEClash.Weighted>
0.2866

> <Gold.Chemscore.DEInternal.Weighted>
0.7163

> <Gold.Chemscore.Rot.Weighted>
8.4039

> <Gold.Chemscore.Internal.Correction.Weighted>
   9.000000E+99

> <Gold.Protein.RotatedTorsions>
[ 6907 6896 6895 6894 ] final   70.77 input  -60.11 | X-H torsion
[ 7974 7965 7964 7962 ] final -129.16 input  175.53 | X-H torsion
[ 8008 7997 7996 7995 ] final  -29.80 input   59.86 | X-H torsion
[ 10167 10162 10161 10158 ] final -122.03 input  -65.29 | X-H torsion
[ 10718 10713 10712 10709 ] final  124.91 input   66.30 | X-H torsion
[ 10763 10752 10751 10750 ] final   83.61 input  -60.55 | X-H torsion
[ 11005 11000 10999 10996 ] final   69.57 input  -57.11 | X-H torsion

> <Gold.Protein.ActiveResidues>
 VAL166  LYS551  ARG553  GLY616  TRP617  ASP618  TYR619  PRO620  LYS621  CYS622 
 ASP623  PHE694  ASN695  SER759  ASP760  ASP761  ALA762  ILE779  LEU786  VAL792 
 PHE793  MET794  SER795  GLU796  ALA797  LYS798  CYS799  TRP800  GLU811  SER814 

> <Gold.Protein.RotatedAtoms>
  152.4770  134.4818  159.9667 H   0  0  0  0  0  0  0  0  0  0  0  0  # atno 6907 bound_to 6896
  151.4832  133.3535  159.2849 H   0  0  0  0  0  0  0  0  0  0  0  0  # atno 6908 bound_to 6896
  150.8815  134.8233  159.7290 H   0  0  0  0  0  0  0  0  0  0  0  0  # atno 6909 bound_to 6896
  144.9600  140.7436  143.4735 H   0  0  0  0  0  0  0  0  0  0  0  0  # atno 7974 bound_to 7965
  154.4275  140.1808  156.1305 H   0  0  0  0  0  0  0  0  0  0  0  0  # atno 8008 bound_to 7997
  156.0071  140.3354  155.6878 H   0  0  0  0  0  0  0  0  0  0  0  0  # atno 8009 bound_to 7997
  155.6162  140.0655  157.2682 H   0  0  0  0  0  0  0  0  0  0  0  0  # atno 8010 bound_to 7997
  140.0187  143.5367  152.2231 H   0  0  0  0  0  0  0  0  0  0  0  0  # atno 10167 bound_to 10162
  157.5546  131.1092  150.8643 H   0  0  0  0  0  0  0  0  0  0  0  0  # atno 10718 bound_to 10713
  153.1307  135.4685  154.9343 H   0  0  0  0  0  0  0  0  0  0  0  0  # atno 10763 bound_to 10752
  154.7661  135.3145  154.8285 H   0  0  0  0  0  0  0  0  0  0  0  0  # atno 10764 bound_to 10752
  153.8829  135.6892  153.4819 H   0  0  0  0  0  0  0  0  0  0  0  0  # atno 10765 bound_to 10752
  139.9646  134.7002  156.0572 H   0  0  0  0  0  0  0  0  0  0  0  0  # atno 11005 bound_to 11000
  145.2715  139.1953  143.4839 LP  0  0  0  0  0  0  0  0  0  0  0  0  # atno 17320 bound_to 7965
  146.3350  140.2662  142.8604 LP  0  0  0  0  0  0  0  0  0  0  0  0  # atno 17321 bound_to 7965
  139.6155  144.7618  151.2856 LP  0  0  0  0  0  0  0  0  0  0  0  0  # atno 17342 bound_to 10162
  140.7351  143.6745  150.8053 LP  0  0  0  0  0  0  0  0  0  0  0  0  # atno 17343 bound_to 10162
  156.9158  130.5297  149.5279 LP  0  0  0  0  0  0  0  0  0  0  0  0  # atno 17370 bound_to 10713
  156.0607  130.5660  150.9186 LP  0  0  0  0  0  0  0  0  0  0  0  0  # atno 17371 bound_to 10713
  141.1325  133.6583  156.3504 LP  0  0  0  0  0  0  0  0  0  0  0  0  # atno 17394 bound_to 11000
  140.5424  134.6107  157.5384 LP  0  0  0  0  0  0  0  0  0  0  0  0  # atno 17395 bound_to 11000

$$$$
