AV-unprocessed.smi:2397|AV-procd|sdf|9496|dock5
  -GOLD-   2272013123D 1   1.00000     0.00000
 Structure written by MMmdl.
 37 38  0  0  0  0  0  0  0  0  2 V2000
  147.6369  141.3677  153.9113 C   0  0  0  0  0  0  0  0  0  0  0  0
  148.1828  140.0592  153.3200 C   0  0  0  0  0  0  0  0  0  0  0  0
  147.1333  138.9383  153.2703 C   0  0  0  0  0  0  0  0  0  0  0  0
  149.4612  139.6112  154.0136 C   0  0  0  0  0  0  0  0  0  0  0  0
  150.0817  138.5021  153.5813 N   0  3  0  0  0  0  0  0  0  0  0  0
  151.2192  138.0888  154.1900 C   0  0  0  0  0  0  0  0  0  0  0  0
  151.7541  138.8151  155.2693 C   0  0  0  0  0  0  0  0  0  0  0  0
  151.0574  139.9753  155.6707 C   0  0  0  0  0  0  0  0  0  0  0  0
  151.4737  140.7986  156.7368 N   0  0  0  0  0  0  0  0  0  0  0  0
  150.7922  142.0916  156.6957 C   0  0  0  0  0  0  0  0  0  0  0  0
  151.3774  143.0512  157.7404 C   0  0  0  0  0  0  0  0  0  0  0  0
  151.2988  142.4432  159.0215 O   0  0  0  0  0  0  0  0  0  0  0  0
  152.0828  141.2585  159.0857 C   0  0  0  0  0  0  0  0  0  0  0  0
  151.5622  140.2031  158.0810 C   0  0  2  0  0  0  0  0  0  0  0  0
  152.4561  138.9524  158.2091 C   0  0  0  0  0  0  0  0  0  0  0  0
  151.8918  137.8044  158.5994 N   0  0  0  0  0  0  0  0  0  0  0  0
  153.6588  139.0329  157.9716 O   0  0  0  0  0  0  0  0  0  0  0  0
  149.9241  140.3438  155.0361 N   0  0  0  0  0  0  0  0  0  0  0  0
  148.3827  142.1617  153.8624 H   0  0  0  0  0  0  0  0  0  0  0  0
  147.3494  141.2442  154.9560 H   0  0  0  0  0  0  0  0  0  0  0  0
  146.7568  141.7077  153.3647 H   0  0  0  0  0  0  0  0  0  0  0  0
  148.4449  140.2784  152.2834 H   0  0  0  0  0  0  0  0  0  0  0  0
  147.5307  138.0498  152.7789 H   0  0  0  0  0  0  0  0  0  0  0  0
  146.2491  139.2539  152.7162 H   0  0  0  0  0  0  0  0  0  0  0  0
  146.8106  138.6499  154.2712 H   0  0  0  0  0  0  0  0  0  0  0  0
  151.6641  137.1877  153.7940 H   0  0  0  0  0  0  0  0  0  0  0  0
  152.6575  138.4812  155.7574 H   0  0  0  0  0  0  0  0  0  0  0  0
  150.8799  142.5461  155.7077 H   0  0  0  0  0  0  0  0  0  0  0  0
  149.7276  141.9442  156.8844 H   0  0  0  0  0  0  0  0  0  0  0  0
  152.4112  143.3089  157.5036 H   0  0  0  0  0  0  0  0  0  0  0  0
  150.8115  143.9829  157.7544 H   0  0  0  0  0  0  0  0  0  0  0  0
  153.1300  141.5037  158.8966 H   0  0  0  0  0  0  0  0  0  0  0  0
  152.0308  140.8736  160.1050 H   0  0  0  0  0  0  0  0  0  0  0  0
  150.5546  139.9289  158.3968 H   0  0  0  0  0  0  0  0  0  0  0  0
  152.4594  136.9766  158.7124 H   0  0  0  0  0  0  0  0  0  0  0  0
  150.9026  137.7753  158.8014 H   0  0  0  0  0  0  0  0  0  0  0  0
  149.7043  137.9652  152.7998 H   0  0  0  0  0  0  0  0  0  0  0  0
  1  2  1  0  0  0  0
  1 19  1  0  0  0  0
  1 20  1  0  0  0  0
  1 21  1  0  0  0  0
  2  3  1  0  0  0  0
  2  4  1  0  0  0  0
  2 22  1  0  0  0  0
  3 23  1  0  0  0  0
  3 24  1  0  0  0  0
  3 25  1  0  0  0  0
  4 18  1  0  0  0  0
  4  5  2  0  0  0  0
  5  6  1  0  0  0  0
  5 37  1  0  0  0  0
  6  7  2  0  0  0  0
  6 26  1  0  0  0  0
  7  8  1  0  0  0  0
  7 27  1  0  0  0  0
  8  9  1  0  0  0  0
  8 18  2  0  0  0  0
  9 14  1  0  0  0  0
  9 10  1  0  0  0  0
 10 11  1  0  0  0  0
 10 28  1  0  0  0  0
 10 29  1  0  0  0  0
 11 12  1  0  0  0  0
 11 30  1  0  0  0  0
 11 31  1  0  0  0  0
 12 13  1  0  0  0  0
 13 14  1  0  0  0  0
 13 32  1  0  0  0  0
 13 33  1  0  0  0  0
 14 15  1  0  0  0  0
 14 34  1  0  0  0  0
 15 16  1  0  0  0  0
 15 17  2  0  0  0  0
 16 35  1  0  0  0  0
 16 36  1  0  0  0  0
M  CHG  1   5   1
M  END
> <s_m_source_file>
AV-unprocessed.smi

> <i_m_source_file_index>
2397

> <i_lp_mmshare_version>
43012

> <i_f3d_flags>
0

> <s_epik_input>
W0NIM11bQ0hdKFtDSDNdKWMxbltjSF1bY0hdYyhuMSlOMltDSDJdW0NIMl1PW0NIMl1bQ0BIXTJDKD1PKVtOSDJd

> <s_epik_cmdline>
J2VwaWtfcHl0aG9uJywgJy1waCcsICc3LjAnLCAnLXRuJywgJzgnLCAnLW1hJywgJzIwMCcsICctbWV0YWxfYmluZGluZycsICctaW1hZScsICc8aW5maWxlLm1hZT4nLCAnLW9tYWUnLCAnPG91dGZpbGUubWFlPic=

> <r_lp_tautomer_probability>
0.999336

> <r_epik_Ionization_Penalty>
1.74009

> <r_epik_Ionization_Penalty_Charging>
1.74009

> <r_epik_Ionization_Penalty_Neutral>
2.46902e-07

> <r_epik_State_Penalty>
1.8491

> <r_epik_Charging_Adjusted_Penalty>
3.5892

> <i_epik_Tot_Q>
1

> <i_epik_Tot_abs_Q>
1

> <r_epik_Metal_State_Penalty>
1.87997

> <b_epik_Metal_Only>
0

> <s_lp_Force_Field>
OPLS_2005

> <r_lp_Energy>
12.8895

> <b_lp_Chiralities_Consistent>
1

> <s_lp_Variant>
AV-unprocessed.smi:2397-4

> <Gold.Version>
5.8.1

> <Gold.Id.Protein>
6NUR|6NUR_protein|mol2

> <Gold.PLP.Fitness>
39.5232

> <Gold.PLP.PLP>
-30.7253

> <Gold.PLP.part.hbond>
-3.3095

> <Gold.PLP.part.metal>
0.0000

> <Gold.PLP.part.buried>
1.2029

> <Gold.PLP.part.nonpolar>
-28.6115

> <Gold.PLP.part.repulsive>
0.2881

> <Gold.PLP.ligand.clash>
0.0000

> <Gold.PLP.ligand.torsion>
0.2476

> <Gold.PLP.Chemscore.Hbond>
3.0000

> <Gold.PLP.Chemscore.CHOScore>
0.0000

> <Gold.PLP.Chemscore.Metal>
0.0000

> <Gold.Chemscore.Hbonds>
donor molecule, donor type, donor heavy atom, donor atom, acceptor molecule, acceptor atom, score
      L1  H     5    37       P1  7948  1.85
      P1  H  7997  8010       L1    17  1.00

> <Gold.PLP.Chemscore.Internal.Correction>
0.2932

> <Gold.Rescore>
     Score         DG    S(hbond)    S(metal)    S(lipo)     H(rot)  DE(clash)    DE(int)     intcor
     14.58     -15.16       1.96        0.00      65.65       1.77       0.06       0.52       ----

> <Gold.Chemscore.Fitness>
14.5814

> <Gold.Chemscore.DG>
-15.1590

> <Gold.Chemscore.ZeroCoef>
-5.4800

> <Gold.Chemscore.Hbond>
1.9562

> <Gold.Chemscore.Metal>
0.0000

> <Gold.Chemscore.Lipo>
65.6495

> <Gold.Chemscore.Internal_Hbond>
0.0000

> <Gold.Chemscore.DEClash>
0.0564

> <Gold.Chemscore.DEInternal>
0.5212

> <Gold.Chemscore.Rot>
1.7717

> <Gold.Chemscore.Internal.Correction>
   9.000000E+99

> <Gold.Chemscore.Hbonds>
donor molecule, donor type, donor heavy atom, donor atom, acceptor molecule, acceptor atom, score
      L1  H     5    37       P1  7948  0.48
      P1  H  7997  8010       L1    17  0.99

> <Gold.Chemscore.Hbond.Weighted>
-6.5337

> <Gold.Chemscore.Metal.Weighted>
-0.0000

> <Gold.Chemscore.Lipo.Weighted>
-7.6810

> <Gold.Chemscore.Internal_Hbond.Weighted>
0.0000

> <Gold.Chemscore.DEClash.Weighted>
0.0564

> <Gold.Chemscore.DEInternal.Weighted>
0.5212

> <Gold.Chemscore.Rot.Weighted>
4.5357

> <Gold.Chemscore.Internal.Correction.Weighted>
   9.000000E+99

> <Gold.Protein.RotatedTorsions>
[ 6907 6896 6895 6894 ] final  -20.58 input  -60.11 | X-H torsion
[ 7974 7965 7964 7962 ] final   47.06 input  175.53 | X-H torsion
[ 8008 7997 7996 7995 ] final   17.82 input   59.86 | X-H torsion
[ 10167 10162 10161 10158 ] final  -67.09 input  -65.29 | X-H torsion
[ 10718 10713 10712 10709 ] final  132.76 input   66.30 | X-H torsion
[ 10763 10752 10751 10750 ] final  -68.51 input  -60.55 | X-H torsion
[ 11005 11000 10999 10996 ] final   44.10 input  -57.11 | X-H torsion

> <Gold.Protein.ActiveResidues>
 VAL166  LYS551  ARG553  GLY616  TRP617  ASP618  TYR619  PRO620  LYS621  CYS622 
 ASP623  PHE694  ASN695  SER759  ASP760  ASP761  ALA762  ILE779  LEU786  VAL792 
 PHE793  MET794  SER795  GLU796  ALA797  LYS798  CYS799  TRP800  GLU811  SER814 

> <Gold.Protein.RotatedAtoms>
  151.2460  135.0605  159.9043 H   0  0  0  0  0  0  0  0  0  0  0  0  # atno 6907 bound_to 6896
  152.5387  134.0383  159.8066 H   0  0  0  0  0  0  0  0  0  0  0  0  # atno 6908 bound_to 6896
  151.0584  133.5516  159.2667 H   0  0  0  0  0  0  0  0  0  0  0  0  # atno 6909 bound_to 6896
  146.0333  139.4789  142.9824 H   0  0  0  0  0  0  0  0  0  0  0  0  # atno 7974 bound_to 7965
  154.8970  140.2995  155.5339 H   0  0  0  0  0  0  0  0  0  0  0  0  # atno 8008 bound_to 7997
  156.3019  140.2414  156.3927 H   0  0  0  0  0  0  0  0  0  0  0  0  # atno 8009 bound_to 7997
  154.8560  140.0407  157.1624 H   0  0  0  0  0  0  0  0  0  0  0  0  # atno 8010 bound_to 7997
  140.5609  143.2313  151.6730 H   0  0  0  0  0  0  0  0  0  0  0  0  # atno 10167 bound_to 10162
  157.4839  131.1087  150.9645 H   0  0  0  0  0  0  0  0  0  0  0  0  # atno 10718 bound_to 10713
  154.3900  135.6055  153.5838 H   0  0  0  0  0  0  0  0  0  0  0  0  # atno 10763 bound_to 10752
  152.9787  135.5881  154.4309 H   0  0  0  0  0  0  0  0  0  0  0  0  # atno 10764 bound_to 10752
  154.4091  135.2844  155.2026 H   0  0  0  0  0  0  0  0  0  0  0  0  # atno 10765 bound_to 10752
  140.1583  134.4373  155.8334 H   0  0  0  0  0  0  0  0  0  0  0  0  # atno 11005 bound_to 11000
  145.7006  141.0137  143.1506 LP  0  0  0  0  0  0  0  0  0  0  0  0  # atno 17320 bound_to 7965
  144.7040  139.8640  143.7435 LP  0  0  0  0  0  0  0  0  0  0  0  0  # atno 17321 bound_to 7965
  139.5069  144.3664  152.0513 LP  0  0  0  0  0  0  0  0  0  0  0  0  # atno 17342 bound_to 10162
  140.2790  144.3880  150.6125 LP  0  0  0  0  0  0  0  0  0  0  0  0  # atno 17343 bound_to 10162
  157.0369  130.5733  149.5350 LP  0  0  0  0  0  0  0  0  0  0  0  0  # atno 17370 bound_to 10713
  156.0136  130.5229  150.8067 LP  0  0  0  0  0  0  0  0  0  0  0  0  # atno 17371 bound_to 10713
  141.2207  133.6902  156.7548 LP  0  0  0  0  0  0  0  0  0  0  0  0  # atno 17394 bound_to 11000
  140.2520  134.8533  157.3676 LP  0  0  0  0  0  0  0  0  0  0  0  0  # atno 17395 bound_to 11000

$$$$
