AV-unprocessed.smi:2637|AV-procd|sdf|10261|dock6
  -GOLD-   2272014273D 1   1.00000     0.00000
 Structure written by MMmdl.
 40 41  0  0  0  0  0  0  0  0  1 V2000
  146.5497  129.2402  152.5193 C   0  0  0  0  0  0  0  0  0  0  0  0
  146.8734  130.7050  152.4925 C   0  0  0  0  0  0  0  0  0  0  0  0
  147.7991  131.4142  153.3119 C   0  0  0  0  0  0  0  0  0  0  0  0
  147.6830  132.6988  152.8552 C   0  0  0  0  0  0  0  0  0  0  0  0
  148.3355  133.8167  153.2712 N   0  0  0  0  0  0  0  0  0  0  0  0
  148.8952  134.0678  154.4674 C   0  0  0  0  0  0  0  0  0  0  0  0
  148.9218  133.2894  155.4210 O   0  0  0  0  0  0  0  0  0  0  0  0
  149.4275  135.2983  154.5020 N   0  0  0  0  0  0  0  0  0  0  0  0
  150.0987  135.9004  155.6504 C   0  0  0  0  0  0  0  0  0  0  0  0
  151.3420  136.7063  155.2361 C   0  0  0  0  0  0  0  0  0  0  0  0
  151.0349  137.9013  154.3134 C   0  0  0  0  0  0  0  0  0  0  0  0
  150.8589  139.1394  155.0786 N   0  0  0  0  0  0  0  0  0  0  0  0
  151.8098  139.6935  155.8438 C   0  0  0  0  0  0  0  0  0  0  0  0
  152.9473  139.2592  156.0228 O   0  0  0  0  0  0  0  0  0  0  0  0
  151.3104  140.9789  156.4900 C   0  0  0  0  0  0  0  0  0  0  0  0
  149.8798  141.1020  155.9560 C   0  0  0  0  0  0  0  0  0  0  0  0
  149.7345  139.8694  155.0740 C   0  0  0  0  0  0  0  0  0  0  0  0
  148.7040  139.6172  154.4500 O   0  0  0  0  0  0  0  0  0  0  0  0
  146.7504  132.7282  151.8422 N   0  0  0  0  0  0  0  0  0  0  0  0
  146.2860  133.8489  151.0480 C   0  0  0  0  0  0  0  0  0  0  0  0
  146.2538  131.4920  151.6200 N   0  0  0  0  0  0  0  0  0  0  0  0
  147.1673  128.7135  153.2471 H   0  0  0  0  0  0  0  0  0  0  0  0
  146.7213  128.7815  151.5452 H   0  0  0  0  0  0  0  0  0  0  0  0
  145.5062  129.0744  152.7880 H   0  0  0  0  0  0  0  0  0  0  0  0
  148.4311  131.0255  154.0960 H   0  0  0  0  0  0  0  0  0  0  0  0
  148.3975  134.5568  152.5877 H   0  0  0  0  0  0  0  0  0  0  0  0
  149.3563  135.8682  153.6716 H   0  0  0  0  0  0  0  0  0  0  0  0
  149.4155  136.5247  156.2287 H   0  0  0  0  0  0  0  0  0  0  0  0
  150.4011  135.0904  156.3145 H   0  0  0  0  0  0  0  0  0  0  0  0
  151.8331  137.0720  156.1388 H   0  0  0  0  0  0  0  0  0  0  0  0
  152.0580  136.0411  154.7516 H   0  0  0  0  0  0  0  0  0  0  0  0
  151.8373  138.0377  153.5873 H   0  0  0  0  0  0  0  0  0  0  0  0
  150.1406  137.6927  153.7235 H   0  0  0  0  0  0  0  0  0  0  0  0
  151.3324  140.8931  157.5769 H   0  0  0  0  0  0  0  0  0  0  0  0
  151.9308  141.8243  156.1899 H   0  0  0  0  0  0  0  0  0  0  0  0
  149.1431  141.0865  156.7598 H   0  0  0  0  0  0  0  0  0  0  0  0
  149.7421  142.0105  155.3688 H   0  0  0  0  0  0  0  0  0  0  0  0
  146.0750  134.6995  151.6969 H   0  0  0  0  0  0  0  0  0  0  0  0
  145.3749  133.5851  150.5091 H   0  0  0  0  0  0  0  0  0  0  0  0
  147.0560  134.1302  150.3291 H   0  0  0  0  0  0  0  0  0  0  0  0
  1  2  1  0  0  0  0
  1 22  1  0  0  0  0
  1 23  1  0  0  0  0
  1 24  1  0  0  0  0
  2 21  2  0  0  0  0
  2  3  1  0  0  0  0
  3  4  2  0  0  0  0
  3 25  1  0  0  0  0
  4  5  1  0  0  0  0
  4 19  1  0  0  0  0
  5  6  1  0  0  0  0
  5 26  1  0  0  0  0
  6  7  2  0  0  0  0
  6  8  1  0  0  0  0
  8  9  1  0  0  0  0
  8 27  1  0  0  0  0
  9 10  1  0  0  0  0
  9 28  1  0  0  0  0
  9 29  1  0  0  0  0
 10 11  1  0  0  0  0
 10 30  1  0  0  0  0
 10 31  1  0  0  0  0
 11 12  1  0  0  0  0
 11 32  1  0  0  0  0
 11 33  1  0  0  0  0
 12 17  1  0  0  0  0
 12 13  1  0  0  0  0
 13 14  2  0  0  0  0
 13 15  1  0  0  0  0
 15 16  1  0  0  0  0
 15 34  1  0  0  0  0
 15 35  1  0  0  0  0
 16 17  1  0  0  0  0
 16 36  1  0  0  0  0
 16 37  1  0  0  0  0
 17 18  2  0  0  0  0
 19 20  1  0  0  0  0
 19 21  1  0  0  0  0
 20 38  1  0  0  0  0
 20 39  1  0  0  0  0
 20 40  1  0  0  0  0
M  END
> <s_m_source_file>
AV-unprocessed.smi

> <i_m_source_file_index>
2637

> <i_lp_mmshare_version>
43012

> <i_f3d_flags>
0

> <s_epik_input>
W0NIM11jMVtjSF1jKG4objEpW0NIM10pW05IXUMoPU8pW05IXVtDSDJdW0NIMl1bQ0gyXU4yQyg9TylbQ0gyXVtDSDJdQzI9Tw==

> <s_epik_cmdline>
J2VwaWtfcHl0aG9uJywgJy1waCcsICc3LjAnLCAnLXRuJywgJzgnLCAnLW1hJywgJzIwMCcsICctbWV0YWxfYmluZGluZycsICctaW1hZScsICc8aW5maWxlLm1hZT4nLCAnLW9tYWUnLCAnPG91dGZpbGUubWFlPic=

> <r_lp_tautomer_probability>
1

> <r_epik_Ionization_Penalty>
9.41646e-05

> <r_epik_Ionization_Penalty_Charging>
0

> <r_epik_Ionization_Penalty_Neutral>
9.41646e-05

> <r_epik_State_Penalty>
-0

> <r_epik_Charging_Adjusted_Penalty>
0

> <i_epik_Tot_Q>
0

> <i_epik_Tot_abs_Q>
0

> <r_epik_Metal_State_Penalty>
-0

> <b_epik_Metal_Only>
0

> <s_lp_Force_Field>
OPLS_2005

> <r_lp_Energy>
13.5658

> <b_lp_Chiralities_Consistent>
1

> <s_lp_Variant>
AV-unprocessed.smi:2637-1

> <Gold.Version>
5.8.1

> <Gold.Id.Protein>
6NUR|6NUR_protein|mol2

> <Gold.PLP.Fitness>
47.0851

> <Gold.PLP.PLP>
-39.1666

> <Gold.PLP.part.hbond>
-3.0000

> <Gold.PLP.part.metal>
0.0000

> <Gold.PLP.part.buried>
-3.0739

> <Gold.PLP.part.nonpolar>
-32.6427

> <Gold.PLP.part.repulsive>
0.4749

> <Gold.PLP.ligand.clash>
0.0000

> <Gold.PLP.ligand.torsion>
0.4972

> <Gold.PLP.Chemscore.Hbond>
2.9500

> <Gold.PLP.Chemscore.CHOScore>
0.0000

> <Gold.PLP.Chemscore.Metal>
0.0000

> <Gold.Chemscore.Hbonds>
donor molecule, donor type, donor heavy atom, donor atom, acceptor molecule, acceptor atom, score
      L1  H     5    26       P1  7948  0.90
      L1  H     8    27       P1  7948  1.00
      P1  H  7997  8008       L1    14  1.00

> <Gold.PLP.Chemscore.Internal.Correction>
0.0629

> <Gold.Rescore>
     Score         DG    S(hbond)    S(metal)    S(lipo)     H(rot)  DE(clash)    DE(int)     intcor
     14.90     -15.44       2.71        0.00      52.93       2.07       0.00       0.54       ----

> <Gold.Chemscore.Fitness>
14.8954

> <Gold.Chemscore.DG>
-15.4402

> <Gold.Chemscore.ZeroCoef>
-5.4800

> <Gold.Chemscore.Hbond>
2.7148

> <Gold.Chemscore.Metal>
0.0000

> <Gold.Chemscore.Lipo>
52.9261

> <Gold.Chemscore.Internal_Hbond>
0.0000

> <Gold.Chemscore.DEClash>
0.0000

> <Gold.Chemscore.DEInternal>
0.5447

> <Gold.Chemscore.Rot>
2.0701

> <Gold.Chemscore.Internal.Correction>
   9.000000E+99

> <Gold.Chemscore.Hbonds>
donor molecule, donor type, donor heavy atom, donor atom, acceptor molecule, acceptor atom, score
      L1  H     5    26       P1  7948  0.18
      L1  H     8    27       P1  7948  0.59
      P1  H  7997  8008       L1    14  0.99

> <Gold.Chemscore.Hbond.Weighted>
-9.0673

> <Gold.Chemscore.Metal.Weighted>
-0.0000

> <Gold.Chemscore.Lipo.Weighted>
-6.1924

> <Gold.Chemscore.Internal_Hbond.Weighted>
0.0000

> <Gold.Chemscore.DEClash.Weighted>
0.0000

> <Gold.Chemscore.DEInternal.Weighted>
0.5447

> <Gold.Chemscore.Rot.Weighted>
5.2995

> <Gold.Chemscore.Internal.Correction.Weighted>
   9.000000E+99

> <Gold.Protein.RotatedTorsions>
[ 6907 6896 6895 6894 ] final  -36.72 input  -60.11 | X-H torsion
[ 7974 7965 7964 7962 ] final  -59.15 input  175.53 | X-H torsion
[ 8008 7997 7996 7995 ] final  -50.86 input   59.86 | X-H torsion
[ 10167 10162 10161 10158 ] final   91.11 input  -65.29 | X-H torsion
[ 10718 10713 10712 10709 ] final  112.74 input   66.30 | X-H torsion
[ 10763 10752 10751 10750 ] final -173.82 input  -60.55 | X-H torsion
[ 11005 11000 10999 10996 ] final  126.95 input  -57.11 | X-H torsion

> <Gold.Protein.ActiveResidues>
 VAL166  LYS551  ARG553  GLY616  TRP617  ASP618  TYR619  PRO620  LYS621  CYS622 
 ASP623  PHE694  ASN695  SER759  ASP760  ASP761  ALA762  ILE779  LEU786  VAL792 
 PHE793  MET794  SER795  GLU796  ALA797  LYS798  CYS799  TRP800  GLU811  SER814 

> <Gold.Protein.RotatedAtoms>
  151.0237  134.9488  159.8073 H   0  0  0  0  0  0  0  0  0  0  0  0  # atno 6907 bound_to 6896
  152.5330  134.2870  159.9039 H   0  0  0  0  0  0  0  0  0  0  0  0  # atno 6908 bound_to 6896
  151.2878  133.4137  159.2665 H   0  0  0  0  0  0  0  0  0  0  0  0  # atno 6909 bound_to 6896
  145.8309  140.8480  143.0084 H   0  0  0  0  0  0  0  0  0  0  0  0  # atno 7974 bound_to 7965
  154.4070  140.1262  156.4734 H   0  0  0  0  0  0  0  0  0  0  0  0  # atno 8008 bound_to 7997
  155.7156  140.3493  155.4973 H   0  0  0  0  0  0  0  0  0  0  0  0  # atno 8009 bound_to 7997
  155.9261  140.1061  157.1159 H   0  0  0  0  0  0  0  0  0  0  0  0  # atno 8010 bound_to 7997
  139.8407  144.6643  150.9287 H   0  0  0  0  0  0  0  0  0  0  0  0  # atno 10167 bound_to 10162
  157.6376  131.0972  150.6939 H   0  0  0  0  0  0  0  0  0  0  0  0  # atno 10718 bound_to 10713
  154.6034  135.2857  155.0511 H   0  0  0  0  0  0  0  0  0  0  0  0  # atno 10763 bound_to 10752
  154.1767  135.6463  153.5027 H   0  0  0  0  0  0  0  0  0  0  0  0  # atno 10764 bound_to 10752
  153.0166  135.5414  154.6761 H   0  0  0  0  0  0  0  0  0  0  0  0  # atno 10765 bound_to 10752
  139.9482  134.9626  156.8782 H   0  0  0  0  0  0  0  0  0  0  0  0  # atno 11005 bound_to 11000
  144.6740  140.0671  143.7474 LP  0  0  0  0  0  0  0  0  0  0  0  0  # atno 17320 bound_to 7965
  145.9572  139.2775  143.1177 LP  0  0  0  0  0  0  0  0  0  0  0  0  # atno 17321 bound_to 7965
  140.7798  143.3916  151.1301 LP  0  0  0  0  0  0  0  0  0  0  0  0  # atno 17342 bound_to 10162
  139.7562  143.8704  152.3089 LP  0  0  0  0  0  0  0  0  0  0  0  0  # atno 17343 bound_to 10162
  156.7268  130.4697  149.5509 LP  0  0  0  0  0  0  0  0  0  0  0  0  # atno 17370 bound_to 10713
  156.1629  130.6386  151.0741 LP  0  0  0  0  0  0  0  0  0  0  0  0  # atno 17371 bound_to 10713
  140.5783  134.0377  155.7455 LP  0  0  0  0  0  0  0  0  0  0  0  0  # atno 17394 bound_to 11000
  141.1138  133.9573  157.2860 LP  0  0  0  0  0  0  0  0  0  0  0  0  # atno 17395 bound_to 11000

$$$$
