AV-unprocessed.smi:1986|AV-procd|sdf|8049|dock3
  -GOLD-   2272010253D 1   1.00000     0.00000
 Structure written by MMmdl.
 47 48  0  0  0  0  0  0  0  0  3 V2000
  145.5127  136.3401  152.5151 C   0  0  0  0  0  0  0  0  0  0  0  0
  146.0371  135.4178  153.6301 C   0  0  0  0  0  0  0  0  0  0  0  0
  145.0212  134.3777  154.1933 C   0  0  2  0  0  0  0  0  0  0  0  0
  143.7525  135.1194  154.6911 C   0  0  0  0  0  0  0  0  0  0  0  0
  145.6435  133.6445  155.4212 C   0  0  0  0  0  0  0  0  0  0  0  0
  146.1742  134.5763  156.4127 N   0  0  0  0  0  0  0  0  0  0  0  0
  146.0597  134.4695  157.7464 C   0  0  0  0  0  0  0  0  0  0  0  0
  145.3874  133.5955  158.2921 O   0  0  0  0  0  0  0  0  0  0  0  0
  146.8459  135.4669  158.6134 C   0  0  0  0  0  0  0  0  0  0  0  0
  147.0252  135.0545  160.0158 N   0  0  0  0  0  0  0  0  0  0  0  0
  147.4753  133.6728  160.1713 N   0  5  0  0  0  0  0  0  0  0  0  0
  147.5751  133.1474  161.4211 C   0  0  0  0  0  0  0  0  0  0  0  0
  147.8983  131.9807  161.6288 O   0  0  0  0  0  0  0  0  0  0  0  0
  147.3124  134.0206  162.5529 C   0  0  0  0  0  0  0  0  0  0  0  0
  146.9681  135.3122  162.3798 C   0  0  0  0  0  0  0  0  0  0  0  0
  146.8154  135.9080  161.0580 C   0  0  0  0  0  0  0  0  0  0  0  0
  146.5141  137.0896  160.8924 O   0  0  0  0  0  0  0  0  0  0  0  0
  144.6405  133.3642  153.1389 N   0  3  0  0  0  0  0  0  0  0  0  0
  143.8804  133.8792  151.9651 C   0  0  0  0  0  0  0  0  0  0  0  0
  143.4000  132.7133  151.0845 C   0  0  0  0  0  0  0  0  0  0  0  0
  144.5115  131.9344  150.6643 O   0  0  0  0  0  0  0  0  0  0  0  0
  145.2006  131.3637  151.7675 C   0  0  0  0  0  0  0  0  0  0  0  0
  145.7460  132.4825  152.6680 C   0  0  0  0  0  0  0  0  0  0  0  0
  146.2898  137.0396  152.2066 H   0  0  0  0  0  0  0  0  0  0  0  0
  144.6597  136.9329  152.8437 H   0  0  0  0  0  0  0  0  0  0  0  0
  145.2167  135.7806  151.6281 H   0  0  0  0  0  0  0  0  0  0  0  0
  146.9185  134.9043  153.2466 H   0  0  0  0  0  0  0  0  0  0  0  0
  146.3942  136.0619  154.4332 H   0  0  0  0  0  0  0  0  0  0  0  0
  143.9412  135.6711  155.6124 H   0  0  0  0  0  0  0  0  0  0  0  0
  142.9374  134.4262  154.9023 H   0  0  0  0  0  0  0  0  0  0  0  0
  143.3904  135.8468  153.9643 H   0  0  0  0  0  0  0  0  0  0  0  0
  144.8962  133.0289  155.9214 H   0  0  0  0  0  0  0  0  0  0  0  0
  146.4183  132.9429  155.1090 H   0  0  0  0  0  0  0  0  0  0  0  0
  146.7400  135.3372  156.0643 H   0  0  0  0  0  0  0  0  0  0  0  0
  147.8105  135.6529  158.1383 H   0  0  0  0  0  0  0  0  0  0  0  0
  146.3239  136.4250  158.5835 H   0  0  0  0  0  0  0  0  0  0  0  0
  147.4036  133.6274  163.5549 H   0  0  0  0  0  0  0  0  0  0  0  0
  146.7871  135.9260  163.2497 H   0  0  0  0  0  0  0  0  0  0  0  0
  142.9976  134.4386  152.2687 H   0  0  0  0  0  0  0  0  0  0  0  0
  144.5041  134.5529  151.3775 H   0  0  0  0  0  0  0  0  0  0  0  0
  142.6840  132.0911  151.6224 H   0  0  0  0  0  0  0  0  0  0  0  0
  142.8859  133.0964  150.2031 H   0  0  0  0  0  0  0  0  0  0  0  0
  144.5427  130.6996  152.3269 H   0  0  0  0  0  0  0  0  0  0  0  0
  146.0206  130.7520  151.3913 H   0  0  0  0  0  0  0  0  0  0  0  0
  146.4776  133.0615  152.1042 H   0  0  0  0  0  0  0  0  0  0  0  0
  146.2719  132.0240  153.5035 H   0  0  0  0  0  0  0  0  0  0  0  0
  143.9919  132.7480  153.6101 H   0  0  0  0  0  0  0  0  0  0  0  0
  1  2  1  0  0  0  0
  1 24  1  0  0  0  0
  1 25  1  0  0  0  0
  1 26  1  0  0  0  0
  2  3  1  0  0  0  0
  2 27  1  0  0  0  0
  2 28  1  0  0  0  0
  3  4  1  0  0  0  0
  3  5  1  0  0  0  0
  3 18  1  0  0  0  0
  4 29  1  0  0  0  0
  4 30  1  0  0  0  0
  4 31  1  0  0  0  0
  5  6  1  0  0  0  0
  5 32  1  0  0  0  0
  5 33  1  0  0  0  0
  6  7  1  0  0  0  0
  6 34  1  0  0  0  0
  7  8  2  0  0  0  0
  7  9  1  0  0  0  0
  9 35  1  0  0  0  0
  9 36  1  0  0  0  0
  9 10  1  0  0  0  0
 10 11  1  0  0  0  0
 10 16  1  0  0  0  0
 11 12  1  0  0  0  0
 12 13  2  0  0  0  0
 12 14  1  0  0  0  0
 14 37  1  0  0  0  0
 14 15  2  0  0  0  0
 15 38  1  0  0  0  0
 15 16  1  0  0  0  0
 16 17  2  0  0  0  0
 18 23  1  0  0  0  0
 18 19  1  0  0  0  0
 18 47  1  0  0  0  0
 19 20  1  0  0  0  0
 19 39  1  0  0  0  0
 19 40  1  0  0  0  0
 20 21  1  0  0  0  0
 20 41  1  0  0  0  0
 20 42  1  0  0  0  0
 21 22  1  0  0  0  0
 22 23  1  0  0  0  0
 22 43  1  0  0  0  0
 22 44  1  0  0  0  0
 23 45  1  0  0  0  0
 23 46  1  0  0  0  0
M  CHG  1  11  -1
M  CHG  1  18   1
M  END
> <s_m_source_file>
AV-unprocessed.smi

> <i_m_source_file_index>
1986

> <i_lp_mmshare_version>
43012

> <i_f3d_flags>
0

> <s_epik_input>
W0NIMl0xW0NIMl1PW0NIMl1bQ0gyXU4xW0NAQF0oW0NIM10pKFtDSDJdW0NIM10pW0NIMl1bTkhdQyg9TylbQ0gyXW4yW25IXWMoPU8pW2NIXVtjSF1jMj1P

> <s_epik_cmdline>
J2VwaWtfcHl0aG9uJywgJy1waCcsICc3LjAnLCAnLXRuJywgJzgnLCAnLW1hJywgJzIwMCcsICctbWV0YWxfYmluZGluZycsICctaW1hZScsICc8aW5maWxlLm1hZT4nLCAnLW9tYWUnLCAnPG91dGZpbGUubWFlPic=

> <r_lp_tautomer_probability>
1

> <r_epik_Ionization_Penalty>
0.604767

> <r_epik_Ionization_Penalty_Charging>
0.604766

> <r_epik_Ionization_Penalty_Neutral>
8.70177e-08

> <r_epik_State_Penalty>
0.54579

> <r_epik_Charging_Adjusted_Penalty>
1.15056

> <i_epik_Tot_Q>
0

> <i_epik_Tot_abs_Q>
2

> <r_epik_Metal_State_Penalty>
0.54579

> <b_epik_Metal_Only>
0

> <s_lp_Force_Field>
OPLS_2005

> <r_lp_Energy>
38.6352

> <b_lp_Chiralities_Consistent>
1

> <s_lp_Variant>
AV-unprocessed.smi:1986-4

> <Gold.Version>
5.8.1

> <Gold.Id.Protein>
6NUR|6NUR_protein|mol2

> <Gold.PLP.Fitness>
37.5176

> <Gold.PLP.PLP>
-29.5872

> <Gold.PLP.part.hbond>
-1.9877

> <Gold.PLP.part.metal>
0.0000

> <Gold.PLP.part.buried>
-6.0107

> <Gold.PLP.part.nonpolar>
-22.1596

> <Gold.PLP.part.repulsive>
0.1517

> <Gold.PLP.ligand.clash>
0.0000

> <Gold.PLP.ligand.torsion>
0.6349

> <Gold.PLP.Chemscore.Hbond>
3.0000

> <Gold.PLP.Chemscore.CHOScore>
0.0000

> <Gold.PLP.Chemscore.Metal>
0.0000

> <Gold.Chemscore.Hbonds>
donor molecule, donor type, donor heavy atom, donor atom, acceptor molecule, acceptor atom, score
      L1  H    18    47       P1 10957  2.00
      P1  H  6934  6947       L1    17  0.98

> <Gold.PLP.Chemscore.Internal.Correction>
0.2001

> <Gold.Rescore>
     Score         DG    S(hbond)    S(metal)    S(lipo)     H(rot)  DE(clash)    DE(int)     intcor
     10.31     -12.14       1.88        0.00      58.00       2.50       0.03       1.80       ----

> <Gold.Chemscore.Fitness>
10.3071

> <Gold.Chemscore.DG>
-12.1410

> <Gold.Chemscore.ZeroCoef>
-5.4800

> <Gold.Chemscore.Hbond>
1.8766

> <Gold.Chemscore.Metal>
0.0000

> <Gold.Chemscore.Lipo>
58.0026

> <Gold.Chemscore.Internal_Hbond>
0.0000

> <Gold.Chemscore.DEClash>
0.0310

> <Gold.Chemscore.DEInternal>
1.8029

> <Gold.Chemscore.Rot>
2.4973

> <Gold.Chemscore.Internal.Correction>
   9.000000E+99

> <Gold.Chemscore.Hbonds>
donor molecule, donor type, donor heavy atom, donor atom, acceptor molecule, acceptor atom, score
      L1  H    18    47       P1 10957  0.62
      P1  H  6934  6947       L1    17  0.91

> <Gold.Chemscore.Hbond.Weighted>
-6.2677

> <Gold.Chemscore.Metal.Weighted>
-0.0000

> <Gold.Chemscore.Lipo.Weighted>
-6.7863

> <Gold.Chemscore.Internal_Hbond.Weighted>
0.0000

> <Gold.Chemscore.DEClash.Weighted>
0.0310

> <Gold.Chemscore.DEInternal.Weighted>
1.8029

> <Gold.Chemscore.Rot.Weighted>
6.3930

> <Gold.Chemscore.Internal.Correction.Weighted>
   9.000000E+99

> <Gold.Protein.RotatedTorsions>
[ 6907 6896 6895 6894 ] final  109.26 input  -60.11 | X-H torsion
[ 7974 7965 7964 7962 ] final  115.12 input  175.53 | X-H torsion
[ 8008 7997 7996 7995 ] final  153.22 input   59.86 | X-H torsion
[ 10167 10162 10161 10158 ] final  176.71 input  -65.29 | X-H torsion
[ 10718 10713 10712 10709 ] final   80.70 input   66.30 | X-H torsion
[ 10763 10752 10751 10750 ] final  -68.01 input  -60.55 | X-H torsion
[ 11005 11000 10999 10996 ] final -105.37 input  -57.11 | X-H torsion

> <Gold.Protein.ActiveResidues>
 VAL166  LYS551  ARG553  GLY616  TRP617  ASP618  TYR619  PRO620  LYS621  CYS622 
 ASP623  PHE694  ASN695  SER759  ASP760  ASP761  ALA762  ILE779  LEU786  VAL792 
 PHE793  MET794  SER795  GLU796  ALA797  LYS798  CYS799  TRP800  GLU811  SER814 

> <Gold.Protein.RotatedAtoms>
  152.5075  133.8969  159.7421 H   0  0  0  0  0  0  0  0  0  0  0  0  # atno 6907 bound_to 6896
  150.9395  133.6665  159.2800 H   0  0  0  0  0  0  0  0  0  0  0  0  # atno 6908 bound_to 6896
  151.3981  135.0971  159.9600 H   0  0  0  0  0  0  0  0  0  0  0  0  # atno 6909 bound_to 6896
  145.1959  139.2977  143.4344 H   0  0  0  0  0  0  0  0  0  0  0  0  # atno 7974 bound_to 7965
  156.2592  140.1999  156.6456 H   0  0  0  0  0  0  0  0  0  0  0  0  # atno 8008 bound_to 7997
  154.6576  140.0564  157.0051 H   0  0  0  0  0  0  0  0  0  0  0  0  # atno 8009 bound_to 7997
  155.1324  140.3235  155.4474 H   0  0  0  0  0  0  0  0  0  0  0  0  # atno 8010 bound_to 7997
  139.5225  144.2883  152.0486 H   0  0  0  0  0  0  0  0  0  0  0  0  # atno 10167 bound_to 10162
  157.6813  130.9971  150.2118 H   0  0  0  0  0  0  0  0  0  0  0  0  # atno 10718 bound_to 10713
  154.3828  135.6070  153.5800 H   0  0  0  0  0  0  0  0  0  0  0  0  # atno 10763 bound_to 10752
  152.9788  135.5865  154.4389 H   0  0  0  0  0  0  0  0  0  0  0  0  # atno 10764 bound_to 10752
  154.4161  135.2845  155.1983 H   0  0  0  0  0  0  0  0  0  0  0  0  # atno 10765 bound_to 10752
  141.1056  133.8802  157.1726 H   0  0  0  0  0  0  0  0  0  0  0  0  # atno 11005 bound_to 11000
  146.3427  140.2187  142.8591 LP  0  0  0  0  0  0  0  0  0  0  0  0  # atno 17320 bound_to 7965
  144.9996  140.8620  143.5290 LP  0  0  0  0  0  0  0  0  0  0  0  0  # atno 17321 bound_to 7965
  140.2336  144.4343  150.6290 LP  0  0  0  0  0  0  0  0  0  0  0  0  # atno 17342 bound_to 10162
  140.6339  143.2191  151.6437 LP  0  0  0  0  0  0  0  0  0  0  0  0  # atno 17343 bound_to 10162
  156.2787  130.3730  149.7957 LP  0  0  0  0  0  0  0  0  0  0  0  0  # atno 17370 bound_to 10713
  156.5652  130.8401  151.3340 LP  0  0  0  0  0  0  0  0  0  0  0  0  # atno 17371 bound_to 10713
  139.9925  135.0059  157.0009 LP  0  0  0  0  0  0  0  0  0  0  0  0  # atno 17394 bound_to 11000
  140.4909  134.1194  155.7232 LP  0  0  0  0  0  0  0  0  0  0  0  0  # atno 17395 bound_to 11000

$$$$
