AV-unprocessed.smi:1021|AV-procd|sdf|4454|dock5
  -GOLD-   22720 2423D 1   1.00000     0.00000
 Structure written by MMmdl.
 42 44  0  0  0  0  0  0  0  0  1 V2000
  151.0766  137.1324  159.7882 O   0  0  0  0  0  0  0  0  0  0  0  0
  152.0458  137.8681  159.0713 C   0  0  0  0  0  0  0  0  0  0  0  0
  151.6388  138.0019  157.5974 C   0  0  0  0  0  0  0  0  0  0  0  0
  152.3312  139.1677  156.8746 C   0  0  0  0  0  0  0  0  0  0  0  0
  152.2038  140.4659  157.6184 C   0  0  0  0  0  0  0  0  0  0  0  0
  152.7584  140.6086  158.8231 N   0  0  0  0  0  0  0  0  0  0  0  0
  152.4166  141.8987  159.1704 C   0  0  0  0  0  0  0  0  0  0  0  0
  152.7050  142.6412  160.3379 C   0  0  0  0  0  0  0  0  0  0  0  0
  152.2332  143.9625  160.4782 C   0  0  0  0  0  0  0  0  0  0  0  0
  151.4662  144.5574  159.4561 C   0  0  0  0  0  0  0  0  0  0  0  0
  151.1702  143.8352  158.2842 C   0  0  0  0  0  0  0  0  0  0  0  0
  151.6482  142.5176  158.1456 C   0  0  0  0  0  0  0  0  0  0  0  0
  151.5447  141.5578  157.1405 N   0  0  0  0  0  0  0  0  0  0  0  0
  150.8336  141.7439  155.8777 C   0  0  0  0  0  0  0  0  0  0  0  0
  149.2995  141.6895  156.0340 C   0  0  2  0  0  0  0  0  0  0  0  0
  149.0068  141.2050  157.3291 O   0  0  0  0  0  0  0  0  0  0  0  0
  148.6236  140.8674  154.9465 C   0  0  0  0  0  0  0  0  0  0  0  0
  147.6929  141.4794  154.0794 C   0  0  0  0  0  0  0  0  0  0  0  0
  147.0599  140.7265  153.0713 C   0  0  0  0  0  0  0  0  0  0  0  0
  147.3540  139.3571  152.9241 C   0  0  0  0  0  0  0  0  0  0  0  0
  146.7470  138.6342  151.9535 F   0  0  0  0  0  0  0  0  0  0  0  0
  148.2829  138.7413  153.7846 C   0  0  0  0  0  0  0  0  0  0  0  0
  148.9179  139.4943  154.7916 C   0  0  0  0  0  0  0  0  0  0  0  0
  150.2227  137.4838  159.5864 H   0  0  0  0  0  0  0  0  0  0  0  0
  152.1747  138.8488  159.5301 H   0  0  0  0  0  0  0  0  0  0  0  0
  153.0000  137.3464  159.1493 H   0  0  0  0  0  0  0  0  0  0  0  0
  151.8791  137.0729  157.0793 H   0  0  0  0  0  0  0  0  0  0  0  0
  150.5589  138.1100  157.5287 H   0  0  0  0  0  0  0  0  0  0  0  0
  153.3730  138.9324  156.6738 H   0  0  0  0  0  0  0  0  0  0  0  0
  151.8768  139.2970  155.8916 H   0  0  0  0  0  0  0  0  0  0  0  0
  153.2877  142.1913  161.1281 H   0  0  0  0  0  0  0  0  0  0  0  0
  152.4580  144.5205  161.3752 H   0  0  0  0  0  0  0  0  0  0  0  0
  151.1051  145.5687  159.5726 H   0  0  0  0  0  0  0  0  0  0  0  0
  150.5805  144.2902  157.5024 H   0  0  0  0  0  0  0  0  0  0  0  0
  151.1291  142.6685  155.3882 H   0  0  0  0  0  0  0  0  0  0  0  0
  151.1584  140.9427  155.2124 H   0  0  0  0  0  0  0  0  0  0  0  0
  148.8939  142.7006  155.9978 H   0  0  0  0  0  0  0  0  0  0  0  0
  149.8022  141.2176  157.8395 H   0  0  0  0  0  0  0  0  0  0  0  0
  147.4641  142.5302  154.1823 H   0  0  0  0  0  0  0  0  0  0  0  0
  146.3500  141.2006  152.4099 H   0  0  0  0  0  0  0  0  0  0  0  0
  148.5134  137.6926  153.6694 H   0  0  0  0  0  0  0  0  0  0  0  0
  149.6346  139.0140  155.4415 H   0  0  0  0  0  0  0  0  0  0  0  0
  1  2  1  0  0  0  0
  1 24  1  0  0  0  0
  2  3  1  0  0  0  0
  2 25  1  0  0  0  0
  2 26  1  0  0  0  0
  3  4  1  0  0  0  0
  3 27  1  0  0  0  0
  3 28  1  0  0  0  0
  4  5  1  0  0  0  0
  4 29  1  0  0  0  0
  4 30  1  0  0  0  0
  5 13  1  0  0  0  0
  5  6  2  0  0  0  0
  6  7  1  0  0  0  0
  7 12  2  0  0  0  0
  7  8  1  0  0  0  0
  8  9  2  0  0  0  0
  8 31  1  0  0  0  0
  9 10  1  0  0  0  0
  9 32  1  0  0  0  0
 10 11  2  0  0  0  0
 10 33  1  0  0  0  0
 11 12  1  0  0  0  0
 11 34  1  0  0  0  0
 12 13  1  0  0  0  0
 13 14  1  0  0  0  0
 14 15  1  0  0  0  0
 14 35  1  0  0  0  0
 14 36  1  0  0  0  0
 15 16  1  0  0  0  0
 15 17  1  0  0  0  0
 15 37  1  0  0  0  0
 16 38  1  0  0  0  0
 17 23  1  0  0  0  0
 17 18  2  0  0  0  0
 18 19  1  0  0  0  0
 18 39  1  0  0  0  0
 19 20  2  0  0  0  0
 19 40  1  0  0  0  0
 20 21  1  0  0  0  0
 20 22  1  0  0  0  0
 22 23  2  0  0  0  0
 22 41  1  0  0  0  0
 23 42  1  0  0  0  0
M  END
> <s_m_source_file>
AV-unprocessed.smi

> <i_m_source_file_index>
1021

> <i_lp_mmshare_version>
43012

> <i_f3d_flags>
0

> <s_epik_input>
W09IXVtDSDJdW0NIMl1bQ0gyXWMobjEpbihjKGMxMilbY0hdW2NIXVtjSF1bY0hdMilbQ0gyXVtDQEhdKFtPSF0pYzNbY0hdW2NIXWMoRilbY0hdW2NIXTM=

> <s_epik_cmdline>
J2VwaWtfcHl0aG9uJywgJy1waCcsICc3LjAnLCAnLXRuJywgJzgnLCAnLW1hJywgJzIwMCcsICctbWV0YWxfYmluZGluZycsICctaW1hZScsICc8aW5maWxlLm1hZT4nLCAnLW9tYWUnLCAnPG91dGZpbGUubWFlPic=

> <r_epik_Ionization_Penalty>
0.182562

> <r_epik_Ionization_Penalty_Charging>
0

> <r_epik_Ionization_Penalty_Neutral>
0.182562

> <r_epik_State_Penalty>
0.172086

> <r_epik_Charging_Adjusted_Penalty>
0.172086

> <i_epik_Tot_Q>
0

> <i_epik_Tot_abs_Q>
0

> <r_epik_Metal_State_Penalty>
0.000199649

> <b_epik_Metal_Only>
0

> <s_lp_Force_Field>
OPLS_2005

> <r_lp_Energy>
12.4475

> <b_lp_Chiralities_Consistent>
1

> <s_lp_Variant>
AV-unprocessed.smi:1021-1

> <Gold.Version>
5.8.1

> <Gold.Id.Protein>
6NUR|6NUR_protein|mol2

> <Gold.PLP.Fitness>
46.5935

> <Gold.PLP.PLP>
-45.4721

> <Gold.PLP.part.hbond>
-1.0580

> <Gold.PLP.part.metal>
0.0000

> <Gold.PLP.part.buried>
-3.7672

> <Gold.PLP.part.nonpolar>
-41.2533

> <Gold.PLP.part.repulsive>
0.0000

> <Gold.PLP.ligand.clash>
0.0000

> <Gold.PLP.ligand.torsion>
0.9872

> <Gold.PLP.Chemscore.Hbond>
0.9913

> <Gold.PLP.Chemscore.CHOScore>
0.0000

> <Gold.PLP.Chemscore.Metal>
0.0000

> <Gold.Chemscore.Hbonds>
donor molecule, donor type, donor heavy atom, donor atom, acceptor molecule, acceptor atom, score
      P1  H  6896  6908       L1     1  1.00

> <Gold.PLP.Chemscore.Internal.Correction>
0.1221

> <Gold.Rescore>
     Score         DG    S(hbond)    S(metal)    S(lipo)     H(rot)  DE(clash)    DE(int)     intcor
     12.84     -16.04       0.95        0.00     130.39       3.07       0.19       3.01       ----

> <Gold.Chemscore.Fitness>
12.8361

> <Gold.Chemscore.DG>
-16.0385

> <Gold.Chemscore.ZeroCoef>
-5.4800

> <Gold.Chemscore.Hbond>
0.9500

> <Gold.Chemscore.Metal>
0.0000

> <Gold.Chemscore.Lipo>
130.3873

> <Gold.Chemscore.Internal_Hbond>
0.0000

> <Gold.Chemscore.DEClash>
0.1942

> <Gold.Chemscore.DEInternal>
3.0082

> <Gold.Chemscore.Rot>
3.0741

> <Gold.Chemscore.Internal.Correction>
   9.000000E+99

> <Gold.Chemscore.Hbonds>
donor molecule, donor type, donor heavy atom, donor atom, acceptor molecule, acceptor atom, score
      P1  H  6896  6908       L1     1  0.84

> <Gold.Chemscore.Hbond.Weighted>
-3.1730

> <Gold.Chemscore.Metal.Weighted>
-0.0000

> <Gold.Chemscore.Lipo.Weighted>
-15.2553

> <Gold.Chemscore.Internal_Hbond.Weighted>
0.0000

> <Gold.Chemscore.DEClash.Weighted>
0.1942

> <Gold.Chemscore.DEInternal.Weighted>
3.0082

> <Gold.Chemscore.Rot.Weighted>
7.8698

> <Gold.Chemscore.Internal.Correction.Weighted>
   9.000000E+99

> <Gold.Protein.RotatedTorsions>
[ 6907 6896 6895 6894 ] final -124.33 input  -60.11 | X-H torsion
[ 7974 7965 7964 7962 ] final  172.71 input  175.53 | X-H torsion
[ 8008 7997 7996 7995 ] final   63.80 input   59.86 | X-H torsion
[ 10167 10162 10161 10158 ] final  -33.75 input  -65.29 | X-H torsion
[ 10718 10713 10712 10709 ] final  -69.58 input   66.30 | X-H torsion
[ 10763 10752 10751 10750 ] final  165.37 input  -60.55 | X-H torsion
[ 11005 11000 10999 10996 ] final  -36.84 input  -57.11 | X-H torsion

> <Gold.Protein.ActiveResidues>
 VAL166  LYS551  ARG553  GLY616  TRP617  ASP618  TYR619  PRO620  LYS621  CYS622 
 ASP623  PHE694  ASN695  SER759  ASP760  ASP761  ALA762  ILE779  LEU786  VAL792 
 PHE793  MET794  SER795  GLU796  ALA797  LYS798  CYS799  TRP800  GLU811  SER814 

> <Gold.Protein.RotatedAtoms>
  150.8757  133.7442  159.2947 H   0  0  0  0  0  0  0  0  0  0  0  0  # atno 6907 bound_to 6896
  151.5039  135.1061  159.9846 H   0  0  0  0  0  0  0  0  0  0  0  0  # atno 6908 bound_to 6896
  152.4726  133.8019  159.7013 H   0  0  0  0  0  0  0  0  0  0  0  0  # atno 6909 bound_to 6896
  144.7261  139.9539  143.6433 H   0  0  0  0  0  0  0  0  0  0  0  0  # atno 7974 bound_to 7965
  155.6360  140.3496  155.4699 H   0  0  0  0  0  0  0  0  0  0  0  0  # atno 8008 bound_to 7997
  155.9965  140.1204  157.0612 H   0  0  0  0  0  0  0  0  0  0  0  0  # atno 8009 bound_to 7997
  154.4235  140.1109  156.5623 H   0  0  0  0  0  0  0  0  0  0  0  0  # atno 8010 bound_to 7997
  140.7198  143.3597  151.1987 H   0  0  0  0  0  0  0  0  0  0  0  0  # atno 10167 bound_to 10162
  156.0448  130.4315  150.2169 H   0  0  0  0  0  0  0  0  0  0  0  0  # atno 10718 bound_to 10713
  154.3229  135.2755  155.2510 H   0  0  0  0  0  0  0  0  0  0  0  0  # atno 10763 bound_to 10752
  154.4856  135.5847  153.6424 H   0  0  0  0  0  0  0  0  0  0  0  0  # atno 10764 bound_to 10752
  152.9874  135.6122  154.3416 H   0  0  0  0  0  0  0  0  0  0  0  0  # atno 10765 bound_to 10752
  140.9906  133.7007  156.1843 H   0  0  0  0  0  0  0  0  0  0  0  0  # atno 11005 bound_to 11000
  146.0690  139.3680  143.0535 LP  0  0  0  0  0  0  0  0  0  0  0  0  # atno 17320 bound_to 7965
  145.7993  140.9778  143.1007 LP  0  0  0  0  0  0  0  0  0  0  0  0  # atno 17321 bound_to 7965
  139.7146  143.9320  152.2961 LP  0  0  0  0  0  0  0  0  0  0  0  0  # atno 17342 bound_to 10162
  139.9057  144.6886  150.8616 LP  0  0  0  0  0  0  0  0  0  0  0  0  # atno 17343 bound_to 10162
  157.0259  130.9993  151.3326 LP  0  0  0  0  0  0  0  0  0  0  0  0  # atno 17370 bound_to 10713
  157.5311  130.8059  149.7918 LP  0  0  0  0  0  0  0  0  0  0  0  0  # atno 17371 bound_to 10713
  140.7046  134.4527  157.5584 LP  0  0  0  0  0  0  0  0  0  0  0  0  # atno 17394 bound_to 11000
  139.8990  134.8600  156.1976 LP  0  0  0  0  0  0  0  0  0  0  0  0  # atno 17395 bound_to 11000

$$$$
