AV-unprocessed.smi:532|AV-procd|sdf|2853|dock4
  -GOLD-   2262023343D 1   1.00000     0.00000
 Structure written by MMmdl.
 48 50  0  0  0  0  0  0  0  0  2 V2000
  154.5387  134.6589  157.7640 C   0  0  0  0  0  0  0  0  0  0  0  0
  154.5945  135.8580  157.0119 O   0  0  0  0  0  0  0  0  0  0  0  0
  154.5012  137.0126  157.8286 C   0  0  0  0  0  0  0  0  0  0  0  0
  153.0245  137.3922  157.9891 C   0  0  0  0  0  0  0  0  0  0  0  0
  152.8702  138.7931  158.3580 N   0  0  0  0  0  0  0  0  0  0  0  0
  152.2075  139.7608  157.6752 C   0  0  0  0  0  0  0  0  0  0  0  0
  151.5773  139.4907  156.4633 N   0  0  0  0  0  0  0  0  0  0  0  0
  152.2053  138.6909  155.4109 C   0  0  0  0  0  0  0  0  0  0  0  0
  151.2024  137.8802  154.5591 C   0  0  1  0  0  0  0  0  0  0  0  0
  150.6570  136.6395  155.2849 C   0  0  0  0  0  0  0  0  0  0  0  0
  150.0860  138.7912  154.0203 C   0  0  0  0  0  0  0  0  0  0  0  0
  149.4656  139.6353  155.1455 C   0  0  2  0  0  0  0  0  0  0  0  0
  148.4029  140.6000  154.6020 C   0  0  0  0  0  0  0  0  0  0  0  0
  150.5761  140.3908  155.8975 C   0  0  0  0  0  0  0  0  0  0  0  0
  152.2089  140.9613  158.2573 N   0  0  0  0  0  0  0  0  0  0  0  0
  152.9541  140.7392  159.4063 C   0  0  0  0  0  0  0  0  0  0  0  0
  153.3681  139.4468  159.4875 C   0  0  0  0  0  0  0  0  0  0  0  0
  154.1894  138.9133  160.5941 C   0  0  0  0  0  0  0  0  0  0  0  0
  154.5494  137.7378  160.6068 O   0  0  0  0  0  0  0  0  0  0  0  0
  154.4696  139.8704  161.5347 N   0  5  0  0  0  0  0  0  0  0  0  0
  154.0688  141.1897  161.4956 C   0  0  0  0  0  0  0  0  0  0  0  0
  154.3710  141.9812  162.3889 O   0  0  0  0  0  0  0  0  0  0  0  0
  153.3158  141.6413  160.4411 N   0  0  0  0  0  0  0  0  0  0  0  0
  152.8532  143.0275  160.3222 C   0  0  0  0  0  0  0  0  0  0  0  0
  154.6127  133.8020  157.0948 H   0  0  0  0  0  0  0  0  0  0  0  0
  153.5975  134.5798  158.3098 H   0  0  0  0  0  0  0  0  0  0  0  0
  155.3631  134.6016  158.4759 H   0  0  0  0  0  0  0  0  0  0  0  0
  154.9510  136.8223  158.8040 H   0  0  0  0  0  0  0  0  0  0  0  0
  155.0521  137.8357  157.3724 H   0  0  0  0  0  0  0  0  0  0  0  0
  152.4786  137.2065  157.0653 H   0  0  0  0  0  0  0  0  0  0  0  0
  152.5428  136.7649  158.7382 H   0  0  0  0  0  0  0  0  0  0  0  0
  152.7650  139.3686  154.7650 H   0  0  0  0  0  0  0  0  0  0  0  0
  152.9419  138.0213  155.8563 H   0  0  0  0  0  0  0  0  0  0  0  0
  151.7520  137.5009  153.6969 H   0  0  0  0  0  0  0  0  0  0  0  0
  150.0757  136.9032  156.1661 H   0  0  0  0  0  0  0  0  0  0  0  0
  151.4675  135.9842  155.6036 H   0  0  0  0  0  0  0  0  0  0  0  0
  150.0088  136.0578  154.6293 H   0  0  0  0  0  0  0  0  0  0  0  0
  150.5061  139.4568  153.2647 H   0  0  0  0  0  0  0  0  0  0  0  0
  149.3208  138.2006  153.5153 H   0  0  0  0  0  0  0  0  0  0  0  0
  148.9697  138.9678  155.8513 H   0  0  0  0  0  0  0  0  0  0  0  0
  148.8352  141.3112  153.8974 H   0  0  0  0  0  0  0  0  0  0  0  0
  147.9415  141.1693  155.4094 H   0  0  0  0  0  0  0  0  0  0  0  0
  147.6096  140.0591  154.0856 H   0  0  0  0  0  0  0  0  0  0  0  0
  150.1372  140.9791  156.7046 H   0  0  0  0  0  0  0  0  0  0  0  0
  151.0720  141.0989  155.2322 H   0  0  0  0  0  0  0  0  0  0  0  0
  153.1515  143.6754  161.1465 H   0  0  0  0  0  0  0  0  0  0  0  0
  151.7643  143.0506  160.2697 H   0  0  0  0  0  0  0  0  0  0  0  0
  153.2422  143.4697  159.4047 H   0  0  0  0  0  0  0  0  0  0  0  0
  1  2  1  0  0  0  0
  1 25  1  0  0  0  0
  1 26  1  0  0  0  0
  1 27  1  0  0  0  0
  2  3  1  0  0  0  0
  3  4  1  0  0  0  0
  3 28  1  0  0  0  0
  3 29  1  0  0  0  0
  4  5  1  0  0  0  0
  4 30  1  0  0  0  0
  4 31  1  0  0  0  0
  5 17  1  0  0  0  0
  5  6  1  0  0  0  0
  6  7  1  0  0  0  0
  6 15  2  0  0  0  0
  7 14  1  0  0  0  0
  7  8  1  0  0  0  0
  8  9  1  0  0  0  0
  8 32  1  0  0  0  0
  8 33  1  0  0  0  0
  9 10  1  0  0  0  0
  9 11  1  0  0  0  0
  9 34  1  0  0  0  0
 10 35  1  0  0  0  0
 10 36  1  0  0  0  0
 10 37  1  0  0  0  0
 11 12  1  0  0  0  0
 11 38  1  0  0  0  0
 11 39  1  0  0  0  0
 12 13  1  0  0  0  0
 12 14  1  0  0  0  0
 12 40  1  0  0  0  0
 13 41  1  0  0  0  0
 13 42  1  0  0  0  0
 13 43  1  0  0  0  0
 14 44  1  0  0  0  0
 14 45  1  0  0  0  0
 15 16  1  0  0  0  0
 16 23  1  0  0  0  0
 16 17  2  0  0  0  0
 17 18  1  0  0  0  0
 18 19  2  0  0  0  0
 18 20  1  0  0  0  0
 20 21  1  0  0  0  0
 21 22  2  0  0  0  0
 21 23  1  0  0  0  0
 23 24  1  0  0  0  0
 24 46  1  0  0  0  0
 24 47  1  0  0  0  0
 24 48  1  0  0  0  0
M  CHG  1  20  -1
M  END
> <s_m_source_file>
AV-unprocessed.smi

> <i_m_source_file_index>
532

> <i_lp_mmshare_version>
43012

> <i_f3d_flags>
0

> <s_epik_input>
W0NIM11uMWMoPU8pW25IXWMoPU8pYyhjMTIpbihbQ0gyXVtDSDJdT1tDSDNdKWMobjIpTjNbQ0gyXVtDQEBIXShbQ0gzXSlbQ0gyXVtDQEBIXShbQ0gzXSlbQ0gyXTM=

> <s_epik_cmdline>
J2VwaWtfcHl0aG9uJywgJy1waCcsICc3LjAnLCAnLXRuJywgJzgnLCAnLW1hJywgJzIwMCcsICctbWV0YWxfYmluZGluZycsICctaW1hZScsICc8aW5maWxlLm1hZT4nLCAnLW9tYWUnLCAnPG91dGZpbGUubWFlPic=

> <r_lp_tautomer_probability>
1

> <r_epik_Ionization_Penalty>
5.12128

> <r_epik_Ionization_Penalty_Charging>
0.0789629

> <r_epik_Ionization_Penalty_Neutral>
5.04232

> <r_epik_State_Penalty>
5.03111

> <r_epik_Charging_Adjusted_Penalty>
5.11007

> <i_epik_Tot_Q>
-1

> <i_epik_Tot_abs_Q>
1

> <r_epik_Metal_State_Penalty>
1.14201

> <b_epik_Metal_Only>
1

> <s_lp_Force_Field>
OPLS_2005

> <r_lp_Energy>
48.0239

> <b_lp_Chiralities_Consistent>
1

> <s_lp_Variant>
AV-unprocessed.smi:532-6

> <Gold.Version>
5.8.1

> <Gold.Id.Protein>
6NUR|6NUR_protein|mol2

> <Gold.PLP.Fitness>
45.3106

> <Gold.PLP.PLP>
-42.8300

> <Gold.PLP.part.hbond>
-2.0000

> <Gold.PLP.part.metal>
0.0000

> <Gold.PLP.part.buried>
-3.5764

> <Gold.PLP.part.nonpolar>
-36.8064

> <Gold.PLP.part.repulsive>
0.0067

> <Gold.PLP.ligand.clash>
0.0000

> <Gold.PLP.ligand.torsion>
0.7142

> <Gold.PLP.Chemscore.Hbond>
1.0000

> <Gold.PLP.Chemscore.CHOScore>
0.0000

> <Gold.PLP.Chemscore.Metal>
0.0000

> <Gold.Chemscore.Hbonds>
donor molecule, donor type, donor heavy atom, donor atom, acceptor molecule, acceptor atom, score
      P1  H 10752 10764       L1     2  1.00

> <Gold.PLP.Chemscore.Internal.Correction>
0.9090

> <Gold.Rescore>
     Score         DG    S(hbond)    S(metal)    S(lipo)     H(rot)  DE(clash)    DE(int)     intcor
     11.05     -14.12       0.98        0.00      76.75       1.41       1.50       1.57       ----

> <Gold.Chemscore.Fitness>
11.0493

> <Gold.Chemscore.DG>
-14.1227

> <Gold.Chemscore.ZeroCoef>
-5.4800

> <Gold.Chemscore.Hbond>
0.9833

> <Gold.Chemscore.Metal>
0.0000

> <Gold.Chemscore.Lipo>
76.7518

> <Gold.Chemscore.Internal_Hbond>
0.0000

> <Gold.Chemscore.DEClash>
1.4987

> <Gold.Chemscore.DEInternal>
1.5748

> <Gold.Chemscore.Rot>
1.4147

> <Gold.Chemscore.Internal.Correction>
   9.000000E+99

> <Gold.Chemscore.Hbonds>
donor molecule, donor type, donor heavy atom, donor atom, acceptor molecule, acceptor atom, score
      P1  H 10752 10764       L1     2  0.40

> <Gold.Chemscore.Hbond.Weighted>
-3.2843

> <Gold.Chemscore.Metal.Weighted>
-0.0000

> <Gold.Chemscore.Lipo.Weighted>
-8.9800

> <Gold.Chemscore.Internal_Hbond.Weighted>
0.0000

> <Gold.Chemscore.DEClash.Weighted>
1.4987

> <Gold.Chemscore.DEInternal.Weighted>
1.5748

> <Gold.Chemscore.Rot.Weighted>
3.6216

> <Gold.Chemscore.Internal.Correction.Weighted>
   9.000000E+99

> <Gold.Protein.RotatedTorsions>
[ 6907 6896 6895 6894 ] final  -49.72 input  -60.11 | X-H torsion
[ 7974 7965 7964 7962 ] final   50.80 input  175.53 | X-H torsion
[ 8008 7997 7996 7995 ] final  -58.52 input   59.86 | X-H torsion
[ 10167 10162 10161 10158 ] final -112.06 input  -65.29 | X-H torsion
[ 10718 10713 10712 10709 ] final  122.97 input   66.30 | X-H torsion
[ 10763 10752 10751 10750 ] final   41.54 input  -60.55 | X-H torsion
[ 11005 11000 10999 10996 ] final  -73.11 input  -57.11 | X-H torsion

> <Gold.Protein.ActiveResidues>
 VAL166  LYS551  ARG553  GLY616  TRP617  ASP618  TYR619  PRO620  LYS621  CYS622 
 ASP623  PHE694  ASN695  SER759  ASP760  ASP761  ALA762  ILE779  LEU786  VAL792 
 PHE793  MET794  SER795  GLU796  ALA797  LYS798  CYS799  TRP800  GLU811  SER814 

> <Gold.Protein.RotatedAtoms>
  150.8778  134.8164  159.7202 H   0  0  0  0  0  0  0  0  0  0  0  0  # atno 6907 bound_to 6896
  152.4758  134.4844  159.9685 H   0  0  0  0  0  0  0  0  0  0  0  0  # atno 6908 bound_to 6896
  151.4924  133.3483  159.2891 H   0  0  0  0  0  0  0  0  0  0  0  0  # atno 6909 bound_to 6896
  145.9976  139.4405  143.0035 H   0  0  0  0  0  0  0  0  0  0  0  0  # atno 7974 bound_to 7965
  154.4312  140.1082  156.5969 H   0  0  0  0  0  0  0  0  0  0  0  0  # atno 8008 bound_to 7997
  155.5952  140.3492  155.4559 H   0  0  0  0  0  0  0  0  0  0  0  0  # atno 8009 bound_to 7997
  156.0216  140.1241  157.0341 H   0  0  0  0  0  0  0  0  0  0  0  0  # atno 8010 bound_to 7997
  140.1269  143.4395  152.1654 H   0  0  0  0  0  0  0  0  0  0  0  0  # atno 10167 bound_to 10162
  157.5701  131.1084  150.8383 H   0  0  0  0  0  0  0  0  0  0  0  0  # atno 10718 bound_to 10713
  152.9905  135.6159  154.2804 H   0  0  0  0  0  0  0  0  0  0  0  0  # atno 10763 bound_to 10752
  154.2533  135.2784  155.2809 H   0  0  0  0  0  0  0  0  0  0  0  0  # atno 10764 bound_to 10752
  154.5269  135.5799  153.6784 H   0  0  0  0  0  0  0  0  0  0  0  0  # atno 10765 bound_to 10752
  141.1618  133.6868  156.7161 H   0  0  0  0  0  0  0  0  0  0  0  0  # atno 11005 bound_to 11000
  145.7536  140.9963  143.1237 LP  0  0  0  0  0  0  0  0  0  0  0  0  # atno 17320 bound_to 7965
  144.6909  139.9244  143.7469 LP  0  0  0  0  0  0  0  0  0  0  0  0  # atno 17321 bound_to 7965
  139.5540  144.7359  151.4350 LP  0  0  0  0  0  0  0  0  0  0  0  0  # atno 17342 bound_to 10162
  140.6840  143.8017  150.7160 LP  0  0  0  0  0  0  0  0  0  0  0  0  # atno 17343 bound_to 10162
  156.8857  130.5195  149.5288 LP  0  0  0  0  0  0  0  0  0  0  0  0  # atno 17370 bound_to 10713
  156.0747  130.5772  150.9450 LP  0  0  0  0  0  0  0  0  0  0  0  0  # atno 17371 bound_to 10713
  140.2850  134.8286  157.3967 LP  0  0  0  0  0  0  0  0  0  0  0  0  # atno 17394 bound_to 11000
  140.1398  134.4987  155.8040 LP  0  0  0  0  0  0  0  0  0  0  0  0  # atno 17395 bound_to 11000

$$$$
