AV-unprocessed.smi:1726|AV-procd|sdf|6959|dock5
  -GOLD-   22720 8173D 1   1.00000     0.00000
 Structure written by MMmdl.
 43 44  0  0  0  0  0  0  0  0  2 V2000
  148.3204  141.4068  155.1813 C   0  0  0  0  0  0  0  0  0  0  0  0
  149.1554  140.4125  154.3617 C   0  0  0  0  0  0  0  0  0  0  0  0
  149.7126  139.3195  155.1971 N   0  3  1  0  0  0  0  0  0  0  0  0
  150.4825  138.3313  154.3974 C   0  0  0  0  0  0  0  0  0  0  0  0
  150.9175  137.1335  155.2602 C   0  0  0  0  0  0  0  0  0  0  0  0
  151.6996  137.5907  156.5030 C   0  0  0  0  0  0  0  0  0  0  0  0
  150.9094  138.6503  157.2916 C   0  0  2  0  0  0  0  0  0  0  0  0
  149.7413  138.0327  157.9209 N   0  0  0  0  0  0  0  0  0  0  0  0
  149.7762  137.0388  158.8201 C   0  0  0  0  0  0  0  0  0  0  0  0
  150.8243  136.5428  159.2307 O   0  0  0  0  0  0  0  0  0  0  0  0
  148.5312  136.6912  159.1947 N   0  0  0  0  0  0  0  0  0  0  0  0
  148.1012  135.7082  160.1038 C   0  0  0  0  0  0  0  0  0  0  0  0
  148.2493  134.3667  159.9429 C   0  0  0  0  0  0  0  0  0  0  0  0
  147.7729  133.4133  160.9314 C   0  0  0  0  0  0  0  0  0  0  0  0
  147.8829  131.9125  160.7103 C   0  0  0  0  0  0  0  0  0  0  0  0
  148.5539  131.3550  161.7171 F   0  0  0  0  0  0  0  0  0  0  0  0
  146.6783  131.3434  160.6486 F   0  0  0  0  0  0  0  0  0  0  0  0
  148.5322  131.6409  159.5780 F   0  0  0  0  0  0  0  0  0  0  0  0
  147.1549  133.9258  162.0110 C   0  0  0  0  0  0  0  0  0  0  0  0
  147.0082  135.3027  162.1901 N   0  0  0  0  0  0  0  0  0  0  0  0
  147.4389  136.2335  161.3099 C   0  0  0  0  0  0  0  0  0  0  0  0
  147.2701  137.4307  161.5400 O   0  0  0  0  0  0  0  0  0  0  0  0
  150.5101  139.8103  156.3524 C   0  0  0  0  0  0  0  0  0  0  0  0
  146.5466  135.6091  163.0344 H   0  0  0  0  0  0  0  0  0  0  0  0
  147.8521  142.1429  154.5274 H   0  0  0  0  0  0  0  0  0  0  0  0
  148.9244  141.9561  155.9027 H   0  0  0  0  0  0  0  0  0  0  0  0
  147.5254  140.8975  155.7266 H   0  0  0  0  0  0  0  0  0  0  0  0
  148.5040  139.9847  153.5985 H   0  0  0  0  0  0  0  0  0  0  0  0
  149.9577  140.9261  153.8300 H   0  0  0  0  0  0  0  0  0  0  0  0
  149.8729  137.9695  153.5685 H   0  0  0  0  0  0  0  0  0  0  0  0
  151.3558  138.8178  153.9596 H   0  0  0  0  0  0  0  0  0  0  0  0
  150.0374  136.5661  155.5653 H   0  0  0  0  0  0  0  0  0  0  0  0
  151.5288  136.4517  154.6680 H   0  0  0  0  0  0  0  0  0  0  0  0
  151.9363  136.7363  157.1383 H   0  0  0  0  0  0  0  0  0  0  0  0
  152.6555  138.0129  156.1905 H   0  0  0  0  0  0  0  0  0  0  0  0
  151.5532  139.0391  158.0825 H   0  0  0  0  0  0  0  0  0  0  0  0
  148.8364  138.3757  157.6321 H   0  0  0  0  0  0  0  0  0  0  0  0
  147.7784  137.2109  158.7667 H   0  0  0  0  0  0  0  0  0  0  0  0
  148.7273  133.9554  159.0704 H   0  0  0  0  0  0  0  0  0  0  0  0
  146.7278  133.3327  162.8063 H   0  0  0  0  0  0  0  0  0  0  0  0
  151.4053  140.3138  155.9838 H   0  0  0  0  0  0  0  0  0  0  0  0
  149.9516  140.5593  156.9120 H   0  0  0  0  0  0  0  0  0  0  0  0
  148.9205  138.8209  155.5769 H   0  0  0  0  0  0  0  0  0  0  0  0
  1  2  1  0  0  0  0
  1 25  1  0  0  0  0
  1 26  1  0  0  0  0
  1 27  1  0  0  0  0
  2  3  1  0  0  0  0
  2 28  1  0  0  0  0
  2 29  1  0  0  0  0
  3 23  1  0  0  0  0
  3  4  1  0  0  0  0
  3 43  1  0  0  0  0
  4  5  1  0  0  0  0
  4 30  1  0  0  0  0
  4 31  1  0  0  0  0
  5  6  1  0  0  0  0
  5 32  1  0  0  0  0
  5 33  1  0  0  0  0
  6  7  1  0  0  0  0
  6 34  1  0  0  0  0
  6 35  1  0  0  0  0
  7  8  1  0  0  0  0
  7 23  1  0  0  0  0
  7 36  1  0  0  0  0
  8  9  1  0  0  0  0
  8 37  1  0  0  0  0
  9 10  2  0  0  0  0
  9 11  1  0  0  0  0
 11 12  1  0  0  0  0
 11 38  1  0  0  0  0
 12 21  1  0  0  0  0
 12 13  2  0  0  0  0
 13 14  1  0  0  0  0
 13 39  1  0  0  0  0
 14 15  1  0  0  0  0
 14 19  2  0  0  0  0
 15 16  1  0  0  0  0
 15 17  1  0  0  0  0
 15 18  1  0  0  0  0
 19 20  1  0  0  0  0
 19 40  1  0  0  0  0
 20 24  1  0  0  0  0
 20 21  1  0  0  0  0
 21 22  2  0  0  0  0
 23 41  1  0  0  0  0
 23 42  1  0  0  0  0
M  CHG  1   3   1
M  END
> <s_m_source_file>
AV-unprocessed.smi

> <i_m_source_file_index>
1726

> <i_lp_mmshare_version>
43012

> <i_f3d_flags>
0

> <s_epik_input>
W0NIM11bQ0gyXU4xW0NIMl1bQ0gyXVtDSDJdW0NASF0oW0NIMl0xKVtOSF1DKD1PKVtOSF1jMltjSF1jKEMoRikoRilGKVtjSF1bbkhdYzI9Tw==

> <s_epik_cmdline>
J2VwaWtfcHl0aG9uJywgJy1waCcsICc3LjAnLCAnLXRuJywgJzgnLCAnLW1hJywgJzIwMCcsICctbWV0YWxfYmluZGluZycsICctaW1hZScsICc8aW5maWxlLm1hZT4nLCAnLW9tYWUnLCAnPG91dGZpbGUubWFlPic=

> <r_lp_tautomer_probability>
1

> <r_epik_Ionization_Penalty>
0.00745721

> <r_epik_Ionization_Penalty_Charging>
0.00743804

> <r_epik_Ionization_Penalty_Neutral>
1.91703e-05

> <r_epik_State_Penalty>
-0

> <r_epik_Charging_Adjusted_Penalty>
0.00743804

> <i_epik_Tot_Q>
1

> <i_epik_Tot_abs_Q>
1

> <r_epik_Metal_State_Penalty>
0.37929

> <b_epik_Metal_Only>
0

> <s_lp_Force_Field>
OPLS_2005

> <r_lp_Energy>
34.9839

> <b_lp_Chiralities_Consistent>
1

> <s_lp_Variant>
AV-unprocessed.smi:1726-3

> <Gold.Version>
5.8.1

> <Gold.Id.Protein>
6NUR|6NUR_protein|mol2

> <Gold.PLP.Fitness>
39.3770

> <Gold.PLP.PLP>
-32.6455

> <Gold.PLP.part.hbond>
-3.0000

> <Gold.PLP.part.metal>
0.0000

> <Gold.PLP.part.buried>
-4.2551

> <Gold.PLP.part.nonpolar>
-25.8807

> <Gold.PLP.part.repulsive>
0.4033

> <Gold.PLP.ligand.clash>
0.0000

> <Gold.PLP.ligand.torsion>
0.6601

> <Gold.PLP.Chemscore.Hbond>
2.6640

> <Gold.PLP.Chemscore.CHOScore>
0.0000

> <Gold.PLP.Chemscore.Metal>
0.0000

> <Gold.Chemscore.Hbonds>
donor molecule, donor type, donor heavy atom, donor atom, acceptor molecule, acceptor atom, score
      P1  H  6896  6907       L1    10  1.00
      P1  H  6931  6943       L1    22  0.77
      P1  H  6934  6947       L1    22  0.90

> <Gold.PLP.Chemscore.Internal.Correction>
0.0597

> <Gold.Rescore>
     Score         DG    S(hbond)    S(metal)    S(lipo)     H(rot)  DE(clash)    DE(int)     intcor
     18.18     -18.97       2.72        0.00      65.90       1.29       0.01       0.78       ----

> <Gold.Chemscore.Fitness>
18.1760

> <Gold.Chemscore.DG>
-18.9654

> <Gold.Chemscore.ZeroCoef>
-5.4800

> <Gold.Chemscore.Hbond>
2.7167

> <Gold.Chemscore.Metal>
0.0000

> <Gold.Chemscore.Lipo>
65.8975

> <Gold.Chemscore.Internal_Hbond>
0.0000

> <Gold.Chemscore.DEClash>
0.0069

> <Gold.Chemscore.DEInternal>
0.7825

> <Gold.Chemscore.Rot>
1.2884

> <Gold.Chemscore.Internal.Correction>
   9.000000E+99

> <Gold.Chemscore.Hbonds>
donor molecule, donor type, donor heavy atom, donor atom, acceptor molecule, acceptor atom, score
      P1  H  6896  6907       L1    10  0.96
      P1  H  6931  6943       L1    22  0.52
      P1  H  6934  6947       L1    22  0.88

> <Gold.Chemscore.Hbond.Weighted>
-9.0737

> <Gold.Chemscore.Metal.Weighted>
-0.0000

> <Gold.Chemscore.Lipo.Weighted>
-7.7100

> <Gold.Chemscore.Internal_Hbond.Weighted>
0.0000

> <Gold.Chemscore.DEClash.Weighted>
0.0069

> <Gold.Chemscore.DEInternal.Weighted>
0.7825

> <Gold.Chemscore.Rot.Weighted>
3.2983

> <Gold.Chemscore.Internal.Correction.Weighted>
   9.000000E+99

> <Gold.Protein.RotatedTorsions>
[ 6907 6896 6895 6894 ] final  -38.04 input  -60.11 | X-H torsion
[ 7974 7965 7964 7962 ] final  174.67 input  175.53 | X-H torsion
[ 8008 7997 7996 7995 ] final   -6.85 input   59.86 | X-H torsion
[ 10167 10162 10161 10158 ] final   56.02 input  -65.29 | X-H torsion
[ 10718 10713 10712 10709 ] final   21.83 input   66.30 | X-H torsion
[ 10763 10752 10751 10750 ] final   88.78 input  -60.55 | X-H torsion
[ 11005 11000 10999 10996 ] final -145.62 input  -57.11 | X-H torsion

> <Gold.Protein.ActiveResidues>
 VAL166  LYS551  ARG553  GLY616  TRP617  ASP618  TYR619  PRO620  LYS621  CYS622 
 ASP623  PHE694  ASN695  SER759  ASP760  ASP761  ALA762  ILE779  LEU786  VAL792 
 PHE793  MET794  SER795  GLU796  ALA797  LYS798  CYS799  TRP800  GLU811  SER814 

> <Gold.Protein.RotatedAtoms>
  151.0073  134.9369  159.7987 H   0  0  0  0  0  0  0  0  0  0  0  0  # atno 6907 bound_to 6896
  152.5293  134.3075  159.9111 H   0  0  0  0  0  0  0  0  0  0  0  0  # atno 6908 bound_to 6896
  151.3081  133.4051  159.2679 H   0  0  0  0  0  0  0  0  0  0  0  0  # atno 6909 bound_to 6896
  144.7217  139.9831  143.6439 H   0  0  0  0  0  0  0  0  0  0  0  0  # atno 7974 bound_to 7965
  154.5897  140.2422  155.7938 H   0  0  0  0  0  0  0  0  0  0  0  0  # atno 8008 bound_to 7997
  156.2238  140.2989  155.9971 H   0  0  0  0  0  0  0  0  0  0  0  0  # atno 8009 bound_to 7997
  155.2396  140.0406  157.2963 H   0  0  0  0  0  0  0  0  0  0  0  0  # atno 8010 bound_to 7997
  140.2133  144.3866  150.6480 H   0  0  0  0  0  0  0  0  0  0  0  0  # atno 10167 bound_to 10162
  157.1438  130.6644  149.5989 H   0  0  0  0  0  0  0  0  0  0  0  0  # atno 10718 bound_to 10713
  153.1804  135.4494  155.0020 H   0  0  0  0  0  0  0  0  0  0  0  0  # atno 10763 bound_to 10752
  154.8026  135.3261  154.7514 H   0  0  0  0  0  0  0  0  0  0  0  0  # atno 10764 bound_to 10752
  153.7979  135.6965  153.4915 H   0  0  0  0  0  0  0  0  0  0  0  0  # atno 10765 bound_to 10752
  140.7904  134.2975  157.5015 H   0  0  0  0  0  0  0  0  0  0  0  0  # atno 11005 bound_to 11000
  146.0471  139.3476  143.0662 LP  0  0  0  0  0  0  0  0  0  0  0  0  # atno 17320 bound_to 7965
  145.8261  140.9654  143.0873 LP  0  0  0  0  0  0  0  0  0  0  0  0  # atno 17321 bound_to 7965
  140.6308  143.2187  151.6499 LP  0  0  0  0  0  0  0  0  0  0  0  0  # atno 17342 bound_to 10162
  139.5172  144.3324  152.0814 LP  0  0  0  0  0  0  0  0  0  0  0  0  # atno 17343 bound_to 10162
  155.9783  130.4768  150.6649 LP  0  0  0  0  0  0  0  0  0  0  0  0  # atno 17370 bound_to 10713
  157.4283  131.0846  151.1064 LP  0  0  0  0  0  0  0  0  0  0  0  0  # atno 17371 bound_to 10713
  139.8732  134.9371  156.3679 LP  0  0  0  0  0  0  0  0  0  0  0  0  # atno 17394 bound_to 11000
  140.9395  133.7524  156.0128 LP  0  0  0  0  0  0  0  0  0  0  0  0  # atno 17395 bound_to 11000

$$$$
