AV-unprocessed.smi:911|AV-procd|sdf|4136|dock9
  -GOLD-   22720 2 43D 1   1.00000     0.00000
 Structure written by MMmdl.
 47 49  0  0  0  0  0  0  0  0  3 V2000
  152.2692  143.7819  161.4530 C   0  0  0  0  0  0  0  0  0  0  0  0
  152.1758  144.4344  160.0452 C   0  0  0  0  0  0  0  0  0  0  0  0
  152.2720  145.9660  160.2937 C   0  0  0  0  0  0  0  0  0  0  0  0
  153.2006  143.8970  159.0261 C   0  0  2  0  0  0  0  0  0  0  0  0
  152.8069  144.5991  157.7072 C   0  0  0  0  0  0  0  0  0  0  0  0
  151.2714  144.6781  157.8155 C   0  0  0  0  0  0  0  0  0  0  0  0
  150.9854  143.9634  159.1656 C   0  0  2  0  0  0  0  0  0  0  0  0
  149.5846  144.2678  159.7237 C   0  0  0  0  0  0  0  0  0  0  0  0
  151.2744  142.4386  158.9847 C   0  0  1  0  0  0  0  0  0  0  0  0
  150.6494  141.8379  157.8057 N   0  0  0  0  0  0  0  0  0  0  0  0
  150.4830  140.5231  157.5984 C   0  0  0  0  0  0  0  0  0  0  0  0
  150.8437  139.6610  158.4010 O   0  0  0  0  0  0  0  0  0  0  0  0
  149.7779  140.1333  156.2919 C   0  0  0  0  0  0  0  0  0  0  0  0
  148.5540  140.9127  156.0412 N   0  0  0  0  0  0  0  0  0  0  0  0
  147.6876  141.1144  157.1341 C   0  0  0  0  0  0  0  0  0  0  0  0
  146.5343  141.8012  157.0161 C   0  0  0  0  0  0  0  0  0  0  0  0
  145.6529  141.9919  158.1468 N   0  3  0  0  0  0  0  0  0  0  0  0
  144.5433  142.4775  157.9523 O   0  0  0  0  0  0  0  0  0  0  0  0
  146.0391  141.6643  159.2648 O   0  5  0  0  0  0  0  0  0  0  0  0
  146.2011  142.3403  155.7118 C   0  0  0  0  0  0  0  0  0  0  0  0
  147.0238  142.1478  154.6622 C   0  0  0  0  0  0  0  0  0  0  0  0
  148.2757  141.3952  154.7915 C   0  0  0  0  0  0  0  0  0  0  0  0
  149.0279  141.2095  153.8347 O   0  0  0  0  0  0  0  0  0  0  0  0
  152.8159  142.4089  158.8735 C   0  0  0  0  0  0  0  0  0  0  0  0
  153.1990  144.0664  161.9463 H   0  0  0  0  0  0  0  0  0  0  0  0
  152.2389  142.6949  161.4643 H   0  0  0  0  0  0  0  0  0  0  0  0
  151.4524  144.1213  162.0906 H   0  0  0  0  0  0  0  0  0  0  0  0
  152.2321  146.5843  159.3999 H   0  0  0  0  0  0  0  0  0  0  0  0
  153.2083  146.2136  160.7947 H   0  0  0  0  0  0  0  0  0  0  0  0
  151.4642  146.3050  160.9429 H   0  0  0  0  0  0  0  0  0  0  0  0
  154.2454  144.0465  159.3001 H   0  0  0  0  0  0  0  0  0  0  0  0
  153.2499  145.5926  157.6324 H   0  0  0  0  0  0  0  0  0  0  0  0
  153.1279  144.0383  156.8287 H   0  0  0  0  0  0  0  0  0  0  0  0
  150.9368  145.7155  157.8350 H   0  0  0  0  0  0  0  0  0  0  0  0
  150.7731  144.2232  156.9598 H   0  0  0  0  0  0  0  0  0  0  0  0
  148.8072  143.9443  159.0316 H   0  0  0  0  0  0  0  0  0  0  0  0
  149.4467  145.3357  159.8924 H   0  0  0  0  0  0  0  0  0  0  0  0
  149.4156  143.7565  160.6713 H   0  0  0  0  0  0  0  0  0  0  0  0
  150.9675  141.8807  159.8704 H   0  0  0  0  0  0  0  0  0  0  0  0
  150.3173  142.4742  157.0956 H   0  0  0  0  0  0  0  0  0  0  0  0
  150.4867  140.2628  155.4731 H   0  0  0  0  0  0  0  0  0  0  0  0
  149.5513  139.0653  156.3046 H   0  0  0  0  0  0  0  0  0  0  0  0
  148.0213  140.6664  158.0592 H   0  0  0  0  0  0  0  0  0  0  0  0
  145.2897  142.9018  155.5668 H   0  0  0  0  0  0  0  0  0  0  0  0
  146.7559  142.5575  153.6994 H   0  0  0  0  0  0  0  0  0  0  0  0
  153.1701  141.9921  157.9294 H   0  0  0  0  0  0  0  0  0  0  0  0
  153.2544  141.8007  159.6647 H   0  0  0  0  0  0  0  0  0  0  0  0
  1  2  1  0  0  0  0
  1 25  1  0  0  0  0
  1 26  1  0  0  0  0
  1 27  1  0  0  0  0
  2  7  1  0  0  0  0
  2  3  1  0  0  0  0
  2  4  1  0  0  0  0
  3 28  1  0  0  0  0
  3 29  1  0  0  0  0
  3 30  1  0  0  0  0
  4 24  1  0  0  0  0
  4  5  1  0  0  0  0
  4 31  1  0  0  0  0
  5  6  1  0  0  0  0
  5 32  1  0  0  0  0
  5 33  1  0  0  0  0
  6  7  1  0  0  0  0
  6 34  1  0  0  0  0
  6 35  1  0  0  0  0
  7  8  1  0  0  0  0
  7  9  1  0  0  0  0
  8 36  1  0  0  0  0
  8 37  1  0  0  0  0
  8 38  1  0  0  0  0
  9 10  1  0  0  0  0
  9 24  1  0  0  0  0
  9 39  1  0  0  0  0
 10 11  1  0  0  0  0
 10 40  1  0  0  0  0
 11 12  2  0  0  0  0
 11 13  1  0  0  0  0
 13 14  1  0  0  0  0
 13 41  1  0  0  0  0
 13 42  1  0  0  0  0
 14 22  1  0  0  0  0
 14 15  1  0  0  0  0
 15 16  2  0  0  0  0
 15 43  1  0  0  0  0
 16 17  1  0  0  0  0
 16 20  1  0  0  0  0
 17 18  2  0  0  0  0
 17 19  1  0  0  0  0
 20 21  2  0  0  0  0
 20 44  1  0  0  0  0
 21 22  1  0  0  0  0
 21 45  1  0  0  0  0
 22 23  2  0  0  0  0
 24 46  1  0  0  0  0
 24 47  1  0  0  0  0
M  CHG  1  17   1
M  CHG  1  19  -1
M  END
> <s_m_source_file>
AV-unprocessed.smi

> <i_m_source_file_index>
911

> <i_lp_mmshare_version>
43012

> <i_f3d_flags>
0

> <s_epik_input>
W0NIM11bQ0BdMTJDKFtDSDNdKShbQ0gzXSlbQ0BIXShbQ0gyXVtDSDJdMSlbQ0gyXVtDQEBIXTJbTkhdQyg9TylbQ0gyXW4zW2NIXWMoW04rXSg9TylbTy1dKVtjSF1bY0hdYzM9Tw==

> <s_epik_cmdline>
J2VwaWtfcHl0aG9uJywgJy1waCcsICc3LjAnLCAnLXRuJywgJzgnLCAnLW1hJywgJzIwMCcsICctbWV0YWxfYmluZGluZycsICctaW1hZScsICc8aW5maWxlLm1hZT4nLCAnLW9tYWUnLCAnPG91dGZpbGUubWFlPic=

> <r_lp_tautomer_probability>
1

> <r_epik_Ionization_Penalty>
2.04092e-08

> <r_epik_Ionization_Penalty_Charging>
8.54191e-11

> <r_epik_Ionization_Penalty_Neutral>
2.03238e-08

> <r_epik_State_Penalty>
-0

> <r_epik_Charging_Adjusted_Penalty>
8.54191e-11

> <i_epik_Tot_Q>
0

> <i_epik_Tot_abs_Q>
2

> <r_epik_Metal_State_Penalty>
-0

> <b_epik_Metal_Only>
0

> <s_lp_Force_Field>
OPLS_2005

> <r_lp_Energy>
67.3082

> <b_lp_Chiralities_Consistent>
1

> <s_lp_Variant>
AV-unprocessed.smi:911-1

> <Gold.Version>
5.8.1

> <Gold.Id.Protein>
6NUR|6NUR_protein|mol2

> <Gold.PLP.Fitness>
48.2953

> <Gold.PLP.PLP>
-44.2811

> <Gold.PLP.part.hbond>
-3.0000

> <Gold.PLP.part.metal>
0.0000

> <Gold.PLP.part.buried>
-7.1940

> <Gold.PLP.part.nonpolar>
-36.4755

> <Gold.PLP.part.repulsive>
1.3327

> <Gold.PLP.ligand.clash>
0.0000

> <Gold.PLP.ligand.torsion>
0.6443

> <Gold.PLP.Chemscore.Hbond>
1.7600

> <Gold.PLP.Chemscore.CHOScore>
0.0000

> <Gold.PLP.Chemscore.Metal>
0.0000

> <Gold.Chemscore.Hbonds>
donor molecule, donor type, donor heavy atom, donor atom, acceptor molecule, acceptor atom, score
      P1  H  6934  6946       L1    19  0.96
      P1  H  8011  8017       L1    23  0.77

> <Gold.PLP.Chemscore.Internal.Correction>
0.0229

> <Gold.Rescore>
     Score         DG    S(hbond)    S(metal)    S(lipo)     H(rot)  DE(clash)    DE(int)     intcor
     20.51     -22.88       1.80        0.00     130.70       1.53       1.69       0.67       ----

> <Gold.Chemscore.Fitness>
20.5138

> <Gold.Chemscore.DG>
-22.8753

> <Gold.Chemscore.ZeroCoef>
-5.4800

> <Gold.Chemscore.Hbond>
1.8007

> <Gold.Chemscore.Metal>
0.0000

> <Gold.Chemscore.Lipo>
130.7000

> <Gold.Chemscore.Internal_Hbond>
0.0000

> <Gold.Chemscore.DEClash>
1.6909

> <Gold.Chemscore.DEInternal>
0.6706

> <Gold.Chemscore.Rot>
1.5277

> <Gold.Chemscore.Internal.Correction>
   9.000000E+99

> <Gold.Chemscore.Hbonds>
donor molecule, donor type, donor heavy atom, donor atom, acceptor molecule, acceptor atom, score
      P1  H  6934  6946       L1    19  0.92
      P1  H  8011  8017       L1    23  0.74

> <Gold.Chemscore.Hbond.Weighted>
-6.0144

> <Gold.Chemscore.Metal.Weighted>
-0.0000

> <Gold.Chemscore.Lipo.Weighted>
-15.2919

> <Gold.Chemscore.Internal_Hbond.Weighted>
0.0000

> <Gold.Chemscore.DEClash.Weighted>
1.6909

> <Gold.Chemscore.DEInternal.Weighted>
0.6706

> <Gold.Chemscore.Rot.Weighted>
3.9110

> <Gold.Chemscore.Internal.Correction.Weighted>
   9.000000E+99

> <Gold.Protein.RotatedTorsions>
[ 6907 6896 6895 6894 ] final -168.23 input  -60.11 | X-H torsion
[ 7974 7965 7964 7962 ] final   45.30 input  175.53 | X-H torsion
[ 8008 7997 7996 7995 ] final   76.18 input   59.86 | X-H torsion
[ 10167 10162 10161 10158 ] final  -30.89 input  -65.29 | X-H torsion
[ 10718 10713 10712 10709 ] final  118.12 input   66.30 | X-H torsion
[ 10763 10752 10751 10750 ] final  -27.56 input  -60.55 | X-H torsion
[ 11005 11000 10999 10996 ] final   43.75 input  -57.11 | X-H torsion

> <Gold.Protein.ActiveResidues>
 VAL166  LYS551  ARG553  GLY616  TRP617  ASP618  TYR619  PRO620  LYS621  CYS622 
 ASP623  PHE694  ASN695  SER759  ASP760  ASP761  ALA762  ILE779  LEU786  VAL792 
 PHE793  MET794  SER795  GLU796  ALA797  LYS798  CYS799  TRP800  GLU811  SER814 

> <Gold.Protein.RotatedAtoms>
  151.4723  133.3566  159.2825 H   0  0  0  0  0  0  0  0  0  0  0  0  # atno 6907 bound_to 6896
  150.8953  134.8362  159.7333 H   0  0  0  0  0  0  0  0  0  0  0  0  # atno 6908 bound_to 6896
  152.4847  134.4637  159.9665 H   0  0  0  0  0  0  0  0  0  0  0  0  # atno 6909 bound_to 6896
  146.0492  139.4979  142.9729 H   0  0  0  0  0  0  0  0  0  0  0  0  # atno 7974 bound_to 7965
  155.8236  140.3469  155.5529 H   0  0  0  0  0  0  0  0  0  0  0  0  # atno 8008 bound_to 7997
  155.8316  140.0928  157.1809 H   0  0  0  0  0  0  0  0  0  0  0  0  # atno 8009 bound_to 7997
  154.4004  140.1411  156.3608 H   0  0  0  0  0  0  0  0  0  0  0  0  # atno 8010 bound_to 7997
  140.7243  143.3813  151.1595 H   0  0  0  0  0  0  0  0  0  0  0  0  # atno 10167 bound_to 10162
  157.6051  131.1044  150.7711 H   0  0  0  0  0  0  0  0  0  0  0  0  # atno 10718 bound_to 10713
  153.7341  135.6937  153.4982 H   0  0  0  0  0  0  0  0  0  0  0  0  # atno 10763 bound_to 10752
  153.2115  135.4401  155.0384 H   0  0  0  0  0  0  0  0  0  0  0  0  # atno 10764 bound_to 10752
  154.8243  135.3438  154.6870 H   0  0  0  0  0  0  0  0  0  0  0  0  # atno 10765 bound_to 10752
  140.1615  134.4335  155.8314 H   0  0  0  0  0  0  0  0  0  0  0  0  # atno 11005 bound_to 11000
  145.6753  141.0205  143.1635 LP  0  0  0  0  0  0  0  0  0  0  0  0  # atno 17320 bound_to 7965
  144.7113  139.8359  143.7413 LP  0  0  0  0  0  0  0  0  0  0  0  0  # atno 17321 bound_to 7965
  139.7403  143.8935  152.3048 LP  0  0  0  0  0  0  0  0  0  0  0  0  # atno 17342 bound_to 10162
  139.8754  144.7046  150.8939 LP  0  0  0  0  0  0  0  0  0  0  0  0  # atno 17343 bound_to 10162
  156.8101  130.4950  149.5357 LP  0  0  0  0  0  0  0  0  0  0  0  0  # atno 17370 bound_to 10713
  156.1135  130.6058  151.0085 LP  0  0  0  0  0  0  0  0  0  0  0  0  # atno 17371 bound_to 10713
  141.2210  133.6915  156.7603 LP  0  0  0  0  0  0  0  0  0  0  0  0  # atno 17394 bound_to 11000
  140.2484  134.8560  157.3643 LP  0  0  0  0  0  0  0  0  0  0  0  0  # atno 17395 bound_to 11000

$$$$
