AV-unprocessed.smi:1740|AV-procd|sdf|7013|dock1
  -GOLD-   22720 8223D 1   1.00000     0.00000
 Structure written by MMmdl.
 51 53  0  0  0  0  0  0  0  0  3 V2000
  146.7887  135.6227  153.4074 N   0  5  0  0  0  0  0  0  0  0  0  0
  147.5141  135.1078  154.4202 C   0  0  0  0  0  0  0  0  0  0  0  0
  147.8464  133.9375  154.5927 O   0  0  0  0  0  0  0  0  0  0  0  0
  147.9357  136.1738  155.4375 C   0  0  0  0  0  0  0  0  0  0  0  0
  148.7555  137.2309  154.7912 N   0  3  2  0  0  0  0  0  0  0  0  0
  150.1851  137.1532  155.1852 C   0  0  0  0  0  0  0  0  0  0  0  0
  151.0377  138.1681  154.4021 C   0  0  0  0  0  0  0  0  0  0  0  0
  150.5081  139.6064  154.5589 C   0  0  2  0  0  0  0  0  0  0  0  0
  150.7150  140.1085  155.9166 N   0  0  0  0  0  0  0  0  0  0  0  0
  151.7800  139.8516  156.6889 C   0  0  0  0  0  0  0  0  0  0  0  0
  152.7368  139.1705  156.3219 O   0  0  0  0  0  0  0  0  0  0  0  0
  151.6530  140.4408  157.8894 N   0  0  0  0  0  0  0  0  0  0  0  0
  152.5589  140.4486  158.9894 C   0  0  0  0  0  0  0  0  0  0  0  0
  153.3093  139.3049  159.3602 C   0  0  0  0  0  0  0  0  0  0  0  0
  154.1369  139.3605  160.4949 C   0  0  0  0  0  0  0  0  0  0  0  0
  154.1746  140.5545  161.2332 C   0  0  0  0  0  0  0  0  0  0  0  0
  153.4581  141.6468  160.9024 N   0  0  0  0  0  0  0  0  0  0  0  0
  152.6673  141.6138  159.8018 C   0  0  0  0  0  0  0  0  0  0  0  0
  151.9508  142.7928  159.4933 N   0  0  0  0  0  0  0  0  0  0  0  0
  152.1717  143.3956  158.1819 C   0  0  0  0  0  0  0  0  0  0  0  0
  152.1215  144.9134  158.3877 C   0  0  0  0  0  0  0  0  0  0  0  0
  151.3566  145.0758  159.6976 C   0  0  0  0  0  0  0  0  0  0  0  0
  151.8022  143.8495  160.4884 C   0  0  0  0  0  0  0  0  0  0  0  0
  149.0145  139.6451  154.1939 C   0  0  0  0  0  0  0  0  0  0  0  0
  148.2020  138.5992  154.9793 C   0  0  0  0  0  0  0  0  0  0  0  0
  147.2729  135.8868  152.5406 H   0  0  0  0  0  0  0  0  0  0  0  0
  147.0608  136.6131  155.9195 H   0  0  0  0  0  0  0  0  0  0  0  0
  148.5068  135.6772  156.2240 H   0  0  0  0  0  0  0  0  0  0  0  0
  150.2779  137.3256  156.2587 H   0  0  0  0  0  0  0  0  0  0  0  0
  150.5636  136.1487  154.9932 H   0  0  0  0  0  0  0  0  0  0  0  0
  152.0793  138.1058  154.7195 H   0  0  0  0  0  0  0  0  0  0  0  0
  151.0290  137.8979  153.3453 H   0  0  0  0  0  0  0  0  0  0  0  0
  151.0437  140.2591  153.8669 H   0  0  0  0  0  0  0  0  0  0  0  0
  149.9847  140.6895  156.3015 H   0  0  0  0  0  0  0  0  0  0  0  0
  150.8391  141.0262  158.0078 H   0  0  0  0  0  0  0  0  0  0  0  0
  153.2510  138.3774  158.8129 H   0  0  0  0  0  0  0  0  0  0  0  0
  154.7188  138.5031  160.7987 H   0  0  0  0  0  0  0  0  0  0  0  0
  154.7912  140.6335  162.1163 H   0  0  0  0  0  0  0  0  0  0  0  0
  153.1197  143.0845  157.7407 H   0  0  0  0  0  0  0  0  0  0  0  0
  151.3692  143.0857  157.5123 H   0  0  0  0  0  0  0  0  0  0  0  0
  153.1343  145.3007  158.5061 H   0  0  0  0  0  0  0  0  0  0  0  0
  151.6565  145.4397  157.5540 H   0  0  0  0  0  0  0  0  0  0  0  0
  151.5756  146.0137  160.2086 H   0  0  0  0  0  0  0  0  0  0  0  0
  150.2826  145.0309  159.5110 H   0  0  0  0  0  0  0  0  0  0  0  0
  151.0758  143.5749  161.2538 H   0  0  0  0  0  0  0  0  0  0  0  0
  152.7535  144.0614  160.9783 H   0  0  0  0  0  0  0  0  0  0  0  0
  148.6084  140.6425  154.3665 H   0  0  0  0  0  0  0  0  0  0  0  0
  148.9016  139.4533  153.1259 H   0  0  0  0  0  0  0  0  0  0  0  0
  147.1651  138.6343  154.6437 H   0  0  0  0  0  0  0  0  0  0  0  0
  148.1939  138.8460  156.0420 H   0  0  0  0  0  0  0  0  0  0  0  0
  148.7189  137.0290  153.8014 H   0  0  0  0  0  0  0  0  0  0  0  0
  1  2  1  0  0  0  0
  1 26  1  0  0  0  0
  2  3  2  0  0  0  0
  2  4  1  0  0  0  0
  4  5  1  0  0  0  0
  4 27  1  0  0  0  0
  4 28  1  0  0  0  0
  5 25  1  0  0  0  0
  5  6  1  0  0  0  0
  5 51  1  0  0  0  0
  6  7  1  0  0  0  0
  6 29  1  0  0  0  0
  6 30  1  0  0  0  0
  7  8  1  0  0  0  0
  7 31  1  0  0  0  0
  7 32  1  0  0  0  0
  8  9  1  0  0  0  0
  8 24  1  0  0  0  0
  8 33  1  0  0  0  0
  9 10  1  0  0  0  0
  9 34  1  0  0  0  0
 10 11  2  0  0  0  0
 10 12  1  0  0  0  0
 12 13  1  0  0  0  0
 12 35  1  0  0  0  0
 13 18  1  0  0  0  0
 13 14  2  0  0  0  0
 14 15  1  0  0  0  0
 14 36  1  0  0  0  0
 15 16  2  0  0  0  0
 15 37  1  0  0  0  0
 16 17  1  0  0  0  0
 16 38  1  0  0  0  0
 17 18  2  0  0  0  0
 18 19  1  0  0  0  0
 19 23  1  0  0  0  0
 19 20  1  0  0  0  0
 20 21  1  0  0  0  0
 20 39  1  0  0  0  0
 20 40  1  0  0  0  0
 21 22  1  0  0  0  0
 21 41  1  0  0  0  0
 21 42  1  0  0  0  0
 22 23  1  0  0  0  0
 22 43  1  0  0  0  0
 22 44  1  0  0  0  0
 23 45  1  0  0  0  0
 23 46  1  0  0  0  0
 24 25  1  0  0  0  0
 24 47  1  0  0  0  0
 24 48  1  0  0  0  0
 25 49  1  0  0  0  0
 25 50  1  0  0  0  0
M  CHG  1   1  -1
M  CHG  1   5   1
M  END
> <s_m_source_file>
AV-unprocessed.smi

> <i_m_source_file_index>
1740

> <i_lp_mmshare_version>
43012

> <i_f3d_flags>
0

> <s_epik_input>
W05IMl1DKD1PKVtDSDJdTjFbQ0gyXVtDSDJdW0NIXShbQ0gyXVtDSDJdMSlbTkhdQyg9TylbTkhdYzJbY0hdW2NIXVtjSF1uYzJOM1tDSDJdW0NIMl1bQ0gyXVtDSDJdMw==

> <s_epik_cmdline>
J2VwaWtfcHl0aG9uJywgJy1waCcsICc3LjAnLCAnLXRuJywgJzgnLCAnLW1hJywgJzIwMCcsICctbWV0YWxfYmluZGluZycsICctaW1hZScsICc8aW5maWxlLm1hZT4nLCAnLW9tYWUnLCAnPG91dGZpbGUubWFlPic=

> <r_lp_tautomer_probability>
1

> <r_epik_Ionization_Penalty>
5.80652

> <r_epik_Ionization_Penalty_Charging>
5.7288

> <r_epik_Ionization_Penalty_Neutral>
0.0777157

> <r_epik_State_Penalty>
6.60246

> <r_epik_Charging_Adjusted_Penalty>
12.3313

> <i_epik_Tot_Q>
0

> <i_epik_Tot_abs_Q>
2

> <r_epik_Metal_State_Penalty>
2.64988

> <b_epik_Metal_Only>
1

> <s_lp_Force_Field>
OPLS_2005

> <r_lp_Energy>
35.9305

> <b_lp_Chiralities_Consistent>
1

> <s_lp_Variant>
AV-unprocessed.smi:1740-8

> <Gold.Version>
5.8.1

> <Gold.Id.Protein>
6NUR|6NUR_protein|mol2

> <Gold.PLP.Fitness>
52.2808

> <Gold.PLP.PLP>
-42.8773

> <Gold.PLP.part.hbond>
-2.8029

> <Gold.PLP.part.metal>
0.0000

> <Gold.PLP.part.buried>
-3.9930

> <Gold.PLP.part.nonpolar>
-35.7536

> <Gold.PLP.part.repulsive>
0.2575

> <Gold.PLP.ligand.clash>
0.0000

> <Gold.PLP.ligand.torsion>
1.5017

> <Gold.PLP.Chemscore.Hbond>
3.9920

> <Gold.PLP.Chemscore.CHOScore>
0.0000

> <Gold.PLP.Chemscore.Metal>
0.0000

> <Gold.Chemscore.Hbonds>
donor molecule, donor type, donor heavy atom, donor atom, acceptor molecule, acceptor atom, score
      L1  H     1    26       P1  7948  0.86
      L1  H     5    51       P1  7948  1.66
      P1  H  7997  8010       L1    11  1.00

> <Gold.PLP.Chemscore.Internal.Correction>
0.4308

> <Gold.Rescore>
     Score         DG    S(hbond)    S(metal)    S(lipo)     H(rot)  DE(clash)    DE(int)     intcor
     16.73     -20.89       2.51        0.00     107.24       2.16       0.31       3.85       ----

> <Gold.Chemscore.Fitness>
16.7315

> <Gold.Chemscore.DG>
-20.8924

> <Gold.Chemscore.ZeroCoef>
-5.4800

> <Gold.Chemscore.Hbond>
2.5105

> <Gold.Chemscore.Metal>
0.0000

> <Gold.Chemscore.Lipo>
107.2397

> <Gold.Chemscore.Internal_Hbond>
0.0000

> <Gold.Chemscore.DEClash>
0.3072

> <Gold.Chemscore.DEInternal>
3.8537

> <Gold.Chemscore.Rot>
2.1562

> <Gold.Chemscore.Internal.Correction>
   9.000000E+99

> <Gold.Chemscore.Hbonds>
donor molecule, donor type, donor heavy atom, donor atom, acceptor molecule, acceptor atom, score
      L1  H     1    26       P1  7948  0.85
      L1  H     5    51       P1  7948  0.80
      P1  H  7997  8010       L1    11  0.87

> <Gold.Chemscore.Hbond.Weighted>
-8.3852

> <Gold.Chemscore.Metal.Weighted>
-0.0000

> <Gold.Chemscore.Lipo.Weighted>
-12.5470

> <Gold.Chemscore.Internal_Hbond.Weighted>
0.0000

> <Gold.Chemscore.DEClash.Weighted>
0.3072

> <Gold.Chemscore.DEInternal.Weighted>
3.8537

> <Gold.Chemscore.Rot.Weighted>
5.5198

> <Gold.Chemscore.Internal.Correction.Weighted>
   9.000000E+99

> <Gold.Protein.RotatedTorsions>
[ 6907 6896 6895 6894 ] final -141.72 input  -60.11 | X-H torsion
[ 7974 7965 7964 7962 ] final  164.10 input  175.53 | X-H torsion
[ 8008 7997 7996 7995 ] final   88.25 input   59.86 | X-H torsion
[ 10167 10162 10161 10158 ] final  -56.53 input  -65.29 | X-H torsion
[ 10718 10713 10712 10709 ] final  -24.39 input   66.30 | X-H torsion
[ 10763 10752 10751 10750 ] final  174.59 input  -60.55 | X-H torsion
[ 11005 11000 10999 10996 ] final  -44.28 input  -57.11 | X-H torsion

> <Gold.Protein.ActiveResidues>
 VAL166  LYS551  ARG553  GLY616  TRP617  ASP618  TYR619  PRO620  LYS621  CYS622 
 ASP623  PHE694  ASN695  SER759  ASP760  ASP761  ALA762  ILE779  LEU786  VAL792 
 PHE793  MET794  SER795  GLU796  ALA797  LYS798  CYS799  TRP800  GLU811  SER814 

> <Gold.Protein.RotatedAtoms>
  151.0775  133.5416  159.2622 H   0  0  0  0  0  0  0  0  0  0  0  0  # atno 6907 bound_to 6896
  151.2332  135.0561  159.9006 H   0  0  0  0  0  0  0  0  0  0  0  0  # atno 6908 bound_to 6896
  152.5419  134.0561  159.8185 H   0  0  0  0  0  0  0  0  0  0  0  0  # atno 6909 bound_to 6896
  144.7560  139.8277  143.6349 H   0  0  0  0  0  0  0  0  0  0  0  0  # atno 7974 bound_to 7965
  155.9855  140.3373  155.6703 H   0  0  0  0  0  0  0  0  0  0  0  0  # atno 8008 bound_to 7997
  155.6491  140.0703  157.2611 H   0  0  0  0  0  0  0  0  0  0  0  0  # atno 8009 bound_to 7997
  154.4204  140.1729  156.1643 H   0  0  0  0  0  0  0  0  0  0  0  0  # atno 8010 bound_to 7997
  140.6312  143.2460  151.5237 H   0  0  0  0  0  0  0  0  0  0  0  0  # atno 10167 bound_to 10162
  156.4783  130.4539  149.6827 H   0  0  0  0  0  0  0  0  0  0  0  0  # atno 10718 bound_to 10713
  154.4560  135.2766  155.1747 H   0  0  0  0  0  0  0  0  0  0  0  0  # atno 10763 bound_to 10752
  154.3554  135.6141  153.5667 H   0  0  0  0  0  0  0  0  0  0  0  0  # atno 10764 bound_to 10752
  152.9851  135.5821  154.4914 H   0  0  0  0  0  0  0  0  0  0  0  0  # atno 10765 bound_to 10752
  141.0440  133.6768  156.2851 H   0  0  0  0  0  0  0  0  0  0  0  0  # atno 11005 bound_to 11000
  146.1570  139.4671  143.0012 LP  0  0  0  0  0  0  0  0  0  0  0  0  # atno 17320 bound_to 7965
  145.6778  141.0199  143.1622 LP  0  0  0  0  0  0  0  0  0  0  0  0  # atno 17321 bound_to 7965
  139.5526  144.2357  152.1557 LP  0  0  0  0  0  0  0  0  0  0  0  0  # atno 17342 bound_to 10162
  140.1601  144.5033  150.6637 LP  0  0  0  0  0  0  0  0  0  0  0  0  # atno 17343 bound_to 10162
  156.3548  130.7450  151.2415 LP  0  0  0  0  0  0  0  0  0  0  0  0  # atno 17370 bound_to 10713
  157.7485  131.0367  150.4421 LP  0  0  0  0  0  0  0  0  0  0  0  0  # atno 17371 bound_to 10713
  140.6181  134.5389  157.5543 LP  0  0  0  0  0  0  0  0  0  0  0  0  # atno 17394 bound_to 11000
  139.9297  134.7987  156.0965 LP  0  0  0  0  0  0  0  0  0  0  0  0  # atno 17395 bound_to 11000

$$$$
