AV-unprocessed.smi:2358|AV-procd|sdf|9404|dock10
  -GOLD-   2272013 43D 1   1.00000     0.00000
 Structure written by MMmdl.
 45 47  0  0  0  0  0  0  0  0  1 V2000
  152.1286  139.2092  155.4552 C   0  0  0  0  0  0  0  0  0  0  0  0
  150.7844  139.8973  155.5744 C   0  0  0  0  0  0  0  0  0  0  0  0
  150.5142  140.7439  156.6679 C   0  0  0  0  0  0  0  0  0  0  0  0
  149.2638  141.3833  156.7735 C   0  0  0  0  0  0  0  0  0  0  0  0
  148.9813  142.2967  157.9481 C   0  0  0  0  0  0  0  0  0  0  0  0
  148.2841  141.1723  155.7819 C   0  0  0  0  0  0  0  0  0  0  0  0
  148.5368  140.3257  154.6832 C   0  0  0  0  0  0  0  0  0  0  0  0
  147.5203  140.1768  153.7640 O   0  0  0  0  0  0  0  0  0  0  0  0
  147.7698  139.3968  152.6019 C   0  0  0  0  0  0  0  0  0  0  0  0
  146.5162  138.5624  152.2853 C   0  0  1  0  0  0  0  0  0  0  0  0
  146.6383  138.1315  150.9438 O   0  0  0  0  0  0  0  0  0  0  0  0
  146.4112  137.3093  153.1837 C   0  0  0  0  0  0  0  0  0  0  0  0
  145.1625  136.5732  152.9505 N   0  0  0  0  0  0  0  0  0  0  0  0
  145.3234  135.4074  152.2204 N   0  0  0  0  0  0  0  0  0  0  0  0
  144.3087  134.6518  151.9491 C   0  0  0  0  0  0  0  0  0  0  0  0
  144.4070  133.4193  151.1933 N   0  0  0  0  0  0  0  0  0  0  0  0
  145.6340  132.7657  151.1007 C   0  0  0  0  0  0  0  0  0  0  0  0
  145.4081  131.6456  150.3319 C   0  0  0  0  0  0  0  0  0  0  0  0
  144.0682  131.5940  149.9480 N   0  0  0  0  0  0  0  0  0  0  0  0
  143.5338  132.6785  150.4956 C   0  0  0  0  0  0  0  0  0  0  0  0
  142.9817  135.0232  152.4096 C   0  0  0  0  0  0  0  0  0  0  0  0
  142.8355  136.1595  153.1250 C   0  0  0  0  0  0  0  0  0  0  0  0
  143.9719  137.0219  153.4470 C   0  0  0  0  0  0  0  0  0  0  0  0
  143.8672  138.0539  154.1089 O   0  0  0  0  0  0  0  0  0  0  0  0
  149.7992  139.6875  154.5878 C   0  0  0  0  0  0  0  0  0  0  0  0
  152.8586  139.6436  156.1390 H   0  0  0  0  0  0  0  0  0  0  0  0
  152.5171  139.3055  154.4409 H   0  0  0  0  0  0  0  0  0  0  0  0
  152.0306  138.1486  155.6867 H   0  0  0  0  0  0  0  0  0  0  0  0
  151.2657  140.9056  157.4272 H   0  0  0  0  0  0  0  0  0  0  0  0
  147.9280  142.5753  157.9902 H   0  0  0  0  0  0  0  0  0  0  0  0
  149.5735  143.2083  157.8658 H   0  0  0  0  0  0  0  0  0  0  0  0
  149.2390  141.8023  158.8850 H   0  0  0  0  0  0  0  0  0  0  0  0
  147.3252  141.6636  155.8607 H   0  0  0  0  0  0  0  0  0  0  0  0
  148.0507  140.0176  151.7490 H   0  0  0  0  0  0  0  0  0  0  0  0
  148.6061  138.7306  152.8189 H   0  0  0  0  0  0  0  0  0  0  0  0
  145.6269  139.1840  152.4006 H   0  0  0  0  0  0  0  0  0  0  0  0
  145.8740  138.4157  150.4658 H   0  0  0  0  0  0  0  0  0  0  0  0
  147.2904  136.6707  153.0771 H   0  0  0  0  0  0  0  0  0  0  0  0
  146.4193  137.6120  154.2323 H   0  0  0  0  0  0  0  0  0  0  0  0
  146.5423  133.1224  151.5651 H   0  0  0  0  0  0  0  0  0  0  0  0
  146.1031  130.8770  150.0272 H   0  0  0  0  0  0  0  0  0  0  0  0
  142.4894  132.9281  150.3808 H   0  0  0  0  0  0  0  0  0  0  0  0
  142.1228  134.4079  152.1892 H   0  0  0  0  0  0  0  0  0  0  0  0
  141.8517  136.4410  153.4710 H   0  0  0  0  0  0  0  0  0  0  0  0
  150.0357  139.0314  153.7640 H   0  0  0  0  0  0  0  0  0  0  0  0
  1  2  1  0  0  0  0
  1 26  1  0  0  0  0
  1 27  1  0  0  0  0
  1 28  1  0  0  0  0
  2 25  1  0  0  0  0
  2  3  2  0  0  0  0
  3  4  1  0  0  0  0
  3 29  1  0  0  0  0
  4  5  1  0  0  0  0
  4  6  2  0  0  0  0
  5 30  1  0  0  0  0
  5 31  1  0  0  0  0
  5 32  1  0  0  0  0
  6  7  1  0  0  0  0
  6 33  1  0  0  0  0
  7  8  1  0  0  0  0
  7 25  2  0  0  0  0
  8  9  1  0  0  0  0
  9 10  1  0  0  0  0
  9 34  1  0  0  0  0
  9 35  1  0  0  0  0
 10 11  1  0  0  0  0
 10 12  1  0  0  0  0
 10 36  1  0  0  0  0
 11 37  1  0  0  0  0
 12 13  1  0  0  0  0
 12 38  1  0  0  0  0
 12 39  1  0  0  0  0
 13 23  1  0  0  0  0
 13 14  1  0  0  0  0
 14 15  2  0  0  0  0
 15 16  1  0  0  0  0
 15 21  1  0  0  0  0
 16 20  1  0  0  0  0
 16 17  1  0  0  0  0
 17 18  2  0  0  0  0
 17 40  1  0  0  0  0
 18 19  1  0  0  0  0
 18 41  1  0  0  0  0
 19 20  2  0  0  0  0
 20 42  1  0  0  0  0
 21 22  2  0  0  0  0
 21 43  1  0  0  0  0
 22 23  1  0  0  0  0
 22 44  1  0  0  0  0
 23 24  2  0  0  0  0
 25 45  1  0  0  0  0
M  END
> <s_m_source_file>
AV-unprocessed.smi

> <i_m_source_file_index>
2358

> <i_lp_mmshare_version>
43012

> <i_f3d_flags>
0

> <s_epik_input>
W0NIM11jMVtjSF1jKFtDSDNdKVtjSF1jKFtjSF0xKU9bQ0gyXVtDQEhdKFtPSF0pW0NIMl1uMm5jKFtjSF1bY0hdYzI9TyktbjNbY0hdW2NIXW5bY0hdMw==

> <s_epik_cmdline>
J2VwaWtfcHl0aG9uJywgJy1waCcsICc3LjAnLCAnLXRuJywgJzgnLCAnLW1hJywgJzIwMCcsICctbWV0YWxfYmluZGluZycsICctaW1hZScsICc8aW5maWxlLm1hZT4nLCAnLW9tYWUnLCAnPG91dGZpbGUubWFlPic=

> <r_lp_tautomer_probability>
1

> <r_epik_Ionization_Penalty>
0.03707

> <r_epik_Ionization_Penalty_Charging>
0.0370699

> <r_epik_Ionization_Penalty_Neutral>
1.17174e-07

> <r_epik_State_Penalty>
0.0310055

> <r_epik_Charging_Adjusted_Penalty>
0.0680754

> <i_epik_Tot_Q>
0

> <i_epik_Tot_abs_Q>
0

> <r_epik_Metal_State_Penalty>
0.0291724

> <b_epik_Metal_Only>
0

> <s_lp_Force_Field>
OPLS_2005

> <r_lp_Energy>
35.3101

> <b_lp_Chiralities_Consistent>
1

> <s_lp_Variant>
AV-unprocessed.smi:2358-2

> <Gold.Version>
5.8.1

> <Gold.Id.Protein>
6NUR|6NUR_protein|mol2

> <Gold.PLP.Fitness>
52.4445

> <Gold.PLP.PLP>
-41.0691

> <Gold.PLP.part.hbond>
-3.2187

> <Gold.PLP.part.metal>
0.0000

> <Gold.PLP.part.buried>
0.5142

> <Gold.PLP.part.nonpolar>
-40.4992

> <Gold.PLP.part.repulsive>
1.8195

> <Gold.PLP.ligand.clash>
0.0000

> <Gold.PLP.ligand.torsion>
0.8651

> <Gold.PLP.Chemscore.Hbond>
2.3588

> <Gold.PLP.Chemscore.CHOScore>
1.9883

> <Gold.PLP.Chemscore.Metal>
0.0000

> <Gold.Chemscore.Hbonds>
donor molecule, donor type, donor heavy atom, donor atom, acceptor molecule, acceptor atom, score
      L1  H    11    37       P1 10171  0.84
      P1  H  7954  7966       L1    11  1.00
      P1  H 10785 10796       L1    19  0.61
      L1  C    18    41       P1 10747  0.16
      L1  C    20    42       P1 10186  1.00

> <Gold.PLP.Chemscore.Internal.Correction>
0.0641

> <Gold.Rescore>
     Score         DG    S(hbond)    S(metal)    S(lipo)     H(rot)  DE(clash)    DE(int)     intcor
     14.86     -18.52       2.65        0.00      92.62       2.60       2.91       0.75       ----

> <Gold.Chemscore.Fitness>
14.8621

> <Gold.Chemscore.DG>
-18.5233

> <Gold.Chemscore.ZeroCoef>
-5.4800

> <Gold.Chemscore.Hbond>
2.6524

> <Gold.Chemscore.Metal>
0.0000

> <Gold.Chemscore.Lipo>
92.6201

> <Gold.Chemscore.Internal_Hbond>
0.0000

> <Gold.Chemscore.DEClash>
2.9145

> <Gold.Chemscore.DEInternal>
0.7467

> <Gold.Chemscore.Rot>
2.5986

> <Gold.Chemscore.Internal.Correction>
   9.000000E+99

> <Gold.Chemscore.Hbonds>
donor molecule, donor type, donor heavy atom, donor atom, acceptor molecule, acceptor atom, score
      L1  H    11    37       P1 10171  0.82
      P1  H  7954  7966       L1    11  0.87
      P1  H 10785 10796       L1    19  0.59

> <Gold.Chemscore.Hbond.Weighted>
-8.8592

> <Gold.Chemscore.Metal.Weighted>
-0.0000

> <Gold.Chemscore.Lipo.Weighted>
-10.8366

> <Gold.Chemscore.Internal_Hbond.Weighted>
0.0000

> <Gold.Chemscore.DEClash.Weighted>
2.9145

> <Gold.Chemscore.DEInternal.Weighted>
0.7467

> <Gold.Chemscore.Rot.Weighted>
6.6524

> <Gold.Chemscore.Internal.Correction.Weighted>
   9.000000E+99

> <Gold.Protein.RotatedTorsions>
[ 6907 6896 6895 6894 ] final  114.96 input  -60.11 | X-H torsion
[ 7974 7965 7964 7962 ] final   60.48 input  175.53 | X-H torsion
[ 8008 7997 7996 7995 ] final  -74.30 input   59.86 | X-H torsion
[ 10167 10162 10161 10158 ] final -105.52 input  -65.29 | X-H torsion
[ 10718 10713 10712 10709 ] final   83.80 input   66.30 | X-H torsion
[ 10763 10752 10751 10750 ] final    7.95 input  -60.55 | X-H torsion
[ 11005 11000 10999 10996 ] final  164.41 input  -57.11 | X-H torsion

> <Gold.Protein.ActiveResidues>
 VAL166  LYS551  ARG553  GLY616  TRP617  ASP618  TYR619  PRO620  LYS621  CYS622 
 ASP623  PHE694  ASN695  SER759  ASP760  ASP761  ALA762  ILE779  LEU786  VAL792 
 PHE793  MET794  SER795  GLU796  ALA797  LYS798  CYS799  TRP800  GLU811  SER814 

> <Gold.Protein.RotatedAtoms>
  152.4771  133.8164  159.7030 H   0  0  0  0  0  0  0  0  0  0  0  0  # atno 6907 bound_to 6896
  150.8795  133.7383  159.2943 H   0  0  0  0  0  0  0  0  0  0  0  0  # atno 6908 bound_to 6896
  151.4892  135.1060  159.9851 H   0  0  0  0  0  0  0  0  0  0  0  0  # atno 6909 bound_to 6896
  145.8956  139.3543  143.0623 H   0  0  0  0  0  0  0  0  0  0  0  0  # atno 7974 bound_to 7965
  154.5319  140.0764  156.8359 H   0  0  0  0  0  0  0  0  0  0  0  0  # atno 8008 bound_to 7997
  155.3358  140.3404  155.4221 H   0  0  0  0  0  0  0  0  0  0  0  0  # atno 8009 bound_to 7997
  156.1789  140.1645  156.8297 H   0  0  0  0  0  0  0  0  0  0  0  0  # atno 8010 bound_to 7997
  140.1976  143.3843  152.1156 H   0  0  0  0  0  0  0  0  0  0  0  0  # atno 10167 bound_to 10162
  157.6886  131.0106  150.2577 H   0  0  0  0  0  0  0  0  0  0  0  0  # atno 10718 bound_to 10713
  153.2306  135.6892  153.7895 H   0  0  0  0  0  0  0  0  0  0  0  0  # atno 10763 bound_to 10752
  153.7061  135.3290  155.3236 H   0  0  0  0  0  0  0  0  0  0  0  0  # atno 10764 bound_to 10752
  154.8312  135.4579  154.1189 H   0  0  0  0  0  0  0  0  0  0  0  0  # atno 10765 bound_to 10752
  140.2456  134.8017  157.3453 H   0  0  0  0  0  0  0  0  0  0  0  0  # atno 11005 bound_to 11000
  145.8855  140.9336  143.0579 LP  0  0  0  0  0  0  0  0  0  0  0  0  # atno 17320 bound_to 7965
  144.6732  140.0836  143.7468 LP  0  0  0  0  0  0  0  0  0  0  0  0  # atno 17321 bound_to 7965
  139.5230  144.7066  151.5335 LP  0  0  0  0  0  0  0  0  0  0  0  0  # atno 17342 bound_to 10162
  140.6413  143.8884  150.6694 LP  0  0  0  0  0  0  0  0  0  0  0  0  # atno 17343 bound_to 10162
  156.3162  130.3779  149.7616 LP  0  0  0  0  0  0  0  0  0  0  0  0  # atno 17370 bound_to 10713
  156.5201  130.8211  151.3200 LP  0  0  0  0  0  0  0  0  0  0  0  0  # atno 17371 bound_to 10713
  140.1609  134.4730  155.7895 LP  0  0  0  0  0  0  0  0  0  0  0  0  # atno 17394 bound_to 11000
  141.2206  133.6901  156.7542 LP  0  0  0  0  0  0  0  0  0  0  0  0  # atno 17395 bound_to 11000

$$$$
