AV-unprocessed.smi:143|AV-procd|sdf|1194|dock2
  -GOLD-   2262018353D 1   1.00000     0.00000
 Structure written by MMmdl.
 38 40  0  0  0  0  0  0  0  0  1 V2000
  152.2468  136.9368  160.0038 O   0  0  0  0  0  0  0  0  0  0  0  0
  153.2496  137.6361  160.1618 C   0  0  0  0  0  0  0  0  0  0  0  0
  153.8454  138.4120  158.9674 C   0  0  0  0  0  0  0  0  0  0  0  0
  152.9159  139.3770  158.3901 N   0  0  0  0  0  0  0  0  0  0  0  0
  152.2566  139.0231  157.1870 C   0  0  0  0  0  0  0  0  0  0  0  0
  152.4574  137.9472  156.6209 O   0  0  0  0  0  0  0  0  0  0  0  0
  151.3145  140.0224  156.6983 C   0  0  0  0  0  0  0  0  0  0  0  0
  150.6047  139.7771  155.5840 F   0  0  0  0  0  0  0  0  0  0  0  0
  151.1261  141.1859  157.3571 C   0  0  0  0  0  0  0  0  0  0  0  0
  151.8097  141.5256  158.5158 N   0  0  0  0  0  0  0  0  0  0  0  0
  151.5170  142.7983  159.2967 C   0  0  1  0  0  0  0  0  0  0  0  0
  152.7607  143.6305  159.6380 C   0  0  0  0  0  0  0  0  0  0  0  0
  152.7795  144.6984  158.5474 C   0  0  0  0  0  0  0  0  0  0  0  0
  151.5624  144.3844  157.6712 C   0  0  0  0  0  0  0  0  0  0  0  0
  150.7110  143.6203  158.5141 O   0  0  0  0  0  0  0  0  0  0  0  0
  152.6990  140.5888  159.0901 C   0  0  0  0  0  0  0  0  0  0  0  0
  153.2564  140.8222  160.1655 O   0  0  0  0  0  0  0  0  0  0  0  0
  153.9329  137.7748  161.4814 C   0  0  0  0  0  0  0  0  0  0  0  0
  154.8779  138.8118  161.6652 C   0  0  0  0  0  0  0  0  0  0  0  0
  155.5374  138.9731  162.8990 C   0  0  0  0  0  0  0  0  0  0  0  0
  155.2597  138.0995  163.9663 C   0  0  0  0  0  0  0  0  0  0  0  0
  156.1475  138.3199  165.6352 Br  0  0  0  0  0  0  0  0  0  0  0  0
  154.3233  137.0632  163.7964 C   0  0  0  0  0  0  0  0  0  0  0  0
  153.6636  136.9001  162.5624 C   0  0  0  0  0  0  0  0  0  0  0  0
  154.7477  138.9514  159.2597 H   0  0  0  0  0  0  0  0  0  0  0  0
  154.1565  137.7322  158.1729 H   0  0  0  0  0  0  0  0  0  0  0  0
  150.3905  141.8609  156.9491 H   0  0  0  0  0  0  0  0  0  0  0  0
  150.9990  142.4726  160.2002 H   0  0  0  0  0  0  0  0  0  0  0  0
  152.6000  144.1016  160.6084 H   0  0  0  0  0  0  0  0  0  0  0  0
  153.6654  143.0275  159.7120 H   0  0  0  0  0  0  0  0  0  0  0  0
  152.6808  145.6879  158.9951 H   0  0  0  0  0  0  0  0  0  0  0  0
  153.7038  144.6859  157.9695 H   0  0  0  0  0  0  0  0  0  0  0  0
  151.0623  145.2841  157.3125 H   0  0  0  0  0  0  0  0  0  0  0  0
  151.8492  143.7923  156.8011 H   0  0  0  0  0  0  0  0  0  0  0  0
  155.1081  139.4966  160.8617 H   0  0  0  0  0  0  0  0  0  0  0  0
  156.2563  139.7692  163.0255 H   0  0  0  0  0  0  0  0  0  0  0  0
  154.1087  136.3907  164.6139 H   0  0  0  0  0  0  0  0  0  0  0  0
  152.9521  136.0935  162.4713 H   0  0  0  0  0  0  0  0  0  0  0  0
  1  2  2  0  0  0  0
  2  3  1  0  0  0  0
  2 18  1  0  0  0  0
  3  4  1  0  0  0  0
  3 25  1  0  0  0  0
  3 26  1  0  0  0  0
  4 16  1  0  0  0  0
  4  5  1  0  0  0  0
  5  6  2  0  0  0  0
  5  7  1  0  0  0  0
  7  8  1  0  0  0  0
  7  9  2  0  0  0  0
  9 10  1  0  0  0  0
  9 27  1  0  0  0  0
 10 11  1  0  0  0  0
 10 16  1  0  0  0  0
 11 15  1  0  0  0  0
 11 12  1  0  0  0  0
 11 28  1  0  0  0  0
 12 13  1  0  0  0  0
 12 29  1  0  0  0  0
 12 30  1  0  0  0  0
 13 14  1  0  0  0  0
 13 31  1  0  0  0  0
 13 32  1  0  0  0  0
 14 15  1  0  0  0  0
 14 33  1  0  0  0  0
 14 34  1  0  0  0  0
 16 17  2  0  0  0  0
 18 24  1  0  0  0  0
 18 19  2  0  0  0  0
 19 20  1  0  0  0  0
 19 35  1  0  0  0  0
 20 21  2  0  0  0  0
 20 36  1  0  0  0  0
 21 22  1  0  0  0  0
 21 23  1  0  0  0  0
 23 24  2  0  0  0  0
 23 37  1  0  0  0  0
 24 38  1  0  0  0  0
M  END
> <s_m_source_file>
AV-unprocessed.smi

> <i_m_source_file_index>
143

> <i_lp_mmshare_version>
43012

> <i_f3d_flags>
0

> <s_epik_input>
W2NIXTFbY0hdYyhCcilbY0hdW2NIXWMxQyg9TylbQ0gyXW4yYyg9TyljKEYpW2NIXW4oYzI9TylbQ0BASF0zW0NIMl1bQ0gyXVtDSDJdTzM=

> <s_epik_cmdline>
J2VwaWtfcHl0aG9uJywgJy1waCcsICc3LjAnLCAnLXRuJywgJzgnLCAnLW1hJywgJzIwMCcsICctbWV0YWxfYmluZGluZycsICctaW1hZScsICc8aW5maWxlLm1hZT4nLCAnLW9tYWUnLCAnPG91dGZpbGUubWFlPic=

> <r_lp_tautomer_probability>
1

> <r_epik_Ionization_Penalty>
4.7008e-09

> <r_epik_Ionization_Penalty_Charging>
4.69459e-09

> <r_epik_Ionization_Penalty_Neutral>
6.21034e-12

> <r_epik_State_Penalty>
-0

> <r_epik_Charging_Adjusted_Penalty>
4.69459e-09

> <i_epik_Tot_Q>
0

> <i_epik_Tot_abs_Q>
0

> <r_epik_Metal_State_Penalty>
-0

> <b_epik_Metal_Only>
0

> <s_epik_Chemistry_Notes>
This compound contains an acetal/aminal-like group ( X-CH(R)-Y where X, Y are N, S, or O) that may be acid/base labile, releasing an aldehyde.

> <s_lp_Force_Field>
OPLS_2005

> <r_lp_Energy>
39.4707

> <b_lp_Chiralities_Consistent>
1

> <s_lp_Variant>
AV-unprocessed.smi:143-2

> <Gold.Version>
5.8.1

> <Gold.Id.Protein>
6NUR|6NUR_protein|mol2

> <Gold.PLP.Fitness>
48.5321

> <Gold.PLP.PLP>
-46.3205

> <Gold.PLP.part.hbond>
-1.0000

> <Gold.PLP.part.metal>
0.0000

> <Gold.PLP.part.buried>
-4.1945

> <Gold.PLP.part.nonpolar>
-40.6264

> <Gold.PLP.part.repulsive>
0.1341

> <Gold.PLP.ligand.clash>
0.0000

> <Gold.PLP.ligand.torsion>
0.4479

> <Gold.PLP.Chemscore.Hbond>
1.0000

> <Gold.PLP.Chemscore.CHOScore>
0.0000

> <Gold.PLP.Chemscore.Metal>
0.0000

> <Gold.Chemscore.Hbonds>
donor molecule, donor type, donor heavy atom, donor atom, acceptor molecule, acceptor atom, score
      P1  H  6896  6907       L1     1  1.00

> <Gold.PLP.Chemscore.Internal.Correction>
0.1075

> <Gold.Rescore>
     Score         DG    S(hbond)    S(metal)    S(lipo)     H(rot)  DE(clash)    DE(int)     intcor
     15.71     -17.24       1.00        0.00     106.46       1.58       0.04       1.48       ----

> <Gold.Chemscore.Fitness>
15.7126

> <Gold.Chemscore.DG>
-17.2394

> <Gold.Chemscore.ZeroCoef>
-5.4800

> <Gold.Chemscore.Hbond>
0.9997

> <Gold.Chemscore.Metal>
0.0000

> <Gold.Chemscore.Lipo>
106.4637

> <Gold.Chemscore.Internal_Hbond>
0.0000

> <Gold.Chemscore.DEClash>
0.0432

> <Gold.Chemscore.DEInternal>
1.4836

> <Gold.Chemscore.Rot>
1.5765

> <Gold.Chemscore.Internal.Correction>
   9.000000E+99

> <Gold.Chemscore.Hbonds>
donor molecule, donor type, donor heavy atom, donor atom, acceptor molecule, acceptor atom, score
      P1  H  6896  6907       L1     1  1.00

> <Gold.Chemscore.Hbond.Weighted>
-3.3391

> <Gold.Chemscore.Metal.Weighted>
-0.0000

> <Gold.Chemscore.Lipo.Weighted>
-12.4562

> <Gold.Chemscore.Internal_Hbond.Weighted>
0.0000

> <Gold.Chemscore.DEClash.Weighted>
0.0432

> <Gold.Chemscore.DEInternal.Weighted>
1.4836

> <Gold.Chemscore.Rot.Weighted>
4.0359

> <Gold.Chemscore.Internal.Correction.Weighted>
   9.000000E+99

> <Gold.Protein.RotatedTorsions>
[ 6907 6896 6895 6894 ] final   18.56 input  -60.11 | X-H torsion
[ 7974 7965 7964 7962 ] final  165.65 input  175.53 | X-H torsion
[ 8008 7997 7996 7995 ] final -126.89 input   59.86 | X-H torsion
[ 10167 10162 10161 10158 ] final   45.07 input  -65.29 | X-H torsion
[ 10718 10713 10712 10709 ] final  -25.94 input   66.30 | X-H torsion
[ 10763 10752 10751 10750 ] final  -86.77 input  -60.55 | X-H torsion
[ 11005 11000 10999 10996 ] final  111.39 input  -57.11 | X-H torsion

> <Gold.Protein.ActiveResidues>
 VAL166  LYS551  ARG553  GLY616  TRP617  ASP618  TYR619  PRO620  LYS621  CYS622 
 ASP623  PHE694  ASN695  SER759  ASP760  ASP761  ALA762  ILE779  LEU786  VAL792 
 PHE793  MET794  SER795  GLU796  ALA797  LYS798  CYS799  TRP800  GLU811  SER814 

> <Gold.Protein.RotatedAtoms>
  151.8671  135.0503  160.0475 H   0  0  0  0  0  0  0  0  0  0  0  0  # atno 6907 bound_to 6896
  152.2617  133.5299  159.5394 H   0  0  0  0  0  0  0  0  0  0  0  0  # atno 6908 bound_to 6896
  150.7119  134.0736  159.3915 H   0  0  0  0  0  0  0  0  0  0  0  0  # atno 6909 bound_to 6896
  144.7494  139.8500  143.6371 H   0  0  0  0  0  0  0  0  0  0  0  0  # atno 7974 bound_to 7965
  155.2371  140.0427  157.2970 H   0  0  0  0  0  0  0  0  0  0  0  0  # atno 8008 bound_to 7997
  154.5851  140.2411  155.7968 H   0  0  0  0  0  0  0  0  0  0  0  0  # atno 8009 bound_to 7997
  156.2221  140.2966  155.9985 H   0  0  0  0  0  0  0  0  0  0  0  0  # atno 8010 bound_to 7997
  140.3279  144.2625  150.6172 H   0  0  0  0  0  0  0  0  0  0  0  0  # atno 10167 bound_to 10162
  156.4577  130.4497  149.6949 H   0  0  0  0  0  0  0  0  0  0  0  0  # atno 10718 bound_to 10713
  154.6262  135.5437  153.7630 H   0  0  0  0  0  0  0  0  0  0  0  0  # atno 10763 bound_to 10752
  153.0262  135.6425  154.1368 H   0  0  0  0  0  0  0  0  0  0  0  0  # atno 10764 bound_to 10752
  154.1300  135.2915  155.3167 H   0  0  0  0  0  0  0  0  0  0  0  0  # atno 10765 bound_to 10752
  139.8902  134.9506  156.6424 H   0  0  0  0  0  0  0  0  0  0  0  0  # atno 11005 bound_to 11000
  146.1422  139.4482  143.0101 LP  0  0  0  0  0  0  0  0  0  0  0  0  # atno 17320 bound_to 7965
  145.7000  141.0139  143.1509 LP  0  0  0  0  0  0  0  0  0  0  0  0  # atno 17321 bound_to 7965
  140.5424  143.2221  151.8062 LP  0  0  0  0  0  0  0  0  0  0  0  0  # atno 17342 bound_to 10162
  139.4862  144.4583  151.9572 LP  0  0  0  0  0  0  0  0  0  0  0  0  # atno 17343 bound_to 10162
  156.3749  130.7549  151.2536 LP  0  0  0  0  0  0  0  0  0  0  0  0  # atno 17370 bound_to 10713
  157.7499  131.0312  150.4172 LP  0  0  0  0  0  0  0  0  0  0  0  0  # atno 17371 bound_to 10713
  140.7583  133.8839  155.8399 LP  0  0  0  0  0  0  0  0  0  0  0  0  # atno 17394 bound_to 11000
  140.9943  134.1236  157.4378 LP  0  0  0  0  0  0  0  0  0  0  0  0  # atno 17395 bound_to 11000

$$$$
