AV-unprocessed.smi:1406|AV-procd|sdf|5718|dock5
  -GOLD-   22720 5353D 1   1.00000     0.00000
 Structure written by MMmdl.
 41 43  0  0  0  0  0  0  0  0  2 V2000
  154.8937  136.3673  160.1242 C   0  0  0  0  0  0  0  0  0  0  0  0
  154.0432  137.3586  160.9441 C   0  0  1  0  0  0  0  0  0  0  0  0
  152.8182  137.8739  160.1724 C   0  0  0  0  0  0  0  0  0  0  0  0
  151.8371  137.1526  159.9897 O   0  0  0  0  0  0  0  0  0  0  0  0
  152.8879  139.1376  159.7251 N   0  0  0  0  0  0  0  0  0  0  0  0
  151.8209  139.8329  159.0105 C   0  0  2  0  0  0  0  0  0  0  0  0
  152.0050  139.8673  157.4784 C   0  0  0  0  0  0  0  0  0  0  0  0
  151.6088  141.2898  157.0705 C   0  0  0  0  0  0  0  0  0  0  0  0
  152.0230  142.0905  158.2284 N   0  3  1  0  0  0  0  0  0  0  0  0
  151.5780  143.4965  158.3117 C   0  0  0  0  0  0  0  0  0  0  0  0
  152.2840  144.1612  159.5136 C   0  0  0  0  0  0  0  0  0  0  0  0
  152.1027  143.3548  160.8204 C   0  0  0  0  0  0  0  0  0  0  0  0
  152.4654  141.8656  160.6310 C   0  0  0  0  0  0  0  0  0  0  0  0
  151.6781  141.3120  159.4302 C   0  0  2  0  0  0  0  0  0  0  0  0
  153.6299  136.8006  162.2260 N   0  0  0  0  0  0  0  0  0  0  0  0
  153.8439  135.5889  162.7435 C   0  0  0  0  0  0  0  0  0  0  0  0
  153.3662  135.4346  163.9702 N   0  0  0  0  0  0  0  0  0  0  0  0
  152.8386  136.6792  164.1677 C   0  0  0  0  0  0  0  0  0  0  0  0
  152.9794  137.5393  163.1595 N   0  0  0  0  0  0  0  0  0  0  0  0
  155.2335  136.8184  159.1912 H   0  0  0  0  0  0  0  0  0  0  0  0
  154.3399  135.4623  159.8709 H   0  0  0  0  0  0  0  0  0  0  0  0
  155.7811  136.0651  160.6809 H   0  0  0  0  0  0  0  0  0  0  0  0
  154.6753  138.2217  161.1599 H   0  0  0  0  0  0  0  0  0  0  0  0
  153.7290  139.6620  159.9176 H   0  0  0  0  0  0  0  0  0  0  0  0
  150.8810  139.3286  159.2442 H   0  0  0  0  0  0  0  0  0  0  0  0
  153.0514  139.6978  157.2188 H   0  0  0  0  0  0  0  0  0  0  0  0
  151.4128  139.1071  156.9679 H   0  0  0  0  0  0  0  0  0  0  0  0
  152.0966  141.6167  156.1518 H   0  0  0  0  0  0  0  0  0  0  0  0
  150.5284  141.3646  156.9369 H   0  0  0  0  0  0  0  0  0  0  0  0
  151.8324  144.0192  157.3891 H   0  0  0  0  0  0  0  0  0  0  0  0
  150.4935  143.5427  158.4222 H   0  0  0  0  0  0  0  0  0  0  0  0
  153.3493  144.2492  159.2962 H   0  0  0  0  0  0  0  0  0  0  0  0
  151.9152  145.1786  159.6473 H   0  0  0  0  0  0  0  0  0  0  0  0
  152.7084  143.7895  161.6162 H   0  0  0  0  0  0  0  0  0  0  0  0
  151.0652  143.4333  161.1480 H   0  0  0  0  0  0  0  0  0  0  0  0
  153.5387  141.7626  160.4651 H   0  0  0  0  0  0  0  0  0  0  0  0
  152.2270  141.3054  161.5360 H   0  0  0  0  0  0  0  0  0  0  0  0
  150.6155  141.4714  159.6270 H   0  0  0  0  0  0  0  0  0  0  0  0
  154.3660  134.8048  162.2152 H   0  0  0  0  0  0  0  0  0  0  0  0
  152.3432  136.9624  165.0849 H   0  0  0  0  0  0  0  0  0  0  0  0
  153.0322  142.1119  158.1903 H   0  0  0  0  0  0  0  0  0  0  0  0
  1  2  1  0  0  0  0
  1 20  1  0  0  0  0
  1 21  1  0  0  0  0
  1 22  1  0  0  0  0
  2  3  1  0  0  0  0
  2 15  1  0  0  0  0
  2 23  1  0  0  0  0
  3  4  2  0  0  0  0
  3  5  1  0  0  0  0
  5  6  1  0  0  0  0
  5 24  1  0  0  0  0
  6 14  1  0  0  0  0
  6  7  1  0  0  0  0
  6 25  1  0  0  0  0
  7  8  1  0  0  0  0
  7 26  1  0  0  0  0
  7 27  1  0  0  0  0
  8  9  1  0  0  0  0
  8 28  1  0  0  0  0
  8 29  1  0  0  0  0
  9 14  1  0  0  0  0
  9 10  1  0  0  0  0
  9 41  1  0  0  0  0
 10 11  1  0  0  0  0
 10 30  1  0  0  0  0
 10 31  1  0  0  0  0
 11 12  1  0  0  0  0
 11 32  1  0  0  0  0
 11 33  1  0  0  0  0
 12 13  1  0  0  0  0
 12 34  1  0  0  0  0
 12 35  1  0  0  0  0
 13 14  1  0  0  0  0
 13 36  1  0  0  0  0
 13 37  1  0  0  0  0
 14 38  1  0  0  0  0
 15 19  1  0  0  0  0
 15 16  1  0  0  0  0
 16 17  2  0  0  0  0
 16 39  1  0  0  0  0
 17 18  1  0  0  0  0
 18 19  2  0  0  0  0
 18 40  1  0  0  0  0
M  CHG  1   9   1
M  END
> <s_m_source_file>
AV-unprocessed.smi

> <i_m_source_file_index>
1406

> <i_lp_mmshare_version>
43012

> <i_f3d_flags>
0

> <s_epik_input>
bjFbY0hdbltjSF1uMVtDQEhdKFtDSDNdKUMoPU8pW05IXVtDQEhdKFtDSDJdW0NIMl0yKVtDQEBIXShOMjMpW0NIMl1bQ0gyXVtDSDJdW0NIMl0z

> <s_epik_cmdline>
J2VwaWtfcHl0aG9uJywgJy1waCcsICc3LjAnLCAnLXRuJywgJzgnLCAnLW1hJywgJzIwMCcsICctbWV0YWxfYmluZGluZycsICctaW1hZScsICc8aW5maWxlLm1hZT4nLCAnLW9tYWUnLCAnPG91dGZpbGUubWFlPic=

> <r_lp_tautomer_probability>
1

> <r_epik_Ionization_Penalty>
0.00197066

> <r_epik_Ionization_Penalty_Charging>
0.00196223

> <r_epik_Ionization_Penalty_Neutral>
8.43107e-06

> <r_epik_State_Penalty>
0.00133866

> <r_epik_Charging_Adjusted_Penalty>
0.00330089

> <i_epik_Tot_Q>
1

> <i_epik_Tot_abs_Q>
1

> <r_epik_Metal_State_Penalty>
-0

> <b_epik_Metal_Only>
0

> <s_lp_Force_Field>
OPLS_2005

> <r_lp_Energy>
46.7011

> <b_lp_Chiralities_Consistent>
1

> <s_lp_Variant>
AV-unprocessed.smi:1406-10

> <Gold.Version>
5.8.1

> <Gold.Id.Protein>
6NUR|6NUR_protein|mol2

> <Gold.PLP.Fitness>
37.8750

> <Gold.PLP.PLP>
-35.8825

> <Gold.PLP.part.hbond>
-0.9931

> <Gold.PLP.part.metal>
0.0000

> <Gold.PLP.part.buried>
-5.3917

> <Gold.PLP.part.nonpolar>
-30.2139

> <Gold.PLP.part.repulsive>
0.1996

> <Gold.PLP.ligand.clash>
0.0000

> <Gold.PLP.ligand.torsion>
0.5536

> <Gold.PLP.Chemscore.Hbond>
1.0000

> <Gold.PLP.Chemscore.CHOScore>
0.0000

> <Gold.PLP.Chemscore.Metal>
0.0000

> <Gold.Chemscore.Hbonds>
donor molecule, donor type, donor heavy atom, donor atom, acceptor molecule, acceptor atom, score
      P1  H  6896  6908       L1     4  1.00

> <Gold.PLP.Chemscore.Internal.Correction>
0.0996

> <Gold.Rescore>
     Score         DG    S(hbond)    S(metal)    S(lipo)     H(rot)  DE(clash)    DE(int)     intcor
     12.82     -13.24       0.99        0.00      79.44       1.89       0.00       0.42       ----

> <Gold.Chemscore.Fitness>
12.8200

> <Gold.Chemscore.DG>
-13.2387

> <Gold.Chemscore.ZeroCoef>
-5.4800

> <Gold.Chemscore.Hbond>
0.9863

> <Gold.Chemscore.Metal>
0.0000

> <Gold.Chemscore.Lipo>
79.4351

> <Gold.Chemscore.Internal_Hbond>
0.0000

> <Gold.Chemscore.DEClash>
0.0004

> <Gold.Chemscore.DEInternal>
0.4184

> <Gold.Chemscore.Rot>
1.8865

> <Gold.Chemscore.Internal.Correction>
   9.000000E+99

> <Gold.Chemscore.Hbonds>
donor molecule, donor type, donor heavy atom, donor atom, acceptor molecule, acceptor atom, score
      P1  H  6896  6908       L1     4  0.96

> <Gold.Chemscore.Hbond.Weighted>
-3.2944

> <Gold.Chemscore.Metal.Weighted>
-0.0000

> <Gold.Chemscore.Lipo.Weighted>
-9.2939

> <Gold.Chemscore.Internal_Hbond.Weighted>
0.0000

> <Gold.Chemscore.DEClash.Weighted>
0.0004

> <Gold.Chemscore.DEInternal.Weighted>
0.4184

> <Gold.Chemscore.Rot.Weighted>
4.8295

> <Gold.Chemscore.Internal.Correction.Weighted>
   9.000000E+99

> <Gold.Protein.RotatedTorsions>
[ 6907 6896 6895 6894 ] final -110.85 input  -60.11 | X-H torsion
[ 7974 7965 7964 7962 ] final  -45.76 input  175.53 | X-H torsion
[ 8008 7997 7996 7995 ] final  116.17 input   59.86 | X-H torsion
[ 10167 10162 10161 10158 ] final   49.53 input  -65.29 | X-H torsion
[ 10718 10713 10712 10709 ] final -179.11 input   66.30 | X-H torsion
[ 10763 10752 10751 10750 ] final   52.67 input  -60.55 | X-H torsion
[ 11005 11000 10999 10996 ] final   40.52 input  -57.11 | X-H torsion

> <Gold.Protein.ActiveResidues>
 VAL166  LYS551  ARG553  GLY616  TRP617  ASP618  TYR619  PRO620  LYS621  CYS622 
 ASP623  PHE694  ASN695  SER759  ASP760  ASP761  ALA762  ILE779  LEU786  VAL792 
 PHE793  MET794  SER795  GLU796  ALA797  LYS798  CYS799  TRP800  GLU811  SER814 

> <Gold.Protein.RotatedAtoms>
  150.7652  133.9321  159.3429 H   0  0  0  0  0  0  0  0  0  0  0  0  # atno 6907 bound_to 6896
  151.7220  135.0890  160.0295 H   0  0  0  0  0  0  0  0  0  0  0  0  # atno 6908 bound_to 6896
  152.3644  133.6300  159.6075 H   0  0  0  0  0  0  0  0  0  0  0  0  # atno 6909 bound_to 6896
  145.9788  140.7306  142.9374 H   0  0  0  0  0  0  0  0  0  0  0  0  # atno 7974 bound_to 7965
  156.2424  140.2923  156.0481 H   0  0  0  0  0  0  0  0  0  0  0  0  # atno 8008 bound_to 7997
  155.1912  140.0407  157.2918 H   0  0  0  0  0  0  0  0  0  0  0  0  # atno 8009 bound_to 7997
  154.6193  140.2472  155.7576 H   0  0  0  0  0  0  0  0  0  0  0  0  # atno 8010 bound_to 7997
  140.2819  144.3146  150.6262 H   0  0  0  0  0  0  0  0  0  0  0  0  # atno 10167 bound_to 10162
  156.8542  130.9729  151.3089 H   0  0  0  0  0  0  0  0  0  0  0  0  # atno 10718 bound_to 10713
  152.9790  135.5804  154.4617 H   0  0  0  0  0  0  0  0  0  0  0  0  # atno 10763 bound_to 10752
  154.4192  135.2771  155.1989 H   0  0  0  0  0  0  0  0  0  0  0  0  # atno 10764 bound_to 10752
  154.3745  135.6160  153.5811 H   0  0  0  0  0  0  0  0  0  0  0  0  # atno 10765 bound_to 10752
  140.1923  134.3972  155.8140 H   0  0  0  0  0  0  0  0  0  0  0  0  # atno 11005 bound_to 11000
  144.6856  140.2873  143.7283 LP  0  0  0  0  0  0  0  0  0  0  0  0  # atno 17320 bound_to 7965
  145.7800  139.1888  143.2163 LP  0  0  0  0  0  0  0  0  0  0  0  0  # atno 17321 bound_to 7965
  140.5804  143.2173  151.7438 LP  0  0  0  0  0  0  0  0  0  0  0  0  # atno 17342 bound_to 10162
  139.4960  144.4088  152.0103 LP  0  0  0  0  0  0  0  0  0  0  0  0  # atno 17343 bound_to 10162
  157.6286  130.8711  149.9234 LP  0  0  0  0  0  0  0  0  0  0  0  0  # atno 17370 bound_to 10713
  156.0812  130.3673  150.0578 LP  0  0  0  0  0  0  0  0  0  0  0  0  # atno 17371 bound_to 10713
  141.2226  133.7052  156.8116 LP  0  0  0  0  0  0  0  0  0  0  0  0  # atno 17394 bound_to 11000
  140.2146  134.8802  157.3312 LP  0  0  0  0  0  0  0  0  0  0  0  0  # atno 17395 bound_to 11000

$$$$
