AV-unprocessed.smi:1586|AV-procd|sdf|6375|dock4
  -GOLD-   22720 7 03D 1   1.00000     0.00000
 Structure written by MMmdl.
 47 48  0  0  0  0  0  0  0  0  2 V2000
  144.0353  134.2823  151.4182 C   0  0  0  0  0  0  0  0  0  0  0  0
  144.4125  132.8614  151.8609 C   0  0  0  0  0  0  0  0  0  0  0  0
  145.3799  132.2418  150.9519 N   0  0  0  0  0  0  0  0  0  0  0  0
  146.5317  133.1044  150.6899 C   0  0  0  0  0  0  0  0  0  0  0  0
  147.4587  133.2354  151.9175 C   0  0  0  0  0  0  0  0  0  0  0  0
  147.9495  131.9021  152.3648 N   0  3  0  0  0  0  0  0  0  0  0  0
  148.9125  131.9132  153.5141 C   0  0  2  0  0  0  0  0  0  0  0  0
  149.0818  130.5338  154.1961 C   0  0  0  0  0  0  0  0  0  0  0  0
  148.4848  132.9758  154.5616 C   0  0  0  0  0  0  0  0  0  0  0  0
  149.0289  134.3025  154.2862 N   0  0  0  0  0  0  0  0  0  0  0  0
  149.8150  134.9922  155.1251 C   0  0  0  0  0  0  0  0  0  0  0  0
  150.1606  134.5687  156.2287 O   0  0  0  0  0  0  0  0  0  0  0  0
  150.1611  136.1830  154.6073 N   0  0  0  0  0  0  0  0  0  0  0  0
  150.9691  137.1823  155.2075 C   0  0  0  0  0  0  0  0  0  0  0  0
  150.5639  138.5433  155.2113 C   0  0  0  0  0  0  0  0  0  0  0  0
  151.5867  139.1669  155.8691 C   0  0  0  0  0  0  0  0  0  0  0  0
  151.8379  140.5881  156.2404 C   0  0  0  0  0  0  0  0  0  0  0  0
  152.5351  138.2629  156.2354 O   0  0  0  0  0  0  0  0  0  0  0  0
  152.1333  136.9918  155.8084 N   0  0  0  0  0  0  0  0  0  0  0  0
  146.7820  131.0111  152.6104 C   0  0  0  0  0  0  0  0  0  0  0  0
  145.8729  130.9261  151.3675 C   0  0  0  0  0  0  0  0  0  0  0  0
  143.4235  134.7675  152.1788 H   0  0  0  0  0  0  0  0  0  0  0  0
  143.4582  134.2842  150.4940 H   0  0  0  0  0  0  0  0  0  0  0  0
  144.9219  134.8989  151.2671 H   0  0  0  0  0  0  0  0  0  0  0  0
  144.8667  132.9281  152.8504 H   0  0  0  0  0  0  0  0  0  0  0  0
  143.5166  132.2527  151.9750 H   0  0  0  0  0  0  0  0  0  0  0  0
  147.0935  132.6894  149.8519 H   0  0  0  0  0  0  0  0  0  0  0  0
  146.1881  134.0882  150.3681 H   0  0  0  0  0  0  0  0  0  0  0  0
  148.2940  133.8651  151.6130 H   0  0  0  0  0  0  0  0  0  0  0  0
  146.9563  133.7470  152.7395 H   0  0  0  0  0  0  0  0  0  0  0  0
  149.8908  132.1838  153.1136 H   0  0  0  0  0  0  0  0  0  0  0  0
  149.7676  130.5837  155.0417 H   0  0  0  0  0  0  0  0  0  0  0  0
  149.5049  129.7913  153.5195 H   0  0  0  0  0  0  0  0  0  0  0  0
  148.1307  130.1540  154.5708 H   0  0  0  0  0  0  0  0  0  0  0  0
  147.4017  133.0669  154.6353 H   0  0  0  0  0  0  0  0  0  0  0  0
  148.8275  132.6738  155.5517 H   0  0  0  0  0  0  0  0  0  0  0  0
  148.7922  134.7205  153.3981 H   0  0  0  0  0  0  0  0  0  0  0  0
  149.8070  136.4009  153.6878 H   0  0  0  0  0  0  0  0  0  0  0  0
  149.6716  138.9921  154.8011 H   0  0  0  0  0  0  0  0  0  0  0  0
  151.0656  141.2403  155.8324 H   0  0  0  0  0  0  0  0  0  0  0  0
  152.8011  140.9239  155.8560 H   0  0  0  0  0  0  0  0  0  0  0  0
  151.8446  140.7088  157.3237 H   0  0  0  0  0  0  0  0  0  0  0  0
  147.1122  130.0024  152.8502 H   0  0  0  0  0  0  0  0  0  0  0  0
  146.2221  131.3585  153.4793 H   0  0  0  0  0  0  0  0  0  0  0  0
  145.0408  130.2476  151.5523 H   0  0  0  0  0  0  0  0  0  0  0  0
  146.4331  130.4900  150.5393 H   0  0  0  0  0  0  0  0  0  0  0  0
  148.4520  131.5188  151.5773 H   0  0  0  0  0  0  0  0  0  0  0  0
  1  2  1  0  0  0  0
  1 22  1  0  0  0  0
  1 23  1  0  0  0  0
  1 24  1  0  0  0  0
  2  3  1  0  0  0  0
  2 25  1  0  0  0  0
  2 26  1  0  0  0  0
  3 21  1  0  0  0  0
  3  4  1  0  0  0  0
  4  5  1  0  0  0  0
  4 27  1  0  0  0  0
  4 28  1  0  0  0  0
  5  6  1  0  0  0  0
  5 29  1  0  0  0  0
  5 30  1  0  0  0  0
  6  7  1  0  0  0  0
  6 20  1  0  0  0  0
  6 47  1  0  0  0  0
  7  8  1  0  0  0  0
  7  9  1  0  0  0  0
  7 31  1  0  0  0  0
  8 32  1  0  0  0  0
  8 33  1  0  0  0  0
  8 34  1  0  0  0  0
  9 10  1  0  0  0  0
  9 35  1  0  0  0  0
  9 36  1  0  0  0  0
 10 11  1  0  0  0  0
 10 37  1  0  0  0  0
 11 12  2  0  0  0  0
 11 13  1  0  0  0  0
 13 14  1  0  0  0  0
 13 38  1  0  0  0  0
 14 19  2  0  0  0  0
 14 15  1  0  0  0  0
 15 16  2  0  0  0  0
 15 39  1  0  0  0  0
 16 17  1  0  0  0  0
 16 18  1  0  0  0  0
 17 40  1  0  0  0  0
 17 41  1  0  0  0  0
 17 42  1  0  0  0  0
 18 19  1  0  0  0  0
 20 21  1  0  0  0  0
 20 43  1  0  0  0  0
 20 44  1  0  0  0  0
 21 45  1  0  0  0  0
 21 46  1  0  0  0  0
M  CHG  1   6   1
M  END
> <s_m_source_file>
AV-unprocessed.smi

> <i_m_source_file_index>
1586

> <i_lp_mmshare_version>
43012

> <i_f3d_flags>
0

> <s_epik_input>
W0NIM11bQ0gyXU4xW0NIMl1bQ0gyXU4oW0NIMl1bQ0gyXTEpW0NASF0oW0NIM10pW0NIMl1bTkhdQyg9TylbTkhdYzJbY0hdYyhbQ0gzXSlvbjI=

> <s_epik_cmdline>
J2VwaWtfcHl0aG9uJywgJy1waCcsICc3LjAnLCAnLXRuJywgJzgnLCAnLW1hJywgJzIwMCcsICctbWV0YWxfYmluZGluZycsICctaW1hZScsICc8aW5maWxlLm1hZT4nLCAnLW9tYWUnLCAnPG91dGZpbGUubWFlPic=

> <r_epik_Ionization_Penalty>
0.153363

> <r_epik_Ionization_Penalty_Charging>
0.151842

> <r_epik_Ionization_Penalty_Neutral>
0.00152029

> <r_epik_State_Penalty>
0.985235

> <r_epik_Charging_Adjusted_Penalty>
1.13708

> <i_epik_Tot_Q>
1

> <i_epik_Tot_abs_Q>
1

> <r_epik_Metal_State_Penalty>
0.996168

> <b_epik_Metal_Only>
0

> <s_lp_Force_Field>
OPLS_2005

> <r_lp_Energy>
18.9403

> <b_lp_Chiralities_Consistent>
1

> <s_lp_Variant>
AV-unprocessed.smi:1586-3

> <Gold.Version>
5.8.1

> <Gold.Id.Protein>
6NUR|6NUR_protein|mol2

> <Gold.PLP.Fitness>
45.5484

> <Gold.PLP.PLP>
-36.2475

> <Gold.PLP.part.hbond>
-4.6363

> <Gold.PLP.part.metal>
0.0000

> <Gold.PLP.part.buried>
-4.5554

> <Gold.PLP.part.nonpolar>
-27.3513

> <Gold.PLP.part.repulsive>
0.2303

> <Gold.PLP.ligand.clash>
0.0000

> <Gold.PLP.ligand.torsion>
1.2555

> <Gold.PLP.Chemscore.Hbond>
3.9113

> <Gold.PLP.Chemscore.CHOScore>
0.0000

> <Gold.PLP.Chemscore.Metal>
0.0000

> <Gold.Chemscore.Hbonds>
donor molecule, donor type, donor heavy atom, donor atom, acceptor molecule, acceptor atom, score
      L1  H     6    47       P1 10747  1.00
      L1  H    10    37       P1  7948  0.76
      L1  H    13    38       P1  7948  1.00
      P1  H 10752 10764       L1    19  0.98

> <Gold.PLP.Chemscore.Internal.Correction>
0.0782

> <Gold.Rescore>
     Score         DG    S(hbond)    S(metal)    S(lipo)     H(rot)  DE(clash)    DE(int)     intcor
     18.91     -21.00       3.40        0.00      74.09       1.76       0.01       2.07       ----

> <Gold.Chemscore.Fitness>
18.9130

> <Gold.Chemscore.DG>
-20.9982

> <Gold.Chemscore.ZeroCoef>
-5.4800

> <Gold.Chemscore.Hbond>
3.4026

> <Gold.Chemscore.Metal>
0.0000

> <Gold.Chemscore.Lipo>
74.0911

> <Gold.Chemscore.Internal_Hbond>
0.0000

> <Gold.Chemscore.DEClash>
0.0149

> <Gold.Chemscore.DEInternal>
2.0703

> <Gold.Chemscore.Rot>
1.7637

> <Gold.Chemscore.Internal.Correction>
   9.000000E+99

> <Gold.Chemscore.Hbonds>
donor molecule, donor type, donor heavy atom, donor atom, acceptor molecule, acceptor atom, score
      L1  H     6    47       P1 10747  0.94
      L1  H    10    37       P1  7948  0.26
      L1  H    13    38       P1  7948  0.34
      P1  H 10752 10764       L1    19  0.60

> <Gold.Chemscore.Hbond.Weighted>
-11.3645

> <Gold.Chemscore.Metal.Weighted>
-0.0000

> <Gold.Chemscore.Lipo.Weighted>
-8.6687

> <Gold.Chemscore.Internal_Hbond.Weighted>
0.0000

> <Gold.Chemscore.DEClash.Weighted>
0.0149

> <Gold.Chemscore.DEInternal.Weighted>
2.0703

> <Gold.Chemscore.Rot.Weighted>
4.5150

> <Gold.Chemscore.Internal.Correction.Weighted>
   9.000000E+99

> <Gold.Protein.RotatedTorsions>
[ 6907 6896 6895 6894 ] final  145.71 input  -60.11 | X-H torsion
[ 7974 7965 7964 7962 ] final  -90.08 input  175.53 | X-H torsion
[ 8008 7997 7996 7995 ] final   65.03 input   59.86 | X-H torsion
[ 10167 10162 10161 10158 ] final  103.52 input  -65.29 | X-H torsion
[ 10718 10713 10712 10709 ] final  -21.08 input   66.30 | X-H torsion
[ 10763 10752 10751 10750 ] final  -40.88 input  -60.55 | X-H torsion
[ 11005 11000 10999 10996 ] final -155.94 input  -57.11 | X-H torsion

> <Gold.Protein.ActiveResidues>
 VAL166  LYS551  ARG553  GLY616  TRP617  ASP618  TYR619  PRO620  LYS621  CYS622 
 ASP623  PHE694  ASN695  SER759  ASP760  ASP761  ALA762  ILE779  LEU786  VAL792 
 PHE793  MET794  SER795  GLU796  ALA797  LYS798  CYS799  TRP800  GLU811  SER814 

> <Gold.Protein.RotatedAtoms>
  152.1773  133.4684  159.4939 H   0  0  0  0  0  0  0  0  0  0  0  0  # atno 6907 bound_to 6896
  150.6929  134.1877  159.4282 H   0  0  0  0  0  0  0  0  0  0  0  0  # atno 6908 bound_to 6896
  151.9787  135.0039  160.0607 H   0  0  0  0  0  0  0  0  0  0  0  0  # atno 6909 bound_to 6896
  145.4312  140.9556  143.2127 H   0  0  0  0  0  0  0  0  0  0  0  0  # atno 7974 bound_to 7965
  155.6553  140.3497  155.4763 H   0  0  0  0  0  0  0  0  0  0  0  0  # atno 8008 bound_to 7997
  155.9813  140.1175  157.0746 H   0  0  0  0  0  0  0  0  0  0  0  0  # atno 8009 bound_to 7997
  154.4192  140.1137  156.5426 H   0  0  0  0  0  0  0  0  0  0  0  0  # atno 8010 bound_to 7997
  139.7255  144.7048  151.0804 H   0  0  0  0  0  0  0  0  0  0  0  0  # atno 10167 bound_to 10162
  156.5231  130.4637  149.6586 H   0  0  0  0  0  0  0  0  0  0  0  0  # atno 10718 bound_to 10713
  153.9533  135.6748  153.4744 H   0  0  0  0  0  0  0  0  0  0  0  0  # atno 10763 bound_to 10752
  153.0874  135.4892  154.8620 H   0  0  0  0  0  0  0  0  0  0  0  0  # atno 10764 bound_to 10752
  154.7313  135.3139  154.8845 H   0  0  0  0  0  0  0  0  0  0  0  0  # atno 10765 bound_to 10752
  140.6810  134.4145  157.5226 H   0  0  0  0  0  0  0  0  0  0  0  0  # atno 11005 bound_to 11000
  144.8182  139.5839  143.6999 LP  0  0  0  0  0  0  0  0  0  0  0  0  # atno 17320 bound_to 7965
  146.2606  139.6402  142.9364 LP  0  0  0  0  0  0  0  0  0  0  0  0  # atno 17321 bound_to 7965
  140.7762  143.5110  150.9653 LP  0  0  0  0  0  0  0  0  0  0  0  0  # atno 17342 bound_to 10162
  139.8797  143.7087  152.3158 LP  0  0  0  0  0  0  0  0  0  0  0  0  # atno 17343 bound_to 10162
  156.3131  130.7239  151.2136 LP  0  0  0  0  0  0  0  0  0  0  0  0  # atno 17370 bound_to 10713
  157.7434  131.0476  150.4952 LP  0  0  0  0  0  0  0  0  0  0  0  0  # atno 17371 bound_to 10713
  139.8952  134.8689  156.2144 LP  0  0  0  0  0  0  0  0  0  0  0  0  # atno 17394 bound_to 11000
  141.0317  133.6985  156.1442 LP  0  0  0  0  0  0  0  0  0  0  0  0  # atno 17395 bound_to 11000

$$$$
