AV-unprocessed.smi:157|AV-procd|sdf|1305|dock8
  -GOLD-   2262018593D 1   1.00000     0.00000
 Structure written by MMmdl.
 35 37  0  0  0  0  0  0  0  0  1 V2000
  149.5055  137.4666  153.9758 O   0  0  0  0  0  0  0  0  0  0  0  0
  150.7280  138.1467  154.1659 C   0  0  0  0  0  0  0  0  0  0  0  0
  150.5764  139.2271  155.2508 C   0  0  1  0  0  0  0  0  0  0  0  0
  151.8161  139.8778  155.5036 O   0  0  0  0  0  0  0  0  0  0  0  0
  151.5895  141.1355  156.0713 C   0  0  2  0  0  0  0  0  0  0  0  0
  151.9499  141.0869  157.5271 N   0  0  0  0  0  0  0  0  0  0  0  0
  152.3639  140.0175  158.2209 C   0  0  0  0  0  0  0  0  0  0  0  0
  152.6085  140.2522  159.4985 N   0  0  0  0  0  0  0  0  0  0  0  0
  152.3387  141.6124  159.6489 C   0  0  0  0  0  0  0  0  0  0  0  0
  151.9089  142.1444  158.4410 C   0  0  0  0  0  0  0  0  0  0  0  0
  151.4824  143.3781  157.9829 N   0  0  0  0  0  0  0  0  0  0  0  0
  151.2403  144.3183  158.8426 C   0  0  0  0  0  0  0  0  0  0  0  0
  151.4234  144.3609  160.2182 N   0  0  0  0  0  0  0  0  0  0  0  0
  152.5784  143.7999  160.8922 C   0  0  0  0  0  0  0  0  0  0  0  0
  152.5016  142.2760  160.9873 C   0  0  2  0  0  0  0  0  0  0  0  0
  153.7090  141.8022  161.5495 O   0  0  0  0  0  0  0  0  0  0  0  0
  150.0945  141.4546  155.9129 C   0  0  0  0  0  0  0  0  0  0  0  0
  149.6180  140.3853  154.9475 C   0  0  1  0  0  0  0  0  0  0  0  0
  149.7256  140.8335  153.6095 O   0  0  0  0  0  0  0  0  0  0  0  0
  150.2656  138.7539  156.1843 H   0  0  0  0  0  0  0  0  0  0  0  0
  152.2569  141.8776  155.6318 H   0  0  0  0  0  0  0  0  0  0  0  0
  151.6798  141.9903  161.6448 H   0  0  0  0  0  0  0  0  0  0  0  0
  148.5799  140.1071  155.1330 H   0  0  0  0  0  0  0  0  0  0  0  0
  149.5604  136.9700  153.1735 H   0  0  0  0  0  0  0  0  0  0  0  0
  151.4807  137.4193  154.4707 H   0  0  0  0  0  0  0  0  0  0  0  0
  151.0639  138.5717  153.2198 H   0  0  0  0  0  0  0  0  0  0  0  0
  152.4871  139.0375  157.7837 H   0  0  0  0  0  0  0  0  0  0  0  0
  150.8343  145.2600  158.4704 H   0  0  0  0  0  0  0  0  0  0  0  0
  151.0163  145.1234  160.7407 H   0  0  0  0  0  0  0  0  0  0  0  0
  153.4778  144.0994  160.3516 H   0  0  0  0  0  0  0  0  0  0  0  0
  152.6505  144.2365  161.8887 H   0  0  0  0  0  0  0  0  0  0  0  0
  154.1400  141.2596  160.9065 H   0  0  0  0  0  0  0  0  0  0  0  0
  149.5874  141.3437  156.8731 H   0  0  0  0  0  0  0  0  0  0  0  0
  149.9442  142.4750  155.5576 H   0  0  0  0  0  0  0  0  0  0  0  0
  149.5363  140.1068  153.0359 H   0  0  0  0  0  0  0  0  0  0  0  0
  1  2  1  0  0  0  0
  1 24  1  0  0  0  0
  2  3  1  0  0  0  0
  2 25  1  0  0  0  0
  2 26  1  0  0  0  0
  3 20  1  0  0  0  0
  3 18  1  0  0  0  0
  3  4  1  0  0  0  0
  4  5  1  0  0  0  0
  5 21  1  0  0  0  0
  5  6  1  0  0  0  0
  5 17  1  0  0  0  0
  6 10  1  0  0  0  0
  6  7  1  0  0  0  0
  7  8  2  0  0  0  0
  7 27  1  0  0  0  0
  8  9  1  0  0  0  0
  9 15  1  0  0  0  0
  9 10  2  0  0  0  0
 10 11  1  0  0  0  0
 11 12  2  0  0  0  0
 12 13  1  0  0  0  0
 12 28  1  0  0  0  0
 13 14  1  0  0  0  0
 13 29  1  0  0  0  0
 14 15  1  0  0  0  0
 14 30  1  0  0  0  0
 14 31  1  0  0  0  0
 15 22  1  0  0  0  0
 15 16  1  0  0  0  0
 16 32  1  0  0  0  0
 17 18  1  0  0  0  0
 17 33  1  0  0  0  0
 17 34  1  0  0  0  0
 18 23  1  0  0  0  0
 18 19  1  0  0  0  0
 19 35  1  0  0  0  0
M  END
> <s_m_source_file>
AV-unprocessed.smi

> <i_m_source_file_index>
157

> <i_lp_mmshare_version>
43012

> <i_f3d_flags>
0

> <s_epik_input>
W09IXVtDSDJdW0NASF0xT1tDQEhdKFtDSDJdW0NAQEhdMVtPSF0pbihbY0hdbjIpYyhjMjMpTj1bQ0hdW05IXVtDSDJdW0NASF0zW09IXQ==

> <s_epik_cmdline>
J2VwaWtfcHl0aG9uJywgJy1waCcsICc3LjAnLCAnLXRuJywgJzgnLCAnLW1hJywgJzIwMCcsICctbWV0YWxfYmluZGluZycsICctaW1hZScsICc8aW5maWxlLm1hZT4nLCAnLW9tYWUnLCAnPG91dGZpbGUubWFlPic=

> <r_lp_tautomer_probability>
1

> <r_epik_Ionization_Penalty>
0.0357149

> <r_epik_Ionization_Penalty_Charging>
0.0355056

> <r_epik_Ionization_Penalty_Neutral>
0.000209255

> <r_epik_State_Penalty>
0.0296046

> <r_epik_Charging_Adjusted_Penalty>
0.0651102

> <i_epik_Tot_Q>
0

> <i_epik_Tot_abs_Q>
0

> <r_epik_Metal_State_Penalty>
3.03559e-05

> <b_epik_Metal_Only>
0

> <s_epik_Chemistry_Notes>
This compound has an imine and may undergo hydrolysis. This compound contains an acetal/aminal-like group ( X-CH(R)-Y where X, Y are N, S, or O) that may be acid/base labile, releasing an aldehyde.

> <s_lp_Force_Field>
OPLS_2005

> <r_lp_Energy>
41.6449

> <b_lp_Chiralities_Consistent>
1

> <s_lp_Variant>
AV-unprocessed.smi:157-15

> <Gold.Version>
5.8.1

> <Gold.Id.Protein>
6NUR|6NUR_protein|mol2

> <Gold.PLP.Fitness>
44.2906

> <Gold.PLP.PLP>
-35.4803

> <Gold.PLP.part.hbond>
-4.4865

> <Gold.PLP.part.metal>
0.0000

> <Gold.PLP.part.buried>
-7.3045

> <Gold.PLP.part.nonpolar>
-23.3950

> <Gold.PLP.part.repulsive>
0.2036

> <Gold.PLP.ligand.clash>
0.0000

> <Gold.PLP.ligand.torsion>
0.0382

> <Gold.PLP.Chemscore.Hbond>
2.9600

> <Gold.PLP.Chemscore.CHOScore>
0.0000

> <Gold.PLP.Chemscore.Metal>
0.0000

> <Gold.Chemscore.Hbonds>
donor molecule, donor type, donor heavy atom, donor atom, acceptor molecule, acceptor atom, score
      L1  H     1    24       P1  7948  1.00
      L1  H    19    35       P1  7957  0.58
      P1  H  7989  7998       L1    19  0.38
      P1  H  8011  8017       L1    19  1.00

> <Gold.PLP.Chemscore.Internal.Correction>
0.0067

> <Gold.Rescore>
     Score         DG    S(hbond)    S(metal)    S(lipo)     H(rot)  DE(clash)    DE(int)     intcor
      9.98     -10.01       2.06        0.00      59.58       3.64       0.01       0.01       ----

> <Gold.Chemscore.Fitness>
9.9786

> <Gold.Chemscore.DG>
-10.0081

> <Gold.Chemscore.ZeroCoef>
-5.4800

> <Gold.Chemscore.Hbond>
2.0555

> <Gold.Chemscore.Metal>
0.0000

> <Gold.Chemscore.Lipo>
59.5839

> <Gold.Chemscore.Internal_Hbond>
0.0000

> <Gold.Chemscore.DEClash>
0.0149

> <Gold.Chemscore.DEInternal>
0.0147

> <Gold.Chemscore.Rot>
3.6362

> <Gold.Chemscore.Internal.Correction>
   9.000000E+99

> <Gold.Chemscore.Hbonds>
donor molecule, donor type, donor heavy atom, donor atom, acceptor molecule, acceptor atom, score
      L1  H     1    24       P1  7948  0.68
      L1  H    19    35       P1  7957  0.58
      P1  H  7989  7998       L1    19  0.02
      P1  H  8011  8017       L1    19  0.36

> <Gold.Chemscore.Hbond.Weighted>
-6.8655

> <Gold.Chemscore.Metal.Weighted>
-0.0000

> <Gold.Chemscore.Lipo.Weighted>
-6.9713

> <Gold.Chemscore.Internal_Hbond.Weighted>
0.0000

> <Gold.Chemscore.DEClash.Weighted>
0.0149

> <Gold.Chemscore.DEInternal.Weighted>
0.0147

> <Gold.Chemscore.Rot.Weighted>
9.3087

> <Gold.Chemscore.Internal.Correction.Weighted>
   9.000000E+99

> <Gold.Protein.RotatedTorsions>
[ 6907 6896 6895 6894 ] final   39.67 input  -60.11 | X-H torsion
[ 7974 7965 7964 7962 ] final  176.24 input  175.53 | X-H torsion
[ 8008 7997 7996 7995 ] final  -29.67 input   59.86 | X-H torsion
[ 10167 10162 10161 10158 ] final  149.42 input  -65.29 | X-H torsion
[ 10718 10713 10712 10709 ] final  137.95 input   66.30 | X-H torsion
[ 10763 10752 10751 10750 ] final  -41.44 input  -60.55 | X-H torsion
[ 11005 11000 10999 10996 ] final  -72.19 input  -57.11 | X-H torsion

> <Gold.Protein.ActiveResidues>
 VAL166  LYS551  ARG553  GLY616  TRP617  ASP618  TYR619  PRO620  LYS621  CYS622 
 ASP623  PHE694  ASN695  SER759  ASP760  ASP761  ALA762  ILE779  LEU786  VAL792 
 PHE793  MET794  SER795  GLU796  ALA797  LYS798  CYS799  TRP800  GLU811  SER814 

> <Gold.Protein.RotatedAtoms>
  152.1726  134.8821  160.0532 H   0  0  0  0  0  0  0  0  0  0  0  0  # atno 6907 bound_to 6896
  151.9775  133.3741  159.4103 H   0  0  0  0  0  0  0  0  0  0  0  0  # atno 6908 bound_to 6896
  150.6904  134.3997  159.5157 H   0  0  0  0  0  0  0  0  0  0  0  0  # atno 6909 bound_to 6896
  144.7187  140.0067  143.6440 H   0  0  0  0  0  0  0  0  0  0  0  0  # atno 7974 bound_to 7965
  154.4280  140.1812  156.1285 H   0  0  0  0  0  0  0  0  0  0  0  0  # atno 8008 bound_to 7997
  156.0086  140.3353  155.6893 H   0  0  0  0  0  0  0  0  0  0  0  0  # atno 8009 bound_to 7997
  155.6142  140.0653  157.2688 H   0  0  0  0  0  0  0  0  0  0  0  0  # atno 8010 bound_to 7997
  139.4862  144.5603  151.7244 H   0  0  0  0  0  0  0  0  0  0  0  0  # atno 10167 bound_to 10162
  157.4306  131.1048  151.0254 H   0  0  0  0  0  0  0  0  0  0  0  0  # atno 10718 bound_to 10713
  153.9625  135.6738  153.4745 H   0  0  0  0  0  0  0  0  0  0  0  0  # atno 10763 bound_to 10752
  153.0831  135.4913  154.8540 H   0  0  0  0  0  0  0  0  0  0  0  0  # atno 10764 bound_to 10752
  154.7265  135.3128  154.8923 H   0  0  0  0  0  0  0  0  0  0  0  0  # atno 10765 bound_to 10752
  141.1604  133.6839  156.7022 H   0  0  0  0  0  0  0  0  0  0  0  0  # atno 11005 bound_to 11000
  146.0291  139.3319  143.0766 LP  0  0  0  0  0  0  0  0  0  0  0  0  # atno 17320 bound_to 7965
  145.8474  140.9547  143.0767 LP  0  0  0  0  0  0  0  0  0  0  0  0  # atno 17321 bound_to 7965
  140.5171  144.0936  150.6011 LP  0  0  0  0  0  0  0  0  0  0  0  0  # atno 17342 bound_to 10162
  140.3881  143.2767  152.0092 LP  0  0  0  0  0  0  0  0  0  0  0  0  # atno 17343 bound_to 10162
  157.1152  130.6038  149.5491 LP  0  0  0  0  0  0  0  0  0  0  0  0  # atno 17370 bound_to 10713
  155.9912  130.4965  150.7288 LP  0  0  0  0  0  0  0  0  0  0  0  0  # atno 17371 bound_to 10713
  140.2950  134.8210  157.4049 LP  0  0  0  0  0  0  0  0  0  0  0  0  # atno 17394 bound_to 11000
  140.1312  134.5092  155.8104 LP  0  0  0  0  0  0  0  0  0  0  0  0  # atno 17395 bound_to 11000

$$$$
