AV-unprocessed.smi:193|AV-procd|sdf|1515|dock3
  -GOLD-   2262019353D 1   1.00000     0.00000
 Structure written by MMmdl.
 61 65  0  0  0  0  0  0  0  0  1 V2000
  152.9653  138.3623  155.6183 C   0  0  0  0  0  0  0  0  0  0  0  0
  152.0242  139.5460  155.8908 C   0  0  1  0  0  0  0  0  0  0  0  0
  150.5784  139.1428  155.5294 C   0  0  0  0  0  0  0  0  0  0  0  0
  149.6582  140.2668  155.3473 N   0  0  0  0  0  0  0  0  0  0  0  0
  148.6277  140.1222  154.4701 C   0  0  0  0  0  0  0  0  0  0  0  0
  148.3029  141.1661  153.6608 N   0  0  0  0  0  0  0  0  0  0  0  0
  147.2996  141.0634  152.7851 C   0  0  0  0  0  0  0  0  0  0  0  0
  146.4969  140.0238  152.5551 N   0  0  0  0  0  0  0  0  0  0  0  0
  146.8110  138.9708  153.3620 C   0  0  0  0  0  0  0  0  0  0  0  0
  147.8514  138.9318  154.3351 C   0  0  0  0  0  0  0  0  0  0  0  0
  147.8534  137.6904  154.9635 N   0  0  0  0  0  0  0  0  0  0  0  0
  146.8804  137.0357  154.3925 C   0  0  0  0  0  0  0  0  0  0  0  0
  146.1939  137.7335  153.4261 N   0  0  0  0  0  0  0  0  0  0  0  0
  145.0616  137.2558  152.6469 C   0  0  0  0  0  0  0  0  0  0  0  0
  145.4032  136.0681  151.7129 C   0  0  0  0  0  0  0  0  0  0  0  0
  146.3502  136.5278  150.7634 O   0  0  0  0  0  0  0  0  0  0  0  0
  146.0143  134.8701  152.4724 C   0  0  0  0  0  0  0  0  0  0  0  0
  146.1643  133.6303  151.5732 C   0  0  0  0  0  0  0  0  0  0  0  0
  144.9119  133.2938  150.9883 O   0  0  0  0  0  0  0  0  0  0  0  0
  144.4078  134.3178  150.1392 C   0  0  0  0  0  0  0  0  0  0  0  0
  144.1463  135.5970  150.9546 C   0  0  0  0  0  0  0  0  0  0  0  0
  149.9163  141.5741  155.9526 C   0  0  0  0  0  0  0  0  0  0  0  0
  150.2711  141.4742  157.4422 C   0  0  0  0  0  0  0  0  0  0  0  0
  151.7143  141.3456  157.6218 N   0  0  0  0  0  0  0  0  0  0  0  0
  152.0341  141.6769  159.0039 C   0  0  1  0  0  0  0  0  0  0  0  0
  153.4686  142.0286  159.3307 C   0  0  0  0  0  0  0  0  0  0  0  0
  152.4124  143.1080  159.3414 C   0  0  1  0  0  0  0  0  0  0  0  0
  152.4428  144.2146  158.3046 C   0  0  0  0  0  0  0  0  0  0  0  0
  152.1553  139.9748  157.3692 C   0  0  0  0  0  0  0  0  0  0  0  0
  152.7031  137.4986  156.2304 H   0  0  0  0  0  0  0  0  0  0  0  0
  154.0015  138.6230  155.8357 H   0  0  0  0  0  0  0  0  0  0  0  0
  152.9211  138.0553  154.5729 H   0  0  0  0  0  0  0  0  0  0  0  0
  152.3530  140.3590  155.2414 H   0  0  0  0  0  0  0  0  0  0  0  0
  150.6085  138.5777  154.5968 H   0  0  0  0  0  0  0  0  0  0  0  0
  150.1772  138.4699  156.2878 H   0  0  0  0  0  0  0  0  0  0  0  0
  147.1119  141.9414  152.1846 H   0  0  0  0  0  0  0  0  0  0  0  0
  146.6271  136.0228  154.6698 H   0  0  0  0  0  0  0  0  0  0  0  0
  144.2704  136.9690  153.3410 H   0  0  0  0  0  0  0  0  0  0  0  0
  144.6676  138.0929  152.0687 H   0  0  0  0  0  0  0  0  0  0  0  0
  147.1874  136.6156  151.1931 H   0  0  0  0  0  0  0  0  0  0  0  0
  146.9832  135.1306  152.8999 H   0  0  0  0  0  0  0  0  0  0  0  0
  145.3690  134.6113  153.3130 H   0  0  0  0  0  0  0  0  0  0  0  0
  146.9091  133.7983  150.7938 H   0  0  0  0  0  0  0  0  0  0  0  0
  146.5136  132.7834  152.1637 H   0  0  0  0  0  0  0  0  0  0  0  0
  145.1072  134.5059  149.3231 H   0  0  0  0  0  0  0  0  0  0  0  0
  143.4804  133.9702  149.6840 H   0  0  0  0  0  0  0  0  0  0  0  0
  143.3488  135.3920  151.6703 H   0  0  0  0  0  0  0  0  0  0  0  0
  143.7735  136.3875  150.3020 H   0  0  0  0  0  0  0  0  0  0  0  0
  150.6867  142.1063  155.3928 H   0  0  0  0  0  0  0  0  0  0  0  0
  149.0175  142.1882  155.8879 H   0  0  0  0  0  0  0  0  0  0  0  0
  149.9581  142.4098  157.9080 H   0  0  0  0  0  0  0  0  0  0  0  0
  149.7189  140.6804  157.9481 H   0  0  0  0  0  0  0  0  0  0  0  0
  151.5043  141.1443  159.7924 H   0  0  0  0  0  0  0  0  0  0  0  0
  153.8591  141.6989  160.2911 H   0  0  0  0  0  0  0  0  0  0  0  0
  154.1895  142.0348  158.5151 H   0  0  0  0  0  0  0  0  0  0  0  0
  152.0951  143.4522  160.3238 H   0  0  0  0  0  0  0  0  0  0  0  0
  152.8164  143.8477  157.3481 H   0  0  0  0  0  0  0  0  0  0  0  0
  153.0947  145.0209  158.6405 H   0  0  0  0  0  0  0  0  0  0  0  0
  151.4407  144.6167  158.1562 H   0  0  0  0  0  0  0  0  0  0  0  0
  151.6310  139.2747  158.0219 H   0  0  0  0  0  0  0  0  0  0  0  0
  153.2087  139.9185  157.6471 H   0  0  0  0  0  0  0  0  0  0  0  0
  1  2  1  0  0  0  0
  1 30  1  0  0  0  0
  1 31  1  0  0  0  0
  1 32  1  0  0  0  0
  2 29  1  0  0  0  0
  2  3  1  0  0  0  0
  2 33  1  0  0  0  0
  3  4  1  0  0  0  0
  3 34  1  0  0  0  0
  3 35  1  0  0  0  0
  4  5  1  0  0  0  0
  4 22  1  0  0  0  0
  5 10  1  0  0  0  0
  5  6  2  0  0  0  0
  6  7  1  0  0  0  0
  7  8  2  0  0  0  0
  7 36  1  0  0  0  0
  8  9  1  0  0  0  0
  9 13  1  0  0  0  0
  9 10  2  0  0  0  0
 10 11  1  0  0  0  0
 11 12  2  0  0  0  0
 12 13  1  0  0  0  0
 12 37  1  0  0  0  0
 13 14  1  0  0  0  0
 14 15  1  0  0  0  0
 14 38  1  0  0  0  0
 14 39  1  0  0  0  0
 15 21  1  0  0  0  0
 15 16  1  0  0  0  0
 15 17  1  0  0  0  0
 16 40  1  0  0  0  0
 17 18  1  0  0  0  0
 17 41  1  0  0  0  0
 17 42  1  0  0  0  0
 18 19  1  0  0  0  0
 18 43  1  0  0  0  0
 18 44  1  0  0  0  0
 19 20  1  0  0  0  0
 20 21  1  0  0  0  0
 20 45  1  0  0  0  0
 20 46  1  0  0  0  0
 21 47  1  0  0  0  0
 21 48  1  0  0  0  0
 22 23  1  0  0  0  0
 22 49  1  0  0  0  0
 22 50  1  0  0  0  0
 23 24  1  0  0  0  0
 23 51  1  0  0  0  0
 23 52  1  0  0  0  0
 24 25  1  0  0  0  0
 24 29  1  0  0  0  0
 25 27  1  0  0  0  0
 25 26  1  0  0  0  0
 25 53  1  0  0  0  0
 26 27  1  0  0  0  0
 26 54  1  0  0  0  0
 26 55  1  0  0  0  0
 27 28  1  0  0  0  0
 27 56  1  0  0  0  0
 28 57  1  0  0  0  0
 28 58  1  0  0  0  0
 28 59  1  0  0  0  0
 29 60  1  0  0  0  0
 29 61  1  0  0  0  0
M  END
> <s_m_source_file>
AV-unprocessed.smi

> <i_m_source_file_index>
193

> <i_lp_mmshare_version>
43012

> <i_f3d_flags>
0

> <s_epik_input>
W0NIM11bQ0BASF0xW0NIMl1bQ0BIXTFOKFtDSDJdMilbQ0gyXVtDSDJdTihbQ0gyXVtDQEhdMltDSDNdKWMobltjSF1uMyljKGMzNCluW2NIXW40W0NIMl1DNShbT0hdKVtDSDJdW0NIMl1PW0NIMl1bQ0gyXTU=

> <s_epik_cmdline>
J2VwaWtfcHl0aG9uJywgJy1waCcsICc3LjAnLCAnLXRuJywgJzgnLCAnLW1hJywgJzIwMCcsICctbWV0YWxfYmluZGluZycsICctaW1hZScsICc8aW5maWxlLm1hZT4nLCAnLW9tYWUnLCAnPG91dGZpbGUubWFlPic=

> <r_lp_tautomer_probability>
1

> <r_epik_Ionization_Penalty>
1.45227

> <r_epik_Ionization_Penalty_Charging>
0

> <r_epik_Ionization_Penalty_Neutral>
1.45227

> <r_epik_State_Penalty>
2.02377

> <r_epik_Charging_Adjusted_Penalty>
2.02377

> <i_epik_Tot_Q>
0

> <i_epik_Tot_abs_Q>
0

> <r_epik_Metal_State_Penalty>
2.01937

> <b_epik_Metal_Only>
0

> <s_lp_Force_Field>
OPLS_2005

> <r_lp_Energy>
52.058

> <b_lp_Chiralities_Consistent>
1

> <s_lp_Variant>
AV-unprocessed.smi:193-20

> <Gold.Version>
5.8.1

> <Gold.Id.Protein>
6NUR|6NUR_protein|mol2

> <Gold.PLP.Fitness>
45.5630

> <Gold.PLP.PLP>
-43.6956

> <Gold.PLP.part.hbond>
-1.0462

> <Gold.PLP.part.metal>
0.0000

> <Gold.PLP.part.buried>
-4.8509

> <Gold.PLP.part.nonpolar>
-40.6378

> <Gold.PLP.part.repulsive>
2.9788

> <Gold.PLP.ligand.clash>
0.0000

> <Gold.PLP.ligand.torsion>
1.1648

> <Gold.PLP.Chemscore.Hbond>
1.0000

> <Gold.PLP.Chemscore.CHOScore>
0.0000

> <Gold.PLP.Chemscore.Metal>
0.0000

> <Gold.Chemscore.Hbonds>
donor molecule, donor type, donor heavy atom, donor atom, acceptor molecule, acceptor atom, score
      L1  H    16    40       P1  7948  1.00
      P1  H  8011  8017       L1     6  0.14

> <Gold.PLP.Chemscore.Internal.Correction>
1.1972

> <Gold.Rescore>
     Score         DG    S(hbond)    S(metal)    S(lipo)     H(rot)  DE(clash)    DE(int)     intcor
     15.10     -16.70       0.92        0.00     111.31       1.91       0.47       1.13       ----

> <Gold.Chemscore.Fitness>
15.0967

> <Gold.Chemscore.DG>
-16.6997

> <Gold.Chemscore.ZeroCoef>
-5.4800

> <Gold.Chemscore.Hbond>
0.9214

> <Gold.Chemscore.Metal>
0.0000

> <Gold.Chemscore.Lipo>
111.3141

> <Gold.Chemscore.Internal_Hbond>
0.0000

> <Gold.Chemscore.DEClash>
0.4687

> <Gold.Chemscore.DEInternal>
1.1343

> <Gold.Chemscore.Rot>
1.9068

> <Gold.Chemscore.Internal.Correction>
   9.000000E+99

> <Gold.Chemscore.Hbonds>
donor molecule, donor type, donor heavy atom, donor atom, acceptor molecule, acceptor atom, score
      L1  H    16    40       P1  7948  1.00
      P1  H  8011  8017       L1     6  0.03

> <Gold.Chemscore.Hbond.Weighted>
-3.0773

> <Gold.Chemscore.Metal.Weighted>
-0.0000

> <Gold.Chemscore.Lipo.Weighted>
-13.0238

> <Gold.Chemscore.Internal_Hbond.Weighted>
0.0000

> <Gold.Chemscore.DEClash.Weighted>
0.4687

> <Gold.Chemscore.DEInternal.Weighted>
1.1343

> <Gold.Chemscore.Rot.Weighted>
4.8814

> <Gold.Chemscore.Internal.Correction.Weighted>
   9.000000E+99

> <Gold.Protein.RotatedTorsions>
[ 6907 6896 6895 6894 ] final  107.96 input  -60.11 | X-H torsion
[ 7974 7965 7964 7962 ] final -103.51 input  175.53 | X-H torsion
[ 8008 7997 7996 7995 ] final -122.03 input   59.86 | X-H torsion
[ 10167 10162 10161 10158 ] final -159.52 input  -65.29 | X-H torsion
[ 10718 10713 10712 10709 ] final  117.03 input   66.30 | X-H torsion
[ 10763 10752 10751 10750 ] final  -54.14 input  -60.55 | X-H torsion
[ 11005 11000 10999 10996 ] final  130.69 input  -57.11 | X-H torsion

> <Gold.Protein.ActiveResidues>
 VAL166  LYS551  ARG553  GLY616  TRP617  ASP618  TYR619  PRO620  LYS621  CYS622 
 ASP623  PHE694  ASN695  SER759  ASP760  ASP761  ALA762  ILE779  LEU786  VAL792 
 PHE793  MET794  SER795  GLU796  ALA797  LYS798  CYS799  TRP800  GLU811  SER814 

> <Gold.Protein.RotatedAtoms>
  152.5132  133.9158  159.7509 H   0  0  0  0  0  0  0  0  0  0  0  0  # atno 6907 bound_to 6896
  150.9541  133.6508  159.2773 H   0  0  0  0  0  0  0  0  0  0  0  0  # atno 6908 bound_to 6896
  151.3776  135.0939  159.9538 H   0  0  0  0  0  0  0  0  0  0  0  0  # atno 6909 bound_to 6896
  145.2550  140.9250  143.3074 H   0  0  0  0  0  0  0  0  0  0  0  0  # atno 7974 bound_to 7965
  155.1575  140.0405  157.2835 H   0  0  0  0  0  0  0  0  0  0  0  0  # atno 8008 bound_to 7997
  154.6360  140.2535  155.7351 H   0  0  0  0  0  0  0  0  0  0  0  0  # atno 8009 bound_to 7997
  156.2508  140.2865  156.0732 H   0  0  0  0  0  0  0  0  0  0  0  0  # atno 8010 bound_to 7997
  139.6609  143.9915  152.2224 H   0  0  0  0  0  0  0  0  0  0  0  0  # atno 10167 bound_to 10162
  157.6123  131.1032  150.7557 H   0  0  0  0  0  0  0  0  0  0  0  0  # atno 10718 bound_to 10713
  154.1700  135.6460  153.5007 H   0  0  0  0  0  0  0  0  0  0  0  0  # atno 10763 bound_to 10752
  153.0087  135.5381  154.6622 H   0  0  0  0  0  0  0  0  0  0  0  0  # atno 10764 bound_to 10752
  154.5959  135.2939  155.0559 H   0  0  0  0  0  0  0  0  0  0  0  0  # atno 10765 bound_to 10752
  139.9687  134.9583  156.9330 H   0  0  0  0  0  0  0  0  0  0  0  0  # atno 11005 bound_to 11000
  144.9469  139.4126  143.6421 LP  0  0  0  0  0  0  0  0  0  0  0  0  # atno 17320 bound_to 7965
  146.3292  139.8457  142.8882 LP  0  0  0  0  0  0  0  0  0  0  0  0  # atno 17321 bound_to 7965
  139.9654  144.6530  150.8040 LP  0  0  0  0  0  0  0  0  0  0  0  0  # atno 17342 bound_to 10162
  140.7579  143.3096  151.2876 LP  0  0  0  0  0  0  0  0  0  0  0  0  # atno 17343 bound_to 10162
  156.7932  130.4897  149.5381 LP  0  0  0  0  0  0  0  0  0  0  0  0  # atno 17370 bound_to 10713
  156.1230  130.6124  151.0222 LP  0  0  0  0  0  0  0  0  0  0  0  0  # atno 17371 bound_to 10713
  140.5341  134.0784  155.7323 LP  0  0  0  0  0  0  0  0  0  0  0  0  # atno 17394 bound_to 11000
  141.1366  133.9210  157.2419 LP  0  0  0  0  0  0  0  0  0  0  0  0  # atno 17395 bound_to 11000

$$$$
