AV-unprocessed.smi:2976|AV-procd|sdf|11364|dock6
  -GOLD-   2272016283D 1   1.00000     0.00000
 Structure written by MMmdl.
 40 41  0  0  0  0  0  0  0  0  1 V2000
  151.9040  145.3703  160.3960 C   0  0  0  0  0  0  0  0  0  0  0  0
  152.4517  144.0156  159.9087 C   0  0  1  0  0  0  0  0  0  0  0  0
  152.4797  143.0199  161.0856 C   0  0  0  0  0  0  0  0  0  0  0  0
  153.0430  141.6566  160.6696 C   0  0  0  0  0  0  0  0  0  0  0  0
  152.2347  141.0714  159.5078 C   0  0  0  0  0  0  0  0  0  0  0  0
  152.2028  142.0327  158.3064 C   0  0  1  0  0  0  0  0  0  0  0  0
  151.3802  141.4327  157.2557 N   0  0  0  0  0  0  0  0  0  0  0  0
  151.7061  140.3653  156.5097 C   0  0  0  0  0  0  0  0  0  0  0  0
  152.7693  139.7546  156.6284 O   0  0  0  0  0  0  0  0  0  0  0  0
  150.6616  139.9441  155.4646 C   0  0  0  0  0  0  0  0  0  0  0  0
  149.3427  140.5649  155.6604 N   0  0  0  0  0  0  0  0  0  0  0  0
  148.8415  140.4264  156.9430 N   0  0  0  0  0  0  0  0  0  0  0  0
  147.7003  140.9467  157.2380 C   0  0  0  0  0  0  0  0  0  0  0  0
  146.9121  141.6754  156.2689 C   0  0  0  0  0  0  0  0  0  0  0  0
  145.3883  142.3525  156.7238 Cl  0  0  0  0  0  0  0  0  0  0  0  0
  147.4092  141.7997  155.0124 C   0  0  0  0  0  0  0  0  0  0  0  0
  146.5226  142.6553  153.7974 Cl  0  0  0  0  0  0  0  0  0  0  0  0
  148.7069  141.2193  154.6398 C   0  0  0  0  0  0  0  0  0  0  0  0
  149.1919  141.3098  153.5113 O   0  0  0  0  0  0  0  0  0  0  0  0
  151.6632  143.4357  158.6994 C   0  0  2  0  0  0  0  0  0  0  0  0
  151.6765  144.3951  157.4887 C   0  0  0  0  0  0  0  0  0  0  0  0
  150.8434  145.3040  160.6405 H   0  0  0  0  0  0  0  0  0  0  0  0
  152.0299  146.1539  159.6497 H   0  0  0  0  0  0  0  0  0  0  0  0
  152.4289  145.7047  161.2913 H   0  0  0  0  0  0  0  0  0  0  0  0
  153.4833  144.1765  159.5916 H   0  0  0  0  0  0  0  0  0  0  0  0
  153.0835  143.4227  161.8999 H   0  0  0  0  0  0  0  0  0  0  0  0
  151.4724  142.8910  161.4844 H   0  0  0  0  0  0  0  0  0  0  0  0
  154.0884  141.7619  160.3767 H   0  0  0  0  0  0  0  0  0  0  0  0
  153.0246  140.9718  161.5178 H   0  0  0  0  0  0  0  0  0  0  0  0
  152.6646  140.1141  159.2099 H   0  0  0  0  0  0  0  0  0  0  0  0
  151.2177  140.8624  159.8435 H   0  0  0  0  0  0  0  0  0  0  0  0
  153.2291  142.1564  157.9551 H   0  0  0  0  0  0  0  0  0  0  0  0
  150.4870  141.8700  157.0811 H   0  0  0  0  0  0  0  0  0  0  0  0
  151.0443  140.1743  154.4686 H   0  0  0  0  0  0  0  0  0  0  0  0
  150.5688  138.8569  155.4955 H   0  0  0  0  0  0  0  0  0  0  0  0
  147.2675  140.8650  158.2352 H   0  0  0  0  0  0  0  0  0  0  0  0
  150.6236  143.3156  159.0094 H   0  0  0  0  0  0  0  0  0  0  0  0
  152.6950  144.5923  157.1531 H   0  0  0  0  0  0  0  0  0  0  0  0
  151.2094  145.3508  157.7221 H   0  0  0  0  0  0  0  0  0  0  0  0
  151.1242  143.9888  156.6416 H   0  0  0  0  0  0  0  0  0  0  0  0
  1  2  1  0  0  0  0
  1 22  1  0  0  0  0
  1 23  1  0  0  0  0
  1 24  1  0  0  0  0
  2 20  1  0  0  0  0
  2  3  1  0  0  0  0
  2 25  1  0  0  0  0
  3  4  1  0  0  0  0
  3 26  1  0  0  0  0
  3 27  1  0  0  0  0
  4  5  1  0  0  0  0
  4 28  1  0  0  0  0
  4 29  1  0  0  0  0
  5  6  1  0  0  0  0
  5 30  1  0  0  0  0
  5 31  1  0  0  0  0
  6  7  1  0  0  0  0
  6 20  1  0  0  0  0
  6 32  1  0  0  0  0
  7  8  1  0  0  0  0
  7 33  1  0  0  0  0
  8  9  2  0  0  0  0
  8 10  1  0  0  0  0
 10 11  1  0  0  0  0
 10 34  1  0  0  0  0
 10 35  1  0  0  0  0
 11 18  1  0  0  0  0
 11 12  1  0  0  0  0
 12 13  2  0  0  0  0
 13 14  1  0  0  0  0
 13 36  1  0  0  0  0
 14 15  1  0  0  0  0
 14 16  2  0  0  0  0
 16 17  1  0  0  0  0
 16 18  1  0  0  0  0
 18 19  2  0  0  0  0
 20 21  1  0  0  0  0
 20 37  1  0  0  0  0
 21 38  1  0  0  0  0
 21 39  1  0  0  0  0
 21 40  1  0  0  0  0
M  END
> <s_m_source_file>
AV-unprocessed.smi

> <i_m_source_file_index>
2976

> <i_lp_mmshare_version>
43012

> <i_f3d_flags>
0

> <s_epik_input>
W0NIM11bQ0BASF0xW0NIMl1bQ0gyXVtDSDJdW0NASF0oW0NASF0xW0NIM10pW05IXUMoPU8pW0NIMl1uMm5bY0hdYyhDbCljKENsKWMyPU8=

> <s_epik_cmdline>
J2VwaWtfcHl0aG9uJywgJy1waCcsICc3LjAnLCAnLXRuJywgJzgnLCAnLW1hJywgJzIwMCcsICctbWV0YWxfYmluZGluZycsICctaW1hZScsICc8aW5maWxlLm1hZT4nLCAnLW9tYWUnLCAnPG91dGZpbGUubWFlPic=

> <r_lp_tautomer_probability>
1

> <r_epik_Ionization_Penalty>
1.90777e-08

> <r_epik_Ionization_Penalty_Charging>
3.07942e-11

> <r_epik_Ionization_Penalty_Neutral>
1.90469e-08

> <r_epik_State_Penalty>
-0

> <r_epik_Charging_Adjusted_Penalty>
3.07942e-11

> <i_epik_Tot_Q>
0

> <i_epik_Tot_abs_Q>
0

> <r_epik_Metal_State_Penalty>
-0

> <b_epik_Metal_Only>
0

> <s_lp_Force_Field>
OPLS_2005

> <r_lp_Energy>
26.9637

> <b_lp_Chiralities_Consistent>
1

> <s_lp_Variant>
AV-unprocessed.smi:2976-6

> <Gold.Version>
5.8.1

> <Gold.Id.Protein>
6NUR|6NUR_protein|mol2

> <Gold.PLP.Fitness>
50.1252

> <Gold.PLP.PLP>
-45.0174

> <Gold.PLP.part.hbond>
-3.0000

> <Gold.PLP.part.metal>
0.0000

> <Gold.PLP.part.buried>
-6.9759

> <Gold.PLP.part.nonpolar>
-37.6178

> <Gold.PLP.part.repulsive>
2.9885

> <Gold.PLP.ligand.clash>
0.0000

> <Gold.PLP.ligand.torsion>
0.3656

> <Gold.PLP.Chemscore.Hbond>
1.9440

> <Gold.PLP.Chemscore.CHOScore>
0.0000

> <Gold.PLP.Chemscore.Metal>
0.0000

> <Gold.Chemscore.Hbonds>
donor molecule, donor type, donor heavy atom, donor atom, acceptor molecule, acceptor atom, score
      P1  H  7997  8008       L1     9  1.00
      P1  H  8011  8017       L1    19  0.94

> <Gold.PLP.Chemscore.Internal.Correction>
0.0070

> <Gold.Rescore>
     Score         DG    S(hbond)    S(metal)    S(lipo)     H(rot)  DE(clash)    DE(int)     intcor
     19.67     -21.29       2.12        0.00     107.07       1.49       1.20       0.42       ----

> <Gold.Chemscore.Fitness>
19.6697

> <Gold.Chemscore.DG>
-21.2876

> <Gold.Chemscore.ZeroCoef>
-5.4800

> <Gold.Chemscore.Hbond>
2.1215

> <Gold.Chemscore.Metal>
0.0000

> <Gold.Chemscore.Lipo>
107.0735

> <Gold.Chemscore.Internal_Hbond>
0.0000

> <Gold.Chemscore.DEClash>
1.1975

> <Gold.Chemscore.DEInternal>
0.4204

> <Gold.Chemscore.Rot>
1.4866

> <Gold.Chemscore.Internal.Correction>
   9.000000E+99

> <Gold.Chemscore.Hbonds>
donor molecule, donor type, donor heavy atom, donor atom, acceptor molecule, acceptor atom, score
      P1  H  7989  7998       L1    19  0.01
      P1  H  7997  8008       L1     9  0.99
      P1  H  8011  8017       L1    19  0.91

> <Gold.Chemscore.Hbond.Weighted>
-7.0857

> <Gold.Chemscore.Metal.Weighted>
-0.0000

> <Gold.Chemscore.Lipo.Weighted>
-12.5276

> <Gold.Chemscore.Internal_Hbond.Weighted>
0.0000

> <Gold.Chemscore.DEClash.Weighted>
1.1975

> <Gold.Chemscore.DEInternal.Weighted>
0.4204

> <Gold.Chemscore.Rot.Weighted>
3.8057

> <Gold.Chemscore.Internal.Correction.Weighted>
   9.000000E+99

> <Gold.Protein.RotatedTorsions>
[ 6907 6896 6895 6894 ] final   62.15 input  -60.11 | X-H torsion
[ 7974 7965 7964 7962 ] final  128.72 input  175.53 | X-H torsion
[ 8008 7997 7996 7995 ] final  -61.78 input   59.86 | X-H torsion
[ 10167 10162 10161 10158 ] final  171.78 input  -65.29 | X-H torsion
[ 10718 10713 10712 10709 ] final   78.21 input   66.30 | X-H torsion
[ 10763 10752 10751 10750 ] final   11.01 input  -60.55 | X-H torsion
[ 11005 11000 10999 10996 ] final  -79.38 input  -57.11 | X-H torsion

> <Gold.Protein.ActiveResidues>
 VAL166  LYS551  ARG553  GLY616  TRP617  ASP618  TYR619  PRO620  LYS621  CYS622 
 ASP623  PHE694  ASN695  SER759  ASP760  ASP761  ALA762  ILE779  LEU786  VAL792 
 PHE793  MET794  SER795  GLU796  ALA797  LYS798  CYS799  TRP800  GLU811  SER814 

> <Gold.Protein.RotatedAtoms>
  152.4148  134.6060  160.0012 H   0  0  0  0  0  0  0  0  0  0  0  0  # atno 6907 bound_to 6896
  151.6227  133.3332  159.3099 H   0  0  0  0  0  0  0  0  0  0  0  0  # atno 6908 bound_to 6896
  150.8037  134.7188  159.6691 H   0  0  0  0  0  0  0  0  0  0  0  0  # atno 6909 bound_to 6896
  145.0365  139.4000  143.5123 H   0  0  0  0  0  0  0  0  0  0  0  0  # atno 7974 bound_to 7965
  154.4465  140.1010  156.6484 H   0  0  0  0  0  0  0  0  0  0  0  0  # atno 8008 bound_to 7997
  155.5424  140.3484  155.4431 H   0  0  0  0  0  0  0  0  0  0  0  0  # atno 8009 bound_to 7997
  156.0587  140.1321  156.9955 H   0  0  0  0  0  0  0  0  0  0  0  0  # atno 8010 bound_to 7997
  139.5057  144.3447  151.9983 H   0  0  0  0  0  0  0  0  0  0  0  0  # atno 10167 bound_to 10162
  157.6737  130.9858  150.1754 H   0  0  0  0  0  0  0  0  0  0  0  0  # atno 10718 bound_to 10713
  153.1971  135.6851  153.8278 H   0  0  0  0  0  0  0  0  0  0  0  0  # atno 10763 bound_to 10752
  153.7557  135.3217  155.3330 H   0  0  0  0  0  0  0  0  0  0  0  0  # atno 10764 bound_to 10752
  154.8151  135.4691  154.0720 H   0  0  0  0  0  0  0  0  0  0  0  0  # atno 10765 bound_to 10752
  141.1667  133.7103  156.8113 H   0  0  0  0  0  0  0  0  0  0  0  0  # atno 11005 bound_to 11000
  146.3505  139.9943  142.8682 LP  0  0  0  0  0  0  0  0  0  0  0  0  # atno 17320 bound_to 7965
  145.1703  140.9717  143.4326 LP  0  0  0  0  0  0  0  0  0  0  0  0  # atno 17321 bound_to 7965
  140.2885  144.3781  150.6096 LP  0  0  0  0  0  0  0  0  0  0  0  0  # atno 17342 bound_to 10162
  140.5965  143.2167  151.7155 LP  0  0  0  0  0  0  0  0  0  0  0  0  # atno 17343 bound_to 10162
  156.2498  130.3699  149.8244 LP  0  0  0  0  0  0  0  0  0  0  0  0  # atno 17370 bound_to 10713
  156.6020  130.8551  151.3434 LP  0  0  0  0  0  0  0  0  0  0  0  0  # atno 17371 bound_to 10713
  140.2185  134.8774  157.3352 LP  0  0  0  0  0  0  0  0  0  0  0  0  # atno 17394 bound_to 11000
  140.2012  134.4252  155.7662 LP  0  0  0  0  0  0  0  0  0  0  0  0  # atno 17395 bound_to 11000

$$$$
