AV-unprocessed.smi:189|AV-procd|sdf|1489|dock6
  -GOLD-   2262019313D 1   1.00000     0.00000
 Structure written by MMmdl.
 53 57  0  0  0  0  0  0  0  0  1 V2000
  151.2086  137.5105  154.4712 C   0  0  0  0  0  0  0  0  0  0  0  0
  151.1114  138.9714  154.9529 C   0  0  2  0  0  0  0  0  0  0  0  0
  152.0582  139.3458  156.0995 C   0  0  0  0  0  0  0  0  0  0  0  0
  151.4564  140.6546  156.6318 C   0  0  2  0  0  0  0  0  0  0  0  0
  151.4471  140.7910  158.1644 C   0  0  0  0  0  0  0  0  0  0  0  0
  150.7231  142.0746  158.6267 C   0  0  0  0  0  0  0  0  0  0  0  0
  149.4945  142.4478  157.7649 C   0  0  0  0  0  0  0  0  0  0  0  0
  148.9448  141.2478  156.9800 C   0  0  0  0  0  0  0  0  0  0  0  0
  150.0366  140.7060  156.0223 C   0  0  2  0  0  0  0  0  0  0  0  0
  149.7826  139.4131  155.3792 N   0  0  0  0  0  0  0  0  0  0  0  0
  149.0133  138.5164  156.0470 C   0  0  0  0  0  0  0  0  0  0  0  0
  147.8174  138.1043  155.5472 N   0  0  0  0  0  0  0  0  0  0  0  0
  147.0766  137.2232  156.2256 C   0  0  0  0  0  0  0  0  0  0  0  0
  147.3350  136.6446  157.4005 N   0  0  0  0  0  0  0  0  0  0  0  0
  148.5331  137.0593  157.9040 C   0  0  0  0  0  0  0  0  0  0  0  0
  149.4293  137.9788  157.2921 C   0  0  0  0  0  0  0  0  0  0  0  0
  150.5545  138.1526  158.0870 N   0  0  0  0  0  0  0  0  0  0  0  0
  150.3331  137.3826  159.1173 C   0  0  0  0  0  0  0  0  0  0  0  0
  149.1362  136.7013  159.0972 N   0  0  0  0  0  0  0  0  0  0  0  0
  148.6316  135.7983  160.1197 C   0  0  0  0  0  0  0  0  0  0  0  0
  147.4120  136.3628  160.8860 C   0  0  2  0  0  0  0  0  0  0  0  0
  147.8519  137.3834  161.7653 O   0  0  0  0  0  0  0  0  0  0  0  0
  146.6481  135.3221  161.7008 C   0  0  0  0  0  0  0  0  0  0  0  0
  145.2140  135.8283  161.6402 C   0  0  0  0  0  0  0  0  0  0  0  0
  145.1102  136.2934  160.3056 O   0  0  0  0  0  0  0  0  0  0  0  0
  146.3265  136.9499  159.9619 C   0  0  0  0  0  0  0  0  0  0  0  0
  152.1987  137.3059  154.0638 H   0  0  0  0  0  0  0  0  0  0  0  0
  150.4807  137.3085  153.6849 H   0  0  0  0  0  0  0  0  0  0  0  0
  151.0376  136.7974  155.2779 H   0  0  0  0  0  0  0  0  0  0  0  0
  151.3650  139.5988  154.0967 H   0  0  0  0  0  0  0  0  0  0  0  0
  152.0513  138.5742  156.8699 H   0  0  0  0  0  0  0  0  0  0  0  0
  153.0888  139.4657  155.7645 H   0  0  0  0  0  0  0  0  0  0  0  0
  152.0261  141.4898  156.2216 H   0  0  0  0  0  0  0  0  0  0  0  0
  150.9422  139.9265  158.5970 H   0  0  0  0  0  0  0  0  0  0  0  0
  152.4643  140.7728  158.5562 H   0  0  0  0  0  0  0  0  0  0  0  0
  150.4181  141.9464  159.6658 H   0  0  0  0  0  0  0  0  0  0  0  0
  151.4214  142.9123  158.6224 H   0  0  0  0  0  0  0  0  0  0  0  0
  148.7163  142.8802  158.3945 H   0  0  0  0  0  0  0  0  0  0  0  0
  149.7761  143.2273  157.0556 H   0  0  0  0  0  0  0  0  0  0  0  0
  148.6222  140.4987  157.7026 H   0  0  0  0  0  0  0  0  0  0  0  0
  148.0582  141.5323  156.4131 H   0  0  0  0  0  0  0  0  0  0  0  0
  150.0833  141.4161  155.1950 H   0  0  0  0  0  0  0  0  0  0  0  0
  146.1420  136.9441  155.7622 H   0  0  0  0  0  0  0  0  0  0  0  0
  151.0388  137.2974  159.9308 H   0  0  0  0  0  0  0  0  0  0  0  0
  148.3793  134.8467  159.6502 H   0  0  0  0  0  0  0  0  0  0  0  0
  149.4460  135.5900  160.8150 H   0  0  0  0  0  0  0  0  0  0  0  0
  147.7052  137.0982  162.6541 H   0  0  0  0  0  0  0  0  0  0  0  0
  146.6951  134.3491  161.2101 H   0  0  0  0  0  0  0  0  0  0  0  0
  147.0196  135.1988  162.7191 H   0  0  0  0  0  0  0  0  0  0  0  0
  144.4817  135.0499  161.8555 H   0  0  0  0  0  0  0  0  0  0  0  0
  145.0582  136.6559  162.3343 H   0  0  0  0  0  0  0  0  0  0  0  0
  146.2100  138.0264  160.0975 H   0  0  0  0  0  0  0  0  0  0  0  0
  146.5398  136.7766  158.9066 H   0  0  0  0  0  0  0  0  0  0  0  0
  1  2  1  0  0  0  0
  1 27  1  0  0  0  0
  1 28  1  0  0  0  0
  1 29  1  0  0  0  0
  2 10  1  0  0  0  0
  2  3  1  0  0  0  0
  2 30  1  0  0  0  0
  3  4  1  0  0  0  0
  3 31  1  0  0  0  0
  3 32  1  0  0  0  0
  4  9  1  0  0  0  0
  4  5  1  0  0  0  0
  4 33  1  0  0  0  0
  5  6  1  0  0  0  0
  5 34  1  0  0  0  0
  5 35  1  0  0  0  0
  6  7  1  0  0  0  0
  6 36  1  0  0  0  0
  6 37  1  0  0  0  0
  7  8  1  0  0  0  0
  7 38  1  0  0  0  0
  7 39  1  0  0  0  0
  8  9  1  0  0  0  0
  8 40  1  0  0  0  0
  8 41  1  0  0  0  0
  9 10  1  0  0  0  0
  9 42  1  0  0  0  0
 10 11  1  0  0  0  0
 11 16  1  0  0  0  0
 11 12  2  0  0  0  0
 12 13  1  0  0  0  0
 13 14  2  0  0  0  0
 13 43  1  0  0  0  0
 14 15  1  0  0  0  0
 15 19  1  0  0  0  0
 15 16  2  0  0  0  0
 16 17  1  0  0  0  0
 17 18  2  0  0  0  0
 18 19  1  0  0  0  0
 18 44  1  0  0  0  0
 19 20  1  0  0  0  0
 20 21  1  0  0  0  0
 20 45  1  0  0  0  0
 20 46  1  0  0  0  0
 21 26  1  0  0  0  0
 21 22  1  0  0  0  0
 21 23  1  0  0  0  0
 22 47  1  0  0  0  0
 23 24  1  0  0  0  0
 23 48  1  0  0  0  0
 23 49  1  0  0  0  0
 24 25  1  0  0  0  0
 24 50  1  0  0  0  0
 24 51  1  0  0  0  0
 25 26  1  0  0  0  0
 26 52  1  0  0  0  0
 26 53  1  0  0  0  0
M  END
> <s_m_source_file>
AV-unprocessed.smi

> <i_m_source_file_index>
189

> <i_lp_mmshare_version>
43012

> <i_f3d_flags>
0

> <s_epik_input>
W0NIMl0xW0NIMl1bQ0gyXVtDSDJdW0NASF0oW0NASF0xMilOKFtDQEhdKFtDSDNdKVtDSDJdMiljKG5bY0hdbjMpYyhjMzQpbltjSF1uNFtDSDJdW0NAQF01KFtPSF0pW0NIMl1bQ0gyXU9bQ0gyXTU=

> <s_epik_cmdline>
J2VwaWtfcHl0aG9uJywgJy1waCcsICc3LjAnLCAnLXRuJywgJzgnLCAnLW1hJywgJzIwMCcsICctbWV0YWxfYmluZGluZycsICctaW1hZScsICc8aW5maWxlLm1hZT4nLCAnLW9tYWUnLCAnPG91dGZpbGUubWFlPic=

> <r_lp_tautomer_probability>
1

> <r_epik_Ionization_Penalty>
0.00594261

> <r_epik_Ionization_Penalty_Charging>
0

> <r_epik_Ionization_Penalty_Neutral>
0.00594261

> <r_epik_State_Penalty>
0.00429776

> <r_epik_Charging_Adjusted_Penalty>
0.00429776

> <i_epik_Tot_Q>
0

> <i_epik_Tot_abs_Q>
0

> <r_epik_Metal_State_Penalty>
-0

> <b_epik_Metal_Only>
0

> <s_lp_Force_Field>
OPLS_2005

> <r_lp_Energy>
67.2452

> <b_lp_Chiralities_Consistent>
1

> <s_lp_Variant>
AV-unprocessed.smi:189-15

> <Gold.Version>
5.8.1

> <Gold.Id.Protein>
6NUR|6NUR_protein|mol2

> <Gold.PLP.Fitness>
35.6993

> <Gold.PLP.PLP>
-31.3175

> <Gold.PLP.part.hbond>
-1.8231

> <Gold.PLP.part.metal>
0.0000

> <Gold.PLP.part.buried>
-3.6849

> <Gold.PLP.part.nonpolar>
-26.3997

> <Gold.PLP.part.repulsive>
0.0819

> <Gold.PLP.ligand.clash>
0.0000

> <Gold.PLP.ligand.torsion>
0.2353

> <Gold.PLP.Chemscore.Hbond>
1.6084

> <Gold.PLP.Chemscore.CHOScore>
0.0000

> <Gold.PLP.Chemscore.Metal>
0.0000

> <Gold.Chemscore.Hbonds>
donor molecule, donor type, donor heavy atom, donor atom, acceptor molecule, acceptor atom, score
      P1  H  6931  6943       L1    22  0.84
      P1  H  6934  6947       L1    22  0.58

> <Gold.PLP.Chemscore.Internal.Correction>
0.0272

> <Gold.Rescore>
     Score         DG    S(hbond)    S(metal)    S(lipo)     H(rot)  DE(clash)    DE(int)     intcor
      7.83     -12.77       0.94        0.00      79.89       2.03       0.09       4.85       ----

> <Gold.Chemscore.Fitness>
7.8271

> <Gold.Chemscore.DG>
-12.7745

> <Gold.Chemscore.ZeroCoef>
-5.4800

> <Gold.Chemscore.Hbond>
0.9410

> <Gold.Chemscore.Metal>
0.0000

> <Gold.Chemscore.Lipo>
79.8938

> <Gold.Chemscore.Internal_Hbond>
0.0000

> <Gold.Chemscore.DEClash>
0.0933

> <Gold.Chemscore.DEInternal>
4.8541

> <Gold.Chemscore.Rot>
2.0297

> <Gold.Chemscore.Internal.Correction>
   9.000000E+99

> <Gold.Chemscore.Hbonds>
donor molecule, donor type, donor heavy atom, donor atom, acceptor molecule, acceptor atom, score
      P1  H  6931  6943       L1    22  0.27
      P1  H  6934  6947       L1    22  0.29

> <Gold.Chemscore.Hbond.Weighted>
-3.1429

> <Gold.Chemscore.Metal.Weighted>
-0.0000

> <Gold.Chemscore.Lipo.Weighted>
-9.3476

> <Gold.Chemscore.Internal_Hbond.Weighted>
0.0000

> <Gold.Chemscore.DEClash.Weighted>
0.0933

> <Gold.Chemscore.DEInternal.Weighted>
4.8541

> <Gold.Chemscore.Rot.Weighted>
5.1960

> <Gold.Chemscore.Internal.Correction.Weighted>
   9.000000E+99

> <Gold.Protein.RotatedTorsions>
[ 6907 6896 6895 6894 ] final  176.95 input  -60.11 | X-H torsion
[ 7974 7965 7964 7962 ] final  -78.54 input  175.53 | X-H torsion
[ 8008 7997 7996 7995 ] final   84.90 input   59.86 | X-H torsion
[ 10167 10162 10161 10158 ] final  101.53 input  -65.29 | X-H torsion
[ 10718 10713 10712 10709 ] final   58.44 input   66.30 | X-H torsion
[ 10763 10752 10751 10750 ] final  -65.94 input  -60.55 | X-H torsion
[ 11005 11000 10999 10996 ] final -111.56 input  -57.11 | X-H torsion

> <Gold.Protein.ActiveResidues>
 VAL166  LYS551  ARG553  GLY616  TRP617  ASP618  TYR619  PRO620  LYS621  CYS622 
 ASP623  PHE694  ASN695  SER759  ASP760  ASP761  ALA762  ILE779  LEU786  VAL792 
 PHE793  MET794  SER795  GLU796  ALA797  LYS798  CYS799  TRP800  GLU811  SER814 

> <Gold.Protein.RotatedAtoms>
  151.7119  133.3312  159.3292 H   0  0  0  0  0  0  0  0  0  0  0  0  # atno 6907 bound_to 6896
  150.7690  134.6525  159.6305 H   0  0  0  0  0  0  0  0  0  0  0  0  # atno 6908 bound_to 6896
  152.3706  134.6742  160.0229 H   0  0  0  0  0  0  0  0  0  0  0  0  # atno 6909 bound_to 6896
  145.5851  140.9440  143.1322 H   0  0  0  0  0  0  0  0  0  0  0  0  # atno 7974 bound_to 7965
  155.9430  140.3406  155.6343 H   0  0  0  0  0  0  0  0  0  0  0  0  # atno 8008 bound_to 7997
  155.7015  140.0761  157.2426 H   0  0  0  0  0  0  0  0  0  0  0  0  # atno 8009 bound_to 7997
  154.4106  140.1639  156.2184 H   0  0  0  0  0  0  0  0  0  0  0  0  # atno 8010 bound_to 7997
  139.7430  144.7006  151.0547 H   0  0  0  0  0  0  0  0  0  0  0  0  # atno 10167 bound_to 10162
  157.5596  130.8826  149.9090 H   0  0  0  0  0  0  0  0  0  0  0  0  # atno 10718 bound_to 10713
  154.3524  135.6133  153.5649 H   0  0  0  0  0  0  0  0  0  0  0  0  # atno 10763 bound_to 10752
  152.9797  135.5795  154.4728 H   0  0  0  0  0  0  0  0  0  0  0  0  # atno 10764 bound_to 10752
  154.4451  135.2851  155.1797 H   0  0  0  0  0  0  0  0  0  0  0  0  # atno 10765 bound_to 10752
  141.0727  133.9353  157.2453 H   0  0  0  0  0  0  0  0  0  0  0  0  # atno 11005 bound_to 11000
  144.7376  139.7541  143.7323 LP  0  0  0  0  0  0  0  0  0  0  0  0  # atno 17320 bound_to 7965
  146.1687  139.4829  142.9941 LP  0  0  0  0  0  0  0  0  0  0  0  0  # atno 17321 bound_to 7965
  140.7788  143.4902  150.9904 LP  0  0  0  0  0  0  0  0  0  0  0  0  # atno 17342 bound_to 10162
  139.8590  143.7339  152.3174 LP  0  0  0  0  0  0  0  0  0  0  0  0  # atno 17343 bound_to 10162
  156.0650  130.3693  150.0897 LP  0  0  0  0  0  0  0  0  0  0  0  0  # atno 17370 bound_to 10713
  156.9063  130.9637  151.3569 LP  0  0  0  0  0  0  0  0  0  0  0  0  # atno 17371 bound_to 10713
  139.9539  135.0169  156.9074 LP  0  0  0  0  0  0  0  0  0  0  0  0  # atno 17394 bound_to 11000
  140.5640  134.0507  155.7408 LP  0  0  0  0  0  0  0  0  0  0  0  0  # atno 17395 bound_to 11000

$$$$
