AV-unprocessed.smi:3025|AV-procd|sdf|11507|dock2
  -GOLD-   2272016443D 1   1.00000     0.00000
 Structure written by MMmdl.
 42 43  0  0  0  0  0  0  0  0  2 V2000
  153.5847  142.0845  163.3455 C   0  0  0  0  0  0  0  0  0  0  0  0
  152.8295  142.3711  162.0429 C   0  0  0  0  0  0  0  0  0  0  0  0
  153.5990  141.8930  160.7998 C   0  0  0  0  0  0  0  0  0  0  0  0
  152.9029  142.2176  159.4619 C   0  0  2  0  0  0  0  0  0  0  0  0
  151.9998  143.4660  159.5509 C   0  0  0  0  0  0  0  0  0  0  0  0
  151.2930  143.7597  158.2175 C   0  0  0  0  0  0  0  0  0  0  0  0
  150.4742  142.5478  157.7278 C   0  0  1  0  0  0  0  0  0  0  0  0
  149.8438  142.8101  156.4147 N   0  3  0  0  0  0  0  0  0  0  0  0
  149.1240  141.6643  155.8207 C   0  0  0  0  0  0  0  0  0  0  0  0
  148.0015  142.1414  154.8899 C   0  0  0  0  0  0  0  0  0  0  0  0
  147.5551  141.0655  153.9565 C   0  0  0  0  0  0  0  0  0  0  0  0
  148.3819  140.0855  153.5889 N   0  0  0  0  0  0  0  0  0  0  0  0
  147.5889  139.3282  152.8004 N   0  0  0  0  0  0  0  0  0  0  0  0
  146.3750  139.8756  152.7610 C   0  0  0  0  0  0  0  0  0  0  0  0
  146.2738  140.9833  153.4840 N   0  0  0  0  0  0  0  0  0  0  0  0
  151.3789  141.3067  157.6322 C   0  0  0  0  0  0  0  0  0  0  0  0
  152.0771  141.0123  158.9692 C   0  0  0  0  0  0  0  0  0  0  0  0
  153.0195  142.4382  164.2077 H   0  0  0  0  0  0  0  0  0  0  0  0
  154.5547  142.5825  163.3573 H   0  0  0  0  0  0  0  0  0  0  0  0
  153.7544  141.0154  163.4751 H   0  0  0  0  0  0  0  0  0  0  0  0
  151.8542  141.8875  162.0926 H   0  0  0  0  0  0  0  0  0  0  0  0
  152.6410  143.4426  161.9674 H   0  0  0  0  0  0  0  0  0  0  0  0
  154.5817  142.3665  160.8070 H   0  0  0  0  0  0  0  0  0  0  0  0
  153.7825  140.8201  160.8699 H   0  0  0  0  0  0  0  0  0  0  0  0
  153.6791  142.4102  158.7193 H   0  0  0  0  0  0  0  0  0  0  0  0
  151.2536  143.3261  160.3342 H   0  0  0  0  0  0  0  0  0  0  0  0
  152.5846  144.3402  159.8354 H   0  0  0  0  0  0  0  0  0  0  0  0
  150.6521  144.6318  158.3466 H   0  0  0  0  0  0  0  0  0  0  0  0
  152.0363  144.0314  157.4667 H   0  0  0  0  0  0  0  0  0  0  0  0
  149.6837  142.3342  158.4493 H   0  0  0  0  0  0  0  0  0  0  0  0
  149.2098  143.5910  156.5080 H   0  0  0  0  0  0  0  0  0  0  0  0
  149.8293  141.0463  155.2633 H   0  0  0  0  0  0  0  0  0  0  0  0
  148.7018  141.0418  156.6095 H   0  0  0  0  0  0  0  0  0  0  0  0
  147.1451  142.4764  155.4770 H   0  0  0  0  0  0  0  0  0  0  0  0
  148.3344  143.0026  154.3085 H   0  0  0  0  0  0  0  0  0  0  0  0
  145.5527  139.4554  152.2002 H   0  0  0  0  0  0  0  0  0  0  0  0
  150.7912  140.4387  157.3306 H   0  0  0  0  0  0  0  0  0  0  0  0
  152.1319  141.4540  156.8566 H   0  0  0  0  0  0  0  0  0  0  0  0
  152.7215  140.1400  158.8551 H   0  0  0  0  0  0  0  0  0  0  0  0
  151.3301  140.7462  159.7187 H   0  0  0  0  0  0  0  0  0  0  0  0
  150.5773  143.0691  155.7705 H   0  0  0  0  0  0  0  0  0  0  0  0
  147.9046  138.4866  152.3393 H   0  0  0  0  0  0  0  0  0  0  0  0
  1  2  1  0  0  0  0
  1 18  1  0  0  0  0
  1 19  1  0  0  0  0
  1 20  1  0  0  0  0
  2  3  1  0  0  0  0
  2 21  1  0  0  0  0
  2 22  1  0  0  0  0
  3  4  1  0  0  0  0
  3 23  1  0  0  0  0
  3 24  1  0  0  0  0
  4 17  1  0  0  0  0
  4  5  1  0  0  0  0
  4 25  1  0  0  0  0
  5  6  1  0  0  0  0
  5 26  1  0  0  0  0
  5 27  1  0  0  0  0
  6  7  1  0  0  0  0
  6 28  1  0  0  0  0
  6 29  1  0  0  0  0
  7  8  1  0  0  0  0
  7 16  1  0  0  0  0
  7 30  1  0  0  0  0
  8  9  1  0  0  0  0
  8 31  1  0  0  0  0
  8 41  1  0  0  0  0
  9 10  1  0  0  0  0
  9 32  1  0  0  0  0
  9 33  1  0  0  0  0
 10 34  1  0  0  0  0
 10 35  1  0  0  0  0
 10 11  1  0  0  0  0
 11 15  1  0  0  0  0
 11 12  2  0  0  0  0
 12 13  1  0  0  0  0
 13 14  1  0  0  0  0
 13 42  1  0  0  0  0
 14 15  2  0  0  0  0
 14 36  1  0  0  0  0
 16 17  1  0  0  0  0
 16 37  1  0  0  0  0
 16 38  1  0  0  0  0
 17 39  1  0  0  0  0
 17 40  1  0  0  0  0
M  CHG  1   8   1
M  END
> <s_m_source_file>
AV-unprocessed.smi

> <i_m_source_file_index>
3025

> <i_lp_mmshare_version>
43012

> <i_f3d_flags>
0

> <s_epik_input>
W0NIM11bQ0gyXVtDSDJdW0NAQEhdMVtDSDJdW0NIMl1bQ0BIXShbQ0gyXVtDSDJdMSlbTkhdW0NIMl1bQ0gyXWMybm5bY0hdW25IXTI=

> <s_epik_cmdline>
J2VwaWtfcHl0aG9uJywgJy1waCcsICc3LjAnLCAnLXRuJywgJzgnLCAnLW1hJywgJzIwMCcsICctbWV0YWxfYmluZGluZycsICctaW1hZScsICc8aW5maWxlLm1hZT4nLCAnLW9tYWUnLCAnPG91dGZpbGUubWFlPic=

> <r_epik_Ionization_Penalty>
0.00995411

> <r_epik_Ionization_Penalty_Charging>
0.000442289

> <r_epik_Ionization_Penalty_Neutral>
0.00951182

> <r_epik_State_Penalty>
0.448541

> <r_epik_Charging_Adjusted_Penalty>
0.448983

> <i_epik_Tot_Q>
1

> <i_epik_Tot_abs_Q>
1

> <r_epik_Metal_State_Penalty>
0.682245

> <b_epik_Metal_Only>
0

> <s_lp_Force_Field>
OPLS_2005

> <r_lp_Energy>
10.682

> <b_lp_Chiralities_Consistent>
1

> <s_lp_Variant>
AV-unprocessed.smi:3025-3

> <Gold.Version>
5.8.1

> <Gold.Id.Protein>
6NUR|6NUR_protein|mol2

> <Gold.PLP.Fitness>
50.6396

> <Gold.PLP.PLP>
-43.0492

> <Gold.PLP.part.hbond>
-3.0000

> <Gold.PLP.part.metal>
0.0000

> <Gold.PLP.part.buried>
-4.2628

> <Gold.PLP.part.nonpolar>
-36.1990

> <Gold.PLP.part.repulsive>
1.9582

> <Gold.PLP.ligand.clash>
0.0000

> <Gold.PLP.ligand.torsion>
1.0873

> <Gold.PLP.Chemscore.Hbond>
3.0000

> <Gold.PLP.Chemscore.CHOScore>
0.2277

> <Gold.PLP.Chemscore.Metal>
0.0000

> <Gold.Chemscore.Hbonds>
donor molecule, donor type, donor heavy atom, donor atom, acceptor molecule, acceptor atom, score
      L1  H     8    31       P1  8028  1.07
      L1  C    14    36       P1 10175  0.70

> <Gold.PLP.Chemscore.Internal.Correction>
0.0820

> <Gold.Rescore>
     Score         DG    S(hbond)    S(metal)    S(lipo)     H(rot)  DE(clash)    DE(int)     intcor
     16.43     -17.95       2.00        0.00     105.58       2.56       0.66       0.85       ----

> <Gold.Chemscore.Fitness>
16.4336

> <Gold.Chemscore.DG>
-17.9455

> <Gold.Chemscore.ZeroCoef>
-5.4800

> <Gold.Chemscore.Hbond>
1.9961

> <Gold.Chemscore.Metal>
0.0000

> <Gold.Chemscore.Lipo>
105.5775

> <Gold.Chemscore.Internal_Hbond>
0.0000

> <Gold.Chemscore.DEClash>
0.6581

> <Gold.Chemscore.DEInternal>
0.8538

> <Gold.Chemscore.Rot>
2.5602

> <Gold.Chemscore.Internal.Correction>
   9.000000E+99

> <Gold.Chemscore.Hbonds>
donor molecule, donor type, donor heavy atom, donor atom, acceptor molecule, acceptor atom, score
      L1  H     8    31       P1  8028  0.51
      L1  H    13    42       P1  7948  0.01

> <Gold.Chemscore.Hbond.Weighted>
-6.6671

> <Gold.Chemscore.Metal.Weighted>
-0.0000

> <Gold.Chemscore.Lipo.Weighted>
-12.3526

> <Gold.Chemscore.Internal_Hbond.Weighted>
0.0000

> <Gold.Chemscore.DEClash.Weighted>
0.6581

> <Gold.Chemscore.DEInternal.Weighted>
0.8538

> <Gold.Chemscore.Rot.Weighted>
6.5542

> <Gold.Chemscore.Internal.Correction.Weighted>
   9.000000E+99

> <Gold.Protein.RotatedTorsions>
[ 6907 6896 6895 6894 ] final   46.54 input  -60.11 | X-H torsion
[ 7974 7965 7964 7962 ] final  123.75 input  175.53 | X-H torsion
[ 8008 7997 7996 7995 ] final  138.68 input   59.86 | X-H torsion
[ 10167 10162 10161 10158 ] final    7.90 input  -65.29 | X-H torsion
[ 10718 10713 10712 10709 ] final -175.60 input   66.30 | X-H torsion
[ 10763 10752 10751 10750 ] final   11.82 input  -60.55 | X-H torsion
[ 11005 11000 10999 10996 ] final  108.35 input  -57.11 | X-H torsion

> <Gold.Protein.ActiveResidues>
 VAL166  LYS551  ARG553  GLY616  TRP617  ASP618  TYR619  PRO620  LYS621  CYS622 
 ASP623  PHE694  ASN695  SER759  ASP760  ASP761  ALA762  ILE779  LEU786  VAL792 
 PHE793  MET794  SER795  GLU796  ALA797  LYS798  CYS799  TRP800  GLU811  SER814 

> <Gold.Protein.RotatedAtoms>
  152.2576  134.8068  160.0435 H   0  0  0  0  0  0  0  0  0  0  0  0  # atno 6907 bound_to 6896
  151.8725  133.3473  159.3748 H   0  0  0  0  0  0  0  0  0  0  0  0  # atno 6908 bound_to 6896
  150.7105  134.5025  159.5612 H   0  0  0  0  0  0  0  0  0  0  0  0  # atno 6909 bound_to 6896
  145.0923  139.3577  143.4854 H   0  0  0  0  0  0  0  0  0  0  0  0  # atno 7974 bound_to 7965
  156.2995  140.2387  156.4112 H   0  0  0  0  0  0  0  0  0  0  0  0  # atno 8008 bound_to 7997
  154.8439  140.0427  157.1579 H   0  0  0  0  0  0  0  0  0  0  0  0  # atno 8009 bound_to 7997
  154.9072  140.2985  155.5289 H   0  0  0  0  0  0  0  0  0  0  0  0  # atno 8010 bound_to 7997
  140.6345  143.7918  150.7340 H   0  0  0  0  0  0  0  0  0  0  0  0  # atno 10167 bound_to 10162
  156.8022  130.9556  151.3118 H   0  0  0  0  0  0  0  0  0  0  0  0  # atno 10718 bound_to 10713
  153.1886  135.6839  153.8382 H   0  0  0  0  0  0  0  0  0  0  0  0  # atno 10763 bound_to 10752
  153.7689  135.3199  155.3350 H   0  0  0  0  0  0  0  0  0  0  0  0  # atno 10764 bound_to 10752
  154.8104  135.4721  154.0598 H   0  0  0  0  0  0  0  0  0  0  0  0  # atno 10765 bound_to 10752
  139.8843  134.9428  156.5959 H   0  0  0  0  0  0  0  0  0  0  0  0  # atno 11005 bound_to 11000
  146.3531  140.0763  142.8620 LP  0  0  0  0  0  0  0  0  0  0  0  0  # atno 17320 bound_to 7965
  145.1051  140.9370  143.4689 LP  0  0  0  0  0  0  0  0  0  0  0  0  # atno 17321 bound_to 7965
  140.1536  143.4336  152.2114 LP  0  0  0  0  0  0  0  0  0  0  0  0  # atno 17342 bound_to 10162
  139.5556  144.7370  151.4303 LP  0  0  0  0  0  0  0  0  0  0  0  0  # atno 17343 bound_to 10162
  157.6548  130.8915  149.9706 LP  0  0  0  0  0  0  0  0  0  0  0  0  # atno 17370 bound_to 10713
  156.1094  130.3651  150.0075 LP  0  0  0  0  0  0  0  0  0  0  0  0  # atno 17371 bound_to 10713
  140.7920  133.8574  155.8654 LP  0  0  0  0  0  0  0  0  0  0  0  0  # atno 17394 bound_to 11000
  140.9668  134.1583  157.4609 LP  0  0  0  0  0  0  0  0  0  0  0  0  # atno 17395 bound_to 11000

$$$$
