AV-unprocessed.smi:283|AV-procd|sdf|2127|dock9
  -GOLD-   2262021433D 1   1.00000     0.00000
 Structure written by MMmdl.
 48 51  0  0  0  0  0  0  0  0  1 V2000
  153.1436  140.2051  159.2277 C   0  0  0  0  0  0  0  0  0  0  0  0
  153.9519  141.4666  159.5825 C   0  0  2  0  0  0  0  0  0  0  0  0
  154.8393  141.2231  160.7195 N   0  0  0  0  0  0  0  0  0  0  0  0
  155.7820  140.2549  160.6926 C   0  0  0  0  0  0  0  0  0  0  0  0
  156.9498  140.4232  160.0198 N   0  0  0  0  0  0  0  0  0  0  0  0
  157.8639  139.4489  160.0147 C   0  0  0  0  0  0  0  0  0  0  0  0
  157.8124  138.2543  160.6071 N   0  0  0  0  0  0  0  0  0  0  0  0
  156.6434  138.0795  161.2891 C   0  0  0  0  0  0  0  0  0  0  0  0
  155.5874  139.0292  161.3803 C   0  0  0  0  0  0  0  0  0  0  0  0
  154.5577  138.5160  162.1577 N   0  0  0  0  0  0  0  0  0  0  0  0
  154.9843  137.3315  162.5034 C   0  0  0  0  0  0  0  0  0  0  0  0
  156.2295  136.9860  162.0263 N   0  0  0  0  0  0  0  0  0  0  0  0
  156.9608  135.6978  162.2622 C   0  0  1  0  0  0  0  0  0  0  0  0
  156.5840  135.1664  163.4992 O   0  0  0  0  0  0  0  0  0  0  0  0
  155.9906  133.8787  163.3328 C   0  0  2  0  0  0  0  0  0  0  0  0
  156.2951  133.0087  164.5613 C   0  0  0  0  0  0  0  0  0  0  0  0
  155.7013  133.5750  165.7097 O   0  0  0  0  0  0  0  0  0  0  0  0
  156.6392  133.3721  162.0435 C   0  0  1  0  0  0  0  0  0  0  0  0
  155.9269  132.3132  161.4329 O   0  0  0  0  0  0  0  0  0  0  0  0
  156.6809  134.6295  161.1875 C   0  0  1  0  0  0  0  0  0  0  0  0
  155.4722  134.8430  160.4733 O   0  0  0  0  0  0  0  0  0  0  0  0
  153.0041  142.6420  159.8172 C   0  0  0  0  0  0  0  0  0  0  0  0
  152.2890  143.2022  158.7320 C   0  0  0  0  0  0  0  0  0  0  0  0
  151.4198  144.2915  158.9299 C   0  0  0  0  0  0  0  0  0  0  0  0
  151.2597  144.8386  160.2153 C   0  0  0  0  0  0  0  0  0  0  0  0
  151.9742  144.2981  161.3000 C   0  0  0  0  0  0  0  0  0  0  0  0
  152.8466  143.2079  161.1084 C   0  0  0  0  0  0  0  0  0  0  0  0
  153.7114  142.5988  162.4766 Cl  0  0  0  0  0  0  0  0  0  0  0  0
  158.0127  135.9826  162.3100 H   0  0  0  0  0  0  0  0  0  0  0  0
  154.9147  133.9818  163.1815 H   0  0  0  0  0  0  0  0  0  0  0  0
  157.6583  133.0425  162.2516 H   0  0  0  0  0  0  0  0  0  0  0  0
  157.5033  134.6054  160.4718 H   0  0  0  0  0  0  0  0  0  0  0  0
  152.5183  140.3764  158.3510 H   0  0  0  0  0  0  0  0  0  0  0  0
  152.4886  139.9120  160.0488 H   0  0  0  0  0  0  0  0  0  0  0  0
  153.7895  139.3569  159.0021 H   0  0  0  0  0  0  0  0  0  0  0  0
  154.5872  141.7237  158.7358 H   0  0  0  0  0  0  0  0  0  0  0  0
  154.6423  141.7661  161.5476 H   0  0  0  0  0  0  0  0  0  0  0  0
  158.7653  139.6557  159.4570 H   0  0  0  0  0  0  0  0  0  0  0  0
  154.3965  136.6704  163.1234 H   0  0  0  0  0  0  0  0  0  0  0  0
  155.8715  132.0124  164.4313 H   0  0  0  0  0  0  0  0  0  0  0  0
  157.3689  132.8882  164.7076 H   0  0  0  0  0  0  0  0  0  0  0  0
  155.4111  132.8733  166.2726 H   0  0  0  0  0  0  0  0  0  0  0  0
  156.1466  132.3020  160.5132 H   0  0  0  0  0  0  0  0  0  0  0  0
  155.6700  135.3323  159.6894 H   0  0  0  0  0  0  0  0  0  0  0  0
  152.4048  142.8042  157.7348 H   0  0  0  0  0  0  0  0  0  0  0  0
  150.8777  144.7084  158.0940 H   0  0  0  0  0  0  0  0  0  0  0  0
  150.5944  145.6753  160.3688 H   0  0  0  0  0  0  0  0  0  0  0  0
  151.8541  144.7257  162.2847 H   0  0  0  0  0  0  0  0  0  0  0  0
  1  2  1  0  0  0  0
  1 33  1  0  0  0  0
  1 34  1  0  0  0  0
  1 35  1  0  0  0  0
  2  3  1  0  0  0  0
  2 22  1  0  0  0  0
  2 36  1  0  0  0  0
  3  4  1  0  0  0  0
  3 37  1  0  0  0  0
  4  9  1  0  0  0  0
  4  5  2  0  0  0  0
  5  6  1  0  0  0  0
  6  7  2  0  0  0  0
  6 38  1  0  0  0  0
  7  8  1  0  0  0  0
  8 12  1  0  0  0  0
  8  9  2  0  0  0  0
  9 10  1  0  0  0  0
 10 11  2  0  0  0  0
 11 12  1  0  0  0  0
 11 39  1  0  0  0  0
 12 13  1  0  0  0  0
 13 29  1  0  0  0  0
 13 20  1  0  0  0  0
 13 14  1  0  0  0  0
 14 15  1  0  0  0  0
 15 30  1  0  0  0  0
 15 16  1  0  0  0  0
 15 18  1  0  0  0  0
 16 17  1  0  0  0  0
 16 40  1  0  0  0  0
 16 41  1  0  0  0  0
 17 42  1  0  0  0  0
 18 31  1  0  0  0  0
 18 19  1  0  0  0  0
 18 20  1  0  0  0  0
 19 43  1  0  0  0  0
 20 32  1  0  0  0  0
 20 21  1  0  0  0  0
 21 44  1  0  0  0  0
 22 27  1  0  0  0  0
 22 23  2  0  0  0  0
 23 24  1  0  0  0  0
 23 45  1  0  0  0  0
 24 25  2  0  0  0  0
 24 46  1  0  0  0  0
 25 26  1  0  0  0  0
 25 47  1  0  0  0  0
 26 27  2  0  0  0  0
 26 48  1  0  0  0  0
 27 28  1  0  0  0  0
M  END
> <s_m_source_file>
AV-unprocessed.smi

> <i_m_source_file_index>
283

> <i_lp_mmshare_version>
43012

> <i_f3d_flags>
0

> <s_epik_input>
Q2xjMVtjSF1bY0hdW2NIXVtjSF1jMVtDQEhdKFtDSDNdKVtOSF1jKG5bY0hdbjIpYyhjMjMpbltjSF1uM1tDQEBIXTRPW0NASF0oW0NIMl1bT0hdKVtDQEBIXShbT0hdKVtDQEhdNFtPSF0=

> <s_epik_cmdline>
J2VwaWtfcHl0aG9uJywgJy1waCcsICc3LjAnLCAnLXRuJywgJzgnLCAnLW1hJywgJzIwMCcsICctbWV0YWxfYmluZGluZycsICctaW1hZScsICc8aW5maWxlLm1hZT4nLCAnLW9tYWUnLCAnPG91dGZpbGUubWFlPic=

> <r_lp_tautomer_probability>
1

> <r_epik_Ionization_Penalty>
0.000266407

> <r_epik_Ionization_Penalty_Charging>
0

> <r_epik_Ionization_Penalty_Neutral>
0.000266407

> <r_epik_State_Penalty>
-0

> <r_epik_Charging_Adjusted_Penalty>
0

> <i_epik_Tot_Q>
0

> <i_epik_Tot_abs_Q>
0

> <r_epik_Metal_State_Penalty>
-0

> <b_epik_Metal_Only>
0

> <s_epik_Chemistry_Notes>
This compound contains an acetal/aminal-like group ( X-CH(R)-Y where X, Y are N, S, or O) that may be acid/base labile, releasing an aldehyde.

> <s_lp_Force_Field>
OPLS_2005

> <r_lp_Energy>
51.5446

> <b_lp_Chiralities_Consistent>
1

> <s_lp_Variant>
AV-unprocessed.smi:283-3

> <Gold.Version>
5.8.1

> <Gold.Id.Protein>
6NUR|6NUR_protein|mol2

> <Gold.PLP.Fitness>
48.6681

> <Gold.PLP.PLP>
-48.9864

> <Gold.PLP.part.hbond>
-1.5585

> <Gold.PLP.part.metal>
0.0000

> <Gold.PLP.part.buried>
-5.3085

> <Gold.PLP.part.nonpolar>
-43.4741

> <Gold.PLP.part.repulsive>
0.0562

> <Gold.PLP.ligand.clash>
0.0000

> <Gold.PLP.ligand.torsion>
1.6943

> <Gold.PLP.Chemscore.Hbond>
1.0000

> <Gold.PLP.Chemscore.CHOScore>
0.0000

> <Gold.PLP.Chemscore.Metal>
0.0000

> <Gold.PLP.Chemscore.Internal.Correction>
0.0703

> <Gold.Rescore>
     Score         DG    S(hbond)    S(metal)    S(lipo)     H(rot)  DE(clash)    DE(int)     intcor
      9.29     -12.65       0.96        0.00     123.55       4.10       0.01       3.35       ----

> <Gold.Chemscore.Fitness>
9.2856

> <Gold.Chemscore.DG>
-12.6466

> <Gold.Chemscore.ZeroCoef>
-5.4800

> <Gold.Chemscore.Hbond>
0.9579

> <Gold.Chemscore.Metal>
0.0000

> <Gold.Chemscore.Lipo>
123.5481

> <Gold.Chemscore.Internal_Hbond>
0.0000

> <Gold.Chemscore.DEClash>
0.0082

> <Gold.Chemscore.DEInternal>
3.3527

> <Gold.Chemscore.Rot>
4.0968

> <Gold.Chemscore.Internal.Correction>
   9.000000E+99

> <Gold.Chemscore.Hbond.Weighted>
-3.1994

> <Gold.Chemscore.Metal.Weighted>
-0.0000

> <Gold.Chemscore.Lipo.Weighted>
-14.4551

> <Gold.Chemscore.Internal_Hbond.Weighted>
0.0000

> <Gold.Chemscore.DEClash.Weighted>
0.0082

> <Gold.Chemscore.DEInternal.Weighted>
3.3527

> <Gold.Chemscore.Rot.Weighted>
10.4879

> <Gold.Chemscore.Internal.Correction.Weighted>
   9.000000E+99

> <Gold.Protein.RotatedTorsions>
[ 6907 6896 6895 6894 ] final  -42.19 input  -60.11 | X-H torsion
[ 7974 7965 7964 7962 ] final  175.78 input  175.53 | X-H torsion
[ 8008 7997 7996 7995 ] final   95.12 input   59.86 | X-H torsion
[ 10167 10162 10161 10158 ] final    4.08 input  -65.29 | X-H torsion
[ 10718 10713 10712 10709 ] final  125.75 input   66.30 | X-H torsion
[ 10763 10752 10751 10750 ] final  -79.95 input  -60.55 | X-H torsion
[ 11005 11000 10999 10996 ] final   80.45 input  -57.11 | X-H torsion

> <Gold.Protein.ActiveResidues>
 VAL166  LYS551  ARG553  GLY616  TRP617  ASP618  TYR619  PRO620  LYS621  CYS622 
 ASP623  PHE694  ASN695  SER759  ASP760  ASP761  ALA762  ILE779  LEU786  VAL792 
 PHE793  MET794  SER795  GLU796  ALA797  LYS798  CYS799  TRP800  GLU811  SER814 

> <Gold.Protein.RotatedAtoms>
  150.9580  134.8972  159.7713 H   0  0  0  0  0  0  0  0  0  0  0  0  # atno 6907 bound_to 6896
  152.5145  134.3712  159.9329 H   0  0  0  0  0  0  0  0  0  0  0  0  # atno 6908 bound_to 6896
  151.3725  133.3809  159.2736 H   0  0  0  0  0  0  0  0  0  0  0  0  # atno 6909 bound_to 6896
  144.7195  139.9998  143.6440 H   0  0  0  0  0  0  0  0  0  0  0  0  # atno 7974 bound_to 7965
  156.0654  140.3291  155.7511 H   0  0  0  0  0  0  0  0  0  0  0  0  # atno 8008 bound_to 7997
  155.5389  140.0600  157.2891 H   0  0  0  0  0  0  0  0  0  0  0  0  # atno 8009 bound_to 7997
  154.4502  140.1914  156.0559 H   0  0  0  0  0  0  0  0  0  0  0  0  # atno 8010 bound_to 7997
  140.6553  143.7443  150.7643 H   0  0  0  0  0  0  0  0  0  0  0  0  # atno 10167 bound_to 10162
  157.5477  131.1095  150.8754 H   0  0  0  0  0  0  0  0  0  0  0  0  # atno 10718 bound_to 10713
  154.5451  135.5678  153.6873 H   0  0  0  0  0  0  0  0  0  0  0  0  # atno 10763 bound_to 10752
  152.9974  135.6237  154.2449 H   0  0  0  0  0  0  0  0  0  0  0  0  # atno 10764 bound_to 10752
  154.2382  135.2863  155.2844 H   0  0  0  0  0  0  0  0  0  0  0  0  # atno 10765 bound_to 10752
  139.9134  134.7921  156.1911 H   0  0  0  0  0  0  0  0  0  0  0  0  # atno 11005 bound_to 11000
  146.0345  139.3364  143.0735 LP  0  0  0  0  0  0  0  0  0  0  0  0  # atno 17320 bound_to 7965
  145.8412  140.9579  143.0798 LP  0  0  0  0  0  0  0  0  0  0  0  0  # atno 17321 bound_to 7965
  140.1101  143.4707  152.2375 LP  0  0  0  0  0  0  0  0  0  0  0  0  # atno 17342 bound_to 10162
  139.5774  144.7494  151.3728 LP  0  0  0  0  0  0  0  0  0  0  0  0  # atno 17343 bound_to 10162
  156.9288  130.5342  149.5279 LP  0  0  0  0  0  0  0  0  0  0  0  0  # atno 17370 bound_to 10713
  156.0550  130.5613  150.9071 LP  0  0  0  0  0  0  0  0  0  0  0  0  # atno 17371 bound_to 10713
  141.0583  133.6854  156.1903 LP  0  0  0  0  0  0  0  0  0  0  0  0  # atno 17394 bound_to 11000
  140.6701  134.4876  157.5587 LP  0  0  0  0  0  0  0  0  0  0  0  0  # atno 17395 bound_to 11000

$$$$
