AV-unprocessed.smi:1333|AV-procd|sdf|5491|dock2
  -GOLD-   22720 5 63D 1   1.00000     0.00000
 Structure written by MMmdl.
 34 35  0  0  0  0  0  0  0  0  2 V2000
  150.3334  140.2263  154.6979 O   0  0  0  0  0  0  0  0  0  0  0  0
  149.6375  141.2337  154.8519 C   0  0  0  0  0  0  0  0  0  0  0  0
  148.4347  141.4832  153.9322 C   0  0  0  0  0  0  0  0  0  0  0  0
  147.4159  140.4285  154.0169 N   0  0  0  0  0  0  0  0  0  0  0  0
  146.6762  140.0731  155.1163 C   0  0  0  0  0  0  0  0  0  0  0  0
  145.8669  139.0377  154.7248 C   0  0  0  0  0  0  0  0  0  0  0  0
  146.1459  138.8052  153.4048 N   0  3  0  0  0  0  0  0  0  0  0  0
  147.0880  139.6515  152.9759 C   0  0  0  0  0  0  0  0  0  0  0  0
  149.8335  142.1897  155.7890 N   0  0  0  0  0  0  0  0  0  0  0  0
  150.7722  142.3081  156.7584 C   0  0  0  0  0  0  0  0  0  0  0  0
  151.4643  141.3433  157.0786 O   0  0  0  0  0  0  0  0  0  0  0  0
  150.9033  143.5138  157.3435 N   0  0  0  0  0  0  0  0  0  0  0  0
  152.0382  143.9440  158.1554 C   0  0  0  0  0  0  0  0  0  0  0  0
  152.3996  142.8923  159.2234 C   0  0  0  0  0  0  0  0  0  0  0  0
  151.9350  143.4739  160.5583 C   0  0  0  0  0  0  0  0  0  0  0  0
  152.0914  144.9806  160.3812 C   0  0  0  0  0  0  0  0  0  0  0  0
  151.6987  145.2357  158.9246 C   0  0  0  0  0  0  0  0  0  0  0  0
  147.9593  142.4298  154.1928 H   0  0  0  0  0  0  0  0  0  0  0  0
  148.7698  141.5590  152.8966 H   0  0  0  0  0  0  0  0  0  0  0  0
  146.7807  140.5677  156.0713 H   0  0  0  0  0  0  0  0  0  0  0  0
  145.1341  138.4634  155.2728 H   0  0  0  0  0  0  0  0  0  0  0  0
  147.5047  139.6946  151.9852 H   0  0  0  0  0  0  0  0  0  0  0  0
  149.1682  142.9487  155.7641 H   0  0  0  0  0  0  0  0  0  0  0  0
  150.1587  144.1840  157.2140 H   0  0  0  0  0  0  0  0  0  0  0  0
  152.9009  144.1204  157.5101 H   0  0  0  0  0  0  0  0  0  0  0  0
  151.9670  141.9092  159.0333 H   0  0  0  0  0  0  0  0  0  0  0  0
  153.4827  142.7647  159.2461 H   0  0  0  0  0  0  0  0  0  0  0  0
  150.8847  143.2291  160.7208 H   0  0  0  0  0  0  0  0  0  0  0  0
  152.5034  143.0881  161.4051 H   0  0  0  0  0  0  0  0  0  0  0  0
  151.4863  145.5522  161.0855 H   0  0  0  0  0  0  0  0  0  0  0  0
  153.1346  145.2607  160.5350 H   0  0  0  0  0  0  0  0  0  0  0  0
  152.2116  146.1058  158.5134 H   0  0  0  0  0  0  0  0  0  0  0  0
  150.6282  145.4430  158.8772 H   0  0  0  0  0  0  0  0  0  0  0  0
  145.7062  138.0940  152.8339 H   0  0  0  0  0  0  0  0  0  0  0  0
  1  2  2  0  0  0  0
  2  3  1  0  0  0  0
  2  9  1  0  0  0  0
  3  4  1  0  0  0  0
  3 18  1  0  0  0  0
  3 19  1  0  0  0  0
  4  8  1  0  0  0  0
  4  5  1  0  0  0  0
  5  6  2  0  0  0  0
  5 20  1  0  0  0  0
  6  7  1  0  0  0  0
  6 21  1  0  0  0  0
  7  8  2  0  0  0  0
  7 34  1  0  0  0  0
  8 22  1  0  0  0  0
  9 10  1  0  0  0  0
  9 23  1  0  0  0  0
 10 11  2  0  0  0  0
 10 12  1  0  0  0  0
 12 13  1  0  0  0  0
 12 24  1  0  0  0  0
 13 17  1  0  0  0  0
 13 14  1  0  0  0  0
 13 25  1  0  0  0  0
 14 15  1  0  0  0  0
 14 26  1  0  0  0  0
 14 27  1  0  0  0  0
 15 16  1  0  0  0  0
 15 28  1  0  0  0  0
 15 29  1  0  0  0  0
 16 17  1  0  0  0  0
 16 30  1  0  0  0  0
 16 31  1  0  0  0  0
 17 32  1  0  0  0  0
 17 33  1  0  0  0  0
M  CHG  1   7   1
M  END
> <s_m_source_file>
AV-unprocessed.smi

> <i_m_source_file_index>
1333

> <i_lp_mmshare_version>
43012

> <i_f3d_flags>
0

> <s_epik_input>
W2NIXTFuW2NIXVtjSF1uMVtDSDJdQyg9TylbTkhdQyg9TylbTkhdW0NIXTJbQ0gyXVtDSDJdW0NIMl1bQ0gyXTI=

> <s_epik_cmdline>
J2VwaWtfcHl0aG9uJywgJy1waCcsICc3LjAnLCAnLXRuJywgJzgnLCAnLW1hJywgJzIwMCcsICctbWV0YWxfYmluZGluZycsICctaW1hZScsICc8aW5maWxlLm1hZT4nLCAnLW9tYWUnLCAnPG91dGZpbGUubWFlPic=

> <r_lp_tautomer_probability>
1

> <r_epik_Ionization_Penalty>
0.816939

> <r_epik_Ionization_Penalty_Charging>
0

> <r_epik_Ionization_Penalty_Neutral>
0.816939

> <r_epik_State_Penalty>
0.849575

> <r_epik_Charging_Adjusted_Penalty>
0.849575

> <i_epik_Tot_Q>
1

> <i_epik_Tot_abs_Q>
1

> <r_epik_Metal_State_Penalty>
0.984774

> <b_epik_Metal_Only>
0

> <s_lp_Force_Field>
OPLS_2005

> <r_lp_Energy>
25.5003

> <b_lp_Chiralities_Consistent>
1

> <s_lp_Variant>
AV-unprocessed.smi:1333-2

> <Gold.Version>
5.8.1

> <Gold.Id.Protein>
6NUR|6NUR_protein|mol2

> <Gold.PLP.Fitness>
48.3728

> <Gold.PLP.PLP>
-37.6680

> <Gold.PLP.part.hbond>
-3.7664

> <Gold.PLP.part.metal>
0.0000

> <Gold.PLP.part.buried>
-2.6775

> <Gold.PLP.part.nonpolar>
-31.2851

> <Gold.PLP.part.repulsive>
0.2494

> <Gold.PLP.ligand.clash>
0.0000

> <Gold.PLP.ligand.torsion>
0.2497

> <Gold.PLP.Chemscore.Hbond>
2.7280

> <Gold.PLP.Chemscore.CHOScore>
1.0000

> <Gold.PLP.Chemscore.Metal>
0.0000

> <Gold.Chemscore.Hbonds>
donor molecule, donor type, donor heavy atom, donor atom, acceptor molecule, acceptor atom, score
      L1  H     9    23       P1  8028  0.96
      L1  H    12    24       P1  8028  0.69
      P1  H  7989  7998       L1     1  1.00
      L1  C     8    22       P1  7957  1.00

> <Gold.PLP.Chemscore.Internal.Correction>
0.0201

> <Gold.Rescore>
     Score         DG    S(hbond)    S(metal)    S(lipo)     H(rot)  DE(clash)    DE(int)     intcor
     12.34     -15.39       1.77        0.00      72.74       1.77       0.02       3.03       ----

> <Gold.Chemscore.Fitness>
12.3375

> <Gold.Chemscore.DG>
-15.3880

> <Gold.Chemscore.ZeroCoef>
-5.4800

> <Gold.Chemscore.Hbond>
1.7740

> <Gold.Chemscore.Metal>
0.0000

> <Gold.Chemscore.Lipo>
72.7380

> <Gold.Chemscore.Internal_Hbond>
0.0000

> <Gold.Chemscore.DEClash>
0.0202

> <Gold.Chemscore.DEInternal>
3.0302

> <Gold.Chemscore.Rot>
1.7686

> <Gold.Chemscore.Internal.Correction>
   9.000000E+99

> <Gold.Chemscore.Hbonds>
donor molecule, donor type, donor heavy atom, donor atom, acceptor molecule, acceptor atom, score
      L1  H     9    23       P1  8028  0.92
      L1  H    12    24       P1  8028  0.52
      P1  H  7989  7998       L1     1  0.25

> <Gold.Chemscore.Hbond.Weighted>
-5.9253

> <Gold.Chemscore.Metal.Weighted>
-0.0000

> <Gold.Chemscore.Lipo.Weighted>
-8.5103

> <Gold.Chemscore.Internal_Hbond.Weighted>
0.0000

> <Gold.Chemscore.DEClash.Weighted>
0.0202

> <Gold.Chemscore.DEInternal.Weighted>
3.0302

> <Gold.Chemscore.Rot.Weighted>
4.5277

> <Gold.Chemscore.Internal.Correction.Weighted>
   9.000000E+99

> <Gold.Protein.RotatedTorsions>
[ 6907 6896 6895 6894 ] final   28.97 input  -60.11 | X-H torsion
[ 7974 7965 7964 7962 ] final   14.03 input  175.53 | X-H torsion
[ 8008 7997 7996 7995 ] final   31.61 input   59.86 | X-H torsion
[ 10167 10162 10161 10158 ] final  134.97 input  -65.29 | X-H torsion
[ 10718 10713 10712 10709 ] final   74.98 input   66.30 | X-H torsion
[ 10763 10752 10751 10750 ] final  -36.26 input  -60.55 | X-H torsion
[ 11005 11000 10999 10996 ] final   72.98 input  -57.11 | X-H torsion

> <Gold.Protein.ActiveResidues>
 VAL166  LYS551  ARG553  GLY616  TRP617  ASP618  TYR619  PRO620  LYS621  CYS622 
 ASP623  PHE694  ASN695  SER759  ASP760  ASP761  ALA762  ILE779  LEU786  VAL792 
 PHE793  MET794  SER795  GLU796  ALA797  LYS798  CYS799  TRP800  GLU811  SER814 

> <Gold.Protein.RotatedAtoms>
  152.0247  134.9802  160.0571 H   0  0  0  0  0  0  0  0  0  0  0  0  # atno 6907 bound_to 6896
  152.1303  133.4399  159.4726 H   0  0  0  0  0  0  0  0  0  0  0  0  # atno 6908 bound_to 6896
  150.6856  134.2347  159.4492 H   0  0  0  0  0  0  0  0  0  0  0  0  # atno 6909 bound_to 6896
  146.2315  139.9100  142.8526 H   0  0  0  0  0  0  0  0  0  0  0  0  # atno 7974 bound_to 7965
  155.1092  140.3237  155.4526 H   0  0  0  0  0  0  0  0  0  0  0  0  # atno 8008 bound_to 7997
  156.2695  140.2047  156.6165 H   0  0  0  0  0  0  0  0  0  0  0  0  # atno 8009 bound_to 7997
  154.6769  140.0530  157.0212 H   0  0  0  0  0  0  0  0  0  0  0  0  # atno 8010 bound_to 7997
  139.5235  144.6540  151.5217 H   0  0  0  0  0  0  0  0  0  0  0  0  # atno 10167 bound_to 10162
  157.6615  130.9704  150.1288 H   0  0  0  0  0  0  0  0  0  0  0  0  # atno 10718 bound_to 10713
  153.8768  135.6825  153.4770 H   0  0  0  0  0  0  0  0  0  0  0  0  # atno 10763 bound_to 10752
  153.1256  135.4720  154.9265 H   0  0  0  0  0  0  0  0  0  0  0  0  # atno 10764 bound_to 10752
  154.7688  135.3232  154.8183 H   0  0  0  0  0  0  0  0  0  0  0  0  # atno 10765 bound_to 10752
  139.9463  134.7307  156.0972 H   0  0  0  0  0  0  0  0  0  0  0  0  # atno 11005 bound_to 11000
  145.2238  140.9946  143.4030 LP  0  0  0  0  0  0  0  0  0  0  0  0  # atno 17320 bound_to 7965
  144.9587  139.4003  143.6366 LP  0  0  0  0  0  0  0  0  0  0  0  0  # atno 17321 bound_to 7965
  140.6358  143.8987  150.6646 LP  0  0  0  0  0  0  0  0  0  0  0  0  # atno 17342 bound_to 10162
  140.2306  143.3739  152.1569 LP  0  0  0  0  0  0  0  0  0  0  0  0  # atno 17343 bound_to 10162
  156.2140  130.3669  149.8635 LP  0  0  0  0  0  0  0  0  0  0  0  0  # atno 17370 bound_to 10713
  156.6506  130.8742  151.3530 LP  0  0  0  0  0  0  0  0  0  0  0  0  # atno 17371 bound_to 10713
  141.1114  133.6642  156.2988 LP  0  0  0  0  0  0  0  0  0  0  0  0  # atno 17394 bound_to 11000
  140.5827  134.5730  157.5483 LP  0  0  0  0  0  0  0  0  0  0  0  0  # atno 17395 bound_to 11000

$$$$
