AV-unprocessed.smi:2015|AV-procd|sdf|8165|dock1
  -GOLD-   2272010413D 1   1.00000     0.00000
 Structure written by MMmdl.
 47 48  0  0  0  0  0  0  0  0  1 V2000
  144.9061  134.3600  150.9445 C   0  0  0  0  0  0  0  0  0  0  0  0
  145.0353  135.3018  151.9947 O   0  0  0  0  0  0  0  0  0  0  0  0
  145.5127  136.5585  151.5433 C   0  0  0  0  0  0  0  0  0  0  0  0
  145.7532  137.4749  152.7497 C   0  0  0  0  0  0  0  0  0  0  0  0
  146.6619  138.6718  152.4135 C   0  0  0  0  0  0  0  0  0  0  0  0
  147.1526  139.4177  153.6580 C   0  0  0  0  0  0  0  0  0  0  0  0
  146.3420  139.7894  154.5058 O   0  0  0  0  0  0  0  0  0  0  0  0
  148.4794  139.6370  153.7151 N   0  0  0  0  0  0  0  0  0  0  0  0
  149.2446  140.2833  154.7248 C   0  0  0  0  0  0  0  0  0  0  0  0
  150.6136  140.0380  154.9838 C   0  0  0  0  0  0  0  0  0  0  0  0
  151.2553  140.7620  156.0070 C   0  0  0  0  0  0  0  0  0  0  0  0
  150.5216  141.7209  156.7442 C   0  0  0  0  0  0  0  0  0  0  0  0
  151.1471  142.4580  157.7731 N   0  0  0  0  0  0  0  0  0  0  0  0
  152.0039  141.6927  158.6733 C   0  0  0  0  0  0  0  0  0  0  0  0
  152.3142  142.5088  159.9411 C   0  0  1  0  0  0  0  0  0  0  0  0
  153.3181  141.7925  160.8508 C   0  0  0  0  0  0  0  0  0  0  0  0
  152.8732  143.7697  159.5748 O   0  0  0  0  0  0  0  0  0  0  0  0
  152.0486  144.5630  158.7181 C   0  0  2  0  0  0  0  0  0  0  0  0
  150.8207  145.1293  159.4534 C   0  0  0  0  0  0  0  0  0  0  0  0
  151.6907  143.7740  157.4432 C   0  0  0  0  0  0  0  0  0  0  0  0
  149.2107  141.9554  156.4908 N   0  0  0  0  0  0  0  0  0  0  0  0
  148.5998  141.2601  155.5094 C   0  0  0  0  0  0  0  0  0  0  0  0
  144.5514  133.4105  151.3456 H   0  0  0  0  0  0  0  0  0  0  0  0
  145.8637  134.1813  150.4532 H   0  0  0  0  0  0  0  0  0  0  0  0
  144.1871  134.6998  150.1981 H   0  0  0  0  0  0  0  0  0  0  0  0
  146.4458  136.4200  150.9949 H   0  0  0  0  0  0  0  0  0  0  0  0
  144.7966  137.0161  150.8586 H   0  0  0  0  0  0  0  0  0  0  0  0
  144.7922  137.8226  153.1317 H   0  0  0  0  0  0  0  0  0  0  0  0
  146.2086  136.8899  153.5500 H   0  0  0  0  0  0  0  0  0  0  0  0
  147.5195  138.3254  151.8348 H   0  0  0  0  0  0  0  0  0  0  0  0
  146.1267  139.3813  151.7815 H   0  0  0  0  0  0  0  0  0  0  0  0
  149.0066  139.3297  152.9104 H   0  0  0  0  0  0  0  0  0  0  0  0
  151.1901  139.3216  154.4208 H   0  0  0  0  0  0  0  0  0  0  0  0
  152.2957  140.5656  156.2194 H   0  0  0  0  0  0  0  0  0  0  0  0
  151.5463  140.7476  158.9618 H   0  0  0  0  0  0  0  0  0  0  0  0
  152.9284  141.4476  158.1489 H   0  0  0  0  0  0  0  0  0  0  0  0
  151.3970  142.6639  160.5096 H   0  0  0  0  0  0  0  0  0  0  0  0
  152.9334  140.8251  161.1744 H   0  0  0  0  0  0  0  0  0  0  0  0
  153.5248  142.3832  161.7435 H   0  0  0  0  0  0  0  0  0  0  0  0
  154.2651  141.6223  160.3376 H   0  0  0  0  0  0  0  0  0  0  0  0
  152.6560  145.4173  158.4182 H   0  0  0  0  0  0  0  0  0  0  0  0
  150.2866  145.8386  158.8211 H   0  0  0  0  0  0  0  0  0  0  0  0
  151.1193  145.6561  160.3598 H   0  0  0  0  0  0  0  0  0  0  0  0
  150.1115  144.3515  159.7352 H   0  0  0  0  0  0  0  0  0  0  0  0
  152.5851  143.6393  156.8333 H   0  0  0  0  0  0  0  0  0  0  0  0
  150.9782  144.3462  156.8474 H   0  0  0  0  0  0  0  0  0  0  0  0
  147.5571  141.4923  155.3480 H   0  0  0  0  0  0  0  0  0  0  0  0
  1  2  1  0  0  0  0
  1 23  1  0  0  0  0
  1 24  1  0  0  0  0
  1 25  1  0  0  0  0
  2  3  1  0  0  0  0
  3  4  1  0  0  0  0
  3 26  1  0  0  0  0
  3 27  1  0  0  0  0
  4  5  1  0  0  0  0
  4 28  1  0  0  0  0
  4 29  1  0  0  0  0
  5  6  1  0  0  0  0
  5 30  1  0  0  0  0
  5 31  1  0  0  0  0
  6  7  2  0  0  0  0
  6  8  1  0  0  0  0
  8  9  1  0  0  0  0
  8 32  1  0  0  0  0
  9 22  1  0  0  0  0
  9 10  2  0  0  0  0
 10 11  1  0  0  0  0
 10 33  1  0  0  0  0
 11 12  2  0  0  0  0
 11 34  1  0  0  0  0
 12 13  1  0  0  0  0
 12 21  1  0  0  0  0
 13 20  1  0  0  0  0
 13 14  1  0  0  0  0
 14 15  1  0  0  0  0
 14 35  1  0  0  0  0
 14 36  1  0  0  0  0
 15 16  1  0  0  0  0
 15 17  1  0  0  0  0
 15 37  1  0  0  0  0
 16 38  1  0  0  0  0
 16 39  1  0  0  0  0
 16 40  1  0  0  0  0
 17 18  1  0  0  0  0
 18 19  1  0  0  0  0
 18 20  1  0  0  0  0
 18 41  1  0  0  0  0
 19 42  1  0  0  0  0
 19 43  1  0  0  0  0
 19 44  1  0  0  0  0
 20 45  1  0  0  0  0
 20 46  1  0  0  0  0
 21 22  2  0  0  0  0
 22 47  1  0  0  0  0
M  END
> <s_m_source_file>
AV-unprocessed.smi

> <i_m_source_file_index>
2015

> <i_lp_mmshare_version>
43012

> <i_f3d_flags>
0

> <s_epik_input>
W0NIM11PW0NIMl1bQ0gyXVtDSDJdQyg9TylbTkhdYzFbY0hdW2NIXWMobltjSF0xKU4yW0NIMl1bQ0BASF0oW0NIM10pT1tDQEBIXShbQ0gzXSlbQ0gyXTI=

> <s_epik_cmdline>
J2VwaWtfcHl0aG9uJywgJy1waCcsICc3LjAnLCAnLXRuJywgJzgnLCAnLW1hJywgJzIwMCcsICctbWV0YWxfYmluZGluZycsICctaW1hZScsICc8aW5maWxlLm1hZT4nLCAnLW9tYWUnLCAnPG91dGZpbGUubWFlPic=

> <r_lp_tautomer_probability>
1

> <r_epik_Ionization_Penalty>
0.000816358

> <r_epik_Ionization_Penalty_Charging>
0

> <r_epik_Ionization_Penalty_Neutral>
0.000816358

> <r_epik_State_Penalty>
0.000521115

> <r_epik_Charging_Adjusted_Penalty>
0.000521115

> <i_epik_Tot_Q>
0

> <i_epik_Tot_abs_Q>
0

> <r_epik_Metal_State_Penalty>
-0

> <b_epik_Metal_Only>
0

> <s_lp_Force_Field>
OPLS_2005

> <r_lp_Energy>
24.6812

> <b_lp_Chiralities_Consistent>
1

> <s_lp_Variant>
AV-unprocessed.smi:2015-3

> <Gold.Version>
5.8.1

> <Gold.Id.Protein>
6NUR|6NUR_protein|mol2

> <Gold.PLP.Fitness>
46.6387

> <Gold.PLP.PLP>
-45.1699

> <Gold.PLP.part.hbond>
-1.0000

> <Gold.PLP.part.metal>
0.0000

> <Gold.PLP.part.buried>
-4.2928

> <Gold.PLP.part.nonpolar>
-42.1809

> <Gold.PLP.part.repulsive>
1.7388

> <Gold.PLP.ligand.clash>
0.0000

> <Gold.PLP.ligand.torsion>
0.9049

> <Gold.PLP.Chemscore.Hbond>
0.9600

> <Gold.PLP.Chemscore.CHOScore>
0.0000

> <Gold.PLP.Chemscore.Metal>
0.0000

> <Gold.Chemscore.Hbonds>
donor molecule, donor type, donor heavy atom, donor atom, acceptor molecule, acceptor atom, score
      L1  H     8    32       P1  7957  0.78

> <Gold.PLP.Chemscore.Internal.Correction>
0.3986

> <Gold.Rescore>
     Score         DG    S(hbond)    S(metal)    S(lipo)     H(rot)  DE(clash)    DE(int)     intcor
     14.70     -17.96       0.97        0.00     115.82       1.68       1.23       2.04       ----

> <Gold.Chemscore.Fitness>
14.6977

> <Gold.Chemscore.DG>
-17.9632

> <Gold.Chemscore.ZeroCoef>
-5.4800

> <Gold.Chemscore.Hbond>
0.9701

> <Gold.Chemscore.Metal>
0.0000

> <Gold.Chemscore.Lipo>
115.8198

> <Gold.Chemscore.Internal_Hbond>
0.0000

> <Gold.Chemscore.DEClash>
1.2303

> <Gold.Chemscore.DEInternal>
2.0352

> <Gold.Chemscore.Rot>
1.6827

> <Gold.Chemscore.Internal.Correction>
   9.000000E+99

> <Gold.Chemscore.Hbonds>
donor molecule, donor type, donor heavy atom, donor atom, acceptor molecule, acceptor atom, score
      L1  H     8    32       P1  7957  0.76

> <Gold.Chemscore.Hbond.Weighted>
-3.2401

> <Gold.Chemscore.Metal.Weighted>
-0.0000

> <Gold.Chemscore.Lipo.Weighted>
-13.5509

> <Gold.Chemscore.Internal_Hbond.Weighted>
0.0000

> <Gold.Chemscore.DEClash.Weighted>
1.2303

> <Gold.Chemscore.DEInternal.Weighted>
2.0352

> <Gold.Chemscore.Rot.Weighted>
4.3078

> <Gold.Chemscore.Internal.Correction.Weighted>
   9.000000E+99

> <Gold.Protein.RotatedTorsions>
[ 6907 6896 6895 6894 ] final  151.97 input  -60.11 | X-H torsion
[ 7974 7965 7964 7962 ] final  -78.07 input  175.53 | X-H torsion
[ 8008 7997 7996 7995 ] final    0.83 input   59.86 | X-H torsion
[ 10167 10162 10161 10158 ] final  148.34 input  -65.29 | X-H torsion
[ 10718 10713 10712 10709 ] final -160.15 input   66.30 | X-H torsion
[ 10763 10752 10751 10750 ] final   46.99 input  -60.55 | X-H torsion
[ 11005 11000 10999 10996 ] final    0.77 input  -57.11 | X-H torsion

> <Gold.Protein.ActiveResidues>
 VAL166  LYS551  ARG553  GLY616  TRP617  ASP618  TYR619  PRO620  LYS621  CYS622 
 ASP623  PHE694  ASN695  SER759  ASP760  ASP761  ALA762  ILE779  LEU786  VAL792 
 PHE793  MET794  SER795  GLU796  ALA797  LYS798  CYS799  TRP800  GLU811  SER814 

> <Gold.Protein.RotatedAtoms>
  152.0933  133.4211  159.4553 H   0  0  0  0  0  0  0  0  0  0  0  0  # atno 6907 bound_to 6896
  150.6863  134.2846  159.4651 H   0  0  0  0  0  0  0  0  0  0  0  0  # atno 6908 bound_to 6896
  152.0700  134.9539  160.0625 H   0  0  0  0  0  0  0  0  0  0  0  0  # atno 6909 bound_to 6896
  145.5913  140.9429  143.1291 H   0  0  0  0  0  0  0  0  0  0  0  0  # atno 7974 bound_to 7965
  154.6726  140.2615  155.6991 H   0  0  0  0  0  0  0  0  0  0  0  0  # atno 8008 bound_to 7997
  156.2665  140.2826  156.1163 H   0  0  0  0  0  0  0  0  0  0  0  0  # atno 8009 bound_to 7997
  155.1146  140.0376  157.2723 H   0  0  0  0  0  0  0  0  0  0  0  0  # atno 8010 bound_to 7997
  139.4876  144.5687  151.7096 H   0  0  0  0  0  0  0  0  0  0  0  0  # atno 10167 bound_to 10162
  156.5781  130.8717  151.2857 H   0  0  0  0  0  0  0  0  0  0  0  0  # atno 10718 bound_to 10713
  152.9804  135.5990  154.3690 H   0  0  0  0  0  0  0  0  0  0  0  0  # atno 10763 bound_to 10752
  154.3365  135.2768  155.2447 H   0  0  0  0  0  0  0  0  0  0  0  0  # atno 10764 bound_to 10752
  154.4547  135.5981  153.6271 H   0  0  0  0  0  0  0  0  0  0  0  0  # atno 10765 bound_to 10752
  140.6228  133.9645  155.8234 H   0  0  0  0  0  0  0  0  0  0  0  0  # atno 11005 bound_to 11000
  144.7350  139.7612  143.7333 LP  0  0  0  0  0  0  0  0  0  0  0  0  # atno 17320 bound_to 7965
  146.1645  139.4771  142.9967 LP  0  0  0  0  0  0  0  0  0  0  0  0  # atno 17321 bound_to 7965
  140.5270  144.0790  150.6041 LP  0  0  0  0  0  0  0  0  0  0  0  0  # atno 17342 bound_to 10162
  140.3767  143.2824  152.0216 LP  0  0  0  0  0  0  0  0  0  0  0  0  # atno 17343 bound_to 10162
  157.7333  130.9728  150.1970 LP  0  0  0  0  0  0  0  0  0  0  0  0  # atno 17370 bound_to 10713
  156.2656  130.3716  149.8085 LP  0  0  0  0  0  0  0  0  0  0  0  0  # atno 17371 bound_to 10713
  141.0730  134.0177  157.3498 LP  0  0  0  0  0  0  0  0  0  0  0  0  # atno 17394 bound_to 11000
  139.9146  135.0195  156.7831 LP  0  0  0  0  0  0  0  0  0  0  0  0  # atno 17395 bound_to 11000

$$$$
