AV-unprocessed.smi:657|AV-procd|sdf|3227|dock8
  -GOLD-   22720 0163D 1   1.00000     0.00000
 Structure written by MMmdl.
 46 47  0  0  0  0  0  0  0  0  3 V2000
  151.2631  137.4054  154.4321 C   0  0  0  0  0  0  0  0  0  0  0  0
  149.9471  136.8577  155.0257 C   0  0  0  0  0  0  0  0  0  0  0  0
  150.0397  135.3178  155.0625 C   0  0  0  0  0  0  0  0  0  0  0  0
  148.7312  137.3405  154.2844 N   0  3  1  0  0  0  0  0  0  0  0  0
  147.4466  136.7351  154.7598 C   0  0  0  0  0  0  0  0  0  0  0  0
  146.2425  137.1401  153.8918 C   0  0  0  0  0  0  0  0  0  0  0  0
  146.1178  138.6594  153.7719 C   0  0  0  0  0  0  0  0  0  0  0  0
  147.4314  139.2187  153.2181 C   0  0  0  0  0  0  0  0  0  0  0  0
  148.6481  138.8306  154.0895 C   0  0  1  0  0  0  0  0  0  0  0  0
  148.6980  139.6696  155.3912 C   0  0  0  0  0  0  0  0  0  0  0  0
  147.6769  139.7870  156.0769 O   0  0  0  0  0  0  0  0  0  0  0  0
  149.9367  140.2063  155.5751 N   0  5  0  0  0  0  0  0  0  0  0  0
  150.2101  141.3454  156.4539 C   0  0  0  0  0  0  0  0  0  0  0  0
  151.3809  141.0301  157.4138 C   0  0  0  0  0  0  0  0  0  0  0  0
  151.8841  142.2300  158.1863 C   0  0  0  0  0  0  0  0  0  0  0  0
  152.8599  142.2746  159.2260 C   0  0  0  0  0  0  0  0  0  0  0  0
  153.0449  143.4925  159.7092 N   0  0  0  0  0  0  0  0  0  0  0  0
  152.2050  144.2677  158.9938 N   0  0  0  0  0  0  0  0  0  0  0  0
  152.1336  145.6867  159.2672 C   0  0  0  0  0  0  0  0  0  0  0  0
  151.5050  143.5377  158.0589 C   0  0  0  0  0  0  0  0  0  0  0  0
  152.1292  136.9646  154.9262 H   0  0  0  0  0  0  0  0  0  0  0  0
  151.3603  138.4829  154.5623 H   0  0  0  0  0  0  0  0  0  0  0  0
  151.3434  137.1825  153.3677 H   0  0  0  0  0  0  0  0  0  0  0  0
  149.8816  137.2011  156.0588 H   0  0  0  0  0  0  0  0  0  0  0  0
  150.9900  134.9921  155.4865 H   0  0  0  0  0  0  0  0  0  0  0  0
  149.9638  134.8896  154.0626 H   0  0  0  0  0  0  0  0  0  0  0  0
  149.2666  134.8715  155.6870 H   0  0  0  0  0  0  0  0  0  0  0  0
  147.4997  135.6492  154.7202 H   0  0  0  0  0  0  0  0  0  0  0  0
  147.2641  136.9899  155.8030 H   0  0  0  0  0  0  0  0  0  0  0  0
  146.3475  136.7042  152.8975 H   0  0  0  0  0  0  0  0  0  0  0  0
  145.3261  136.7260  154.3136 H   0  0  0  0  0  0  0  0  0  0  0  0
  145.2900  138.9200  153.1122 H   0  0  0  0  0  0  0  0  0  0  0  0
  145.8912  139.0986  154.7440 H   0  0  0  0  0  0  0  0  0  0  0  0
  147.5819  138.8421  152.2055 H   0  0  0  0  0  0  0  0  0  0  0  0
  147.3606  140.3026  153.1211 H   0  0  0  0  0  0  0  0  0  0  0  0
  149.5114  139.1030  153.4810 H   0  0  0  0  0  0  0  0  0  0  0  0
  150.4369  142.2580  155.9007 H   0  0  0  0  0  0  0  0  0  0  0  0
  149.3311  141.5869  157.0515 H   0  0  0  0  0  0  0  0  0  0  0  0
  151.0549  140.2546  158.1072 H   0  0  0  0  0  0  0  0  0  0  0  0
  152.1931  140.5779  156.8431 H   0  0  0  0  0  0  0  0  0  0  0  0
  153.4241  141.4573  159.6506 H   0  0  0  0  0  0  0  0  0  0  0  0
  151.2893  146.1265  158.7355 H   0  0  0  0  0  0  0  0  0  0  0  0
  153.0536  146.1711  158.9391 H   0  0  0  0  0  0  0  0  0  0  0  0
  152.0008  145.8522  160.3369 H   0  0  0  0  0  0  0  0  0  0  0  0
  150.7870  143.9986  157.3970 H   0  0  0  0  0  0  0  0  0  0  0  0
  148.8452  136.9804  153.3484 H   0  0  0  0  0  0  0  0  0  0  0  0
  1  2  1  0  0  0  0
  1 21  1  0  0  0  0
  1 22  1  0  0  0  0
  1 23  1  0  0  0  0
  2  3  1  0  0  0  0
  2  4  1  0  0  0  0
  2 24  1  0  0  0  0
  3 25  1  0  0  0  0
  3 26  1  0  0  0  0
  3 27  1  0  0  0  0
  4  9  1  0  0  0  0
  4  5  1  0  0  0  0
  4 46  1  0  0  0  0
  5  6  1  0  0  0  0
  5 28  1  0  0  0  0
  5 29  1  0  0  0  0
  6  7  1  0  0  0  0
  6 30  1  0  0  0  0
  6 31  1  0  0  0  0
  7  8  1  0  0  0  0
  7 32  1  0  0  0  0
  7 33  1  0  0  0  0
  8  9  1  0  0  0  0
  8 34  1  0  0  0  0
  8 35  1  0  0  0  0
  9 10  1  0  0  0  0
  9 36  1  0  0  0  0
 10 11  2  0  0  0  0
 10 12  1  0  0  0  0
 12 13  1  0  0  0  0
 13 14  1  0  0  0  0
 13 37  1  0  0  0  0
 13 38  1  0  0  0  0
 14 15  1  0  0  0  0
 14 39  1  0  0  0  0
 14 40  1  0  0  0  0
 15 20  2  0  0  0  0
 15 16  1  0  0  0  0
 16 17  2  0  0  0  0
 16 41  1  0  0  0  0
 17 18  1  0  0  0  0
 18 19  1  0  0  0  0
 18 20  1  0  0  0  0
 19 42  1  0  0  0  0
 19 43  1  0  0  0  0
 19 44  1  0  0  0  0
 20 45  1  0  0  0  0
M  CHG  1   4   1
M  CHG  1  12  -1
M  END
> <s_m_source_file>
AV-unprocessed.smi

> <i_m_source_file_index>
657

> <i_lp_mmshare_version>
43012

> <i_f3d_flags>
0

> <s_epik_input>
W0NIM11bQ0hdKFtDSDNdKU4xW0NIMl1bQ0gyXVtDSDJdW0NIMl1bQ0BIXTFDKD1PKVtOSF1bQ0gyXVtDSDJdYzJbY0hdbm4oW0NIM10pW2NIXTI=

> <s_epik_cmdline>
J2VwaWtfcHl0aG9uJywgJy1waCcsICc3LjAnLCAnLXRuJywgJzgnLCAnLW1hJywgJzIwMCcsICctbWV0YWxfYmluZGluZycsICctaW1hZScsICc8aW5maWxlLm1hZT4nLCAnLW9tYWUnLCAnPG91dGZpbGUubWFlPic=

> <r_lp_tautomer_probability>
1

> <r_epik_Ionization_Penalty>
6.1622

> <r_epik_Ionization_Penalty_Charging>
6.16146

> <r_epik_Ionization_Penalty_Neutral>
0.00073675

> <r_epik_State_Penalty>
6.18018

> <r_epik_Charging_Adjusted_Penalty>
12.3416

> <i_epik_Tot_Q>
0

> <i_epik_Tot_abs_Q>
2

> <r_epik_Metal_State_Penalty>
2.12232

> <b_epik_Metal_Only>
1

> <s_lp_Force_Field>
OPLS_2005

> <r_lp_Energy>
12.187

> <b_lp_Chiralities_Consistent>
1

> <s_lp_Variant>
AV-unprocessed.smi:657-8

> <Gold.Version>
5.8.1

> <Gold.Id.Protein>
6NUR|6NUR_protein|mol2

> <Gold.PLP.Fitness>
41.6668

> <Gold.PLP.PLP>
-33.8237

> <Gold.PLP.part.hbond>
-1.0000

> <Gold.PLP.part.metal>
0.0000

> <Gold.PLP.part.buried>
-2.5880

> <Gold.PLP.part.nonpolar>
-30.6085

> <Gold.PLP.part.repulsive>
0.0463

> <Gold.PLP.ligand.clash>
0.0000

> <Gold.PLP.ligand.torsion>
0.5998

> <Gold.PLP.Chemscore.Hbond>
2.0000

> <Gold.PLP.Chemscore.CHOScore>
0.9395

> <Gold.PLP.Chemscore.Metal>
0.0000

> <Gold.Chemscore.Hbonds>
donor molecule, donor type, donor heavy atom, donor atom, acceptor molecule, acceptor atom, score
      L1  H     4    46       P1  7948  2.00
      L1  C    20    45       P1  8028  0.70

> <Gold.PLP.Chemscore.Internal.Correction>
0.2243

> <Gold.Rescore>
     Score         DG    S(hbond)    S(metal)    S(lipo)     H(rot)  DE(clash)    DE(int)     intcor
     14.01     -15.82       0.98        0.00      94.86       1.57       0.05       1.75       ----

> <Gold.Chemscore.Fitness>
14.0142

> <Gold.Chemscore.DG>
-15.8170

> <Gold.Chemscore.ZeroCoef>
-5.4800

> <Gold.Chemscore.Hbond>
0.9784

> <Gold.Chemscore.Metal>
0.0000

> <Gold.Chemscore.Lipo>
94.8607

> <Gold.Chemscore.Internal_Hbond>
0.0000

> <Gold.Chemscore.DEClash>
0.0549

> <Gold.Chemscore.DEInternal>
1.7479

> <Gold.Chemscore.Rot>
1.5741

> <Gold.Chemscore.Internal.Correction>
   9.000000E+99

> <Gold.Chemscore.Hbonds>
donor molecule, donor type, donor heavy atom, donor atom, acceptor molecule, acceptor atom, score
      L1  H     4    46       P1  7948  1.00

> <Gold.Chemscore.Hbond.Weighted>
-3.2680

> <Gold.Chemscore.Metal.Weighted>
-0.0000

> <Gold.Chemscore.Lipo.Weighted>
-11.0987

> <Gold.Chemscore.Internal_Hbond.Weighted>
0.0000

> <Gold.Chemscore.DEClash.Weighted>
0.0549

> <Gold.Chemscore.DEInternal.Weighted>
1.7479

> <Gold.Chemscore.Rot.Weighted>
4.0297

> <Gold.Chemscore.Internal.Correction.Weighted>
   9.000000E+99

> <Gold.Protein.RotatedTorsions>
[ 6907 6896 6895 6894 ] final -147.92 input  -60.11 | X-H torsion
[ 7974 7965 7964 7962 ] final   64.37 input  175.53 | X-H torsion
[ 8008 7997 7996 7995 ] final -104.14 input   59.86 | X-H torsion
[ 10167 10162 10161 10158 ] final  -44.28 input  -65.29 | X-H torsion
[ 10718 10713 10712 10709 ] final  -55.00 input   66.30 | X-H torsion
[ 10763 10752 10751 10750 ] final   95.10 input  -60.55 | X-H torsion
[ 11005 11000 10999 10996 ] final   31.83 input  -57.11 | X-H torsion

> <Gold.Protein.ActiveResidues>
 VAL166  LYS551  ARG553  GLY616  TRP617  ASP618  TYR619  PRO620  LYS621  CYS622 
 ASP623  PHE694  ASN695  SER759  ASP760  ASP761  ALA762  ILE779  LEU786  VAL792 
 PHE793  MET794  SER795  GLU796  ALA797  LYS798  CYS799  TRP800  GLU811  SER814 

> <Gold.Protein.RotatedAtoms>
  151.1625  133.4836  159.2593 H   0  0  0  0  0  0  0  0  0  0  0  0  # atno 6907 bound_to 6896
  151.1439  135.0193  159.8648 H   0  0  0  0  0  0  0  0  0  0  0  0  # atno 6908 bound_to 6896
  152.5463  134.1516  159.8574 H   0  0  0  0  0  0  0  0  0  0  0  0  # atno 6909 bound_to 6896
  145.8510  139.3254  143.0875 H   0  0  0  0  0  0  0  0  0  0  0  0  # atno 7974 bound_to 7965
  154.8810  140.0419  157.1782 H   0  0  0  0  0  0  0  0  0  0  0  0  # atno 8008 bound_to 7997
  154.8639  140.2948  155.5501 H   0  0  0  0  0  0  0  0  0  0  0  0  # atno 8009 bound_to 7997
  156.2999  140.2442  156.3617 H   0  0  0  0  0  0  0  0  0  0  0  0  # atno 8010 bound_to 7997
  140.6903  143.2938  151.3473 H   0  0  0  0  0  0  0  0  0  0  0  0  # atno 10167 bound_to 10162
  156.1404  130.4155  150.0113 H   0  0  0  0  0  0  0  0  0  0  0  0  # atno 10718 bound_to 10713
  153.2492  135.4266  155.0780 H   0  0  0  0  0  0  0  0  0  0  0  0  # atno 10763 bound_to 10752
  154.8374  135.3422  154.6537 H   0  0  0  0  0  0  0  0  0  0  0  0  # atno 10764 bound_to 10752
  153.6958  135.7031  153.5133 H   0  0  0  0  0  0  0  0  0  0  0  0  # atno 10765 bound_to 10752
  140.2798  134.2985  155.7804 H   0  0  0  0  0  0  0  0  0  0  0  0  # atno 11005 bound_to 11000
  145.9358  140.9016  143.0333 LP  0  0  0  0  0  0  0  0  0  0  0  0  # atno 17320 bound_to 7965
  144.6729  140.1480  143.7432 LP  0  0  0  0  0  0  0  0  0  0  0  0  # atno 17321 bound_to 7965
  139.6299  144.0742  152.2467 LP  0  0  0  0  0  0  0  0  0  0  0  0  # atno 17342 bound_to 10162
  140.0213  144.6151  150.7564 LP  0  0  0  0  0  0  0  0  0  0  0  0  # atno 17343 bound_to 10162
  156.8000  130.9287  151.3646 LP  0  0  0  0  0  0  0  0  0  0  0  0  # atno 17370 bound_to 10713
  157.6570  130.8933  149.9750 LP  0  0  0  0  0  0  0  0  0  0  0  0  # atno 17371 bound_to 10713
  141.2164  133.7518  156.9463 LP  0  0  0  0  0  0  0  0  0  0  0  0  # atno 17394 bound_to 11000
  140.1294  134.9366  157.2315 LP  0  0  0  0  0  0  0  0  0  0  0  0  # atno 17395 bound_to 11000

$$$$
