AV-unprocessed.smi:2954|AV-procd|sdf|11298|dock3
  -GOLD-   2272016193D 1   1.00000     0.00000
 Structure written by MMmdl.
 42 44  0  0  0  0  0  0  0  0  1 V2000
  147.0391  142.3755  154.1332 C   0  0  0  0  0  0  0  0  0  0  0  0
  147.4494  141.6659  155.4301 C   0  0  1  0  0  0  0  0  0  0  0  0
  146.3699  140.8001  155.8975 N   0  0  0  0  0  0  0  0  0  0  0  0
  145.7545  140.9315  157.0799 C   0  0  0  0  0  0  0  0  0  0  0  0
  146.0399  141.8067  157.8930 O   0  0  0  0  0  0  0  0  0  0  0  0
  148.6986  140.8385  155.2510 C   0  0  0  0  0  0  0  0  0  0  0  0
  148.7969  139.8982  154.3070 N   0  0  0  0  0  0  0  0  0  0  0  0
  150.0646  139.3909  154.5071 C   0  0  0  0  0  0  0  0  0  0  0  0
  150.7582  138.3605  153.8330 C   0  0  0  0  0  0  0  0  0  0  0  0
  152.0655  138.0053  154.2246 C   0  0  0  0  0  0  0  0  0  0  0  0
  152.6966  138.6746  155.2928 C   0  0  0  0  0  0  0  0  0  0  0  0
  152.0239  139.7061  155.9753 C   0  0  0  0  0  0  0  0  0  0  0  0
  150.7189  140.0575  155.5802 C   0  0  0  0  0  0  0  0  0  0  0  0
  149.7986  140.9994  156.0316 N   0  0  0  0  0  0  0  0  0  0  0  0
  150.0068  141.9320  157.1315 C   0  0  0  0  0  0  0  0  0  0  0  0
  151.3999  142.5771  157.0823 C   0  0  0  0  0  0  0  0  0  0  0  0
  152.2289  141.9564  158.0556 O   0  0  0  0  0  0  0  0  0  0  0  0
  152.3672  142.5616  159.2853 C   0  0  0  0  0  0  0  0  0  0  0  0
  151.8596  143.8496  159.5916 C   0  0  0  0  0  0  0  0  0  0  0  0
  152.0410  144.4013  160.8744 C   0  0  0  0  0  0  0  0  0  0  0  0
  152.7311  143.6773  161.8637 C   0  0  0  0  0  0  0  0  0  0  0  0
  153.2418  142.4000  161.5681 C   0  0  0  0  0  0  0  0  0  0  0  0
  153.0615  141.8456  160.2857 C   0  0  0  0  0  0  0  0  0  0  0  0
  153.6901  140.2721  159.9477 Cl  0  0  0  0  0  0  0  0  0  0  0  0
  147.8308  143.0406  153.7872 H   0  0  0  0  0  0  0  0  0  0  0  0
  146.1428  142.9785  154.2814 H   0  0  0  0  0  0  0  0  0  0  0  0
  146.8330  141.6608  153.3356 H   0  0  0  0  0  0  0  0  0  0  0  0
  147.6097  142.4309  156.1885 H   0  0  0  0  0  0  0  0  0  0  0  0
  146.0754  140.0546  155.2836 H   0  0  0  0  0  0  0  0  0  0  0  0
  144.9718  140.1710  157.2240 H   0  0  0  0  0  0  0  0  0  0  0  0
  150.2822  137.8403  153.0150 H   0  0  0  0  0  0  0  0  0  0  0  0
  152.5857  137.2148  153.7040 H   0  0  0  0  0  0  0  0  0  0  0  0
  153.6970  138.3952  155.5892 H   0  0  0  0  0  0  0  0  0  0  0  0
  152.5037  140.2158  156.7973 H   0  0  0  0  0  0  0  0  0  0  0  0
  149.2431  142.7080  157.0737 H   0  0  0  0  0  0  0  0  0  0  0  0
  149.8435  141.4205  158.0803 H   0  0  0  0  0  0  0  0  0  0  0  0
  151.8307  142.4591  156.0871 H   0  0  0  0  0  0  0  0  0  0  0  0
  151.3142  143.6449  157.2841 H   0  0  0  0  0  0  0  0  0  0  0  0
  151.3310  144.4365  158.8560 H   0  0  0  0  0  0  0  0  0  0  0  0
  151.6504  145.3829  161.0991 H   0  0  0  0  0  0  0  0  0  0  0  0
  152.8689  144.1012  162.8474 H   0  0  0  0  0  0  0  0  0  0  0  0
  153.7717  141.8445  162.3278 H   0  0  0  0  0  0  0  0  0  0  0  0
  1  2  1  0  0  0  0
  1 25  1  0  0  0  0
  1 26  1  0  0  0  0
  1 27  1  0  0  0  0
  2  3  1  0  0  0  0
  2  6  1  0  0  0  0
  2 28  1  0  0  0  0
  3  4  1  0  0  0  0
  3 29  1  0  0  0  0
  4  5  2  0  0  0  0
  4 30  1  0  0  0  0
  6 14  1  0  0  0  0
  6  7  2  0  0  0  0
  7  8  1  0  0  0  0
  8 13  2  0  0  0  0
  8  9  1  0  0  0  0
  9 10  2  0  0  0  0
  9 31  1  0  0  0  0
 10 11  1  0  0  0  0
 10 32  1  0  0  0  0
 11 12  2  0  0  0  0
 11 33  1  0  0  0  0
 12 13  1  0  0  0  0
 12 34  1  0  0  0  0
 13 14  1  0  0  0  0
 14 15  1  0  0  0  0
 15 16  1  0  0  0  0
 15 35  1  0  0  0  0
 15 36  1  0  0  0  0
 16 17  1  0  0  0  0
 16 37  1  0  0  0  0
 16 38  1  0  0  0  0
 17 18  1  0  0  0  0
 18 23  1  0  0  0  0
 18 19  2  0  0  0  0
 19 20  1  0  0  0  0
 19 39  1  0  0  0  0
 20 21  2  0  0  0  0
 20 40  1  0  0  0  0
 21 22  1  0  0  0  0
 21 41  1  0  0  0  0
 22 23  2  0  0  0  0
 22 42  1  0  0  0  0
 23 24  1  0  0  0  0
M  END
> <s_m_source_file>
AV-unprocessed.smi

> <i_m_source_file_index>
2954

> <i_lp_mmshare_version>
43012

> <i_f3d_flags>
0

> <s_epik_input>
Tz1bQ0hdW05IXVtDQEBIXShbQ0gzXSljKG4xKW4oYyhjMTIpW2NIXVtjSF1bY0hdW2NIXTIpW0NIMl1bQ0gyXU9jM1tjSF1bY0hdW2NIXVtjSF1jM0Ns

> <s_epik_cmdline>
J2VwaWtfcHl0aG9uJywgJy1waCcsICc3LjAnLCAnLXRuJywgJzgnLCAnLW1hJywgJzIwMCcsICctbWV0YWxfYmluZGluZycsICctaW1hZScsICc8aW5maWxlLm1hZT4nLCAnLW9tYWUnLCAnPG91dGZpbGUubWFlPic=

> <r_lp_tautomer_probability>
1

> <r_epik_Ionization_Penalty>
0.0861383

> <r_epik_Ionization_Penalty_Charging>
0

> <r_epik_Ionization_Penalty_Neutral>
0.0861383

> <r_epik_State_Penalty>
0.0766841

> <r_epik_Charging_Adjusted_Penalty>
0.0766841

> <i_epik_Tot_Q>
0

> <i_epik_Tot_abs_Q>
0

> <r_epik_Metal_State_Penalty>
0.0668745

> <b_epik_Metal_Only>
0

> <s_lp_Force_Field>
OPLS_2005

> <r_lp_Energy>
11.8377

> <b_lp_Chiralities_Consistent>
1

> <s_lp_Variant>
AV-unprocessed.smi:2954-2

> <Gold.Version>
5.8.1

> <Gold.Id.Protein>
6NUR|6NUR_protein|mol2

> <Gold.PLP.Fitness>
51.8954

> <Gold.PLP.PLP>
-53.6313

> <Gold.PLP.part.hbond>
0.0000

> <Gold.PLP.part.metal>
0.0000

> <Gold.PLP.part.buried>
-6.5468

> <Gold.PLP.part.nonpolar>
-47.2505

> <Gold.PLP.part.repulsive>
0.1677

> <Gold.PLP.ligand.clash>
0.0000

> <Gold.PLP.ligand.torsion>
0.9171

> <Gold.PLP.Chemscore.Hbond>
0.0000

> <Gold.PLP.Chemscore.CHOScore>
0.0000

> <Gold.PLP.Chemscore.Metal>
0.0000

> <Gold.PLP.Chemscore.Internal.Correction>
0.0982

> <Gold.Rescore>
     Score         DG    S(hbond)    S(metal)    S(lipo)     H(rot)  DE(clash)    DE(int)     intcor
     16.00     -17.17       0.00        0.00     149.89       2.28       0.46       0.71       ----

> <Gold.Chemscore.Fitness>
15.9983

> <Gold.Chemscore.DG>
-17.1680

> <Gold.Chemscore.ZeroCoef>
-5.4800

> <Gold.Chemscore.Hbond>
0.0000

> <Gold.Chemscore.Metal>
0.0000

> <Gold.Chemscore.Lipo>
149.8929

> <Gold.Chemscore.Internal_Hbond>
0.0000

> <Gold.Chemscore.DEClash>
0.4598

> <Gold.Chemscore.DEInternal>
0.7098

> <Gold.Chemscore.Rot>
2.2849

> <Gold.Chemscore.Internal.Correction>
   9.000000E+99

> <Gold.Chemscore.Hbond.Weighted>
-0.0000

> <Gold.Chemscore.Metal.Weighted>
-0.0000

> <Gold.Chemscore.Lipo.Weighted>
-17.5375

> <Gold.Chemscore.Internal_Hbond.Weighted>
0.0000

> <Gold.Chemscore.DEClash.Weighted>
0.4598

> <Gold.Chemscore.DEInternal.Weighted>
0.7098

> <Gold.Chemscore.Rot.Weighted>
5.8495

> <Gold.Chemscore.Internal.Correction.Weighted>
   9.000000E+99

> <Gold.Protein.RotatedTorsions>
[ 6907 6896 6895 6894 ] final -173.21 input  -60.11 | X-H torsion
[ 7974 7965 7964 7962 ] final -134.43 input  175.53 | X-H torsion
[ 8008 7997 7996 7995 ] final  171.45 input   59.86 | X-H torsion
[ 10167 10162 10161 10158 ] final -105.51 input  -65.29 | X-H torsion
[ 10718 10713 10712 10709 ] final   -8.28 input   66.30 | X-H torsion
[ 10763 10752 10751 10750 ] final -106.61 input  -60.55 | X-H torsion
[ 11005 11000 10999 10996 ] final -168.25 input  -57.11 | X-H torsion

> <Gold.Protein.ActiveResidues>
 VAL166  LYS551  ARG553  GLY616  TRP617  ASP618  TYR619  PRO620  LYS621  CYS622 
 ASP623  PHE694  ASN695  SER759  ASP760  ASP761  ALA762  ILE779  LEU786  VAL792 
 PHE793  MET794  SER795  GLU796  ALA797  LYS798  CYS799  TRP800  GLU811  SER814 

> <Gold.Protein.RotatedAtoms>
  151.5525  133.3415  159.2955 H   0  0  0  0  0  0  0  0  0  0  0  0  # atno 6907 bound_to 6896
  150.8470  134.7785  159.6990 H   0  0  0  0  0  0  0  0  0  0  0  0  # atno 6908 bound_to 6896
  152.4525  134.5369  159.9879 H   0  0  0  0  0  0  0  0  0  0  0  0  # atno 6909 bound_to 6896
  144.9104  140.6887  143.5029 H   0  0  0  0  0  0  0  0  0  0  0  0  # atno 7974 bound_to 7965
  156.1269  140.1511  156.9122 H   0  0  0  0  0  0  0  0  0  0  0  0  # atno 8008 bound_to 7997
  154.4879  140.0860  156.7568 H   0  0  0  0  0  0  0  0  0  0  0  0  # atno 8009 bound_to 7997
  155.4326  140.3428  155.4284 H   0  0  0  0  0  0  0  0  0  0  0  0  # atno 8010 bound_to 7997
  140.1978  143.3842  152.1154 H   0  0  0  0  0  0  0  0  0  0  0  0  # atno 10167 bound_to 10162
  156.7049  130.5104  149.5907 H   0  0  0  0  0  0  0  0  0  0  0  0  # atno 10718 bound_to 10713
  154.8023  135.4705  154.0306 H   0  0  0  0  0  0  0  0  0  0  0  0  # atno 10763 bound_to 10752
  153.1802  135.6839  153.8495 H   0  0  0  0  0  0  0  0  0  0  0  0  # atno 10764 bound_to 10752
  153.8048  135.3225  155.3372 H   0  0  0  0  0  0  0  0  0  0  0  0  # atno 10765 bound_to 10752
  140.5441  134.5493  157.5107 H   0  0  0  0  0  0  0  0  0  0  0  0  # atno 11005 bound_to 11000
  145.3464  139.1718  143.4458 LP  0  0  0  0  0  0  0  0  0  0  0  0  # atno 17320 bound_to 7965
  146.3155  140.3512  142.8656 LP  0  0  0  0  0  0  0  0  0  0  0  0  # atno 17321 bound_to 7965
  139.5229  144.7065  151.5337 LP  0  0  0  0  0  0  0  0  0  0  0  0  # atno 17342 bound_to 10162
  140.6411  143.8886  150.6693 LP  0  0  0  0  0  0  0  0  0  0  0  0  # atno 17343 bound_to 10162
  156.1702  130.6432  151.0828 LP  0  0  0  0  0  0  0  0  0  0  0  0  # atno 17370 bound_to 10713
  157.6958  131.0794  150.6972 LP  0  0  0  0  0  0  0  0  0  0  0  0  # atno 17371 bound_to 10713
  139.9488  134.7653  156.0497 LP  0  0  0  0  0  0  0  0  0  0  0  0  # atno 17394 bound_to 11000
  141.1210  133.6613  156.3214 LP  0  0  0  0  0  0  0  0  0  0  0  0  # atno 17395 bound_to 11000

$$$$
