AV-unprocessed.smi:101|AV-procd|sdf|918|dock2
  -GOLD-   2262017423D 1   1.00000     0.00000
 Structure written by MMmdl.
 44 46  0  0  0  0  0  0  0  0  1 V2000
  144.8475  141.7969  158.4703 C   0  0  0  0  0  0  0  0  0  0  0  0
  145.0352  142.3919  157.0848 C   0  0  0  0  0  0  0  0  0  0  0  0
  146.0350  142.0006  156.2540 C   0  0  0  0  0  0  0  0  0  0  0  0
  146.2301  142.5241  154.9836 N   0  0  0  0  0  0  0  0  0  0  0  0
  147.3734  142.0399  154.1173 C   0  0  1  0  0  0  0  0  0  0  0  0
  148.5083  141.9443  154.9186 O   0  0  0  0  0  0  0  0  0  0  0  0
  149.2903  140.8450  154.4810 C   0  0  1  0  0  0  0  0  0  0  0  0
  150.2030  140.3761  155.6197 C   0  0  0  0  0  0  0  0  0  0  0  0
  150.9332  141.4838  156.1197 O   0  0  0  0  0  0  0  0  0  0  0  0
  151.8820  141.2973  157.0581 C   0  0  0  0  0  0  0  0  0  0  0  0
  152.5464  140.2641  157.1598 O   0  0  0  0  0  0  0  0  0  0  0  0
  152.0440  142.4724  157.9618 C   0  0  0  0  0  0  0  0  0  0  0  0
  152.6239  142.2897  159.2390 C   0  0  0  0  0  0  0  0  0  0  0  0
  152.7908  143.3805  160.1141 C   0  0  0  0  0  0  0  0  0  0  0  0
  152.3806  144.6679  159.7224 C   0  0  0  0  0  0  0  0  0  0  0  0
  151.8021  144.8631  158.4548 C   0  0  0  0  0  0  0  0  0  0  0  0
  151.6338  143.7732  157.5785 C   0  0  0  0  0  0  0  0  0  0  0  0
  148.2434  139.8058  154.0714 C   0  0  2  0  0  0  0  0  0  0  0  0
  148.7771  138.9336  153.0948 O   0  0  0  0  0  0  0  0  0  0  0  0
  147.1184  140.6520  153.4835 C   0  0  1  0  0  0  0  0  0  0  0  0
  145.8561  140.0869  153.7908 O   0  0  0  0  0  0  0  0  0  0  0  0
  145.3445  143.5070  154.4956 C   0  0  0  0  0  0  0  0  0  0  0  0
  145.4377  143.9959  153.3706 O   0  0  0  0  0  0  0  0  0  0  0  0
  144.3200  143.9120  155.3496 N   0  0  0  0  0  0  0  0  0  0  0  0
  144.0931  143.4222  156.6384 C   0  0  0  0  0  0  0  0  0  0  0  0
  143.1524  143.8616  157.2978 O   0  0  0  0  0  0  0  0  0  0  0  0
  143.6845  144.6176  155.0066 H   0  0  0  0  0  0  0  0  0  0  0  0
  145.6020  141.0415  158.6915 H   0  0  0  0  0  0  0  0  0  0  0  0
  143.8678  141.3250  158.5533 H   0  0  0  0  0  0  0  0  0  0  0  0
  144.9195  142.5741  159.2320 H   0  0  0  0  0  0  0  0  0  0  0  0
  146.7125  141.2314  156.5970 H   0  0  0  0  0  0  0  0  0  0  0  0
  147.5691  142.8095  153.3691 H   0  0  0  0  0  0  0  0  0  0  0  0
  149.8743  141.1545  153.6116 H   0  0  0  0  0  0  0  0  0  0  0  0
  149.6150  139.9071  156.4101 H   0  0  0  0  0  0  0  0  0  0  0  0
  150.9087  139.6319  155.2484 H   0  0  0  0  0  0  0  0  0  0  0  0
  152.9467  141.3105  159.5622 H   0  0  0  0  0  0  0  0  0  0  0  0
  153.2343  143.2283  161.0871 H   0  0  0  0  0  0  0  0  0  0  0  0
  152.5090  145.5042  160.3936 H   0  0  0  0  0  0  0  0  0  0  0  0
  151.4867  145.8510  158.1531 H   0  0  0  0  0  0  0  0  0  0  0  0
  151.1865  143.9581  156.6128 H   0  0  0  0  0  0  0  0  0  0  0  0
  147.8993  139.2490  154.9448 H   0  0  0  0  0  0  0  0  0  0  0  0
  149.2016  139.4512  152.4275 H   0  0  0  0  0  0  0  0  0  0  0  0
  147.2190  140.7573  152.4021 H   0  0  0  0  0  0  0  0  0  0  0  0
  145.2206  140.4264  153.1790 H   0  0  0  0  0  0  0  0  0  0  0  0
  1  2  1  0  0  0  0
  1 28  1  0  0  0  0
  1 29  1  0  0  0  0
  1 30  1  0  0  0  0
  2 25  1  0  0  0  0
  2  3  2  0  0  0  0
  3  4  1  0  0  0  0
  3 31  1  0  0  0  0
  4  5  1  0  0  0  0
  4 22  1  0  0  0  0
  5 20  1  0  0  0  0
  5  6  1  0  0  0  0
  5 32  1  0  0  0  0
  6  7  1  0  0  0  0
  7  8  1  0  0  0  0
  7 18  1  0  0  0  0
  7 33  1  0  0  0  0
  8  9  1  0  0  0  0
  8 34  1  0  0  0  0
  8 35  1  0  0  0  0
  9 10  1  0  0  0  0
 10 11  2  0  0  0  0
 10 12  1  0  0  0  0
 12 17  1  0  0  0  0
 12 13  2  0  0  0  0
 13 14  1  0  0  0  0
 13 36  1  0  0  0  0
 14 15  2  0  0  0  0
 14 37  1  0  0  0  0
 15 16  1  0  0  0  0
 15 38  1  0  0  0  0
 16 17  2  0  0  0  0
 16 39  1  0  0  0  0
 17 40  1  0  0  0  0
 18 19  1  0  0  0  0
 18 20  1  0  0  0  0
 18 41  1  0  0  0  0
 19 42  1  0  0  0  0
 20 21  1  0  0  0  0
 20 43  1  0  0  0  0
 21 44  1  0  0  0  0
 22 23  2  0  0  0  0
 22 24  1  0  0  0  0
 24 27  1  0  0  0  0
 24 25  1  0  0  0  0
 25 26  2  0  0  0  0
M  END
> <s_m_source_file>
AV-unprocessed.smi

> <i_m_source_file_index>
101

> <i_lp_mmshare_version>
43012

> <i_f3d_flags>
0

> <s_epik_input>
Tz1jMVtuSF1jKD1PKW4oW2NIXWMxW0NIM10pW0NAQEhdMk9bQ0BIXShbQ0BASF0oW09IXSlbQ0BIXTJbT0hdKVtDSDJdT0MoPU8pYzNbY0hdW2NIXVtjSF1bY0hdW2NIXTM=

> <s_epik_cmdline>
J2VwaWtfcHl0aG9uJywgJy1waCcsICc3LjAnLCAnLXRuJywgJzgnLCAnLW1hJywgJzIwMCcsICctbWV0YWxfYmluZGluZycsICctaW1hZScsICc8aW5maWxlLm1hZT4nLCAnLW9tYWUnLCAnPG91dGZpbGUubWFlPic=

> <r_lp_tautomer_probability>
0.999537

> <r_epik_Ionization_Penalty>
0.00263537

> <r_epik_Ionization_Penalty_Charging>
0.00263428

> <r_epik_Ionization_Penalty_Neutral>
1.09111e-06

> <r_epik_State_Penalty>
0.00183335

> <r_epik_Charging_Adjusted_Penalty>
0.00446763

> <i_epik_Tot_Q>
0

> <i_epik_Tot_abs_Q>
0

> <r_epik_Metal_State_Penalty>
1.00528

> <b_epik_Metal_Only>
0

> <s_epik_Chemistry_Notes>
This compound has an ester and may undergo hydrolysis at high or low pH. This compound contains an acetal/aminal-like group ( X-CH(R)-Y where X, Y are N, S, or O) that may be acid/base labile, releasing an aldehyde.

> <s_lp_Force_Field>
OPLS_2005

> <r_lp_Energy>
35.8325

> <b_lp_Chiralities_Consistent>
1

> <s_lp_Variant>
AV-unprocessed.smi:101-6

> <Gold.Version>
5.8.1

> <Gold.Id.Protein>
6NUR|6NUR_protein|mol2

> <Gold.PLP.Fitness>
56.4961

> <Gold.PLP.PLP>
-49.3027

> <Gold.PLP.part.hbond>
-4.1250

> <Gold.PLP.part.metal>
0.0000

> <Gold.PLP.part.buried>
-8.0033

> <Gold.PLP.part.nonpolar>
-38.1694

> <Gold.PLP.part.repulsive>
1.5739

> <Gold.PLP.ligand.clash>
0.0000

> <Gold.PLP.ligand.torsion>
1.0870

> <Gold.PLP.Chemscore.Hbond>
2.9920

> <Gold.PLP.Chemscore.CHOScore>
0.0000

> <Gold.PLP.Chemscore.Metal>
0.0000

> <Gold.Chemscore.Hbonds>
donor molecule, donor type, donor heavy atom, donor atom, acceptor molecule, acceptor atom, score
      L1  H    19    42       P1  7957  0.80
      L1  H    21    44       P1 10175  1.00
      P1  H  7997  8010       L1    11  1.00

> <Gold.PLP.Chemscore.Internal.Correction>
0.3915

> <Gold.Rescore>
     Score         DG    S(hbond)    S(metal)    S(lipo)     H(rot)  DE(clash)    DE(int)     intcor
     16.45     -18.15       2.84        0.00      99.72       3.32       0.76       0.94       ----

> <Gold.Chemscore.Fitness>
16.4539

> <Gold.Chemscore.DG>
-18.1468

> <Gold.Chemscore.ZeroCoef>
-5.4800

> <Gold.Chemscore.Hbond>
2.8417

> <Gold.Chemscore.Metal>
0.0000

> <Gold.Chemscore.Lipo>
99.7214

> <Gold.Chemscore.Internal_Hbond>
0.0000

> <Gold.Chemscore.DEClash>
0.7552

> <Gold.Chemscore.DEInternal>
0.9377

> <Gold.Chemscore.Rot>
3.3172

> <Gold.Chemscore.Internal.Correction>
   9.000000E+99

> <Gold.Chemscore.Hbonds>
donor molecule, donor type, donor heavy atom, donor atom, acceptor molecule, acceptor atom, score
      L1  H    19    42       P1  7957  0.78
      L1  H    21    44       P1 10175  0.95
      P1  H  7997  8010       L1    11  0.94

> <Gold.Chemscore.Hbond.Weighted>
-9.4914

> <Gold.Chemscore.Metal.Weighted>
-0.0000

> <Gold.Chemscore.Lipo.Weighted>
-11.6674

> <Gold.Chemscore.Internal_Hbond.Weighted>
0.0000

> <Gold.Chemscore.DEClash.Weighted>
0.7552

> <Gold.Chemscore.DEInternal.Weighted>
0.9377

> <Gold.Chemscore.Rot.Weighted>
8.4920

> <Gold.Chemscore.Internal.Correction.Weighted>
   9.000000E+99

> <Gold.Protein.RotatedTorsions>
[ 6907 6896 6895 6894 ] final   27.14 input  -60.11 | X-H torsion
[ 7974 7965 7964 7962 ] final  144.32 input  175.53 | X-H torsion
[ 8008 7997 7996 7995 ] final   57.84 input   59.86 | X-H torsion
[ 10167 10162 10161 10158 ] final   29.49 input  -65.29 | X-H torsion
[ 10718 10713 10712 10709 ] final -118.78 input   66.30 | X-H torsion
[ 10763 10752 10751 10750 ] final  129.80 input  -60.55 | X-H torsion
[ 11005 11000 10999 10996 ] final  119.17 input  -57.11 | X-H torsion

> <Gold.Protein.ActiveResidues>
 VAL166  LYS551  ARG553  GLY616  TRP617  ASP618  TYR619  PRO620  LYS621  CYS622 
 ASP623  PHE694  ASN695  SER759  ASP760  ASP761  ALA762  ILE779  LEU786  VAL792 
 PHE793  MET794  SER795  GLU796  ALA797  LYS798  CYS799  TRP800  GLU811  SER814 

> <Gold.Protein.RotatedAtoms>
  151.9978  134.9944  160.0563 H   0  0  0  0  0  0  0  0  0  0  0  0  # atno 6907 bound_to 6896
  152.1548  133.4539  159.4839 H   0  0  0  0  0  0  0  0  0  0  0  0  # atno 6908 bound_to 6896
  150.6880  134.2063  159.4385 H   0  0  0  0  0  0  0  0  0  0  0  0  # atno 6909 bound_to 6896
  144.8846  139.5648  143.5827 H   0  0  0  0  0  0  0  0  0  0  0  0  # atno 7974 bound_to 7965
  155.5404  140.3484  155.4445 H   0  0  0  0  0  0  0  0  0  0  0  0  # atno 8008 bound_to 7997
  156.0655  140.1350  156.9917 H   0  0  0  0  0  0  0  0  0  0  0  0  # atno 8009 bound_to 7997
  154.4501  140.0976  156.6566 H   0  0  0  0  0  0  0  0  0  0  0  0  # atno 8010 bound_to 7997
  140.4761  144.0688  150.6251 H   0  0  0  0  0  0  0  0  0  0  0  0  # atno 10167 bound_to 10162
  156.1131  130.6265  150.9333 H   0  0  0  0  0  0  0  0  0  0  0  0  # atno 10718 bound_to 10713
  153.7476  135.3215  155.3315 H   0  0  0  0  0  0  0  0  0  0  0  0  # atno 10763 bound_to 10752
  154.8274  135.4559  154.0964 H   0  0  0  0  0  0  0  0  0  0  0  0  # atno 10764 bound_to 10752
  153.2157  135.6941  153.8142 H   0  0  0  0  0  0  0  0  0  0  0  0  # atno 10765 bound_to 10752
  139.9136  134.9626  156.7615 H   0  0  0  0  0  0  0  0  0  0  0  0  # atno 11005 bound_to 11000
  146.3016  139.7445  142.9087 LP  0  0  0  0  0  0  0  0  0  0  0  0  # atno 17320 bound_to 7965
  145.3892  141.0370  143.3133 LP  0  0  0  0  0  0  0  0  0  0  0  0  # atno 17321 bound_to 7965
  140.3917  143.2749  152.0053 LP  0  0  0  0  0  0  0  0  0  0  0  0  # atno 17342 bound_to 10162
  139.4826  144.6072  151.7500 LP  0  0  0  0  0  0  0  0  0  0  0  0  # atno 17343 bound_to 10162
  157.6313  131.0920  150.8435 LP  0  0  0  0  0  0  0  0  0  0  0  0  # atno 17370 bound_to 10713
  156.8542  130.5091  149.5309 LP  0  0  0  0  0  0  0  0  0  0  0  0  # atno 17371 bound_to 10713
  140.6693  133.9574  155.7848 LP  0  0  0  0  0  0  0  0  0  0  0  0  # atno 17394 bound_to 11000
  141.0588  134.0376  157.3686 LP  0  0  0  0  0  0  0  0  0  0  0  0  # atno 17395 bound_to 11000

$$$$
