AV-unprocessed.smi:1873|AV-procd|sdf|7608|dock4
  -GOLD-   22720 9323D 1   1.00000     0.00000
 Structure written by MMmdl.
 36 38  0  0  0  0  0  0  0  0  1 V2000
  149.8316  140.2084  153.9751 O   0  0  0  0  0  0  0  0  0  0  0  0
  149.5271  140.6994  155.2665 C   0  0  1  0  0  0  0  0  0  0  0  0
  150.5313  141.8022  155.6562 C   0  0  0  0  0  0  0  0  0  0  0  0
  151.1725  141.5453  156.9332 N   0  0  0  0  0  0  0  0  0  0  0  0
  151.4670  140.3452  157.4690 C   0  0  0  0  0  0  0  0  0  0  0  0
  152.0580  140.3382  158.6605 N   0  0  0  0  0  0  0  0  0  0  0  0
  152.1599  141.6924  158.9293 C   0  0  0  0  0  0  0  0  0  0  0  0
  152.6980  142.3677  160.0483 C   0  0  0  0  0  0  0  0  0  0  0  0
  152.6928  143.7773  160.1024 C   0  0  0  0  0  0  0  0  0  0  0  0
  152.1515  144.5319  159.0413 C   0  0  0  0  0  0  0  0  0  0  0  0
  151.6093  143.8815  157.9160 C   0  0  0  0  0  0  0  0  0  0  0  0
  151.6161  142.4751  157.8665 C   0  0  0  0  0  0  0  0  0  0  0  0
  148.0931  141.1958  155.3649 C   0  0  0  0  0  0  0  0  0  0  0  0
  147.4795  141.3444  156.6260 C   0  0  0  0  0  0  0  0  0  0  0  0
  146.1541  141.8110  156.7195 C   0  0  0  0  0  0  0  0  0  0  0  0
  145.4209  142.1313  155.5590 C   0  0  0  0  0  0  0  0  0  0  0  0
  144.1348  142.5959  155.7185 O   0  0  0  0  0  0  0  0  0  0  0  0
  143.8821  143.9250  155.5803 C   0  0  0  0  0  0  0  0  0  0  0  0
  144.1203  144.3057  154.3020 F   0  0  0  0  0  0  0  0  0  0  0  0
  142.5804  144.1907  155.8500 F   0  0  0  0  0  0  0  0  0  0  0  0
  146.0436  141.9951  154.2951 C   0  0  0  0  0  0  0  0  0  0  0  0
  147.3683  141.5273  154.2005 C   0  0  0  0  0  0  0  0  0  0  0  0
  149.1746  140.5225  153.3728 H   0  0  0  0  0  0  0  0  0  0  0  0
  149.6460  139.8604  155.9537 H   0  0  0  0  0  0  0  0  0  0  0  0
  151.3040  141.9053  154.8929 H   0  0  0  0  0  0  0  0  0  0  0  0
  150.0251  142.7665  155.7196 H   0  0  0  0  0  0  0  0  0  0  0  0
  151.2309  139.4239  156.9564 H   0  0  0  0  0  0  0  0  0  0  0  0
  153.1155  141.8003  160.8668 H   0  0  0  0  0  0  0  0  0  0  0  0
  153.1066  144.2824  160.9628 H   0  0  0  0  0  0  0  0  0  0  0  0
  152.1528  145.6109  159.0918 H   0  0  0  0  0  0  0  0  0  0  0  0
  151.1932  144.4558  157.1017 H   0  0  0  0  0  0  0  0  0  0  0  0
  148.0227  141.1033  157.5279 H   0  0  0  0  0  0  0  0  0  0  0  0
  145.6954  141.9222  157.6913 H   0  0  0  0  0  0  0  0  0  0  0  0
  144.5183  144.5268  156.2298 H   0  0  0  0  0  0  0  0  0  0  0  0
  145.5188  142.2529  153.3874 H   0  0  0  0  0  0  0  0  0  0  0  0
  147.8298  141.4292  153.2288 H   0  0  0  0  0  0  0  0  0  0  0  0
  1  2  1  0  0  0  0
  1 23  1  0  0  0  0
  2  3  1  0  0  0  0
  2 13  1  0  0  0  0
  2 24  1  0  0  0  0
  3  4  1  0  0  0  0
  3 25  1  0  0  0  0
  3 26  1  0  0  0  0
  4 12  1  0  0  0  0
  4  5  1  0  0  0  0
  5  6  2  0  0  0  0
  5 27  1  0  0  0  0
  6  7  1  0  0  0  0
  7 12  2  0  0  0  0
  7  8  1  0  0  0  0
  8  9  2  0  0  0  0
  8 28  1  0  0  0  0
  9 10  1  0  0  0  0
  9 29  1  0  0  0  0
 10 11  2  0  0  0  0
 10 30  1  0  0  0  0
 11 12  1  0  0  0  0
 11 31  1  0  0  0  0
 13 22  1  0  0  0  0
 13 14  2  0  0  0  0
 14 15  1  0  0  0  0
 14 32  1  0  0  0  0
 15 16  2  0  0  0  0
 15 33  1  0  0  0  0
 16 17  1  0  0  0  0
 16 21  1  0  0  0  0
 17 18  1  0  0  0  0
 18 19  1  0  0  0  0
 18 20  1  0  0  0  0
 18 34  1  0  0  0  0
 21 22  2  0  0  0  0
 21 35  1  0  0  0  0
 22 36  1  0  0  0  0
M  END
> <s_m_source_file>
AV-unprocessed.smi

> <i_m_source_file_index>
1873

> <i_lp_mmshare_version>
43012

> <i_f3d_flags>
0

> <s_epik_input>
RltDSF0oRilPYyhbY0hdW2NIXTEpW2NIXVtjSF1jMVtDQEhdKFtPSF0pW0NIMl1uKFtjSF1uMiljKGMyMylbY0hdW2NIXVtjSF1bY0hdMw==

> <s_epik_cmdline>
J2VwaWtfcHl0aG9uJywgJy1waCcsICc3LjAnLCAnLXRuJywgJzgnLCAnLW1hJywgJzIwMCcsICctbWV0YWxfYmluZGluZycsICctaW1hZScsICc8aW5maWxlLm1hZT4nLCAnLW9tYWUnLCAnPG91dGZpbGUubWFlPic=

> <r_lp_tautomer_probability>
1

> <r_epik_Ionization_Penalty>
0.0696507

> <r_epik_Ionization_Penalty_Charging>
0

> <r_epik_Ionization_Penalty_Neutral>
0.0696507

> <r_epik_State_Penalty>
0.0610247

> <r_epik_Charging_Adjusted_Penalty>
0.0610247

> <i_epik_Tot_Q>
0

> <i_epik_Tot_abs_Q>
0

> <r_epik_Metal_State_Penalty>
6.42746e-05

> <b_epik_Metal_Only>
0

> <s_lp_Force_Field>
OPLS_2005

> <r_lp_Energy>
11.6076

> <b_lp_Chiralities_Consistent>
1

> <s_lp_Variant>
AV-unprocessed.smi:1873-2

> <Gold.Version>
5.8.1

> <Gold.Id.Protein>
6NUR|6NUR_protein|mol2

> <Gold.PLP.Fitness>
52.2115

> <Gold.PLP.PLP>
-52.5464

> <Gold.PLP.part.hbond>
-2.0000

> <Gold.PLP.part.metal>
0.0000

> <Gold.PLP.part.buried>
-6.7531

> <Gold.PLP.part.nonpolar>
-43.4207

> <Gold.PLP.part.repulsive>
0.1690

> <Gold.PLP.ligand.clash>
0.0000

> <Gold.PLP.ligand.torsion>
1.7776

> <Gold.PLP.Chemscore.Hbond>
1.0406

> <Gold.PLP.Chemscore.CHOScore>
0.0000

> <Gold.PLP.Chemscore.Metal>
0.0000

> <Gold.Chemscore.Hbonds>
donor molecule, donor type, donor heavy atom, donor atom, acceptor molecule, acceptor atom, score
      L1  H     1    23       P1  7957  0.09
      P1  H  7989  7998       L1     1  0.78

> <Gold.PLP.Chemscore.Internal.Correction>
0.0983

> <Gold.Rescore>
     Score         DG    S(hbond)    S(metal)    S(lipo)     H(rot)  DE(clash)    DE(int)     intcor
     12.18     -14.75       0.47        0.00     118.39       2.40       0.62       1.95       ----

> <Gold.Chemscore.Fitness>
12.1845

> <Gold.Chemscore.DG>
-14.7516

> <Gold.Chemscore.ZeroCoef>
-5.4800

> <Gold.Chemscore.Hbond>
0.4673

> <Gold.Chemscore.Metal>
0.0000

> <Gold.Chemscore.Lipo>
118.3884

> <Gold.Chemscore.Internal_Hbond>
0.0000

> <Gold.Chemscore.DEClash>
0.6220

> <Gold.Chemscore.DEInternal>
1.9451

> <Gold.Chemscore.Rot>
2.3986

> <Gold.Chemscore.Internal.Correction>
   9.000000E+99

> <Gold.Chemscore.Hbonds>
donor molecule, donor type, donor heavy atom, donor atom, acceptor molecule, acceptor atom, score
      L1  H     1    23       P1  7957  0.09
      P1  H  7989  7998       L1     1  0.37

> <Gold.Chemscore.Hbond.Weighted>
-1.5607

> <Gold.Chemscore.Metal.Weighted>
-0.0000

> <Gold.Chemscore.Lipo.Weighted>
-13.8514

> <Gold.Chemscore.Internal_Hbond.Weighted>
0.0000

> <Gold.Chemscore.DEClash.Weighted>
0.6220

> <Gold.Chemscore.DEInternal.Weighted>
1.9451

> <Gold.Chemscore.Rot.Weighted>
6.1405

> <Gold.Chemscore.Internal.Correction.Weighted>
   9.000000E+99

> <Gold.Protein.RotatedTorsions>
[ 6907 6896 6895 6894 ] final   -1.93 input  -60.11 | X-H torsion
[ 7974 7965 7964 7962 ] final  105.09 input  175.53 | X-H torsion
[ 8008 7997 7996 7995 ] final  141.93 input   59.86 | X-H torsion
[ 10167 10162 10161 10158 ] final -141.07 input  -65.29 | X-H torsion
[ 10718 10713 10712 10709 ] final  -47.29 input   66.30 | X-H torsion
[ 10763 10752 10751 10750 ] final -174.90 input  -60.55 | X-H torsion
[ 11005 11000 10999 10996 ] final -145.53 input  -57.11 | X-H torsion

> <Gold.Protein.ActiveResidues>
 VAL166  LYS551  ARG553  GLY616  TRP617  ASP618  TYR619  PRO620  LYS621  CYS622 
 ASP623  PHE694  ASN695  SER759  ASP760  ASP761  ALA762  ILE779  LEU786  VAL792 
 PHE793  MET794  SER795  GLU796  ALA797  LYS798  CYS799  TRP800  GLU811  SER814 

> <Gold.Protein.RotatedAtoms>
  151.5382  135.1068  159.9919 H   0  0  0  0  0  0  0  0  0  0  0  0  # atno 6907 bound_to 6896
  152.4547  133.7696  159.6802 H   0  0  0  0  0  0  0  0  0  0  0  0  # atno 6908 bound_to 6896
  150.8487  133.7754  159.3058 H   0  0  0  0  0  0  0  0  0  0  0  0  # atno 6909 bound_to 6896
  145.3243  139.2504  143.3695 H   0  0  0  0  0  0  0  0  0  0  0  0  # atno 7974 bound_to 7965
  156.2958  140.2302  156.4645 H   0  0  0  0  0  0  0  0  0  0  0  0  # atno 8008 bound_to 7997
  154.7989  140.0449  157.1278 H   0  0  0  0  0  0  0  0  0  0  0  0  # atno 8009 bound_to 7997
  154.9557  140.3048  155.5057 H   0  0  0  0  0  0  0  0  0  0  0  0  # atno 8010 bound_to 7997
  139.8220  143.7560  152.2666 H   0  0  0  0  0  0  0  0  0  0  0  0  # atno 10167 bound_to 10162
  156.2098  130.4160  149.9129 H   0  0  0  0  0  0  0  0  0  0  0  0  # atno 10718 bound_to 10713
  154.5908  135.2845  155.0638 H   0  0  0  0  0  0  0  0  0  0  0  0  # atno 10763 bound_to 10752
  154.1939  135.6436  153.5071 H   0  0  0  0  0  0  0  0  0  0  0  0  # atno 10764 bound_to 10752
  153.0120  135.5453  154.6593 H   0  0  0  0  0  0  0  0  0  0  0  0  # atno 10765 bound_to 10752
  140.7912  134.2965  157.5012 H   0  0  0  0  0  0  0  0  0  0  0  0  # atno 11005 bound_to 11000
  146.3070  140.3807  142.8683 LP  0  0  0  0  0  0  0  0  0  0  0  0  # atno 17320 bound_to 7965
  144.8915  140.7529  143.5924 LP  0  0  0  0  0  0  0  0  0  0  0  0  # atno 17321 bound_to 7965
  139.7742  144.7466  151.0181 LP  0  0  0  0  0  0  0  0  0  0  0  0  # atno 17342 bound_to 10162
  140.7812  143.4612  151.0275 LP  0  0  0  0  0  0  0  0  0  0  0  0  # atno 17343 bound_to 10162
  156.6811  130.8858  151.3576 LP  0  0  0  0  0  0  0  0  0  0  0  0  # atno 17370 bound_to 10713
  157.7032  130.9356  150.0850 LP  0  0  0  0  0  0  0  0  0  0  0  0  # atno 17371 bound_to 10713
  139.8731  134.9376  156.3691 LP  0  0  0  0  0  0  0  0  0  0  0  0  # atno 17394 bound_to 11000
  140.9387  133.7529  156.0118 LP  0  0  0  0  0  0  0  0  0  0  0  0  # atno 17395 bound_to 11000

$$$$
