AV-unprocessed.smi:200|AV-procd|sdf|1577|dock2
  -GOLD-   2262019463D 1   1.00000     0.00000
 Structure written by MMmdl.
 56 59  0  0  0  0  0  0  0  0  1 V2000
  152.1194  138.6279  154.6396 C   0  0  0  0  0  0  0  0  0  0  0  0
  150.7930  139.0734  154.4204 O   0  0  0  0  0  0  0  0  0  0  0  0
  150.1095  139.3632  155.6284 C   0  0  0  0  0  0  0  0  0  0  0  0
  150.8724  140.4630  156.3795 C   0  0  0  0  0  0  0  0  0  0  0  0
  150.5421  140.5036  157.8047 N   0  0  0  0  0  0  0  0  0  0  0  0
  150.5983  139.2938  158.4082 C   0  0  0  0  0  0  0  0  0  0  0  0
  151.7988  138.7749  158.7770 N   0  0  0  0  0  0  0  0  0  0  0  0
  151.8528  137.5799  159.3731 C   0  0  0  0  0  0  0  0  0  0  0  0
  150.8499  136.7553  159.6841 N   0  0  0  0  0  0  0  0  0  0  0  0
  149.6453  137.2729  159.3078 C   0  0  0  0  0  0  0  0  0  0  0  0
  149.4335  138.5236  158.6640 C   0  0  0  0  0  0  0  0  0  0  0  0
  148.0798  138.7156  158.4226 N   0  0  0  0  0  0  0  0  0  0  0  0
  147.5202  137.6369  158.8980 C   0  0  0  0  0  0  0  0  0  0  0  0
  148.3843  136.7226  159.4597 N   0  0  0  0  0  0  0  0  0  0  0  0
  148.0234  135.4489  160.0635 C   0  0  0  0  0  0  0  0  0  0  0  0
  147.0955  135.5693  161.2911 C   0  0  0  0  0  0  0  0  0  0  0  0
  145.7691  136.2533  160.9144 C   0  0  0  0  0  0  0  0  0  0  0  0
  144.9585  136.4719  162.0514 O   0  0  0  0  0  0  0  0  0  0  0  0
  146.9451  134.2985  162.1386 C   0  0  0  0  0  0  0  0  0  0  0  0
  147.2531  135.0069  163.3575 O   0  0  0  0  0  0  0  0  0  0  0  0
  147.7443  136.1132  162.5720 C   0  0  0  0  0  0  0  0  0  0  0  0
  150.9641  141.6721  158.5916 C   0  0  1  0  0  0  0  0  0  0  0  0
  152.3877  141.6322  159.1687 C   0  0  0  0  0  0  0  0  0  0  0  0
  152.7066  143.0899  159.5289 C   0  0  0  0  0  0  0  0  0  0  0  0
  151.6737  143.9637  158.7891 C   0  0  1  0  0  0  0  0  0  0  0  0
  152.2838  145.1756  158.0728 C   0  0  0  0  0  0  0  0  0  0  0  0
  150.9239  143.0110  157.8497 C   0  0  0  0  0  0  0  0  0  0  0  0
  152.5966  138.4171  153.6824 H   0  0  0  0  0  0  0  0  0  0  0  0
  152.1358  137.7131  155.2334 H   0  0  0  0  0  0  0  0  0  0  0  0
  152.7110  139.3887  155.1502 H   0  0  0  0  0  0  0  0  0  0  0  0
  149.1046  139.7179  155.3958 H   0  0  0  0  0  0  0  0  0  0  0  0
  149.9974  138.4670  156.2388 H   0  0  0  0  0  0  0  0  0  0  0  0
  151.9433  140.3067  156.2371 H   0  0  0  0  0  0  0  0  0  0  0  0
  150.6440  141.4323  155.9361 H   0  0  0  0  0  0  0  0  0  0  0  0
  152.8411  137.2355  159.6400 H   0  0  0  0  0  0  0  0  0  0  0  0
  146.4518  137.4807  158.8603 H   0  0  0  0  0  0  0  0  0  0  0  0
  147.5578  134.8297  159.2958 H   0  0  0  0  0  0  0  0  0  0  0  0
  148.9471  134.9335  160.3296 H   0  0  0  0  0  0  0  0  0  0  0  0
  145.9575  137.2216  160.4494 H   0  0  0  0  0  0  0  0  0  0  0  0
  145.2097  135.6731  160.1803 H   0  0  0  0  0  0  0  0  0  0  0  0
  144.6318  135.6373  162.3514 H   0  0  0  0  0  0  0  0  0  0  0  0
  145.9385  133.8786  162.1397 H   0  0  0  0  0  0  0  0  0  0  0  0
  147.6870  133.5290  161.9187 H   0  0  0  0  0  0  0  0  0  0  0  0
  148.8346  136.1309  162.5501 H   0  0  0  0  0  0  0  0  0  0  0  0
  147.3462  137.0740  162.9000 H   0  0  0  0  0  0  0  0  0  0  0  0
  150.2878  141.7505  159.4424 H   0  0  0  0  0  0  0  0  0  0  0  0
  152.4701  140.9608  160.0240 H   0  0  0  0  0  0  0  0  0  0  0  0
  153.1134  141.3067  158.4233 H   0  0  0  0  0  0  0  0  0  0  0  0
  152.6282  143.2486  160.6051 H   0  0  0  0  0  0  0  0  0  0  0  0
  153.7303  143.3348  159.2426 H   0  0  0  0  0  0  0  0  0  0  0  0
  150.9586  144.3276  159.5285 H   0  0  0  0  0  0  0  0  0  0  0  0
  153.0107  144.8679  157.3206 H   0  0  0  0  0  0  0  0  0  0  0  0
  152.7924  145.8317  158.7795 H   0  0  0  0  0  0  0  0  0  0  0  0
  151.5127  145.7613  157.5718 H   0  0  0  0  0  0  0  0  0  0  0  0
  151.4496  142.9392  156.8974 H   0  0  0  0  0  0  0  0  0  0  0  0
  149.9080  143.3501  157.6457 H   0  0  0  0  0  0  0  0  0  0  0  0
  1  2  1  0  0  0  0
  1 28  1  0  0  0  0
  1 29  1  0  0  0  0
  1 30  1  0  0  0  0
  2  3  1  0  0  0  0
  3  4  1  0  0  0  0
  3 31  1  0  0  0  0
  3 32  1  0  0  0  0
  4  5  1  0  0  0  0
  4 33  1  0  0  0  0
  4 34  1  0  0  0  0
  5  6  1  0  0  0  0
  5 22  1  0  0  0  0
  6 11  1  0  0  0  0
  6  7  2  0  0  0  0
  7  8  1  0  0  0  0
  8  9  2  0  0  0  0
  8 35  1  0  0  0  0
  9 10  1  0  0  0  0
 10 14  1  0  0  0  0
 10 11  2  0  0  0  0
 11 12  1  0  0  0  0
 12 13  2  0  0  0  0
 13 14  1  0  0  0  0
 13 36  1  0  0  0  0
 14 15  1  0  0  0  0
 15 16  1  0  0  0  0
 15 37  1  0  0  0  0
 15 38  1  0  0  0  0
 16 21  1  0  0  0  0
 16 17  1  0  0  0  0
 16 19  1  0  0  0  0
 17 18  1  0  0  0  0
 17 39  1  0  0  0  0
 17 40  1  0  0  0  0
 18 41  1  0  0  0  0
 19 20  1  0  0  0  0
 19 42  1  0  0  0  0
 19 43  1  0  0  0  0
 20 21  1  0  0  0  0
 21 44  1  0  0  0  0
 21 45  1  0  0  0  0
 22 27  1  0  0  0  0
 22 23  1  0  0  0  0
 22 46  1  0  0  0  0
 23 24  1  0  0  0  0
 23 47  1  0  0  0  0
 23 48  1  0  0  0  0
 24 25  1  0  0  0  0
 24 49  1  0  0  0  0
 24 50  1  0  0  0  0
 25 26  1  0  0  0  0
 25 27  1  0  0  0  0
 25 51  1  0  0  0  0
 26 52  1  0  0  0  0
 26 53  1  0  0  0  0
 26 54  1  0  0  0  0
 27 55  1  0  0  0  0
 27 56  1  0  0  0  0
M  END
> <s_m_source_file>
AV-unprocessed.smi

> <i_m_source_file_index>
200

> <i_lp_mmshare_version>
43012

> <i_f3d_flags>
0

> <s_epik_input>
W0NIM11bQ0BASF0oW0NIMl0xKVtDSDJdW0NIMl1bQ0BIXTFOKFtDSDJdW0NIMl1PW0NIM10pYyhuW2NIXW4yKWMoYzIzKW5bY0hdbjNbQ0gyXUM0KFtDSDJdW09IXSlbQ0gyXU9bQ0gyXTQ=

> <s_epik_cmdline>
J2VwaWtfcHl0aG9uJywgJy1waCcsICc3LjAnLCAnLXRuJywgJzgnLCAnLW1hJywgJzIwMCcsICctbWV0YWxfYmluZGluZycsICctaW1hZScsICc8aW5maWxlLm1hZT4nLCAnLW9tYWUnLCAnPG91dGZpbGUubWFlPic=

> <r_lp_tautomer_probability>
1

> <r_epik_Ionization_Penalty>
0.00363087

> <r_epik_Ionization_Penalty_Charging>
0

> <r_epik_Ionization_Penalty_Neutral>
0.00363087

> <r_epik_State_Penalty>
0.0024341

> <r_epik_Charging_Adjusted_Penalty>
0.0024341

> <i_epik_Tot_Q>
0

> <i_epik_Tot_abs_Q>
0

> <r_epik_Metal_State_Penalty>
-0

> <b_epik_Metal_Only>
0

> <s_lp_Force_Field>
OPLS_2005

> <r_lp_Energy>
50.9431

> <b_lp_Chiralities_Consistent>
1

> <s_lp_Variant>
AV-unprocessed.smi:200-2

> <Gold.Version>
5.8.1

> <Gold.Id.Protein>
6NUR|6NUR_protein|mol2

> <Gold.PLP.Fitness>
55.3897

> <Gold.PLP.PLP>
-49.6327

> <Gold.PLP.part.hbond>
-2.6744

> <Gold.PLP.part.metal>
0.0000

> <Gold.PLP.part.buried>
-7.4764

> <Gold.PLP.part.nonpolar>
-40.1640

> <Gold.PLP.part.repulsive>
0.1459

> <Gold.PLP.ligand.clash>
0.0000

> <Gold.PLP.ligand.torsion>
0.9396

> <Gold.PLP.Chemscore.Hbond>
2.0000

> <Gold.PLP.Chemscore.CHOScore>
0.0000

> <Gold.PLP.Chemscore.Metal>
0.0000

> <Gold.Chemscore.Hbonds>
donor molecule, donor type, donor heavy atom, donor atom, acceptor molecule, acceptor atom, score
      P1  H  6896  6907       L1     9  0.96
      P1  H  7989  7998       L1     2  0.25

> <Gold.PLP.Chemscore.Internal.Correction>
1.6361

> <Gold.Rescore>
     Score         DG    S(hbond)    S(metal)    S(lipo)     H(rot)  DE(clash)    DE(int)     intcor
     14.40     -17.59       1.90        0.00     121.00       3.28       0.12       3.07       ----

> <Gold.Chemscore.Fitness>
14.4025

> <Gold.Chemscore.DG>
-17.5862

> <Gold.Chemscore.ZeroCoef>
-5.4800

> <Gold.Chemscore.Hbond>
1.8970

> <Gold.Chemscore.Metal>
0.0000

> <Gold.Chemscore.Lipo>
120.9989

> <Gold.Chemscore.Internal_Hbond>
0.0000

> <Gold.Chemscore.DEClash>
0.1151

> <Gold.Chemscore.DEInternal>
3.0686

> <Gold.Chemscore.Rot>
3.2761

> <Gold.Chemscore.Internal.Correction>
   9.000000E+99

> <Gold.Chemscore.Hbonds>
donor molecule, donor type, donor heavy atom, donor atom, acceptor molecule, acceptor atom, score
      P1  H  6896  6907       L1     9  0.51
      P1  H  7989  7998       L1     2  0.01

> <Gold.Chemscore.Hbond.Weighted>
-6.3361

> <Gold.Chemscore.Metal.Weighted>
-0.0000

> <Gold.Chemscore.Lipo.Weighted>
-14.1569

> <Gold.Chemscore.Internal_Hbond.Weighted>
0.0000

> <Gold.Chemscore.DEClash.Weighted>
0.1151

> <Gold.Chemscore.DEInternal.Weighted>
3.0686

> <Gold.Chemscore.Rot.Weighted>
8.3868

> <Gold.Chemscore.Internal.Correction.Weighted>
   9.000000E+99

> <Gold.Protein.RotatedTorsions>
[ 6907 6896 6895 6894 ] final    3.30 input  -60.11 | X-H torsion
[ 7974 7965 7964 7962 ] final  -40.10 input  175.53 | X-H torsion
[ 8008 7997 7996 7995 ] final  121.76 input   59.86 | X-H torsion
[ 10167 10162 10161 10158 ] final -127.66 input  -65.29 | X-H torsion
[ 10718 10713 10712 10709 ] final  -35.19 input   66.30 | X-H torsion
[ 10763 10752 10751 10750 ] final -127.27 input  -60.55 | X-H torsion
[ 11005 11000 10999 10996 ] final  -70.01 input  -57.11 | X-H torsion

> <Gold.Protein.ActiveResidues>
 VAL166  LYS551  ARG553  GLY616  TRP617  ASP618  TYR619  PRO620  LYS621  CYS622 
 ASP623  PHE694  ASN695  SER759  ASP760  ASP761  ALA762  ILE779  LEU786  VAL792 
 PHE793  MET794  SER795  GLU796  ALA797  LYS798  CYS799  TRP800  GLU811  SER814 

> <Gold.Protein.RotatedAtoms>
  151.6228  135.1030  160.0104 H   0  0  0  0  0  0  0  0  0  0  0  0  # atno 6907 bound_to 6896
  152.4148  133.7017  159.6438 H   0  0  0  0  0  0  0  0  0  0  0  0  # atno 6908 bound_to 6896
  150.8037  133.8476  159.3237 H   0  0  0  0  0  0  0  0  0  0  0  0  # atno 6909 bound_to 6896
  146.0336  140.6700  142.9121 H   0  0  0  0  0  0  0  0  0  0  0  0  # atno 7974 bound_to 7965
  156.2700  140.2801  156.1359 H   0  0  0  0  0  0  0  0  0  0  0  0  # atno 8008 bound_to 7997
  155.1004  140.0389  157.2713 H   0  0  0  0  0  0  0  0  0  0  0  0  # atno 8009 bound_to 7997
  154.6819  140.2610  155.6905 H   0  0  0  0  0  0  0  0  0  0  0  0  # atno 8010 bound_to 7997
  139.9585  143.5976  152.2453 H   0  0  0  0  0  0  0  0  0  0  0  0  # atno 10167 bound_to 10162
  156.3416  130.4294  149.7783 H   0  0  0  0  0  0  0  0  0  0  0  0  # atno 10718 bound_to 10713
  154.8751  135.3967  154.3567 H   0  0  0  0  0  0  0  0  0  0  0  0  # atno 10763 bound_to 10752
  153.4345  135.7026  153.6214 H   0  0  0  0  0  0  0  0  0  0  0  0  # atno 10764 bound_to 10752
  153.4821  135.3767  155.2417 H   0  0  0  0  0  0  0  0  0  0  0  0  # atno 10765 bound_to 10752
  141.1565  133.6779  156.6687 H   0  0  0  0  0  0  0  0  0  0  0  0  # atno 11005 bound_to 11000
  144.7041  140.3780  143.7132 LP  0  0  0  0  0  0  0  0  0  0  0  0  # atno 17320 bound_to 7965
  145.7000  139.1659  143.2598 LP  0  0  0  0  0  0  0  0  0  0  0  0  # atno 17321 bound_to 7965
  139.6572  144.7662  151.2032 LP  0  0  0  0  0  0  0  0  0  0  0  0  # atno 17342 bound_to 10162
  140.7560  143.6067  150.8646 LP  0  0  0  0  0  0  0  0  0  0  0  0  # atno 17343 bound_to 10162
  156.5017  130.8132  151.3135 LP  0  0  0  0  0  0  0  0  0  0  0  0  # atno 17370 bound_to 10713
  157.7447  130.9942  150.2701 LP  0  0  0  0  0  0  0  0  0  0  0  0  # atno 17371 bound_to 10713
  140.3191  134.8022  157.4238 LP  0  0  0  0  0  0  0  0  0  0  0  0  # atno 17394 bound_to 11000
  140.1112  134.5343  155.8264 LP  0  0  0  0  0  0  0  0  0  0  0  0  # atno 17395 bound_to 11000

$$$$
