AV-unprocessed.smi:1709|AV-procd|sdf|6897|dock5
  -GOLD-   22720 8103D 1   1.00000     0.00000
 Structure written by MMmdl.
 43 45  0  0  0  0  0  0  0  0  2 V2000
  150.2670  137.7370  154.2256 C   0  0  0  0  0  0  0  0  0  0  0  0
  149.6351  139.1192  154.2721 C   0  0  0  0  0  0  0  0  0  0  0  0
  150.3119  140.1630  154.9380 C   0  0  0  0  0  0  0  0  0  0  0  0
  149.7281  141.4404  154.9827 C   0  0  0  0  0  0  0  0  0  0  0  0
  148.4835  141.6203  154.3565 C   0  0  0  0  0  0  0  0  0  0  0  0
  147.8301  140.6282  153.7179 N   0  0  0  0  0  0  0  0  0  0  0  0
  148.3819  139.3885  153.6588 C   0  0  0  0  0  0  0  0  0  0  0  0
  147.7450  138.2786  153.0230 N   0  0  0  0  0  0  0  0  0  0  0  0
  146.4397  137.9763  152.8615 C   0  0  0  0  0  0  0  0  0  0  0  0
  145.5551  138.7084  153.3017 O   0  0  0  0  0  0  0  0  0  0  0  0
  146.1753  136.8355  152.2041 N   0  0  0  0  0  0  0  0  0  0  0  0
  144.8415  136.3403  151.8817 C   0  0  2  0  0  0  0  0  0  0  0  0
  143.9989  136.0325  153.1124 C   0  0  0  0  0  0  0  0  0  0  0  0
  142.9075  135.1107  152.5594 C   0  0  0  0  0  0  0  0  0  0  0  0
  143.4819  134.4281  151.3735 N   0  3  2  0  0  0  0  0  0  0  0  0
  143.4295  132.9433  151.4465 C   0  0  0  0  0  0  0  0  0  0  0  0
  144.3688  132.3088  150.4104 C   0  0  0  0  0  0  0  0  0  0  0  0
  145.8369  132.6991  150.6661 C   0  0  0  0  0  0  0  0  0  0  0  0
  145.9680  134.0177  151.4527 C   0  0  0  0  0  0  0  0  0  0  0  0
  144.8288  135.0090  151.1073 C   0  0  2  0  0  0  0  0  0  0  0  0
  151.2271  137.7211  154.7422 H   0  0  0  0  0  0  0  0  0  0  0  0
  150.4371  137.4298  153.1932 H   0  0  0  0  0  0  0  0  0  0  0  0
  149.6175  137.0031  154.7035 H   0  0  0  0  0  0  0  0  0  0  0  0
  151.2673  139.9897  155.4112 H   0  0  0  0  0  0  0  0  0  0  0  0
  150.2209  142.2596  155.4854 H   0  0  0  0  0  0  0  0  0  0  0  0
  147.9977  142.5847  154.3685 H   0  0  0  0  0  0  0  0  0  0  0  0
  148.3827  137.5645  152.7024 H   0  0  0  0  0  0  0  0  0  0  0  0
  146.9604  136.2898  151.8771 H   0  0  0  0  0  0  0  0  0  0  0  0
  144.3103  137.0944  151.2966 H   0  0  0  0  0  0  0  0  0  0  0  0
  144.5933  135.4981  153.8552 H   0  0  0  0  0  0  0  0  0  0  0  0
  143.5944  136.9276  153.5857 H   0  0  0  0  0  0  0  0  0  0  0  0
  142.5429  134.4196  153.3205 H   0  0  0  0  0  0  0  0  0  0  0  0
  142.0549  135.7017  152.2236 H   0  0  0  0  0  0  0  0  0  0  0  0
  143.7159  132.6044  152.4438 H   0  0  0  0  0  0  0  0  0  0  0  0
  142.4019  132.6165  151.2851 H   0  0  0  0  0  0  0  0  0  0  0  0
  144.2663  131.2232  150.4134 H   0  0  0  0  0  0  0  0  0  0  0  0
  144.0713  132.6399  149.4144 H   0  0  0  0  0  0  0  0  0  0  0  0
  146.3457  131.9068  151.2164 H   0  0  0  0  0  0  0  0  0  0  0  0
  146.3528  132.7818  149.7087 H   0  0  0  0  0  0  0  0  0  0  0  0
  145.9473  133.8037  152.5223 H   0  0  0  0  0  0  0  0  0  0  0  0
  146.9468  134.4536  151.2513 H   0  0  0  0  0  0  0  0  0  0  0  0
  144.8962  135.2251  150.0399 H   0  0  0  0  0  0  0  0  0  0  0  0
  142.9087  134.6981  150.5869 H   0  0  0  0  0  0  0  0  0  0  0  0
  1  2  1  0  0  0  0
  1 21  1  0  0  0  0
  1 22  1  0  0  0  0
  1 23  1  0  0  0  0
  2  7  1  0  0  0  0
  2  3  2  0  0  0  0
  3  4  1  0  0  0  0
  3 24  1  0  0  0  0
  4  5  2  0  0  0  0
  4 25  1  0  0  0  0
  5  6  1  0  0  0  0
  5 26  1  0  0  0  0
  6  7  2  0  0  0  0
  7  8  1  0  0  0  0
  8  9  1  0  0  0  0
  8 27  1  0  0  0  0
  9 10  2  0  0  0  0
  9 11  1  0  0  0  0
 11 12  1  0  0  0  0
 11 28  1  0  0  0  0
 12 20  1  0  0  0  0
 12 13  1  0  0  0  0
 12 29  1  0  0  0  0
 13 14  1  0  0  0  0
 13 30  1  0  0  0  0
 13 31  1  0  0  0  0
 14 15  1  0  0  0  0
 14 32  1  0  0  0  0
 14 33  1  0  0  0  0
 15 20  1  0  0  0  0
 15 16  1  0  0  0  0
 15 43  1  0  0  0  0
 16 17  1  0  0  0  0
 16 34  1  0  0  0  0
 16 35  1  0  0  0  0
 17 18  1  0  0  0  0
 17 36  1  0  0  0  0
 17 37  1  0  0  0  0
 18 19  1  0  0  0  0
 18 38  1  0  0  0  0
 18 39  1  0  0  0  0
 19 20  1  0  0  0  0
 19 40  1  0  0  0  0
 19 41  1  0  0  0  0
 20 42  1  0  0  0  0
M  CHG  1  15   1
M  END
> <s_m_source_file>
AV-unprocessed.smi

> <i_m_source_file_index>
1709

> <i_lp_mmshare_version>
43012

> <i_f3d_flags>
0

> <s_epik_input>
W0NIM11jMVtjSF1bY0hdW2NIXW5jMVtOSF1DKD1PKVtOSF1bQ0BIXShbQ0gyXVtDSDJdMilbQ0BASF0oTjIzKVtDSDJdW0NIMl1bQ0gyXVtDSDJdMw==

> <s_epik_cmdline>
J2VwaWtfcHl0aG9uJywgJy1waCcsICc3LjAnLCAnLXRuJywgJzgnLCAnLW1hJywgJzIwMCcsICctbWV0YWxfYmluZGluZycsICctaW1hZScsICc8aW5maWxlLm1hZT4nLCAnLW9tYWUnLCAnPG91dGZpbGUubWFlPic=

> <r_epik_Ionization_Penalty>
0.00101524

> <r_epik_Ionization_Penalty_Charging>
0.000974069

> <r_epik_Ionization_Penalty_Neutral>
4.11757e-05

> <r_epik_State_Penalty>
0.000633842

> <r_epik_Charging_Adjusted_Penalty>
0.00160791

> <i_epik_Tot_Q>
1

> <i_epik_Tot_abs_Q>
1

> <r_epik_Metal_State_Penalty>
-0

> <b_epik_Metal_Only>
0

> <s_lp_Force_Field>
OPLS_2005

> <r_lp_Energy>
45.6111

> <b_lp_Chiralities_Consistent>
1

> <s_lp_Variant>
AV-unprocessed.smi:1709-7

> <Gold.Version>
5.8.1

> <Gold.Id.Protein>
6NUR|6NUR_protein|mol2

> <Gold.PLP.Fitness>
45.9472

> <Gold.PLP.PLP>
-34.8296

> <Gold.PLP.part.hbond>
-3.2255

> <Gold.PLP.part.metal>
0.0000

> <Gold.PLP.part.buried>
-3.3981

> <Gold.PLP.part.nonpolar>
-32.3464

> <Gold.PLP.part.repulsive>
2.7977

> <Gold.PLP.ligand.clash>
0.0000

> <Gold.PLP.ligand.torsion>
0.2040

> <Gold.PLP.Chemscore.Hbond>
3.0240

> <Gold.PLP.Chemscore.CHOScore>
0.8170

> <Gold.PLP.Chemscore.Metal>
0.0000

> <Gold.Chemscore.Hbonds>
donor molecule, donor type, donor heavy atom, donor atom, acceptor molecule, acceptor atom, score
      L1  H     8    27       P1  7948  1.00
      L1  H    11    28       P1  7948  0.88
      L1  H    15    43       P1 10186  1.21
      L1  C     5    26       P1  8028  0.73

> <Gold.PLP.Chemscore.Internal.Correction>
0.0028

> <Gold.Rescore>
     Score         DG    S(hbond)    S(metal)    S(lipo)     H(rot)  DE(clash)    DE(int)     intcor
     18.45     -20.76       2.35        0.00      85.33       1.00       1.38       0.92       ----

> <Gold.Chemscore.Fitness>
18.4511

> <Gold.Chemscore.DG>
-20.7555

> <Gold.Chemscore.ZeroCoef>
-5.4800

> <Gold.Chemscore.Hbond>
2.3507

> <Gold.Chemscore.Metal>
0.0000

> <Gold.Chemscore.Lipo>
85.3339

> <Gold.Chemscore.Internal_Hbond>
0.0000

> <Gold.Chemscore.DEClash>
1.3815

> <Gold.Chemscore.DEInternal>
0.9229

> <Gold.Chemscore.Rot>
1.0000

> <Gold.Chemscore.Internal.Correction>
   9.000000E+99

> <Gold.Chemscore.Hbonds>
donor molecule, donor type, donor heavy atom, donor atom, acceptor molecule, acceptor atom, score
      L1  H     8    27       P1  7948  0.99
      L1  H    11    28       P1  7948  0.85
      L1  H    15    43       P1 10186  0.15

> <Gold.Chemscore.Hbond.Weighted>
-7.8514

> <Gold.Chemscore.Metal.Weighted>
-0.0000

> <Gold.Chemscore.Lipo.Weighted>
-9.9841

> <Gold.Chemscore.Internal_Hbond.Weighted>
0.0000

> <Gold.Chemscore.DEClash.Weighted>
1.3815

> <Gold.Chemscore.DEInternal.Weighted>
0.9229

> <Gold.Chemscore.Rot.Weighted>
2.5600

> <Gold.Chemscore.Internal.Correction.Weighted>
   9.000000E+99

> <Gold.Protein.RotatedTorsions>
[ 6907 6896 6895 6894 ] final -171.37 input  -60.11 | X-H torsion
[ 7974 7965 7964 7962 ] final -149.87 input  175.53 | X-H torsion
[ 8008 7997 7996 7995 ] final  -66.45 input   59.86 | X-H torsion
[ 10167 10162 10161 10158 ] final   80.74 input  -65.29 | X-H torsion
[ 10718 10713 10712 10709 ] final  -39.25 input   66.30 | X-H torsion
[ 10763 10752 10751 10750 ] final   96.88 input  -60.55 | X-H torsion
[ 11005 11000 10999 10996 ] final   35.54 input  -57.11 | X-H torsion

> <Gold.Protein.ActiveResidues>
 VAL166  LYS551  ARG553  GLY616  TRP617  ASP618  TYR619  PRO620  LYS621  CYS622 
 ASP623  PHE694  ASN695  SER759  ASP760  ASP761  ALA762  ILE779  LEU786  VAL792 
 PHE793  MET794  SER795  GLU796  ALA797  LYS798  CYS799  TRP800  GLU811  SER814 

> <Gold.Protein.RotatedAtoms>
  151.5227  133.3463  159.2903 H   0  0  0  0  0  0  0  0  0  0  0  0  # atno 6907 bound_to 6896
  150.8642  134.8004  159.7117 H   0  0  0  0  0  0  0  0  0  0  0  0  # atno 6908 bound_to 6896
  152.4652  134.5101  159.9803 H   0  0  0  0  0  0  0  0  0  0  0  0  # atno 6909 bound_to 6896
  144.7941  140.5008  143.5752 H   0  0  0  0  0  0  0  0  0  0  0  0  # atno 7974 bound_to 7965
  154.4735  140.0912  156.7204 H   0  0  0  0  0  0  0  0  0  0  0  0  # atno 8008 bound_to 7997
  155.4659  140.3462  155.4300 H   0  0  0  0  0  0  0  0  0  0  0  0  # atno 8009 bound_to 7997
  156.1079  140.1439  156.9368 H   0  0  0  0  0  0  0  0  0  0  0  0  # atno 8010 bound_to 7997
  139.9466  144.6054  150.8201 H   0  0  0  0  0  0  0  0  0  0  0  0  # atno 10167 bound_to 10162
  156.2946  130.4232  149.8204 H   0  0  0  0  0  0  0  0  0  0  0  0  # atno 10718 bound_to 10713
  153.2703  135.4203  155.0981 H   0  0  0  0  0  0  0  0  0  0  0  0  # atno 10763 bound_to 10752
  154.8453  135.3470  154.6254 H   0  0  0  0  0  0  0  0  0  0  0  0  # atno 10764 bound_to 10752
  153.6674  135.7045  153.5215 H   0  0  0  0  0  0  0  0  0  0  0  0  # atno 10765 bound_to 10752
  140.2416  134.3408  155.7923 H   0  0  0  0  0  0  0  0  0  0  0  0  # atno 11005 bound_to 11000
  145.5717  139.1484  143.3284 LP  0  0  0  0  0  0  0  0  0  0  0  0  # atno 17320 bound_to 7965
  146.2204  140.5850  142.9020 LP  0  0  0  0  0  0  0  0  0  0  0  0  # atno 17321 bound_to 7965
  140.7595  143.3131  151.2797 LP  0  0  0  0  0  0  0  0  0  0  0  0  # atno 17342 bound_to 10162
  139.6662  144.0101  152.2724 LP  0  0  0  0  0  0  0  0  0  0  0  0  # atno 17343 bound_to 10162
  156.5605  130.8381  151.3327 LP  0  0  0  0  0  0  0  0  0  0  0  0  # atno 17370 bound_to 10713
  157.7352  130.9758  150.2067 LP  0  0  0  0  0  0  0  0  0  0  0  0  # atno 17371 bound_to 10713
  141.2210  133.7302  156.8895 LP  0  0  0  0  0  0  0  0  0  0  0  0  # atno 17394 bound_to 11000
  140.1647  134.9141  157.2759 LP  0  0  0  0  0  0  0  0  0  0  0  0  # atno 17395 bound_to 11000

$$$$
