AV-unprocessed.smi:1115|AV-procd|sdf|4806|dock8
  -GOLD-   22720 3353D 1   1.00000     0.00000
 Structure written by MMmdl.
 51 52  0  0  0  0  0  0  0  0  4 V2000
  150.4990  144.6899  159.3045 C   0  0  0  0  0  0  0  0  0  0  0  0
  151.5598  144.0155  158.5681 N   0  0  0  0  0  0  0  0  0  0  0  0
  152.8110  144.7088  158.2833 C   0  0  0  0  0  0  0  0  0  0  0  0
  151.3148  142.7501  157.9921 C   0  0  0  0  0  0  0  0  0  0  0  0
  151.8275  141.5427  158.5267 C   0  0  0  0  0  0  0  0  0  0  0  0
  151.5371  140.3164  157.8943 C   0  0  0  0  0  0  0  0  0  0  0  0
  150.7462  140.2983  156.7275 C   0  0  0  0  0  0  0  0  0  0  0  0
  150.4610  139.0359  156.1403 N   0  0  0  0  0  0  0  0  0  0  0  0
  150.2192  138.7311  154.8525 C   0  0  0  0  0  0  0  0  0  0  0  0
  150.2711  139.6070  153.9820 O   0  0  0  0  0  0  0  0  0  0  0  0
  149.9520  137.4089  154.6828 N   0  5  0  0  0  0  0  0  0  0  0  0
  149.2798  136.5641  155.6766 C   0  0  0  0  0  0  0  0  0  0  0  0
  147.8685  136.1047  155.1657 C   0  0  0  0  0  0  0  0  0  0  0  0
  146.9690  135.6971  156.3663 C   0  0  0  0  0  0  0  0  0  0  0  0
  147.1599  137.3284  154.5047 C   0  0  0  0  0  0  0  0  0  0  0  0
  148.0425  134.9474  154.2016 N   0  3  0  0  0  0  0  0  0  0  0  0
  148.8217  133.7750  154.7054 C   0  0  0  0  0  0  0  0  0  0  0  0
  149.1380  132.8052  153.5583 C   0  0  0  0  0  0  0  0  0  0  0  0
  147.9209  132.3561  152.9804 O   0  0  0  0  0  0  0  0  0  0  0  0
  147.1808  133.4311  152.4201 C   0  0  0  0  0  0  0  0  0  0  0  0
  146.8172  134.4561  153.5092 C   0  0  0  0  0  0  0  0  0  0  0  0
  150.2469  141.5284  156.2387 C   0  0  0  0  0  0  0  0  0  0  0  0
  150.5491  142.6803  156.8757 N   0  3  0  0  0  0  0  0  0  0  0  0
  149.6144  144.8109  158.6789 H   0  0  0  0  0  0  0  0  0  0  0  0
  150.8124  145.6810  159.6331 H   0  0  0  0  0  0  0  0  0  0  0  0
  150.2243  144.1170  160.1904 H   0  0  0  0  0  0  0  0  0  0  0  0
  152.8973  144.9193  157.2170 H   0  0  0  0  0  0  0  0  0  0  0  0
  153.6639  144.1023  158.5885 H   0  0  0  0  0  0  0  0  0  0  0  0
  152.8697  145.6566  158.8187 H   0  0  0  0  0  0  0  0  0  0  0  0
  152.4412  141.5344  159.4148 H   0  0  0  0  0  0  0  0  0  0  0  0
  151.9262  139.3954  158.3035 H   0  0  0  0  0  0  0  0  0  0  0  0
  150.4968  138.2469  156.7688 H   0  0  0  0  0  0  0  0  0  0  0  0
  149.8769  135.6794  155.9002 H   0  0  0  0  0  0  0  0  0  0  0  0
  149.1657  137.0799  156.6307 H   0  0  0  0  0  0  0  0  0  0  0  0
  146.7560  136.5425  157.0241 H   0  0  0  0  0  0  0  0  0  0  0  0
  147.4025  134.9157  156.9936 H   0  0  0  0  0  0  0  0  0  0  0  0
  146.0044  135.3267  156.0178 H   0  0  0  0  0  0  0  0  0  0  0  0
  147.0811  138.1826  155.1813 H   0  0  0  0  0  0  0  0  0  0  0  0
  146.1334  137.0912  154.2230 H   0  0  0  0  0  0  0  0  0  0  0  0
  147.6671  137.6816  153.6043 H   0  0  0  0  0  0  0  0  0  0  0  0
  149.7599  134.0862  155.1644 H   0  0  0  0  0  0  0  0  0  0  0  0
  148.2520  133.2457  155.4702 H   0  0  0  0  0  0  0  0  0  0  0  0
  149.7683  133.2803  152.8046 H   0  0  0  0  0  0  0  0  0  0  0  0
  149.6867  131.9425  153.9367 H   0  0  0  0  0  0  0  0  0  0  0  0
  147.7561  133.9034  151.6222 H   0  0  0  0  0  0  0  0  0  0  0  0
  146.2747  133.0335  151.9630 H   0  0  0  0  0  0  0  0  0  0  0  0
  146.1355  134.0137  154.2368 H   0  0  0  0  0  0  0  0  0  0  0  0
  146.2849  135.2642  153.0103 H   0  0  0  0  0  0  0  0  0  0  0  0
  149.6085  141.6405  155.3754 H   0  0  0  0  0  0  0  0  0  0  0  0
  150.1740  143.5487  156.4943 H   0  0  0  0  0  0  0  0  0  0  0  0
  148.6061  135.3513  153.4655 H   0  0  0  0  0  0  0  0  0  0  0  0
  1  2  1  0  0  0  0
  1 24  1  0  0  0  0
  1 25  1  0  0  0  0
  1 26  1  0  0  0  0
  2  3  1  0  0  0  0
  2  4  1  0  0  0  0
  3 27  1  0  0  0  0
  3 28  1  0  0  0  0
  3 29  1  0  0  0  0
  4 23  1  0  0  0  0
  4  5  2  0  0  0  0
  5  6  1  0  0  0  0
  5 30  1  0  0  0  0
  6  7  2  0  0  0  0
  6 31  1  0  0  0  0
  7  8  1  0  0  0  0
  7 22  1  0  0  0  0
  8  9  1  0  0  0  0
  8 32  1  0  0  0  0
  9 10  2  0  0  0  0
  9 11  1  0  0  0  0
 11 12  1  0  0  0  0
 12 13  1  0  0  0  0
 12 33  1  0  0  0  0
 12 34  1  0  0  0  0
 13 14  1  0  0  0  0
 13 15  1  0  0  0  0
 13 16  1  0  0  0  0
 14 35  1  0  0  0  0
 14 36  1  0  0  0  0
 14 37  1  0  0  0  0
 15 38  1  0  0  0  0
 15 39  1  0  0  0  0
 15 40  1  0  0  0  0
 16 21  1  0  0  0  0
 16 17  1  0  0  0  0
 16 51  1  0  0  0  0
 17 18  1  0  0  0  0
 17 41  1  0  0  0  0
 17 42  1  0  0  0  0
 18 19  1  0  0  0  0
 18 43  1  0  0  0  0
 18 44  1  0  0  0  0
 19 20  1  0  0  0  0
 20 21  1  0  0  0  0
 20 45  1  0  0  0  0
 20 46  1  0  0  0  0
 21 47  1  0  0  0  0
 21 48  1  0  0  0  0
 22 23  2  0  0  0  0
 22 49  1  0  0  0  0
 23 50  1  0  0  0  0
M  CHG  1  11  -1
M  CHG  1  16   1
M  CHG  1  23   1
M  END
> <s_m_source_file>
AV-unprocessed.smi

> <i_m_source_file_index>
1115

> <i_lp_mmshare_version>
43012

> <i_f3d_flags>
0

> <s_epik_input>
W0NIM11OKFtDSDNdKWMxW2NIXVtjSF1jKFtjSF1uMSlbTkhdQyg9TylbTkhdW0NIMl1DKFtDSDNdKShbQ0gzXSlOMltDSDJdW0NIMl1PW0NIMl1bQ0gyXTI=

> <s_epik_cmdline>
J2VwaWtfcHl0aG9uJywgJy1waCcsICc3LjAnLCAnLXRuJywgJzgnLCAnLW1hJywgJzIwMCcsICctbWV0YWxfYmluZGluZycsICctaW1hZScsICc8aW5maWxlLm1hZT4nLCAnLW9tYWUnLCAnPG91dGZpbGUubWFlPic=

> <r_lp_tautomer_probability>
0.999994

> <r_epik_Ionization_Penalty>
7.4335

> <r_epik_Ionization_Penalty_Charging>
7.4335

> <r_epik_Ionization_Penalty_Neutral>
3.43851e-06

> <r_epik_State_Penalty>
7.6346

> <r_epik_Charging_Adjusted_Penalty>
15.0681

> <i_epik_Tot_Q>
1

> <i_epik_Tot_abs_Q>
3

> <r_epik_Metal_State_Penalty>
3.83601

> <b_epik_Metal_Only>
1

> <s_lp_Force_Field>
OPLS_2005

> <r_lp_Energy>
31.3993

> <b_lp_Chiralities_Consistent>
1

> <s_lp_Variant>
AV-unprocessed.smi:1115-5

> <Gold.Version>
5.8.1

> <Gold.Id.Protein>
6NUR|6NUR_protein|mol2

> <Gold.PLP.Fitness>
47.3045

> <Gold.PLP.PLP>
-36.3860

> <Gold.PLP.part.hbond>
-3.0000

> <Gold.PLP.part.metal>
0.0000

> <Gold.PLP.part.buried>
-6.2894

> <Gold.PLP.part.nonpolar>
-29.4274

> <Gold.PLP.part.repulsive>
1.8175

> <Gold.PLP.ligand.clash>
0.0000

> <Gold.PLP.ligand.torsion>
2.1579

> <Gold.PLP.Chemscore.Hbond>
5.0000

> <Gold.PLP.Chemscore.CHOScore>
0.0000

> <Gold.PLP.Chemscore.Metal>
0.0000

> <Gold.Chemscore.Hbonds>
donor molecule, donor type, donor heavy atom, donor atom, acceptor molecule, acceptor atom, score
      L1  H    16    51       P1  7948  2.00
      L1  H    23    50       P1  8028  2.00
      P1  H  7989  7998       L1    10  1.00

> <Gold.PLP.Chemscore.Internal.Correction>
0.2342

> <Gold.Rescore>
     Score         DG    S(hbond)    S(metal)    S(lipo)     H(rot)  DE(clash)    DE(int)     intcor
     17.13     -20.17       2.95        0.00      73.34       1.46       0.03       3.02       ----

> <Gold.Chemscore.Fitness>
17.1289

> <Gold.Chemscore.DG>
-20.1732

> <Gold.Chemscore.ZeroCoef>
-5.4800

> <Gold.Chemscore.Hbond>
2.9527

> <Gold.Chemscore.Metal>
0.0000

> <Gold.Chemscore.Lipo>
73.3417

> <Gold.Chemscore.Internal_Hbond>
0.0000

> <Gold.Chemscore.DEClash>
0.0270

> <Gold.Chemscore.DEInternal>
3.0173

> <Gold.Chemscore.Rot>
1.4648

> <Gold.Chemscore.Internal.Correction>
   9.000000E+99

> <Gold.Chemscore.Hbonds>
donor molecule, donor type, donor heavy atom, donor atom, acceptor molecule, acceptor atom, score
      L1  H    16    51       P1  7948  0.92
      L1  H    23    50       P1  8028  0.99
      P1  H  7989  7998       L1    10  0.97

> <Gold.Chemscore.Hbond.Weighted>
-9.8622

> <Gold.Chemscore.Metal.Weighted>
-0.0000

> <Gold.Chemscore.Lipo.Weighted>
-8.5810

> <Gold.Chemscore.Internal_Hbond.Weighted>
0.0000

> <Gold.Chemscore.DEClash.Weighted>
0.0270

> <Gold.Chemscore.DEInternal.Weighted>
3.0173

> <Gold.Chemscore.Rot.Weighted>
3.7499

> <Gold.Chemscore.Internal.Correction.Weighted>
   9.000000E+99

> <Gold.Protein.RotatedTorsions>
[ 6907 6896 6895 6894 ] final  -51.44 input  -60.11 | X-H torsion
[ 7974 7965 7964 7962 ] final -156.59 input  175.53 | X-H torsion
[ 8008 7997 7996 7995 ] final -137.54 input   59.86 | X-H torsion
[ 10167 10162 10161 10158 ] final  174.08 input  -65.29 | X-H torsion
[ 10718 10713 10712 10709 ] final  163.51 input   66.30 | X-H torsion
[ 10763 10752 10751 10750 ] final  165.33 input  -60.55 | X-H torsion
[ 11005 11000 10999 10996 ] final   66.33 input  -57.11 | X-H torsion

> <Gold.Protein.ActiveResidues>
 VAL166  LYS551  ARG553  GLY616  TRP617  ASP618  TYR619  PRO620  LYS621  CYS622 
 ASP623  PHE694  ASN695  SER759  ASP760  ASP761  ALA762  ILE779  LEU786  VAL792 
 PHE793  MET794  SER795  GLU796  ALA797  LYS798  CYS799  TRP800  GLU811  SER814 

> <Gold.Protein.RotatedAtoms>
  150.8611  134.7964  159.7083 H   0  0  0  0  0  0  0  0  0  0  0  0  # atno 6907 bound_to 6896
  152.4648  134.5098  159.9760 H   0  0  0  0  0  0  0  0  0  0  0  0  # atno 6908 bound_to 6896
  151.5201  133.3430  159.2935 H   0  0  0  0  0  0  0  0  0  0  0  0  # atno 6909 bound_to 6896
  144.7586  140.4088  143.5993 H   0  0  0  0  0  0  0  0  0  0  0  0  # atno 7974 bound_to 7965
  155.4136  140.0514  157.3030 H   0  0  0  0  0  0  0  0  0  0  0  0  # atno 8008 bound_to 7997
  154.4935  140.2129  155.9457 H   0  0  0  0  0  0  0  0  0  0  0  0  # atno 8009 bound_to 7997
  156.1374  140.3160  155.8447 H   0  0  0  0  0  0  0  0  0  0  0  0  # atno 8010 bound_to 7997
  139.5130  144.3187  152.0223 H   0  0  0  0  0  0  0  0  0  0  0  0  # atno 10167 bound_to 10162
  157.1075  131.0459  151.2471 H   0  0  0  0  0  0  0  0  0  0  0  0  # atno 10718 bound_to 10713
  154.3224  135.2756  155.2513 H   0  0  0  0  0  0  0  0  0  0  0  0  # atno 10763 bound_to 10752
  154.4860  135.5846  153.6428 H   0  0  0  0  0  0  0  0  0  0  0  0  # atno 10764 bound_to 10752
  152.9875  135.6123  154.3410 H   0  0  0  0  0  0  0  0  0  0  0  0  # atno 10765 bound_to 10752
  139.9838  134.6700  156.0213 H   0  0  0  0  0  0  0  0  0  0  0  0  # atno 11005 bound_to 11000
  145.6694  139.1596  143.2763 LP  0  0  0  0  0  0  0  0  0  0  0  0  # atno 17320 bound_to 7965
  146.1625  140.6767  142.9271 LP  0  0  0  0  0  0  0  0  0  0  0  0  # atno 17321 bound_to 7965
  140.2629  144.4047  150.6179 LP  0  0  0  0  0  0  0  0  0  0  0  0  # atno 17342 bound_to 10162
  140.6144  143.2171  151.6822 LP  0  0  0  0  0  0  0  0  0  0  0  0  # atno 17343 bound_to 10162
  157.4588  130.7641  149.7217 LP  0  0  0  0  0  0  0  0  0  0  0  0  # atno 17370 bound_to 10713
  155.9858  130.3979  150.3241 LP  0  0  0  0  0  0  0  0  0  0  0  0  # atno 17371 bound_to 10713
  141.1507  133.6549  156.4003 LP  0  0  0  0  0  0  0  0  0  0  0  0  # atno 17394 bound_to 11000
  140.5042  134.6456  157.5260 LP  0  0  0  0  0  0  0  0  0  0  0  0  # atno 17395 bound_to 11000

$$$$
