AV-unprocessed.smi:2593|AV-procd|sdf|10163|dock10
  -GOLD-   2272014173D 1   1.00000     0.00000
 Structure written by MMmdl.
 40 42  0  0  0  0  0  0  0  0  1 V2000
  152.8550  138.7013  154.6888 C   0  0  0  0  0  0  0  0  0  0  0  0
  152.9590  139.0937  156.0457 O   0  0  0  0  0  0  0  0  0  0  0  0
  151.6972  139.3778  156.6283 C   0  0  0  0  0  0  0  0  0  0  0  0
  151.7086  138.9682  158.1074 C   0  0  0  0  0  0  0  0  0  0  0  0
  152.4009  139.9416  158.9388 N   0  0  0  0  0  0  0  0  0  0  0  0
  153.4000  139.7158  159.8254 C   0  0  0  0  0  0  0  0  0  0  0  0
  154.0522  138.1062  160.1097 S   0  0  0  0  0  0  0  0  0  0  0  0
  153.9771  138.1423  161.9204 C   0  0  0  0  0  0  0  0  0  0  0  0
  154.2308  136.7530  162.4684 C   0  0  0  0  0  0  0  0  0  0  0  0
  154.0396  136.4760  163.8388 C   0  0  0  0  0  0  0  0  0  0  0  0
  154.2946  135.1705  164.3001 C   0  0  0  0  0  0  0  0  0  0  0  0
  154.7299  134.1981  163.3790 C   0  0  0  0  0  0  0  0  0  0  0  0
  154.8926  134.5755  162.0303 C   0  0  0  0  0  0  0  0  0  0  0  0
  155.3237  133.6419  161.0914 N   0  0  0  0  0  0  0  0  0  0  0  0
  154.6494  135.8246  161.5787 N   0  0  0  0  0  0  0  0  0  0  0  0
  153.8595  140.7895  160.4675 N   0  0  0  0  0  0  0  0  0  0  0  0
  153.0924  141.8100  159.9402 C   0  0  0  0  0  0  0  0  0  0  0  0
  153.0995  143.1976  160.2094 C   0  0  0  0  0  0  0  0  0  0  0  0
  152.2114  144.0602  159.5341 C   0  0  0  0  0  0  0  0  0  0  0  0
  151.3068  143.5494  158.5809 C   0  0  0  0  0  0  0  0  0  0  0  0
  151.2822  142.1700  158.2988 C   0  0  0  0  0  0  0  0  0  0  0  0
  152.1694  141.3129  158.9771 C   0  0  0  0  0  0  0  0  0  0  0  0
  153.8486  138.4983  154.2892 H   0  0  0  0  0  0  0  0  0  0  0  0
  152.4031  139.4885  154.0843 H   0  0  0  0  0  0  0  0  0  0  0  0
  152.2590  137.7937  154.5860 H   0  0  0  0  0  0  0  0  0  0  0  0
  151.4773  140.4428  156.5417 H   0  0  0  0  0  0  0  0  0  0  0  0
  150.9108  138.8392  156.0975 H   0  0  0  0  0  0  0  0  0  0  0  0
  150.6865  138.8623  158.4717 H   0  0  0  0  0  0  0  0  0  0  0  0
  152.1785  137.9922  158.2310 H   0  0  0  0  0  0  0  0  0  0  0  0
  154.7258  138.8355  162.3053 H   0  0  0  0  0  0  0  0  0  0  0  0
  152.9995  138.5070  162.2387 H   0  0  0  0  0  0  0  0  0  0  0  0
  153.7076  137.2457  164.5201 H   0  0  0  0  0  0  0  0  0  0  0  0
  154.1605  134.9196  165.3419 H   0  0  0  0  0  0  0  0  0  0  0  0
  154.9333  133.1883  163.7042 H   0  0  0  0  0  0  0  0  0  0  0  0
  155.5269  132.6873  161.3501 H   0  0  0  0  0  0  0  0  0  0  0  0
  155.4720  133.8978  160.1259 H   0  0  0  0  0  0  0  0  0  0  0  0
  153.7901  143.5990  160.9362 H   0  0  0  0  0  0  0  0  0  0  0  0
  152.2253  145.1190  159.7472 H   0  0  0  0  0  0  0  0  0  0  0  0
  150.6317  144.2172  158.0660 H   0  0  0  0  0  0  0  0  0  0  0  0
  150.5925  141.7762  157.5673 H   0  0  0  0  0  0  0  0  0  0  0  0
  1  2  1  0  0  0  0
  1 23  1  0  0  0  0
  1 24  1  0  0  0  0
  1 25  1  0  0  0  0
  2  3  1  0  0  0  0
  3  4  1  0  0  0  0
  3 26  1  0  0  0  0
  3 27  1  0  0  0  0
  4  5  1  0  0  0  0
  4 28  1  0  0  0  0
  4 29  1  0  0  0  0
  5 22  1  0  0  0  0
  5  6  1  0  0  0  0
  6  7  1  0  0  0  0
  6 16  2  0  0  0  0
  7  8  1  0  0  0  0
  8  9  1  0  0  0  0
  8 30  1  0  0  0  0
  8 31  1  0  0  0  0
  9 15  1  0  0  0  0
  9 10  2  0  0  0  0
 10 11  1  0  0  0  0
 10 32  1  0  0  0  0
 11 12  2  0  0  0  0
 11 33  1  0  0  0  0
 12 13  1  0  0  0  0
 12 34  1  0  0  0  0
 13 14  1  0  0  0  0
 13 15  2  0  0  0  0
 14 35  1  0  0  0  0
 14 36  1  0  0  0  0
 16 17  1  0  0  0  0
 17 22  2  0  0  0  0
 17 18  1  0  0  0  0
 18 19  2  0  0  0  0
 18 37  1  0  0  0  0
 19 20  1  0  0  0  0
 19 38  1  0  0  0  0
 20 21  2  0  0  0  0
 20 39  1  0  0  0  0
 21 22  1  0  0  0  0
 21 40  1  0  0  0  0
M  END
> <s_m_source_file>
AV-unprocessed.smi

> <i_m_source_file_index>
2593

> <i_lp_mmshare_version>
43012

> <i_f3d_flags>
0

> <s_epik_input>
W2NIXTFbY0hdW2NIXVtjSF1jKGMxMiluKFtDSDJdW0NIMl1PW0NIM10pYyhuMilTW0NIMl1jM1tjSF1bY0hdW2NIXWMobjMpW05IMl0=

> <s_epik_cmdline>
J2VwaWtfcHl0aG9uJywgJy1waCcsICc3LjAnLCAnLXRuJywgJzgnLCAnLW1hJywgJzIwMCcsICctbWV0YWxfYmluZGluZycsICctaW1hZScsICc8aW5maWxlLm1hZT4nLCAnLW9tYWUnLCAnPG91dGZpbGUubWFlPic=

> <r_lp_tautomer_probability>
1

> <r_epik_Ionization_Penalty>
0.0555631

> <r_epik_Ionization_Penalty_Charging>
0

> <r_epik_Ionization_Penalty_Neutral>
0.0555631

> <r_epik_State_Penalty>
0.0451694

> <r_epik_Charging_Adjusted_Penalty>
0.0451694

> <i_epik_Tot_Q>
0

> <i_epik_Tot_abs_Q>
0

> <r_epik_Metal_State_Penalty>
0.0431775

> <b_epik_Metal_Only>
0

> <s_lp_Force_Field>
OPLS_2005

> <r_lp_Energy>
6.83129

> <b_lp_Chiralities_Consistent>
1

> <s_lp_Variant>
AV-unprocessed.smi:2593-1

> <Gold.Version>
5.8.1

> <Gold.Id.Protein>
6NUR|6NUR_protein|mol2

> <Gold.PLP.Fitness>
49.1129

> <Gold.PLP.PLP>
-47.2411

> <Gold.PLP.part.hbond>
-1.0000

> <Gold.PLP.part.metal>
0.0000

> <Gold.PLP.part.buried>
-6.6155

> <Gold.PLP.part.nonpolar>
-39.6857

> <Gold.PLP.part.repulsive>
0.0572

> <Gold.PLP.ligand.clash>
0.0000

> <Gold.PLP.ligand.torsion>
0.5920

> <Gold.PLP.Chemscore.Hbond>
1.0000

> <Gold.PLP.Chemscore.CHOScore>
0.0000

> <Gold.PLP.Chemscore.Metal>
0.0000

> <Gold.Chemscore.Hbonds>
donor molecule, donor type, donor heavy atom, donor atom, acceptor molecule, acceptor atom, score
      P1  H  7997  8010       L1     2  1.00

> <Gold.PLP.Chemscore.Internal.Correction>
0.0559

> <Gold.Rescore>
     Score         DG    S(hbond)    S(metal)    S(lipo)     H(rot)  DE(clash)    DE(int)     intcor
     18.26     -18.88       0.96        0.00     133.71       2.13       0.05       0.58       ----

> <Gold.Chemscore.Fitness>
18.2569

> <Gold.Chemscore.DG>
-18.8797

> <Gold.Chemscore.ZeroCoef>
-5.4800

> <Gold.Chemscore.Hbond>
0.9575

> <Gold.Chemscore.Metal>
0.0000

> <Gold.Chemscore.Lipo>
133.7121

> <Gold.Chemscore.Internal_Hbond>
0.0000

> <Gold.Chemscore.DEClash>
0.0477

> <Gold.Chemscore.DEInternal>
0.5751

> <Gold.Chemscore.Rot>
2.1260

> <Gold.Chemscore.Internal.Correction>
   9.000000E+99

> <Gold.Chemscore.Hbonds>
donor molecule, donor type, donor heavy atom, donor atom, acceptor molecule, acceptor atom, score
      P1  H  7997  8010       L1     2  0.87

> <Gold.Chemscore.Hbond.Weighted>
-3.1979

> <Gold.Chemscore.Metal.Weighted>
-0.0000

> <Gold.Chemscore.Lipo.Weighted>
-15.6443

> <Gold.Chemscore.Internal_Hbond.Weighted>
0.0000

> <Gold.Chemscore.DEClash.Weighted>
0.0477

> <Gold.Chemscore.DEInternal.Weighted>
0.5751

> <Gold.Chemscore.Rot.Weighted>
5.4425

> <Gold.Chemscore.Internal.Correction.Weighted>
   9.000000E+99

> <Gold.Protein.RotatedTorsions>
[ 6907 6896 6895 6894 ] final   59.29 input  -60.11 | X-H torsion
[ 7974 7965 7964 7962 ] final   24.83 input  175.53 | X-H torsion
[ 8008 7997 7996 7995 ] final   73.47 input   59.86 | X-H torsion
[ 10167 10162 10161 10158 ] final  135.10 input  -65.29 | X-H torsion
[ 10718 10713 10712 10709 ] final    6.81 input   66.30 | X-H torsion
[ 10763 10752 10751 10750 ] final   62.47 input  -60.55 | X-H torsion
[ 11005 11000 10999 10996 ] final  127.36 input  -57.11 | X-H torsion

> <Gold.Protein.ActiveResidues>
 VAL166  LYS551  ARG553  GLY616  TRP617  ASP618  TYR619  PRO620  LYS621  CYS622 
 ASP623  PHE694  ASN695  SER759  ASP760  ASP761  ALA762  ILE779  LEU786  VAL792 
 PHE793  MET794  SER795  GLU796  ALA797  LYS798  CYS799  TRP800  GLU811  SER814 

> <Gold.Protein.RotatedAtoms>
  152.3901  134.6454  160.0110 H   0  0  0  0  0  0  0  0  0  0  0  0  # atno 6907 bound_to 6896
  151.6691  133.3309  159.3200 H   0  0  0  0  0  0  0  0  0  0  0  0  # atno 6908 bound_to 6896
  150.7819  134.6815  159.6491 H   0  0  0  0  0  0  0  0  0  0  0  0  # atno 6909 bound_to 6896
  146.1918  139.7550  142.8826 H   0  0  0  0  0  0  0  0  0  0  0  0  # atno 7974 bound_to 7965
  155.7841  140.3481  155.5313 H   0  0  0  0  0  0  0  0  0  0  0  0  # atno 8008 bound_to 7997
  155.8699  140.0985  157.1577 H   0  0  0  0  0  0  0  0  0  0  0  0  # atno 8009 bound_to 7997
  154.4017  140.1342  156.4053 H   0  0  0  0  0  0  0  0  0  0  0  0  # atno 8010 bound_to 7997
  139.5230  144.6534  151.5235 H   0  0  0  0  0  0  0  0  0  0  0  0  # atno 10167 bound_to 10162
  156.9276  130.5814  149.5649 H   0  0  0  0  0  0  0  0  0  0  0  0  # atno 10718 bound_to 10713
  152.9984  135.5464  154.6198 H   0  0  0  0  0  0  0  0  0  0  0  0  # atno 10763 bound_to 10752
  154.5500  135.2826  155.1020 H   0  0  0  0  0  0  0  0  0  0  0  0  # atno 10764 bound_to 10752
  154.2263  135.6441  153.5213 H   0  0  0  0  0  0  0  0  0  0  0  0  # atno 10765 bound_to 10752
  139.9503  134.9623  156.8843 H   0  0  0  0  0  0  0  0  0  0  0  0  # atno 11005 bound_to 11000
  145.3768  141.0352  143.3200 LP  0  0  0  0  0  0  0  0  0  0  0  0  # atno 17320 bound_to 7965
  144.8502  139.5333  143.6860 LP  0  0  0  0  0  0  0  0  0  0  0  0  # atno 17321 bound_to 7965
  140.6349  143.9004  150.6638 LP  0  0  0  0  0  0  0  0  0  0  0  0  # atno 17342 bound_to 10162
  140.2320  143.3728  152.1558 LP  0  0  0  0  0  0  0  0  0  0  0  0  # atno 17343 bound_to 10162
  156.0462  130.5538  150.8886 LP  0  0  0  0  0  0  0  0  0  0  0  0  # atno 17370 bound_to 10713
  157.5868  131.0945  150.9184 LP  0  0  0  0  0  0  0  0  0  0  0  0  # atno 17371 bound_to 10713
  140.5734  134.0421  155.7438 LP  0  0  0  0  0  0  0  0  0  0  0  0  # atno 17394 bound_to 11000
  141.1164  133.9532  157.2813 LP  0  0  0  0  0  0  0  0  0  0  0  0  # atno 17395 bound_to 11000

$$$$
