AV-unprocessed.smi:189|AV-procd|sdf|1480|dock6
  -GOLD-   2262019303D 1   1.00000     0.00000
 Structure written by MMmdl.
 53 57  0  0  0  0  0  0  0  0  1 V2000
  154.1854  138.0386  158.3074 C   0  0  0  0  0  0  0  0  0  0  0  0
  153.1189  138.7429  159.1720 C   0  0  1  0  0  0  0  0  0  0  0  0
  153.7732  139.4575  160.3801 C   0  0  0  0  0  0  0  0  0  0  0  0
  153.0706  140.8112  160.4203 C   0  0  1  0  0  0  0  0  0  0  0  0
  153.7932  141.9990  161.0669 C   0  0  0  0  0  0  0  0  0  0  0  0
  152.9212  143.2628  160.9110 C   0  0  0  0  0  0  0  0  0  0  0  0
  152.5044  143.5139  159.4437 C   0  0  0  0  0  0  0  0  0  0  0  0
  151.8640  142.2713  158.7893 C   0  0  0  0  0  0  0  0  0  0  0  0
  152.8206  141.0746  158.9430 C   0  0  2  0  0  0  0  0  0  0  0  0
  152.3549  139.7818  158.4653 N   0  0  0  0  0  0  0  0  0  0  0  0
  151.9910  139.5729  157.1752 C   0  0  0  0  0  0  0  0  0  0  0  0
  152.9395  139.3408  156.2303 N   0  0  0  0  0  0  0  0  0  0  0  0
  152.5850  139.1113  154.9626 C   0  0  0  0  0  0  0  0  0  0  0  0
  151.3606  139.0662  154.4336 N   0  0  0  0  0  0  0  0  0  0  0  0
  150.4046  139.3015  155.3772 C   0  0  0  0  0  0  0  0  0  0  0  0
  150.6312  139.5604  156.7583 C   0  0  0  0  0  0  0  0  0  0  0  0
  149.4191  139.7512  157.4105 N   0  0  0  0  0  0  0  0  0  0  0  0
  148.5263  139.6076  156.4699 C   0  0  0  0  0  0  0  0  0  0  0  0
  149.0302  139.3419  155.2164 N   0  0  0  0  0  0  0  0  0  0  0  0
  148.2611  139.1370  153.9985 C   0  0  0  0  0  0  0  0  0  0  0  0
  147.2928  140.2991  153.6772 C   0  0  1  0  0  0  0  0  0  0  0  0
  146.6942  140.0665  152.4134 O   0  0  0  0  0  0  0  0  0  0  0  0
  146.1860  140.4954  154.7093 C   0  0  0  0  0  0  0  0  0  0  0  0
  145.9423  141.9970  154.6620 C   0  0  0  0  0  0  0  0  0  0  0  0
  147.2548  142.5158  154.5333 O   0  0  0  0  0  0  0  0  0  0  0  0
  147.9841  141.6772  153.6429 C   0  0  0  0  0  0  0  0  0  0  0  0
  154.7694  137.3411  158.9082 H   0  0  0  0  0  0  0  0  0  0  0  0
  154.8778  138.7568  157.8665 H   0  0  0  0  0  0  0  0  0  0  0  0
  153.7391  137.4640  157.4961 H   0  0  0  0  0  0  0  0  0  0  0  0
  152.4065  138.0056  159.5432 H   0  0  0  0  0  0  0  0  0  0  0  0
  153.6578  138.8991  161.3095 H   0  0  0  0  0  0  0  0  0  0  0  0
  154.8415  139.6055  160.2129 H   0  0  0  0  0  0  0  0  0  0  0  0
  152.1122  140.6709  160.9252 H   0  0  0  0  0  0  0  0  0  0  0  0
  153.9844  141.7994  162.1215 H   0  0  0  0  0  0  0  0  0  0  0  0
  154.7630  142.1537  160.5923 H   0  0  0  0  0  0  0  0  0  0  0  0
  152.0241  143.1558  161.5223 H   0  0  0  0  0  0  0  0  0  0  0  0
  153.4531  144.1314  161.3002 H   0  0  0  0  0  0  0  0  0  0  0  0
  151.8135  144.3560  159.3938 H   0  0  0  0  0  0  0  0  0  0  0  0
  153.3841  143.8060  158.8685 H   0  0  0  0  0  0  0  0  0  0  0  0
  150.9062  142.0517  159.2626 H   0  0  0  0  0  0  0  0  0  0  0  0
  151.6537  142.4801  157.7409 H   0  0  0  0  0  0  0  0  0  0  0  0
  153.7648  141.3005  158.4432 H   0  0  0  0  0  0  0  0  0  0  0  0
  153.3988  138.9369  154.2744 H   0  0  0  0  0  0  0  0  0  0  0  0
  147.4673  139.6968  156.6646 H   0  0  0  0  0  0  0  0  0  0  0  0
  148.9588  138.9881  153.1734 H   0  0  0  0  0  0  0  0  0  0  0  0
  147.7059  138.2034  154.0995 H   0  0  0  0  0  0  0  0  0  0  0  0
  145.7563  140.1318  152.5107 H   0  0  0  0  0  0  0  0  0  0  0  0
  145.2895  139.9047  154.5157 H   0  0  0  0  0  0  0  0  0  0  0  0
  146.5466  140.2355  155.7049 H   0  0  0  0  0  0  0  0  0  0  0  0
  145.3477  142.2719  153.7895 H   0  0  0  0  0  0  0  0  0  0  0  0
  145.4447  142.3744  155.5552 H   0  0  0  0  0  0  0  0  0  0  0  0
  149.0228  141.6295  153.9714 H   0  0  0  0  0  0  0  0  0  0  0  0
  147.9789  142.1150  152.6431 H   0  0  0  0  0  0  0  0  0  0  0  0
  1  2  1  0  0  0  0
  1 27  1  0  0  0  0
  1 28  1  0  0  0  0
  1 29  1  0  0  0  0
  2 10  1  0  0  0  0
  2  3  1  0  0  0  0
  2 30  1  0  0  0  0
  3  4  1  0  0  0  0
  3 31  1  0  0  0  0
  3 32  1  0  0  0  0
  4  9  1  0  0  0  0
  4  5  1  0  0  0  0
  4 33  1  0  0  0  0
  5  6  1  0  0  0  0
  5 34  1  0  0  0  0
  5 35  1  0  0  0  0
  6  7  1  0  0  0  0
  6 36  1  0  0  0  0
  6 37  1  0  0  0  0
  7  8  1  0  0  0  0
  7 38  1  0  0  0  0
  7 39  1  0  0  0  0
  8  9  1  0  0  0  0
  8 40  1  0  0  0  0
  8 41  1  0  0  0  0
  9 10  1  0  0  0  0
  9 42  1  0  0  0  0
 10 11  1  0  0  0  0
 11 16  1  0  0  0  0
 11 12  2  0  0  0  0
 12 13  1  0  0  0  0
 13 14  2  0  0  0  0
 13 43  1  0  0  0  0
 14 15  1  0  0  0  0
 15 19  1  0  0  0  0
 15 16  2  0  0  0  0
 16 17  1  0  0  0  0
 17 18  2  0  0  0  0
 18 19  1  0  0  0  0
 18 44  1  0  0  0  0
 19 20  1  0  0  0  0
 20 21  1  0  0  0  0
 20 45  1  0  0  0  0
 20 46  1  0  0  0  0
 21 26  1  0  0  0  0
 21 22  1  0  0  0  0
 21 23  1  0  0  0  0
 22 47  1  0  0  0  0
 23 24  1  0  0  0  0
 23 48  1  0  0  0  0
 23 49  1  0  0  0  0
 24 25  1  0  0  0  0
 24 50  1  0  0  0  0
 24 51  1  0  0  0  0
 25 26  1  0  0  0  0
 26 52  1  0  0  0  0
 26 53  1  0  0  0  0
M  END
> <s_m_source_file>
AV-unprocessed.smi

> <i_m_source_file_index>
189

> <i_lp_mmshare_version>
43012

> <i_f3d_flags>
0

> <s_epik_input>
W0NIMl0xW0NIMl1bQ0gyXVtDSDJdW0NASF0oW0NASF0xMilOKFtDQEhdKFtDSDNdKVtDSDJdMiljKG5bY0hdbjMpYyhjMzQpbltjSF1uNFtDSDJdW0NAQF01KFtPSF0pW0NIMl1bQ0gyXU9bQ0gyXTU=

> <s_epik_cmdline>
J2VwaWtfcHl0aG9uJywgJy1waCcsICc3LjAnLCAnLXRuJywgJzgnLCAnLW1hJywgJzIwMCcsICctbWV0YWxfYmluZGluZycsICctaW1hZScsICc8aW5maWxlLm1hZT4nLCAnLW9tYWUnLCAnPG91dGZpbGUubWFlPic=

> <r_lp_tautomer_probability>
1

> <r_epik_Ionization_Penalty>
0.00594261

> <r_epik_Ionization_Penalty_Charging>
0

> <r_epik_Ionization_Penalty_Neutral>
0.00594261

> <r_epik_State_Penalty>
0.00429776

> <r_epik_Charging_Adjusted_Penalty>
0.00429776

> <i_epik_Tot_Q>
0

> <i_epik_Tot_abs_Q>
0

> <r_epik_Metal_State_Penalty>
-0

> <b_epik_Metal_Only>
0

> <s_lp_Force_Field>
OPLS_2005

> <r_lp_Energy>
58.915

> <b_lp_Chiralities_Consistent>
1

> <s_lp_Variant>
AV-unprocessed.smi:189-6

> <Gold.Version>
5.8.1

> <Gold.Id.Protein>
6NUR|6NUR_protein|mol2

> <Gold.PLP.Fitness>
47.6736

> <Gold.PLP.PLP>
-40.4937

> <Gold.PLP.part.hbond>
-3.3618

> <Gold.PLP.part.metal>
0.0000

> <Gold.PLP.part.buried>
-4.8617

> <Gold.PLP.part.nonpolar>
-33.4022

> <Gold.PLP.part.repulsive>
1.1596

> <Gold.PLP.ligand.clash>
0.0019

> <Gold.PLP.ligand.torsion>
0.3478

> <Gold.PLP.Chemscore.Hbond>
2.5000

> <Gold.PLP.Chemscore.CHOScore>
0.0000

> <Gold.PLP.Chemscore.Metal>
0.0000

> <Gold.Chemscore.Hbonds>
donor molecule, donor type, donor heavy atom, donor atom, acceptor molecule, acceptor atom, score
      L1  H    22    47       P1 10175  0.84
      P1  H  7989  7998       L1    14  0.54
      P1  H  7997  8008       L1    12  1.00

> <Gold.PLP.Chemscore.Internal.Correction>
0.3774

> <Gold.Rescore>
     Score         DG    S(hbond)    S(metal)    S(lipo)     H(rot)  DE(clash)    DE(int)     intcor
     17.60     -19.28       1.82        0.00     110.44       2.03       0.15       1.52       ----

> <Gold.Chemscore.Fitness>
17.6045

> <Gold.Chemscore.DG>
-19.2766

> <Gold.Chemscore.ZeroCoef>
-5.4800

> <Gold.Chemscore.Hbond>
1.8178

> <Gold.Chemscore.Metal>
0.0000

> <Gold.Chemscore.Lipo>
110.4371

> <Gold.Chemscore.Internal_Hbond>
0.0000

> <Gold.Chemscore.DEClash>
0.1494

> <Gold.Chemscore.DEInternal>
1.5228

> <Gold.Chemscore.Rot>
2.0297

> <Gold.Chemscore.Internal.Correction>
   9.000000E+99

> <Gold.Chemscore.Hbonds>
donor molecule, donor type, donor heavy atom, donor atom, acceptor molecule, acceptor atom, score
      L1  H    22    47       P1 10175  0.70
      P1  H  7989  7998       L1    14  0.02
      P1  H  7997  8008       L1    12  0.75

> <Gold.Chemscore.Hbond.Weighted>
-6.0715

> <Gold.Chemscore.Metal.Weighted>
-0.0000

> <Gold.Chemscore.Lipo.Weighted>
-12.9211

> <Gold.Chemscore.Internal_Hbond.Weighted>
0.0000

> <Gold.Chemscore.DEClash.Weighted>
0.1494

> <Gold.Chemscore.DEInternal.Weighted>
1.5228

> <Gold.Chemscore.Rot.Weighted>
5.1960

> <Gold.Chemscore.Internal.Correction.Weighted>
   9.000000E+99

> <Gold.Protein.RotatedTorsions>
[ 6907 6896 6895 6894 ] final -178.64 input  -60.11 | X-H torsion
[ 7974 7965 7964 7962 ] final -152.23 input  175.53 | X-H torsion
[ 8008 7997 7996 7995 ] final  -62.47 input   59.86 | X-H torsion
[ 10167 10162 10161 10158 ] final  151.27 input  -65.29 | X-H torsion
[ 10718 10713 10712 10709 ] final -113.52 input   66.30 | X-H torsion
[ 10763 10752 10751 10750 ] final -161.36 input  -60.55 | X-H torsion
[ 11005 11000 10999 10996 ] final   83.91 input  -57.11 | X-H torsion

> <Gold.Protein.ActiveResidues>
 VAL166  LYS551  ARG553  GLY616  TRP617  ASP618  TYR619  PRO620  LYS621  CYS622 
 ASP623  PHE694  ASN695  SER759  ASP760  ASP761  ALA762  ILE779  LEU786  VAL792 
 PHE793  MET794  SER795  GLU796  ALA797  LYS798  CYS799  TRP800  GLU811  SER814 

> <Gold.Protein.RotatedAtoms>
  151.6406  133.3326  159.3128 H   0  0  0  0  0  0  0  0  0  0  0  0  # atno 6907 bound_to 6896
  150.8010  134.7107  159.6612 H   0  0  0  0  0  0  0  0  0  0  0  0  # atno 6908 bound_to 6896
  152.4102  134.6142  160.0085 H   0  0  0  0  0  0  0  0  0  0  0  0  # atno 6909 bound_to 6896
  144.7806  140.4691  143.5842 H   0  0  0  0  0  0  0  0  0  0  0  0  # atno 7974 bound_to 7965
  154.4502  140.0995  156.6593 H   0  0  0  0  0  0  0  0  0  0  0  0  # atno 8008 bound_to 7997
  155.5311  140.3481  155.4408 H   0  0  0  0  0  0  0  0  0  0  0  0  # atno 8009 bound_to 7997
  156.0663  140.1338  156.9870 H   0  0  0  0  0  0  0  0  0  0  0  0  # atno 8010 bound_to 7997
  139.4842  144.5454  151.7492 H   0  0  0  0  0  0  0  0  0  0  0  0  # atno 10167 bound_to 10162
  156.0771  130.5977  150.8653 H   0  0  0  0  0  0  0  0  0  0  0  0  # atno 10718 bound_to 10713
  154.7310  135.3046  154.8891 H   0  0  0  0  0  0  0  0  0  0  0  0  # atno 10763 bound_to 10752
  153.9734  135.6739  153.4752 H   0  0  0  0  0  0  0  0  0  0  0  0  # atno 10764 bound_to 10752
  153.0918  135.4955  154.8626 H   0  0  0  0  0  0  0  0  0  0  0  0  # atno 10765 bound_to 10752
  139.9016  134.8179  156.2373 H   0  0  0  0  0  0  0  0  0  0  0  0  # atno 11005 bound_to 11000
  145.6062  139.1508  143.3101 LP  0  0  0  0  0  0  0  0  0  0  0  0  # atno 17320 bound_to 7965
  146.2011  140.6180  142.9102 LP  0  0  0  0  0  0  0  0  0  0  0  0  # atno 17321 bound_to 7965
  140.5000  144.1183  150.5969 LP  0  0  0  0  0  0  0  0  0  0  0  0  # atno 17342 bound_to 10162
  140.4073  143.2674  151.9876 LP  0  0  0  0  0  0  0  0  0  0  0  0  # atno 17343 bound_to 10162
  157.5872  131.0945  150.9177 LP  0  0  0  0  0  0  0  0  0  0  0  0  # atno 17370 bound_to 10713
  156.9360  130.5367  149.5279 LP  0  0  0  0  0  0  0  0  0  0  0  0  # atno 17371 bound_to 10713
  141.0307  133.6990  156.1425 LP  0  0  0  0  0  0  0  0  0  0  0  0  # atno 17394 bound_to 11000
  140.7100  134.4471  157.5582 LP  0  0  0  0  0  0  0  0  0  0  0  0  # atno 17395 bound_to 11000

$$$$
