AV-unprocessed.smi:3346|AV-procd|sdf|12910|dock4
  -GOLD-   2272019323D 1   1.00000     0.00000
 Structure written by MMmdl.
 47 48  0  0  0  0  0  0  0  0  1 V2000
  151.7463  144.1198  161.1282 C   0  0  0  0  0  0  0  0  0  0  0  0
  151.9873  143.9474  159.6188 C   0  0  0  0  0  0  0  0  0  0  0  0
  152.1788  145.3173  158.9505 C   0  0  0  0  0  0  0  0  0  0  0  0
  150.8542  143.1595  158.9237 C   0  0  0  0  0  0  0  0  0  0  0  0
  151.2402  142.4761  157.5941 C   0  0  1  0  0  0  0  0  0  0  0  0
  151.9060  141.1137  157.8344 C   0  0  0  0  0  0  0  0  0  0  0  0
  150.0434  142.2377  156.7971 N   0  0  0  0  0  0  0  0  0  0  0  0
  150.3680  141.5495  155.5580 C   0  0  0  0  0  0  0  0  0  0  0  0
  149.1273  141.0500  154.8381 C   0  0  0  0  0  0  0  0  0  0  0  0
  148.1578  141.9764  154.4011 C   0  0  0  0  0  0  0  0  0  0  0  0
  147.0156  141.5058  153.7279 C   0  0  0  0  0  0  0  0  0  0  0  0
  146.8884  140.1201  153.5184 C   0  0  0  0  0  0  0  0  0  0  0  0
  147.8053  139.2218  153.9344 N   0  0  0  0  0  0  0  0  0  0  0  0
  148.9068  139.6719  154.5836 C   0  0  0  0  0  0  0  0  0  0  0  0
  149.8341  138.7150  155.0286 N   0  0  0  0  0  0  0  0  0  0  0  0
  149.3224  137.3522  154.9655 C   0  0  0  0  0  0  0  0  0  0  0  0
  150.3149  136.3871  155.6365 C   0  0  0  0  0  0  0  0  0  0  0  0
  151.5990  136.5210  155.0328 O   0  0  0  0  0  0  0  0  0  0  0  0
  152.1188  137.8413  155.1654 C   0  0  0  0  0  0  0  0  0  0  0  0
  151.1749  138.8360  154.4692 C   0  0  0  0  0  0  0  0  0  0  0  0
  150.8089  144.6418  161.3224 H   0  0  0  0  0  0  0  0  0  0  0  0
  152.5483  144.6982  161.5878 H   0  0  0  0  0  0  0  0  0  0  0  0
  151.7084  143.1614  161.6451 H   0  0  0  0  0  0  0  0  0  0  0  0
  152.9211  143.3998  159.4877 H   0  0  0  0  0  0  0  0  0  0  0  0
  151.2810  145.9301  159.0391 H   0  0  0  0  0  0  0  0  0  0  0  0
  152.4051  145.2097  157.8895 H   0  0  0  0  0  0  0  0  0  0  0  0
  153.0033  145.8662  159.4065 H   0  0  0  0  0  0  0  0  0  0  0  0
  150.4872  142.4024  159.6182 H   0  0  0  0  0  0  0  0  0  0  0  0
  150.0080  143.8247  158.7440 H   0  0  0  0  0  0  0  0  0  0  0  0
  151.9550  143.0952  157.0512 H   0  0  0  0  0  0  0  0  0  0  0  0
  152.8190  141.2233  158.4202 H   0  0  0  0  0  0  0  0  0  0  0  0
  152.1795  140.6377  156.8921 H   0  0  0  0  0  0  0  0  0  0  0  0
  151.2459  140.4328  158.3734 H   0  0  0  0  0  0  0  0  0  0  0  0
  149.4128  141.6564  157.3302 H   0  0  0  0  0  0  0  0  0  0  0  0
  150.9117  142.2244  154.8963 H   0  0  0  0  0  0  0  0  0  0  0  0
  151.0330  140.7100  155.7645 H   0  0  0  0  0  0  0  0  0  0  0  0
  148.2873  143.0342  154.5782 H   0  0  0  0  0  0  0  0  0  0  0  0
  146.2558  142.1901  153.3808 H   0  0  0  0  0  0  0  0  0  0  0  0
  146.0259  139.7215  153.0050 H   0  0  0  0  0  0  0  0  0  0  0  0
  148.3505  137.2908  155.4565 H   0  0  0  0  0  0  0  0  0  0  0  0
  149.1736  137.0682  153.9229 H   0  0  0  0  0  0  0  0  0  0  0  0
  150.3851  136.5838  156.7071 H   0  0  0  0  0  0  0  0  0  0  0  0
  149.9732  135.3583  155.5232 H   0  0  0  0  0  0  0  0  0  0  0  0
  152.2388  138.0920  156.2209 H   0  0  0  0  0  0  0  0  0  0  0  0
  153.1097  137.8826  154.7131 H   0  0  0  0  0  0  0  0  0  0  0  0
  151.1519  138.6325  153.3977 H   0  0  0  0  0  0  0  0  0  0  0  0
  151.5394  139.8556  154.5991 H   0  0  0  0  0  0  0  0  0  0  0  0
  1  2  1  0  0  0  0
  1 21  1  0  0  0  0
  1 22  1  0  0  0  0
  1 23  1  0  0  0  0
  2  3  1  0  0  0  0
  2  4  1  0  0  0  0
  2 24  1  0  0  0  0
  3 25  1  0  0  0  0
  3 26  1  0  0  0  0
  3 27  1  0  0  0  0
  4  5  1  0  0  0  0
  4 28  1  0  0  0  0
  4 29  1  0  0  0  0
  5  6  1  0  0  0  0
  5  7  1  0  0  0  0
  5 30  1  0  0  0  0
  6 31  1  0  0  0  0
  6 32  1  0  0  0  0
  6 33  1  0  0  0  0
  7  8  1  0  0  0  0
  7 34  1  0  0  0  0
  8  9  1  0  0  0  0
  8 35  1  0  0  0  0
  8 36  1  0  0  0  0
  9 14  1  0  0  0  0
  9 10  2  0  0  0  0
 10 11  1  0  0  0  0
 10 37  1  0  0  0  0
 11 12  2  0  0  0  0
 11 38  1  0  0  0  0
 12 13  1  0  0  0  0
 12 39  1  0  0  0  0
 13 14  2  0  0  0  0
 14 15  1  0  0  0  0
 15 20  1  0  0  0  0
 15 16  1  0  0  0  0
 16 17  1  0  0  0  0
 16 40  1  0  0  0  0
 16 41  1  0  0  0  0
 17 18  1  0  0  0  0
 17 42  1  0  0  0  0
 17 43  1  0  0  0  0
 18 19  1  0  0  0  0
 19 20  1  0  0  0  0
 19 44  1  0  0  0  0
 19 45  1  0  0  0  0
 20 46  1  0  0  0  0
 20 47  1  0  0  0  0
M  END
> <s_m_source_file>
AV-unprocessed.smi

> <i_m_source_file_index>
3346

> <i_lp_mmshare_version>
43012

> <i_f3d_flags>
0

> <s_epik_input>
W0NIM11bQ0hdKFtDSDNdKVtDSDJdW0NASF0oW0NIM10pW05IXVtDSDJdYzFbY0hdW2NIXVtjSF1uYzFOMltDSDJdW0NIMl1PW0NIMl1bQ0gyXTI=

> <s_epik_cmdline>
J2VwaWtfcHl0aG9uJywgJy1waCcsICc3LjAnLCAnLXRuJywgJzgnLCAnLW1hJywgJzIwMCcsICctbWV0YWxfYmluZGluZycsICctaW1hZScsICc8aW5maWxlLm1hZT4nLCAnLW9tYWUnLCAnPG91dGZpbGUubWFlPic=

> <r_lp_tautomer_probability>
1

> <r_epik_Ionization_Penalty>
2.09752

> <r_epik_Ionization_Penalty_Charging>
0

> <r_epik_Ionization_Penalty_Neutral>
2.09752

> <r_epik_State_Penalty>
2.22589

> <r_epik_Charging_Adjusted_Penalty>
2.22589

> <i_epik_Tot_Q>
0

> <i_epik_Tot_abs_Q>
0

> <r_epik_Metal_State_Penalty>
2.21996

> <b_epik_Metal_Only>
0

> <s_lp_Force_Field>
OPLS_2005

> <r_lp_Energy>
27.6792

> <b_lp_Chiralities_Consistent>
1

> <s_lp_Variant>
AV-unprocessed.smi:3346-4

> <Gold.Version>
5.8.1

> <Gold.Id.Protein>
6NUR|6NUR_protein|mol2

> <Gold.PLP.Fitness>
46.2965

> <Gold.PLP.PLP>
-41.3059

> <Gold.PLP.part.hbond>
-2.0000

> <Gold.PLP.part.metal>
0.0000

> <Gold.PLP.part.buried>
-4.4089

> <Gold.PLP.part.nonpolar>
-35.6773

> <Gold.PLP.part.repulsive>
0.3931

> <Gold.PLP.ligand.clash>
0.0000

> <Gold.PLP.ligand.torsion>
0.6293

> <Gold.PLP.Chemscore.Hbond>
1.0000

> <Gold.PLP.Chemscore.CHOScore>
1.0000

> <Gold.PLP.Chemscore.Metal>
0.0000

> <Gold.Chemscore.Hbonds>
donor molecule, donor type, donor heavy atom, donor atom, acceptor molecule, acceptor atom, score
      P1  H 10752 10763       L1    18  1.00
      L1  C    12    39       P1 10175  1.00

> <Gold.PLP.Chemscore.Internal.Correction>
0.2492

> <Gold.Rescore>
     Score         DG    S(hbond)    S(metal)    S(lipo)     H(rot)  DE(clash)    DE(int)     intcor
     17.45     -18.96       0.94        0.00     122.22       1.55       0.04       1.48       ----

> <Gold.Chemscore.Fitness>
17.4474

> <Gold.Chemscore.DG>
-18.9614

> <Gold.Chemscore.ZeroCoef>
-5.4800

> <Gold.Chemscore.Hbond>
0.9442

> <Gold.Chemscore.Metal>
0.0000

> <Gold.Chemscore.Lipo>
122.2153

> <Gold.Chemscore.Internal_Hbond>
0.0000

> <Gold.Chemscore.DEClash>
0.0378

> <Gold.Chemscore.DEInternal>
1.4762

> <Gold.Chemscore.Rot>
1.5514

> <Gold.Chemscore.Internal.Correction>
   9.000000E+99

> <Gold.Chemscore.Hbonds>
donor molecule, donor type, donor heavy atom, donor atom, acceptor molecule, acceptor atom, score
      P1  H 10752 10763       L1    18  0.45

> <Gold.Chemscore.Hbond.Weighted>
-3.1538

> <Gold.Chemscore.Metal.Weighted>
-0.0000

> <Gold.Chemscore.Lipo.Weighted>
-14.2992

> <Gold.Chemscore.Internal_Hbond.Weighted>
0.0000

> <Gold.Chemscore.DEClash.Weighted>
0.0378

> <Gold.Chemscore.DEInternal.Weighted>
1.4762

> <Gold.Chemscore.Rot.Weighted>
3.9715

> <Gold.Chemscore.Internal.Correction.Weighted>
   9.000000E+99

> <Gold.Protein.RotatedTorsions>
[ 6907 6896 6895 6894 ] final   69.24 input  -60.11 | X-H torsion
[ 7974 7965 7964 7962 ] final   69.33 input  175.53 | X-H torsion
[ 8008 7997 7996 7995 ] final  -75.05 input   59.86 | X-H torsion
[ 10167 10162 10161 10158 ] final   60.98 input  -65.29 | X-H torsion
[ 10718 10713 10712 10709 ] final   62.55 input   66.30 | X-H torsion
[ 10763 10752 10751 10750 ] final   51.16 input  -60.55 | X-H torsion
[ 11005 11000 10999 10996 ] final   43.44 input  -57.11 | X-H torsion

> <Gold.Protein.ActiveResidues>
 VAL166  LYS551  ARG553  GLY616  TRP617  ASP618  TYR619  PRO620  LYS621  CYS622 
 ASP623  PHE694  ASN695  SER759  ASP760  ASP761  ALA762  ILE779  LEU786  VAL792 
 PHE793  MET794  SER795  GLU796  ALA797  LYS798  CYS799  TRP800  GLU811  SER814 

> <Gold.Protein.RotatedAtoms>
  152.4673  134.5044  159.9734 H   0  0  0  0  0  0  0  0  0  0  0  0  # atno 6907 bound_to 6896
  151.5079  133.3485  159.2888 H   0  0  0  0  0  0  0  0  0  0  0  0  # atno 6908 bound_to 6896
  150.8664  134.8057  159.7184 H   0  0  0  0  0  0  0  0  0  0  0  0  # atno 6909 bound_to 6896
  145.7918  139.2938  143.1206 H   0  0  0  0  0  0  0  0  0  0  0  0  # atno 7974 bound_to 7965
  154.5383  140.0751  156.8466 H   0  0  0  0  0  0  0  0  0  0  0  0  # atno 8008 bound_to 7997
  155.3232  140.3397  155.4222 H   0  0  0  0  0  0  0  0  0  0  0  0  # atno 8009 bound_to 7997
  156.1850  140.1665  156.8189 H   0  0  0  0  0  0  0  0  0  0  0  0  # atno 8010 bound_to 7997
  140.1597  144.4382  150.6716 H   0  0  0  0  0  0  0  0  0  0  0  0  # atno 10167 bound_to 10162
  157.5909  130.9056  149.9602 H   0  0  0  0  0  0  0  0  0  0  0  0  # atno 10718 bound_to 10713
  152.9785  135.5855  154.4369 H   0  0  0  0  0  0  0  0  0  0  0  0  # atno 10763 bound_to 10752
  154.3975  135.2768  155.2119 H   0  0  0  0  0  0  0  0  0  0  0  0  # atno 10764 bound_to 10752
  154.3964  135.6113  153.5926 H   0  0  0  0  0  0  0  0  0  0  0  0  # atno 10765 bound_to 10752
  140.1645  134.4299  155.8296 H   0  0  0  0  0  0  0  0  0  0  0  0  # atno 11005 bound_to 11000
  145.9969  140.8554  143.0038 LP  0  0  0  0  0  0  0  0  0  0  0  0  # atno 17320 bound_to 7965
  144.6781  140.2296  143.7357 LP  0  0  0  0  0  0  0  0  0  0  0  0  # atno 17321 bound_to 7965
  140.6651  143.2265  151.5763 LP  0  0  0  0  0  0  0  0  0  0  0  0  # atno 17342 bound_to 10162
  139.5387  144.2708  152.1305 LP  0  0  0  0  0  0  0  0  0  0  0  0  # atno 17343 bound_to 10162
  156.0963  130.3659  150.0300 LP  0  0  0  0  0  0  0  0  0  0  0  0  # atno 17370 bound_to 10713
  156.8422  130.9430  151.3631 LP  0  0  0  0  0  0  0  0  0  0  0  0  # atno 17371 bound_to 10713
  141.2212  133.6928  156.7653 LP  0  0  0  0  0  0  0  0  0  0  0  0  # atno 17394 bound_to 11000
  140.2450  134.8584  157.3611 LP  0  0  0  0  0  0  0  0  0  0  0  0  # atno 17395 bound_to 11000

$$$$
