AV-unprocessed.smi:3289|AV-procd|sdf|12609|dock1
  -GOLD-   2272018533D 1   1.00000     0.00000
 Structure written by MMmdl.
 39 40  0  0  0  0  0  0  0  0  1 V2000
  152.4026  142.7507  161.9438 C   0  0  0  0  0  0  0  0  0  0  0  0
  152.6275  141.9879  160.6306 C   0  0  0  0  0  0  0  0  0  0  0  0
  154.0392  141.3875  160.5492 C   0  0  0  0  0  0  0  0  0  0  0  0
  152.3214  142.8477  159.4337 C   0  0  0  0  0  0  0  0  0  0  0  0
  152.6793  144.1269  159.3471 N   0  0  0  0  0  0  0  0  0  0  0  0
  152.2145  144.5504  158.1084 C   0  0  0  0  0  0  0  0  0  0  0  0
  151.5768  143.5078  157.4833 C   0  0  0  0  0  0  0  0  0  0  0  0
  151.6425  142.4195  158.3454 N   0  0  0  0  0  0  0  0  0  0  0  0
  151.0726  141.1056  158.0739 C   0  0  0  0  0  0  0  0  0  0  0  0
  152.0687  140.1519  157.4019 C   0  0  0  0  0  0  0  0  0  0  0  0
  153.0506  139.7274  158.0125 O   0  0  0  0  0  0  0  0  0  0  0  0
  151.7934  139.8171  156.1322 N   0  0  0  0  0  0  0  0  0  0  0  0
  152.6051  138.9362  155.2999 C   0  0  0  0  0  0  0  0  0  0  0  0
  151.9193  137.5777  155.0777 C   0  0  2  0  0  0  0  0  0  0  0  0
  150.4412  137.6932  154.7075 C   0  0  0  0  0  0  0  0  0  0  0  0
  149.9072  136.3519  155.1547 C   0  0  0  0  0  0  0  0  0  0  0  0
  150.6894  136.1239  156.4440 C   0  0  0  0  0  0  0  0  0  0  0  0
  151.9365  136.7907  156.2675 O   0  0  0  0  0  0  0  0  0  0  0  0
  151.3773  143.1153  162.0132 H   0  0  0  0  0  0  0  0  0  0  0  0
  153.0685  143.6107  162.0229 H   0  0  0  0  0  0  0  0  0  0  0  0
  152.5838  142.1096  162.8068 H   0  0  0  0  0  0  0  0  0  0  0  0
  151.9424  141.1423  160.6394 H   0  0  0  0  0  0  0  0  0  0  0  0
  154.1624  140.8001  159.6387 H   0  0  0  0  0  0  0  0  0  0  0  0
  154.2350  140.7283  161.3952 H   0  0  0  0  0  0  0  0  0  0  0  0
  154.8042  142.1646  160.5501 H   0  0  0  0  0  0  0  0  0  0  0  0
  152.3726  145.5627  157.7669 H   0  0  0  0  0  0  0  0  0  0  0  0
  151.0902  143.4518  156.5208 H   0  0  0  0  0  0  0  0  0  0  0  0
  150.7033  140.6682  159.0014 H   0  0  0  0  0  0  0  0  0  0  0  0
  150.2030  141.2363  157.4281 H   0  0  0  0  0  0  0  0  0  0  0  0
  150.9654  140.2090  155.7078 H   0  0  0  0  0  0  0  0  0  0  0  0
  152.8426  139.4096  154.3457 H   0  0  0  0  0  0  0  0  0  0  0  0
  153.5555  138.7844  155.8121 H   0  0  0  0  0  0  0  0  0  0  0  0
  152.4364  137.0167  154.2975 H   0  0  0  0  0  0  0  0  0  0  0  0
  149.9623  138.4917  155.2763 H   0  0  0  0  0  0  0  0  0  0  0  0
  150.2818  137.8861  153.6462 H   0  0  0  0  0  0  0  0  0  0  0  0
  148.8273  136.3451  155.3038 H   0  0  0  0  0  0  0  0  0  0  0  0
  150.1577  135.5849  154.4206 H   0  0  0  0  0  0  0  0  0  0  0  0
  150.1722  136.5784  157.2899 H   0  0  0  0  0  0  0  0  0  0  0  0
  150.8311  135.0653  156.6628 H   0  0  0  0  0  0  0  0  0  0  0  0
  1  2  1  0  0  0  0
  1 19  1  0  0  0  0
  1 20  1  0  0  0  0
  1 21  1  0  0  0  0
  2  3  1  0  0  0  0
  2  4  1  0  0  0  0
  2 22  1  0  0  0  0
  3 23  1  0  0  0  0
  3 24  1  0  0  0  0
  3 25  1  0  0  0  0
  4  8  1  0  0  0  0
  4  5  2  0  0  0  0
  5  6  1  0  0  0  0
  6  7  2  0  0  0  0
  6 26  1  0  0  0  0
  7  8  1  0  0  0  0
  7 27  1  0  0  0  0
  8  9  1  0  0  0  0
  9 10  1  0  0  0  0
  9 28  1  0  0  0  0
  9 29  1  0  0  0  0
 10 11  2  0  0  0  0
 10 12  1  0  0  0  0
 12 13  1  0  0  0  0
 12 30  1  0  0  0  0
 13 14  1  0  0  0  0
 13 31  1  0  0  0  0
 13 32  1  0  0  0  0
 14 18  1  0  0  0  0
 14 15  1  0  0  0  0
 14 33  1  0  0  0  0
 15 16  1  0  0  0  0
 15 34  1  0  0  0  0
 15 35  1  0  0  0  0
 16 17  1  0  0  0  0
 16 36  1  0  0  0  0
 16 37  1  0  0  0  0
 17 18  1  0  0  0  0
 17 38  1  0  0  0  0
 17 39  1  0  0  0  0
M  END
> <s_m_source_file>
AV-unprocessed.smi

> <i_m_source_file_index>
3289

> <i_lp_mmshare_version>
43012

> <i_f3d_flags>
0

> <s_epik_input>
W0NIM11bQ0hdKFtDSDNdKWMxbltjSF1bY0hdbjFbQ0gyXUMoPU8pW05IXVtDSDJdW0NAQEhdMltDSDJdW0NIMl1bQ0gyXU8y

> <s_epik_cmdline>
J2VwaWtfcHl0aG9uJywgJy1waCcsICc3LjAnLCAnLXRuJywgJzgnLCAnLW1hJywgJzIwMCcsICctbWV0YWxfYmluZGluZycsICctaW1hZScsICc8aW5maWxlLm1hZT4nLCAnLW9tYWUnLCAnPG91dGZpbGUubWFlPic=

> <r_lp_tautomer_probability>
1

> <r_epik_Ionization_Penalty>
0.587725

> <r_epik_Ionization_Penalty_Charging>
0.587725

> <r_epik_Ionization_Penalty_Neutral>
1.43432e-07

> <r_epik_State_Penalty>
0.601029

> <r_epik_Charging_Adjusted_Penalty>
1.18875

> <i_epik_Tot_Q>
0

> <i_epik_Tot_abs_Q>
0

> <r_epik_Metal_State_Penalty>
0.297663

> <b_epik_Metal_Only>
0

> <s_lp_Force_Field>
OPLS_2005

> <r_lp_Energy>
18.7222

> <b_lp_Chiralities_Consistent>
1

> <s_lp_Variant>
AV-unprocessed.smi:3289-3

> <Gold.Version>
5.8.1

> <Gold.Id.Protein>
6NUR|6NUR_protein|mol2

> <Gold.PLP.Fitness>
48.8598

> <Gold.PLP.PLP>
-42.1506

> <Gold.PLP.part.hbond>
-2.0000

> <Gold.PLP.part.metal>
0.0000

> <Gold.PLP.part.buried>
-3.4951

> <Gold.PLP.part.nonpolar>
-37.1260

> <Gold.PLP.part.repulsive>
0.1697

> <Gold.PLP.ligand.clash>
0.0000

> <Gold.PLP.ligand.torsion>
1.1607

> <Gold.PLP.Chemscore.Hbond>
1.9920

> <Gold.PLP.Chemscore.CHOScore>
0.9995

> <Gold.PLP.Chemscore.Metal>
0.0000

> <Gold.Chemscore.Hbonds>
donor molecule, donor type, donor heavy atom, donor atom, acceptor molecule, acceptor atom, score
      P1  H  7997  8010       L1    11  1.00
      P1  H 10752 10764       L1    18  0.10
      L1  C     7    27       P1  8028  0.64

> <Gold.PLP.Chemscore.Internal.Correction>
0.0561

> <Gold.Rescore>
     Score         DG    S(hbond)    S(metal)    S(lipo)     H(rot)  DE(clash)    DE(int)     intcor
     14.35     -15.59       0.94        0.00      97.03       1.72       0.08       1.16       ----

> <Gold.Chemscore.Fitness>
14.3514

> <Gold.Chemscore.DG>
-15.5914

> <Gold.Chemscore.ZeroCoef>
-5.4800

> <Gold.Chemscore.Hbond>
0.9449

> <Gold.Chemscore.Metal>
0.0000

> <Gold.Chemscore.Lipo>
97.0267

> <Gold.Chemscore.Internal_Hbond>
0.0000

> <Gold.Chemscore.DEClash>
0.0800

> <Gold.Chemscore.DEInternal>
1.1600

> <Gold.Chemscore.Rot>
1.7175

> <Gold.Chemscore.Internal.Correction>
   9.000000E+99

> <Gold.Chemscore.Hbonds>
donor molecule, donor type, donor heavy atom, donor atom, acceptor molecule, acceptor atom, score
      P1  H  7997  8010       L1    11  0.65

> <Gold.Chemscore.Hbond.Weighted>
-3.1560

> <Gold.Chemscore.Metal.Weighted>
-0.0000

> <Gold.Chemscore.Lipo.Weighted>
-11.3521

> <Gold.Chemscore.Internal_Hbond.Weighted>
0.0000

> <Gold.Chemscore.DEClash.Weighted>
0.0800

> <Gold.Chemscore.DEInternal.Weighted>
1.1600

> <Gold.Chemscore.Rot.Weighted>
4.3967

> <Gold.Chemscore.Internal.Correction.Weighted>
   9.000000E+99

> <Gold.Protein.RotatedTorsions>
[ 6907 6896 6895 6894 ] final -147.01 input  -60.11 | X-H torsion
[ 7974 7965 7964 7962 ] final    6.63 input  175.53 | X-H torsion
[ 8008 7997 7996 7995 ] final   38.51 input   59.86 | X-H torsion
[ 10167 10162 10161 10158 ] final -113.48 input  -65.29 | X-H torsion
[ 10718 10713 10712 10709 ] final  138.78 input   66.30 | X-H torsion
[ 10763 10752 10751 10750 ] final  -27.60 input  -60.55 | X-H torsion
[ 11005 11000 10999 10996 ] final  -61.24 input  -57.11 | X-H torsion

> <Gold.Protein.ActiveResidues>
 VAL166  LYS551  ARG553  GLY616  TRP617  ASP618  TYR619  PRO620  LYS621  CYS622 
 ASP623  PHE694  ASN695  SER759  ASP760  ASP761  ALA762  ILE779  LEU786  VAL792 
 PHE793  MET794  SER795  GLU796  ALA797  LYS798  CYS799  TRP800  GLU811  SER814 

> <Gold.Protein.RotatedAtoms>
  151.1496  133.4916  159.2595 H   0  0  0  0  0  0  0  0  0  0  0  0  # atno 6907 bound_to 6896
  151.1568  135.0254  159.8703 H   0  0  0  0  0  0  0  0  0  0  0  0  # atno 6908 bound_to 6896
  152.5463  134.1374  159.8518 H   0  0  0  0  0  0  0  0  0  0  0  0  # atno 6909 bound_to 6896
  146.2433  140.0205  142.8398 H   0  0  0  0  0  0  0  0  0  0  0  0  # atno 7974 bound_to 7965
  155.2214  140.3331  155.4315 H   0  0  0  0  0  0  0  0  0  0  0  0  # atno 8008 bound_to 7997
  156.2332  140.1860  156.7236 H   0  0  0  0  0  0  0  0  0  0  0  0  # atno 8009 bound_to 7997
  154.6013  140.0622  156.9358 H   0  0  0  0  0  0  0  0  0  0  0  0  # atno 8010 bound_to 7997
  140.1114  143.4524  152.1750 H   0  0  0  0  0  0  0  0  0  0  0  0  # atno 10167 bound_to 10162
  157.4216  131.1039  151.0348 H   0  0  0  0  0  0  0  0  0  0  0  0  # atno 10718 bound_to 10713
  153.7347  135.6936  153.4981 H   0  0  0  0  0  0  0  0  0  0  0  0  # atno 10763 bound_to 10752
  153.2111  135.4402  155.0379 H   0  0  0  0  0  0  0  0  0  0  0  0  # atno 10764 bound_to 10752
  154.8241  135.3437  154.6876 H   0  0  0  0  0  0  0  0  0  0  0  0  # atno 10765 bound_to 10752
  141.1317  133.6628  156.5345 H   0  0  0  0  0  0  0  0  0  0  0  0  # atno 11005 bound_to 11000
  145.1245  140.9482  143.4581 LP  0  0  0  0  0  0  0  0  0  0  0  0  # atno 17320 bound_to 7965
  145.0448  139.3230  143.5958 LP  0  0  0  0  0  0  0  0  0  0  0  0  # atno 17321 bound_to 7965
  139.5617  144.7410  151.4136 LP  0  0  0  0  0  0  0  0  0  0  0  0  # atno 17342 bound_to 10162
  140.6923  143.7831  150.7274 LP  0  0  0  0  0  0  0  0  0  0  0  0  # atno 17343 bound_to 10162
  157.1276  130.6088  149.5521 LP  0  0  0  0  0  0  0  0  0  0  0  0  # atno 17370 bound_to 10713
  155.9882  130.4925  150.7161 LP  0  0  0  0  0  0  0  0  0  0  0  0  # atno 17371 bound_to 10713
  140.4189  134.7205  157.4878 LP  0  0  0  0  0  0  0  0  0  0  0  0  # atno 17394 bound_to 11000
  140.0374  134.6317  155.9025 LP  0  0  0  0  0  0  0  0  0  0  0  0  # atno 17395 bound_to 11000

$$$$
