AV-unprocessed.smi:54|AV-procd|sdf|530|dock7
  -GOLD-   2262016403D 1   1.00000     0.00000
 Structure written by MMmdl.
 44 46  0  0  0  0  0  0  0  0  1 V2000
  145.5085  132.8724  150.3834 C   0  0  0  0  0  0  0  0  0  0  0  0
  146.2285  131.7939  151.2086 C   0  0  0  0  0  0  0  0  0  0  0  0
  145.2860  130.6272  151.5463 C   0  0  0  0  0  0  0  0  0  0  0  0
  146.8215  132.3999  152.4859 C   0  0  0  0  0  0  0  0  0  0  0  0
  146.1159  132.9183  153.3520 O   0  0  0  0  0  0  0  0  0  0  0  0
  148.2673  132.3276  152.5950 N   0  0  0  0  0  0  0  0  0  0  0  0
  149.0383  132.7862  153.6080 C   0  0  0  0  0  0  0  0  0  0  0  0
  149.1529  134.0725  153.9086 N   0  0  0  0  0  0  0  0  0  0  0  0
  149.9736  134.3355  154.9698 C   0  0  0  0  0  0  0  0  0  0  0  0
  150.6645  133.4123  155.7261 C   0  0  0  0  0  0  0  0  0  0  0  0
  151.4015  134.0568  156.7134 N   0  0  0  0  0  0  0  0  0  0  0  0
  151.1406  135.3213  156.5289 C   0  0  0  0  0  0  0  0  0  0  0  0
  150.2801  135.5757  155.4863 N   0  0  0  0  0  0  0  0  0  0  0  0
  149.7553  136.8851  154.9822 C   0  0  1  0  0  0  0  0  0  0  0  0
  149.3094  137.6283  156.0794 O   0  0  0  0  0  0  0  0  0  0  0  0
  150.1955  138.7157  156.3074 C   0  0  2  0  0  0  0  0  0  0  0  0
  149.5088  139.8145  157.1381 C   0  0  0  0  0  0  0  0  0  0  0  0
  148.9631  139.3102  158.3396 O   0  0  0  0  0  0  0  0  0  0  0  0
  150.6660  139.0923  154.9019 C   0  0  1  0  0  0  0  0  0  0  0  0
  151.8481  139.8708  154.9004 O   0  0  0  0  0  0  0  0  0  0  0  0
  150.8432  137.7199  154.2584 C   0  0  1  0  0  0  0  0  0  0  0  0
  152.1600  137.2140  154.4305 O   0  0  0  0  0  0  0  0  0  0  0  0
  150.5427  132.0165  155.4195 C   0  0  0  0  0  0  0  0  0  0  0  0
  151.0751  131.0629  155.9832 O   0  0  0  0  0  0  0  0  0  0  0  0
  149.6941  131.7877  154.3285 N   0  0  0  0  0  0  0  0  0  0  0  0
  148.9102  136.6203  154.3455 H   0  0  0  0  0  0  0  0  0  0  0  0
  151.0399  138.3240  156.8780 H   0  0  0  0  0  0  0  0  0  0  0  0
  149.8826  139.6318  154.3690 H   0  0  0  0  0  0  0  0  0  0  0  0
  150.6263  137.7504  153.1900 H   0  0  0  0  0  0  0  0  0  0  0  0
  146.1774  133.6997  150.1418 H   0  0  0  0  0  0  0  0  0  0  0  0
  144.6511  133.2822  150.9189 H   0  0  0  0  0  0  0  0  0  0  0  0
  145.1434  132.4628  149.4411 H   0  0  0  0  0  0  0  0  0  0  0  0
  147.0486  131.3995  150.6068 H   0  0  0  0  0  0  0  0  0  0  0  0
  145.7924  129.8668  152.1422 H   0  0  0  0  0  0  0  0  0  0  0  0
  144.9249  130.1433  150.6384 H   0  0  0  0  0  0  0  0  0  0  0  0
  144.4139  130.9651  152.1080 H   0  0  0  0  0  0  0  0  0  0  0  0
  148.7488  131.9152  151.8096 H   0  0  0  0  0  0  0  0  0  0  0  0
  151.5694  136.0956  157.1479 H   0  0  0  0  0  0  0  0  0  0  0  0
  150.2096  140.6184  157.3642 H   0  0  0  0  0  0  0  0  0  0  0  0
  148.6944  140.2539  156.5620 H   0  0  0  0  0  0  0  0  0  0  0  0
  149.3884  138.4910  158.5427 H   0  0  0  0  0  0  0  0  0  0  0  0
  152.5562  139.3320  154.5811 H   0  0  0  0  0  0  0  0  0  0  0  0
  152.7699  137.9212  154.2848 H   0  0  0  0  0  0  0  0  0  0  0  0
  149.5624  130.8250  154.0551 H   0  0  0  0  0  0  0  0  0  0  0  0
  1  2  1  0  0  0  0
  1 30  1  0  0  0  0
  1 31  1  0  0  0  0
  1 32  1  0  0  0  0
  2  3  1  0  0  0  0
  2  4  1  0  0  0  0
  2 33  1  0  0  0  0
  3 34  1  0  0  0  0
  3 35  1  0  0  0  0
  3 36  1  0  0  0  0
  4  5  2  0  0  0  0
  4  6  1  0  0  0  0
  6 37  1  0  0  0  0
  6  7  1  0  0  0  0
  7 25  1  0  0  0  0
  7  8  2  0  0  0  0
  8  9  1  0  0  0  0
  9 13  1  0  0  0  0
  9 10  2  0  0  0  0
 10 11  1  0  0  0  0
 10 23  1  0  0  0  0
 11 12  2  0  0  0  0
 12 13  1  0  0  0  0
 12 38  1  0  0  0  0
 13 14  1  0  0  0  0
 14 26  1  0  0  0  0
 14 21  1  0  0  0  0
 14 15  1  0  0  0  0
 15 16  1  0  0  0  0
 16 27  1  0  0  0  0
 16 17  1  0  0  0  0
 16 19  1  0  0  0  0
 17 18  1  0  0  0  0
 17 39  1  0  0  0  0
 17 40  1  0  0  0  0
 18 41  1  0  0  0  0
 19 28  1  0  0  0  0
 19 20  1  0  0  0  0
 19 21  1  0  0  0  0
 20 42  1  0  0  0  0
 21 29  1  0  0  0  0
 21 22  1  0  0  0  0
 22 43  1  0  0  0  0
 23 24  2  0  0  0  0
 23 25  1  0  0  0  0
 25 44  1  0  0  0  0
M  END
> <s_m_source_file>
AV-unprocessed.smi

> <i_m_source_file_index>
54

> <i_lp_mmshare_version>
43012

> <i_f3d_flags>
0

> <s_epik_input>
W0NIM11bQ0hdKFtDSDNdKUMoPU8pW05IXWMobjEpW25IXWMoPU8pYyhjMTIpbltjSF1uMltDQEBIXTNPW0NASF0oW0NIMl1bT0hdKVtDQEBIXShbT0hdKVtDQEhdM1tPSF0=

> <s_epik_cmdline>
J2VwaWtfcHl0aG9uJywgJy1waCcsICc3LjAnLCAnLXRuJywgJzgnLCAnLW1hJywgJzIwMCcsICctbWV0YWxfYmluZGluZycsICctaW1hZScsICc8aW5maWxlLm1hZT4nLCAnLW9tYWUnLCAnPG91dGZpbGUubWFlPic=

> <r_lp_tautomer_probability>
0.85571

> <r_epik_Ionization_Penalty>
0.0316551

> <r_epik_Ionization_Penalty_Charging>
0.0316043

> <r_epik_Ionization_Penalty_Neutral>
5.07097e-05

> <r_epik_State_Penalty>
3.15494e-07

> <r_epik_Charging_Adjusted_Penalty>
0.0316047

> <i_epik_Tot_Q>
0

> <i_epik_Tot_abs_Q>
0

> <r_epik_Metal_State_Penalty>
0.421206

> <b_epik_Metal_Only>
0

> <s_epik_Chemistry_Notes>
This compound contains an acetal/aminal-like group ( X-CH(R)-Y where X, Y are N, S, or O) that may be acid/base labile, releasing an aldehyde.

> <s_lp_Force_Field>
OPLS_2005

> <r_lp_Energy>
47.6187

> <b_lp_Chiralities_Consistent>
1

> <s_lp_Variant>
AV-unprocessed.smi:54-2

> <Gold.Version>
5.8.1

> <Gold.Id.Protein>
6NUR|6NUR_protein|mol2

> <Gold.PLP.Fitness>
42.4233

> <Gold.PLP.PLP>
-35.6940

> <Gold.PLP.part.hbond>
-4.5045

> <Gold.PLP.part.metal>
0.0000

> <Gold.PLP.part.buried>
-6.8503

> <Gold.PLP.part.nonpolar>
-26.1195

> <Gold.PLP.part.repulsive>
1.3590

> <Gold.PLP.ligand.clash>
0.0000

> <Gold.PLP.ligand.torsion>
0.9076

> <Gold.PLP.Chemscore.Hbond>
2.8400

> <Gold.PLP.Chemscore.CHOScore>
0.0000

> <Gold.PLP.Chemscore.Metal>
0.0000

> <Gold.Chemscore.Hbonds>
donor molecule, donor type, donor heavy atom, donor atom, acceptor molecule, acceptor atom, score
      L1  H     6    37       P1 10747  1.00
      P1  H  7989  7998       L1    20  0.86
      P1  H 10752 10765       L1    22  0.88

> <Gold.PLP.Chemscore.Internal.Correction>
0.0244

> <Gold.Rescore>
     Score         DG    S(hbond)    S(metal)    S(lipo)     H(rot)  DE(clash)    DE(int)     intcor
      5.21      -7.88       1.91        0.00      54.52       4.05       0.62       2.05       ----

> <Gold.Chemscore.Fitness>
5.2110

> <Gold.Chemscore.DG>
-7.8825

> <Gold.Chemscore.ZeroCoef>
-5.4800

> <Gold.Chemscore.Hbond>
1.9132

> <Gold.Chemscore.Metal>
0.0000

> <Gold.Chemscore.Lipo>
54.5185

> <Gold.Chemscore.Internal_Hbond>
0.0000

> <Gold.Chemscore.DEClash>
0.6233

> <Gold.Chemscore.DEInternal>
2.0482

> <Gold.Chemscore.Rot>
4.0493

> <Gold.Chemscore.Internal.Correction>
   9.000000E+99

> <Gold.Chemscore.Hbonds>
donor molecule, donor type, donor heavy atom, donor atom, acceptor molecule, acceptor atom, score
      L1  H     6    37       P1 10747  0.98
      P1  H  7989  7998       L1    20  0.07
      P1  H 10752 10765       L1    22  0.61

> <Gold.Chemscore.Hbond.Weighted>
-6.3900

> <Gold.Chemscore.Metal.Weighted>
-0.0000

> <Gold.Chemscore.Lipo.Weighted>
-6.3787

> <Gold.Chemscore.Internal_Hbond.Weighted>
0.0000

> <Gold.Chemscore.DEClash.Weighted>
0.6233

> <Gold.Chemscore.DEInternal.Weighted>
2.0482

> <Gold.Chemscore.Rot.Weighted>
10.3662

> <Gold.Chemscore.Internal.Correction.Weighted>
   9.000000E+99

> <Gold.Protein.RotatedTorsions>
[ 6907 6896 6895 6894 ] final  -18.21 input  -60.11 | X-H torsion
[ 7974 7965 7964 7962 ] final  103.78 input  175.53 | X-H torsion
[ 8008 7997 7996 7995 ] final  148.97 input   59.86 | X-H torsion
[ 10167 10162 10161 10158 ] final  131.71 input  -65.29 | X-H torsion
[ 10718 10713 10712 10709 ] final -129.30 input   66.30 | X-H torsion
[ 10763 10752 10751 10750 ] final  157.75 input  -60.55 | X-H torsion
[ 11005 11000 10999 10996 ] final   50.48 input  -57.11 | X-H torsion

> <Gold.Protein.ActiveResidues>
 VAL166  LYS551  ARG553  GLY616  TRP617  ASP618  TYR619  PRO620  LYS621  CYS622 
 ASP623  PHE694  ASN695  SER759  ASP760  ASP761  ALA762  ILE779  LEU786  VAL792 
 PHE793  MET794  SER795  GLU796  ALA797  LYS798  CYS799  TRP800  GLU811  SER814 

> <Gold.Protein.RotatedAtoms>
  151.2816  135.0715  159.9171 H   0  0  0  0  0  0  0  0  0  0  0  0  # atno 6907 bound_to 6896
  152.5333  134.0025  159.7911 H   0  0  0  0  0  0  0  0  0  0  0  0  # atno 6908 bound_to 6896
  151.0280  133.5766  159.2694 H   0  0  0  0  0  0  0  0  0  0  0  0  # atno 6909 bound_to 6896
  145.3414  139.2461  143.3607 H   0  0  0  0  0  0  0  0  0  0  0  0  # atno 7974 bound_to 7965
  156.2772  140.2114  156.5784 H   0  0  0  0  0  0  0  0  0  0  0  0  # atno 8008 bound_to 7997
  154.7079  140.0515  157.0544 H   0  0  0  0  0  0  0  0  0  0  0  0  # atno 8009 bound_to 7997
  155.0646  140.3170  155.4653 H   0  0  0  0  0  0  0  0  0  0  0  0  # atno 8010 bound_to 7997
  139.5372  144.6694  151.4746 H   0  0  0  0  0  0  0  0  0  0  0  0  # atno 10167 bound_to 10162
  156.2034  130.6872  151.0566 H   0  0  0  0  0  0  0  0  0  0  0  0  # atno 10718 bound_to 10713
  154.2052  135.2788  155.2977 H   0  0  0  0  0  0  0  0  0  0  0  0  # atno 10763 bound_to 10752
  154.5823  135.5585  153.7200 H   0  0  0  0  0  0  0  0  0  0  0  0  # atno 10764 bound_to 10752
  153.0078  135.6348  154.2190 H   0  0  0  0  0  0  0  0  0  0  0  0  # atno 10765 bound_to 10752
  140.1014  134.5076  155.8759 H   0  0  0  0  0  0  0  0  0  0  0  0  # atno 11005 bound_to 11000
  146.3006  140.4012  142.8705 LP  0  0  0  0  0  0  0  0  0  0  0  0  # atno 17320 bound_to 7965
  144.8787  140.7371  143.6000 LP  0  0  0  0  0  0  0  0  0  0  0  0  # atno 17321 bound_to 7965
  140.6584  143.8550  150.6861 LP  0  0  0  0  0  0  0  0  0  0  0  0  # atno 17342 bound_to 10162
  140.1937  143.4015  152.1844 LP  0  0  0  0  0  0  0  0  0  0  0  0  # atno 17343 bound_to 10162
  157.6998  131.0780  150.6855 LP  0  0  0  0  0  0  0  0  0  0  0  0  # atno 17370 bound_to 10713
  156.6912  130.4596  149.5599 LP  0  0  0  0  0  0  0  0  0  0  0  0  # atno 17371 bound_to 10713
  141.2106  133.6697  156.6525 LP  0  0  0  0  0  0  0  0  0  0  0  0  # atno 17394 bound_to 11000
  140.3215  134.8004  157.4256 LP  0  0  0  0  0  0  0  0  0  0  0  0  # atno 17395 bound_to 11000

$$$$
