AV-unprocessed.smi:527|AV-procd|sdf|2825|dock2
  -GOLD-   2262023313D 1   1.00000     0.00000
 Structure written by MMmdl.
 43 44  0  0  0  0  0  0  0  0  2 V2000
  152.0930  139.8848  156.7834 C   0  0  0  0  0  0  0  0  0  0  0  0
  151.1320  140.1073  155.6007 C   0  0  2  0  0  0  0  0  0  0  0  0
  150.1753  141.2714  155.9277 C   0  0  0  0  0  0  0  0  0  0  0  0
  149.2159  141.5637  154.7693 C   0  0  0  0  0  0  0  0  0  0  0  0
  148.4087  140.3132  154.4099 C   0  0  0  0  0  0  0  0  0  0  0  0
  149.3310  139.1283  154.0638 C   0  0  2  0  0  0  0  0  0  0  0  0
  148.5124  137.9504  153.7797 N   0  0  0  0  0  0  0  0  0  0  0  0
  147.5679  137.4439  154.5861 C   0  0  0  0  0  0  0  0  0  0  0  0
  147.2202  137.9759  155.6426 O   0  0  0  0  0  0  0  0  0  0  0  0
  147.0693  136.2985  154.0821 N   0  0  0  0  0  0  0  0  0  0  0  0
  146.0784  135.5381  154.5902 C   0  0  0  0  0  0  0  0  0  0  0  0
  145.4601  135.7841  155.6291 O   0  0  0  0  0  0  0  0  0  0  0  0
  145.7433  134.2877  153.7667 C   0  0  0  0  0  0  0  0  0  0  0  0
  145.0435  134.5929  152.5122 N   0  0  0  0  0  0  0  0  0  0  0  0
  145.4865  135.3868  151.4848 C   0  0  0  0  0  0  0  0  0  0  0  0
  144.4998  135.3810  150.5328 C   0  0  0  0  0  0  0  0  0  0  0  0
  143.4966  134.5861  151.0188 N   0  3  0  0  0  0  0  0  0  0  0  0
  143.8283  134.1082  152.2228 C   0  0  0  0  0  0  0  0  0  0  0  0
  150.3416  138.8274  155.2044 C   0  0  1  0  0  0  0  0  0  0  0  0
  151.2815  137.6640  154.8181 C   0  0  0  0  0  0  0  0  0  0  0  0
  151.5666  139.4934  157.6543 H   0  0  0  0  0  0  0  0  0  0  0  0
  152.5707  140.8194  157.0793 H   0  0  0  0  0  0  0  0  0  0  0  0
  152.8946  139.1911  156.5328 H   0  0  0  0  0  0  0  0  0  0  0  0
  151.7353  140.4100  154.7435 H   0  0  0  0  0  0  0  0  0  0  0  0
  149.6005  141.0371  156.8250 H   0  0  0  0  0  0  0  0  0  0  0  0
  150.7465  142.1720  156.1557 H   0  0  0  0  0  0  0  0  0  0  0  0
  148.5411  142.3761  155.0407 H   0  0  0  0  0  0  0  0  0  0  0  0
  149.7786  141.9039  153.8990 H   0  0  0  0  0  0  0  0  0  0  0  0
  147.7618  140.0480  155.2473 H   0  0  0  0  0  0  0  0  0  0  0  0
  147.7501  140.5364  153.5694 H   0  0  0  0  0  0  0  0  0  0  0  0
  149.9046  139.3875  153.1715 H   0  0  0  0  0  0  0  0  0  0  0  0
  148.6768  137.4932  152.8950 H   0  0  0  0  0  0  0  0  0  0  0  0
  147.4862  135.9726  153.2227 H   0  0  0  0  0  0  0  0  0  0  0  0
  146.6623  133.7551  153.5184 H   0  0  0  0  0  0  0  0  0  0  0  0
  145.1199  133.6111  154.3534 H   0  0  0  0  0  0  0  0  0  0  0  0
  146.4444  135.8860  151.5081 H   0  0  0  0  0  0  0  0  0  0  0  0
  144.4375  135.8715  149.5723 H   0  0  0  0  0  0  0  0  0  0  0  0
  143.2306  133.4609  152.8397 H   0  0  0  0  0  0  0  0  0  0  0  0
  149.7705  138.5091  156.0782 H   0  0  0  0  0  0  0  0  0  0  0  0
  151.9224  137.9370  153.9793 H   0  0  0  0  0  0  0  0  0  0  0  0
  150.7277  136.7702  154.5313 H   0  0  0  0  0  0  0  0  0  0  0  0
  151.9231  137.3682  155.6470 H   0  0  0  0  0  0  0  0  0  0  0  0
  142.6273  134.3883  150.5389 H   0  0  0  0  0  0  0  0  0  0  0  0
  1  2  1  0  0  0  0
  1 21  1  0  0  0  0
  1 22  1  0  0  0  0
  1 23  1  0  0  0  0
  2 19  1  0  0  0  0
  2  3  1  0  0  0  0
  2 24  1  0  0  0  0
  3  4  1  0  0  0  0
  3 25  1  0  0  0  0
  3 26  1  0  0  0  0
  4  5  1  0  0  0  0
  4 27  1  0  0  0  0
  4 28  1  0  0  0  0
  5  6  1  0  0  0  0
  5 29  1  0  0  0  0
  5 30  1  0  0  0  0
  6  7  1  0  0  0  0
  6 19  1  0  0  0  0
  6 31  1  0  0  0  0
  7  8  1  0  0  0  0
  7 32  1  0  0  0  0
  8  9  2  0  0  0  0
  8 10  1  0  0  0  0
 10 11  1  0  0  0  0
 10 33  1  0  0  0  0
 11 12  2  0  0  0  0
 11 13  1  0  0  0  0
 13 14  1  0  0  0  0
 13 34  1  0  0  0  0
 13 35  1  0  0  0  0
 14 18  1  0  0  0  0
 14 15  1  0  0  0  0
 15 16  2  0  0  0  0
 15 36  1  0  0  0  0
 16 17  1  0  0  0  0
 16 37  1  0  0  0  0
 17 18  2  0  0  0  0
 17 43  1  0  0  0  0
 18 38  1  0  0  0  0
 19 20  1  0  0  0  0
 19 39  1  0  0  0  0
 20 40  1  0  0  0  0
 20 41  1  0  0  0  0
 20 42  1  0  0  0  0
M  CHG  1  17   1
M  END
> <s_m_source_file>
AV-unprocessed.smi

> <i_m_source_file_index>
527

> <i_lp_mmshare_version>
43012

> <i_f3d_flags>
0

> <s_epik_input>
W0NIM11bQ0BASF0xW0NIMl1bQ0gyXVtDSDJdW0NASF0oW0NASF0xW0NIM10pW05IXUMoPU8pW05IXUMoPU8pW0NIMl1uMltjSF1bY0hdbltjSF0y

> <s_epik_cmdline>
J2VwaWtfcHl0aG9uJywgJy1waCcsICc3LjAnLCAnLXRuJywgJzgnLCAnLW1hJywgJzIwMCcsICctbWV0YWxfYmluZGluZycsICctaW1hZScsICc8aW5maWxlLm1hZT4nLCAnLW9tYWUnLCAnPG91dGZpbGUubWFlPic=

> <r_lp_tautomer_probability>
1

> <r_epik_Ionization_Penalty>
0.816441

> <r_epik_Ionization_Penalty_Charging>
0

> <r_epik_Ionization_Penalty_Neutral>
0.816441

> <r_epik_State_Penalty>
0.849034

> <r_epik_Charging_Adjusted_Penalty>
0.849034

> <i_epik_Tot_Q>
1

> <i_epik_Tot_abs_Q>
1

> <r_epik_Metal_State_Penalty>
0.984327

> <b_epik_Metal_Only>
0

> <s_lp_Force_Field>
OPLS_2005

> <r_lp_Energy>
16.8338

> <b_lp_Chiralities_Consistent>
1

> <s_lp_Variant>
AV-unprocessed.smi:527-11

> <Gold.Version>
5.8.1

> <Gold.Id.Protein>
6NUR|6NUR_protein|mol2

> <Gold.PLP.Fitness>
48.0991

> <Gold.PLP.PLP>
-30.6810

> <Gold.PLP.part.hbond>
-3.0000

> <Gold.PLP.part.metal>
0.0000

> <Gold.PLP.part.buried>
-0.7557

> <Gold.PLP.part.nonpolar>
-27.6187

> <Gold.PLP.part.repulsive>
0.0399

> <Gold.PLP.ligand.clash>
0.0000

> <Gold.PLP.ligand.torsion>
0.2122

> <Gold.PLP.Chemscore.Hbond>
3.9440

> <Gold.PLP.Chemscore.CHOScore>
1.9978

> <Gold.PLP.Chemscore.Metal>
0.0000

> <Gold.Chemscore.Hbonds>
donor molecule, donor type, donor heavy atom, donor atom, acceptor molecule, acceptor atom, score
      L1  H     7    32       P1  7948  1.00
      L1  H    10    33       P1  7948  0.94
      L1  H    17    43       P1 10186  2.00
      L1  C    15    36       P1  7948  1.00
      L1  C    18    38       P1 10957  0.75

> <Gold.PLP.Chemscore.Internal.Correction>
0.0171

> <Gold.Rescore>
     Score         DG    S(hbond)    S(metal)    S(lipo)     H(rot)  DE(clash)    DE(int)     intcor
     15.55     -18.17       2.85        0.00      64.41       1.71       0.02       2.61       ----

> <Gold.Chemscore.Fitness>
15.5494

> <Gold.Chemscore.DG>
-18.1725

> <Gold.Chemscore.ZeroCoef>
-5.4800

> <Gold.Chemscore.Hbond>
2.8507

> <Gold.Chemscore.Metal>
0.0000

> <Gold.Chemscore.Lipo>
64.4137

> <Gold.Chemscore.Internal_Hbond>
0.0000

> <Gold.Chemscore.DEClash>
0.0174

> <Gold.Chemscore.DEInternal>
2.6057

> <Gold.Chemscore.Rot>
1.7052

> <Gold.Chemscore.Internal.Correction>
   9.000000E+99

> <Gold.Chemscore.Hbonds>
donor molecule, donor type, donor heavy atom, donor atom, acceptor molecule, acceptor atom, score
      L1  H     7    32       P1  7948  0.99
      L1  H    10    33       P1  7948  0.87
      L1  H    17    43       P1 10186  0.50

> <Gold.Chemscore.Hbond.Weighted>
-9.5214

> <Gold.Chemscore.Metal.Weighted>
-0.0000

> <Gold.Chemscore.Lipo.Weighted>
-7.5364

> <Gold.Chemscore.Internal_Hbond.Weighted>
0.0000

> <Gold.Chemscore.DEClash.Weighted>
0.0174

> <Gold.Chemscore.DEInternal.Weighted>
2.6057

> <Gold.Chemscore.Rot.Weighted>
4.3653

> <Gold.Chemscore.Internal.Correction.Weighted>
   9.000000E+99

> <Gold.Protein.RotatedTorsions>
[ 6907 6896 6895 6894 ] final  132.18 input  -60.11 | X-H torsion
[ 7974 7965 7964 7962 ] final   96.16 input  175.53 | X-H torsion
[ 8008 7997 7996 7995 ] final -149.80 input   59.86 | X-H torsion
[ 10167 10162 10161 10158 ] final   -1.05 input  -65.29 | X-H torsion
[ 10718 10713 10712 10709 ] final   26.47 input   66.30 | X-H torsion
[ 10763 10752 10751 10750 ] final -119.58 input  -60.55 | X-H torsion
[ 11005 11000 10999 10996 ] final  130.43 input  -57.11 | X-H torsion

> <Gold.Protein.ActiveResidues>
 VAL166  LYS551  ARG553  GLY616  TRP617  ASP618  TYR619  PRO620  LYS621  CYS622 
 ASP623  PHE694  ASN695  SER759  ASP760  ASP761  ALA762  ILE779  LEU786  VAL792 
 PHE793  MET794  SER795  GLU796  ALA797  LYS798  CYS799  TRP800  GLU811  SER814 

> <Gold.Protein.RotatedAtoms>
  152.3350  133.6001  159.5836 H   0  0  0  0  0  0  0  0  0  0  0  0  # atno 6907 bound_to 6896
  150.7445  133.9809  159.3585 H   0  0  0  0  0  0  0  0  0  0  0  0  # atno 6908 bound_to 6896
  151.7680  135.0794  160.0406 H   0  0  0  0  0  0  0  0  0  0  0  0  # atno 6909 bound_to 6896
  145.4426  139.2300  143.3083 H   0  0  0  0  0  0  0  0  0  0  0  0  # atno 7974 bound_to 7965
  155.6134  140.0674  157.2699 H   0  0  0  0  0  0  0  0  0  0  0  0  # atno 8008 bound_to 7997
  154.4248  140.1797  156.1343 H   0  0  0  0  0  0  0  0  0  0  0  0  # atno 8009 bound_to 7997
  156.0067  140.3331  155.6903 H   0  0  0  0  0  0  0  0  0  0  0  0  # atno 8010 bound_to 7997
  140.6794  143.6821  150.8097 H   0  0  0  0  0  0  0  0  0  0  0  0  # atno 10167 bound_to 10162
  157.2073  130.6918  149.6213 H   0  0  0  0  0  0  0  0  0  0  0  0  # atno 10718 bound_to 10713
  154.8621  135.4233  154.2321 H   0  0  0  0  0  0  0  0  0  0  0  0  # atno 10763 bound_to 10752
  153.3304  135.6988  153.6958 H   0  0  0  0  0  0  0  0  0  0  0  0  # atno 10764 bound_to 10752
  153.5977  135.3543  155.2907 H   0  0  0  0  0  0  0  0  0  0  0  0  # atno 10765 bound_to 10752
  139.9672  134.9587  156.9293 H   0  0  0  0  0  0  0  0  0  0  0  0  # atno 11005 bound_to 11000
  146.2548  140.5176  142.8878 LP  0  0  0  0  0  0  0  0  0  0  0  0  # atno 17320 bound_to 7965
  144.8112  140.6388  143.6414 LP  0  0  0  0  0  0  0  0  0  0  0  0  # atno 17321 bound_to 7965
  140.0519  143.5241  152.2670 LP  0  0  0  0  0  0  0  0  0  0  0  0  # atno 17342 bound_to 10162
  139.6106  144.7607  151.2960 LP  0  0  0  0  0  0  0  0  0  0  0  0  # atno 17343 bound_to 10162
  155.9694  130.4563  150.5919 LP  0  0  0  0  0  0  0  0  0  0  0  0  # atno 17370 bound_to 10713
  157.3707  131.0765  151.1560 LP  0  0  0  0  0  0  0  0  0  0  0  0  # atno 17371 bound_to 10713
  140.5372  134.0756  155.7331 LP  0  0  0  0  0  0  0  0  0  0  0  0  # atno 17394 bound_to 11000
  141.1351  133.9235  157.2451 LP  0  0  0  0  0  0  0  0  0  0  0  0  # atno 17395 bound_to 11000

$$$$
