AV-unprocessed.smi:1205|AV-procd|sdf|5041|dock4
  -GOLD-   22720 4 63D 1   1.00000     0.00000
 Structure written by MMmdl.
 49 50  0  0  0  0  0  0  0  0  2 V2000
  136.8021  140.0042  153.9166 C   0  0  0  0  0  0  0  0  0  0  0  0
  138.3019  140.0016  153.8922 C   0  0  0  0  0  0  0  0  0  0  0  0
  139.1682  139.0407  153.2942 C   0  0  0  0  0  0  0  0  0  0  0  0
  140.4110  139.5371  153.5789 C   0  0  0  0  0  0  0  0  0  0  0  0
  141.6298  139.0271  153.2573 N   0  0  0  0  0  0  0  0  0  0  0  0
  142.0192  137.7407  153.2274 C   0  0  0  0  0  0  0  0  0  0  0  0
  141.3066  136.7706  153.4862 O   0  0  0  0  0  0  0  0  0  0  0  0
  143.3087  137.6303  152.8767 N   0  0  0  0  0  0  0  0  0  0  0  0
  144.0324  136.3685  152.7546 C   0  0  0  0  0  0  0  0  0  0  0  0
  145.5582  136.5687  152.5966 C   0  0  2  0  0  0  0  0  0  0  0  0
  145.9176  137.5362  151.4481 C   0  0  0  0  0  0  0  0  0  0  0  0
  146.2538  135.2530  152.4900 N   0  3  2  0  0  0  0  0  0  0  0  0
  145.9219  134.5049  151.2487 C   0  0  0  0  0  0  0  0  0  0  0  0
  146.8699  133.3096  151.0629 C   0  0  0  0  0  0  0  0  0  0  0  0
  146.8492  132.3898  152.2927 C   0  0  0  0  0  0  0  0  0  0  0  0
  147.1220  133.1767  153.5890 C   0  0  1  0  0  0  0  0  0  0  0  0
  148.5977  133.5856  153.7397 C   0  0  0  0  0  0  0  0  0  0  0  0
  146.1687  134.3843  153.6971 C   0  0  0  0  0  0  0  0  0  0  0  0
  140.2701  140.7053  154.2943 N   0  0  0  0  0  0  0  0  0  0  0  0
  141.2895  141.5903  154.8232 C   0  0  0  0  0  0  0  0  0  0  0  0
  138.9635  140.9888  154.4856 N   0  0  0  0  0  0  0  0  0  0  0  0
  136.3987  139.1284  153.4080 H   0  0  0  0  0  0  0  0  0  0  0  0
  136.4026  140.8893  153.4208 H   0  0  0  0  0  0  0  0  0  0  0  0
  136.4259  139.9953  154.9400 H   0  0  0  0  0  0  0  0  0  0  0  0
  138.9000  138.1455  152.7538 H   0  0  0  0  0  0  0  0  0  0  0  0
  142.3287  139.7113  153.0078 H   0  0  0  0  0  0  0  0  0  0  0  0
  143.8243  138.4754  152.6775 H   0  0  0  0  0  0  0  0  0  0  0  0
  143.8193  135.7416  153.6224 H   0  0  0  0  0  0  0  0  0  0  0  0
  143.6206  135.8460  151.8918 H   0  0  0  0  0  0  0  0  0  0  0  0
  145.9057  137.0289  153.5225 H   0  0  0  0  0  0  0  0  0  0  0  0
  145.5123  138.5316  151.6314 H   0  0  0  0  0  0  0  0  0  0  0  0
  145.5184  137.1975  150.4921 H   0  0  0  0  0  0  0  0  0  0  0  0
  146.9962  137.6499  151.3405 H   0  0  0  0  0  0  0  0  0  0  0  0
  144.8877  134.1604  151.2868 H   0  0  0  0  0  0  0  0  0  0  0  0
  146.0068  135.1600  150.3810 H   0  0  0  0  0  0  0  0  0  0  0  0
  146.5855  132.7454  150.1742 H   0  0  0  0  0  0  0  0  0  0  0  0
  147.8838  133.6691  150.8835 H   0  0  0  0  0  0  0  0  0  0  0  0
  145.8703  131.9134  152.3622 H   0  0  0  0  0  0  0  0  0  0  0  0
  147.5728  131.5824  152.1746 H   0  0  0  0  0  0  0  0  0  0  0  0
  146.9018  132.5105  154.4243 H   0  0  0  0  0  0  0  0  0  0  0  0
  148.9111  134.2785  152.9590 H   0  0  0  0  0  0  0  0  0  0  0  0
  149.2520  132.7146  153.6919 H   0  0  0  0  0  0  0  0  0  0  0  0
  148.7721  134.0721  154.6998 H   0  0  0  0  0  0  0  0  0  0  0  0
  146.4027  134.9496  154.5986 H   0  0  0  0  0  0  0  0  0  0  0  0
  145.1461  134.0229  153.8136 H   0  0  0  0  0  0  0  0  0  0  0  0
  141.9734  141.8806  154.0250 H   0  0  0  0  0  0  0  0  0  0  0  0
  141.8496  141.0760  155.6045 H   0  0  0  0  0  0  0  0  0  0  0  0
  140.8372  142.4897  155.2438 H   0  0  0  0  0  0  0  0  0  0  0  0
  147.2312  135.4884  152.3932 H   0  0  0  0  0  0  0  0  0  0  0  0
  1  2  1  0  0  0  0
  1 22  1  0  0  0  0
  1 23  1  0  0  0  0
  1 24  1  0  0  0  0
  2 21  2  0  0  0  0
  2  3  1  0  0  0  0
  3  4  2  0  0  0  0
  3 25  1  0  0  0  0
  4  5  1  0  0  0  0
  4 19  1  0  0  0  0
  5  6  1  0  0  0  0
  5 26  1  0  0  0  0
  6  7  2  0  0  0  0
  6  8  1  0  0  0  0
  8  9  1  0  0  0  0
  8 27  1  0  0  0  0
  9 10  1  0  0  0  0
  9 28  1  0  0  0  0
  9 29  1  0  0  0  0
 10 11  1  0  0  0  0
 10 12  1  0  0  0  0
 10 30  1  0  0  0  0
 11 31  1  0  0  0  0
 11 32  1  0  0  0  0
 11 33  1  0  0  0  0
 12 18  1  0  0  0  0
 12 13  1  0  0  0  0
 12 49  1  0  0  0  0
 13 14  1  0  0  0  0
 13 34  1  0  0  0  0
 13 35  1  0  0  0  0
 14 15  1  0  0  0  0
 14 36  1  0  0  0  0
 14 37  1  0  0  0  0
 15 16  1  0  0  0  0
 15 38  1  0  0  0  0
 15 39  1  0  0  0  0
 16 17  1  0  0  0  0
 16 18  1  0  0  0  0
 16 40  1  0  0  0  0
 17 41  1  0  0  0  0
 17 42  1  0  0  0  0
 17 43  1  0  0  0  0
 18 44  1  0  0  0  0
 18 45  1  0  0  0  0
 19 20  1  0  0  0  0
 19 21  1  0  0  0  0
 20 46  1  0  0  0  0
 20 47  1  0  0  0  0
 20 48  1  0  0  0  0
M  CHG  1  12   1
M  END
> <s_m_source_file>
AV-unprocessed.smi

> <i_m_source_file_index>
1205

> <i_lp_mmshare_version>
43012

> <i_f3d_flags>
0

> <s_epik_input>
W0NIM11jMVtjSF1jKG4objEpW0NIM10pW05IXUMoPU8pW05IXVtDSDJdW0NASF0oW0NIM10pTjJbQ0gyXVtDSDJdW0NIMl1bQ0BASF0oW0NIM10pW0NIMl0y

> <s_epik_cmdline>
J2VwaWtfcHl0aG9uJywgJy1waCcsICc3LjAnLCAnLXRuJywgJzgnLCAnLW1hJywgJzIwMCcsICctbWV0YWxfYmluZGluZycsICctaW1hZScsICc8aW5maWxlLm1hZT4nLCAnLW9tYWUnLCAnPG91dGZpbGUubWFlPic=

> <r_lp_tautomer_probability>
1

> <r_epik_Ionization_Penalty>
0.0020309

> <r_epik_Ionization_Penalty_Charging>
0.00195276

> <r_epik_Ionization_Penalty_Neutral>
7.81448e-05

> <r_epik_State_Penalty>
0.00133177

> <r_epik_Charging_Adjusted_Penalty>
0.00328452

> <i_epik_Tot_Q>
1

> <i_epik_Tot_abs_Q>
1

> <r_epik_Metal_State_Penalty>
-0

> <b_epik_Metal_Only>
0

> <s_lp_Force_Field>
OPLS_2005

> <r_lp_Energy>
24.2768

> <b_lp_Chiralities_Consistent>
1

> <s_lp_Variant>
AV-unprocessed.smi:1205-3

> <Gold.Version>
5.8.1

> <Gold.Id.Protein>
6NUR|6NUR_protein|mol2

> <Gold.PLP.Fitness>
42.8371

> <Gold.PLP.PLP>
-31.8715

> <Gold.PLP.part.hbond>
-4.3597

> <Gold.PLP.part.metal>
0.0000

> <Gold.PLP.part.buried>
2.6612

> <Gold.PLP.part.nonpolar>
-29.6388

> <Gold.PLP.part.repulsive>
0.2763

> <Gold.PLP.ligand.clash>
0.0000

> <Gold.PLP.ligand.torsion>
0.4000

> <Gold.PLP.Chemscore.Hbond>
3.8800

> <Gold.PLP.Chemscore.CHOScore>
0.0000

> <Gold.PLP.Chemscore.Metal>
0.0000

> <Gold.Chemscore.Hbonds>
donor molecule, donor type, donor heavy atom, donor atom, acceptor molecule, acceptor atom, score
      L1  H     5    26       P1 10175  1.00
      L1  H     8    27       P1 10175  0.86
      L1  H    12    49       P1  7948  2.00

> <Gold.PLP.Chemscore.Internal.Correction>
0.1256

> <Gold.Rescore>
     Score         DG    S(hbond)    S(metal)    S(lipo)     H(rot)  DE(clash)    DE(int)     intcor
     17.03     -18.99       2.77        0.00      68.45       1.47       1.50       0.46       ----

> <Gold.Chemscore.Fitness>
17.0300

> <Gold.Chemscore.DG>
-18.9892

> <Gold.Chemscore.ZeroCoef>
-5.4800

> <Gold.Chemscore.Hbond>
2.7704

> <Gold.Chemscore.Metal>
0.0000

> <Gold.Chemscore.Lipo>
68.4491

> <Gold.Chemscore.Internal_Hbond>
0.0000

> <Gold.Chemscore.DEClash>
1.4976

> <Gold.Chemscore.DEInternal>
0.4615

> <Gold.Chemscore.Rot>
1.4658

> <Gold.Chemscore.Internal.Correction>
   9.000000E+99

> <Gold.Chemscore.Hbonds>
donor molecule, donor type, donor heavy atom, donor atom, acceptor molecule, acceptor atom, score
      L1  H     5    26       P1 10175  0.81
      L1  H     8    27       P1 10175  0.83
      L1  H    12    49       P1  7948  1.00

> <Gold.Chemscore.Hbond.Weighted>
-9.2532

> <Gold.Chemscore.Metal.Weighted>
-0.0000

> <Gold.Chemscore.Lipo.Weighted>
-8.0085

> <Gold.Chemscore.Internal_Hbond.Weighted>
0.0000

> <Gold.Chemscore.DEClash.Weighted>
1.4976

> <Gold.Chemscore.DEInternal.Weighted>
0.4615

> <Gold.Chemscore.Rot.Weighted>
3.7526

> <Gold.Chemscore.Internal.Correction.Weighted>
   9.000000E+99

> <Gold.Protein.RotatedTorsions>
[ 6907 6896 6895 6894 ] final  -18.59 input  -60.11 | X-H torsion
[ 7974 7965 7964 7962 ] final  -65.60 input  175.53 | X-H torsion
[ 8008 7997 7996 7995 ] final   54.36 input   59.86 | X-H torsion
[ 10167 10162 10161 10158 ] final  152.21 input  -65.29 | X-H torsion
[ 10718 10713 10712 10709 ] final  -22.31 input   66.30 | X-H torsion
[ 10763 10752 10751 10750 ] final  138.08 input  -60.55 | X-H torsion
[ 11005 11000 10999 10996 ] final  -41.42 input  -57.11 | X-H torsion

> <Gold.Protein.ActiveResidues>
 VAL166  LYS551  ARG553  GLY616  TRP617  ASP618  TYR619  PRO620  LYS621  CYS622 
 ASP623  PHE694  ASN695  SER759  ASP760  ASP761  ALA762  ILE779  LEU786  VAL792 
 PHE793  MET794  SER795  GLU796  ALA797  LYS798  CYS799  TRP800  GLU811  SER814 

> <Gold.Protein.RotatedAtoms>
  151.2759  135.0699  159.9151 H   0  0  0  0  0  0  0  0  0  0  0  0  # atno 6907 bound_to 6896
  152.5342  134.0081  159.7936 H   0  0  0  0  0  0  0  0  0  0  0  0  # atno 6908 bound_to 6896
  151.0327  133.5725  159.2690 H   0  0  0  0  0  0  0  0  0  0  0  0  # atno 6909 bound_to 6896
  145.7522  140.8903  143.0474 H   0  0  0  0  0  0  0  0  0  0  0  0  # atno 7974 bound_to 7965
  155.4835  140.3469  155.4343 H   0  0  0  0  0  0  0  0  0  0  0  0  # atno 8008 bound_to 7997
  156.1024  140.1439  156.9478 H   0  0  0  0  0  0  0  0  0  0  0  0  # atno 8009 bound_to 7997
  154.4702  140.0903  156.7103 H   0  0  0  0  0  0  0  0  0  0  0  0  # atno 8010 bound_to 7997
  139.4834  144.5377  151.7618 H   0  0  0  0  0  0  0  0  0  0  0  0  # atno 10167 bound_to 10162
  156.5062  130.4599  149.6673 H   0  0  0  0  0  0  0  0  0  0  0  0  # atno 10718 bound_to 10713
  153.8837  135.3041  155.3446 H   0  0  0  0  0  0  0  0  0  0  0  0  # atno 10763 bound_to 10752
  154.7749  135.4866  153.9728 H   0  0  0  0  0  0  0  0  0  0  0  0  # atno 10764 bound_to 10752
  153.1337  135.6809  153.9234 H   0  0  0  0  0  0  0  0  0  0  0  0  # atno 10765 bound_to 10752
  141.0245  133.6848  156.2455 H   0  0  0  0  0  0  0  0  0  0  0  0  # atno 11005 bound_to 11000
  144.6847  139.9607  143.7480 LP  0  0  0  0  0  0  0  0  0  0  0  0  # atno 17320 bound_to 7965
  146.0345  139.3365  143.0735 LP  0  0  0  0  0  0  0  0  0  0  0  0  # atno 17321 bound_to 7965
  140.4911  144.1308  150.5950 LP  0  0  0  0  0  0  0  0  0  0  0  0  # atno 17342 bound_to 10162
  140.4169  143.2630  151.9763 LP  0  0  0  0  0  0  0  0  0  0  0  0  # atno 17343 bound_to 10162
  156.3284  130.7318  151.2243 LP  0  0  0  0  0  0  0  0  0  0  0  0  # atno 17370 bound_to 10713
  157.7456  131.0436  150.4754 LP  0  0  0  0  0  0  0  0  0  0  0  0  # atno 17371 bound_to 10713
  140.6516  134.5061  157.5578 LP  0  0  0  0  0  0  0  0  0  0  0  0  # atno 17394 bound_to 11000
  139.9167  134.8232  156.1344 LP  0  0  0  0  0  0  0  0  0  0  0  0  # atno 17395 bound_to 11000

$$$$
