AV-unprocessed.smi:1007|AV-procd|sdf|4406|dock2
  -GOLD-   22720 2343D 1   1.00000     0.00000
 Structure written by MMmdl.
 57 59  0  0  0  0  0  0  0  0  3 V2000
  141.7710  134.9150  153.1895 C   0  0  0  0  0  0  0  0  0  0  0  0
  143.0786  135.1652  152.7034 O   0  0  0  0  0  0  0  0  0  0  0  0
  143.5545  136.4523  153.0604 C   0  0  0  0  0  0  0  0  0  0  0  0
  144.8393  136.7437  152.2695 C   0  0  0  0  0  0  0  0  0  0  0  0
  145.4183  138.0732  152.5906 N   0  3  2  0  0  0  0  0  0  0  0  0
  146.5927  138.4272  151.7528 C   0  0  0  0  0  0  0  0  0  0  0  0
  147.1022  139.8432  152.0774 C   0  0  0  0  0  0  0  0  0  0  0  0
  147.4175  139.9832  153.5220 N   0  3  1  0  0  0  0  0  0  0  0  0
  147.9858  141.3083  153.8792 C   0  0  0  0  0  0  0  0  0  0  0  0
  148.7371  141.2910  155.2291 C   0  0  2  0  0  0  0  0  0  0  0  0
  148.0037  142.0674  156.1565 O   0  0  0  0  0  0  0  0  0  0  0  0
  150.1787  141.8390  155.1385 C   0  0  0  0  0  0  0  0  0  0  0  0
  151.0308  141.4215  156.2402 N   0  0  0  0  0  0  0  0  0  0  0  0
  151.7397  140.2794  156.3332 C   0  0  0  0  0  0  0  0  0  0  0  0
  152.4450  140.0889  157.4438 N   0  0  0  0  0  0  0  0  0  0  0  0
  152.1717  141.2468  158.1509 C   0  0  0  0  0  0  0  0  0  0  0  0
  152.6137  141.6703  159.4230 C   0  0  0  0  0  0  0  0  0  0  0  0
  152.2013  142.9116  159.9576 C   0  0  0  0  0  0  0  0  0  0  0  0
  152.7038  143.3287  161.3287 C   0  0  0  0  0  0  0  0  0  0  0  0
  151.3324  143.7512  159.2156 C   0  0  0  0  0  0  0  0  0  0  0  0
  150.8817  145.0922  159.7671 C   0  0  0  0  0  0  0  0  0  0  0  0
  150.8787  143.3421  157.9444 C   0  0  0  0  0  0  0  0  0  0  0  0
  151.2953  142.1041  157.4234 C   0  0  0  0  0  0  0  0  0  0  0  0
  146.2441  139.6293  154.3579 C   0  0  0  0  0  0  0  0  0  0  0  0
  145.7351  138.2140  154.0333 C   0  0  0  0  0  0  0  0  0  0  0  0
  141.4572  133.9128  152.8975 H   0  0  0  0  0  0  0  0  0  0  0  0
  141.0539  135.6250  152.7753 H   0  0  0  0  0  0  0  0  0  0  0  0
  141.7350  134.9755  154.2780 H   0  0  0  0  0  0  0  0  0  0  0  0
  142.8013  137.2009  152.8096 H   0  0  0  0  0  0  0  0  0  0  0  0
  143.7212  136.5174  154.1358 H   0  0  0  0  0  0  0  0  0  0  0  0
  145.5625  135.9612  152.5051 H   0  0  0  0  0  0  0  0  0  0  0  0
  144.6515  136.6734  151.1971 H   0  0  0  0  0  0  0  0  0  0  0  0
  147.3891  137.6990  151.9163 H   0  0  0  0  0  0  0  0  0  0  0  0
  146.3336  138.3781  150.6957 H   0  0  0  0  0  0  0  0  0  0  0  0
  147.9858  140.0494  151.4742 H   0  0  0  0  0  0  0  0  0  0  0  0
  146.3495  140.5816  151.7960 H   0  0  0  0  0  0  0  0  0  0  0  0
  148.6446  141.6463  153.0780 H   0  0  0  0  0  0  0  0  0  0  0  0
  147.1783  142.0401  153.9368 H   0  0  0  0  0  0  0  0  0  0  0  0
  148.7934  140.2758  155.6204 H   0  0  0  0  0  0  0  0  0  0  0  0
  147.9767  142.9611  155.8477 H   0  0  0  0  0  0  0  0  0  0  0  0
  150.6459  141.5303  154.2021 H   0  0  0  0  0  0  0  0  0  0  0  0
  150.1568  142.9293  155.1195 H   0  0  0  0  0  0  0  0  0  0  0  0
  151.7300  139.5417  155.5440 H   0  0  0  0  0  0  0  0  0  0  0  0
  153.2769  141.0310  159.9874 H   0  0  0  0  0  0  0  0  0  0  0  0
  153.2720  144.2566  161.2608 H   0  0  0  0  0  0  0  0  0  0  0  0
  153.3544  142.5690  161.7627 H   0  0  0  0  0  0  0  0  0  0  0  0
  151.8687  143.4832  162.0120 H   0  0  0  0  0  0  0  0  0  0  0  0
  150.2097  145.6013  159.0759 H   0  0  0  0  0  0  0  0  0  0  0  0
  151.7406  145.7414  159.9377 H   0  0  0  0  0  0  0  0  0  0  0  0
  150.3537  144.9607  160.7118 H   0  0  0  0  0  0  0  0  0  0  0  0
  150.2174  143.9737  157.3701 H   0  0  0  0  0  0  0  0  0  0  0  0
  146.5151  139.6783  155.4134 H   0  0  0  0  0  0  0  0  0  0  0  0
  145.4498  140.3605  154.1994 H   0  0  0  0  0  0  0  0  0  0  0  0
  144.8444  138.0080  154.6282 H   0  0  0  0  0  0  0  0  0  0  0  0
  146.4841  137.4719  154.3150 H   0  0  0  0  0  0  0  0  0  0  0  0
  148.1345  139.3052  153.7409 H   0  0  0  0  0  0  0  0  0  0  0  0
  144.6946  138.7502  152.3925 H   0  0  0  0  0  0  0  0  0  0  0  0
  1  2  1  0  0  0  0
  1 26  1  0  0  0  0
  1 27  1  0  0  0  0
  1 28  1  0  0  0  0
  2  3  1  0  0  0  0
  3  4  1  0  0  0  0
  3 29  1  0  0  0  0
  3 30  1  0  0  0  0
  4  5  1  0  0  0  0
  4 31  1  0  0  0  0
  4 32  1  0  0  0  0
  5 25  1  0  0  0  0
  5  6  1  0  0  0  0
  5 57  1  0  0  0  0
  6  7  1  0  0  0  0
  6 33  1  0  0  0  0
  6 34  1  0  0  0  0
  7  8  1  0  0  0  0
  7 35  1  0  0  0  0
  7 36  1  0  0  0  0
  8  9  1  0  0  0  0
  8 24  1  0  0  0  0
  8 56  1  0  0  0  0
  9 10  1  0  0  0  0
  9 37  1  0  0  0  0
  9 38  1  0  0  0  0
 10 11  1  0  0  0  0
 10 12  1  0  0  0  0
 10 39  1  0  0  0  0
 11 40  1  0  0  0  0
 12 13  1  0  0  0  0
 12 41  1  0  0  0  0
 12 42  1  0  0  0  0
 13 23  1  0  0  0  0
 13 14  1  0  0  0  0
 14 15  2  0  0  0  0
 14 43  1  0  0  0  0
 15 16  1  0  0  0  0
 16 23  2  0  0  0  0
 16 17  1  0  0  0  0
 17 18  2  0  0  0  0
 17 44  1  0  0  0  0
 18 19  1  0  0  0  0
 18 20  1  0  0  0  0
 19 45  1  0  0  0  0
 19 46  1  0  0  0  0
 19 47  1  0  0  0  0
 20 21  1  0  0  0  0
 20 22  2  0  0  0  0
 21 48  1  0  0  0  0
 21 49  1  0  0  0  0
 21 50  1  0  0  0  0
 22 23  1  0  0  0  0
 22 51  1  0  0  0  0
 24 25  1  0  0  0  0
 24 52  1  0  0  0  0
 24 53  1  0  0  0  0
 25 54  1  0  0  0  0
 25 55  1  0  0  0  0
M  CHG  1   5   1
M  CHG  1   8   1
M  END
> <s_m_source_file>
AV-unprocessed.smi

> <i_m_source_file_index>
1007

> <i_lp_mmshare_version>
43012

> <i_f3d_flags>
0

> <s_epik_input>
W0NIM11PW0NIMl1bQ0gyXU4xW0NIMl1bQ0gyXU4oW0NIMl1bQ0gyXTEpW0NIMl1bQ0BIXShbT0hdKVtDSDJdbihbY0hdbjIpYyhjMjMpW2NIXWMoW0NIM10pYyhbY0hdMylbQ0gzXQ==

> <s_epik_cmdline>
J2VwaWtfcHl0aG9uJywgJy1waCcsICc3LjAnLCAnLXRuJywgJzgnLCAnLW1hJywgJzIwMCcsICctbWV0YWxfYmluZGluZycsICctaW1hZScsICc8aW5maWxlLm1hZT4nLCAnLW9tYWUnLCAnPG91dGZpbGUubWFlPic=

> <r_epik_Ionization_Penalty>
3.88944

> <r_epik_Ionization_Penalty_Charging>
3.80608

> <r_epik_Ionization_Penalty_Neutral>
0.0833653

> <r_epik_State_Penalty>
2.70739

> <r_epik_Charging_Adjusted_Penalty>
6.51347

> <i_epik_Tot_Q>
2

> <i_epik_Tot_abs_Q>
2

> <r_epik_Metal_State_Penalty>
2.62239

> <b_epik_Metal_Only>
0

> <s_lp_Force_Field>
OPLS_2005

> <r_lp_Energy>
26.7916

> <b_lp_Chiralities_Consistent>
1

> <s_lp_Variant>
AV-unprocessed.smi:1007-9

> <Gold.Version>
5.8.1

> <Gold.Id.Protein>
6NUR|6NUR_protein|mol2

> <Gold.PLP.Fitness>
59.1228

> <Gold.PLP.PLP>
-49.9137

> <Gold.PLP.part.hbond>
-3.5866

> <Gold.PLP.part.metal>
0.0000

> <Gold.PLP.part.buried>
-1.3753

> <Gold.PLP.part.nonpolar>
-44.7486

> <Gold.PLP.part.repulsive>
0.1947

> <Gold.PLP.ligand.clash>
0.0000

> <Gold.PLP.ligand.torsion>
1.4201

> <Gold.PLP.Chemscore.Hbond>
3.9750

> <Gold.PLP.Chemscore.CHOScore>
0.0000

> <Gold.PLP.Chemscore.Metal>
0.0000

> <Gold.Chemscore.Hbonds>
donor molecule, donor type, donor heavy atom, donor atom, acceptor molecule, acceptor atom, score
      L1  H     5    57       P1 10175  2.00
      L1  H    11    40       P1  8028  0.99
      P1  H  7997  8010       L1    15  0.86

> <Gold.PLP.Chemscore.Internal.Correction>
0.1243

> <Gold.Rescore>
     Score         DG    S(hbond)    S(metal)    S(lipo)     H(rot)  DE(clash)    DE(int)     intcor
     17.95     -22.43       2.26        0.00     138.02       2.63       2.91       1.57       ----

> <Gold.Chemscore.Fitness>
17.9534

> <Gold.Chemscore.DG>
-22.4313

> <Gold.Chemscore.ZeroCoef>
-5.4800

> <Gold.Chemscore.Hbond>
2.2599

> <Gold.Chemscore.Metal>
0.0000

> <Gold.Chemscore.Lipo>
138.0180

> <Gold.Chemscore.Internal_Hbond>
0.0000

> <Gold.Chemscore.DEClash>
2.9112

> <Gold.Chemscore.DEInternal>
1.5667

> <Gold.Chemscore.Rot>
2.6347

> <Gold.Chemscore.Internal.Correction>
   9.000000E+99

> <Gold.Chemscore.Hbonds>
donor molecule, donor type, donor heavy atom, donor atom, acceptor molecule, acceptor atom, score
      L1  H     5    57       P1 10175  0.97
      L1  H    11    40       P1  8028  0.61
      P1  H  7997  8010       L1    15  0.20

> <Gold.Chemscore.Hbond.Weighted>
-7.5479

> <Gold.Chemscore.Metal.Weighted>
-0.0000

> <Gold.Chemscore.Lipo.Weighted>
-16.1481

> <Gold.Chemscore.Internal_Hbond.Weighted>
0.0000

> <Gold.Chemscore.DEClash.Weighted>
2.9112

> <Gold.Chemscore.DEInternal.Weighted>
1.5667

> <Gold.Chemscore.Rot.Weighted>
6.7448

> <Gold.Chemscore.Internal.Correction.Weighted>
   9.000000E+99

> <Gold.Protein.RotatedTorsions>
[ 6907 6896 6895 6894 ] final   65.96 input  -60.11 | X-H torsion
[ 7974 7965 7964 7962 ] final -162.36 input  175.53 | X-H torsion
[ 8008 7997 7996 7995 ] final   57.82 input   59.86 | X-H torsion
[ 10167 10162 10161 10158 ] final -172.40 input  -65.29 | X-H torsion
[ 10718 10713 10712 10709 ] final  159.62 input   66.30 | X-H torsion
[ 10763 10752 10751 10750 ] final  106.24 input  -60.55 | X-H torsion
[ 11005 11000 10999 10996 ] final  -59.90 input  -57.11 | X-H torsion

> <Gold.Protein.ActiveResidues>
 VAL166  LYS551  ARG553  GLY616  TRP617  ASP618  TYR619  PRO620  LYS621  CYS622 
 ASP623  PHE694  ASN695  SER759  ASP760  ASP761  ALA762  ILE779  LEU786  VAL792 
 PHE793  MET794  SER795  GLU796  ALA797  LYS798  CYS799  TRP800  GLU811  SER814 

> <Gold.Protein.RotatedAtoms>
  152.4446  134.5521  159.9869 H   0  0  0  0  0  0  0  0  0  0  0  0  # atno 6907 bound_to 6896
  151.5610  133.3397  159.2979 H   0  0  0  0  0  0  0  0  0  0  0  0  # atno 6908 bound_to 6896
  150.8359  134.7665  159.6956 H   0  0  0  0  0  0  0  0  0  0  0  0  # atno 6909 bound_to 6896
  144.7360  140.3264  143.6161 H   0  0  0  0  0  0  0  0  0  0  0  0  # atno 7974 bound_to 7965
  155.5399  140.3484  155.4444 H   0  0  0  0  0  0  0  0  0  0  0  0  # atno 8008 bound_to 7997
  156.0658  140.1351  156.9913 H   0  0  0  0  0  0  0  0  0  0  0  0  # atno 8009 bound_to 7997
  154.4503  140.0976  156.6570 H   0  0  0  0  0  0  0  0  0  0  0  0  # atno 8010 bound_to 7997
  139.5746  144.1561  152.1433 H   0  0  0  0  0  0  0  0  0  0  0  0  # atno 10167 bound_to 10162
  157.1617  131.0589  151.2228 H   0  0  0  0  0  0  0  0  0  0  0  0  # atno 10718 bound_to 10713
  153.3903  135.3883  155.1918 H   0  0  0  0  0  0  0  0  0  0  0  0  # atno 10763 bound_to 10752
  154.8718  135.3747  154.4746 H   0  0  0  0  0  0  0  0  0  0  0  0  # atno 10764 bound_to 10752
  153.5232  135.7086  153.5782 H   0  0  0  0  0  0  0  0  0  0  0  0  # atno 10765 bound_to 10752
  141.1266  133.6619  156.5142 H   0  0  0  0  0  0  0  0  0  0  0  0  # atno 11005 bound_to 11000
  145.7517  139.1796  143.2318 LP  0  0  0  0  0  0  0  0  0  0  0  0  # atno 17320 bound_to 7965
  146.1056  140.7491  142.9528 LP  0  0  0  0  0  0  0  0  0  0  0  0  # atno 17321 bound_to 7965
  140.1101  144.5464  150.6930 LP  0  0  0  0  0  0  0  0  0  0  0  0  # atno 17342 bound_to 10162
  140.7030  143.2448  151.4810 LP  0  0  0  0  0  0  0  0  0  0  0  0  # atno 17343 bound_to 10162
  157.4126  130.7393  149.6851 LP  0  0  0  0  0  0  0  0  0  0  0  0  # atno 17370 bound_to 10713
  155.9752  130.4091  150.3862 LP  0  0  0  0  0  0  0  0  0  0  0  0  # atno 17371 bound_to 10713
  140.4344  134.7072  157.4959 LP  0  0  0  0  0  0  0  0  0  0  0  0  # atno 17394 bound_to 11000
  140.0272  134.6460  155.9157 LP  0  0  0  0  0  0  0  0  0  0  0  0  # atno 17395 bound_to 11000

$$$$
