AV-unprocessed.smi:287|AV-procd|sdf|2200|dock10
  -GOLD-   2262022 13D 1   1.00000     0.00000
 Structure written by MMmdl.
 55 58  0  0  0  0  0  0  0  0  1 V2000
  151.7207  142.8903  158.6776 C   0  0  0  0  0  0  0  0  0  0  0  0
  150.7756  142.0939  157.8451 C   0  0  0  0  0  0  0  0  0  0  0  0
  150.9346  141.2276  156.8028 C   0  0  0  0  0  0  0  0  0  0  0  0
  149.6364  140.7657  156.4309 C   0  0  0  0  0  0  0  0  0  0  0  0
  149.3108  139.7843  155.3130 C   0  0  2  0  0  0  0  0  0  0  0  0
  148.7544  138.4830  155.9131 C   0  0  0  0  0  0  0  0  0  0  0  0
  150.4562  139.4015  154.5762 O   0  0  0  0  0  0  0  0  0  0  0  0
  148.3185  140.3594  154.2754 C   0  0  0  0  0  0  0  0  0  0  0  0
  147.9754  139.4044  153.2266 N   0  0  0  0  0  0  0  0  0  0  0  0
  146.8635  138.6480  153.3331 C   0  0  0  0  0  0  0  0  0  0  0  0
  146.1096  138.6650  154.4631 N   0  0  0  0  0  0  0  0  0  0  0  0
  145.0165  137.9008  154.5461 C   0  0  0  0  0  0  0  0  0  0  0  0
  144.5109  137.0668  153.6352 N   0  0  0  0  0  0  0  0  0  0  0  0
  145.2622  137.0501  152.4960 C   0  0  0  0  0  0  0  0  0  0  0  0
  146.4453  137.8072  152.2700 C   0  0  0  0  0  0  0  0  0  0  0  0
  146.9434  137.5373  151.0022 N   0  0  0  0  0  0  0  0  0  0  0  0
  146.1011  136.6682  150.5115 C   0  0  0  0  0  0  0  0  0  0  0  0
  145.0595  136.3197  151.3424 N   0  0  0  0  0  0  0  0  0  0  0  0
  143.9535  135.3571  151.0584 C   0  0  1  0  0  0  0  0  0  0  0  0
  144.2517  134.6891  149.8748 O   0  0  0  0  0  0  0  0  0  0  0  0
  143.7621  133.3592  149.9609 C   0  0  1  0  0  0  0  0  0  0  0  0
  144.4360  132.4549  148.9140 C   0  0  0  0  0  0  0  0  0  0  0  0
  144.3036  133.0214  147.6280 O   0  0  0  0  0  0  0  0  0  0  0  0
  144.0163  132.9850  151.4299 C   0  0  1  0  0  0  0  0  0  0  0  0
  145.3272  132.4883  151.6250 O   0  0  0  0  0  0  0  0  0  0  0  0
  143.8273  134.3054  152.1751 C   0  0  2  0  0  0  0  0  0  0  0  0
  142.5382  134.3362  152.7553 O   0  0  0  0  0  0  0  0  0  0  0  0
  148.7760  141.4203  157.2789 C   0  0  0  0  0  0  0  0  0  0  0  0
  147.2912  141.4365  157.4365 C   0  0  0  0  0  0  0  0  0  0  0  0
  149.4586  142.2214  158.1438 O   0  0  0  0  0  0  0  0  0  0  0  0
  143.0637  135.9761  150.9339 H   0  0  0  0  0  0  0  0  0  0  0  0
  142.6823  133.3805  149.7993 H   0  0  0  0  0  0  0  0  0  0  0  0
  143.3240  132.2113  151.7652 H   0  0  0  0  0  0  0  0  0  0  0  0
  144.5766  134.4579  152.9541 H   0  0  0  0  0  0  0  0  0  0  0  0
  152.7514  142.7220  158.3653 H   0  0  0  0  0  0  0  0  0  0  0  0
  151.6368  142.6136  159.7287 H   0  0  0  0  0  0  0  0  0  0  0  0
  151.5102  143.9562  158.5895 H   0  0  0  0  0  0  0  0  0  0  0  0
  151.8793  140.9477  156.3606 H   0  0  0  0  0  0  0  0  0  0  0  0
  147.8421  138.6696  156.4808 H   0  0  0  0  0  0  0  0  0  0  0  0
  149.4732  138.0198  156.5908 H   0  0  0  0  0  0  0  0  0  0  0  0
  148.5142  137.7545  155.1377 H   0  0  0  0  0  0  0  0  0  0  0  0
  150.1858  139.1692  153.7012 H   0  0  0  0  0  0  0  0  0  0  0  0
  147.4173  140.7286  154.7674 H   0  0  0  0  0  0  0  0  0  0  0  0
  148.7792  141.2184  153.7848 H   0  0  0  0  0  0  0  0  0  0  0  0
  148.5850  139.3917  152.4210 H   0  0  0  0  0  0  0  0  0  0  0  0
  144.4691  137.9656  155.4745 H   0  0  0  0  0  0  0  0  0  0  0  0
  146.2175  136.2549  149.5202 H   0  0  0  0  0  0  0  0  0  0  0  0
  145.4884  132.2913  149.1489 H   0  0  0  0  0  0  0  0  0  0  0  0
  143.9501  131.4792  148.8898 H   0  0  0  0  0  0  0  0  0  0  0  0
  145.1075  133.4691  147.4124 H   0  0  0  0  0  0  0  0  0  0  0  0
  145.4345  132.2682  152.5375 H   0  0  0  0  0  0  0  0  0  0  0  0
  142.4821  133.6466  153.3990 H   0  0  0  0  0  0  0  0  0  0  0  0
  146.8038  141.6374  156.4824 H   0  0  0  0  0  0  0  0  0  0  0  0
  146.9767  142.2063  158.1415 H   0  0  0  0  0  0  0  0  0  0  0  0
  146.9317  140.4760  157.8051 H   0  0  0  0  0  0  0  0  0  0  0  0
  1  2  1  0  0  0  0
  1 35  1  0  0  0  0
  1 36  1  0  0  0  0
  1 37  1  0  0  0  0
  2 30  1  0  0  0  0
  2  3  2  0  0  0  0
  3  4  1  0  0  0  0
  3 38  1  0  0  0  0
  4  5  1  0  0  0  0
  4 28  2  0  0  0  0
  5  6  1  0  0  0  0
  5  7  1  0  0  0  0
  5  8  1  0  0  0  0
  6 39  1  0  0  0  0
  6 40  1  0  0  0  0
  6 41  1  0  0  0  0
  7 42  1  0  0  0  0
  8  9  1  0  0  0  0
  8 43  1  0  0  0  0
  8 44  1  0  0  0  0
  9 10  1  0  0  0  0
  9 45  1  0  0  0  0
 10 15  1  0  0  0  0
 10 11  2  0  0  0  0
 11 12  1  0  0  0  0
 12 13  2  0  0  0  0
 12 46  1  0  0  0  0
 13 14  1  0  0  0  0
 14 18  1  0  0  0  0
 14 15  2  0  0  0  0
 15 16  1  0  0  0  0
 16 17  2  0  0  0  0
 17 18  1  0  0  0  0
 17 47  1  0  0  0  0
 18 19  1  0  0  0  0
 19 31  1  0  0  0  0
 19 26  1  0  0  0  0
 19 20  1  0  0  0  0
 20 21  1  0  0  0  0
 21 32  1  0  0  0  0
 21 22  1  0  0  0  0
 21 24  1  0  0  0  0
 22 23  1  0  0  0  0
 22 48  1  0  0  0  0
 22 49  1  0  0  0  0
 23 50  1  0  0  0  0
 24 33  1  0  0  0  0
 24 25  1  0  0  0  0
 24 26  1  0  0  0  0
 25 51  1  0  0  0  0
 26 34  1  0  0  0  0
 26 27  1  0  0  0  0
 27 52  1  0  0  0  0
 28 29  1  0  0  0  0
 28 30  1  0  0  0  0
 29 53  1  0  0  0  0
 29 54  1  0  0  0  0
 29 55  1  0  0  0  0
M  END
> <s_m_source_file>
AV-unprocessed.smi

> <i_m_source_file_index>
287

> <i_lp_mmshare_version>
43012

> <i_f3d_flags>
0

> <s_epik_input>
W0NIM11jMVtjSF1jKGMobzEpW0NIM10pW0NAQF0oW0NIM10pKFtPSF0pW0NIMl1bTkhdYyhuW2NIXW4yKWMoYzIzKW5bY0hdbjNbQ0BASF00T1tDQEhdKFtDSDJdW09IXSlbQ0BASF0oW09IXSlbQ0BIXTRbT0hd

> <s_epik_cmdline>
J2VwaWtfcHl0aG9uJywgJy1waCcsICc3LjAnLCAnLXRuJywgJzgnLCAnLW1hJywgJzIwMCcsICctbWV0YWxfYmluZGluZycsICctaW1hZScsICc8aW5maWxlLm1hZT4nLCAnLW9tYWUnLCAnPG91dGZpbGUubWFlPic=

> <r_lp_tautomer_probability>
1

> <r_epik_Ionization_Penalty>
0.000992612

> <r_epik_Ionization_Penalty_Charging>
0

> <r_epik_Ionization_Penalty_Neutral>
0.000992612

> <r_epik_State_Penalty>
-0

> <r_epik_Charging_Adjusted_Penalty>
0

> <i_epik_Tot_Q>
0

> <i_epik_Tot_abs_Q>
0

> <r_epik_Metal_State_Penalty>
-0

> <b_epik_Metal_Only>
0

> <s_epik_Chemistry_Notes>
This compound contains an acetal/aminal-like group ( X-CH(R)-Y where X, Y are N, S, or O) that may be acid/base labile, releasing an aldehyde.

> <s_lp_Force_Field>
OPLS_2005

> <r_lp_Energy>
38.4634

> <b_lp_Chiralities_Consistent>
1

> <s_lp_Variant>
AV-unprocessed.smi:287-24

> <Gold.Version>
5.8.1

> <Gold.Id.Protein>
6NUR|6NUR_protein|mol2

> <Gold.PLP.Fitness>
64.8487

> <Gold.PLP.PLP>
-44.6219

> <Gold.PLP.part.hbond>
-7.2063

> <Gold.PLP.part.metal>
0.0000

> <Gold.PLP.part.buried>
-4.5606

> <Gold.PLP.part.nonpolar>
-36.8089

> <Gold.PLP.part.repulsive>
2.9631

> <Gold.PLP.ligand.clash>
0.0000

> <Gold.PLP.ligand.torsion>
0.4506

> <Gold.PLP.Chemscore.Hbond>
5.9913

> <Gold.PLP.Chemscore.CHOScore>
1.0000

> <Gold.PLP.Chemscore.Metal>
0.0000

> <Gold.Chemscore.Hbonds>
donor molecule, donor type, donor heavy atom, donor atom, acceptor molecule, acceptor atom, score
      L1  H     9    45       P1  7957  1.00
      L1  H    23    50       P1  7921  1.00
      L1  H    27    52       P1 10957  0.24
      P1  H  7954  7966       L1    16  1.00
      P1  H  7989  7998       L1     7  0.03
      L1  C    17    47       P1  7921  1.00

> <Gold.PLP.Chemscore.Internal.Correction>
0.1544

> <Gold.Rescore>
     Score         DG    S(hbond)    S(metal)    S(lipo)     H(rot)  DE(clash)    DE(int)     intcor
     14.25     -19.43       4.82        0.00      96.92       5.27       3.73       1.45       ----

> <Gold.Chemscore.Fitness>
14.2526

> <Gold.Chemscore.DG>
-19.4332

> <Gold.Chemscore.ZeroCoef>
-5.4800

> <Gold.Chemscore.Hbond>
4.8195

> <Gold.Chemscore.Metal>
0.0000

> <Gold.Chemscore.Lipo>
96.9224

> <Gold.Chemscore.Internal_Hbond>
0.0000

> <Gold.Chemscore.DEClash>
3.7350

> <Gold.Chemscore.DEInternal>
1.4456

> <Gold.Chemscore.Rot>
5.2672

> <Gold.Chemscore.Internal.Correction>
   9.000000E+99

> <Gold.Chemscore.Hbonds>
donor molecule, donor type, donor heavy atom, donor atom, acceptor molecule, acceptor atom, score
      L1  H     9    45       P1  7957  0.99
      L1  H    23    50       P1  7921  0.24
      L1  H    27    52       P1 10957  0.25
      P1  H  7954  7966       L1    16  0.74

> <Gold.Chemscore.Hbond.Weighted>
-16.0972

> <Gold.Chemscore.Metal.Weighted>
-0.0000

> <Gold.Chemscore.Lipo.Weighted>
-11.3399

> <Gold.Chemscore.Internal_Hbond.Weighted>
0.0000

> <Gold.Chemscore.DEClash.Weighted>
3.7350

> <Gold.Chemscore.DEInternal.Weighted>
1.4456

> <Gold.Chemscore.Rot.Weighted>
13.4839

> <Gold.Chemscore.Internal.Correction.Weighted>
   9.000000E+99

> <Gold.Protein.RotatedTorsions>
[ 6907 6896 6895 6894 ] final  -30.76 input  -60.11 | X-H torsion
[ 7974 7965 7964 7962 ] final   15.32 input  175.53 | X-H torsion
[ 8008 7997 7996 7995 ] final   28.10 input   59.86 | X-H torsion
[ 10167 10162 10161 10158 ] final   57.64 input  -65.29 | X-H torsion
[ 10718 10713 10712 10709 ] final   96.62 input   66.30 | X-H torsion
[ 10763 10752 10751 10750 ] final  -18.12 input  -60.55 | X-H torsion
[ 11005 11000 10999 10996 ] final  -42.06 input  -57.11 | X-H torsion

> <Gold.Protein.ActiveResidues>
 VAL166  LYS551  ARG553  GLY616  TRP617  ASP618  TYR619  PRO620  LYS621  CYS622 
 ASP623  PHE694  ASN695  SER759  ASP760  ASP761  ALA762  ILE779  LEU786  VAL792 
 PHE793  MET794  SER795  GLU796  ALA797  LYS798  CYS799  TRP800  GLU811  SER814 

> <Gold.Protein.RotatedAtoms>
  151.1011  134.9973  159.8449 H   0  0  0  0  0  0  0  0  0  0  0  0  # atno 6907 bound_to 6896
  152.5437  134.1948  159.8698 H   0  0  0  0  0  0  0  0  0  0  0  0  # atno 6908 bound_to 6896
  151.1991  133.4577  159.2629 H   0  0  0  0  0  0  0  0  0  0  0  0  # atno 6909 bound_to 6896
  146.2281  139.8911  142.8554 H   0  0  0  0  0  0  0  0  0  0  0  0  # atno 7974 bound_to 7965
  155.0533  140.3182  155.4685 H   0  0  0  0  0  0  0  0  0  0  0  0  # atno 8008 bound_to 7997
  156.2829  140.2142  156.5603 H   0  0  0  0  0  0  0  0  0  0  0  0  # atno 8009 bound_to 7997
  154.7192  140.0491  157.0611 H   0  0  0  0  0  0  0  0  0  0  0  0  # atno 8010 bound_to 7997
  140.1958  144.4038  150.6550 H   0  0  0  0  0  0  0  0  0  0  0  0  # atno 10167 bound_to 10162
  157.6924  131.0584  150.4519 H   0  0  0  0  0  0  0  0  0  0  0  0  # atno 10718 bound_to 10713
  153.5843  135.7004  153.5450 H   0  0  0  0  0  0  0  0  0  0  0  0  # atno 10763 bound_to 10752
  153.3233  135.4068  155.1435 H   0  0  0  0  0  0  0  0  0  0  0  0  # atno 10764 bound_to 10752
  154.8612  135.3701  154.5372 H   0  0  0  0  0  0  0  0  0  0  0  0  # atno 10765 bound_to 10752
  141.0289  133.6829  156.2542 H   0  0  0  0  0  0  0  0  0  0  0  0  # atno 11005 bound_to 11000
  145.2416  141.0011  143.3932 LP  0  0  0  0  0  0  0  0  0  0  0  0  # atno 17320 bound_to 7965
  144.9447  139.4149  143.6432 LP  0  0  0  0  0  0  0  0  0  0  0  0  # atno 17321 bound_to 7965
  140.6424  143.2206  151.6260 LP  0  0  0  0  0  0  0  0  0  0  0  0  # atno 17342 bound_to 10162
  139.5237  144.3125  152.0980 LP  0  0  0  0  0  0  0  0  0  0  0  0  # atno 17343 bound_to 10162
  156.4870  130.4086  149.6428 LP  0  0  0  0  0  0  0  0  0  0  0  0  # atno 17370 bound_to 10713
  156.3453  130.7403  151.2355 LP  0  0  0  0  0  0  0  0  0  0  0  0  # atno 17371 bound_to 10713
  140.6442  134.5134  157.5572 LP  0  0  0  0  0  0  0  0  0  0  0  0  # atno 17394 bound_to 11000
  139.9194  134.8179  156.1259 LP  0  0  0  0  0  0  0  0  0  0  0  0  # atno 17395 bound_to 11000

$$$$
