AV-unprocessed.smi:2664|AV-procd|sdf|10328|dock6
  -GOLD-   2272014343D 1   1.00000     0.00000
 Structure written by MMmdl.
 44 45  0  0  0  0  0  0  0  0  2 V2000
  149.4774  141.3825  157.8355 O   0  0  0  0  0  0  0  0  0  0  0  0
  150.2849  141.2703  156.9139 C   0  0  0  0  0  0  0  0  0  0  0  0
  149.9641  141.1138  155.6179 N   0  0  0  0  0  0  0  0  0  0  0  0
  148.6748  141.0948  155.0189 C   0  0  0  0  0  0  0  0  0  0  0  0
  148.4659  140.1973  153.9482 C   0  0  0  0  0  0  0  0  0  0  0  0
  147.2092  140.1549  153.3105 C   0  0  0  0  0  0  0  0  0  0  0  0
  146.2192  140.9763  153.7203 N   0  3  0  0  0  0  0  0  0  0  0  0
  146.3747  141.8599  154.7294 C   0  0  0  0  0  0  0  0  0  0  0  0
  147.6095  141.9485  155.4042 C   0  0  0  0  0  0  0  0  0  0  0  0
  151.6158  141.2697  157.0848 N   0  0  0  0  0  0  0  0  0  0  0  0
  152.3222  141.4256  158.3598 C   0  0  2  0  0  0  0  0  0  0  0  0
  152.2300  140.0957  159.1507 C   0  0  0  0  0  0  0  0  0  0  0  0
  152.7996  138.8612  158.4259 C   0  0  0  0  0  0  0  0  0  0  0  0
  154.1859  139.0111  158.2041 O   0  0  0  0  0  0  0  0  0  0  0  0
  151.7580  142.6509  159.1365 C   0  0  0  0  0  0  0  0  0  0  0  0
  151.7959  143.9513  158.2918 C   0  0  0  0  0  0  0  0  0  0  0  0
  151.2438  145.1646  159.0571 C   0  0  0  0  0  0  0  0  0  0  0  0
  151.9946  145.3797  160.3765 C   0  0  0  0  0  0  0  0  0  0  0  0
  151.9459  144.1116  161.2372 C   0  0  0  0  0  0  0  0  0  0  0  0
  152.4959  142.8941  160.4766 C   0  0  0  0  0  0  0  0  0  0  0  0
  150.7361  140.9449  154.9897 H   0  0  0  0  0  0  0  0  0  0  0  0
  149.2583  139.5407  153.6188 H   0  0  0  0  0  0  0  0  0  0  0  0
  146.9691  139.4946  152.4899 H   0  0  0  0  0  0  0  0  0  0  0  0
  145.5147  142.4710  154.9618 H   0  0  0  0  0  0  0  0  0  0  0  0
  147.7162  142.6767  156.1934 H   0  0  0  0  0  0  0  0  0  0  0  0
  152.1955  141.1620  156.2653 H   0  0  0  0  0  0  0  0  0  0  0  0
  153.3790  141.6223  158.1717 H   0  0  0  0  0  0  0  0  0  0  0  0
  152.7527  140.1836  160.1019 H   0  0  0  0  0  0  0  0  0  0  0  0
  151.1859  139.9022  159.3997 H   0  0  0  0  0  0  0  0  0  0  0  0
  152.6463  137.9713  159.0367 H   0  0  0  0  0  0  0  0  0  0  0  0
  152.2950  138.6803  157.4770 H   0  0  0  0  0  0  0  0  0  0  0  0
  154.5684  138.1541  158.0929 H   0  0  0  0  0  0  0  0  0  0  0  0
  150.7122  142.4427  159.3687 H   0  0  0  0  0  0  0  0  0  0  0  0
  152.8213  144.1550  157.9800 H   0  0  0  0  0  0  0  0  0  0  0  0
  151.2153  143.8376  157.3767 H   0  0  0  0  0  0  0  0  0  0  0  0
  151.3186  146.0593  158.4382 H   0  0  0  0  0  0  0  0  0  0  0  0
  150.1823  145.0167  159.2597 H   0  0  0  0  0  0  0  0  0  0  0  0
  153.0321  145.6470  160.1716 H   0  0  0  0  0  0  0  0  0  0  0  0
  151.5589  146.2174  160.9217 H   0  0  0  0  0  0  0  0  0  0  0  0
  152.5159  144.2642  162.1542 H   0  0  0  0  0  0  0  0  0  0  0  0
  150.9172  143.9165  161.5423 H   0  0  0  0  0  0  0  0  0  0  0  0
  152.4072  142.0293  161.1319 H   0  0  0  0  0  0  0  0  0  0  0  0
  153.5616  143.0332  160.2896 H   0  0  0  0  0  0  0  0  0  0  0  0
  145.3175  140.9311  153.2448 H   0  0  0  0  0  0  0  0  0  0  0  0
  1  2  2  0  0  0  0
  2  3  1  0  0  0  0
  2 10  1  0  0  0  0
  3  4  1  0  0  0  0
  3 21  1  0  0  0  0
  4  9  1  0  0  0  0
  4  5  2  0  0  0  0
  5  6  1  0  0  0  0
  5 22  1  0  0  0  0
  6  7  2  0  0  0  0
  6 23  1  0  0  0  0
  7  8  1  0  0  0  0
  7 44  1  0  0  0  0
  8  9  2  0  0  0  0
  8 24  1  0  0  0  0
  9 25  1  0  0  0  0
 10 11  1  0  0  0  0
 10 26  1  0  0  0  0
 11 12  1  0  0  0  0
 11 15  1  0  0  0  0
 11 27  1  0  0  0  0
 12 13  1  0  0  0  0
 12 28  1  0  0  0  0
 12 29  1  0  0  0  0
 13 14  1  0  0  0  0
 13 30  1  0  0  0  0
 13 31  1  0  0  0  0
 14 32  1  0  0  0  0
 15 20  1  0  0  0  0
 15 16  1  0  0  0  0
 15 33  1  0  0  0  0
 16 17  1  0  0  0  0
 16 34  1  0  0  0  0
 16 35  1  0  0  0  0
 17 18  1  0  0  0  0
 17 36  1  0  0  0  0
 17 37  1  0  0  0  0
 18 19  1  0  0  0  0
 18 38  1  0  0  0  0
 18 39  1  0  0  0  0
 19 20  1  0  0  0  0
 19 40  1  0  0  0  0
 19 41  1  0  0  0  0
 20 42  1  0  0  0  0
 20 43  1  0  0  0  0
M  CHG  1   7   1
M  END
> <s_m_source_file>
AV-unprocessed.smi

> <i_m_source_file_index>
2664

> <i_lp_mmshare_version>
43012

> <i_f3d_flags>
0

> <s_epik_input>
W2NIXTFbY0hdbltjSF1bY0hdYzFbTkhdQyg9TylbTkhdW0NASF0oW0NIMl1bQ0gyXVtPSF0pW0NIXTJbQ0gyXVtDSDJdW0NIMl1bQ0gyXVtDSDJdMg==

> <s_epik_cmdline>
J2VwaWtfcHl0aG9uJywgJy1waCcsICc3LjAnLCAnLXRuJywgJzgnLCAnLW1hJywgJzIwMCcsICctbWV0YWxfYmluZGluZycsICctaW1hZScsICc8aW5maWxlLm1hZT4nLCAnLW9tYWUnLCAnPG91dGZpbGUubWFlPic=

> <r_epik_Ionization_Penalty>
1.0085

> <r_epik_Ionization_Penalty_Charging>
1.00848

> <r_epik_Ionization_Penalty_Neutral>
2.14516e-05

> <r_epik_State_Penalty>
1.05769

> <r_epik_Charging_Adjusted_Penalty>
2.06617

> <i_epik_Tot_Q>
1

> <i_epik_Tot_abs_Q>
1

> <r_epik_Metal_State_Penalty>
1.15842

> <b_epik_Metal_Only>
0

> <s_lp_Force_Field>
OPLS_2005

> <r_lp_Energy>
27.8621

> <b_lp_Chiralities_Consistent>
1

> <s_lp_Variant>
AV-unprocessed.smi:2664-3

> <Gold.Version>
5.8.1

> <Gold.Id.Protein>
6NUR|6NUR_protein|mol2

> <Gold.PLP.Fitness>
49.0691

> <Gold.PLP.PLP>
-40.9130

> <Gold.PLP.part.hbond>
-2.0000

> <Gold.PLP.part.metal>
0.0000

> <Gold.PLP.part.buried>
-2.1425

> <Gold.PLP.part.nonpolar>
-36.8974

> <Gold.PLP.part.repulsive>
0.2984

> <Gold.PLP.ligand.clash>
0.0000

> <Gold.PLP.ligand.torsion>
0.4617

> <Gold.PLP.Chemscore.Hbond>
3.0000

> <Gold.PLP.Chemscore.CHOScore>
0.0000

> <Gold.PLP.Chemscore.Metal>
0.0000

> <Gold.Chemscore.Hbonds>
donor molecule, donor type, donor heavy atom, donor atom, acceptor molecule, acceptor atom, score
      L1  H     7    44       P1 10175  2.00
      P1  H  7997  8009       L1    14  1.00

> <Gold.PLP.Chemscore.Internal.Correction>
0.0795

> <Gold.Rescore>
     Score         DG    S(hbond)    S(metal)    S(lipo)     H(rot)  DE(clash)    DE(int)     intcor
     18.61     -20.02       1.97        0.00     117.65       2.27       0.27       1.14       ----

> <Gold.Chemscore.Fitness>
18.6144

> <Gold.Chemscore.DG>
-20.0176

> <Gold.Chemscore.ZeroCoef>
-5.4800

> <Gold.Chemscore.Hbond>
1.9736

> <Gold.Chemscore.Metal>
0.0000

> <Gold.Chemscore.Lipo>
117.6492

> <Gold.Chemscore.Internal_Hbond>
0.0000

> <Gold.Chemscore.DEClash>
0.2681

> <Gold.Chemscore.DEInternal>
1.1350

> <Gold.Chemscore.Rot>
2.2731

> <Gold.Chemscore.Internal.Correction>
   9.000000E+99

> <Gold.Chemscore.Hbonds>
donor molecule, donor type, donor heavy atom, donor atom, acceptor molecule, acceptor atom, score
      L1  H     7    44       P1 10175  0.55
      P1  H  7997  8009       L1    14  0.70

> <Gold.Chemscore.Hbond.Weighted>
-6.5919

> <Gold.Chemscore.Metal.Weighted>
-0.0000

> <Gold.Chemscore.Lipo.Weighted>
-13.7650

> <Gold.Chemscore.Internal_Hbond.Weighted>
0.0000

> <Gold.Chemscore.DEClash.Weighted>
0.2681

> <Gold.Chemscore.DEInternal.Weighted>
1.1350

> <Gold.Chemscore.Rot.Weighted>
5.8192

> <Gold.Chemscore.Internal.Correction.Weighted>
   9.000000E+99

> <Gold.Protein.RotatedTorsions>
[ 6907 6896 6895 6894 ] final   38.48 input  -60.11 | X-H torsion
[ 7974 7965 7964 7962 ] final  -15.55 input  175.53 | X-H torsion
[ 8008 7997 7996 7995 ] final  139.77 input   59.86 | X-H torsion
[ 10167 10162 10161 10158 ] final  -60.62 input  -65.29 | X-H torsion
[ 10718 10713 10712 10709 ] final  -85.52 input   66.30 | X-H torsion
[ 10763 10752 10751 10750 ] final   49.87 input  -60.55 | X-H torsion
[ 11005 11000 10999 10996 ] final  -42.28 input  -57.11 | X-H torsion

> <Gold.Protein.ActiveResidues>
 VAL166  LYS551  ARG553  GLY616  TRP617  ASP618  TYR619  PRO620  LYS621  CYS622 
 ASP623  PHE694  ASN695  SER759  ASP760  ASP761  ALA762  ILE779  LEU786  VAL792 
 PHE793  MET794  SER795  GLU796  ALA797  LYS798  CYS799  TRP800  GLU811  SER814 

> <Gold.Protein.RotatedAtoms>
  152.1570  134.8943  160.0544 H   0  0  0  0  0  0  0  0  0  0  0  0  # atno 6907 bound_to 6896
  151.9953  133.3801  159.4169 H   0  0  0  0  0  0  0  0  0  0  0  0  # atno 6908 bound_to 6896
  150.6882  134.3814  159.5080 H   0  0  0  0  0  0  0  0  0  0  0  0  # atno 6909 bound_to 6896
  146.2027  140.3509  142.8418 H   0  0  0  0  0  0  0  0  0  0  0  0  # atno 7974 bound_to 7965
  156.2986  140.2359  156.4291 H   0  0  0  0  0  0  0  0  0  0  0  0  # atno 8008 bound_to 7997
  154.8286  140.0434  157.1481 H   0  0  0  0  0  0  0  0  0  0  0  0  # atno 8009 bound_to 7997
  154.9233  140.3006  155.5208 H   0  0  0  0  0  0  0  0  0  0  0  0  # atno 8010 bound_to 7997
  140.6060  143.2373  151.5821 H   0  0  0  0  0  0  0  0  0  0  0  0  # atno 10167 bound_to 10162
  155.9996  130.4734  150.4575 H   0  0  0  0  0  0  0  0  0  0  0  0  # atno 10718 bound_to 10713
  152.9785  135.5897  154.4160 H   0  0  0  0  0  0  0  0  0  0  0  0  # atno 10763 bound_to 10752
  154.3790  135.2767  155.2224 H   0  0  0  0  0  0  0  0  0  0  0  0  # atno 10764 bound_to 10752
  154.4146  135.6073  153.6028 H   0  0  0  0  0  0  0  0  0  0  0  0  # atno 10765 bound_to 10752
  141.0305  133.6822  156.2573 H   0  0  0  0  0  0  0  0  0  0  0  0  # atno 11005 bound_to 11000
  144.8720  140.7285  143.6041 LP  0  0  0  0  0  0  0  0  0  0  0  0  # atno 17320 bound_to 7965
  145.3428  139.1727  143.4476 LP  0  0  0  0  0  0  0  0  0  0  0  0  # atno 17321 bound_to 7965
  139.5325  144.2875  152.1179 LP  0  0  0  0  0  0  0  0  0  0  0  0  # atno 17342 bound_to 10162
  140.2065  144.4606  150.6406 LP  0  0  0  0  0  0  0  0  0  0  0  0  # atno 17343 bound_to 10162
  157.2603  131.0565  151.2324 LP  0  0  0  0  0  0  0  0  0  0  0  0  # atno 17370 bound_to 10713
  157.3442  130.7048  149.6400 LP  0  0  0  0  0  0  0  0  0  0  0  0  # atno 17371 bound_to 10713
  140.6415  134.5160  157.5570 LP  0  0  0  0  0  0  0  0  0  0  0  0  # atno 17394 bound_to 11000
  139.9204  134.8159  156.1228 LP  0  0  0  0  0  0  0  0  0  0  0  0  # atno 17395 bound_to 11000

$$$$
