AV-unprocessed.smi:99|AV-procd|sdf|868|dock8
  -GOLD-   2262017323D 1   1.00000     0.00000
 Structure written by MMmdl.
 53 56  0  0  0  0  0  0  0  0  1 V2000
  144.5489  137.2625  153.4346 O   0  0  0  0  0  0  0  0  0  0  0  0
  145.4376  136.7816  152.7283 C   0  0  0  0  0  0  0  0  0  0  0  0
  146.5435  137.4567  152.3593 O   0  0  0  0  0  0  0  0  0  0  0  0
  146.7584  138.7751  152.8343 C   0  0  0  0  0  0  0  0  0  0  0  0
  147.1917  138.7156  154.3097 C   0  0  1  0  0  0  0  0  0  0  0  0
  148.4342  138.0212  154.3973 O   0  0  0  0  0  0  0  0  0  0  0  0
  149.5099  138.9188  154.3864 C   0  0  2  0  0  0  0  0  0  0  0  0
  150.4024  138.6203  155.5691 N   0  0  0  0  0  0  0  0  0  0  0  0
  150.0361  137.6864  156.5294 C   0  0  0  0  0  0  0  0  0  0  0  0
  150.7991  137.4005  157.6106 C   0  0  0  0  0  0  0  0  0  0  0  0
  152.0709  138.0842  157.8204 C   0  0  0  0  0  0  0  0  0  0  0  0
  152.8326  137.8897  158.7651 O   0  0  0  0  0  0  0  0  0  0  0  0
  152.3926  139.0255  156.8383 N   0  0  0  0  0  0  0  0  0  0  0  0
  151.6119  139.3333  155.7231 C   0  0  0  0  0  0  0  0  0  0  0  0
  151.9848  140.1989  154.9323 O   0  0  0  0  0  0  0  0  0  0  0  0
  148.9526  140.3481  154.4891 C   0  0  1  0  0  0  0  0  0  0  0  0
  149.0172  141.0024  153.2354 O   0  0  0  0  0  0  0  0  0  0  0  0
  147.5213  140.0725  154.9326 C   0  0  1  0  0  0  0  0  0  0  0  0
  146.5961  141.1098  154.6238 O   0  0  0  0  0  0  0  0  0  0  0  0
  146.2325  142.0148  155.5572 C   0  0  0  0  0  0  0  0  0  0  0  0
  146.4839  141.8961  156.7580 O   0  0  0  0  0  0  0  0  0  0  0  0
  145.5009  143.1790  154.9801 C   0  0  0  0  0  0  0  0  0  0  0  0
  145.6352  143.4672  153.6019 C   0  0  0  0  0  0  0  0  0  0  0  0
  144.9560  144.5595  153.0278 C   0  0  0  0  0  0  0  0  0  0  0  0
  144.1347  145.3774  153.8254 C   0  0  0  0  0  0  0  0  0  0  0  0
  143.9930  145.1015  155.1978 C   0  0  0  0  0  0  0  0  0  0  0  0
  144.6706  144.0092  155.7736 C   0  0  0  0  0  0  0  0  0  0  0  0
  145.3986  135.3910  152.1898 C   0  0  0  0  0  0  0  0  0  0  0  0
  144.3906  135.0353  151.2633 C   0  0  0  0  0  0  0  0  0  0  0  0
  144.3302  133.7314  150.7342 C   0  0  0  0  0  0  0  0  0  0  0  0
  145.2762  132.7667  151.1263 C   0  0  0  0  0  0  0  0  0  0  0  0
  146.2827  133.1073  152.0486 C   0  0  0  0  0  0  0  0  0  0  0  0
  146.3455  134.4113  152.5782 C   0  0  0  0  0  0  0  0  0  0  0  0
  153.2609  139.5292  156.9478 H   0  0  0  0  0  0  0  0  0  0  0  0
  147.5085  139.2785  152.2235 H   0  0  0  0  0  0  0  0  0  0  0  0
  145.8266  139.3339  152.7391 H   0  0  0  0  0  0  0  0  0  0  0  0
  146.4274  138.2065  154.8977 H   0  0  0  0  0  0  0  0  0  0  0  0
  150.1009  138.7345  153.4870 H   0  0  0  0  0  0  0  0  0  0  0  0
  149.1005  137.1568  156.4260 H   0  0  0  0  0  0  0  0  0  0  0  0
  150.4662  136.6620  158.3258 H   0  0  0  0  0  0  0  0  0  0  0  0
  149.5037  140.9387  155.2227 H   0  0  0  0  0  0  0  0  0  0  0  0
  148.9191  140.3548  152.5541 H   0  0  0  0  0  0  0  0  0  0  0  0
  147.5288  139.9204  156.0133 H   0  0  0  0  0  0  0  0  0  0  0  0
  146.2604  142.8536  152.9694 H   0  0  0  0  0  0  0  0  0  0  0  0
  145.0655  144.7693  151.9740 H   0  0  0  0  0  0  0  0  0  0  0  0
  143.6140  146.2149  153.3848 H   0  0  0  0  0  0  0  0  0  0  0  0
  143.3629  145.7287  155.8111 H   0  0  0  0  0  0  0  0  0  0  0  0
  144.5390  143.8260  156.8302 H   0  0  0  0  0  0  0  0  0  0  0  0
  143.6539  135.7594  150.9465 H   0  0  0  0  0  0  0  0  0  0  0  0
  143.5568  133.4722  150.0262 H   0  0  0  0  0  0  0  0  0  0  0  0
  145.2299  131.7669  150.7202 H   0  0  0  0  0  0  0  0  0  0  0  0
  147.0088  132.3672  152.3511 H   0  0  0  0  0  0  0  0  0  0  0  0
  147.1308  134.6395  153.2839 H   0  0  0  0  0  0  0  0  0  0  0  0
  1  2  2  0  0  0  0
  2  3  1  0  0  0  0
  2 28  1  0  0  0  0
  3  4  1  0  0  0  0
  4  5  1  0  0  0  0
  4 35  1  0  0  0  0
  4 36  1  0  0  0  0
  5 18  1  0  0  0  0
  5  6  1  0  0  0  0
  5 37  1  0  0  0  0
  6  7  1  0  0  0  0
  7  8  1  0  0  0  0
  7 16  1  0  0  0  0
  7 38  1  0  0  0  0
  8 14  1  0  0  0  0
  8  9  1  0  0  0  0
  9 10  2  0  0  0  0
  9 39  1  0  0  0  0
 10 11  1  0  0  0  0
 10 40  1  0  0  0  0
 11 12  2  0  0  0  0
 11 13  1  0  0  0  0
 13 34  1  0  0  0  0
 13 14  1  0  0  0  0
 14 15  2  0  0  0  0
 16 17  1  0  0  0  0
 16 18  1  0  0  0  0
 16 41  1  0  0  0  0
 17 42  1  0  0  0  0
 18 19  1  0  0  0  0
 18 43  1  0  0  0  0
 19 20  1  0  0  0  0
 20 21  2  0  0  0  0
 20 22  1  0  0  0  0
 22 27  1  0  0  0  0
 22 23  2  0  0  0  0
 23 24  1  0  0  0  0
 23 44  1  0  0  0  0
 24 25  2  0  0  0  0
 24 45  1  0  0  0  0
 25 26  1  0  0  0  0
 25 46  1  0  0  0  0
 26 27  2  0  0  0  0
 26 47  1  0  0  0  0
 27 48  1  0  0  0  0
 28 33  1  0  0  0  0
 28 29  2  0  0  0  0
 29 30  1  0  0  0  0
 29 49  1  0  0  0  0
 30 31  2  0  0  0  0
 30 50  1  0  0  0  0
 31 32  1  0  0  0  0
 31 51  1  0  0  0  0
 32 33  2  0  0  0  0
 32 52  1  0  0  0  0
 33 53  1  0  0  0  0
M  END
> <s_m_source_file>
AV-unprocessed.smi

> <i_m_source_file_index>
99

> <i_lp_mmshare_version>
43012

> <i_f3d_flags>
0

> <s_epik_input>
W2NIXTFbY0hdW2NIXVtjSF1bY0hdYzFDKD1PKU9bQ0gyXVtDQEBIXTJPW0NAQEhdKG4zW2NIXVtjSF1jKD1PKVtuSF1jMz1PKVtDQEBIXShbT0hdKVtDQEhdMk9DKD1PKWM0W2NIXVtjSF1bY0hdW2NIXVtjSF00

> <s_epik_cmdline>
J2VwaWtfcHl0aG9uJywgJy1waCcsICc3LjAnLCAnLXRuJywgJzgnLCAnLW1hJywgJzIwMCcsICctbWV0YWxfYmluZGluZycsICctaW1hZScsICc8aW5maWxlLm1hZT4nLCAnLW9tYWUnLCAnPG91dGZpbGUubWFlPic=

> <r_lp_tautomer_probability>
1

> <r_epik_Ionization_Penalty>
0.00454555

> <r_epik_Ionization_Penalty_Charging>
0.0045191

> <r_epik_Ionization_Penalty_Neutral>
2.64449e-05

> <r_epik_State_Penalty>
-0

> <r_epik_Charging_Adjusted_Penalty>
0.0045191

> <i_epik_Tot_Q>
0

> <i_epik_Tot_abs_Q>
0

> <r_epik_Metal_State_Penalty>
1.27877

> <b_epik_Metal_Only>
0

> <s_epik_Chemistry_Notes>
This compound has an ester and may undergo hydrolysis at high or low pH. This compound contains an acetal/aminal-like group ( X-CH(R)-Y where X, Y are N, S, or O) that may be acid/base labile, releasing an aldehyde.

> <s_lp_Force_Field>
OPLS_2005

> <r_lp_Energy>
39.5306

> <b_lp_Chiralities_Consistent>
1

> <s_lp_Variant>
AV-unprocessed.smi:99-4

> <Gold.Version>
5.8.1

> <Gold.Id.Protein>
6NUR|6NUR_protein|mol2

> <Gold.PLP.Fitness>
53.9057

> <Gold.PLP.PLP>
-50.1374

> <Gold.PLP.part.hbond>
-3.4278

> <Gold.PLP.part.metal>
0.0000

> <Gold.PLP.part.buried>
-9.4024

> <Gold.PLP.part.nonpolar>
-42.2089

> <Gold.PLP.part.repulsive>
3.6643

> <Gold.PLP.ligand.clash>
0.0000

> <Gold.PLP.ligand.torsion>
2.2416

> <Gold.PLP.Chemscore.Hbond>
2.6940

> <Gold.PLP.Chemscore.CHOScore>
0.0000

> <Gold.PLP.Chemscore.Metal>
0.0000

> <Gold.Chemscore.Hbonds>
donor molecule, donor type, donor heavy atom, donor atom, acceptor molecule, acceptor atom, score
      L1  H    17    42       P1  7957  0.72
      P1  H  7989  7998       L1    15  0.78
      P1  H  8011  8017       L1    17  1.00

> <Gold.PLP.Chemscore.Internal.Correction>
0.1695

> <Gold.Rescore>
     Score         DG    S(hbond)    S(metal)    S(lipo)     H(rot)  DE(clash)    DE(int)     intcor
     12.22     -15.79       2.00        0.00     100.83       3.19       0.49       3.08       ----

> <Gold.Chemscore.Fitness>
12.2170

> <Gold.Chemscore.DG>
-15.7888

> <Gold.Chemscore.ZeroCoef>
-5.4800

> <Gold.Chemscore.Hbond>
1.9995

> <Gold.Chemscore.Metal>
0.0000

> <Gold.Chemscore.Lipo>
100.8349

> <Gold.Chemscore.Internal_Hbond>
0.0000

> <Gold.Chemscore.DEClash>
0.4933

> <Gold.Chemscore.DEInternal>
3.0785

> <Gold.Chemscore.Rot>
3.1903

> <Gold.Chemscore.Internal.Correction>
   9.000000E+99

> <Gold.Chemscore.Hbonds>
donor molecule, donor type, donor heavy atom, donor atom, acceptor molecule, acceptor atom, score
      L1  H    17    42       P1  7957  0.70
      P1  H  7989  7998       L1    15  0.77
      P1  H  8011  8017       L1    17  0.34

> <Gold.Chemscore.Hbond.Weighted>
-6.6782

> <Gold.Chemscore.Metal.Weighted>
-0.0000

> <Gold.Chemscore.Lipo.Weighted>
-11.7977

> <Gold.Chemscore.Internal_Hbond.Weighted>
0.0000

> <Gold.Chemscore.DEClash.Weighted>
0.4933

> <Gold.Chemscore.DEInternal.Weighted>
3.0785

> <Gold.Chemscore.Rot.Weighted>
8.1671

> <Gold.Chemscore.Internal.Correction.Weighted>
   9.000000E+99

> <Gold.Protein.RotatedTorsions>
[ 6907 6896 6895 6894 ] final -167.07 input  -60.11 | X-H torsion
[ 7974 7965 7964 7962 ] final  108.19 input  175.53 | X-H torsion
[ 8008 7997 7996 7995 ] final  138.95 input   59.86 | X-H torsion
[ 10167 10162 10161 10158 ] final    9.94 input  -65.29 | X-H torsion
[ 10718 10713 10712 10709 ] final   22.80 input   66.30 | X-H torsion
[ 10763 10752 10751 10750 ] final  -84.75 input  -60.55 | X-H torsion
[ 11005 11000 10999 10996 ] final   32.75 input  -57.11 | X-H torsion

> <Gold.Protein.ActiveResidues>
 VAL166  LYS551  ARG553  GLY616  TRP617  ASP618  TYR619  PRO620  LYS621  CYS622 
 ASP623  PHE694  ASN695  SER759  ASP760  ASP761  ALA762  ILE779  LEU786  VAL792 
 PHE793  MET794  SER795  GLU796  ALA797  LYS798  CYS799  TRP800  GLU811  SER814 

> <Gold.Protein.RotatedAtoms>
  151.4537  133.3610  159.2798 H   0  0  0  0  0  0  0  0  0  0  0  0  # atno 6907 bound_to 6896
  150.9073  134.8490  159.7412 H   0  0  0  0  0  0  0  0  0  0  0  0  # atno 6908 bound_to 6896
  152.4913  134.4464  159.9612 H   0  0  0  0  0  0  0  0  0  0  0  0  # atno 6909 bound_to 6896
  145.2838  139.2623  143.3901 H   0  0  0  0  0  0  0  0  0  0  0  0  # atno 7974 bound_to 7965
  156.2994  140.2380  156.4157 H   0  0  0  0  0  0  0  0  0  0  0  0  # atno 8008 bound_to 7997
  154.8401  140.0429  157.1555 H   0  0  0  0  0  0  0  0  0  0  0  0  # atno 8009 bound_to 7997
  154.9112  140.2990  155.5269 H   0  0  0  0  0  0  0  0  0  0  0  0  # atno 8010 bound_to 7997
  140.6225  143.8174  150.7192 H   0  0  0  0  0  0  0  0  0  0  0  0  # atno 10167 bound_to 10162
  157.1573  130.6701  149.6032 H   0  0  0  0  0  0  0  0  0  0  0  0  # atno 10718 bound_to 10713
  154.6031  135.5509  153.7395 H   0  0  0  0  0  0  0  0  0  0  0  0  # atno 10763 bound_to 10752
  153.0163  135.6371  154.1686 H   0  0  0  0  0  0  0  0  0  0  0  0  # atno 10764 bound_to 10752
  154.1625  135.2896  155.3084 H   0  0  0  0  0  0  0  0  0  0  0  0  # atno 10765 bound_to 10752
  140.2702  134.3090  155.7830 H   0  0  0  0  0  0  0  0  0  0  0  0  # atno 11005 bound_to 11000
  146.3207  140.3313  142.8640 LP  0  0  0  0  0  0  0  0  0  0  0  0  # atno 17320 bound_to 7965
  144.9230  140.7889  143.5736 LP  0  0  0  0  0  0  0  0  0  0  0  0  # atno 17321 bound_to 7965
  140.1767  143.4149  152.1962 LP  0  0  0  0  0  0  0  0  0  0  0  0  # atno 17342 bound_to 10162
  139.5451  144.7291  151.4610 LP  0  0  0  0  0  0  0  0  0  0  0  0  # atno 17343 bound_to 10162
  155.9760  130.4723  150.6496 LP  0  0  0  0  0  0  0  0  0  0  0  0  # atno 17370 bound_to 10713
  157.4165  131.0831  151.1172 LP  0  0  0  0  0  0  0  0  0  0  0  0  # atno 17371 bound_to 10713
  141.2178  133.7462  156.9323 LP  0  0  0  0  0  0  0  0  0  0  0  0  # atno 17394 bound_to 11000
  140.1380  134.9312  157.2428 LP  0  0  0  0  0  0  0  0  0  0  0  0  # atno 17395 bound_to 11000

$$$$
