AV-unprocessed.smi:2532|AV-procd|sdf|9968|dock2
  -GOLD-   2272014 13D 1   1.00000     0.00000
 Structure written by MMmdl.
 36 38  0  0  0  0  0  0  0  0  1 V2000
  153.2649  139.2325  156.9722 O   0  0  0  0  0  0  0  0  0  0  0  0
  151.9237  139.5255  156.6307 C   0  0  2  0  0  0  0  0  0  0  0  0
  151.6541  138.9959  155.2132 C   0  0  0  0  0  0  0  0  0  0  0  0
  150.5643  139.7062  154.6492 O   0  0  0  0  0  0  0  0  0  0  0  0
  149.4046  138.9026  154.5018 C   0  0  0  0  0  0  0  0  0  0  0  0
  148.2252  139.8164  154.4019 C   0  0  0  0  0  0  0  0  0  0  0  0
  148.2090  141.1698  154.6260 C   0  0  0  0  0  0  0  0  0  0  0  0
  146.9257  141.7590  154.4278 C   0  0  0  0  0  0  0  0  0  0  0  0
  145.9769  140.8487  154.0459 C   0  0  0  0  0  0  0  0  0  0  0  0
  146.6443  139.2443  153.9197 S   0  0  0  0  0  0  0  0  0  0  0  0
  151.7039  141.0480  156.7234 C   0  0  0  0  0  0  0  0  0  0  0  0
  151.8492  141.5534  158.0774 N   0  0  0  0  0  0  0  0  0  0  0  0
  152.0354  140.8270  159.1962 C   0  0  0  0  0  0  0  0  0  0  0  0
  152.1405  141.4909  160.3438 N   0  0  0  0  0  0  0  0  0  0  0  0
  152.0060  142.8024  159.9212 C   0  0  0  0  0  0  0  0  0  0  0  0
  152.0249  144.0095  160.6564 C   0  0  0  0  0  0  0  0  0  0  0  0
  151.8670  145.2482  160.0002 C   0  0  0  0  0  0  0  0  0  0  0  0
  151.6896  145.2994  158.6022 C   0  0  0  0  0  0  0  0  0  0  0  0
  151.6671  144.1102  157.8486 C   0  0  0  0  0  0  0  0  0  0  0  0
  151.8231  142.8762  158.5071 C   0  0  0  0  0  0  0  0  0  0  0  0
  153.2749  138.4489  157.5006 H   0  0  0  0  0  0  0  0  0  0  0  0
  151.2607  139.0277  157.3398 H   0  0  0  0  0  0  0  0  0  0  0  0
  152.5305  139.1660  154.5855 H   0  0  0  0  0  0  0  0  0  0  0  0
  151.4686  137.9202  155.2223 H   0  0  0  0  0  0  0  0  0  0  0  0
  149.4813  138.2844  153.6060 H   0  0  0  0  0  0  0  0  0  0  0  0
  149.2892  138.2384  155.3594 H   0  0  0  0  0  0  0  0  0  0  0  0
  149.0677  141.7528  154.9248 H   0  0  0  0  0  0  0  0  0  0  0  0
  146.7472  142.8150  154.5683 H   0  0  0  0  0  0  0  0  0  0  0  0
  144.9330  141.0214  153.8288 H   0  0  0  0  0  0  0  0  0  0  0  0
  152.4043  141.5759  156.0747 H   0  0  0  0  0  0  0  0  0  0  0  0
  150.7035  141.3050  156.3728 H   0  0  0  0  0  0  0  0  0  0  0  0
  152.0977  139.7489  159.1660 H   0  0  0  0  0  0  0  0  0  0  0  0
  152.1608  143.9822  161.7274 H   0  0  0  0  0  0  0  0  0  0  0  0
  151.8831  146.1641  160.5727 H   0  0  0  0  0  0  0  0  0  0  0  0
  151.5712  146.2528  158.1082 H   0  0  0  0  0  0  0  0  0  0  0  0
  151.5337  144.1464  156.7775 H   0  0  0  0  0  0  0  0  0  0  0  0
  1  2  1  0  0  0  0
  1 21  1  0  0  0  0
  2  3  1  0  0  0  0
  2 11  1  0  0  0  0
  2 22  1  0  0  0  0
  3  4  1  0  0  0  0
  3 23  1  0  0  0  0
  3 24  1  0  0  0  0
  4  5  1  0  0  0  0
  5  6  1  0  0  0  0
  5 25  1  0  0  0  0
  5 26  1  0  0  0  0
  6 10  1  0  0  0  0
  6  7  2  0  0  0  0
  7  8  1  0  0  0  0
  7 27  1  0  0  0  0
  8  9  2  0  0  0  0
  8 28  1  0  0  0  0
  9 10  1  0  0  0  0
  9 29  1  0  0  0  0
 11 12  1  0  0  0  0
 11 30  1  0  0  0  0
 11 31  1  0  0  0  0
 12 20  1  0  0  0  0
 12 13  1  0  0  0  0
 13 14  2  0  0  0  0
 13 32  1  0  0  0  0
 14 15  1  0  0  0  0
 15 20  2  0  0  0  0
 15 16  1  0  0  0  0
 16 17  2  0  0  0  0
 16 33  1  0  0  0  0
 17 18  1  0  0  0  0
 17 34  1  0  0  0  0
 18 19  2  0  0  0  0
 18 35  1  0  0  0  0
 19 20  1  0  0  0  0
 19 36  1  0  0  0  0
M  END
> <s_m_source_file>
AV-unprocessed.smi

> <i_m_source_file_index>
2532

> <i_lp_mmshare_version>
43012

> <i_f3d_flags>
0

> <s_epik_input>
W2NIXTFbY0hdW2NIXVtjSF1jKGMxMiluKFtjSF1uMilbQ0gyXVtDQEhdKFtPSF0pW0NIMl1PW0NIMl1jM1tjSF1bY0hdW2NIXXMz

> <s_epik_cmdline>
J2VwaWtfcHl0aG9uJywgJy1waCcsICc3LjAnLCAnLXRuJywgJzgnLCAnLW1hJywgJzIwMCcsICctbWV0YWxfYmluZGluZycsICctaW1hZScsICc8aW5maWxlLm1hZT4nLCAnLW9tYWUnLCAnPG91dGZpbGUubWFlPic=

> <r_epik_Ionization_Penalty>
0.0678455

> <r_epik_Ionization_Penalty_Charging>
0

> <r_epik_Ionization_Penalty_Neutral>
0.0678455

> <r_epik_State_Penalty>
0.0593261

> <r_epik_Charging_Adjusted_Penalty>
0.0593261

> <i_epik_Tot_Q>
0

> <i_epik_Tot_abs_Q>
0

> <r_epik_Metal_State_Penalty>
6.23947e-05

> <b_epik_Metal_Only>
0

> <s_lp_Force_Field>
OPLS_2005

> <r_lp_Energy>
9.71279

> <b_lp_Chiralities_Consistent>
1

> <s_lp_Variant>
AV-unprocessed.smi:2532-1

> <Gold.Version>
5.8.1

> <Gold.Id.Protein>
6NUR|6NUR_protein|mol2

> <Gold.PLP.Fitness>
54.0237

> <Gold.PLP.PLP>
-46.9507

> <Gold.PLP.part.hbond>
-2.6249

> <Gold.PLP.part.metal>
0.0000

> <Gold.PLP.part.buried>
-4.3891

> <Gold.PLP.part.nonpolar>
-40.7931

> <Gold.PLP.part.repulsive>
0.0794

> <Gold.PLP.ligand.clash>
0.0000

> <Gold.PLP.ligand.torsion>
0.8471

> <Gold.PLP.Chemscore.Hbond>
2.0000

> <Gold.PLP.Chemscore.CHOScore>
0.8248

> <Gold.PLP.Chemscore.Metal>
0.0000

> <Gold.Chemscore.Hbonds>
donor molecule, donor type, donor heavy atom, donor atom, acceptor molecule, acceptor atom, score
      P1  H  7989  7998       L1     4  0.85
      P1  H  7997  8010       L1     1  0.66
      L1  C     9    29       P1 10175  0.69

> <Gold.PLP.Chemscore.Internal.Correction>
0.2927

> <Gold.Rescore>
     Score         DG    S(hbond)    S(metal)    S(lipo)     H(rot)  DE(clash)    DE(int)     intcor
     18.99     -21.28       1.82        0.00     134.81       2.36       1.35       0.95       ----

> <Gold.Chemscore.Fitness>
18.9891

> <Gold.Chemscore.DG>
-21.2848

> <Gold.Chemscore.ZeroCoef>
-5.4800

> <Gold.Chemscore.Hbond>
1.8200

> <Gold.Chemscore.Metal>
0.0000

> <Gold.Chemscore.Lipo>
134.8102

> <Gold.Chemscore.Internal_Hbond>
0.0000

> <Gold.Chemscore.DEClash>
1.3454

> <Gold.Chemscore.DEInternal>
0.9503

> <Gold.Chemscore.Rot>
2.3620

> <Gold.Chemscore.Internal.Correction>
   9.000000E+99

> <Gold.Chemscore.Hbonds>
donor molecule, donor type, donor heavy atom, donor atom, acceptor molecule, acceptor atom, score
      P1  H  7989  7998       L1     4  0.14
      P1  H  7997  8010       L1     1  0.49

> <Gold.Chemscore.Hbond.Weighted>
-6.0788

> <Gold.Chemscore.Metal.Weighted>
-0.0000

> <Gold.Chemscore.Lipo.Weighted>
-15.7728

> <Gold.Chemscore.Internal_Hbond.Weighted>
0.0000

> <Gold.Chemscore.DEClash.Weighted>
1.3454

> <Gold.Chemscore.DEInternal.Weighted>
0.9503

> <Gold.Chemscore.Rot.Weighted>
6.0468

> <Gold.Chemscore.Internal.Correction.Weighted>
   9.000000E+99

> <Gold.Protein.RotatedTorsions>
[ 6907 6896 6895 6894 ] final  -18.31 input  -60.11 | X-H torsion
[ 7974 7965 7964 7962 ] final   67.22 input  175.53 | X-H torsion
[ 8008 7997 7996 7995 ] final   25.03 input   59.86 | X-H torsion
[ 10167 10162 10161 10158 ] final  154.27 input  -65.29 | X-H torsion
[ 10718 10713 10712 10709 ] final  -32.60 input   66.30 | X-H torsion
[ 10763 10752 10751 10750 ] final    8.08 input  -60.55 | X-H torsion
[ 11005 11000 10999 10996 ] final   95.75 input  -57.11 | X-H torsion

> <Gold.Protein.ActiveResidues>
 VAL166  LYS551  ARG553  GLY616  TRP617  ASP618  TYR619  PRO620  LYS621  CYS622 
 ASP623  PHE694  ASN695  SER759  ASP760  ASP761  ALA762  ILE779  LEU786  VAL792 
 PHE793  MET794  SER795  GLU796  ALA797  LYS798  CYS799  TRP800  GLU811  SER814 

> <Gold.Protein.RotatedAtoms>
  151.2802  135.0711  159.9166 H   0  0  0  0  0  0  0  0  0  0  0  0  # atno 6907 bound_to 6896
  152.5335  134.0039  159.7918 H   0  0  0  0  0  0  0  0  0  0  0  0  # atno 6908 bound_to 6896
  151.0292  133.5755  159.2693 H   0  0  0  0  0  0  0  0  0  0  0  0  # atno 6909 bound_to 6896
  145.8173  139.3065  143.1064 H   0  0  0  0  0  0  0  0  0  0  0  0  # atno 7974 bound_to 7965
  155.0055  140.3130  155.4850 H   0  0  0  0  0  0  0  0  0  0  0  0  # atno 8008 bound_to 7997
  156.2918  140.2224  156.5108 H   0  0  0  0  0  0  0  0  0  0  0  0  # atno 8009 bound_to 7997
  154.7581  140.0461  157.0938 H   0  0  0  0  0  0  0  0  0  0  0  0  # atno 8010 bound_to 7997
  139.4824  144.5201  151.7889 H   0  0  0  0  0  0  0  0  0  0  0  0  # atno 10167 bound_to 10162
  156.3729  130.4343  149.7530 H   0  0  0  0  0  0  0  0  0  0  0  0  # atno 10718 bound_to 10713
  153.2290  135.6890  153.7911 H   0  0  0  0  0  0  0  0  0  0  0  0  # atno 10763 bound_to 10752
  153.7083  135.3286  155.3241 H   0  0  0  0  0  0  0  0  0  0  0  0  # atno 10764 bound_to 10752
  154.8305  135.4584  154.1168 H   0  0  0  0  0  0  0  0  0  0  0  0  # atno 10765 bound_to 10752
  139.8786  134.8915  156.4056 H   0  0  0  0  0  0  0  0  0  0  0  0  # atno 11005 bound_to 11000
  145.9713  140.8757  143.0161 LP  0  0  0  0  0  0  0  0  0  0  0  0  # atno 17320 bound_to 7965
  144.6751  140.1950  143.7393 LP  0  0  0  0  0  0  0  0  0  0  0  0  # atno 17321 bound_to 7965
  140.4714  144.1581  150.5918 LP  0  0  0  0  0  0  0  0  0  0  0  0  # atno 17342 bound_to 10162
  140.4377  143.2540  151.9513 LP  0  0  0  0  0  0  0  0  0  0  0  0  # atno 17343 bound_to 10162
  156.4650  130.7970  151.2989 LP  0  0  0  0  0  0  0  0  0  0  0  0  # atno 17370 bound_to 10713
  157.7485  131.0054  150.3111 LP  0  0  0  0  0  0  0  0  0  0  0  0  # atno 17371 bound_to 10713
  140.9236  133.7628  155.9937 LP  0  0  0  0  0  0  0  0  0  0  0  0  # atno 17394 bound_to 11000
  140.8411  134.3065  157.5313 LP  0  0  0  0  0  0  0  0  0  0  0  0  # atno 17395 bound_to 11000

$$$$
