AV-unprocessed.smi:2637|AV-procd|sdf|10261|dock4
  -GOLD-   2272014273D 1   1.00000     0.00000
 Structure written by MMmdl.
 40 41  0  0  0  0  0  0  0  0  1 V2000
  148.1968  129.0924  154.1168 C   0  0  0  0  0  0  0  0  0  0  0  0
  148.1546  130.5663  153.8399 C   0  0  0  0  0  0  0  0  0  0  0  0
  149.0336  131.5764  154.3281 C   0  0  0  0  0  0  0  0  0  0  0  0
  148.5288  132.7149  153.7613 C   0  0  0  0  0  0  0  0  0  0  0  0
  148.9703  133.9957  153.8758 N   0  0  0  0  0  0  0  0  0  0  0  0
  149.7646  134.5304  154.8196 C   0  0  0  0  0  0  0  0  0  0  0  0
  150.2547  133.9203  155.7701 O   0  0  0  0  0  0  0  0  0  0  0  0
  149.9585  135.8394  154.6016 N   0  0  0  0  0  0  0  0  0  0  0  0
  150.7544  136.7304  155.4410 C   0  0  0  0  0  0  0  0  0  0  0  0
  151.1784  138.0051  154.6911 C   0  0  0  0  0  0  0  0  0  0  0  0
  152.2659  138.8238  155.4128 C   0  0  0  0  0  0  0  0  0  0  0  0
  151.6804  139.8823  156.2410 N   0  0  0  0  0  0  0  0  0  0  0  0
  150.7314  140.7302  155.8197 C   0  0  0  0  0  0  0  0  0  0  0  0
  150.2202  140.7553  154.7006 O   0  0  0  0  0  0  0  0  0  0  0  0
  150.3320  141.6965  156.9269 C   0  0  0  0  0  0  0  0  0  0  0  0
  151.2119  141.2595  158.1024 C   0  0  0  0  0  0  0  0  0  0  0  0
  152.0105  140.1002  157.5220 C   0  0  0  0  0  0  0  0  0  0  0  0
  152.8365  139.4678  158.1797 O   0  0  0  0  0  0  0  0  0  0  0  0
  147.4302  132.3832  152.9998 N   0  0  0  0  0  0  0  0  0  0  0  0
  146.5644  133.2360  152.2089 C   0  0  0  0  0  0  0  0  0  0  0  0
  147.2039  131.0526  153.0498 N   0  0  0  0  0  0  0  0  0  0  0  0
  149.0550  128.8323  154.7367 H   0  0  0  0  0  0  0  0  0  0  0  0
  148.2706  128.5202  153.1916 H   0  0  0  0  0  0  0  0  0  0  0  0
  147.2981  128.7663  154.6410 H   0  0  0  0  0  0  0  0  0  0  0  0
  149.8846  131.4619  154.9825 H   0  0  0  0  0  0  0  0  0  0  0  0
  148.6484  134.6264  153.1567 H   0  0  0  0  0  0  0  0  0  0  0  0
  149.5144  136.2559  153.7963 H   0  0  0  0  0  0  0  0  0  0  0  0
  150.2268  136.9876  156.3610 H   0  0  0  0  0  0  0  0  0  0  0  0
  151.6450  136.1819  155.7482 H   0  0  0  0  0  0  0  0  0  0  0  0
  151.5455  137.7194  153.7044 H   0  0  0  0  0  0  0  0  0  0  0  0
  150.3013  138.6299  154.5172 H   0  0  0  0  0  0  0  0  0  0  0  0
  152.8788  138.1742  156.0390 H   0  0  0  0  0  0  0  0  0  0  0  0
  152.9515  139.2541  154.6807 H   0  0  0  0  0  0  0  0  0  0  0  0
  150.5356  142.7251  156.6275 H   0  0  0  0  0  0  0  0  0  0  0  0
  149.2700  141.5989  157.1554 H   0  0  0  0  0  0  0  0  0  0  0  0
  151.8789  142.0577  158.4298 H   0  0  0  0  0  0  0  0  0  0  0  0
  150.6171  140.9257  158.9531 H   0  0  0  0  0  0  0  0  0  0  0  0
  146.2952  134.1233  152.7828 H   0  0  0  0  0  0  0  0  0  0  0  0
  145.6513  132.7059  151.9346 H   0  0  0  0  0  0  0  0  0  0  0  0
  147.0848  133.5421  151.3009 H   0  0  0  0  0  0  0  0  0  0  0  0
  1  2  1  0  0  0  0
  1 22  1  0  0  0  0
  1 23  1  0  0  0  0
  1 24  1  0  0  0  0
  2 21  2  0  0  0  0
  2  3  1  0  0  0  0
  3  4  2  0  0  0  0
  3 25  1  0  0  0  0
  4  5  1  0  0  0  0
  4 19  1  0  0  0  0
  5  6  1  0  0  0  0
  5 26  1  0  0  0  0
  6  7  2  0  0  0  0
  6  8  1  0  0  0  0
  8  9  1  0  0  0  0
  8 27  1  0  0  0  0
  9 10  1  0  0  0  0
  9 28  1  0  0  0  0
  9 29  1  0  0  0  0
 10 11  1  0  0  0  0
 10 30  1  0  0  0  0
 10 31  1  0  0  0  0
 11 12  1  0  0  0  0
 11 32  1  0  0  0  0
 11 33  1  0  0  0  0
 12 17  1  0  0  0  0
 12 13  1  0  0  0  0
 13 14  2  0  0  0  0
 13 15  1  0  0  0  0
 15 16  1  0  0  0  0
 15 34  1  0  0  0  0
 15 35  1  0  0  0  0
 16 17  1  0  0  0  0
 16 36  1  0  0  0  0
 16 37  1  0  0  0  0
 17 18  2  0  0  0  0
 19 20  1  0  0  0  0
 19 21  1  0  0  0  0
 20 38  1  0  0  0  0
 20 39  1  0  0  0  0
 20 40  1  0  0  0  0
M  END
> <s_m_source_file>
AV-unprocessed.smi

> <i_m_source_file_index>
2637

> <i_lp_mmshare_version>
43012

> <i_f3d_flags>
0

> <s_epik_input>
W0NIM11jMVtjSF1jKG4objEpW0NIM10pW05IXUMoPU8pW05IXVtDSDJdW0NIMl1bQ0gyXU4yQyg9TylbQ0gyXVtDSDJdQzI9Tw==

> <s_epik_cmdline>
J2VwaWtfcHl0aG9uJywgJy1waCcsICc3LjAnLCAnLXRuJywgJzgnLCAnLW1hJywgJzIwMCcsICctbWV0YWxfYmluZGluZycsICctaW1hZScsICc8aW5maWxlLm1hZT4nLCAnLW9tYWUnLCAnPG91dGZpbGUubWFlPic=

> <r_lp_tautomer_probability>
1

> <r_epik_Ionization_Penalty>
9.41646e-05

> <r_epik_Ionization_Penalty_Charging>
0

> <r_epik_Ionization_Penalty_Neutral>
9.41646e-05

> <r_epik_State_Penalty>
-0

> <r_epik_Charging_Adjusted_Penalty>
0

> <i_epik_Tot_Q>
0

> <i_epik_Tot_abs_Q>
0

> <r_epik_Metal_State_Penalty>
-0

> <b_epik_Metal_Only>
0

> <s_lp_Force_Field>
OPLS_2005

> <r_lp_Energy>
13.5658

> <b_lp_Chiralities_Consistent>
1

> <s_lp_Variant>
AV-unprocessed.smi:2637-1

> <Gold.Version>
5.8.1

> <Gold.Id.Protein>
6NUR|6NUR_protein|mol2

> <Gold.PLP.Fitness>
49.3983

> <Gold.PLP.PLP>
-39.5207

> <Gold.PLP.part.hbond>
-4.5566

> <Gold.PLP.part.metal>
0.0000

> <Gold.PLP.part.buried>
-3.8216

> <Gold.PLP.part.nonpolar>
-32.2949

> <Gold.PLP.part.repulsive>
0.5141

> <Gold.PLP.ligand.clash>
0.0000

> <Gold.PLP.ligand.torsion>
0.6102

> <Gold.PLP.Chemscore.Hbond>
3.6784

> <Gold.PLP.Chemscore.CHOScore>
0.0000

> <Gold.PLP.Chemscore.Metal>
0.0000

> <Gold.Chemscore.Hbonds>
donor molecule, donor type, donor heavy atom, donor atom, acceptor molecule, acceptor atom, score
      L1  H     5    26       P1  7948  0.98
      L1  H     8    27       P1  7948  1.00
      P1  H  7989  7998       L1    14  0.82
      P1  H  7997  8009       L1    18  0.43

> <Gold.PLP.Chemscore.Internal.Correction>
0.0629

> <Gold.Rescore>
     Score         DG    S(hbond)    S(metal)    S(lipo)     H(rot)  DE(clash)    DE(int)     intcor
     11.62     -13.67       2.22        0.00      51.80       2.07       0.14       1.90       ----

> <Gold.Chemscore.Fitness>
11.6231

> <Gold.Chemscore.DG>
-13.6670

> <Gold.Chemscore.ZeroCoef>
-5.4800

> <Gold.Chemscore.Hbond>
2.2232

> <Gold.Chemscore.Metal>
0.0000

> <Gold.Chemscore.Lipo>
51.8032

> <Gold.Chemscore.Internal_Hbond>
0.0000

> <Gold.Chemscore.DEClash>
0.1419

> <Gold.Chemscore.DEInternal>
1.9020

> <Gold.Chemscore.Rot>
2.0701

> <Gold.Chemscore.Internal.Correction>
   9.000000E+99

> <Gold.Chemscore.Hbonds>
donor molecule, donor type, donor heavy atom, donor atom, acceptor molecule, acceptor atom, score
      L1  H     5    26       P1  7948  0.26
      L1  H     8    27       P1  7948  0.61
      P1  H  7989  7998       L1    14  0.44
      P1  H  7997  8009       L1    18  0.16

> <Gold.Chemscore.Hbond.Weighted>
-7.4255

> <Gold.Chemscore.Metal.Weighted>
-0.0000

> <Gold.Chemscore.Lipo.Weighted>
-6.0610

> <Gold.Chemscore.Internal_Hbond.Weighted>
0.0000

> <Gold.Chemscore.DEClash.Weighted>
0.1419

> <Gold.Chemscore.DEInternal.Weighted>
1.9020

> <Gold.Chemscore.Rot.Weighted>
5.2995

> <Gold.Chemscore.Internal.Correction.Weighted>
   9.000000E+99

> <Gold.Protein.RotatedTorsions>
[ 6907 6896 6895 6894 ] final    0.00 input  -60.11 | X-H torsion
[ 7974 7965 7964 7962 ] final  -24.71 input  175.53 | X-H torsion
[ 8008 7997 7996 7995 ] final  138.40 input   59.86 | X-H torsion
[ 10167 10162 10161 10158 ] final  -40.90 input  -65.29 | X-H torsion
[ 10718 10713 10712 10709 ] final  -84.73 input   66.30 | X-H torsion
[ 10763 10752 10751 10750 ] final   60.34 input  -60.55 | X-H torsion
[ 11005 11000 10999 10996 ] final  134.40 input  -57.11 | X-H torsion

> <Gold.Protein.ActiveResidues>
 VAL166  LYS551  ARG553  GLY616  TRP617  ASP618  TYR619  PRO620  LYS621  CYS622 
 ASP623  PHE694  ASN695  SER759  ASP760  ASP761  ALA762  ILE779  LEU786  VAL792 
 PHE793  MET794  SER795  GLU796  ALA797  LYS798  CYS799  TRP800  GLU811  SER814 

> <Gold.Protein.RotatedAtoms>
  151.5694  135.1063  159.9991 H   0  0  0  0  0  0  0  0  0  0  0  0  # atno 6907 bound_to 6896
  152.4408  133.7440  159.6668 H   0  0  0  0  0  0  0  0  0  0  0  0  # atno 6908 bound_to 6896
  150.8313  133.8017  159.3121 H   0  0  0  0  0  0  0  0  0  0  0  0  # atno 6909 bound_to 6896
  146.1537  140.4789  142.8600 H   0  0  0  0  0  0  0  0  0  0  0  0  # atno 7974 bound_to 7965
  156.2997  140.2394  156.4067 H   0  0  0  0  0  0  0  0  0  0  0  0  # atno 8008 bound_to 7997
  154.8478  140.0425  157.1604 H   0  0  0  0  0  0  0  0  0  0  0  0  # atno 8009 bound_to 7997
  154.9032  140.2980  155.5310 H   0  0  0  0  0  0  0  0  0  0  0  0  # atno 8010 bound_to 7997
  140.7020  143.3126  151.2990 H   0  0  0  0  0  0  0  0  0  0  0  0  # atno 10167 bound_to 10162
  156.0003  130.4707  150.4454 H   0  0  0  0  0  0  0  0  0  0  0  0  # atno 10718 bound_to 10713
  152.9918  135.5539  154.5859 H   0  0  0  0  0  0  0  0  0  0  0  0  # atno 10763 bound_to 10752
  154.5230  135.2809  155.1248 H   0  0  0  0  0  0  0  0  0  0  0  0  # atno 10764 bound_to 10752
  154.2593  135.6384  153.5321 H   0  0  0  0  0  0  0  0  0  0  0  0  # atno 10765 bound_to 10752
  139.9913  134.9514  156.9861 H   0  0  0  0  0  0  0  0  0  0  0  0  # atno 11005 bound_to 11000
  144.7936  140.6080  143.6525 LP  0  0  0  0  0  0  0  0  0  0  0  0  # atno 17320 bound_to 7965
  145.4760  139.1499  143.3788 LP  0  0  0  0  0  0  0  0  0  0  0  0  # atno 17321 bound_to 7965
  139.6554  144.0286  152.2656 LP  0  0  0  0  0  0  0  0  0  0  0  0  # atno 17342 bound_to 10162
  139.9836  144.6411  150.7878 LP  0  0  0  0  0  0  0  0  0  0  0  0  # atno 17343 bound_to 10162
  157.2491  131.0542  151.2390 LP  0  0  0  0  0  0  0  0  0  0  0  0  # atno 17370 bound_to 10713
  157.3545  130.7099  149.6462 LP  0  0  0  0  0  0  0  0  0  0  0  0  # atno 17371 bound_to 10713
  140.4904  134.1199  155.7232 LP  0  0  0  0  0  0  0  0  0  0  0  0  # atno 17394 bound_to 11000
  141.1568  133.8868  157.1956 LP  0  0  0  0  0  0  0  0  0  0  0  0  # atno 17395 bound_to 11000

$$$$
