AV-unprocessed.smi:2062|AV-procd|sdf|8397|dock10
  -GOLD-   2272011 83D 1   1.00000     0.00000
 Structure written by MMmdl.
 43 44  0  0  0  0  0  0  0  0  2 V2000
  151.2541  142.9188  157.0238 C   0  0  0  0  0  0  0  0  0  0  0  0
  150.7090  141.4917  156.8656 C   0  0  0  0  0  0  0  0  0  0  0  0
  151.8059  140.4605  157.1791 C   0  0  0  0  0  0  0  0  0  0  0  0
  150.1155  141.2909  155.4540 C   0  0  0  0  0  0  0  0  0  0  0  0
  148.6885  141.7036  155.3553 N   0  3  2  0  0  0  0  0  0  0  0  0
  147.8737  141.3042  156.5284 C   0  0  0  0  0  0  0  0  0  0  0  0
  147.4971  139.8133  156.4619 C   0  0  0  0  0  0  0  0  0  0  0  0
  146.8104  139.5547  155.2437 O   0  0  0  0  0  0  0  0  0  0  0  0
  147.6158  139.8164  154.0981 C   0  0  1  0  0  0  0  0  0  0  0  0
  146.8124  139.4325  152.8423 C   0  0  0  0  0  0  0  0  0  0  0  0
  146.9676  138.0213  152.5054 N   0  0  0  0  0  0  0  0  0  0  0  0
  145.9558  137.1589  152.3325 C   0  0  0  0  0  0  0  0  0  0  0  0
  144.7713  137.4756  152.4474 O   0  0  0  0  0  0  0  0  0  0  0  0
  146.4072  135.9318  152.0204 N   0  0  0  0  0  0  0  0  0  0  0  0
  145.6500  134.7667  151.7295 C   0  0  0  0  0  0  0  0  0  0  0  0
  144.3226  134.7526  151.5597 N   0  0  0  0  0  0  0  0  0  0  0  0
  143.8438  133.4704  151.2787 C   0  0  0  0  0  0  0  0  0  0  0  0
  144.8277  132.5141  151.2362 C   0  0  0  0  0  0  0  0  0  0  0  0
  146.4043  133.1894  151.5491 S   0  0  0  0  0  0  0  0  0  0  0  0
  148.0066  141.3105  154.0946 C   0  0  0  0  0  0  0  0  0  0  0  0
  152.0623  143.1167  156.3189 H   0  0  0  0  0  0  0  0  0  0  0  0
  151.6428  143.0822  158.0295 H   0  0  0  0  0  0  0  0  0  0  0  0
  150.4728  143.6595  156.8517 H   0  0  0  0  0  0  0  0  0  0  0  0
  149.9200  141.3773  157.6077 H   0  0  0  0  0  0  0  0  0  0  0  0
  152.6301  140.5292  156.4683 H   0  0  0  0  0  0  0  0  0  0  0  0
  151.4193  139.4420  157.1442 H   0  0  0  0  0  0  0  0  0  0  0  0
  152.2163  140.6163  158.1773 H   0  0  0  0  0  0  0  0  0  0  0  0
  150.7114  141.8229  154.7126 H   0  0  0  0  0  0  0  0  0  0  0  0
  150.2023  140.2334  155.2003 H   0  0  0  0  0  0  0  0  0  0  0  0
  148.3945  141.5338  157.4586 H   0  0  0  0  0  0  0  0  0  0  0  0
  146.9629  141.9045  156.5335 H   0  0  0  0  0  0  0  0  0  0  0  0
  148.3788  139.1761  156.5436 H   0  0  0  0  0  0  0  0  0  0  0  0
  146.8425  139.5557  157.2944 H   0  0  0  0  0  0  0  0  0  0  0  0
  148.5158  139.2021  154.1426 H   0  0  0  0  0  0  0  0  0  0  0  0
  145.7523  139.6349  152.9978 H   0  0  0  0  0  0  0  0  0  0  0  0
  147.1226  140.0427  151.9924 H   0  0  0  0  0  0  0  0  0  0  0  0
  147.9113  137.6805  152.3920 H   0  0  0  0  0  0  0  0  0  0  0  0
  147.4091  135.8184  151.9774 H   0  0  0  0  0  0  0  0  0  0  0  0
  142.7848  133.3284  151.1218 H   0  0  0  0  0  0  0  0  0  0  0  0
  144.7208  131.4576  151.0403 H   0  0  0  0  0  0  0  0  0  0  0  0
  147.1060  141.9183  153.9978 H   0  0  0  0  0  0  0  0  0  0  0  0
  148.6204  141.5442  153.2259 H   0  0  0  0  0  0  0  0  0  0  0  0
  148.7100  142.7135  155.3684 H   0  0  0  0  0  0  0  0  0  0  0  0
  1  2  1  0  0  0  0
  1 21  1  0  0  0  0
  1 22  1  0  0  0  0
  1 23  1  0  0  0  0
  2  3  1  0  0  0  0
  2  4  1  0  0  0  0
  2 24  1  0  0  0  0
  3 25  1  0  0  0  0
  3 26  1  0  0  0  0
  3 27  1  0  0  0  0
  4  5  1  0  0  0  0
  4 28  1  0  0  0  0
  4 29  1  0  0  0  0
  5 20  1  0  0  0  0
  5  6  1  0  0  0  0
  5 43  1  0  0  0  0
  6  7  1  0  0  0  0
  6 30  1  0  0  0  0
  6 31  1  0  0  0  0
  7  8  1  0  0  0  0
  7 32  1  0  0  0  0
  7 33  1  0  0  0  0
  8  9  1  0  0  0  0
  9 10  1  0  0  0  0
  9 20  1  0  0  0  0
  9 34  1  0  0  0  0
 10 11  1  0  0  0  0
 10 35  1  0  0  0  0
 10 36  1  0  0  0  0
 11 12  1  0  0  0  0
 11 37  1  0  0  0  0
 12 13  2  0  0  0  0
 12 14  1  0  0  0  0
 14 15  1  0  0  0  0
 14 38  1  0  0  0  0
 15 19  1  0  0  0  0
 15 16  2  0  0  0  0
 16 17  1  0  0  0  0
 17 18  2  0  0  0  0
 17 39  1  0  0  0  0
 18 19  1  0  0  0  0
 18 40  1  0  0  0  0
 20 41  1  0  0  0  0
 20 42  1  0  0  0  0
M  CHG  1   5   1
M  END
> <s_m_source_file>
AV-unprocessed.smi

> <i_m_source_file_index>
2062

> <i_lp_mmshare_version>
43012

> <i_f3d_flags>
0

> <s_epik_input>
W0NIM11bQ0hdKFtDSDNdKVtDSDJdTjFbQ0gyXVtDSDJdT1tDQEhdKFtDSDJdMSlbQ0gyXVtOSF1DKD1PKVtOSF1jMm5bY0hdW2NIXXMy

> <s_epik_cmdline>
J2VwaWtfcHl0aG9uJywgJy1waCcsICc3LjAnLCAnLXRuJywgJzgnLCAnLW1hJywgJzIwMCcsICctbWV0YWxfYmluZGluZycsICctaW1hZScsICc8aW5maWxlLm1hZT4nLCAnLW9tYWUnLCAnPG91dGZpbGUubWFlPic=

> <r_lp_tautomer_probability>
0.999

> <r_epik_Ionization_Penalty>
0.0985527

> <r_epik_Ionization_Penalty_Charging>
0.098413

> <r_epik_Ionization_Penalty_Neutral>
0.000139681

> <r_epik_State_Penalty>
0.0884988

> <r_epik_Charging_Adjusted_Penalty>
0.186912

> <i_epik_Tot_Q>
1

> <i_epik_Tot_abs_Q>
1

> <r_epik_Metal_State_Penalty>
0.141792

> <b_epik_Metal_Only>
0

> <s_lp_Force_Field>
OPLS_2005

> <r_lp_Energy>
17.4544

> <b_lp_Chiralities_Consistent>
1

> <s_lp_Variant>
AV-unprocessed.smi:2062-2

> <Gold.Version>
5.8.1

> <Gold.Id.Protein>
6NUR|6NUR_protein|mol2

> <Gold.PLP.Fitness>
43.7407

> <Gold.PLP.PLP>
-30.4835

> <Gold.PLP.part.hbond>
-2.9889

> <Gold.PLP.part.metal>
0.0000

> <Gold.PLP.part.buried>
-6.2097

> <Gold.PLP.part.nonpolar>
-24.2161

> <Gold.PLP.part.repulsive>
1.7429

> <Gold.PLP.ligand.clash>
0.0000

> <Gold.PLP.ligand.torsion>
0.8012

> <Gold.PLP.Chemscore.Hbond>
3.9280

> <Gold.PLP.Chemscore.CHOScore>
1.0000

> <Gold.PLP.Chemscore.Metal>
0.0000

> <Gold.Chemscore.Hbonds>
donor molecule, donor type, donor heavy atom, donor atom, acceptor molecule, acceptor atom, score
      L1  H     5    43       P1  8028  2.00
      L1  H    11    37       P1  7948  0.91
      L1  H    14    38       P1  7948  1.00
      L1  C    17    39       P1 10186  0.81

> <Gold.PLP.Chemscore.Internal.Correction>
0.0755

> <Gold.Rescore>
     Score         DG    S(hbond)    S(metal)    S(lipo)     H(rot)  DE(clash)    DE(int)     intcor
     17.00     -19.09       2.93        0.00      71.28       1.76       0.03       2.06       ----

> <Gold.Chemscore.Fitness>
16.9972

> <Gold.Chemscore.DG>
-19.0890

> <Gold.Chemscore.ZeroCoef>
-5.4800

> <Gold.Chemscore.Hbond>
2.9265

> <Gold.Chemscore.Metal>
0.0000

> <Gold.Chemscore.Lipo>
71.2824

> <Gold.Chemscore.Internal_Hbond>
0.0000

> <Gold.Chemscore.DEClash>
0.0324

> <Gold.Chemscore.DEInternal>
2.0594

> <Gold.Chemscore.Rot>
1.7599

> <Gold.Chemscore.Internal.Correction>
   9.000000E+99

> <Gold.Chemscore.Hbonds>
donor molecule, donor type, donor heavy atom, donor atom, acceptor molecule, acceptor atom, score
      L1  H     5    43       P1  8028  0.93
      L1  H    11    37       P1  7948  0.88
      L1  H    14    38       P1  7948  0.97

> <Gold.Chemscore.Hbond.Weighted>
-9.7744

> <Gold.Chemscore.Metal.Weighted>
-0.0000

> <Gold.Chemscore.Lipo.Weighted>
-8.3400

> <Gold.Chemscore.Internal_Hbond.Weighted>
0.0000

> <Gold.Chemscore.DEClash.Weighted>
0.0324

> <Gold.Chemscore.DEInternal.Weighted>
2.0594

> <Gold.Chemscore.Rot.Weighted>
4.5054

> <Gold.Chemscore.Internal.Correction.Weighted>
   9.000000E+99

> <Gold.Protein.RotatedTorsions>
[ 6907 6896 6895 6894 ] final  146.26 input  -60.11 | X-H torsion
[ 7974 7965 7964 7962 ] final   25.27 input  175.53 | X-H torsion
[ 8008 7997 7996 7995 ] final  -37.31 input   59.86 | X-H torsion
[ 10167 10162 10161 10158 ] final  124.23 input  -65.29 | X-H torsion
[ 10718 10713 10712 10709 ] final -133.88 input   66.30 | X-H torsion
[ 10763 10752 10751 10750 ] final   60.06 input  -60.55 | X-H torsion
[ 11005 11000 10999 10996 ] final  -58.06 input  -57.11 | X-H torsion

> <Gold.Protein.ActiveResidues>
 VAL166  LYS551  ARG553  GLY616  TRP617  ASP618  TYR619  PRO620  LYS621  CYS622 
 ASP623  PHE694  ASN695  SER759  ASP760  ASP761  ALA762  ILE779  LEU786  VAL792 
 PHE793  MET794  SER795  GLU796  ALA797  LYS798  CYS799  TRP800  GLU811  SER814 

> <Gold.Protein.RotatedAtoms>
  152.1703  133.4639  159.4905 H   0  0  0  0  0  0  0  0  0  0  0  0  # atno 6907 bound_to 6896
  150.6919  134.1962  159.4313 H   0  0  0  0  0  0  0  0  0  0  0  0  # atno 6908 bound_to 6896
  151.9868  134.9999  160.0610 H   0  0  0  0  0  0  0  0  0  0  0  0  # atno 6909 bound_to 6896
  146.1897  139.7488  142.8841 H   0  0  0  0  0  0  0  0  0  0  0  0  # atno 7974 bound_to 7965
  154.4056  140.1607  156.2516 H   0  0  0  0  0  0  0  0  0  0  0  0  # atno 8008 bound_to 7997
  155.9114  140.3427  155.6079 H   0  0  0  0  0  0  0  0  0  0  0  0  # atno 8009 bound_to 7997
  155.7331  140.0783  157.2270 H   0  0  0  0  0  0  0  0  0  0  0  0  # atno 8010 bound_to 7997
  139.5754  144.6960  151.3668 H   0  0  0  0  0  0  0  0  0  0  0  0  # atno 10167 bound_to 10162
  156.2496  130.7145  151.1039 H   0  0  0  0  0  0  0  0  0  0  0  0  # atno 10718 bound_to 10713
  152.9911  135.5550  154.5812 H   0  0  0  0  0  0  0  0  0  0  0  0  # atno 10763 bound_to 10752
  154.5193  135.2807  155.1278 H   0  0  0  0  0  0  0  0  0  0  0  0  # atno 10764 bound_to 10752
  154.2638  135.6376  153.5337 H   0  0  0  0  0  0  0  0  0  0  0  0  # atno 10765 bound_to 10752
  141.1191  133.6611  156.4863 H   0  0  0  0  0  0  0  0  0  0  0  0  # atno 11005 bound_to 11000
  145.3832  141.0361  143.3166 LP  0  0  0  0  0  0  0  0  0  0  0  0  # atno 17320 bound_to 7965
  144.8462  139.5393  143.6877 LP  0  0  0  0  0  0  0  0  0  0  0  0  # atno 17321 bound_to 7965
  140.7036  143.7569  150.7445 LP  0  0  0  0  0  0  0  0  0  0  0  0  # atno 17342 bound_to 10162
  140.1087  143.4719  152.2383 LP  0  0  0  0  0  0  0  0  0  0  0  0  # atno 17343 bound_to 10162
  157.7209  131.0682  150.6139 LP  0  0  0  0  0  0  0  0  0  0  0  0  # atno 17370 bound_to 10713
  156.6218  130.4408  149.5819 LP  0  0  0  0  0  0  0  0  0  0  0  0  # atno 17371 bound_to 10713
  140.4560  134.6885  157.5062 LP  0  0  0  0  0  0  0  0  0  0  0  0  # atno 17394 bound_to 11000
  140.0135  134.6655  155.9345 LP  0  0  0  0  0  0  0  0  0  0  0  0  # atno 17395 bound_to 11000

$$$$
