AV-unprocessed.smi:3183|AV-procd|sdf|12157|dock6
  -GOLD-   2272017593D 1   1.00000     0.00000
 Structure written by MMmdl.
 43 44  0  0  0  0  0  0  0  0  2 V2000
  147.0062  138.6896  152.8729 C   0  0  0  0  0  0  0  0  0  0  0  0
  147.9664  139.7586  153.4200 C   0  0  2  0  0  0  0  0  0  0  0  0
  148.9838  139.1609  154.4111 C   0  0  0  0  0  0  0  0  0  0  0  0
  149.9926  140.2187  154.8849 C   0  0  0  0  0  0  0  0  0  0  0  0
  149.2915  141.4411  155.5044 C   0  0  1  0  0  0  0  0  0  0  0  0
  150.3035  142.4426  155.9084 N   0  3  0  0  0  0  0  0  0  0  0  0
  150.7846  142.3304  157.3014 C   0  0  0  0  0  0  0  0  0  0  0  0
  151.5732  143.5823  157.7128 C   0  0  0  0  0  0  0  0  0  0  0  0
  151.9331  143.6324  159.1666 C   0  0  0  0  0  0  0  0  0  0  0  0
  151.6399  144.5511  160.1377 C   0  0  0  0  0  0  0  0  0  0  0  0
  152.2640  144.0347  161.3062 C   0  0  0  0  0  0  0  0  0  0  0  0
  152.8917  142.8937  161.0829 N   0  0  0  0  0  0  0  0  0  0  0  0
  152.6912  142.6458  159.7715 N   0  0  0  0  0  0  0  0  0  0  0  0
  153.2532  141.4448  159.1840 C   0  0  0  0  0  0  0  0  0  0  0  0
  148.2688  142.0323  154.5075 C   0  0  0  0  0  0  0  0  0  0  0  0
  147.2401  140.9883  154.0226 C   0  0  2  0  0  0  0  0  0  0  0  0
  146.2189  140.6418  155.1253 C   0  0  0  0  0  0  0  0  0  0  0  0
  146.4494  138.1983  153.6710 H   0  0  0  0  0  0  0  0  0  0  0  0
  147.5537  137.9150  152.3349 H   0  0  0  0  0  0  0  0  0  0  0  0
  146.2863  139.1242  152.1788 H   0  0  0  0  0  0  0  0  0  0  0  0
  148.5359  140.1210  152.5625 H   0  0  0  0  0  0  0  0  0  0  0  0
  148.4671  138.7322  155.2703 H   0  0  0  0  0  0  0  0  0  0  0  0
  149.5210  138.3375  153.9388 H   0  0  0  0  0  0  0  0  0  0  0  0
  150.6745  139.7714  155.6094 H   0  0  0  0  0  0  0  0  0  0  0  0
  150.6060  140.5338  154.0393 H   0  0  0  0  0  0  0  0  0  0  0  0
  148.7725  141.1103  156.4051 H   0  0  0  0  0  0  0  0  0  0  0  0
  151.1047  142.3232  155.3050 H   0  0  0  0  0  0  0  0  0  0  0  0
  149.9366  142.1939  157.9722 H   0  0  0  0  0  0  0  0  0  0  0  0
  151.4189  141.4475  157.3927 H   0  0  0  0  0  0  0  0  0  0  0  0
  152.4869  143.6402  157.1201 H   0  0  0  0  0  0  0  0  0  0  0  0
  150.9913  144.4700  157.4620 H   0  0  0  0  0  0  0  0  0  0  0  0
  151.0645  145.4591  160.0337 H   0  0  0  0  0  0  0  0  0  0  0  0
  152.2789  144.4514  162.3027 H   0  0  0  0  0  0  0  0  0  0  0  0
  153.7991  141.6981  158.2752 H   0  0  0  0  0  0  0  0  0  0  0  0
  152.4511  140.7490  158.9370 H   0  0  0  0  0  0  0  0  0  0  0  0
  153.9394  140.9602  159.8799 H   0  0  0  0  0  0  0  0  0  0  0  0
  147.7394  142.8761  154.9500 H   0  0  0  0  0  0  0  0  0  0  0  0
  148.8012  142.4331  153.6436 H   0  0  0  0  0  0  0  0  0  0  0  0
  146.6713  141.4561  153.2178 H   0  0  0  0  0  0  0  0  0  0  0  0
  146.6746  140.1072  155.9580 H   0  0  0  0  0  0  0  0  0  0  0  0
  145.4092  140.0227  154.7395 H   0  0  0  0  0  0  0  0  0  0  0  0
  145.7603  141.5452  155.5280 H   0  0  0  0  0  0  0  0  0  0  0  0
  149.9264  143.3677  155.7591 H   0  0  0  0  0  0  0  0  0  0  0  0
  1  2  1  0  0  0  0
  1 18  1  0  0  0  0
  1 19  1  0  0  0  0
  1 20  1  0  0  0  0
  2 16  1  0  0  0  0
  2  3  1  0  0  0  0
  2 21  1  0  0  0  0
  3  4  1  0  0  0  0
  3 22  1  0  0  0  0
  3 23  1  0  0  0  0
  4  5  1  0  0  0  0
  4 24  1  0  0  0  0
  4 25  1  0  0  0  0
  5  6  1  0  0  0  0
  5 15  1  0  0  0  0
  5 26  1  0  0  0  0
  6  7  1  0  0  0  0
  6 27  1  0  0  0  0
  6 43  1  0  0  0  0
  7  8  1  0  0  0  0
  7 28  1  0  0  0  0
  7 29  1  0  0  0  0
  8  9  1  0  0  0  0
  8 30  1  0  0  0  0
  8 31  1  0  0  0  0
  9 13  1  0  0  0  0
  9 10  2  0  0  0  0
 10 11  1  0  0  0  0
 10 32  1  0  0  0  0
 11 12  2  0  0  0  0
 11 33  1  0  0  0  0
 12 13  1  0  0  0  0
 13 14  1  0  0  0  0
 14 34  1  0  0  0  0
 14 35  1  0  0  0  0
 14 36  1  0  0  0  0
 15 16  1  0  0  0  0
 15 37  1  0  0  0  0
 15 38  1  0  0  0  0
 16 17  1  0  0  0  0
 16 39  1  0  0  0  0
 17 40  1  0  0  0  0
 17 41  1  0  0  0  0
 17 42  1  0  0  0  0
M  CHG  1   6   1
M  END
> <s_m_source_file>
AV-unprocessed.smi

> <i_m_source_file_index>
3183

> <i_lp_mmshare_version>
43012

> <i_f3d_flags>
0

> <s_epik_input>
W0NIM11bQ0BASF0xW0NIMl1bQ0gyXVtDQEhdKFtDSDJdW0NASF0xW0NIM10pW05IXVtDSDJdW0NIMl1jMltjSF1bY0hdbm4yW0NIM10=

> <s_epik_cmdline>
J2VwaWtfcHl0aG9uJywgJy1waCcsICc3LjAnLCAnLXRuJywgJzgnLCAnLW1hJywgJzIwMCcsICctbWV0YWxfYmluZGluZycsICctaW1hZScsICc8aW5maWxlLm1hZT4nLCAnLW9tYWUnLCAnPG91dGZpbGUubWFlPic=

> <r_lp_tautomer_probability>
1

> <r_epik_Ionization_Penalty>
0.000327718

> <r_epik_Ionization_Penalty_Charging>
0.000294043

> <r_epik_Ionization_Penalty_Neutral>
3.36755e-05

> <r_epik_State_Penalty>
-0

> <r_epik_Charging_Adjusted_Penalty>
0.000294043

> <i_epik_Tot_Q>
1

> <i_epik_Tot_abs_Q>
1

> <r_epik_Metal_State_Penalty>
-0

> <b_epik_Metal_Only>
0

> <s_lp_Force_Field>
OPLS_2005

> <r_lp_Energy>
13.9597

> <b_lp_Chiralities_Consistent>
1

> <s_lp_Variant>
AV-unprocessed.smi:3183-5

> <Gold.Version>
5.8.1

> <Gold.Id.Protein>
6NUR|6NUR_protein|mol2

> <Gold.PLP.Fitness>
44.1402

> <Gold.PLP.PLP>
-39.1205

> <Gold.PLP.part.hbond>
-1.0000

> <Gold.PLP.part.metal>
0.0000

> <Gold.PLP.part.buried>
0.3189

> <Gold.PLP.part.nonpolar>
-38.6387

> <Gold.PLP.part.repulsive>
0.1978

> <Gold.PLP.ligand.clash>
0.0000

> <Gold.PLP.ligand.torsion>
0.4938

> <Gold.PLP.Chemscore.Hbond>
2.0000

> <Gold.PLP.Chemscore.CHOScore>
0.0000

> <Gold.PLP.Chemscore.Metal>
0.0000

> <Gold.Chemscore.Hbonds>
donor molecule, donor type, donor heavy atom, donor atom, acceptor molecule, acceptor atom, score
      L1  H     6    43       P1  8028  2.00

> <Gold.PLP.Chemscore.Internal.Correction>
0.0074

> <Gold.Rescore>
     Score         DG    S(hbond)    S(metal)    S(lipo)     H(rot)  DE(clash)    DE(int)     intcor
     17.64     -18.19       1.00        0.00     110.26       1.38       0.15       0.40       ----

> <Gold.Chemscore.Fitness>
17.6415

> <Gold.Chemscore.DG>
-18.1940

> <Gold.Chemscore.ZeroCoef>
-5.4800

> <Gold.Chemscore.Hbond>
0.9994

> <Gold.Chemscore.Metal>
0.0000

> <Gold.Chemscore.Lipo>
110.2608

> <Gold.Chemscore.Internal_Hbond>
0.0000

> <Gold.Chemscore.DEClash>
0.1534

> <Gold.Chemscore.DEInternal>
0.3990

> <Gold.Chemscore.Rot>
1.3768

> <Gold.Chemscore.Internal.Correction>
   9.000000E+99

> <Gold.Chemscore.Hbonds>
donor molecule, donor type, donor heavy atom, donor atom, acceptor molecule, acceptor atom, score
      L1  H     6    43       P1  8028  1.00

> <Gold.Chemscore.Hbond.Weighted>
-3.3381

> <Gold.Chemscore.Metal.Weighted>
-0.0000

> <Gold.Chemscore.Lipo.Weighted>
-12.9005

> <Gold.Chemscore.Internal_Hbond.Weighted>
0.0000

> <Gold.Chemscore.DEClash.Weighted>
0.1534

> <Gold.Chemscore.DEInternal.Weighted>
0.3990

> <Gold.Chemscore.Rot.Weighted>
3.5247

> <Gold.Chemscore.Internal.Correction.Weighted>
   9.000000E+99

> <Gold.Protein.RotatedTorsions>
[ 6907 6896 6895 6894 ] final  -53.85 input  -60.11 | X-H torsion
[ 7974 7965 7964 7962 ] final  139.75 input  175.53 | X-H torsion
[ 8008 7997 7996 7995 ] final  -75.83 input   59.86 | X-H torsion
[ 10167 10162 10161 10158 ] final   45.03 input  -65.29 | X-H torsion
[ 10718 10713 10712 10709 ] final  172.10 input   66.30 | X-H torsion
[ 10763 10752 10751 10750 ] final  128.53 input  -60.55 | X-H torsion
[ 11005 11000 10999 10996 ] final  115.30 input  -57.11 | X-H torsion

> <Gold.Protein.ActiveResidues>
 VAL166  LYS551  ARG553  GLY616  TRP617  ASP618  TYR619  PRO620  LYS621  CYS622 
 ASP623  PHE694  ASN695  SER759  ASP760  ASP761  ALA762  ILE779  LEU786  VAL792 
 PHE793  MET794  SER795  GLU796  ALA797  LYS798  CYS799  TRP800  GLU811  SER814 

> <Gold.Protein.RotatedAtoms>
  150.8390  134.7674  159.6916 H   0  0  0  0  0  0  0  0  0  0  0  0  # atno 6907 bound_to 6896
  152.4481  134.5448  159.9859 H   0  0  0  0  0  0  0  0  0  0  0  0  # atno 6908 bound_to 6896
  151.5593  133.3368  159.3004 H   0  0  0  0  0  0  0  0  0  0  0  0  # atno 6909 bound_to 6896
  144.9250  139.5119  143.5645 H   0  0  0  0  0  0  0  0  0  0  0  0  # atno 7974 bound_to 7965
  154.5451  140.0737  156.8575 H   0  0  0  0  0  0  0  0  0  0  0  0  # atno 8008 bound_to 7997
  155.3104  140.3390  155.4226 H   0  0  0  0  0  0  0  0  0  0  0  0  # atno 8009 bound_to 7997
  156.1910  140.1686  156.8077 H   0  0  0  0  0  0  0  0  0  0  0  0  # atno 8010 bound_to 7997
  140.3282  144.2621  150.6172 H   0  0  0  0  0  0  0  0  0  0  0  0  # atno 10167 bound_to 10162
  156.9839  131.0127  151.2874 H   0  0  0  0  0  0  0  0  0  0  0  0  # atno 10718 bound_to 10713
  153.7270  135.3244  155.3278 H   0  0  0  0  0  0  0  0  0  0  0  0  # atno 10763 bound_to 10752
  154.8338  135.4513  154.1160 H   0  0  0  0  0  0  0  0  0  0  0  0  # atno 10764 bound_to 10752
  153.2297  135.6958  153.7985 H   0  0  0  0  0  0  0  0  0  0  0  0  # atno 10765 bound_to 10752
  139.9006  134.9582  156.7024 H   0  0  0  0  0  0  0  0  0  0  0  0  # atno 11005 bound_to 11000
  146.3222  139.8158  142.8936 LP  0  0  0  0  0  0  0  0  0  0  0  0  # atno 17320 bound_to 7965
  145.3234  141.0249  143.3487 LP  0  0  0  0  0  0  0  0  0  0  0  0  # atno 17321 bound_to 7965
  140.5421  143.2221  151.8068 LP  0  0  0  0  0  0  0  0  0  0  0  0  # atno 17342 bound_to 10162
  139.4861  144.4587  151.9567 LP  0  0  0  0  0  0  0  0  0  0  0  0  # atno 17343 bound_to 10162
  157.5507  130.8180  149.8141 LP  0  0  0  0  0  0  0  0  0  0  0  0  # atno 17370 bound_to 10713
  156.0233  130.3788  150.1895 LP  0  0  0  0  0  0  0  0  0  0  0  0  # atno 17371 bound_to 10713
  140.7140  133.9198  155.8103 LP  0  0  0  0  0  0  0  0  0  0  0  0  # atno 17394 bound_to 11000
  141.0278  134.0798  157.4048 LP  0  0  0  0  0  0  0  0  0  0  0  0  # atno 17395 bound_to 11000

$$$$
