AV-unprocessed.smi:1469|AV-procd|sdf|5958|dock3
  -GOLD-   22720 6 43D 1   1.00000     0.00000
 Structure written by MMmdl.
 41 42  0  0  0  0  0  0  0  0  2 V2000
  147.4751  138.7818  156.0454 C   0  0  0  0  0  0  0  0  0  0  0  0
  148.4535  138.0372  155.1081 C   0  0  2  0  0  0  0  0  0  0  0  0
  149.7700  138.8351  154.9185 C   0  0  0  0  0  0  0  0  0  0  0  0
  150.4423  139.1342  156.1806 N   0  0  0  0  0  0  0  0  0  0  0  0
  151.6114  139.7805  156.3104 C   0  0  0  0  0  0  0  0  0  0  0  0
  152.2418  140.2312  155.3527 O   0  0  0  0  0  0  0  0  0  0  0  0
  152.1215  139.9531  157.7488 C   0  0  0  0  0  0  0  0  0  0  0  0
  152.1926  141.3567  158.1890 N   0  0  0  0  0  0  0  0  0  0  0  0
  151.5226  142.3110  157.3975 C   0  0  0  0  0  0  0  0  0  0  0  0
  151.5192  143.6165  157.7102 C   0  0  0  0  0  0  0  0  0  0  0  0
  152.2284  144.0365  158.8958 C   0  0  0  0  0  0  0  0  0  0  0  0
  152.8760  143.1325  159.6578 C   0  0  0  0  0  0  0  0  0  0  0  0
  152.8839  141.7047  159.3185 C   0  0  0  0  0  0  0  0  0  0  0  0
  153.4755  140.8723  160.0067 O   0  0  0  0  0  0  0  0  0  0  0  0
  147.8210  137.7526  153.7862 N   0  3  0  0  0  0  0  0  0  0  0  0
  146.5899  136.9221  153.8381 C   0  0  0  0  0  0  0  0  0  0  0  0
  145.6199  137.4736  152.7840 C   0  0  0  0  0  0  0  0  0  0  0  0
  146.4534  138.4463  151.9591 C   0  0  0  0  0  0  0  0  0  0  0  0
  147.4961  138.9350  152.9575 C   0  0  0  0  0  0  0  0  0  0  0  0
  147.9170  138.9680  157.0237 H   0  0  0  0  0  0  0  0  0  0  0  0
  146.5674  138.2093  156.2345 H   0  0  0  0  0  0  0  0  0  0  0  0
  147.1830  139.7453  155.6263 H   0  0  0  0  0  0  0  0  0  0  0  0
  148.6943  137.0793  155.5726 H   0  0  0  0  0  0  0  0  0  0  0  0
  150.4853  138.2660  154.3256 H   0  0  0  0  0  0  0  0  0  0  0  0
  149.5771  139.7487  154.3532 H   0  0  0  0  0  0  0  0  0  0  0  0
  149.9921  138.8066  157.0233 H   0  0  0  0  0  0  0  0  0  0  0  0
  151.4720  139.3791  158.4116 H   0  0  0  0  0  0  0  0  0  0  0  0
  153.1033  139.4839  157.8368 H   0  0  0  0  0  0  0  0  0  0  0  0
  151.0209  141.9167  156.5258 H   0  0  0  0  0  0  0  0  0  0  0  0
  151.0021  144.3341  157.0903 H   0  0  0  0  0  0  0  0  0  0  0  0
  152.2406  145.0806  159.1723 H   0  0  0  0  0  0  0  0  0  0  0  0
  153.4023  143.4653  160.5404 H   0  0  0  0  0  0  0  0  0  0  0  0
  146.8505  135.8833  153.6320 H   0  0  0  0  0  0  0  0  0  0  0  0
  146.1176  136.9577  154.8209 H   0  0  0  0  0  0  0  0  0  0  0  0
  145.1710  136.6889  152.1741 H   0  0  0  0  0  0  0  0  0  0  0  0
  144.8104  138.0129  153.2777 H   0  0  0  0  0  0  0  0  0  0  0  0
  146.9425  137.9155  151.1412 H   0  0  0  0  0  0  0  0  0  0  0  0
  145.8624  139.2565  151.5308 H   0  0  0  0  0  0  0  0  0  0  0  0
  147.0664  139.7188  153.5840 H   0  0  0  0  0  0  0  0  0  0  0  0
  148.3771  139.3394  152.4578 H   0  0  0  0  0  0  0  0  0  0  0  0
  148.4912  137.2212  153.2487 H   0  0  0  0  0  0  0  0  0  0  0  0
  1  2  1  0  0  0  0
  1 20  1  0  0  0  0
  1 21  1  0  0  0  0
  1 22  1  0  0  0  0
  2  3  1  0  0  0  0
  2 15  1  0  0  0  0
  2 23  1  0  0  0  0
  3  4  1  0  0  0  0
  3 24  1  0  0  0  0
  3 25  1  0  0  0  0
  4  5  1  0  0  0  0
  4 26  1  0  0  0  0
  5  6  2  0  0  0  0
  5  7  1  0  0  0  0
  7  8  1  0  0  0  0
  7 27  1  0  0  0  0
  7 28  1  0  0  0  0
  8 13  1  0  0  0  0
  8  9  1  0  0  0  0
  9 10  2  0  0  0  0
  9 29  1  0  0  0  0
 10 11  1  0  0  0  0
 10 30  1  0  0  0  0
 11 12  2  0  0  0  0
 11 31  1  0  0  0  0
 12 13  1  0  0  0  0
 12 32  1  0  0  0  0
 13 14  2  0  0  0  0
 15 19  1  0  0  0  0
 15 16  1  0  0  0  0
 15 41  1  0  0  0  0
 16 17  1  0  0  0  0
 16 33  1  0  0  0  0
 16 34  1  0  0  0  0
 17 18  1  0  0  0  0
 17 35  1  0  0  0  0
 17 36  1  0  0  0  0
 18 19  1  0  0  0  0
 18 37  1  0  0  0  0
 18 38  1  0  0  0  0
 19 39  1  0  0  0  0
 19 40  1  0  0  0  0
M  CHG  1  15   1
M  END
> <s_m_source_file>
AV-unprocessed.smi

> <i_m_source_file_index>
1469

> <i_lp_mmshare_version>
43012

> <i_f3d_flags>
0

> <s_epik_input>
W0NIMl0xW0NIMl1bQ0gyXVtDSDJdTjFbQ0BIXShbQ0gzXSlbQ0gyXVtOSF1DKD1PKVtDSDJdbjJbY0hdW2NIXVtjSF1bY0hdYzI9Tw==

> <s_epik_cmdline>
J2VwaWtfcHl0aG9uJywgJy1waCcsICc3LjAnLCAnLXRuJywgJzgnLCAnLW1hJywgJzIwMCcsICctbWV0YWxfYmluZGluZycsICctaW1hZScsICc8aW5maWxlLm1hZT4nLCAnLW9tYWUnLCAnPG91dGZpbGUubWFlPic=

> <r_lp_tautomer_probability>
1

> <r_epik_Ionization_Penalty>
0.00497231

> <r_epik_Ionization_Penalty_Charging>
0.00497223

> <r_epik_Ionization_Penalty_Neutral>
8.2288e-08

> <r_epik_State_Penalty>
0.0036131

> <r_epik_Charging_Adjusted_Penalty>
0.00858533

> <i_epik_Tot_Q>
1

> <i_epik_Tot_abs_Q>
1

> <r_epik_Metal_State_Penalty>
-0

> <b_epik_Metal_Only>
0

> <s_lp_Force_Field>
OPLS_2005

> <r_lp_Energy>
39.8185

> <b_lp_Chiralities_Consistent>
1

> <s_lp_Variant>
AV-unprocessed.smi:1469-1

> <Gold.Version>
5.8.1

> <Gold.Id.Protein>
6NUR|6NUR_protein|mol2

> <Gold.PLP.Fitness>
41.2384

> <Gold.PLP.PLP>
-32.6500

> <Gold.PLP.part.hbond>
-2.2432

> <Gold.PLP.part.metal>
0.0000

> <Gold.PLP.part.buried>
-1.2286

> <Gold.PLP.part.nonpolar>
-29.6163

> <Gold.PLP.part.repulsive>
0.0371

> <Gold.PLP.ligand.clash>
0.0000

> <Gold.PLP.ligand.torsion>
0.2014

> <Gold.PLP.Chemscore.Hbond>
2.9855

> <Gold.PLP.Chemscore.CHOScore>
0.0000

> <Gold.PLP.Chemscore.Metal>
0.0000

> <Gold.Chemscore.Hbonds>
donor molecule, donor type, donor heavy atom, donor atom, acceptor molecule, acceptor atom, score
      L1  H    15    41       P1  7948  2.00
      P1  H  7989  7998       L1     6  0.63
      P1  H  7997  8008       L1     6  0.46

> <Gold.PLP.Chemscore.Internal.Correction>
0.0346

> <Gold.Rescore>
     Score         DG    S(hbond)    S(metal)    S(lipo)     H(rot)  DE(clash)    DE(int)     intcor
     14.70     -16.05       1.77        0.00      81.07       1.89       0.05       1.30       ----

> <Gold.Chemscore.Fitness>
14.6965

> <Gold.Chemscore.DG>
-16.0535

> <Gold.Chemscore.ZeroCoef>
-5.4800

> <Gold.Chemscore.Hbond>
1.7730

> <Gold.Chemscore.Metal>
0.0000

> <Gold.Chemscore.Lipo>
81.0714

> <Gold.Chemscore.Internal_Hbond>
0.0000

> <Gold.Chemscore.DEClash>
0.0520

> <Gold.Chemscore.DEInternal>
1.3050

> <Gold.Chemscore.Rot>
1.8882

> <Gold.Chemscore.Internal.Correction>
   9.000000E+99

> <Gold.Chemscore.Hbonds>
donor molecule, donor type, donor heavy atom, donor atom, acceptor molecule, acceptor atom, score
      L1  H    15    41       P1  7948  0.97
      P1  H  7989  7998       L1     6  0.59
      P1  H  7997  8008       L1     6  0.23

> <Gold.Chemscore.Hbond.Weighted>
-5.9219

> <Gold.Chemscore.Metal.Weighted>
-0.0000

> <Gold.Chemscore.Lipo.Weighted>
-9.4854

> <Gold.Chemscore.Internal_Hbond.Weighted>
0.0000

> <Gold.Chemscore.DEClash.Weighted>
0.0520

> <Gold.Chemscore.DEInternal.Weighted>
1.3050

> <Gold.Chemscore.Rot.Weighted>
4.8338

> <Gold.Chemscore.Internal.Correction.Weighted>
   9.000000E+99

> <Gold.Protein.RotatedTorsions>
[ 6907 6896 6895 6894 ] final   91.59 input  -60.11 | X-H torsion
[ 7974 7965 7964 7962 ] final  -22.95 input  175.53 | X-H torsion
[ 8008 7997 7996 7995 ] final  -24.33 input   59.86 | X-H torsion
[ 10167 10162 10161 10158 ] final  -93.75 input  -65.29 | X-H torsion
[ 10718 10713 10712 10709 ] final -116.09 input   66.30 | X-H torsion
[ 10763 10752 10751 10750 ] final   98.34 input  -60.55 | X-H torsion
[ 11005 11000 10999 10996 ] final   20.30 input  -57.11 | X-H torsion

> <Gold.Protein.ActiveResidues>
 VAL166  LYS551  ARG553  GLY616  TRP617  ASP618  TYR619  PRO620  LYS621  CYS622 
 ASP623  PHE694  ASN695  SER759  ASP760  ASP761  ALA762  ILE779  LEU786  VAL792 
 PHE793  MET794  SER795  GLU796  ALA797  LYS798  CYS799  TRP800  GLU811  SER814 

> <Gold.Protein.RotatedAtoms>
  152.5450  134.1632  159.8566 H   0  0  0  0  0  0  0  0  0  0  0  0  # atno 6907 bound_to 6896
  151.1649  133.4814  159.2601 H   0  0  0  0  0  0  0  0  0  0  0  0  # atno 6908 bound_to 6896
  151.1335  135.0153  159.8648 H   0  0  0  0  0  0  0  0  0  0  0  0  # atno 6909 bound_to 6896
  146.1645  140.4549  142.8557 H   0  0  0  0  0  0  0  0  0  0  0  0  # atno 7974 bound_to 7965
  154.4535  140.1956  156.0448 H   0  0  0  0  0  0  0  0  0  0  0  0  # atno 8008 bound_to 7997
  156.0698  140.3286  155.7534 H   0  0  0  0  0  0  0  0  0  0  0  0  # atno 8009 bound_to 7997
  155.5281  140.0575  157.2885 H   0  0  0  0  0  0  0  0  0  0  0  0  # atno 8010 bound_to 7997
  140.3214  143.3047  152.0042 H   0  0  0  0  0  0  0  0  0  0  0  0  # atno 10167 bound_to 10162
  156.0939  130.6116  150.8990 H   0  0  0  0  0  0  0  0  0  0  0  0  # atno 10718 bound_to 10713
  153.2879  135.4151  155.1140 H   0  0  0  0  0  0  0  0  0  0  0  0  # atno 10763 bound_to 10752
  154.8511  135.3511  154.6021 H   0  0  0  0  0  0  0  0  0  0  0  0  # atno 10764 bound_to 10752
  153.6443  135.7055  153.5288 H   0  0  0  0  0  0  0  0  0  0  0  0  # atno 10765 bound_to 10752
  140.4041  134.1687  155.7665 H   0  0  0  0  0  0  0  0  0  0  0  0  # atno 11005 bound_to 11000
  144.8073  140.6323  143.6438 LP  0  0  0  0  0  0  0  0  0  0  0  0  # atno 17320 bound_to 7965
  145.4502  139.1524  143.3922 LP  0  0  0  0  0  0  0  0  0  0  0  0  # atno 17321 bound_to 7965
  139.4873  144.6307  151.7075 LP  0  0  0  0  0  0  0  0  0  0  0  0  # atno 17342 bound_to 10162
  140.5480  144.0472  150.6115 LP  0  0  0  0  0  0  0  0  0  0  0  0  # atno 17343 bound_to 10162
  157.6096  131.0937  150.8819 LP  0  0  0  0  0  0  0  0  0  0  0  0  # atno 17370 bound_to 10713
  156.8961  130.5230  149.5284 LP  0  0  0  0  0  0  0  0  0  0  0  0  # atno 17371 bound_to 10713
  141.1846  133.8341  157.1135 LP  0  0  0  0  0  0  0  0  0  0  0  0  # atno 17394 bound_to 11000
  140.0315  134.9899  157.0789 LP  0  0  0  0  0  0  0  0  0  0  0  0  # atno 17395 bound_to 11000

$$$$
