AV-unprocessed.smi:1695|AV-procd|sdf|6797|dock2
  -GOLD-   22720 7563D 1   1.00000     0.00000
 Structure written by MMmdl.
 50 52  0  0  0  0  0  0  0  0  1 V2000
  153.0427  143.0282  161.5019 C   0  0  0  0  0  0  0  0  0  0  0  0
  152.4276  142.6238  160.1738 C   0  0  0  0  0  0  0  0  0  0  0  0
  152.9365  141.4925  159.4972 C   0  0  0  0  0  0  0  0  0  0  0  0
  152.3948  141.0848  158.2585 C   0  0  0  0  0  0  0  0  0  0  0  0
  152.7340  140.0257  157.4340 N   0  0  0  0  0  0  0  0  0  0  0  0
  151.8707  140.1783  156.4338 C   0  0  0  0  0  0  0  0  0  0  0  0
  151.0111  141.2123  156.5135 N   0  0  0  0  0  0  0  0  0  0  0  0
  149.9873  141.5790  155.5513 C   0  0  0  0  0  0  0  0  0  0  0  0
  149.6573  140.4349  154.5722 C   0  0  2  0  0  0  0  0  0  0  0  0
  149.4939  140.9839  153.2781 O   0  0  0  0  0  0  0  0  0  0  0  0
  148.3633  139.6947  154.9724 C   0  0  0  0  0  0  0  0  0  0  0  0
  147.9072  138.6706  154.0310 N   0  0  0  0  0  0  0  0  0  0  0  0
  147.0519  139.2204  152.9758 C   0  0  0  0  0  0  0  0  0  0  0  0
  146.6062  138.1555  151.9589 C   0  0  0  0  0  0  0  0  0  0  0  0
  145.8735  136.9975  152.6658 C   0  0  0  0  0  0  0  0  0  0  0  0
  145.5024  135.8831  151.6782 C   0  0  0  0  0  0  0  0  0  0  0  0
  144.6759  136.2055  150.6801 N   0  0  0  0  0  0  0  0  0  0  0  0
  145.9528  134.7468  151.8116 O   0  0  0  0  0  0  0  0  0  0  0  0
  146.7645  136.4607  153.8031 C   0  0  0  0  0  0  0  0  0  0  0  0
  147.1951  137.6043  154.7363 C   0  0  0  0  0  0  0  0  0  0  0  0
  151.3208  141.8459  157.7113 C   0  0  0  0  0  0  0  0  0  0  0  0
  150.8041  142.9720  158.3759 C   0  0  0  0  0  0  0  0  0  0  0  0
  151.3567  143.3652  159.6126 C   0  0  0  0  0  0  0  0  0  0  0  0
  150.7923  144.5835  160.3216 C   0  0  0  0  0  0  0  0  0  0  0  0
  153.8907  142.3926  161.7581 H   0  0  0  0  0  0  0  0  0  0  0  0
  152.3079  142.9456  162.3028 H   0  0  0  0  0  0  0  0  0  0  0  0
  153.3985  144.0578  161.4623 H   0  0  0  0  0  0  0  0  0  0  0  0
  153.7507  140.9263  159.9249 H   0  0  0  0  0  0  0  0  0  0  0  0
  151.8597  139.4977  155.5949 H   0  0  0  0  0  0  0  0  0  0  0  0
  149.0941  141.8701  156.1054 H   0  0  0  0  0  0  0  0  0  0  0  0
  150.3195  142.4645  155.0070 H   0  0  0  0  0  0  0  0  0  0  0  0
  150.4948  139.7356  154.5556 H   0  0  0  0  0  0  0  0  0  0  0  0
  149.5850  140.2878  152.6455 H   0  0  0  0  0  0  0  0  0  0  0  0
  148.5582  139.1980  155.9238 H   0  0  0  0  0  0  0  0  0  0  0  0
  147.5635  140.4073  155.1809 H   0  0  0  0  0  0  0  0  0  0  0  0
  146.1737  139.6930  153.4187 H   0  0  0  0  0  0  0  0  0  0  0  0
  147.5837  140.0010  152.4328 H   0  0  0  0  0  0  0  0  0  0  0  0
  145.9570  138.6119  151.2108 H   0  0  0  0  0  0  0  0  0  0  0  0
  147.4820  137.7835  151.4242 H   0  0  0  0  0  0  0  0  0  0  0  0
  144.9566  137.3928  153.1072 H   0  0  0  0  0  0  0  0  0  0  0  0
  144.4043  135.5073  150.0032 H   0  0  0  0  0  0  0  0  0  0  0  0
  144.3270  137.1501  150.6053 H   0  0  0  0  0  0  0  0  0  0  0  0
  146.2303  135.7015  154.3754 H   0  0  0  0  0  0  0  0  0  0  0  0
  147.6531  135.9755  153.3955 H   0  0  0  0  0  0  0  0  0  0  0  0
  147.8329  137.1925  155.5195 H   0  0  0  0  0  0  0  0  0  0  0  0
  146.3172  138.0144  155.2385 H   0  0  0  0  0  0  0  0  0  0  0  0
  149.9887  143.5271  157.9360 H   0  0  0  0  0  0  0  0  0  0  0  0
  149.9303  144.9885  159.7907 H   0  0  0  0  0  0  0  0  0  0  0  0
  151.5461  145.3683  160.3866 H   0  0  0  0  0  0  0  0  0  0  0  0
  150.4706  144.3263  161.3311 H   0  0  0  0  0  0  0  0  0  0  0  0
  1  2  1  0  0  0  0
  1 25  1  0  0  0  0
  1 26  1  0  0  0  0
  1 27  1  0  0  0  0
  2 23  1  0  0  0  0
  2  3  2  0  0  0  0
  3  4  1  0  0  0  0
  3 28  1  0  0  0  0
  4 21  2  0  0  0  0
  4  5  1  0  0  0  0
  5  6  2  0  0  0  0
  6  7  1  0  0  0  0
  6 29  1  0  0  0  0
  7  8  1  0  0  0  0
  7 21  1  0  0  0  0
  8  9  1  0  0  0  0
  8 30  1  0  0  0  0
  8 31  1  0  0  0  0
  9 10  1  0  0  0  0
  9 11  1  0  0  0  0
  9 32  1  0  0  0  0
 10 33  1  0  0  0  0
 11 12  1  0  0  0  0
 11 34  1  0  0  0  0
 11 35  1  0  0  0  0
 12 20  1  0  0  0  0
 12 13  1  0  0  0  0
 13 14  1  0  0  0  0
 13 36  1  0  0  0  0
 13 37  1  0  0  0  0
 14 15  1  0  0  0  0
 14 38  1  0  0  0  0
 14 39  1  0  0  0  0
 15 16  1  0  0  0  0
 15 19  1  0  0  0  0
 15 40  1  0  0  0  0
 16 17  1  0  0  0  0
 16 18  2  0  0  0  0
 17 41  1  0  0  0  0
 17 42  1  0  0  0  0
 19 20  1  0  0  0  0
 19 43  1  0  0  0  0
 19 44  1  0  0  0  0
 20 45  1  0  0  0  0
 20 46  1  0  0  0  0
 21 22  1  0  0  0  0
 22 23  2  0  0  0  0
 22 47  1  0  0  0  0
 23 24  1  0  0  0  0
 24 48  1  0  0  0  0
 24 49  1  0  0  0  0
 24 50  1  0  0  0  0
M  END
> <s_m_source_file>
AV-unprocessed.smi

> <i_m_source_file_index>
1695

> <i_lp_mmshare_version>
43012

> <i_f3d_flags>
0

> <s_epik_input>
W0NIM11jKFtjSF0xKWMoW0NIM10pW2NIXWMoYzEyKW4oW2NIXW4yKVtDSDJdW0NASF0oW09IXSlbQ0gyXU4zW0NIMl1bQ0gyXVtDSF0oQyg9TylbTkgyXSlbQ0gyXVtDSDJdMw==

> <s_epik_cmdline>
J2VwaWtfcHl0aG9uJywgJy1waCcsICc3LjAnLCAnLXRuJywgJzgnLCAnLW1hJywgJzIwMCcsICctbWV0YWxfYmluZGluZycsICctaW1hZScsICc8aW5maWxlLm1hZT4nLCAnLW9tYWUnLCAnPG91dGZpbGUubWFlPic=

> <r_epik_Ionization_Penalty>
1.9508

> <r_epik_Ionization_Penalty_Charging>
0

> <r_epik_Ionization_Penalty_Neutral>
1.9508

> <r_epik_State_Penalty>
2.03746

> <r_epik_Charging_Adjusted_Penalty>
2.03746

> <i_epik_Tot_Q>
0

> <i_epik_Tot_abs_Q>
0

> <r_epik_Metal_State_Penalty>
2.03012

> <b_epik_Metal_Only>
0

> <s_lp_Force_Field>
OPLS_2005

> <r_lp_Energy>
30.2081

> <b_lp_Chiralities_Consistent>
1

> <s_lp_Variant>
AV-unprocessed.smi:1695-9

> <Gold.Version>
5.8.1

> <Gold.Id.Protein>
6NUR|6NUR_protein|mol2

> <Gold.PLP.Fitness>
55.4216

> <Gold.PLP.PLP>
-46.3641

> <Gold.PLP.part.hbond>
-4.0800

> <Gold.PLP.part.metal>
0.0000

> <Gold.PLP.part.buried>
-5.1700

> <Gold.PLP.part.nonpolar>
-37.8108

> <Gold.PLP.part.repulsive>
0.3453

> <Gold.PLP.ligand.clash>
0.0000

> <Gold.PLP.ligand.torsion>
1.1780

> <Gold.PLP.Chemscore.Hbond>
3.7613

> <Gold.PLP.Chemscore.CHOScore>
0.0000

> <Gold.PLP.Chemscore.Metal>
0.0000

> <Gold.Chemscore.Hbonds>
donor molecule, donor type, donor heavy atom, donor atom, acceptor molecule, acceptor atom, score
      L1  H    10    33       P1  7957  0.76
      L1  H    17    42       P1 10171  1.00
      P1  H  7997  8010       L1     5  1.00
      P1  H  8011  8017       L1    10  1.00

> <Gold.PLP.Chemscore.Internal.Correction>
0.1296

> <Gold.Rescore>
     Score         DG    S(hbond)    S(metal)    S(lipo)     H(rot)  DE(clash)    DE(int)     intcor
     19.97     -22.30       3.07        0.00     116.97       2.78       0.09       2.23       ----

> <Gold.Chemscore.Fitness>
19.9749

> <Gold.Chemscore.DG>
-22.2981

> <Gold.Chemscore.ZeroCoef>
-5.4800

> <Gold.Chemscore.Hbond>
3.0726

> <Gold.Chemscore.Metal>
0.0000

> <Gold.Chemscore.Lipo>
116.9663

> <Gold.Chemscore.Internal_Hbond>
0.0000

> <Gold.Chemscore.DEClash>
0.0943

> <Gold.Chemscore.DEInternal>
2.2289

> <Gold.Chemscore.Rot>
2.7849

> <Gold.Chemscore.Internal.Correction>
   9.000000E+99

> <Gold.Chemscore.Hbonds>
donor molecule, donor type, donor heavy atom, donor atom, acceptor molecule, acceptor atom, score
      L1  H    10    33       P1  7957  0.72
      L1  H    17    42       P1 10171  0.98
      P1  H  7997  8010       L1     5  0.62
      P1  H  8011  8017       L1    10  0.39

> <Gold.Chemscore.Hbond.Weighted>
-10.2625

> <Gold.Chemscore.Metal.Weighted>
-0.0000

> <Gold.Chemscore.Lipo.Weighted>
-13.6851

> <Gold.Chemscore.Internal_Hbond.Weighted>
0.0000

> <Gold.Chemscore.DEClash.Weighted>
0.0943

> <Gold.Chemscore.DEInternal.Weighted>
2.2289

> <Gold.Chemscore.Rot.Weighted>
7.1294

> <Gold.Chemscore.Internal.Correction.Weighted>
   9.000000E+99

> <Gold.Protein.RotatedTorsions>
[ 6907 6896 6895 6894 ] final -145.26 input  -60.11 | X-H torsion
[ 7974 7965 7964 7962 ] final   69.61 input  175.53 | X-H torsion
[ 8008 7997 7996 7995 ] final   51.05 input   59.86 | X-H torsion
[ 10167 10162 10161 10158 ] final  150.09 input  -65.29 | X-H torsion
[ 10718 10713 10712 10709 ] final  -34.51 input   66.30 | X-H torsion
[ 10763 10752 10751 10750 ] final  -67.32 input  -60.55 | X-H torsion
[ 11005 11000 10999 10996 ] final  107.35 input  -57.11 | X-H torsion

> <Gold.Protein.ActiveResidues>
 VAL166  LYS551  ARG553  GLY616  TRP617  ASP618  TYR619  PRO620  LYS621  CYS622 
 ASP623  PHE694  ASN695  SER759  ASP760  ASP761  ALA762  ILE779  LEU786  VAL792 
 PHE793  MET794  SER795  GLU796  ALA797  LYS798  CYS799  TRP800  GLU811  SER814 

> <Gold.Protein.RotatedAtoms>
  151.1254  133.5075  159.2600 H   0  0  0  0  0  0  0  0  0  0  0  0  # atno 6907 bound_to 6896
  151.1816  135.0363  159.8805 H   0  0  0  0  0  0  0  0  0  0  0  0  # atno 6908 bound_to 6896
  152.5457  134.1105  159.8410 H   0  0  0  0  0  0  0  0  0  0  0  0  # atno 6909 bound_to 6896
  145.7883  139.2921  143.1225 H   0  0  0  0  0  0  0  0  0  0  0  0  # atno 7974 bound_to 7965
  155.4289  140.3449  155.4278 H   0  0  0  0  0  0  0  0  0  0  0  0  # atno 8008 bound_to 7997
  156.1348  140.1525  156.9041 H   0  0  0  0  0  0  0  0  0  0  0  0  # atno 8009 bound_to 7997
  154.4923  140.0837  156.7602 H   0  0  0  0  0  0  0  0  0  0  0  0  # atno 8010 bound_to 7997
  139.4854  144.5550  151.7334 H   0  0  0  0  0  0  0  0  0  0  0  0  # atno 10167 bound_to 10162
  156.3497  130.4306  149.7715 H   0  0  0  0  0  0  0  0  0  0  0  0  # atno 10718 bound_to 10713
  154.3728  135.6091  153.5749 H   0  0  0  0  0  0  0  0  0  0  0  0  # atno 10763 bound_to 10752
  152.9790  135.5842  154.4502 H   0  0  0  0  0  0  0  0  0  0  0  0  # atno 10764 bound_to 10752
  154.4258  135.2847  155.1923 H   0  0  0  0  0  0  0  0  0  0  0  0  # atno 10765 bound_to 10752
  139.8827  134.9398  156.5806 H   0  0  0  0  0  0  0  0  0  0  0  0  # atno 11005 bound_to 11000
  146.0003  140.8526  143.0022 LP  0  0  0  0  0  0  0  0  0  0  0  0  # atno 17320 bound_to 7965
  144.6785  140.2343  143.7351 LP  0  0  0  0  0  0  0  0  0  0  0  0  # atno 17321 bound_to 7965
  140.5110  144.1025  150.5995 LP  0  0  0  0  0  0  0  0  0  0  0  0  # atno 17342 bound_to 10162
  140.3951  143.2732  152.0015 LP  0  0  0  0  0  0  0  0  0  0  0  0  # atno 17343 bound_to 10162
  156.4920  130.8089  151.3098 LP  0  0  0  0  0  0  0  0  0  0  0  0  # atno 17370 bound_to 10713
  157.7459  130.9972  150.2808 LP  0  0  0  0  0  0  0  0  0  0  0  0  # atno 17371 bound_to 10713
  140.8030  133.8490  155.8743 LP  0  0  0  0  0  0  0  0  0  0  0  0  # atno 17394 bound_to 11000
  140.9576  134.1698  157.4680 LP  0  0  0  0  0  0  0  0  0  0  0  0  # atno 17395 bound_to 11000

$$$$
