AV-unprocessed.smi:3348|AV-procd|sdf|12922|dock2
  -GOLD-   2272019343D 1   1.00000     0.00000
 Structure written by MMmdl.
 47 48  0  0  0  0  0  0  0  0  2 V2000
  145.4244  136.1072  151.7630 C   0  0  0  0  0  0  0  0  0  0  0  0
  145.7277  134.8924  152.6555 C   0  0  1  0  0  0  0  0  0  0  0  0
  144.7462  133.7398  152.3577 C   0  0  0  0  0  0  0  0  0  0  0  0
  144.9429  133.1435  151.0461 N   0  0  0  0  0  0  0  0  0  0  0  0
  144.0766  133.1344  149.9728 C   0  0  0  0  0  0  0  0  0  0  0  0
  144.6812  132.4368  148.9668 C   0  0  0  0  0  0  0  0  0  0  0  0
  145.9258  132.0403  149.5306 C   0  0  0  0  0  0  0  0  0  0  0  0
  146.0769  132.4604  150.7763 N   0  0  0  0  0  0  0  0  0  0  0  0
  147.1233  134.4327  152.4718 N   0  3  0  0  0  0  0  0  0  0  0  0
  147.6176  133.4867  153.4936 C   0  0  0  0  0  0  0  0  0  0  0  0
  147.8365  132.0971  152.8883 C   0  0  0  0  0  0  0  0  0  0  0  0
  147.3880  131.1250  153.8209 O   0  0  0  0  0  0  0  0  0  0  0  0
  147.4251  129.7855  153.3435 C   0  0  1  0  0  0  0  0  0  0  0  0
  146.5200  129.6522  152.1000 C   0  0  0  0  0  0  0  0  0  0  0  0
  146.6332  128.2580  151.4662 C   0  0  0  0  0  0  0  0  0  0  0  0
  148.0907  127.9280  151.1172 C   0  0  0  0  0  0  0  0  0  0  0  0
  148.9938  128.0501  152.3535 C   0  0  0  0  0  0  0  0  0  0  0  0
  148.8933  129.4462  153.0002 C   0  0  2  0  0  0  0  0  0  0  0  0
  149.8026  129.5365  154.2367 C   0  0  0  0  0  0  0  0  0  0  0  0
  144.3892  136.4286  151.8820 H   0  0  0  0  0  0  0  0  0  0  0  0
  145.5786  135.8741  150.7089 H   0  0  0  0  0  0  0  0  0  0  0  0
  146.0543  136.9610  152.0114 H   0  0  0  0  0  0  0  0  0  0  0  0
  145.5977  135.1928  153.6963 H   0  0  0  0  0  0  0  0  0  0  0  0
  144.8543  132.9505  153.1028 H   0  0  0  0  0  0  0  0  0  0  0  0
  143.7162  134.0934  152.4262 H   0  0  0  0  0  0  0  0  0  0  0  0
  143.1126  133.6201  150.0122 H   0  0  0  0  0  0  0  0  0  0  0  0
  144.2910  132.2340  147.9804 H   0  0  0  0  0  0  0  0  0  0  0  0
  146.7166  131.4615  149.0765 H   0  0  0  0  0  0  0  0  0  0  0  0
  147.1705  133.9596  151.5804 H   0  0  0  0  0  0  0  0  0  0  0  0
  148.5458  133.8487  153.9354 H   0  0  0  0  0  0  0  0  0  0  0  0
  146.8823  133.4197  154.2964 H   0  0  0  0  0  0  0  0  0  0  0  0
  147.2622  132.0087  151.9650 H   0  0  0  0  0  0  0  0  0  0  0  0
  148.8874  131.9554  152.6354 H   0  0  0  0  0  0  0  0  0  0  0  0
  147.0852  129.0983  154.1208 H   0  0  0  0  0  0  0  0  0  0  0  0
  145.4786  129.8416  152.3586 H   0  0  0  0  0  0  0  0  0  0  0  0
  146.7969  130.4075  151.3637 H   0  0  0  0  0  0  0  0  0  0  0  0
  146.2430  127.5091  152.1567 H   0  0  0  0  0  0  0  0  0  0  0  0
  146.0149  128.2049  150.5696 H   0  0  0  0  0  0  0  0  0  0  0  0
  148.1561  126.9198  150.7072 H   0  0  0  0  0  0  0  0  0  0  0  0
  148.4436  128.6033  150.3367 H   0  0  0  0  0  0  0  0  0  0  0  0
  148.7157  127.2862  153.0809 H   0  0  0  0  0  0  0  0  0  0  0  0
  150.0263  127.8434  152.0699 H   0  0  0  0  0  0  0  0  0  0  0  0
  149.2501  130.1768  152.2725 H   0  0  0  0  0  0  0  0  0  0  0  0
  149.4791  128.8481  155.0180 H   0  0  0  0  0  0  0  0  0  0  0  0
  149.8024  130.5418  154.6585 H   0  0  0  0  0  0  0  0  0  0  0  0
  150.8342  129.2905  153.9837 H   0  0  0  0  0  0  0  0  0  0  0  0
  147.7343  135.2365  152.4397 H   0  0  0  0  0  0  0  0  0  0  0  0
  1  2  1  0  0  0  0
  1 20  1  0  0  0  0
  1 21  1  0  0  0  0
  1 22  1  0  0  0  0
  2  3  1  0  0  0  0
  2  9  1  0  0  0  0
  2 23  1  0  0  0  0
  3  4  1  0  0  0  0
  3 24  1  0  0  0  0
  3 25  1  0  0  0  0
  4  8  1  0  0  0  0
  4  5  1  0  0  0  0
  5  6  2  0  0  0  0
  5 26  1  0  0  0  0
  6  7  1  0  0  0  0
  6 27  1  0  0  0  0
  7  8  2  0  0  0  0
  7 28  1  0  0  0  0
  9 10  1  0  0  0  0
  9 29  1  0  0  0  0
  9 47  1  0  0  0  0
 10 11  1  0  0  0  0
 10 30  1  0  0  0  0
 10 31  1  0  0  0  0
 11 12  1  0  0  0  0
 11 32  1  0  0  0  0
 11 33  1  0  0  0  0
 12 13  1  0  0  0  0
 13 18  1  0  0  0  0
 13 14  1  0  0  0  0
 13 34  1  0  0  0  0
 14 15  1  0  0  0  0
 14 35  1  0  0  0  0
 14 36  1  0  0  0  0
 15 16  1  0  0  0  0
 15 37  1  0  0  0  0
 15 38  1  0  0  0  0
 16 17  1  0  0  0  0
 16 39  1  0  0  0  0
 16 40  1  0  0  0  0
 17 18  1  0  0  0  0
 17 41  1  0  0  0  0
 17 42  1  0  0  0  0
 18 19  1  0  0  0  0
 18 43  1  0  0  0  0
 19 44  1  0  0  0  0
 19 45  1  0  0  0  0
 19 46  1  0  0  0  0
M  CHG  1   9   1
M  END
> <s_m_source_file>
AV-unprocessed.smi

> <i_m_source_file_index>
3348

> <i_lp_mmshare_version>
43012

> <i_f3d_flags>
0

> <s_epik_input>
bjFbY0hdW2NIXVtjSF1uMVtDSDJdW0NAQEhdKFtDSDNdKVtOSF1bQ0gyXVtDSDJdT1tDQEBIXTJbQ0gyXVtDSDJdW0NIMl1bQ0gyXVtDQEhdMltDSDNd

> <s_epik_cmdline>
J2VwaWtfcHl0aG9uJywgJy1waCcsICc3LjAnLCAnLXRuJywgJzgnLCAnLW1hJywgJzIwMCcsICctbWV0YWxfYmluZGluZycsICctaW1hZScsICc8aW5maWxlLm1hZT4nLCAnLW9tYWUnLCAnPG91dGZpbGUubWFlPic=

> <r_lp_tautomer_probability>
1

> <r_epik_Ionization_Penalty>
0.00925088

> <r_epik_Ionization_Penalty_Charging>
0.00924645

> <r_epik_Ionization_Penalty_Neutral>
4.42413e-06

> <r_epik_State_Penalty>
0.0070118

> <r_epik_Charging_Adjusted_Penalty>
0.0162583

> <i_epik_Tot_Q>
1

> <i_epik_Tot_abs_Q>
1

> <r_epik_Metal_State_Penalty>
0.00701222

> <b_epik_Metal_Only>
0

> <s_lp_Force_Field>
OPLS_2005

> <r_lp_Energy>
15.644

> <b_lp_Chiralities_Consistent>
1

> <s_lp_Variant>
AV-unprocessed.smi:3348-8

> <Gold.Version>
5.8.1

> <Gold.Id.Protein>
6NUR|6NUR_protein|mol2

> <Gold.PLP.Fitness>
49.4646

> <Gold.PLP.PLP>
-38.9482

> <Gold.PLP.part.hbond>
-1.0000

> <Gold.PLP.part.metal>
0.0000

> <Gold.PLP.part.buried>
-3.4803

> <Gold.PLP.part.nonpolar>
-33.9438

> <Gold.PLP.part.repulsive>
0.2495

> <Gold.PLP.ligand.clash>
0.0000

> <Gold.PLP.ligand.torsion>
0.7839

> <Gold.PLP.Chemscore.Hbond>
2.0000

> <Gold.PLP.Chemscore.CHOScore>
1.9540

> <Gold.PLP.Chemscore.Metal>
0.0000

> <Gold.Chemscore.Hbonds>
donor molecule, donor type, donor heavy atom, donor atom, acceptor molecule, acceptor atom, score
      L1  H     9    47       P1  7948  2.00
      L1  C     5    26       P1 10186  1.00
      L1  C     7    28       P1 10747  0.76

> <Gold.PLP.Chemscore.Internal.Correction>
0.2224

> <Gold.Rescore>
     Score         DG    S(hbond)    S(metal)    S(lipo)     H(rot)  DE(clash)    DE(int)     intcor
     15.39     -16.20       0.97        0.00     103.77       1.82       0.08       0.74       ----

> <Gold.Chemscore.Fitness>
15.3874

> <Gold.Chemscore.DG>
-16.2040

> <Gold.Chemscore.ZeroCoef>
-5.4800

> <Gold.Chemscore.Hbond>
0.9678

> <Gold.Chemscore.Metal>
0.0000

> <Gold.Chemscore.Lipo>
103.7724

> <Gold.Chemscore.Internal_Hbond>
0.0000

> <Gold.Chemscore.DEClash>
0.0768

> <Gold.Chemscore.DEInternal>
0.7398

> <Gold.Chemscore.Rot>
1.8163

> <Gold.Chemscore.Internal.Correction>
   9.000000E+99

> <Gold.Chemscore.Hbonds>
donor molecule, donor type, donor heavy atom, donor atom, acceptor molecule, acceptor atom, score
      L1  H     9    47       P1  7948  0.97

> <Gold.Chemscore.Hbond.Weighted>
-3.2323

> <Gold.Chemscore.Metal.Weighted>
-0.0000

> <Gold.Chemscore.Lipo.Weighted>
-12.1414

> <Gold.Chemscore.Internal_Hbond.Weighted>
0.0000

> <Gold.Chemscore.DEClash.Weighted>
0.0768

> <Gold.Chemscore.DEInternal.Weighted>
0.7398

> <Gold.Chemscore.Rot.Weighted>
4.6497

> <Gold.Chemscore.Internal.Correction.Weighted>
   9.000000E+99

> <Gold.Protein.RotatedTorsions>
[ 6907 6896 6895 6894 ] final  -28.68 input  -60.11 | X-H torsion
[ 7974 7965 7964 7962 ] final   18.29 input  175.53 | X-H torsion
[ 8008 7997 7996 7995 ] final -156.54 input   59.86 | X-H torsion
[ 10167 10162 10161 10158 ] final  -14.93 input  -65.29 | X-H torsion
[ 10718 10713 10712 10709 ] final   91.26 input   66.30 | X-H torsion
[ 10763 10752 10751 10750 ] final  166.94 input  -60.55 | X-H torsion
[ 11005 11000 10999 10996 ] final -176.32 input  -57.11 | X-H torsion

> <Gold.Protein.ActiveResidues>
 VAL166  LYS551  ARG553  GLY616  TRP617  ASP618  TYR619  PRO620  LYS621  CYS622 
 ASP623  PHE694  ASN695  SER759  ASP760  ASP761  ALA762  ILE779  LEU786  VAL792 
 PHE793  MET794  SER795  GLU796  ALA797  LYS798  CYS799  TRP800  GLU811  SER814 

> <Gold.Protein.RotatedAtoms>
  151.1296  135.0123  159.8575 H   0  0  0  0  0  0  0  0  0  0  0  0  # atno 6907 bound_to 6896
  152.5450  134.1626  159.8574 H   0  0  0  0  0  0  0  0  0  0  0  0  # atno 6908 bound_to 6896
  151.1692  133.4750  159.2627 H   0  0  0  0  0  0  0  0  0  0  0  0  # atno 6909 bound_to 6896
  146.2190  139.8478  142.8628 H   0  0  0  0  0  0  0  0  0  0  0  0  # atno 7974 bound_to 7965
  155.7188  140.0787  157.2340 H   0  0  0  0  0  0  0  0  0  0  0  0  # atno 8008 bound_to 7997
  154.4048  140.1616  156.2432 H   0  0  0  0  0  0  0  0  0  0  0  0  # atno 8009 bound_to 7997
  155.9216  140.3397  155.6180 H   0  0  0  0  0  0  0  0  0  0  0  0  # atno 8010 bound_to 7997
  140.7210  143.5270  150.9565 H   0  0  0  0  0  0  0  0  0  0  0  0  # atno 10167 bound_to 10162
  157.6960  131.0401  150.3702 H   0  0  0  0  0  0  0  0  0  0  0  0  # atno 10718 bound_to 10713
  154.3465  135.2753  155.2395 H   0  0  0  0  0  0  0  0  0  0  0  0  # atno 10763 bound_to 10752
  154.4643  135.5899  153.6280 H   0  0  0  0  0  0  0  0  0  0  0  0  # atno 10764 bound_to 10752
  152.9853  135.6072  154.3671 H   0  0  0  0  0  0  0  0  0  0  0  0  # atno 10765 bound_to 10752
  140.4535  134.6321  157.4811 H   0  0  0  0  0  0  0  0  0  0  0  0  # atno 11005 bound_to 11000
  145.2832  141.0145  143.3705 LP  0  0  0  0  0  0  0  0  0  0  0  0  # atno 17320 bound_to 7965
  144.9134  139.4501  143.6576 LP  0  0  0  0  0  0  0  0  0  0  0  0  # atno 17321 bound_to 7965
  139.8989  143.6860  152.3134 LP  0  0  0  0  0  0  0  0  0  0  0  0  # atno 17342 bound_to 10162
  139.7203  144.7604  151.0967 LP  0  0  0  0  0  0  0  0  0  0  0  0  # atno 17343 bound_to 10162
  156.4128  130.3937  149.6880 LP  0  0  0  0  0  0  0  0  0  0  0  0  # atno 17370 bound_to 10713
  156.4158  130.7744  151.2759 LP  0  0  0  0  0  0  0  0  0  0  0  0  # atno 17371 bound_to 10713
  139.9991  134.6864  155.9559 LP  0  0  0  0  0  0  0  0  0  0  0  0  # atno 17394 bound_to 11000
  141.1653  133.6537  156.4460 LP  0  0  0  0  0  0  0  0  0  0  0  0  # atno 17395 bound_to 11000

$$$$
