AV-unprocessed.smi:2075|AV-procd|sdf|8456|dock1
  -GOLD-   2272011153D 1   1.00000     0.00000
 Structure written by MMmdl.
 37 38  0  0  0  0  0  0  0  0  1 V2000
  146.9089  137.5403  160.0953 O   0  0  0  0  0  0  0  0  0  0  0  0
  147.6425  136.5923  159.8141 C   0  0  0  0  0  0  0  0  0  0  0  0
  147.8791  135.4541  160.8145 C   0  0  0  0  0  0  0  0  0  0  0  0
  147.0122  135.5260  162.0879 C   0  0  0  0  0  0  0  0  0  0  0  0
  147.0513  134.3476  162.7090 F   0  0  0  0  0  0  0  0  0  0  0  0
  147.4656  136.4608  162.9243 F   0  0  0  0  0  0  0  0  0  0  0  0
  145.7447  135.8022  161.7777 F   0  0  0  0  0  0  0  0  0  0  0  0
  148.2768  136.4823  158.6362 N   0  0  0  0  0  0  0  0  0  0  0  0
  148.1777  137.4427  157.5415 C   0  0  0  0  0  0  0  0  0  0  0  0
  148.9939  138.7109  157.7475 C   0  0  0  0  0  0  0  0  0  0  0  0
  148.5774  139.9262  157.1714 C   0  0  0  0  0  0  0  0  0  0  0  0
  149.3490  141.0854  157.3797 C   0  0  0  0  0  0  0  0  0  0  0  0
  150.5267  141.0028  158.1664 C   0  0  0  0  0  0  0  0  0  0  0  0
  151.3452  142.1283  158.4194 N   0  0  0  0  0  0  0  0  0  0  0  0
  151.8286  142.3519  159.7799 C   0  0  0  0  0  0  0  0  0  0  0  0
  152.9468  143.4080  159.7936 C   0  0  0  0  0  0  0  0  0  0  0  0
  152.4933  144.5989  159.1613 O   0  0  0  0  0  0  0  0  0  0  0  0
  152.1633  144.3732  157.7958 C   0  0  0  0  0  0  0  0  0  0  0  0
  151.0128  143.3570  157.6977 C   0  0  0  0  0  0  0  0  0  0  0  0
  150.9150  139.8308  158.7258 N   0  0  0  0  0  0  0  0  0  0  0  0
  150.1720  138.7232  158.5228 C   0  0  0  0  0  0  0  0  0  0  0  0
  147.6900  134.5053  160.3098 H   0  0  0  0  0  0  0  0  0  0  0  0
  148.9348  135.4529  161.0883 H   0  0  0  0  0  0  0  0  0  0  0  0
  148.8645  135.6753  158.4845 H   0  0  0  0  0  0  0  0  0  0  0  0
  148.4667  136.9620  156.6051 H   0  0  0  0  0  0  0  0  0  0  0  0
  147.1309  137.7258  157.4320 H   0  0  0  0  0  0  0  0  0  0  0  0
  147.6801  139.9730  156.5719 H   0  0  0  0  0  0  0  0  0  0  0  0
  149.0240  142.0071  156.9222 H   0  0  0  0  0  0  0  0  0  0  0  0
  150.9978  142.6757  160.4082 H   0  0  0  0  0  0  0  0  0  0  0  0
  152.2223  141.4263  160.2008 H   0  0  0  0  0  0  0  0  0  0  0  0
  153.2327  143.6373  160.8200 H   0  0  0  0  0  0  0  0  0  0  0  0
  153.8405  143.0340  159.2912 H   0  0  0  0  0  0  0  0  0  0  0  0
  151.8665  145.3187  157.3416 H   0  0  0  0  0  0  0  0  0  0  0  0
  153.0404  144.0208  157.2505 H   0  0  0  0  0  0  0  0  0  0  0  0
  150.8101  143.1657  156.6441 H   0  0  0  0  0  0  0  0  0  0  0  0
  150.1032  143.7797  158.1262 H   0  0  0  0  0  0  0  0  0  0  0  0
  150.5331  137.8230  158.9979 H   0  0  0  0  0  0  0  0  0  0  0  0
  1  2  2  0  0  0  0
  2  3  1  0  0  0  0
  2  8  1  0  0  0  0
  3  4  1  0  0  0  0
  3 22  1  0  0  0  0
  3 23  1  0  0  0  0
  4  5  1  0  0  0  0
  4  6  1  0  0  0  0
  4  7  1  0  0  0  0
  8  9  1  0  0  0  0
  8 24  1  0  0  0  0
  9 10  1  0  0  0  0
  9 25  1  0  0  0  0
  9 26  1  0  0  0  0
 10 21  1  0  0  0  0
 10 11  2  0  0  0  0
 11 12  1  0  0  0  0
 11 27  1  0  0  0  0
 12 13  2  0  0  0  0
 12 28  1  0  0  0  0
 13 14  1  0  0  0  0
 13 20  1  0  0  0  0
 14 19  1  0  0  0  0
 14 15  1  0  0  0  0
 15 16  1  0  0  0  0
 15 29  1  0  0  0  0
 15 30  1  0  0  0  0
 16 17  1  0  0  0  0
 16 31  1  0  0  0  0
 16 32  1  0  0  0  0
 17 18  1  0  0  0  0
 18 19  1  0  0  0  0
 18 33  1  0  0  0  0
 18 34  1  0  0  0  0
 19 35  1  0  0  0  0
 19 36  1  0  0  0  0
 20 21  2  0  0  0  0
 21 37  1  0  0  0  0
M  END
> <s_m_source_file>
AV-unprocessed.smi

> <i_m_source_file_index>
2075

> <i_lp_mmshare_version>
43012

> <i_f3d_flags>
0

> <s_epik_input>
RkMoRikoRilbQ0gyXUMoPU8pW05IXVtDSDJdYzFbY0hdW2NIXWMobltjSF0xKU4yW0NIMl1bQ0gyXU9bQ0gyXVtDSDJdMg==

> <s_epik_cmdline>
J2VwaWtfcHl0aG9uJywgJy1waCcsICc3LjAnLCAnLXRuJywgJzgnLCAnLW1hJywgJzIwMCcsICctbWV0YWxfYmluZGluZycsICctaW1hZScsICc8aW5maWxlLm1hZT4nLCAnLW9tYWUnLCAnPG91dGZpbGUubWFlPic=

> <r_lp_tautomer_probability>
1

> <r_epik_Ionization_Penalty>
0.00347018

> <r_epik_Ionization_Penalty_Charging>
0

> <r_epik_Ionization_Penalty_Neutral>
0.00347018

> <r_epik_State_Penalty>
0.00246037

> <r_epik_Charging_Adjusted_Penalty>
0.00246037

> <i_epik_Tot_Q>
0

> <i_epik_Tot_abs_Q>
0

> <r_epik_Metal_State_Penalty>
-0

> <b_epik_Metal_Only>
0

> <s_lp_Force_Field>
OPLS_2005

> <r_lp_Energy>
11.9442

> <b_lp_Chiralities_Consistent>
1

> <s_lp_Variant>
AV-unprocessed.smi:2075-1

> <Gold.Version>
5.8.1

> <Gold.Id.Protein>
6NUR|6NUR_protein|mol2

> <Gold.PLP.Fitness>
40.3619

> <Gold.PLP.PLP>
-38.6905

> <Gold.PLP.part.hbond>
-1.0000

> <Gold.PLP.part.metal>
0.0000

> <Gold.PLP.part.buried>
-6.0973

> <Gold.PLP.part.nonpolar>
-32.7829

> <Gold.PLP.part.repulsive>
0.1363

> <Gold.PLP.ligand.clash>
0.0000

> <Gold.PLP.ligand.torsion>
0.9441

> <Gold.PLP.Chemscore.Hbond>
1.0000

> <Gold.PLP.Chemscore.CHOScore>
0.0000

> <Gold.PLP.Chemscore.Metal>
0.0000

> <Gold.Chemscore.Hbonds>
donor molecule, donor type, donor heavy atom, donor atom, acceptor molecule, acceptor atom, score
      P1  H  6934  6947       L1     1  1.00

> <Gold.PLP.Chemscore.Internal.Correction>
0.5597

> <Gold.Rescore>
     Score         DG    S(hbond)    S(metal)    S(lipo)     H(rot)  DE(clash)    DE(int)     intcor
      8.94     -12.11       0.96        0.00      73.24       2.01       0.04       3.13       ----

> <Gold.Chemscore.Fitness>
8.9410

> <Gold.Chemscore.DG>
-12.1124

> <Gold.Chemscore.ZeroCoef>
-5.4800

> <Gold.Chemscore.Hbond>
0.9609

> <Gold.Chemscore.Metal>
0.0000

> <Gold.Chemscore.Lipo>
73.2368

> <Gold.Chemscore.Internal_Hbond>
0.0000

> <Gold.Chemscore.DEClash>
0.0440

> <Gold.Chemscore.DEInternal>
3.1275

> <Gold.Chemscore.Rot>
2.0101

> <Gold.Chemscore.Internal.Correction>
   9.000000E+99

> <Gold.Chemscore.Hbonds>
donor molecule, donor type, donor heavy atom, donor atom, acceptor molecule, acceptor atom, score
      P1  H  6934  6947       L1     1  0.99

> <Gold.Chemscore.Hbond.Weighted>
-3.2095

> <Gold.Chemscore.Metal.Weighted>
-0.0000

> <Gold.Chemscore.Lipo.Weighted>
-8.5687

> <Gold.Chemscore.Internal_Hbond.Weighted>
0.0000

> <Gold.Chemscore.DEClash.Weighted>
0.0440

> <Gold.Chemscore.DEInternal.Weighted>
3.1275

> <Gold.Chemscore.Rot.Weighted>
5.1458

> <Gold.Chemscore.Internal.Correction.Weighted>
   9.000000E+99

> <Gold.Protein.RotatedTorsions>
[ 6907 6896 6895 6894 ] final  -72.83 input  -60.11 | X-H torsion
[ 7974 7965 7964 7962 ] final   90.39 input  175.53 | X-H torsion
[ 8008 7997 7996 7995 ] final  142.09 input   59.86 | X-H torsion
[ 10167 10162 10161 10158 ] final   77.72 input  -65.29 | X-H torsion
[ 10718 10713 10712 10709 ] final   50.22 input   66.30 | X-H torsion
[ 10763 10752 10751 10750 ] final   79.01 input  -60.55 | X-H torsion
[ 11005 11000 10999 10996 ] final   10.19 input  -57.11 | X-H torsion

> <Gold.Protein.ActiveResidues>
 VAL166  LYS551  ARG553  GLY616  TRP617  ASP618  TYR619  PRO620  LYS621  CYS622 
 ASP623  PHE694  ASN695  SER759  ASP760  ASP761  ALA762  ILE779  LEU786  VAL792 
 PHE793  MET794  SER795  GLU796  ALA797  LYS798  CYS799  TRP800  GLU811  SER814 

> <Gold.Protein.RotatedAtoms>
  150.7154  134.5106  159.5605 H   0  0  0  0  0  0  0  0  0  0  0  0  # atno 6907 bound_to 6896
  152.2683  134.7957  160.0427 H   0  0  0  0  0  0  0  0  0  0  0  0  # atno 6908 bound_to 6896
  151.8646  133.3428  159.3751 H   0  0  0  0  0  0  0  0  0  0  0  0  # atno 6909 bound_to 6896
  145.5196  139.2279  143.2679 H   0  0  0  0  0  0  0  0  0  0  0  0  # atno 7974 bound_to 7965
  156.2955  140.2298  156.4672 H   0  0  0  0  0  0  0  0  0  0  0  0  # atno 8008 bound_to 7997
  154.7967  140.0451  157.1263 H   0  0  0  0  0  0  0  0  0  0  0  0  # atno 8009 bound_to 7997
  154.9581  140.3051  155.5047 H   0  0  0  0  0  0  0  0  0  0  0  0  # atno 8010 bound_to 7997
  139.9786  144.5843  150.7921 H   0  0  0  0  0  0  0  0  0  0  0  0  # atno 10167 bound_to 10162
  157.4863  130.8347  149.8151 H   0  0  0  0  0  0  0  0  0  0  0  0  # atno 10718 bound_to 10713
  153.0919  135.4855  154.8706 H   0  0  0  0  0  0  0  0  0  0  0  0  # atno 10763 bound_to 10752
  154.7279  135.3053  154.8942 H   0  0  0  0  0  0  0  0  0  0  0  0  # atno 10764 bound_to 10752
  153.9587  135.6815  153.4798 H   0  0  0  0  0  0  0  0  0  0  0  0  # atno 10765 bound_to 10752
  140.5173  134.0593  155.7835 H   0  0  0  0  0  0  0  0  0  0  0  0  # atno 11005 bound_to 11000
  146.2114  140.6007  142.9057 LP  0  0  0  0  0  0  0  0  0  0  0  0  # atno 17320 bound_to 7965
  144.7683  140.5581  143.6688 LP  0  0  0  0  0  0  0  0  0  0  0  0  # atno 17321 bound_to 7965
  140.7497  143.2943  151.3246 LP  0  0  0  0  0  0  0  0  0  0  0  0  # atno 17342 bound_to 10162
  139.6427  144.0509  152.2567 LP  0  0  0  0  0  0  0  0  0  0  0  0  # atno 17343 bound_to 10162
  156.0149  130.3818  150.2144 LP  0  0  0  0  0  0  0  0  0  0  0  0  # atno 17370 bound_to 10713
  157.0332  131.0013  151.3306 LP  0  0  0  0  0  0  0  0  0  0  0  0  # atno 17371 bound_to 10713
  141.1353  133.9232  157.2447 LP  0  0  0  0  0  0  0  0  0  0  0  0  # atno 17394 bound_to 11000
  139.9625  135.0150  156.9300 LP  0  0  0  0  0  0  0  0  0  0  0  0  # atno 17395 bound_to 11000

$$$$
