AV-unprocessed.smi:72|AV-procd|sdf|712|dock2
  -GOLD-   2262017 33D 1   1.00000     0.00000
 Structure written by MMmdl.
 28 29  0  0  0  0  0  0  0  0  2 V2000
  152.2262  137.7147  159.1185 N   0  0  0  0  0  0  0  0  0  0  0  0
  151.7200  138.2403  158.0909 C   0  0  0  0  0  0  0  0  0  0  0  0
  150.2846  138.3818  157.9794 N   0  0  0  0  0  0  0  0  0  0  0  0
  149.8119  138.9223  156.8985 C   0  0  0  0  0  0  0  0  0  0  0  0
  150.6829  139.3734  155.8205 N   0  0  0  0  0  0  0  0  0  0  0  0
  150.1362  140.0099  154.5542 C   0  0  1  0  0  0  0  0  0  0  0  0
  149.0577  139.2577  154.0698 O   0  0  0  0  0  0  0  0  0  0  0  0
  147.8584  140.0150  154.1771 C   0  0  2  0  0  0  0  0  0  0  0  0
  146.7904  139.4939  153.1986 C   0  0  0  0  0  0  0  0  0  0  0  0
  147.3527  139.0414  151.9837 O   0  0  0  0  0  0  0  0  0  0  0  0
  148.3207  141.4617  154.0024 C   0  0  1  0  0  0  0  0  0  0  0  0
  147.3818  142.4053  154.4843 O   0  0  0  0  0  0  0  0  0  0  0  0
  149.6407  141.4635  154.7684 C   0  0  1  0  0  0  0  0  0  0  0  0
  149.4657  141.8085  156.1351 O   0  0  0  0  0  0  0  0  0  0  0  0
  152.0888  139.2345  155.9642 C   0  0  0  0  0  0  0  0  0  0  0  0
  152.8076  139.6465  155.0534 O   0  0  0  0  0  0  0  0  0  0  0  0
  152.5784  138.6656  157.1012 N   0  5  0  0  0  0  0  0  0  0  0  0
  150.9356  139.9331  153.8154 H   0  0  0  0  0  0  0  0  0  0  0  0
  147.4888  139.8804  155.1952 H   0  0  0  0  0  0  0  0  0  0  0  0
  148.5296  141.6724  152.9532 H   0  0  0  0  0  0  0  0  0  0  0  0
  150.3573  142.1592  154.3309 H   0  0  0  0  0  0  0  0  0  0  0  0
  151.5266  137.4332  159.7899 H   0  0  0  0  0  0  0  0  0  0  0  0
  148.7448  139.0719  156.7365 H   0  0  0  0  0  0  0  0  0  0  0  0
  146.2121  138.6907  153.6559 H   0  0  0  0  0  0  0  0  0  0  0  0
  146.0901  140.2953  152.9618 H   0  0  0  0  0  0  0  0  0  0  0  0
  148.2466  139.3439  151.9359 H   0  0  0  0  0  0  0  0  0  0  0  0
  147.8488  143.1861  154.7392 H   0  0  0  0  0  0  0  0  0  0  0  0
  149.2567  142.7293  156.1849 H   0  0  0  0  0  0  0  0  0  0  0  0
  1  2  2  0  0  0  0
  1 22  1  0  0  0  0
  2 17  1  0  0  0  0
  2  3  1  0  0  0  0
  3  4  2  0  0  0  0
  4  5  1  0  0  0  0
  4 23  1  0  0  0  0
  5  6  1  0  0  0  0
  5 15  1  0  0  0  0
  6 18  1  0  0  0  0
  6 13  1  0  0  0  0
  6  7  1  0  0  0  0
  7  8  1  0  0  0  0
  8 19  1  0  0  0  0
  8  9  1  0  0  0  0
  8 11  1  0  0  0  0
  9 10  1  0  0  0  0
  9 24  1  0  0  0  0
  9 25  1  0  0  0  0
 10 26  1  0  0  0  0
 11 20  1  0  0  0  0
 11 12  1  0  0  0  0
 11 13  1  0  0  0  0
 12 27  1  0  0  0  0
 13 21  1  0  0  0  0
 13 14  1  0  0  0  0
 14 28  1  0  0  0  0
 15 16  2  0  0  0  0
 15 17  1  0  0  0  0
M  CHG  1  17  -1
M  END
> <s_m_source_file>
AV-unprocessed.smi

> <i_m_source_file_index>
72

> <i_lp_mmshare_version>
43012

> <i_f3d_flags>
0

> <s_epik_input>
W05IMl1jMW5bY0hdbihjKD1PKW4xKVtDQEBIXTJPW0NASF0oW0NIMl1bT0hdKVtDQEBIXShbT0hdKVtDQEhdMltPSF0=

> <s_epik_cmdline>
J2VwaWtfcHl0aG9uJywgJy1waCcsICc3LjAnLCAnLXRuJywgJzgnLCAnLW1hJywgJzIwMCcsICctbWV0YWxfYmluZGluZycsICctaW1hZScsICc8aW5maWxlLm1hZT4nLCAnLW9tYWUnLCAnPG91dGZpbGUubWFlPic=

> <r_lp_tautomer_probability>
7.17554e-07

> <r_epik_Ionization_Penalty>
12.8705

> <r_epik_Ionization_Penalty_Charging>
5.64144

> <r_epik_Ionization_Penalty_Neutral>
7.22905

> <r_epik_State_Penalty>
3.30104

> <r_epik_Charging_Adjusted_Penalty>
8.94249

> <i_epik_Tot_Q>
-1

> <i_epik_Tot_abs_Q>
1

> <r_epik_Metal_State_Penalty>
0.529074

> <b_epik_Metal_Only>
1

> <s_epik_Chemistry_Notes>
This compound contains an acetal/aminal-like group ( X-CH(R)-Y where X, Y are N, S, or O) that may be acid/base labile, releasing an aldehyde.

> <s_lp_Force_Field>
OPLS_2005

> <r_lp_Energy>
42.9938

> <b_lp_Chiralities_Consistent>
1

> <s_lp_Variant>
AV-unprocessed.smi:72-50

> <Gold.Version>
5.8.1

> <Gold.Id.Protein>
6NUR|6NUR_protein|mol2

> <Gold.PLP.Fitness>
35.5564

> <Gold.PLP.PLP>
-24.1685

> <Gold.PLP.part.hbond>
-5.5869

> <Gold.PLP.part.metal>
0.0000

> <Gold.PLP.part.buried>
-1.6752

> <Gold.PLP.part.nonpolar>
-16.7396

> <Gold.PLP.part.repulsive>
0.4868

> <Gold.PLP.ligand.clash>
0.0000

> <Gold.PLP.ligand.torsion>
0.6202

> <Gold.PLP.Chemscore.Hbond>
4.1972

> <Gold.PLP.Chemscore.CHOScore>
0.0000

> <Gold.PLP.Chemscore.Metal>
0.0000

> <Gold.Chemscore.Hbonds>
donor molecule, donor type, donor heavy atom, donor atom, acceptor molecule, acceptor atom, score
      L1  H    10    26       P1  7957  1.00
      L1  H    12    27       P1  8028  1.00
      L1  H    14    28       P1  8028  0.84
      P1  H  7989  7998       L1    16  0.21
      P1  H  7997  8008       L1    16  0.95

> <Gold.PLP.Chemscore.Internal.Correction>
0.0369

> <Gold.Rescore>
     Score         DG    S(hbond)    S(metal)    S(lipo)     H(rot)  DE(clash)    DE(int)     intcor
      8.84     -10.50       3.61        0.00      28.30       4.04       0.02       1.64       ----

> <Gold.Chemscore.Fitness>
8.8355

> <Gold.Chemscore.DG>
-10.4982

> <Gold.Chemscore.ZeroCoef>
-5.4800

> <Gold.Chemscore.Hbond>
3.6077

> <Gold.Chemscore.Metal>
0.0000

> <Gold.Chemscore.Lipo>
28.3027

> <Gold.Chemscore.Internal_Hbond>
0.0000

> <Gold.Chemscore.DEClash>
0.0224

> <Gold.Chemscore.DEInternal>
1.6402

> <Gold.Chemscore.Rot>
4.0403

> <Gold.Chemscore.Internal.Correction>
   9.000000E+99

> <Gold.Chemscore.Hbonds>
donor molecule, donor type, donor heavy atom, donor atom, acceptor molecule, acceptor atom, score
      L1  H    10    26       P1  7957  0.97
      L1  H    12    27       P1  8028  0.73
      L1  H    14    28       P1  8028  0.82
      P1  H  7989  7998       L1    16  0.19
      P1  H  7997  8008       L1    16  0.21

> <Gold.Chemscore.Hbond.Weighted>
-12.0498

> <Gold.Chemscore.Metal.Weighted>
-0.0000

> <Gold.Chemscore.Lipo.Weighted>
-3.3114

> <Gold.Chemscore.Internal_Hbond.Weighted>
0.0000

> <Gold.Chemscore.DEClash.Weighted>
0.0224

> <Gold.Chemscore.DEInternal.Weighted>
1.6402

> <Gold.Chemscore.Rot.Weighted>
10.3431

> <Gold.Chemscore.Internal.Correction.Weighted>
   9.000000E+99

> <Gold.Protein.RotatedTorsions>
[ 6907 6896 6895 6894 ] final    3.20 input  -60.11 | X-H torsion
[ 7974 7965 7964 7962 ] final   62.14 input  175.53 | X-H torsion
[ 8008 7997 7996 7995 ] final  -30.97 input   59.86 | X-H torsion
[ 10167 10162 10161 10158 ] final  -62.47 input  -65.29 | X-H torsion
[ 10718 10713 10712 10709 ] final  157.22 input   66.30 | X-H torsion
[ 10763 10752 10751 10750 ] final -171.41 input  -60.55 | X-H torsion
[ 11005 11000 10999 10996 ] final   28.93 input  -57.11 | X-H torsion

> <Gold.Protein.ActiveResidues>
 VAL166  LYS551  ARG553  GLY616  TRP617  ASP618  TYR619  PRO620  LYS621  CYS622 
 ASP623  PHE694  ASN695  SER759  ASP760  ASP761  ALA762  ILE779  LEU786  VAL792 
 PHE793  MET794  SER795  GLU796  ALA797  LYS798  CYS799  TRP800  GLU811  SER814 

> <Gold.Protein.RotatedAtoms>
  151.6212  135.1032  160.0101 H   0  0  0  0  0  0  0  0  0  0  0  0  # atno 6907 bound_to 6896
  152.4157  133.7029  159.6445 H   0  0  0  0  0  0  0  0  0  0  0  0  # atno 6908 bound_to 6896
  150.8045  133.8462  159.3233 H   0  0  0  0  0  0  0  0  0  0  0  0  # atno 6909 bound_to 6896
  145.8767  139.3415  143.0730 H   0  0  0  0  0  0  0  0  0  0  0  0  # atno 7974 bound_to 7965
  154.4230  140.1777  156.1492 H   0  0  0  0  0  0  0  0  0  0  0  0  # atno 8008 bound_to 7997
  155.9929  140.3367  155.6746 H   0  0  0  0  0  0  0  0  0  0  0  0  # atno 8009 bound_to 7997
  155.6348  140.0673  157.2628 H   0  0  0  0  0  0  0  0  0  0  0  0  # atno 8010 bound_to 7997
  140.5936  143.2346  151.6084 H   0  0  0  0  0  0  0  0  0  0  0  0  # atno 10167 bound_to 10162
  157.1944  131.0662  151.2061 H   0  0  0  0  0  0  0  0  0  0  0  0  # atno 10718 bound_to 10713
  154.6308  135.2886  155.0218 H   0  0  0  0  0  0  0  0  0  0  0  0  # atno 10763 bound_to 10752
  154.1379  135.6523  153.4940 H   0  0  0  0  0  0  0  0  0  0  0  0  # atno 10764 bound_to 10752
  153.0279  135.5326  154.7135 H   0  0  0  0  0  0  0  0  0  0  0  0  # atno 10765 bound_to 10752
  140.3103  134.2657  155.7735 H   0  0  0  0  0  0  0  0  0  0  0  0  # atno 11005 bound_to 11000
  145.9072  140.9204  143.0472 LP  0  0  0  0  0  0  0  0  0  0  0  0  # atno 17320 bound_to 7965
  144.6726  140.1112  143.7455 LP  0  0  0  0  0  0  0  0  0  0  0  0  # atno 17321 bound_to 7965
  139.5244  144.3106  152.0996 LP  0  0  0  0  0  0  0  0  0  0  0  0  # atno 17342 bound_to 10162
  140.2274  144.4403  150.6315 LP  0  0  0  0  0  0  0  0  0  0  0  0  # atno 17343 bound_to 10162
  157.3828  130.7240  149.6642 LP  0  0  0  0  0  0  0  0  0  0  0  0  # atno 17370 bound_to 10713
  155.9708  130.4167  150.4246 LP  0  0  0  0  0  0  0  0  0  0  0  0  # atno 17371 bound_to 10713
  141.2109  133.7704  156.9898 LP  0  0  0  0  0  0  0  0  0  0  0  0  # atno 17394 bound_to 11000
  140.1030  134.9523  157.1952 LP  0  0  0  0  0  0  0  0  0  0  0  0  # atno 17395 bound_to 11000

$$$$
