AV-unprocessed.smi:99|AV-procd|sdf|896|dock6
  -GOLD-   2262017393D 1   1.00000     0.00000
 Structure written by MMmdl.
 52 55  0  0  0  0  0  0  0  0  2 V2000
  146.6359  132.1512  159.4051 O   0  0  0  0  0  0  0  0  0  0  0  0
  147.3186  133.1595  159.5949 C   0  0  0  0  0  0  0  0  0  0  0  0
  148.4070  133.4741  158.8667 O   0  0  0  0  0  0  0  0  0  0  0  0
  148.5083  133.0799  157.5077 C   0  0  0  0  0  0  0  0  0  0  0  0
  148.8677  134.3075  156.6611 C   0  0  1  0  0  0  0  0  0  0  0  0
  150.0443  134.9237  157.1741 O   0  0  0  0  0  0  0  0  0  0  0  0
  150.6870  135.6494  156.1616 C   0  0  2  0  0  0  0  0  0  0  0  0
  150.5960  137.1327  156.4668 N   0  0  0  0  0  0  0  0  0  0  0  0
  149.9271  137.6031  157.5853 C   0  0  0  0  0  0  0  0  0  0  0  0
  149.8463  138.9234  157.8502 C   0  0  0  0  0  0  0  0  0  0  0  0
  150.4749  139.8776  156.9411 C   0  0  0  0  0  0  0  0  0  0  0  0
  150.3996  141.0785  157.1930 O   0  0  0  0  0  0  0  0  0  0  0  0
  151.1211  139.3892  155.8432 N   0  5  0  0  0  0  0  0  0  0  0  0
  151.2009  138.0543  155.5703 C   0  0  0  0  0  0  0  0  0  0  0  0
  151.7654  137.6013  154.5740 O   0  0  0  0  0  0  0  0  0  0  0  0
  150.0171  135.2636  154.8200 C   0  0  2  0  0  0  0  0  0  0  0  0
  149.1227  136.2587  154.3434 O   0  0  0  0  0  0  0  0  0  0  0  0
  149.2768  133.9971  155.2222 C   0  0  2  0  0  0  0  0  0  0  0  0
  148.1933  133.7054  154.3428 O   0  0  0  0  0  0  0  0  0  0  0  0
  148.2057  132.6128  153.5488 C   0  0  0  0  0  0  0  0  0  0  0  0
  148.9312  131.6343  153.7366 O   0  0  0  0  0  0  0  0  0  0  0  0
  147.2117  132.6950  152.4410 C   0  0  0  0  0  0  0  0  0  0  0  0
  146.5924  131.5110  151.9771 C   0  0  0  0  0  0  0  0  0  0  0  0
  145.6301  131.5603  150.9502 C   0  0  0  0  0  0  0  0  0  0  0  0
  145.2779  132.7938  150.3724 C   0  0  0  0  0  0  0  0  0  0  0  0
  145.8896  133.9782  150.8226 C   0  0  0  0  0  0  0  0  0  0  0  0
  146.8508  133.9311  151.8510 C   0  0  0  0  0  0  0  0  0  0  0  0
  147.0129  134.1790  160.6399 C   0  0  0  0  0  0  0  0  0  0  0  0
  147.4218  135.5185  160.4433 C   0  0  0  0  0  0  0  0  0  0  0  0
  147.1679  136.4970  161.4242 C   0  0  0  0  0  0  0  0  0  0  0  0
  146.5019  136.1480  162.6133 C   0  0  0  0  0  0  0  0  0  0  0  0
  146.0861  134.8198  162.8189 C   0  0  0  0  0  0  0  0  0  0  0  0
  146.3371  133.8407  161.8384 C   0  0  0  0  0  0  0  0  0  0  0  0
  149.2843  132.3190  157.4200 H   0  0  0  0  0  0  0  0  0  0  0  0
  147.5753  132.6423  157.1492 H   0  0  0  0  0  0  0  0  0  0  0  0
  148.0560  135.0368  156.6811 H   0  0  0  0  0  0  0  0  0  0  0  0
  151.7490  135.4012  156.2041 H   0  0  0  0  0  0  0  0  0  0  0  0
  149.4518  136.9145  158.2667 H   0  0  0  0  0  0  0  0  0  0  0  0
  149.3194  139.2730  158.7259 H   0  0  0  0  0  0  0  0  0  0  0  0
  150.7776  135.0731  154.0624 H   0  0  0  0  0  0  0  0  0  0  0  0
  149.2172  136.3153  153.4043 H   0  0  0  0  0  0  0  0  0  0  0  0
  150.0044  133.1840  155.2362 H   0  0  0  0  0  0  0  0  0  0  0  0
  146.8410  130.5533  152.4111 H   0  0  0  0  0  0  0  0  0  0  0  0
  145.1598  130.6504  150.6081 H   0  0  0  0  0  0  0  0  0  0  0  0
  144.5394  132.8320  149.5852 H   0  0  0  0  0  0  0  0  0  0  0  0
  145.6213  134.9256  150.3792 H   0  0  0  0  0  0  0  0  0  0  0  0
  147.2998  134.8586  152.1750 H   0  0  0  0  0  0  0  0  0  0  0  0
  147.9409  135.8088  159.5412 H   0  0  0  0  0  0  0  0  0  0  0  0
  147.4875  137.5162  161.2643 H   0  0  0  0  0  0  0  0  0  0  0  0
  146.3108  136.8975  163.3668 H   0  0  0  0  0  0  0  0  0  0  0  0
  145.5782  134.5485  163.7325 H   0  0  0  0  0  0  0  0  0  0  0  0
  146.0110  132.8294  162.0325 H   0  0  0  0  0  0  0  0  0  0  0  0
  1  2  2  0  0  0  0
  2  3  1  0  0  0  0
  2 28  1  0  0  0  0
  3  4  1  0  0  0  0
  4  5  1  0  0  0  0
  4 34  1  0  0  0  0
  4 35  1  0  0  0  0
  5 18  1  0  0  0  0
  5  6  1  0  0  0  0
  5 36  1  0  0  0  0
  6  7  1  0  0  0  0
  7  8  1  0  0  0  0
  7 16  1  0  0  0  0
  7 37  1  0  0  0  0
  8 14  1  0  0  0  0
  8  9  1  0  0  0  0
  9 10  2  0  0  0  0
  9 38  1  0  0  0  0
 10 11  1  0  0  0  0
 10 39  1  0  0  0  0
 11 12  2  0  0  0  0
 11 13  1  0  0  0  0
 13 14  1  0  0  0  0
 14 15  2  0  0  0  0
 16 17  1  0  0  0  0
 16 18  1  0  0  0  0
 16 40  1  0  0  0  0
 17 41  1  0  0  0  0
 18 19  1  0  0  0  0
 18 42  1  0  0  0  0
 19 20  1  0  0  0  0
 20 21  2  0  0  0  0
 20 22  1  0  0  0  0
 22 27  1  0  0  0  0
 22 23  2  0  0  0  0
 23 24  1  0  0  0  0
 23 43  1  0  0  0  0
 24 25  2  0  0  0  0
 24 44  1  0  0  0  0
 25 26  1  0  0  0  0
 25 45  1  0  0  0  0
 26 27  2  0  0  0  0
 26 46  1  0  0  0  0
 27 47  1  0  0  0  0
 28 33  1  0  0  0  0
 28 29  2  0  0  0  0
 29 30  1  0  0  0  0
 29 48  1  0  0  0  0
 30 31  2  0  0  0  0
 30 49  1  0  0  0  0
 31 32  1  0  0  0  0
 31 50  1  0  0  0  0
 32 33  2  0  0  0  0
 32 51  1  0  0  0  0
 33 52  1  0  0  0  0
M  CHG  1  13  -1
M  END
> <s_m_source_file>
AV-unprocessed.smi

> <i_m_source_file_index>
99

> <i_lp_mmshare_version>
43012

> <i_f3d_flags>
0

> <s_epik_input>
W2NIXTFbY0hdW2NIXVtjSF1bY0hdYzFDKD1PKU9bQ0gyXVtDQEBIXTJPW0NAQEhdKG4zW2NIXVtjSF1jKD1PKVtuSF1jMz1PKVtDQEBIXShbT0hdKVtDQEhdMk9DKD1PKWM0W2NIXVtjSF1bY0hdW2NIXVtjSF00

> <s_epik_cmdline>
J2VwaWtfcHl0aG9uJywgJy1waCcsICc3LjAnLCAnLXRuJywgJzgnLCAnLW1hJywgJzIwMCcsICctbWV0YWxfYmluZGluZycsICctaW1hZScsICc8aW5maWxlLm1hZT4nLCAnLW9tYWUnLCAnPG91dGZpbGUubWFlPic=

> <r_lp_tautomer_probability>
1

> <r_epik_Ionization_Penalty>
2.89159

> <r_epik_Ionization_Penalty_Charging>
2.1077e-08

> <r_epik_Ionization_Penalty_Neutral>
2.89159

> <r_epik_State_Penalty>
2.88671

> <r_epik_Charging_Adjusted_Penalty>
2.88671

> <i_epik_Tot_Q>
-1

> <i_epik_Tot_abs_Q>
1

> <r_epik_Metal_State_Penalty>
0.0727308

> <b_epik_Metal_Only>
1

> <s_epik_Chemistry_Notes>
This compound has an ester and may undergo hydrolysis at high or low pH. This compound contains an acetal/aminal-like group ( X-CH(R)-Y where X, Y are N, S, or O) that may be acid/base labile, releasing an aldehyde.

> <s_lp_Force_Field>
OPLS_2005

> <r_lp_Energy>
52.3549

> <b_lp_Chiralities_Consistent>
1

> <s_lp_Variant>
AV-unprocessed.smi:99-32

> <Gold.Version>
5.8.1

> <Gold.Id.Protein>
6NUR|6NUR_protein|mol2

> <Gold.PLP.Fitness>
53.3399

> <Gold.PLP.PLP>
-51.2019

> <Gold.PLP.part.hbond>
-3.8629

> <Gold.PLP.part.metal>
0.0000

> <Gold.PLP.part.buried>
-6.4980

> <Gold.PLP.part.nonpolar>
-42.0430

> <Gold.PLP.part.repulsive>
0.3105

> <Gold.PLP.ligand.clash>
0.0000

> <Gold.PLP.ligand.torsion>
2.4530

> <Gold.PLP.Chemscore.Hbond>
2.2094

> <Gold.PLP.Chemscore.CHOScore>
0.0000

> <Gold.PLP.Chemscore.Metal>
0.0000

> <Gold.Chemscore.Hbonds>
donor molecule, donor type, donor heavy atom, donor atom, acceptor molecule, acceptor atom, score
      L1  H    17    41       P1  7948  1.00
      P1  H  6896  6909       L1     6  0.05
      P1  H 10752 10765       L1    15  0.35

> <Gold.PLP.Chemscore.Internal.Correction>
0.4159

> <Gold.Rescore>
     Score         DG    S(hbond)    S(metal)    S(lipo)     H(rot)  DE(clash)    DE(int)     intcor
     14.56     -16.93       2.10        0.00     106.60       3.13       0.06       2.31       ----

> <Gold.Chemscore.Fitness>
14.5613

> <Gold.Chemscore.DG>
-16.9254

> <Gold.Chemscore.ZeroCoef>
-5.4800

> <Gold.Chemscore.Hbond>
2.0951

> <Gold.Chemscore.Metal>
0.0000

> <Gold.Chemscore.Lipo>
106.6009

> <Gold.Chemscore.Internal_Hbond>
0.0000

> <Gold.Chemscore.DEClash>
0.0574

> <Gold.Chemscore.DEInternal>
2.3067

> <Gold.Chemscore.Rot>
3.1346

> <Gold.Chemscore.Internal.Correction>
   9.000000E+99

> <Gold.Chemscore.Hbonds>
donor molecule, donor type, donor heavy atom, donor atom, acceptor molecule, acceptor atom, score
      L1  H    17    41       P1  7948  0.86
      P1  H  6896  6909       L1     6  0.07
      P1  H 10752 10765       L1    15  0.34

> <Gold.Chemscore.Hbond.Weighted>
-6.9976

> <Gold.Chemscore.Metal.Weighted>
-0.0000

> <Gold.Chemscore.Lipo.Weighted>
-12.4723

> <Gold.Chemscore.Internal_Hbond.Weighted>
0.0000

> <Gold.Chemscore.DEClash.Weighted>
0.0574

> <Gold.Chemscore.DEInternal.Weighted>
2.3067

> <Gold.Chemscore.Rot.Weighted>
8.0246

> <Gold.Chemscore.Internal.Correction.Weighted>
   9.000000E+99

> <Gold.Protein.RotatedTorsions>
[ 6907 6896 6895 6894 ] final   16.44 input  -60.11 | X-H torsion
[ 7974 7965 7964 7962 ] final  161.67 input  175.53 | X-H torsion
[ 8008 7997 7996 7995 ] final  135.63 input   59.86 | X-H torsion
[ 10167 10162 10161 10158 ] final   55.32 input  -65.29 | X-H torsion
[ 10718 10713 10712 10709 ] final   58.80 input   66.30 | X-H torsion
[ 10763 10752 10751 10750 ] final  158.38 input  -60.55 | X-H torsion
[ 11005 11000 10999 10996 ] final  -42.55 input  -57.11 | X-H torsion

> <Gold.Protein.ActiveResidues>
 VAL166  LYS551  ARG553  GLY616  TRP617  ASP618  TYR619  PRO620  LYS621  CYS622 
 ASP623  PHE694  ASN695  SER759  ASP760  ASP761  ALA762  ILE779  LEU786  VAL792 
 PHE793  MET794  SER795  GLU796  ALA797  LYS798  CYS799  TRP800  GLU811  SER814 

> <Gold.Protein.RotatedAtoms>
  151.8339  135.0612  160.0439 H   0  0  0  0  0  0  0  0  0  0  0  0  # atno 6907 bound_to 6896
  152.2859  133.5510  159.5535 H   0  0  0  0  0  0  0  0  0  0  0  0  # atno 6908 bound_to 6896
  150.7209  134.0413  159.3809 H   0  0  0  0  0  0  0  0  0  0  0  0  # atno 6909 bound_to 6896
  144.7674  139.7930  143.6310 H   0  0  0  0  0  0  0  0  0  0  0  0  # atno 7974 bound_to 7965
  156.3003  140.2466  156.3612 H   0  0  0  0  0  0  0  0  0  0  0  0  # atno 8008 bound_to 7997
  154.8875  140.0410  157.1838 H   0  0  0  0  0  0  0  0  0  0  0  0  # atno 8009 bound_to 7997
  154.8632  140.2924  155.5530 H   0  0  0  0  0  0  0  0  0  0  0  0  # atno 8010 bound_to 7997
  140.2207  144.3792  150.6452 H   0  0  0  0  0  0  0  0  0  0  0  0  # atno 10167 bound_to 10162
  157.5625  130.8846  149.9134 H   0  0  0  0  0  0  0  0  0  0  0  0  # atno 10718 bound_to 10713
  154.2151  135.2784  155.2945 H   0  0  0  0  0  0  0  0  0  0  0  0  # atno 10763 bound_to 10752
  154.5747  135.5607  153.7132 H   0  0  0  0  0  0  0  0  0  0  0  0  # atno 10764 bound_to 10752
  153.0055  135.6330  154.2290 H   0  0  0  0  0  0  0  0  0  0  0  0  # atno 10765 bound_to 10752
  141.0323  133.6814  156.2610 H   0  0  0  0  0  0  0  0  0  0  0  0  # atno 11005 bound_to 11000
  146.1793  139.4978  142.9877 LP  0  0  0  0  0  0  0  0  0  0  0  0  # atno 17320 bound_to 7965
  145.6427  141.0281  143.1803 LP  0  0  0  0  0  0  0  0  0  0  0  0  # atno 17321 bound_to 7965
  140.6257  143.2181  151.6601 LP  0  0  0  0  0  0  0  0  0  0  0  0  # atno 17342 bound_to 10162
  139.5145  144.3408  152.0742 LP  0  0  0  0  0  0  0  0  0  0  0  0  # atno 17343 bound_to 10162
  156.0676  130.3690  150.0844 LP  0  0  0  0  0  0  0  0  0  0  0  0  # atno 17370 bound_to 10713
  156.9006  130.9619  151.3577 LP  0  0  0  0  0  0  0  0  0  0  0  0  # atno 17371 bound_to 10713
  140.6384  134.5191  157.5567 LP  0  0  0  0  0  0  0  0  0  0  0  0  # atno 17394 bound_to 11000
  139.9216  134.8137  156.1193 LP  0  0  0  0  0  0  0  0  0  0  0  0  # atno 17395 bound_to 11000

$$$$
