AV-unprocessed.smi:1831|AV-procd|sdf|7457|dock4
  -GOLD-   22720 9143D 1   1.00000     0.00000
 Structure written by MMmdl.
 41 42  0  0  0  0  0  0  0  0  2 V2000
  136.3604  140.1768  153.7731 C   0  0  0  0  0  0  0  0  0  0  0  0
  137.2298  139.0599  154.2400 C   0  0  0  0  0  0  0  0  0  0  0  0
  136.8762  138.2292  155.2289 N   0  0  0  0  0  0  0  0  0  0  0  0
  137.8461  137.2692  155.4856 N   0  0  0  0  0  0  0  0  0  0  0  0
  138.9032  137.4000  154.6794 C   0  0  0  0  0  0  0  0  0  0  0  0
  139.9737  136.4830  154.8286 N   0  0  0  0  0  0  0  0  0  0  0  0
  141.1403  136.4621  154.1643 C   0  0  0  0  0  0  0  0  0  0  0  0
  141.4788  137.2637  153.2937 O   0  0  0  0  0  0  0  0  0  0  0  0
  141.9140  135.4452  154.5716 N   0  0  0  0  0  0  0  0  0  0  0  0
  143.2299  135.1140  154.0330 C   0  0  0  0  0  0  0  0  0  0  0  0
  143.2475  135.0996  152.4916 C   0  0  1  0  0  0  0  0  0  0  0  0
  144.5904  135.5099  151.8919 C   0  0  0  0  0  0  0  0  0  0  0  0
  144.6088  134.8709  150.4971 C   0  0  0  0  0  0  0  0  0  0  0  0
  143.5229  133.8585  150.4639 N   0  3  1  0  0  0  0  0  0  0  0  0
  143.8690  132.5767  149.7869 C   0  0  0  0  0  0  0  0  0  0  0  0
  145.2719  132.0917  150.1988 C   0  0  0  0  0  0  0  0  0  0  0  0
  143.7994  132.7044  148.2528 C   0  0  0  0  0  0  0  0  0  0  0  0
  143.0199  133.7305  151.8489 C   0  0  0  0  0  0  0  0  0  0  0  0
  138.8028  138.7299  153.5253 S   0  0  0  0  0  0  0  0  0  0  0  0
  135.5507  140.3561  154.4812 H   0  0  0  0  0  0  0  0  0  0  0  0
  135.9291  139.9309  152.8026 H   0  0  0  0  0  0  0  0  0  0  0  0
  136.9461  141.0909  153.6754 H   0  0  0  0  0  0  0  0  0  0  0  0
  139.8289  135.7566  155.5144 H   0  0  0  0  0  0  0  0  0  0  0  0
  141.5536  134.8359  155.2919 H   0  0  0  0  0  0  0  0  0  0  0  0
  143.9302  135.8671  154.3952 H   0  0  0  0  0  0  0  0  0  0  0  0
  143.5785  134.1600  154.4323 H   0  0  0  0  0  0  0  0  0  0  0  0
  142.4852  135.7864  152.1189 H   0  0  0  0  0  0  0  0  0  0  0  0
  144.7204  136.5921  151.8586 H   0  0  0  0  0  0  0  0  0  0  0  0
  145.4066  135.0987  152.4878 H   0  0  0  0  0  0  0  0  0  0  0  0
  144.4215  135.6136  149.7211 H   0  0  0  0  0  0  0  0  0  0  0  0
  145.5887  134.4312  150.3065 H   0  0  0  0  0  0  0  0  0  0  0  0
  143.1417  131.8239  150.0947 H   0  0  0  0  0  0  0  0  0  0  0  0
  145.5276  131.1618  149.6896 H   0  0  0  0  0  0  0  0  0  0  0  0
  145.3430  131.8951  151.2683 H   0  0  0  0  0  0  0  0  0  0  0  0
  146.0357  132.8272  149.9440 H   0  0  0  0  0  0  0  0  0  0  0  0
  144.1003  131.7740  147.7704 H   0  0  0  0  0  0  0  0  0  0  0  0
  144.4598  133.4924  147.8889 H   0  0  0  0  0  0  0  0  0  0  0  0
  142.7901  132.9250  147.9050 H   0  0  0  0  0  0  0  0  0  0  0  0
  143.5974  132.9702  152.3779 H   0  0  0  0  0  0  0  0  0  0  0  0
  141.9698  133.4371  151.8679 H   0  0  0  0  0  0  0  0  0  0  0  0
  142.7700  134.2768  149.9364 H   0  0  0  0  0  0  0  0  0  0  0  0
  1  2  1  0  0  0  0
  1 20  1  0  0  0  0
  1 21  1  0  0  0  0
  1 22  1  0  0  0  0
  2 19  1  0  0  0  0
  2  3  2  0  0  0  0
  3  4  1  0  0  0  0
  4  5  2  0  0  0  0
  5  6  1  0  0  0  0
  5 19  1  0  0  0  0
  6  7  1  0  0  0  0
  6 23  1  0  0  0  0
  7  8  2  0  0  0  0
  7  9  1  0  0  0  0
  9 10  1  0  0  0  0
  9 24  1  0  0  0  0
 10 11  1  0  0  0  0
 10 25  1  0  0  0  0
 10 26  1  0  0  0  0
 11 18  1  0  0  0  0
 11 12  1  0  0  0  0
 11 27  1  0  0  0  0
 12 13  1  0  0  0  0
 12 28  1  0  0  0  0
 12 29  1  0  0  0  0
 13 14  1  0  0  0  0
 13 30  1  0  0  0  0
 13 31  1  0  0  0  0
 14 15  1  0  0  0  0
 14 18  1  0  0  0  0
 14 41  1  0  0  0  0
 15 16  1  0  0  0  0
 15 17  1  0  0  0  0
 15 32  1  0  0  0  0
 16 33  1  0  0  0  0
 16 34  1  0  0  0  0
 16 35  1  0  0  0  0
 17 36  1  0  0  0  0
 17 37  1  0  0  0  0
 17 38  1  0  0  0  0
 18 39  1  0  0  0  0
 18 40  1  0  0  0  0
M  CHG  1  14   1
M  END
> <s_m_source_file>
AV-unprocessed.smi

> <i_m_source_file_index>
1831

> <i_lp_mmshare_version>
43012

> <i_f3d_flags>
0

> <s_epik_input>
W0NIM11jMW5uYyhzMSlbTkhdQyg9TylbTkhdW0NIMl1bQ0BASF0yW0NIMl1bQ0gyXU4oW0NIMl0yKVtDSF0oW0NIM10pW0NIM10=

> <s_epik_cmdline>
J2VwaWtfcHl0aG9uJywgJy1waCcsICc3LjAnLCAnLXRuJywgJzgnLCAnLW1hJywgJzIwMCcsICctbWV0YWxfYmluZGluZycsICctaW1hZScsICc8aW5maWxlLm1hZT4nLCAnLW9tYWUnLCAnPG91dGZpbGUubWFlPic=

> <r_lp_tautomer_probability>
1

> <r_epik_Ionization_Penalty>
0.00080807

> <r_epik_Ionization_Penalty_Charging>
0.000218981

> <r_epik_Ionization_Penalty_Neutral>
0.00058909

> <r_epik_State_Penalty>
-0

> <r_epik_Charging_Adjusted_Penalty>
0.000218981

> <i_epik_Tot_Q>
1

> <i_epik_Tot_abs_Q>
1

> <r_epik_Metal_State_Penalty>
0.236062

> <b_epik_Metal_Only>
0

> <s_lp_Force_Field>
OPLS_2005

> <r_lp_Energy>
27.4223

> <b_lp_Chiralities_Consistent>
1

> <s_lp_Variant>
AV-unprocessed.smi:1831-2

> <Gold.Version>
5.8.1

> <Gold.Id.Protein>
6NUR|6NUR_protein|mol2

> <Gold.PLP.Fitness>
45.5866

> <Gold.PLP.PLP>
-35.3490

> <Gold.PLP.part.hbond>
-3.0000

> <Gold.PLP.part.metal>
0.0000

> <Gold.PLP.part.buried>
-4.3914

> <Gold.PLP.part.nonpolar>
-27.9797

> <Gold.PLP.part.repulsive>
0.3958

> <Gold.PLP.ligand.clash>
0.0000

> <Gold.PLP.ligand.torsion>
0.8921

> <Gold.PLP.Chemscore.Hbond>
4.0000

> <Gold.PLP.Chemscore.CHOScore>
0.0000

> <Gold.PLP.Chemscore.Metal>
0.0000

> <Gold.Chemscore.Hbonds>
donor molecule, donor type, donor heavy atom, donor atom, acceptor molecule, acceptor atom, score
      L1  H     6    23       P1 11000  1.00
      L1  H     9    24       P1 11000  1.00
      L1  H    14    41       P1 10186  2.00

> <Gold.PLP.Chemscore.Internal.Correction>
0.0219

> <Gold.Rescore>
     Score         DG    S(hbond)    S(metal)    S(lipo)     H(rot)  DE(clash)    DE(int)     intcor
     17.42     -19.68       2.56        0.00      81.84       1.54       0.06       2.19       ----

> <Gold.Chemscore.Fitness>
17.4222

> <Gold.Chemscore.DG>
-19.6791

> <Gold.Chemscore.ZeroCoef>
-5.4800

> <Gold.Chemscore.Hbond>
2.5645

> <Gold.Chemscore.Metal>
0.0000

> <Gold.Chemscore.Lipo>
81.8362

> <Gold.Chemscore.Internal_Hbond>
0.0000

> <Gold.Chemscore.DEClash>
0.0630

> <Gold.Chemscore.DEInternal>
2.1938

> <Gold.Chemscore.Rot>
1.5396

> <Gold.Chemscore.Internal.Correction>
   9.000000E+99

> <Gold.Chemscore.Hbonds>
donor molecule, donor type, donor heavy atom, donor atom, acceptor molecule, acceptor atom, score
      L1  H     6    23       P1 11000  0.77
      L1  H     9    24       P1 11000  0.39
      L1  H    14    41       P1 10186  0.92

> <Gold.Chemscore.Hbond.Weighted>
-8.5655

> <Gold.Chemscore.Metal.Weighted>
-0.0000

> <Gold.Chemscore.Lipo.Weighted>
-9.5748

> <Gold.Chemscore.Internal_Hbond.Weighted>
0.0000

> <Gold.Chemscore.DEClash.Weighted>
0.0630

> <Gold.Chemscore.DEInternal.Weighted>
2.1938

> <Gold.Chemscore.Rot.Weighted>
3.9413

> <Gold.Chemscore.Internal.Correction.Weighted>
   9.000000E+99

> <Gold.Protein.RotatedTorsions>
[ 6907 6896 6895 6894 ] final  -26.74 input  -60.11 | X-H torsion
[ 7974 7965 7964 7962 ] final  -18.94 input  175.53 | X-H torsion
[ 8008 7997 7996 7995 ] final  125.78 input   59.86 | X-H torsion
[ 10167 10162 10161 10158 ] final   81.78 input  -65.29 | X-H torsion
[ 10718 10713 10712 10709 ] final -174.39 input   66.30 | X-H torsion
[ 10763 10752 10751 10750 ] final  173.63 input  -60.55 | X-H torsion
[ 11005 11000 10999 10996 ] final -149.32 input  -57.11 | X-H torsion

> <Gold.Protein.ActiveResidues>
 VAL166  LYS551  ARG553  GLY616  TRP617  ASP618  TYR619  PRO620  LYS621  CYS622 
 ASP623  PHE694  ASN695  SER759  ASP760  ASP761  ALA762  ILE779  LEU786  VAL792 
 PHE793  MET794  SER795  GLU796  ALA797  LYS798  CYS799  TRP800  GLU811  SER814 

> <Gold.Protein.RotatedAtoms>
  151.1566  135.0253  159.8691 H   0  0  0  0  0  0  0  0  0  0  0  0  # atno 6907 bound_to 6896
  152.5452  134.1327  159.8456 H   0  0  0  0  0  0  0  0  0  0  0  0  # atno 6908 bound_to 6896
  151.1418  133.4920  159.2629 H   0  0  0  0  0  0  0  0  0  0  0  0  # atno 6909 bound_to 6896
  146.1867  140.3992  142.8474 H   0  0  0  0  0  0  0  0  0  0  0  0  # atno 7974 bound_to 7965
  156.2844  140.2708  156.2005 H   0  0  0  0  0  0  0  0  0  0  0  0  # atno 8008 bound_to 7997
  155.0366  140.0386  157.2512 H   0  0  0  0  0  0  0  0  0  0  0  0  # atno 8009 bound_to 7997
  154.7309  140.2706  155.6462 H   0  0  0  0  0  0  0  0  0  0  0  0  # atno 8010 bound_to 7997
  139.9356  144.6123  150.8301 H   0  0  0  0  0  0  0  0  0  0  0  0  # atno 10167 bound_to 10162
  156.7844  130.9495  151.3120 H   0  0  0  0  0  0  0  0  0  0  0  0  # atno 10718 bound_to 10713
  154.4427  135.2762  155.1836 H   0  0  0  0  0  0  0  0  0  0  0  0  # atno 10763 bound_to 10752
  154.3696  135.6111  153.5736 H   0  0  0  0  0  0  0  0  0  0  0  0  # atno 10764 bound_to 10752
  152.9842  135.5854  154.4758 H   0  0  0  0  0  0  0  0  0  0  0  0  # atno 10765 bound_to 10752
  140.7520  134.3396  157.5123 H   0  0  0  0  0  0  0  0  0  0  0  0  # atno 11005 bound_to 11000
  144.8410  140.6857  143.6229 LP  0  0  0  0  0  0  0  0  0  0  0  0  # atno 17320 bound_to 7965
  145.3918  139.1615  143.4225 LP  0  0  0  0  0  0  0  0  0  0  0  0  # atno 17321 bound_to 7965
  140.7625  143.3200  151.2644 LP  0  0  0  0  0  0  0  0  0  0  0  0  # atno 17342 bound_to 10162
  139.6746  143.9960  152.2773 LP  0  0  0  0  0  0  0  0  0  0  0  0  # atno 17343 bound_to 10162
  157.6631  130.8983  149.9872 LP  0  0  0  0  0  0  0  0  0  0  0  0  # atno 17370 bound_to 10713
  156.1198  130.3646  149.9907 LP  0  0  0  0  0  0  0  0  0  0  0  0  # atno 17371 bound_to 10713
  139.8786  134.9148  156.3115 LP  0  0  0  0  0  0  0  0  0  0  0  0  # atno 17394 bound_to 11000
  140.9742  133.7308  156.0578 LP  0  0  0  0  0  0  0  0  0  0  0  0  # atno 17395 bound_to 11000

$$$$
