AV-unprocessed.smi:2061|AV-procd|sdf|8385|dock7
  -GOLD-   2272011 63D 1   1.00000     0.00000
 Structure written by MMmdl.
 45 46  0  0  0  0  0  0  0  0  3 V2000
  152.6079  143.7261  161.9045 C   0  0  0  0  0  0  0  0  0  0  0  0
  152.1113  143.2827  160.5709 C   0  0  0  0  0  0  0  0  0  0  0  0
  151.8755  143.9481  159.4015 C   0  0  0  0  0  0  0  0  0  0  0  0
  151.4230  142.9211  158.5287 C   0  0  0  0  0  0  0  0  0  0  0  0
  151.0527  143.0801  157.2487 N   0  5  0  0  0  0  0  0  0  0  0  0
  150.7094  142.0065  156.5019 C   0  0  0  0  0  0  0  0  0  0  0  0
  151.1142  140.8515  156.6518 O   0  0  0  0  0  0  0  0  0  0  0  0
  149.8525  142.2939  155.5109 N   0  0  0  0  0  0  0  0  0  0  0  0
  149.3043  141.3511  154.5387 C   0  0  0  0  0  0  0  0  0  0  0  0
  147.8890  141.7469  154.0421 C   0  0  1  0  0  0  0  0  0  0  0  0
  147.2197  140.5731  153.2852 C   0  0  0  0  0  0  0  0  0  0  0  0
  147.0734  142.2581  155.1926 N   0  3  1  0  0  0  0  0  0  0  0  0
  145.8203  142.9262  154.7519 C   0  0  0  0  0  0  0  0  0  0  0  0
  145.1022  143.5872  155.9399 C   0  0  1  0  0  0  0  0  0  0  0  0
  143.7758  144.2320  155.5230 C   0  0  0  0  0  0  0  0  0  0  0  0
  144.8170  142.5986  156.9228 O   0  0  0  0  0  0  0  0  0  0  0  0
  145.9627  141.9089  157.4165 C   0  0  2  0  0  0  0  0  0  0  0  0
  146.8256  142.7958  158.3324 C   0  0  0  0  0  0  0  0  0  0  0  0
  146.7536  141.2679  156.2576 C   0  0  0  0  0  0  0  0  0  0  0  0
  151.3696  141.7405  159.1219 N   0  0  0  0  0  0  0  0  0  0  0  0
  151.8158  141.9625  160.4303 O   0  0  0  0  0  0  0  0  0  0  0  0
  151.8982  144.4090  162.3714 H   0  0  0  0  0  0  0  0  0  0  0  0
  153.5623  144.2435  161.8073 H   0  0  0  0  0  0  0  0  0  0  0  0
  152.7511  142.8774  162.5739 H   0  0  0  0  0  0  0  0  0  0  0  0
  152.0109  145.0000  159.1994 H   0  0  0  0  0  0  0  0  0  0  0  0
  149.5528  143.2548  155.4311 H   0  0  0  0  0  0  0  0  0  0  0  0
  149.9768  141.2272  153.6883 H   0  0  0  0  0  0  0  0  0  0  0  0
  149.2891  140.3872  155.0432 H   0  0  0  0  0  0  0  0  0  0  0  0
  147.9914  142.5599  153.3212 H   0  0  0  0  0  0  0  0  0  0  0  0
  147.8316  140.2276  152.4527 H   0  0  0  0  0  0  0  0  0  0  0  0
  146.2676  140.8599  152.8392 H   0  0  0  0  0  0  0  0  0  0  0  0
  147.0505  139.7195  153.9424 H   0  0  0  0  0  0  0  0  0  0  0  0
  146.0240  143.6896  154.0036 H   0  0  0  0  0  0  0  0  0  0  0  0
  145.1659  142.1920  154.2788 H   0  0  0  0  0  0  0  0  0  0  0  0
  145.7352  144.3660  156.3658 H   0  0  0  0  0  0  0  0  0  0  0  0
  143.9348  145.0092  154.7750 H   0  0  0  0  0  0  0  0  0  0  0  0
  143.2806  144.6923  156.3784 H   0  0  0  0  0  0  0  0  0  0  0  0
  143.0926  143.4948  155.1003 H   0  0  0  0  0  0  0  0  0  0  0  0
  145.5787  141.1002  158.0391 H   0  0  0  0  0  0  0  0  0  0  0  0
  147.6121  142.2095  158.8079 H   0  0  0  0  0  0  0  0  0  0  0  0
  146.2222  143.2390  159.1251 H   0  0  0  0  0  0  0  0  0  0  0  0
  147.3117  143.6052  157.7884 H   0  0  0  0  0  0  0  0  0  0  0  0
  146.1737  140.4530  155.8213 H   0  0  0  0  0  0  0  0  0  0  0  0
  147.6588  140.8309  156.6783 H   0  0  0  0  0  0  0  0  0  0  0  0
  147.6418  142.9638  155.6392 H   0  0  0  0  0  0  0  0  0  0  0  0
  1  2  1  0  0  0  0
  1 22  1  0  0  0  0
  1 23  1  0  0  0  0
  1 24  1  0  0  0  0
  2 21  1  0  0  0  0
  2  3  2  0  0  0  0
  3  4  1  0  0  0  0
  3 25  1  0  0  0  0
  4  5  1  0  0  0  0
  4 20  2  0  0  0  0
  5  6  1  0  0  0  0
  6  7  2  0  0  0  0
  6  8  1  0  0  0  0
  8  9  1  0  0  0  0
  8 26  1  0  0  0  0
  9 10  1  0  0  0  0
  9 27  1  0  0  0  0
  9 28  1  0  0  0  0
 10 11  1  0  0  0  0
 10 12  1  0  0  0  0
 10 29  1  0  0  0  0
 11 30  1  0  0  0  0
 11 31  1  0  0  0  0
 11 32  1  0  0  0  0
 12 19  1  0  0  0  0
 12 13  1  0  0  0  0
 12 45  1  0  0  0  0
 13 14  1  0  0  0  0
 13 33  1  0  0  0  0
 13 34  1  0  0  0  0
 14 15  1  0  0  0  0
 14 16  1  0  0  0  0
 14 35  1  0  0  0  0
 15 36  1  0  0  0  0
 15 37  1  0  0  0  0
 15 38  1  0  0  0  0
 16 17  1  0  0  0  0
 17 18  1  0  0  0  0
 17 19  1  0  0  0  0
 17 39  1  0  0  0  0
 18 40  1  0  0  0  0
 18 41  1  0  0  0  0
 18 42  1  0  0  0  0
 19 43  1  0  0  0  0
 19 44  1  0  0  0  0
 20 21  1  0  0  0  0
M  CHG  1   5  -1
M  CHG  1  12   1
M  END
> <s_m_source_file>
AV-unprocessed.smi

> <i_m_source_file_index>
2061

> <i_lp_mmshare_version>
43012

> <i_f3d_flags>
0

> <s_epik_input>
W0NIM11jMVtjSF1jKG5vMSlbTkhdQyg9TylbTkhdW0NIMl1bQ0BIXShbQ0gzXSlOMltDSDJdW0NAQEhdKFtDSDNdKU9bQ0BASF0oW0NIM10pW0NIMl0y

> <s_epik_cmdline>
J2VwaWtfcHl0aG9uJywgJy1waCcsICc3LjAnLCAnLXRuJywgJzgnLCAnLW1hJywgJzIwMCcsICctbWV0YWxfYmluZGluZycsICctaW1hZScsICc8aW5maWxlLm1hZT4nLCAnLW9tYWUnLCAnPG91dGZpbGUubWFlPic=

> <r_epik_Ionization_Penalty>
6.73511

> <r_epik_Ionization_Penalty_Charging>
6.73502

> <r_epik_Ionization_Penalty_Neutral>
9.50841e-05

> <r_epik_State_Penalty>
6.93549

> <r_epik_Charging_Adjusted_Penalty>
13.6705

> <i_epik_Tot_Q>
0

> <i_epik_Tot_abs_Q>
2

> <r_epik_Metal_State_Penalty>
2.87211

> <b_epik_Metal_Only>
1

> <s_lp_Force_Field>
OPLS_2005

> <r_lp_Energy>
11.2627

> <b_lp_Chiralities_Consistent>
1

> <s_lp_Variant>
AV-unprocessed.smi:2061-26

> <Gold.Version>
5.8.1

> <Gold.Id.Protein>
6NUR|6NUR_protein|mol2

> <Gold.PLP.Fitness>
47.0789

> <Gold.PLP.PLP>
-39.0328

> <Gold.PLP.part.hbond>
-3.0168

> <Gold.PLP.part.metal>
0.0000

> <Gold.PLP.part.buried>
-5.4606

> <Gold.PLP.part.nonpolar>
-30.2399

> <Gold.PLP.part.repulsive>
0.5637

> <Gold.PLP.ligand.clash>
0.0000

> <Gold.PLP.ligand.torsion>
0.5452

> <Gold.PLP.Chemscore.Hbond>
3.0140

> <Gold.PLP.Chemscore.CHOScore>
0.0000

> <Gold.PLP.Chemscore.Metal>
0.0000

> <Gold.Chemscore.Hbonds>
donor molecule, donor type, donor heavy atom, donor atom, acceptor molecule, acceptor atom, score
      L1  H     8    26       P1  8028  1.00
      L1  H    12    45       P1  8028  1.53

> <Gold.PLP.Chemscore.Internal.Correction>
0.0945

> <Gold.Rescore>
     Score         DG    S(hbond)    S(metal)    S(lipo)     H(rot)  DE(clash)    DE(int)     intcor
     14.34     -16.55       1.76        0.00      78.57       1.56       0.09       2.12       ----

> <Gold.Chemscore.Fitness>
14.3445

> <Gold.Chemscore.DG>
-16.5547

> <Gold.Chemscore.ZeroCoef>
-5.4800

> <Gold.Chemscore.Hbond>
1.7554

> <Gold.Chemscore.Metal>
0.0000

> <Gold.Chemscore.Lipo>
78.5695

> <Gold.Chemscore.Internal_Hbond>
0.0000

> <Gold.Chemscore.DEClash>
0.0865

> <Gold.Chemscore.DEInternal>
2.1237

> <Gold.Chemscore.Rot>
1.5550

> <Gold.Chemscore.Internal.Correction>
   9.000000E+99

> <Gold.Chemscore.Hbonds>
donor molecule, donor type, donor heavy atom, donor atom, acceptor molecule, acceptor atom, score
      L1  H     8    26       P1  8028  0.99
      L1  H    12    45       P1  8028  0.29

> <Gold.Chemscore.Hbond.Weighted>
-5.8629

> <Gold.Chemscore.Metal.Weighted>
-0.0000

> <Gold.Chemscore.Lipo.Weighted>
-9.1926

> <Gold.Chemscore.Internal_Hbond.Weighted>
0.0000

> <Gold.Chemscore.DEClash.Weighted>
0.0865

> <Gold.Chemscore.DEInternal.Weighted>
2.1237

> <Gold.Chemscore.Rot.Weighted>
3.9809

> <Gold.Chemscore.Internal.Correction.Weighted>
   9.000000E+99

> <Gold.Protein.RotatedTorsions>
[ 6907 6896 6895 6894 ] final -103.20 input  -60.11 | X-H torsion
[ 7974 7965 7964 7962 ] final -137.04 input  175.53 | X-H torsion
[ 8008 7997 7996 7995 ] final  109.84 input   59.86 | X-H torsion
[ 10167 10162 10161 10158 ] final  -61.03 input  -65.29 | X-H torsion
[ 10718 10713 10712 10709 ] final   -0.46 input   66.30 | X-H torsion
[ 10763 10752 10751 10750 ] final  -89.27 input  -60.55 | X-H torsion
[ 11005 11000 10999 10996 ] final   -8.08 input  -57.11 | X-H torsion

> <Gold.Protein.ActiveResidues>
 VAL166  LYS551  ARG553  GLY616  TRP617  ASP618  TYR619  PRO620  LYS621  CYS622 
 ASP623  PHE694  ASN695  SER759  ASP760  ASP761  ALA762  ILE779  LEU786  VAL792 
 PHE793  MET794  SER795  GLU796  ALA797  LYS798  CYS799  TRP800  GLU811  SER814 

> <Gold.Protein.RotatedAtoms>
  150.7229  134.0466  159.3783 H   0  0  0  0  0  0  0  0  0  0  0  0  # atno 6907 bound_to 6896
  151.8441  135.0578  160.0461 H   0  0  0  0  0  0  0  0  0  0  0  0  # atno 6908 bound_to 6896
  152.2840  133.5461  159.5552 H   0  0  0  0  0  0  0  0  0  0  0  0  # atno 6909 bound_to 6896
  144.8876  140.6596  143.5166 H   0  0  0  0  0  0  0  0  0  0  0  0  # atno 7974 bound_to 7965
  156.2009  140.3050  155.9524 H   0  0  0  0  0  0  0  0  0  0  0  0  # atno 8008 bound_to 7997
  155.2956  140.0444  157.3043 H   0  0  0  0  0  0  0  0  0  0  0  0  # atno 8009 bound_to 7997
  154.5569  140.2308  155.8405 H   0  0  0  0  0  0  0  0  0  0  0  0  # atno 8010 bound_to 7997
  140.6033  143.2367  151.5879 H   0  0  0  0  0  0  0  0  0  0  0  0  # atno 10167 bound_to 10162
  156.8201  130.5453  149.5698 H   0  0  0  0  0  0  0  0  0  0  0  0  # atno 10718 bound_to 10713
  154.6535  135.5347  153.7930 H   0  0  0  0  0  0  0  0  0  0  0  0  # atno 10763 bound_to 10752
  153.0399  135.6488  154.0981 H   0  0  0  0  0  0  0  0  0  0  0  0  # atno 10764 bound_to 10752
  154.0896  135.2941  155.3254 H   0  0  0  0  0  0  0  0  0  0  0  0  # atno 10765 bound_to 10752
  140.7197  133.8839  155.8811 H   0  0  0  0  0  0  0  0  0  0  0  0  # atno 11005 bound_to 11000
  145.3841  139.1630  143.4264 LP  0  0  0  0  0  0  0  0  0  0  0  0  # atno 17320 bound_to 7965
  146.3034  140.3925  142.8696 LP  0  0  0  0  0  0  0  0  0  0  0  0  # atno 17321 bound_to 7965
  139.5306  144.2926  152.1139 LP  0  0  0  0  0  0  0  0  0  0  0  0  # atno 17342 bound_to 10162
  140.2111  144.4561  150.6385 LP  0  0  0  0  0  0  0  0  0  0  0  0  # atno 17343 bound_to 10162
  156.0994  130.5957  150.9868 LP  0  0  0  0  0  0  0  0  0  0  0  0  # atno 17370 bound_to 10713
  157.6461  131.0904  150.8150 LP  0  0  0  0  0  0  0  0  0  0  0  0  # atno 17371 bound_to 10713
  141.0014  134.1145  157.4313 LP  0  0  0  0  0  0  0  0  0  0  0  0  # atno 17394 bound_to 11000
  139.8851  135.0069  156.6414 LP  0  0  0  0  0  0  0  0  0  0  0  0  # atno 17395 bound_to 11000

$$$$
