AV-unprocessed.smi:1390|AV-procd|sdf|5656|dock6
  -GOLD-   22720 5283D 1   1.00000     0.00000
 Structure written by MMmdl.
 44 45  0  0  0  0  0  0  0  0  1 V2000
  151.1367  145.2809  159.3768 C   0  0  0  0  0  0  0  0  0  0  0  0
  151.9607  143.9909  159.3132 C   0  0  2  0  0  0  0  0  0  0  0  0
  151.4526  143.0316  158.2195 C   0  0  0  0  0  0  0  0  0  0  0  0
  152.2094  141.7872  158.2567 N   0  0  0  0  0  0  0  0  0  0  0  0
  151.8882  140.9058  157.2160 C   0  0  0  0  0  0  0  0  0  0  0  0
  150.7611  141.1153  156.3879 C   0  0  0  0  0  0  0  0  0  0  0  0
  150.4915  140.1854  155.3658 C   0  0  0  0  0  0  0  0  0  0  0  0
  151.3478  139.0774  155.2043 C   0  0  0  0  0  0  0  0  0  0  0  0
  151.0818  138.0623  154.1035 C   0  0  0  0  0  0  0  0  0  0  0  0
  149.8026  137.3774  154.2451 N   0  0  0  0  0  0  0  0  0  0  0  0
  149.3266  136.8607  155.3876 C   0  0  0  0  0  0  0  0  0  0  0  0
  149.9473  136.8785  156.4502 O   0  0  0  0  0  0  0  0  0  0  0  0
  147.9454  136.2097  155.3205 C   0  0  0  0  0  0  0  0  0  0  0  0
  147.9809  135.1315  154.3977 O   0  0  0  0  0  0  0  0  0  0  0  0
  149.0265  134.2112  154.6661 C   0  0  0  0  0  0  0  0  0  0  0  0
  148.6950  132.8603  154.0203 C   0  0  0  0  0  0  0  0  0  0  0  0
  147.5264  132.4243  154.4890 F   0  0  0  0  0  0  0  0  0  0  0  0
  148.6038  132.9908  152.6973 F   0  0  0  0  0  0  0  0  0  0  0  0
  149.6364  131.9649  154.3184 F   0  0  0  0  0  0  0  0  0  0  0  0
  152.4536  138.9654  156.0774 C   0  0  0  0  0  0  0  0  0  0  0  0
  152.7184  139.8520  157.0601 N   0  0  0  0  0  0  0  0  0  0  0  0
  152.1960  141.1604  159.5718 C   0  0  0  0  0  0  0  0  0  0  0  0
  152.6761  142.1615  160.6361 C   0  0  0  0  0  0  0  0  0  0  0  0
  151.8752  143.3389  160.5788 O   0  0  0  0  0  0  0  0  0  0  0  0
  151.1874  145.8253  158.4334 H   0  0  0  0  0  0  0  0  0  0  0  0
  151.5073  145.9412  160.1613 H   0  0  0  0  0  0  0  0  0  0  0  0
  150.0877  145.0696  159.5862 H   0  0  0  0  0  0  0  0  0  0  0  0
  153.0019  144.2532  159.1170 H   0  0  0  0  0  0  0  0  0  0  0  0
  150.3923  142.8239  158.3704 H   0  0  0  0  0  0  0  0  0  0  0  0
  151.5549  143.4937  157.2366 H   0  0  0  0  0  0  0  0  0  0  0  0
  150.1135  141.9680  156.5303 H   0  0  0  0  0  0  0  0  0  0  0  0
  149.6373  140.3220  154.7190 H   0  0  0  0  0  0  0  0  0  0  0  0
  151.1035  138.5616  153.1339 H   0  0  0  0  0  0  0  0  0  0  0  0
  151.8986  137.3386  154.1095 H   0  0  0  0  0  0  0  0  0  0  0  0
  149.2250  137.3096  153.4193 H   0  0  0  0  0  0  0  0  0  0  0  0
  147.6718  135.8543  156.3149 H   0  0  0  0  0  0  0  0  0  0  0  0
  147.2045  136.9492  155.0119 H   0  0  0  0  0  0  0  0  0  0  0  0
  149.9693  134.5907  154.2687 H   0  0  0  0  0  0  0  0  0  0  0  0
  149.1502  134.0899  155.7436 H   0  0  0  0  0  0  0  0  0  0  0  0
  153.1516  138.1459  155.9905 H   0  0  0  0  0  0  0  0  0  0  0  0
  151.1871  140.8231  159.8122 H   0  0  0  0  0  0  0  0  0  0  0  0
  152.8396  140.2797  159.5675 H   0  0  0  0  0  0  0  0  0  0  0  0
  152.5926  141.7222  161.6301 H   0  0  0  0  0  0  0  0  0  0  0  0
  153.7265  142.4158  160.4867 H   0  0  0  0  0  0  0  0  0  0  0  0
  1  2  1  0  0  0  0
  1 25  1  0  0  0  0
  1 26  1  0  0  0  0
  1 27  1  0  0  0  0
  2 24  1  0  0  0  0
  2  3  1  0  0  0  0
  2 28  1  0  0  0  0
  3  4  1  0  0  0  0
  3 29  1  0  0  0  0
  3 30  1  0  0  0  0
  4  5  1  0  0  0  0
  4 22  1  0  0  0  0
  5 21  1  0  0  0  0
  5  6  2  0  0  0  0
  6  7  1  0  0  0  0
  6 31  1  0  0  0  0
  7  8  2  0  0  0  0
  7 32  1  0  0  0  0
  8  9  1  0  0  0  0
  8 20  1  0  0  0  0
  9 10  1  0  0  0  0
  9 33  1  0  0  0  0
  9 34  1  0  0  0  0
 10 11  1  0  0  0  0
 10 35  1  0  0  0  0
 11 12  2  0  0  0  0
 11 13  1  0  0  0  0
 13 14  1  0  0  0  0
 13 36  1  0  0  0  0
 13 37  1  0  0  0  0
 14 15  1  0  0  0  0
 15 16  1  0  0  0  0
 15 38  1  0  0  0  0
 15 39  1  0  0  0  0
 16 17  1  0  0  0  0
 16 18  1  0  0  0  0
 16 19  1  0  0  0  0
 20 21  2  0  0  0  0
 20 40  1  0  0  0  0
 22 23  1  0  0  0  0
 22 41  1  0  0  0  0
 22 42  1  0  0  0  0
 23 24  1  0  0  0  0
 23 43  1  0  0  0  0
 23 44  1  0  0  0  0
M  END
> <s_m_source_file>
AV-unprocessed.smi

> <i_m_source_file_index>
1390

> <i_lp_mmshare_version>
43012

> <i_f3d_flags>
0

> <s_epik_input>
W0NIM11bQ0BASF0xW0NIMl1OKFtDSDJdW0NIMl1PMSljMltjSF1bY0hdYyhbY0hdbjIpW0NIMl1bTkhdQyg9TylbQ0gyXU9bQ0gyXUMoRikoRilG

> <s_epik_cmdline>
J2VwaWtfcHl0aG9uJywgJy1waCcsICc3LjAnLCAnLXRuJywgJzgnLCAnLW1hJywgJzIwMCcsICctbWV0YWxfYmluZGluZycsICctaW1hZScsICc8aW5maWxlLm1hZT4nLCAnLW9tYWUnLCAnPG91dGZpbGUubWFlPic=

> <r_lp_tautomer_probability>
1

> <r_epik_Ionization_Penalty>
0.00481831

> <r_epik_Ionization_Penalty_Charging>
0

> <r_epik_Ionization_Penalty_Neutral>
0.00481831

> <r_epik_State_Penalty>
0.00349373

> <r_epik_Charging_Adjusted_Penalty>
0.00349373

> <i_epik_Tot_Q>
0

> <i_epik_Tot_abs_Q>
0

> <r_epik_Metal_State_Penalty>
-0

> <b_epik_Metal_Only>
0

> <s_lp_Force_Field>
OPLS_2005

> <r_lp_Energy>
18.3567

> <b_lp_Chiralities_Consistent>
1

> <s_lp_Variant>
AV-unprocessed.smi:1390-1

> <Gold.Version>
5.8.1

> <Gold.Id.Protein>
6NUR|6NUR_protein|mol2

> <Gold.PLP.Fitness>
49.8091

> <Gold.PLP.PLP>
-45.0981

> <Gold.PLP.part.hbond>
-2.0000

> <Gold.PLP.part.metal>
0.0000

> <Gold.PLP.part.buried>
-4.9812

> <Gold.PLP.part.nonpolar>
-38.7517

> <Gold.PLP.part.repulsive>
1.3520

> <Gold.PLP.ligand.clash>
0.3763

> <Gold.PLP.ligand.torsion>
0.3364

> <Gold.PLP.Chemscore.Hbond>
1.8320

> <Gold.PLP.Chemscore.CHOScore>
0.0000

> <Gold.PLP.Chemscore.Metal>
0.0000

> <Gold.Chemscore.Hbonds>
donor molecule, donor type, donor heavy atom, donor atom, acceptor molecule, acceptor atom, score
      L1  H    10    35       P1  7948  0.82
      P1  H  7997  8008       L1    21  0.99

> <Gold.PLP.Chemscore.Internal.Correction>
0.2642

> <Gold.Rescore>
     Score         DG    S(hbond)    S(metal)    S(lipo)     H(rot)  DE(clash)    DE(int)     intcor
     13.20     -14.90       1.30        0.00      99.42       2.57       0.16       1.53       ----

> <Gold.Chemscore.Fitness>
13.2041

> <Gold.Chemscore.DG>
-14.8970

> <Gold.Chemscore.ZeroCoef>
-5.4800

> <Gold.Chemscore.Hbond>
1.3032

> <Gold.Chemscore.Metal>
0.0000

> <Gold.Chemscore.Lipo>
99.4236

> <Gold.Chemscore.Internal_Hbond>
0.0000

> <Gold.Chemscore.DEClash>
0.1624

> <Gold.Chemscore.DEInternal>
1.5305

> <Gold.Chemscore.Rot>
2.5657

> <Gold.Chemscore.Internal.Correction>
   9.000000E+99

> <Gold.Chemscore.Hbonds>
donor molecule, donor type, donor heavy atom, donor atom, acceptor molecule, acceptor atom, score
      L1  H    10    35       P1  7948  0.81
      P1  H  7997  8008       L1    21  0.28

> <Gold.Chemscore.Hbond.Weighted>
-4.3526

> <Gold.Chemscore.Metal.Weighted>
-0.0000

> <Gold.Chemscore.Lipo.Weighted>
-11.6326

> <Gold.Chemscore.Internal_Hbond.Weighted>
0.0000

> <Gold.Chemscore.DEClash.Weighted>
0.1624

> <Gold.Chemscore.DEInternal.Weighted>
1.5305

> <Gold.Chemscore.Rot.Weighted>
6.5682

> <Gold.Chemscore.Internal.Correction.Weighted>
   9.000000E+99

> <Gold.Protein.RotatedTorsions>
[ 6907 6896 6895 6894 ] final -109.81 input  -60.11 | X-H torsion
[ 7974 7965 7964 7962 ] final -121.05 input  175.53 | X-H torsion
[ 8008 7997 7996 7995 ] final  -76.49 input   59.86 | X-H torsion
[ 10167 10162 10161 10158 ] final    0.92 input  -65.29 | X-H torsion
[ 10718 10713 10712 10709 ] final -109.71 input   66.30 | X-H torsion
[ 10763 10752 10751 10750 ] final  -87.34 input  -60.55 | X-H torsion
[ 11005 11000 10999 10996 ] final  116.23 input  -57.11 | X-H torsion

> <Gold.Protein.ActiveResidues>
 VAL166  LYS551  ARG553  GLY616  TRP617  ASP618  TYR619  PRO620  LYS621  CYS622 
 ASP623  PHE694  ASN695  SER759  ASP760  ASP761  ALA762  ILE779  LEU786  VAL792 
 PHE793  MET794  SER795  GLU796  ALA797  LYS798  CYS799  TRP800  GLU811  SER814 

> <Gold.Protein.RotatedAtoms>
  150.7585  133.9474  159.3474 H   0  0  0  0  0  0  0  0  0  0  0  0  # atno 6907 bound_to 6896
  151.7388  135.0857  160.0322 H   0  0  0  0  0  0  0  0  0  0  0  0  # atno 6908 bound_to 6896
  152.3542  133.6179  159.6003 H   0  0  0  0  0  0  0  0  0  0  0  0  # atno 6909 bound_to 6896
  145.0446  140.8171  143.4246 H   0  0  0  0  0  0  0  0  0  0  0  0  # atno 7974 bound_to 7965
  154.5510  140.0726  156.8667 H   0  0  0  0  0  0  0  0  0  0  0  0  # atno 8008 bound_to 7997
  155.2993  140.3383  155.4230 H   0  0  0  0  0  0  0  0  0  0  0  0  # atno 8009 bound_to 7997
  156.1961  140.1704  156.7981 H   0  0  0  0  0  0  0  0  0  0  0  0  # atno 8010 bound_to 7997
  140.6706  143.7058  150.7916 H   0  0  0  0  0  0  0  0  0  0  0  0  # atno 10167 bound_to 10162
  156.0551  130.5778  150.8137 H   0  0  0  0  0  0  0  0  0  0  0  0  # atno 10718 bound_to 10713
  154.6326  135.5416  153.7697 H   0  0  0  0  0  0  0  0  0  0  0  0  # atno 10763 bound_to 10752
  153.0292  135.6439  154.1279 H   0  0  0  0  0  0  0  0  0  0  0  0  # atno 10764 bound_to 10752
  154.1208  135.2920  155.3189 H   0  0  0  0  0  0  0  0  0  0  0  0  # atno 10765 bound_to 10752
  139.9035  134.9595  156.7167 H   0  0  0  0  0  0  0  0  0  0  0  0  # atno 11005 bound_to 11000
  145.1605  139.2461  143.5394 LP  0  0  0  0  0  0  0  0  0  0  0  0  # atno 17320 bound_to 7965
  146.3512  140.1330  142.8596 LP  0  0  0  0  0  0  0  0  0  0  0  0  # atno 17321 bound_to 7965
  140.0742  143.5031  152.2564 LP  0  0  0  0  0  0  0  0  0  0  0  0  # atno 17342 bound_to 10162
  139.5974  144.7571  151.3254 LP  0  0  0  0  0  0  0  0  0  0  0  0  # atno 17343 bound_to 10162
  157.5514  131.0944  150.9690 LP  0  0  0  0  0  0  0  0  0  0  0  0  # atno 17370 bound_to 10713
  156.9949  130.5577  149.5306 LP  0  0  0  0  0  0  0  0  0  0  0  0  # atno 17371 bound_to 10713
  140.7033  133.9287  155.8038 LP  0  0  0  0  0  0  0  0  0  0  0  0  # atno 17394 bound_to 11000
  141.0355  134.0695  157.3964 LP  0  0  0  0  0  0  0  0  0  0  0  0  # atno 17395 bound_to 11000

$$$$
