AV-unprocessed.smi:3114|AV-procd|sdf|11857|dock1
  -GOLD-   2272017243D 1   1.00000     0.00000
 Structure written by MMmdl.
 31 31  0  0  0  0  0  0  0  0  2 V2000
  153.2883  142.5687  162.0714 C   0  0  0  0  0  0  0  0  0  0  0  0
  153.1958  142.5362  160.6551 O   0  0  0  0  0  0  0  0  0  0  0  0
  152.1633  143.2331  160.0687 C   0  0  0  0  0  0  0  0  0  0  0  0
  151.5712  144.4039  160.5906 C   0  0  0  0  0  0  0  0  0  0  0  0
  150.5279  144.9746  159.8395 C   0  0  0  0  0  0  0  0  0  0  0  0
  150.1335  144.4107  158.6720 N   0  3  0  0  0  0  0  0  0  0  0  0
  150.7437  143.3017  158.2286 C   0  0  0  0  0  0  0  0  0  0  0  0
  150.3231  142.7829  157.0156 N   0  0  0  0  0  0  0  0  0  0  0  0
  150.8885  141.5862  156.4045 C   0  0  0  0  0  0  0  0  0  0  0  0
  149.9600  140.9899  155.3355 C   0  0  0  0  0  0  0  0  0  0  0  0
  150.6869  140.0383  154.5786 O   0  0  0  0  0  0  0  0  0  0  0  0
  151.3535  139.0715  155.3696 C   0  0  0  0  0  0  0  0  0  0  0  0
  152.2142  138.2031  154.4443 C   0  0  0  0  0  0  0  0  0  0  0  0
  151.5537  136.9849  154.1717 O   0  0  0  0  0  0  0  0  0  0  0  0
  151.7326  142.7025  158.9071 N   0  0  0  0  0  0  0  0  0  0  0  0
  154.1511  141.9840  162.3899 H   0  0  0  0  0  0  0  0  0  0  0  0
  152.4035  142.1332  162.5381 H   0  0  0  0  0  0  0  0  0  0  0  0
  153.4257  143.5870  162.4380 H   0  0  0  0  0  0  0  0  0  0  0  0
  151.8860  144.8596  161.5174 H   0  0  0  0  0  0  0  0  0  0  0  0
  149.9979  145.8689  160.1328 H   0  0  0  0  0  0  0  0  0  0  0  0
  149.8214  143.4123  156.4064 H   0  0  0  0  0  0  0  0  0  0  0  0
  151.8777  141.7903  155.9931 H   0  0  0  0  0  0  0  0  0  0  0  0
  151.0316  140.8561  157.2012 H   0  0  0  0  0  0  0  0  0  0  0  0
  149.1152  140.4899  155.8108 H   0  0  0  0  0  0  0  0  0  0  0  0
  149.5560  141.7797  154.6995 H   0  0  0  0  0  0  0  0  0  0  0  0
  151.9924  139.5859  156.0891 H   0  0  0  0  0  0  0  0  0  0  0  0
  150.6479  138.4609  155.9355 H   0  0  0  0  0  0  0  0  0  0  0  0
  152.4505  138.7246  153.5161 H   0  0  0  0  0  0  0  0  0  0  0  0
  153.1594  137.9664  154.9334 H   0  0  0  0  0  0  0  0  0  0  0  0
  151.3445  136.9576  153.2503 H   0  0  0  0  0  0  0  0  0  0  0  0
  149.3821  144.8442  158.1351 H   0  0  0  0  0  0  0  0  0  0  0  0
  1  2  1  0  0  0  0
  1 16  1  0  0  0  0
  1 17  1  0  0  0  0
  1 18  1  0  0  0  0
  2  3  1  0  0  0  0
  3 15  1  0  0  0  0
  3  4  2  0  0  0  0
  4  5  1  0  0  0  0
  4 19  1  0  0  0  0
  5  6  2  0  0  0  0
  5 20  1  0  0  0  0
  6  7  1  0  0  0  0
  6 31  1  0  0  0  0
  7  8  1  0  0  0  0
  7 15  2  0  0  0  0
  8  9  1  0  0  0  0
  8 21  1  0  0  0  0
  9 10  1  0  0  0  0
  9 22  1  0  0  0  0
  9 23  1  0  0  0  0
 10 11  1  0  0  0  0
 10 24  1  0  0  0  0
 10 25  1  0  0  0  0
 11 12  1  0  0  0  0
 12 13  1  0  0  0  0
 12 26  1  0  0  0  0
 12 27  1  0  0  0  0
 13 14  1  0  0  0  0
 13 28  1  0  0  0  0
 13 29  1  0  0  0  0
 14 30  1  0  0  0  0
M  CHG  1   6   1
M  END
> <s_m_source_file>
AV-unprocessed.smi

> <i_m_source_file_index>
3114

> <i_lp_mmshare_version>
43012

> <i_f3d_flags>
0

> <s_epik_input>
W0NIM11PYzFbY0hdW2NIXW5jKG4xKVtOSF1bQ0gyXVtDSDJdT1tDSDJdW0NIMl1bT0hd

> <s_epik_cmdline>
J2VwaWtfcHl0aG9uJywgJy1waCcsICc3LjAnLCAnLXRuJywgJzgnLCAnLW1hJywgJzIwMCcsICctbWV0YWxfYmluZGluZycsICctaW1hZScsICc8aW5maWxlLm1hZT4nLCAnLW9tYWUnLCAnPG91dGZpbGUubWFlPic=

> <r_lp_tautomer_probability>
0.999985

> <r_epik_Ionization_Penalty>
1.70515

> <r_epik_Ionization_Penalty_Charging>
1.70513

> <r_epik_Ionization_Penalty_Neutral>
1.12168e-05

> <r_epik_State_Penalty>
1.81144

> <r_epik_Charging_Adjusted_Penalty>
3.51658

> <i_epik_Tot_Q>
1

> <i_epik_Tot_abs_Q>
1

> <r_epik_Metal_State_Penalty>
1.84414

> <b_epik_Metal_Only>
0

> <s_lp_Force_Field>
OPLS_2005

> <r_lp_Energy>
4.65806

> <b_lp_Chiralities_Consistent>
1

> <s_lp_Variant>
AV-unprocessed.smi:3114-2

> <Gold.Version>
5.8.1

> <Gold.Id.Protein>
6NUR|6NUR_protein|mol2

> <Gold.PLP.Fitness>
55.8747

> <Gold.PLP.PLP>
-36.5321

> <Gold.PLP.part.hbond>
-5.2869

> <Gold.PLP.part.metal>
0.0000

> <Gold.PLP.part.buried>
-7.7621

> <Gold.PLP.part.nonpolar>
-24.1886

> <Gold.PLP.part.repulsive>
0.2522

> <Gold.PLP.ligand.clash>
0.0000

> <Gold.PLP.ligand.torsion>
0.8562

> <Gold.PLP.Chemscore.Hbond>
7.0000

> <Gold.PLP.Chemscore.CHOScore>
0.0000

> <Gold.PLP.Chemscore.Metal>
0.0000

> <Gold.Chemscore.Hbonds>
donor molecule, donor type, donor heavy atom, donor atom, acceptor molecule, acceptor atom, score
      L1  H     6    31       P1  8029  1.98
      L1  H     8    21       P1  8028  2.00
      L1  H    14    30       P1  7949  1.00
      P1  H  7989  7998       L1    11  1.00
      P1  H 10752 10763       L1    14  0.90

> <Gold.PLP.Chemscore.Internal.Correction>
0.0551

> <Gold.Rescore>
     Score         DG    S(hbond)    S(metal)    S(lipo)     H(rot)  DE(clash)    DE(int)     intcor
     14.81     -15.71       3.40        0.00      62.37       3.29       0.05       0.85       ----

> <Gold.Chemscore.Fitness>
14.8086

> <Gold.Chemscore.DG>
-15.7087

> <Gold.Chemscore.ZeroCoef>
-5.4800

> <Gold.Chemscore.Hbond>
3.4016

> <Gold.Chemscore.Metal>
0.0000

> <Gold.Chemscore.Lipo>
62.3717

> <Gold.Chemscore.Internal_Hbond>
0.0000

> <Gold.Chemscore.DEClash>
0.0456

> <Gold.Chemscore.DEInternal>
0.8544

> <Gold.Chemscore.Rot>
3.2930

> <Gold.Chemscore.Internal.Correction>
   9.000000E+99

> <Gold.Chemscore.Hbonds>
donor molecule, donor type, donor heavy atom, donor atom, acceptor molecule, acceptor atom, score
      L1  H     6    31       P1  8029  0.24
      L1  H     8    21       P1  8028  1.00
      L1  H    14    30       P1  7949  0.68
      P1  H  7989  7998       L1    11  0.60
      P1  H 10752 10763       L1    14  0.08

> <Gold.Chemscore.Hbond.Weighted>
-11.3614

> <Gold.Chemscore.Metal.Weighted>
-0.0000

> <Gold.Chemscore.Lipo.Weighted>
-7.2975

> <Gold.Chemscore.Internal_Hbond.Weighted>
0.0000

> <Gold.Chemscore.DEClash.Weighted>
0.0456

> <Gold.Chemscore.DEInternal.Weighted>
0.8544

> <Gold.Chemscore.Rot.Weighted>
8.4302

> <Gold.Chemscore.Internal.Correction.Weighted>
   9.000000E+99

> <Gold.Protein.RotatedTorsions>
[ 6907 6896 6895 6894 ] final -122.83 input  -60.11 | X-H torsion
[ 7974 7965 7964 7962 ] final   33.11 input  175.53 | X-H torsion
[ 8008 7997 7996 7995 ] final   86.36 input   59.86 | X-H torsion
[ 10167 10162 10161 10158 ] final  151.64 input  -65.29 | X-H torsion
[ 10718 10713 10712 10709 ] final  -49.83 input   66.30 | X-H torsion
[ 10763 10752 10751 10750 ] final   35.04 input  -60.55 | X-H torsion
[ 11005 11000 10999 10996 ] final   70.32 input  -57.11 | X-H torsion

> <Gold.Protein.ActiveResidues>
 VAL166  LYS551  ARG553  GLY616  TRP617  ASP618  TYR619  PRO620  LYS621  CYS622 
 ASP623  PHE694  ASN695  SER759  ASP760  ASP761  ALA762  ILE779  LEU786  VAL792 
 PHE793  MET794  SER795  GLU796  ALA797  LYS798  CYS799  TRP800  GLU811  SER814 

> <Gold.Protein.RotatedAtoms>
  150.8612  133.7640  159.2991 H   0  0  0  0  0  0  0  0  0  0  0  0  # atno 6907 bound_to 6896
  151.5282  135.1066  159.9905 H   0  0  0  0  0  0  0  0  0  0  0  0  # atno 6908 bound_to 6896
  152.4628  133.7814  159.6908 H   0  0  0  0  0  0  0  0  0  0  0  0  # atno 6909 bound_to 6896
  146.1442  139.6439  142.9142 H   0  0  0  0  0  0  0  0  0  0  0  0  # atno 7974 bound_to 7965
  155.9618  140.3393  155.6497 H   0  0  0  0  0  0  0  0  0  0  0  0  # atno 8008 bound_to 7997
  155.6788  140.0735  157.2510 H   0  0  0  0  0  0  0  0  0  0  0  0  # atno 8009 bound_to 7997
  154.4145  140.1678  156.1947 H   0  0  0  0  0  0  0  0  0  0  0  0  # atno 8010 bound_to 7997
  139.4839  144.5424  151.7542 H   0  0  0  0  0  0  0  0  0  0  0  0  # atno 10167 bound_to 10162
  156.1857  130.4151  149.9443 H   0  0  0  0  0  0  0  0  0  0  0  0  # atno 10718 bound_to 10713
  153.0137  135.6344  154.1763 H   0  0  0  0  0  0  0  0  0  0  0  0  # atno 10763 bound_to 10752
  154.1504  135.2829  155.3138 H   0  0  0  0  0  0  0  0  0  0  0  0  # atno 10764 bound_to 10752
  154.6058  135.5572  153.7482 H   0  0  0  0  0  0  0  0  0  0  0  0  # atno 10765 bound_to 10752
  139.9604  134.7071  156.0658 H   0  0  0  0  0  0  0  0  0  0  0  0  # atno 11005 bound_to 11000
  145.4976  141.0438  143.2558 LP  0  0  0  0  0  0  0  0  0  0  0  0  # atno 17320 bound_to 7965
  144.7827  139.6492  143.7147 LP  0  0  0  0  0  0  0  0  0  0  0  0  # atno 17321 bound_to 7965
  140.4966  144.1232  150.5961 LP  0  0  0  0  0  0  0  0  0  0  0  0  # atno 17342 bound_to 10162
  140.4111  143.2656  151.9832 LP  0  0  0  0  0  0  0  0  0  0  0  0  # atno 17343 bound_to 10162
  156.7199  130.9003  151.3617 LP  0  0  0  0  0  0  0  0  0  0  0  0  # atno 17370 bound_to 10713
  157.6897  130.9221  150.0481 LP  0  0  0  0  0  0  0  0  0  0  0  0  # atno 17371 bound_to 10713
  141.1281  133.6594  156.3389 LP  0  0  0  0  0  0  0  0  0  0  0  0  # atno 17394 bound_to 11000
  140.5513  134.6025  157.5408 LP  0  0  0  0  0  0  0  0  0  0  0  0  # atno 17395 bound_to 11000

$$$$
