AV-unprocessed.smi:232|AV-procd|sdf|1779|dock5
  -GOLD-   2262020323D 1   1.00000     0.00000
 Structure written by MMmdl.
 52 55  0  0  0  0  0  0  0  0  1 V2000
  152.3852  143.4219  160.7153 C   0  0  0  0  0  0  0  0  0  0  0  0
  153.1108  142.5116  159.7152 C   0  0  0  0  0  0  0  0  0  0  0  0
  153.3037  141.0727  160.2278 C   0  0  2  0  0  0  0  0  0  0  0  0
  154.4606  140.9394  161.2345 C   0  0  0  0  0  0  0  0  0  0  0  0
  155.0785  139.5831  160.9099 C   0  0  0  0  0  0  0  0  0  0  0  0
  154.9078  139.5334  159.3953 C   0  0  1  0  0  0  0  0  0  0  0  0
  155.1751  138.1545  158.7592 C   0  0  0  0  0  0  0  0  0  0  0  0
  153.5950  140.1308  159.1398 N   0  0  0  0  0  0  0  0  0  0  0  0
  152.5841  139.3048  158.7767 C   0  0  0  0  0  0  0  0  0  0  0  0
  152.1602  138.3201  159.6130 N   0  0  0  0  0  0  0  0  0  0  0  0
  151.1654  137.5091  159.2391 C   0  0  0  0  0  0  0  0  0  0  0  0
  150.4749  137.5057  158.0962 N   0  0  0  0  0  0  0  0  0  0  0  0
  150.9084  138.4870  157.2537 C   0  0  0  0  0  0  0  0  0  0  0  0
  151.9512  139.4190  157.5120 C   0  0  0  0  0  0  0  0  0  0  0  0
  152.1171  140.2658  156.4237 N   0  0  0  0  0  0  0  0  0  0  0  0
  151.2167  139.8604  155.5697 C   0  0  0  0  0  0  0  0  0  0  0  0
  150.4445  138.8006  155.9894 N   0  0  0  0  0  0  0  0  0  0  0  0
  149.3685  138.1604  155.2549 C   0  0  0  0  0  0  0  0  0  0  0  0
  148.8474  139.0394  154.1016 C   0  0  1  0  0  0  0  0  0  0  0  0
  148.0259  138.2842  153.2311 O   0  0  0  0  0  0  0  0  0  0  0  0
  148.0991  140.2937  154.5955 C   0  0  1  0  0  0  0  0  0  0  0  0
  147.5296  141.2164  153.5143 C   0  0  0  0  0  0  0  0  0  0  0  0
  146.4305  141.9211  154.2771 C   0  0  0  0  0  0  0  0  0  0  0  0
  145.8908  140.7952  155.1553 C   0  0  0  0  0  0  0  0  0  0  0  0
  147.0073  139.9598  155.4498 O   0  0  0  0  0  0  0  0  0  0  0  0
  152.3267  144.4427  160.3374 H   0  0  0  0  0  0  0  0  0  0  0  0
  152.9076  143.4510  161.6718 H   0  0  0  0  0  0  0  0  0  0  0  0
  151.3666  143.0808  160.8995 H   0  0  0  0  0  0  0  0  0  0  0  0
  152.5708  142.5019  158.7677 H   0  0  0  0  0  0  0  0  0  0  0  0
  154.0889  142.9457  159.5048 H   0  0  0  0  0  0  0  0  0  0  0  0
  152.3907  140.7822  160.7484 H   0  0  0  0  0  0  0  0  0  0  0  0
  155.2034  141.7208  161.0670 H   0  0  0  0  0  0  0  0  0  0  0  0
  154.1280  141.0147  162.2701 H   0  0  0  0  0  0  0  0  0  0  0  0
  156.1194  139.5043  161.2245 H   0  0  0  0  0  0  0  0  0  0  0  0
  154.5115  138.7827  161.3878 H   0  0  0  0  0  0  0  0  0  0  0  0
  155.6288  140.2253  158.9573 H   0  0  0  0  0  0  0  0  0  0  0  0
  156.1993  137.8358  158.9533 H   0  0  0  0  0  0  0  0  0  0  0  0
  155.0429  138.1856  157.6772 H   0  0  0  0  0  0  0  0  0  0  0  0
  154.5150  137.3842  159.1594 H   0  0  0  0  0  0  0  0  0  0  0  0
  150.8815  136.7560  159.9592 H   0  0  0  0  0  0  0  0  0  0  0  0
  151.0852  140.3310  154.6062 H   0  0  0  0  0  0  0  0  0  0  0  0
  149.7268  137.2019  154.8773 H   0  0  0  0  0  0  0  0  0  0  0  0
  148.5622  137.9391  155.9554 H   0  0  0  0  0  0  0  0  0  0  0  0
  149.7012  139.3725  153.5099 H   0  0  0  0  0  0  0  0  0  0  0  0
  148.1548  138.6026  152.3507 H   0  0  0  0  0  0  0  0  0  0  0  0
  148.7852  140.8833  155.2061 H   0  0  0  0  0  0  0  0  0  0  0  0
  148.2735  141.8999  153.1041 H   0  0  0  0  0  0  0  0  0  0  0  0
  147.0949  140.6515  152.6891 H   0  0  0  0  0  0  0  0  0  0  0  0
  146.8525  142.7134  154.8971 H   0  0  0  0  0  0  0  0  0  0  0  0
  145.6705  142.3595  153.6298 H   0  0  0  0  0  0  0  0  0  0  0  0
  145.4176  141.1651  156.0651 H   0  0  0  0  0  0  0  0  0  0  0  0
  145.1552  140.2066  154.6059 H   0  0  0  0  0  0  0  0  0  0  0  0
  1  2  1  0  0  0  0
  1 26  1  0  0  0  0
  1 27  1  0  0  0  0
  1 28  1  0  0  0  0
  2  3  1  0  0  0  0
  2 29  1  0  0  0  0
  2 30  1  0  0  0  0
  3  8  1  0  0  0  0
  3  4  1  0  0  0  0
  3 31  1  0  0  0  0
  4  5  1  0  0  0  0
  4 32  1  0  0  0  0
  4 33  1  0  0  0  0
  5  6  1  0  0  0  0
  5 34  1  0  0  0  0
  5 35  1  0  0  0  0
  6  7  1  0  0  0  0
  6  8  1  0  0  0  0
  6 36  1  0  0  0  0
  7 37  1  0  0  0  0
  7 38  1  0  0  0  0
  7 39  1  0  0  0  0
  8  9  1  0  0  0  0
  9 14  1  0  0  0  0
  9 10  2  0  0  0  0
 10 11  1  0  0  0  0
 11 12  2  0  0  0  0
 11 40  1  0  0  0  0
 12 13  1  0  0  0  0
 13 17  1  0  0  0  0
 13 14  2  0  0  0  0
 14 15  1  0  0  0  0
 15 16  2  0  0  0  0
 16 17  1  0  0  0  0
 16 41  1  0  0  0  0
 17 18  1  0  0  0  0
 18 19  1  0  0  0  0
 18 42  1  0  0  0  0
 18 43  1  0  0  0  0
 19 20  1  0  0  0  0
 19 21  1  0  0  0  0
 19 44  1  0  0  0  0
 20 45  1  0  0  0  0
 21 25  1  0  0  0  0
 21 22  1  0  0  0  0
 21 46  1  0  0  0  0
 22 23  1  0  0  0  0
 22 47  1  0  0  0  0
 22 48  1  0  0  0  0
 23 24  1  0  0  0  0
 23 49  1  0  0  0  0
 23 50  1  0  0  0  0
 24 25  1  0  0  0  0
 24 51  1  0  0  0  0
 24 52  1  0  0  0  0
M  END
> <s_m_source_file>
AV-unprocessed.smi

> <i_m_source_file_index>
232

> <i_lp_mmshare_version>
43012

> <i_f3d_flags>
0

> <s_epik_input>
W0NIM11bQ0gyXVtDQEBIXTFbQ0gyXVtDSDJdW0NAQEhdKFtDSDNdKU4xYyhuW2NIXW4yKWMoYzIzKW5bY0hdbjNbQ0gyXVtDQEhdKFtPSF0pW0NAQEhdNFtDSDJdW0NIMl1bQ0gyXU80

> <s_epik_cmdline>
J2VwaWtfcHl0aG9uJywgJy1waCcsICc3LjAnLCAnLXRuJywgJzgnLCAnLW1hJywgJzIwMCcsICctbWV0YWxfYmluZGluZycsICctaW1hZScsICc8aW5maWxlLm1hZT4nLCAnLW9tYWUnLCAnPG91dGZpbGUubWFlPic=

> <r_lp_tautomer_probability>
1

> <r_epik_Ionization_Penalty>
0.00258048

> <r_epik_Ionization_Penalty_Charging>
0

> <r_epik_Ionization_Penalty_Neutral>
0.00258048

> <r_epik_State_Penalty>
0.00168551

> <r_epik_Charging_Adjusted_Penalty>
0.00168551

> <i_epik_Tot_Q>
0

> <i_epik_Tot_abs_Q>
0

> <r_epik_Metal_State_Penalty>
-0

> <b_epik_Metal_Only>
0

> <s_lp_Force_Field>
OPLS_2005

> <r_lp_Energy>
58.3384

> <b_lp_Chiralities_Consistent>
1

> <s_lp_Variant>
AV-unprocessed.smi:232-13

> <Gold.Version>
5.8.1

> <Gold.Id.Protein>
6NUR|6NUR_protein|mol2

> <Gold.PLP.Fitness>
44.1436

> <Gold.PLP.PLP>
-39.1685

> <Gold.PLP.part.hbond>
-3.2610

> <Gold.PLP.part.metal>
0.0000

> <Gold.PLP.part.buried>
-0.8263

> <Gold.PLP.part.nonpolar>
-34.1686

> <Gold.PLP.part.repulsive>
0.0267

> <Gold.PLP.ligand.clash>
0.0000

> <Gold.PLP.ligand.torsion>
0.5604

> <Gold.PLP.Chemscore.Hbond>
1.9600

> <Gold.PLP.Chemscore.CHOScore>
0.0000

> <Gold.PLP.Chemscore.Metal>
0.0000

> <Gold.Chemscore.Hbonds>
donor molecule, donor type, donor heavy atom, donor atom, acceptor molecule, acceptor atom, score
      L1  H    20    45       P1  7957  0.19
      P1  H  7997  8009       L1    15  0.46

> <Gold.PLP.Chemscore.Internal.Correction>
0.2160

> <Gold.Rescore>
     Score         DG    S(hbond)    S(metal)    S(lipo)     H(rot)  DE(clash)    DE(int)     intcor
     14.47     -16.24       1.83        0.00      92.87       2.43       0.09       1.68       ----

> <Gold.Chemscore.Fitness>
14.4711

> <Gold.Chemscore.DG>
-16.2416

> <Gold.Chemscore.ZeroCoef>
-5.4800

> <Gold.Chemscore.Hbond>
1.8283

> <Gold.Chemscore.Metal>
0.0000

> <Gold.Chemscore.Lipo>
92.8706

> <Gold.Chemscore.Internal_Hbond>
0.0000

> <Gold.Chemscore.DEClash>
0.0928

> <Gold.Chemscore.DEInternal>
1.6777

> <Gold.Chemscore.Rot>
2.4260

> <Gold.Chemscore.Internal.Correction>
   9.000000E+99

> <Gold.Chemscore.Hbonds>
donor molecule, donor type, donor heavy atom, donor atom, acceptor molecule, acceptor atom, score
      L1  H    20    45       P1  7957  0.18
      P1  H  7997  8009       L1    15  0.08

> <Gold.Chemscore.Hbond.Weighted>
-6.1064

> <Gold.Chemscore.Metal.Weighted>
-0.0000

> <Gold.Chemscore.Lipo.Weighted>
-10.8659

> <Gold.Chemscore.Internal_Hbond.Weighted>
0.0000

> <Gold.Chemscore.DEClash.Weighted>
0.0928

> <Gold.Chemscore.DEInternal.Weighted>
1.6777

> <Gold.Chemscore.Rot.Weighted>
6.2107

> <Gold.Chemscore.Internal.Correction.Weighted>
   9.000000E+99

> <Gold.Protein.RotatedTorsions>
[ 6907 6896 6895 6894 ] final    0.25 input  -60.11 | X-H torsion
[ 7974 7965 7964 7962 ] final  117.02 input  175.53 | X-H torsion
[ 8008 7997 7996 7995 ] final -162.36 input   59.86 | X-H torsion
[ 10167 10162 10161 10158 ] final -130.86 input  -65.29 | X-H torsion
[ 10718 10713 10712 10709 ] final   -8.69 input   66.30 | X-H torsion
[ 10763 10752 10751 10750 ] final  -46.51 input  -60.55 | X-H torsion
[ 11005 11000 10999 10996 ] final  -38.14 input  -57.11 | X-H torsion

> <Gold.Protein.ActiveResidues>
 VAL166  LYS551  ARG553  GLY616  TRP617  ASP618  TYR619  PRO620  LYS621  CYS622 
 ASP623  PHE694  ASN695  SER759  ASP760  ASP761  ALA762  ILE779  LEU786  VAL792 
 PHE793  MET794  SER795  GLU796  ALA797  LYS798  CYS799  TRP800  GLU811  SER814 

> <Gold.Protein.RotatedAtoms>
  151.5734  135.1061  160.0000 H   0  0  0  0  0  0  0  0  0  0  0  0  # atno 6907 bound_to 6896
  152.4390  133.7408  159.6650 H   0  0  0  0  0  0  0  0  0  0  0  0  # atno 6908 bound_to 6896
  150.8292  133.8051  159.3129 H   0  0  0  0  0  0  0  0  0  0  0  0  # atno 6909 bound_to 6896
  145.1725  139.3094  143.4460 H   0  0  0  0  0  0  0  0  0  0  0  0  # atno 7974 bound_to 7965
  155.8057  140.0898  157.1932 H   0  0  0  0  0  0  0  0  0  0  0  0  # atno 8008 bound_to 7997
  154.3981  140.1464  156.3386 H   0  0  0  0  0  0  0  0  0  0  0  0  # atno 8009 bound_to 7997
  155.8417  140.3438  155.5638 H   0  0  0  0  0  0  0  0  0  0  0  0  # atno 8010 bound_to 7997
  139.9249  143.6339  152.2544 H   0  0  0  0  0  0  0  0  0  0  0  0  # atno 10167 bound_to 10162
  156.6990  130.5087  149.5922 H   0  0  0  0  0  0  0  0  0  0  0  0  # atno 10718 bound_to 10713
  154.0461  135.6637  153.4795 H   0  0  0  0  0  0  0  0  0  0  0  0  # atno 10763 bound_to 10752
  153.0482  135.5101  154.7795 H   0  0  0  0  0  0  0  0  0  0  0  0  # atno 10764 bound_to 10752
  154.6787  135.3041  154.9609 H   0  0  0  0  0  0  0  0  0  0  0  0  # atno 10765 bound_to 10752
  141.0005  133.6958  156.2014 H   0  0  0  0  0  0  0  0  0  0  0  0  # atno 11005 bound_to 11000
  146.3466  140.1875  142.8589 LP  0  0  0  0  0  0  0  0  0  0  0  0  # atno 17320 bound_to 7965
  145.0219  140.8800  143.5162 LP  0  0  0  0  0  0  0  0  0  0  0  0  # atno 17321 bound_to 7965
  139.6830  144.7654  151.1573 LP  0  0  0  0  0  0  0  0  0  0  0  0  # atno 17342 bound_to 10162
  140.7653  143.5697  150.9009 LP  0  0  0  0  0  0  0  0  0  0  0  0  # atno 17343 bound_to 10162
  156.1743  130.6457  151.0875 LP  0  0  0  0  0  0  0  0  0  0  0  0  # atno 17370 bound_to 10713
  157.6980  131.0786  150.6908 LP  0  0  0  0  0  0  0  0  0  0  0  0  # atno 17371 bound_to 10713
  140.6896  134.4680  157.5589 LP  0  0  0  0  0  0  0  0  0  0  0  0  # atno 17394 bound_to 11000
  139.9036  134.8499  156.1793 LP  0  0  0  0  0  0  0  0  0  0  0  0  # atno 17395 bound_to 11000

$$$$
