AV-unprocessed.smi:1898|AV-procd|sdf|7704|dock2
  -GOLD-   22720 9443D 1   1.00000     0.00000
 Structure written by MMmdl.
 46 47  0  0  0  0  0  0  0  0  3 V2000
  149.9134  131.0246  154.2546 C   0  0  0  0  0  0  0  0  0  0  0  0
  148.4682  131.0887  154.0700 N   0  5  0  0  0  0  0  0  0  0  0  0
  147.8195  132.1885  153.6017 C   0  0  0  0  0  0  0  0  0  0  0  0
  148.1904  133.3632  153.5071 O   0  0  0  0  0  0  0  0  0  0  0  0
  146.4114  131.8340  153.1098 C   0  0  0  0  0  0  0  0  0  0  0  0
  145.7225  133.0530  152.6180 N   0  3  2  0  0  0  0  0  0  0  0  0
  146.3968  133.6446  151.4351 C   0  0  0  0  0  0  0  0  0  0  0  0
  145.5788  134.8118  150.8533 C   0  0  0  0  0  0  0  0  0  0  0  0
  145.2816  135.8924  151.9072 C   0  0  2  0  0  0  0  0  0  0  0  0
  146.4973  136.6371  152.2342 N   0  0  0  0  0  0  0  0  0  0  0  0
  146.5421  137.7840  152.9273 C   0  0  0  0  0  0  0  0  0  0  0  0
  145.5446  138.3350  153.3920 O   0  0  0  0  0  0  0  0  0  0  0  0
  147.8055  138.2241  153.0530 N   0  0  0  0  0  0  0  0  0  0  0  0
  148.2796  139.3995  153.6992 C   0  0  0  0  0  0  0  0  0  0  0  0
  147.4882  140.5545  153.9125 C   0  0  0  0  0  0  0  0  0  0  0  0
  148.0654  141.6708  154.5453 C   0  0  0  0  0  0  0  0  0  0  0  0
  149.4149  141.5968  154.9354 C   0  0  0  0  0  0  0  0  0  0  0  0
  150.1853  140.5096  154.7267 N   0  0  0  0  0  0  0  0  0  0  0  0
  149.6311  139.4320  154.1164 C   0  0  0  0  0  0  0  0  0  0  0  0
  150.4237  138.3208  153.8986 O   0  0  0  0  0  0  0  0  0  0  0  0
  151.7708  138.3461  154.3583 C   0  0  0  0  0  0  0  0  0  0  0  0
  144.6540  135.2444  153.1571 C   0  0  0  0  0  0  0  0  0  0  0  0
  145.4939  134.0666  153.6826 C   0  0  0  0  0  0  0  0  0  0  0  0
  150.2374  130.0342  154.5734 H   0  0  0  0  0  0  0  0  0  0  0  0
  150.2669  131.7247  155.0118 H   0  0  0  0  0  0  0  0  0  0  0  0
  150.4607  131.2478  153.3381 H   0  0  0  0  0  0  0  0  0  0  0  0
  146.4091  131.0563  152.3427 H   0  0  0  0  0  0  0  0  0  0  0  0
  145.8758  131.4215  153.9659 H   0  0  0  0  0  0  0  0  0  0  0  0
  147.3969  133.9796  151.7148 H   0  0  0  0  0  0  0  0  0  0  0  0
  146.5230  132.8827  150.6649 H   0  0  0  0  0  0  0  0  0  0  0  0
  146.1001  135.2473  149.9999 H   0  0  0  0  0  0  0  0  0  0  0  0
  144.6360  134.4239  150.4652 H   0  0  0  0  0  0  0  0  0  0  0  0
  144.5626  136.5916  151.4762 H   0  0  0  0  0  0  0  0  0  0  0  0
  147.3689  136.2568  151.8958 H   0  0  0  0  0  0  0  0  0  0  0  0
  148.5254  137.6172  152.6887 H   0  0  0  0  0  0  0  0  0  0  0  0
  146.4598  140.6144  153.5926 H   0  0  0  0  0  0  0  0  0  0  0  0
  147.4874  142.5656  154.7224 H   0  0  0  0  0  0  0  0  0  0  0  0
  149.8905  142.4354  155.4221 H   0  0  0  0  0  0  0  0  0  0  0  0
  152.2544  137.4017  154.1090 H   0  0  0  0  0  0  0  0  0  0  0  0
  151.8212  138.4673  155.4413 H   0  0  0  0  0  0  0  0  0  0  0  0
  152.3403  139.1450  153.8811 H   0  0  0  0  0  0  0  0  0  0  0  0
  144.5139  135.9856  153.9449 H   0  0  0  0  0  0  0  0  0  0  0  0
  143.6562  134.8816  152.9065 H   0  0  0  0  0  0  0  0  0  0  0  0
  144.9761  133.6133  154.5282 H   0  0  0  0  0  0  0  0  0  0  0  0
  146.4532  134.4244  154.0596 H   0  0  0  0  0  0  0  0  0  0  0  0
  144.8132  132.7448  152.3038 H   0  0  0  0  0  0  0  0  0  0  0  0
  1  2  1  0  0  0  0
  1 24  1  0  0  0  0
  1 25  1  0  0  0  0
  1 26  1  0  0  0  0
  2  3  1  0  0  0  0
  3  4  2  0  0  0  0
  3  5  1  0  0  0  0
  5  6  1  0  0  0  0
  5 27  1  0  0  0  0
  5 28  1  0  0  0  0
  6 23  1  0  0  0  0
  6  7  1  0  0  0  0
  6 46  1  0  0  0  0
  7  8  1  0  0  0  0
  7 29  1  0  0  0  0
  7 30  1  0  0  0  0
  8  9  1  0  0  0  0
  8 31  1  0  0  0  0
  8 32  1  0  0  0  0
  9 10  1  0  0  0  0
  9 22  1  0  0  0  0
  9 33  1  0  0  0  0
 10 11  1  0  0  0  0
 10 34  1  0  0  0  0
 11 12  2  0  0  0  0
 11 13  1  0  0  0  0
 13 14  1  0  0  0  0
 13 35  1  0  0  0  0
 14 19  1  0  0  0  0
 14 15  2  0  0  0  0
 15 16  1  0  0  0  0
 15 36  1  0  0  0  0
 16 17  2  0  0  0  0
 16 37  1  0  0  0  0
 17 18  1  0  0  0  0
 17 38  1  0  0  0  0
 18 19  2  0  0  0  0
 19 20  1  0  0  0  0
 20 21  1  0  0  0  0
 21 39  1  0  0  0  0
 21 40  1  0  0  0  0
 21 41  1  0  0  0  0
 22 23  1  0  0  0  0
 22 42  1  0  0  0  0
 22 43  1  0  0  0  0
 23 44  1  0  0  0  0
 23 45  1  0  0  0  0
M  CHG  1   2  -1
M  CHG  1   6   1
M  END
> <s_m_source_file>
AV-unprocessed.smi

> <i_m_source_file_index>
1898

> <i_lp_mmshare_version>
43012

> <i_f3d_flags>
0

> <s_epik_input>
W0NIM11bTkhdQyg9TylbQ0gyXU4xW0NIMl1bQ0gyXVtDSF0oW0NIMl1bQ0gyXTEpW05IXUMoPU8pW05IXWMyW2NIXVtjSF1bY0hdbmMyT1tDSDNd

> <s_epik_cmdline>
J2VwaWtfcHl0aG9uJywgJy1waCcsICc3LjAnLCAnLXRuJywgJzgnLCAnLW1hJywgJzIwMCcsICctbWV0YWxfYmluZGluZycsICctaW1hZScsICc8aW5maWxlLm1hZT4nLCAnLW9tYWUnLCAnPG91dGZpbGUubWFlPic=

> <r_lp_tautomer_probability>
1

> <r_epik_Ionization_Penalty>
6.13954

> <r_epik_Ionization_Penalty_Charging>
6.13946

> <r_epik_Ionization_Penalty_Neutral>
7.84403e-05

> <r_epik_State_Penalty>
6.9595

> <r_epik_Charging_Adjusted_Penalty>
13.099

> <i_epik_Tot_Q>
0

> <i_epik_Tot_abs_Q>
2

> <r_epik_Metal_State_Penalty>
2.89145

> <b_epik_Metal_Only>
1

> <s_lp_Force_Field>
OPLS_2005

> <r_lp_Energy>
15.6721

> <b_lp_Chiralities_Consistent>
1

> <s_lp_Variant>
AV-unprocessed.smi:1898-5

> <Gold.Version>
5.8.1

> <Gold.Id.Protein>
6NUR|6NUR_protein|mol2

> <Gold.PLP.Fitness>
43.6488

> <Gold.PLP.PLP>
-32.6202

> <Gold.PLP.part.hbond>
-3.5559

> <Gold.PLP.part.metal>
0.0000

> <Gold.PLP.part.buried>
-2.4978

> <Gold.PLP.part.nonpolar>
-28.9810

> <Gold.PLP.part.repulsive>
2.2983

> <Gold.PLP.ligand.clash>
0.0000

> <Gold.PLP.ligand.torsion>
0.3048

> <Gold.PLP.Chemscore.Hbond>
2.9440

> <Gold.PLP.Chemscore.CHOScore>
0.8992

> <Gold.PLP.Chemscore.Metal>
0.0000

> <Gold.Chemscore.Hbonds>
donor molecule, donor type, donor heavy atom, donor atom, acceptor molecule, acceptor atom, score
      L1  H    10    34       P1  7948  1.00
      L1  H    13    35       P1  7948  1.00
      P1  H  7989  7998       L1    18  0.94
      L1  C    17    38       P1  8028  0.90

> <Gold.PLP.Chemscore.Internal.Correction>
0.1086

> <Gold.Rescore>
     Score         DG    S(hbond)    S(metal)    S(lipo)     H(rot)  DE(clash)    DE(int)     intcor
     10.77     -14.95       2.14        0.00      61.94       1.93       0.05       4.13       ----

> <Gold.Chemscore.Fitness>
10.7707

> <Gold.Chemscore.DG>
-14.9456

> <Gold.Chemscore.ZeroCoef>
-5.4800

> <Gold.Chemscore.Hbond>
2.1422

> <Gold.Chemscore.Metal>
0.0000

> <Gold.Chemscore.Lipo>
61.9404

> <Gold.Chemscore.Internal_Hbond>
0.0000

> <Gold.Chemscore.DEClash>
0.0451

> <Gold.Chemscore.DEInternal>
4.1299

> <Gold.Chemscore.Rot>
1.9283

> <Gold.Chemscore.Internal.Correction>
   9.000000E+99

> <Gold.Chemscore.Hbonds>
donor molecule, donor type, donor heavy atom, donor atom, acceptor molecule, acceptor atom, score
      L1  H    10    34       P1  7948  0.93
      L1  H    13    35       P1  7948  0.94
      P1  H  7989  7998       L1    18  0.18

> <Gold.Chemscore.Hbond.Weighted>
-7.1551

> <Gold.Chemscore.Metal.Weighted>
-0.0000

> <Gold.Chemscore.Lipo.Weighted>
-7.2470

> <Gold.Chemscore.Internal_Hbond.Weighted>
0.0000

> <Gold.Chemscore.DEClash.Weighted>
0.0451

> <Gold.Chemscore.DEInternal.Weighted>
4.1299

> <Gold.Chemscore.Rot.Weighted>
4.9365

> <Gold.Chemscore.Internal.Correction.Weighted>
   9.000000E+99

> <Gold.Protein.RotatedTorsions>
[ 6907 6896 6895 6894 ] final -179.79 input  -60.11 | X-H torsion
[ 7974 7965 7964 7962 ] final  133.20 input  175.53 | X-H torsion
[ 8008 7997 7996 7995 ] final  137.84 input   59.86 | X-H torsion
[ 10167 10162 10161 10158 ] final  167.89 input  -65.29 | X-H torsion
[ 10718 10713 10712 10709 ] final   90.83 input   66.30 | X-H torsion
[ 10763 10752 10751 10750 ] final -170.08 input  -60.55 | X-H torsion
[ 11005 11000 10999 10996 ] final  -92.59 input  -57.11 | X-H torsion

> <Gold.Protein.ActiveResidues>
 VAL166  LYS551  ARG553  GLY616  TRP617  ASP618  TYR619  PRO620  LYS621  CYS622 
 ASP623  PHE694  ASN695  SER759  ASP760  ASP761  ALA762  ILE779  LEU786  VAL792 
 PHE793  MET794  SER795  GLU796  ALA797  LYS798  CYS799  TRP800  GLU811  SER814 

> <Gold.Protein.RotatedAtoms>
  151.6592  133.3317  159.3169 H   0  0  0  0  0  0  0  0  0  0  0  0  # atno 6907 bound_to 6896
  150.7922  134.6958  159.6532 H   0  0  0  0  0  0  0  0  0  0  0  0  # atno 6908 bound_to 6896
  152.4003  134.6301  160.0124 H   0  0  0  0  0  0  0  0  0  0  0  0  # atno 6909 bound_to 6896
  144.9889  139.4427  143.5349 H   0  0  0  0  0  0  0  0  0  0  0  0  # atno 7974 bound_to 7965
  156.3000  140.2409  156.3975 H   0  0  0  0  0  0  0  0  0  0  0  0  # atno 8008 bound_to 7997
  154.8557  140.0422  157.1653 H   0  0  0  0  0  0  0  0  0  0  0  0  # atno 8009 bound_to 7997
  154.8950  140.2969  155.5353 H   0  0  0  0  0  0  0  0  0  0  0  0  # atno 8010 bound_to 7997
  139.4955  144.3873  151.9556 H   0  0  0  0  0  0  0  0  0  0  0  0  # atno 10167 bound_to 10162
  157.6959  131.0385  150.3637 H   0  0  0  0  0  0  0  0  0  0  0  0  # atno 10718 bound_to 10713
  154.6454  135.2904  155.0053 H   0  0  0  0  0  0  0  0  0  0  0  0  # atno 10763 bound_to 10752
  154.1165  135.6554  153.4898 H   0  0  0  0  0  0  0  0  0  0  0  0  # atno 10764 bound_to 10752
  153.0348  135.5277  154.7338 H   0  0  0  0  0  0  0  0  0  0  0  0  # atno 10765 bound_to 10752
  141.1518  133.7831  157.0041 H   0  0  0  0  0  0  0  0  0  0  0  0  # atno 11005 bound_to 11000
  146.3427  139.9209  142.8767 LP  0  0  0  0  0  0  0  0  0  0  0  0  # atno 17320 bound_to 7965
  145.2313  140.9974  143.3989 LP  0  0  0  0  0  0  0  0  0  0  0  0  # atno 17321 bound_to 7965
  140.3310  144.3316  150.5987 LP  0  0  0  0  0  0  0  0  0  0  0  0  # atno 17342 bound_to 10162
  140.5645  143.2188  151.7708 LP  0  0  0  0  0  0  0  0  0  0  0  0  # atno 17343 bound_to 10162
  156.4070  130.3927  149.6918 LP  0  0  0  0  0  0  0  0  0  0  0  0  # atno 17370 bound_to 10713
  156.4216  130.7771  151.2789 LP  0  0  0  0  0  0  0  0  0  0  0  0  # atno 17371 bound_to 10713
  140.0921  134.9586  157.1792 LP  0  0  0  0  0  0  0  0  0  0  0  0  # atno 17394 bound_to 11000
  140.3432  134.2681  155.7209 LP  0  0  0  0  0  0  0  0  0  0  0  0  # atno 17395 bound_to 11000

$$$$
