AV-unprocessed.smi:2000|AV-procd|sdf|8100|dock8
  -GOLD-   2272010323D 1   1.00000     0.00000
 Structure written by MMmdl.
 43 44  0  0  0  0  0  0  0  0  1 V2000
  156.6936  139.3091  162.5557 C   0  0  0  0  0  0  0  0  0  0  0  0
  156.2662  139.9618  161.2318 C   0  0  2  0  0  0  0  0  0  0  0  0
  154.7833  139.7044  160.9330 C   0  0  0  0  0  0  0  0  0  0  0  0
  154.2955  138.5889  161.1145 O   0  0  0  0  0  0  0  0  0  0  0  0
  154.0744  140.7505  160.4792 N   0  0  0  0  0  0  0  0  0  0  0  0
  152.6552  140.7155  160.1390 C   0  0  0  0  0  0  0  0  0  0  0  0
  152.1874  141.9133  159.3117 C   0  0  0  0  0  0  0  0  0  0  0  0
  152.3255  143.2198  159.8326 C   0  0  0  0  0  0  0  0  0  0  0  0
  151.8718  144.3177  159.0808 C   0  0  0  0  0  0  0  0  0  0  0  0
  151.2794  144.0680  157.8308 C   0  0  0  0  0  0  0  0  0  0  0  0
  151.1259  142.8286  157.3229 N   0  0  0  0  0  0  0  0  0  0  0  0
  151.5654  141.7660  158.0413 C   0  0  0  0  0  0  0  0  0  0  0  0
  151.4036  140.4935  157.4650 N   0  0  0  0  0  0  0  0  0  0  0  0
  150.9610  140.5514  156.0779 C   0  0  0  0  0  0  0  0  0  0  0  0
  151.0277  139.1498  155.4476 C   0  0  0  0  0  0  0  0  0  0  0  0
  150.2598  138.2363  156.2271 O   0  0  0  0  0  0  0  0  0  0  0  0
  150.7420  138.1337  157.5642 C   0  0  0  0  0  0  0  0  0  0  0  0
  150.6632  139.5096  158.2478 C   0  0  0  0  0  0  0  0  0  0  0  0
  157.3243  139.3241  159.8480 S   0  0  0  0  0  0  0  0  0  0  0  0
  158.3412  140.7888  159.3874 C   0  0  0  0  0  0  0  0  0  0  0  0
  158.2222  138.2995  160.4025 O   0  0  0  0  0  0  0  0  0  0  0  0
  156.4665  138.9843  158.7020 O   0  0  0  0  0  0  0  0  0  0  0  0
  156.0812  139.6601  163.3868 H   0  0  0  0  0  0  0  0  0  0  0  0
  157.7315  139.5483  162.7887 H   0  0  0  0  0  0  0  0  0  0  0  0
  156.6093  138.2224  162.5125 H   0  0  0  0  0  0  0  0  0  0  0  0
  156.4418  141.0362  161.2976 H   0  0  0  0  0  0  0  0  0  0  0  0
  154.5480  141.6349  160.3653 H   0  0  0  0  0  0  0  0  0  0  0  0
  152.4284  139.7653  159.6557 H   0  0  0  0  0  0  0  0  0  0  0  0
  152.0896  140.7159  161.0707 H   0  0  0  0  0  0  0  0  0  0  0  0
  152.7723  143.3853  160.8017 H   0  0  0  0  0  0  0  0  0  0  0  0
  151.9715  145.3256  159.4554 H   0  0  0  0  0  0  0  0  0  0  0  0
  150.9163  144.8842  157.2241 H   0  0  0  0  0  0  0  0  0  0  0  0
  149.9383  140.9297  156.0419 H   0  0  0  0  0  0  0  0  0  0  0  0
  151.5780  141.2465  155.5090 H   0  0  0  0  0  0  0  0  0  0  0  0
  150.6297  139.1741  154.4331 H   0  0  0  0  0  0  0  0  0  0  0  0
  152.0607  138.8051  155.3771 H   0  0  0  0  0  0  0  0  0  0  0  0
  150.1348  137.4088  158.1066 H   0  0  0  0  0  0  0  0  0  0  0  0
  151.7660  137.7566  157.5645 H   0  0  0  0  0  0  0  0  0  0  0  0
  151.0745  139.4535  159.2564 H   0  0  0  0  0  0  0  0  0  0  0  0
  149.6192  139.8138  158.3371 H   0  0  0  0  0  0  0  0  0  0  0  0
  159.0985  140.4871  158.6641 H   0  0  0  0  0  0  0  0  0  0  0  0
  158.8289  141.1928  160.2742 H   0  0  0  0  0  0  0  0  0  0  0  0
  157.7058  141.5496  158.9360 H   0  0  0  0  0  0  0  0  0  0  0  0
  1  2  1  0  0  0  0
  1 23  1  0  0  0  0
  1 24  1  0  0  0  0
  1 25  1  0  0  0  0
  2  3  1  0  0  0  0
  2 19  1  0  0  0  0
  2 26  1  0  0  0  0
  3  4  2  0  0  0  0
  3  5  1  0  0  0  0
  5  6  1  0  0  0  0
  5 27  1  0  0  0  0
  6  7  1  0  0  0  0
  6 28  1  0  0  0  0
  6 29  1  0  0  0  0
  7 12  1  0  0  0  0
  7  8  2  0  0  0  0
  8  9  1  0  0  0  0
  8 30  1  0  0  0  0
  9 10  2  0  0  0  0
  9 31  1  0  0  0  0
 10 11  1  0  0  0  0
 10 32  1  0  0  0  0
 11 12  2  0  0  0  0
 12 13  1  0  0  0  0
 13 18  1  0  0  0  0
 13 14  1  0  0  0  0
 14 15  1  0  0  0  0
 14 33  1  0  0  0  0
 14 34  1  0  0  0  0
 15 16  1  0  0  0  0
 15 35  1  0  0  0  0
 15 36  1  0  0  0  0
 16 17  1  0  0  0  0
 17 18  1  0  0  0  0
 17 37  1  0  0  0  0
 17 38  1  0  0  0  0
 18 39  1  0  0  0  0
 18 40  1  0  0  0  0
 19 20  1  0  0  0  0
 19 21  2  0  0  0  0
 19 22  2  0  0  0  0
 20 41  1  0  0  0  0
 20 42  1  0  0  0  0
 20 43  1  0  0  0  0
M  END
> <s_m_source_file>
AV-unprocessed.smi

> <i_m_source_file_index>
2000

> <i_lp_mmshare_version>
43012

> <i_f3d_flags>
0

> <s_epik_input>
W0NIM11TKD1PKSg9TylbQ0BIXShbQ0gzXSlDKD1PKVtOSF1bQ0gyXWMxW2NIXVtjSF1bY0hdbmMxTjJbQ0gyXVtDSDJdT1tDSDJdW0NIMl0y

> <s_epik_cmdline>
J2VwaWtfcHl0aG9uJywgJy1waCcsICc3LjAnLCAnLXRuJywgJzgnLCAnLW1hJywgJzIwMCcsICctbWV0YWxfYmluZGluZycsICctaW1hZScsICc8aW5maWxlLm1hZT4nLCAnLW9tYWUnLCAnPG91dGZpbGUubWFlPic=

> <r_lp_tautomer_probability>
1

> <r_epik_Ionization_Penalty>
0.00349769

> <r_epik_Ionization_Penalty_Charging>
0

> <r_epik_Ionization_Penalty_Neutral>
0.00349769

> <r_epik_State_Penalty>
0.00248024

> <r_epik_Charging_Adjusted_Penalty>
0.00248024

> <i_epik_Tot_Q>
0

> <i_epik_Tot_abs_Q>
0

> <r_epik_Metal_State_Penalty>
-0

> <b_epik_Metal_Only>
0

> <s_lp_Force_Field>
OPLS_2005

> <r_lp_Energy>
16.3383

> <b_lp_Chiralities_Consistent>
1

> <s_lp_Variant>
AV-unprocessed.smi:2000-1

> <Gold.Version>
5.8.1

> <Gold.Id.Protein>
6NUR|6NUR_protein|mol2

> <Gold.PLP.Fitness>
39.1466

> <Gold.PLP.PLP>
-34.6089

> <Gold.PLP.part.hbond>
-1.0000

> <Gold.PLP.part.metal>
0.0000

> <Gold.PLP.part.buried>
-3.2898

> <Gold.PLP.part.nonpolar>
-31.8846

> <Gold.PLP.part.repulsive>
1.4226

> <Gold.PLP.ligand.clash>
0.0048

> <Gold.PLP.ligand.torsion>
0.8994

> <Gold.PLP.Chemscore.Hbond>
1.0000

> <Gold.PLP.Chemscore.CHOScore>
0.9988

> <Gold.PLP.Chemscore.Metal>
0.0000

> <Gold.Chemscore.Hbonds>
donor molecule, donor type, donor heavy atom, donor atom, acceptor molecule, acceptor atom, score
      P1  H  7997  8010       L1    22  1.00
      L1  C    10    32       P1  8028  0.91

> <Gold.PLP.Chemscore.Internal.Correction>
0.3449

> <Gold.Rescore>
     Score         DG    S(hbond)    S(metal)    S(lipo)     H(rot)  DE(clash)    DE(int)     intcor
     13.64     -14.72       1.00        0.00      95.96       2.08       0.05       1.03       ----

> <Gold.Chemscore.Fitness>
13.6386

> <Gold.Chemscore.DG>
-14.7196

> <Gold.Chemscore.ZeroCoef>
-5.4800

> <Gold.Chemscore.Hbond>
0.9964

> <Gold.Chemscore.Metal>
0.0000

> <Gold.Chemscore.Lipo>
95.9580

> <Gold.Chemscore.Internal_Hbond>
0.0000

> <Gold.Chemscore.DEClash>
0.0546

> <Gold.Chemscore.DEInternal>
1.0263

> <Gold.Chemscore.Rot>
2.0764

> <Gold.Chemscore.Internal.Correction>
   9.000000E+99

> <Gold.Chemscore.Hbonds>
donor molecule, donor type, donor heavy atom, donor atom, acceptor molecule, acceptor atom, score
      P1  H  7997  8010       L1    22  1.00

> <Gold.Chemscore.Hbond.Weighted>
-3.3281

> <Gold.Chemscore.Metal.Weighted>
-0.0000

> <Gold.Chemscore.Lipo.Weighted>
-11.2271

> <Gold.Chemscore.Internal_Hbond.Weighted>
0.0000

> <Gold.Chemscore.DEClash.Weighted>
0.0546

> <Gold.Chemscore.DEInternal.Weighted>
1.0263

> <Gold.Chemscore.Rot.Weighted>
5.3155

> <Gold.Chemscore.Internal.Correction.Weighted>
   9.000000E+99

> <Gold.Protein.RotatedTorsions>
[ 6907 6896 6895 6894 ] final -135.64 input  -60.11 | X-H torsion
[ 7974 7965 7964 7962 ] final  116.92 input  175.53 | X-H torsion
[ 8008 7997 7996 7995 ] final  -34.29 input   59.86 | X-H torsion
[ 10167 10162 10161 10158 ] final   -9.94 input  -65.29 | X-H torsion
[ 10718 10713 10712 10709 ] final  -89.34 input   66.30 | X-H torsion
[ 10763 10752 10751 10750 ] final   -9.89 input  -60.55 | X-H torsion
[ 11005 11000 10999 10996 ] final -108.68 input  -57.11 | X-H torsion

> <Gold.Protein.ActiveResidues>
 VAL166  LYS551  ARG553  GLY616  TRP617  ASP618  TYR619  PRO620  LYS621  CYS622 
 ASP623  PHE694  ASN695  SER759  ASP760  ASP761  ALA762  ILE779  LEU786  VAL792 
 PHE793  MET794  SER795  GLU796  ALA797  LYS798  CYS799  TRP800  GLU811  SER814 

> <Gold.Protein.RotatedAtoms>
  151.0004  133.6062  159.2695 H   0  0  0  0  0  0  0  0  0  0  0  0  # atno 6907 bound_to 6896
  151.3250  135.0827  159.9329 H   0  0  0  0  0  0  0  0  0  0  0  0  # atno 6908 bound_to 6896
  152.5272  133.9644  159.7786 H   0  0  0  0  0  0  0  0  0  0  0  0  # atno 6909 bound_to 6896
  145.1737  139.3087  143.4454 H   0  0  0  0  0  0  0  0  0  0  0  0  # atno 7974 bound_to 7965
  154.4125  140.1688  156.2026 H   0  0  0  0  0  0  0  0  0  0  0  0  # atno 8008 bound_to 7997
  155.9511  140.3401  155.6385 H   0  0  0  0  0  0  0  0  0  0  0  0  # atno 8009 bound_to 7997
  155.6868  140.0729  157.2454 H   0  0  0  0  0  0  0  0  0  0  0  0  # atno 8010 bound_to 7997
  140.7101  143.5802  150.9000 H   0  0  0  0  0  0  0  0  0  0  0  0  # atno 10167 bound_to 10162
  155.9984  130.4869  150.5156 H   0  0  0  0  0  0  0  0  0  0  0  0  # atno 10718 bound_to 10713
  153.4613  135.7016  153.6048 H   0  0  0  0  0  0  0  0  0  0  0  0  # atno 10763 bound_to 10752
  153.4341  135.3795  155.2189 H   0  0  0  0  0  0  0  0  0  0  0  0  # atno 10764 bound_to 10752
  154.8727  135.3958  154.4039 H   0  0  0  0  0  0  0  0  0  0  0  0  # atno 10765 bound_to 10752
  141.0889  133.9090  157.2122 H   0  0  0  0  0  0  0  0  0  0  0  0  # atno 11005 bound_to 11000
  146.3464  140.1891  142.8589 LP  0  0  0  0  0  0  0  0  0  0  0  0  # atno 17320 bound_to 7965
  145.0207  140.8791  143.5168 LP  0  0  0  0  0  0  0  0  0  0  0  0  # atno 17321 bound_to 7965
  139.9528  143.6252  152.3024 LP  0  0  0  0  0  0  0  0  0  0  0  0  # atno 17342 bound_to 10162
  139.6777  144.7657  151.1665 LP  0  0  0  0  0  0  0  0  0  0  0  0  # atno 17343 bound_to 10162
  157.3124  131.0666  151.1991 LP  0  0  0  0  0  0  0  0  0  0  0  0  # atno 17370 bound_to 10713
  157.2933  130.6807  149.6125 LP  0  0  0  0  0  0  0  0  0  0  0  0  # atno 17371 bound_to 10713
  139.9711  135.0128  156.9514 LP  0  0  0  0  0  0  0  0  0  0  0  0  # atno 17394 bound_to 11000
  140.5299  134.0824  155.7313 LP  0  0  0  0  0  0  0  0  0  0  0  0  # atno 17395 bound_to 11000

$$$$
