AV-unprocessed.smi:2252|AV-procd|sdf|9104|dock7
  -GOLD-   2272012303D 1   1.00000     0.00000
 Structure written by MMmdl.
 46 48  0  0  0  0  0  0  0  0  3 V2000
  151.5936  144.7698  160.8210 C   0  0  0  0  0  0  0  0  0  0  0  0
  152.2371  143.5270  160.3893 N   0  0  0  0  0  0  0  0  0  0  0  0
  152.9676  142.6737  161.1760 C   0  0  0  0  0  0  0  0  0  0  0  0
  153.3838  141.6506  160.3651 C   0  0  0  0  0  0  0  0  0  0  0  0
  152.8892  141.9204  159.1182 N   0  3  0  0  0  0  0  0  0  0  0  0
  152.1890  143.0609  159.1294 C   0  0  0  0  0  0  0  0  0  0  0  0
  151.5131  143.6718  157.9370 C   0  0  0  0  0  0  0  0  0  0  0  0
  152.1039  143.2161  156.5927 C   0  0  0  0  0  0  0  0  0  0  0  0
  151.0594  142.9460  155.6088 N   0  0  0  0  0  0  0  0  0  0  0  0
  151.0127  141.8675  154.8113 C   0  0  0  0  0  0  0  0  0  0  0  0
  151.8643  140.9784  154.8275 O   0  0  0  0  0  0  0  0  0  0  0  0
  149.8352  141.7879  153.8263 C   0  0  1  0  0  0  0  0  0  0  0  0
  149.7833  140.3592  153.2410 C   0  0  0  0  0  0  0  0  0  0  0  0
  150.8778  139.8546  152.3244 C   0  0  0  0  0  0  0  0  0  0  0  0
  149.5002  140.1152  151.7740 C   0  0  0  0  0  0  0  0  0  0  0  0
  148.5428  142.1532  154.4746 N   0  3  0  0  0  0  0  0  0  0  0  0
  147.4097  142.3843  153.5518 C   0  0  0  0  0  0  0  0  0  0  0  0
  146.1696  142.3120  154.4350 C   0  0  0  0  0  0  0  0  0  0  0  0
  146.5192  141.2296  155.4531 C   0  0  0  0  0  0  0  0  0  0  0  0
  148.0541  141.2009  155.5020 C   0  0  0  0  0  0  0  0  0  0  0  0
  151.8898  144.9972  161.8456 H   0  0  0  0  0  0  0  0  0  0  0  0
  150.5109  144.6481  160.7756 H   0  0  0  0  0  0  0  0  0  0  0  0
  151.9036  145.5871  160.1693 H   0  0  0  0  0  0  0  0  0  0  0  0
  153.1348  142.8525  162.2285 H   0  0  0  0  0  0  0  0  0  0  0  0
  153.9788  140.7739  160.5765 H   0  0  0  0  0  0  0  0  0  0  0  0
  150.4593  143.3986  158.0001 H   0  0  0  0  0  0  0  0  0  0  0  0
  151.5634  144.7562  158.0339 H   0  0  0  0  0  0  0  0  0  0  0  0
  152.7835  143.9874  156.2258 H   0  0  0  0  0  0  0  0  0  0  0  0
  152.6997  142.3139  156.7332 H   0  0  0  0  0  0  0  0  0  0  0  0
  150.3178  143.6272  155.5317 H   0  0  0  0  0  0  0  0  0  0  0  0
  150.0150  142.4972  153.0159 H   0  0  0  0  0  0  0  0  0  0  0  0
  149.3837  139.6191  153.9328 H   0  0  0  0  0  0  0  0  0  0  0  0
  151.6632  140.5486  152.0361 H   0  0  0  0  0  0  0  0  0  0  0  0
  151.1893  138.8179  152.4363 H   0  0  0  0  0  0  0  0  0  0  0  0
  148.8888  139.2523  151.5183 H   0  0  0  0  0  0  0  0  0  0  0  0
  149.3792  140.9804  151.1250 H   0  0  0  0  0  0  0  0  0  0  0  0
  147.4853  143.3409  153.0337 H   0  0  0  0  0  0  0  0  0  0  0  0
  147.3767  141.5923  152.8015 H   0  0  0  0  0  0  0  0  0  0  0  0
  146.0250  143.2655  154.9451 H   0  0  0  0  0  0  0  0  0  0  0  0
  145.2613  142.0905  153.8737 H   0  0  0  0  0  0  0  0  0  0  0  0
  146.0762  141.4309  156.4292 H   0  0  0  0  0  0  0  0  0  0  0  0
  146.1429  140.2638  155.1138 H   0  0  0  0  0  0  0  0  0  0  0  0
  148.3992  140.1877  155.2919 H   0  0  0  0  0  0  0  0  0  0  0  0
  148.4339  141.4860  156.4837 H   0  0  0  0  0  0  0  0  0  0  0  0
  148.6909  143.0297  154.9549 H   0  0  0  0  0  0  0  0  0  0  0  0
  153.0306  141.3395  158.3010 H   0  0  0  0  0  0  0  0  0  0  0  0
  1  2  1  0  0  0  0
  1 21  1  0  0  0  0
  1 22  1  0  0  0  0
  1 23  1  0  0  0  0
  2  6  1  0  0  0  0
  2  3  1  0  0  0  0
  3  4  2  0  0  0  0
  3 24  1  0  0  0  0
  4  5  1  0  0  0  0
  4 25  1  0  0  0  0
  5  6  2  0  0  0  0
  5 46  1  0  0  0  0
  6  7  1  0  0  0  0
  7  8  1  0  0  0  0
  7 26  1  0  0  0  0
  7 27  1  0  0  0  0
  8  9  1  0  0  0  0
  8 28  1  0  0  0  0
  8 29  1  0  0  0  0
  9 10  1  0  0  0  0
  9 30  1  0  0  0  0
 10 11  2  0  0  0  0
 10 12  1  0  0  0  0
 12 13  1  0  0  0  0
 12 16  1  0  0  0  0
 12 31  1  0  0  0  0
 13 15  1  0  0  0  0
 13 14  1  0  0  0  0
 13 32  1  0  0  0  0
 14 15  1  0  0  0  0
 14 33  1  0  0  0  0
 14 34  1  0  0  0  0
 15 35  1  0  0  0  0
 15 36  1  0  0  0  0
 16 20  1  0  0  0  0
 16 17  1  0  0  0  0
 16 45  1  0  0  0  0
 17 18  1  0  0  0  0
 17 37  1  0  0  0  0
 17 38  1  0  0  0  0
 18 19  1  0  0  0  0
 18 39  1  0  0  0  0
 18 40  1  0  0  0  0
 19 20  1  0  0  0  0
 19 41  1  0  0  0  0
 19 42  1  0  0  0  0
 20 43  1  0  0  0  0
 20 44  1  0  0  0  0
M  CHG  1   5   1
M  CHG  1  16   1
M  END
> <s_m_source_file>
AV-unprocessed.smi

> <i_m_source_file_index>
2252

> <i_lp_mmshare_version>
43012

> <i_f3d_flags>
0

> <s_epik_input>
W0NIM11uMVtjSF1bY0hdbmMxW0NIMl1bQ0gyXVtOSF1DKD1PKVtDQEhdKFtDSF0yW0NIMl1bQ0gyXTIpTjNbQ0gyXVtDSDJdW0NIMl1bQ0gyXTM=

> <s_epik_cmdline>
J2VwaWtfcHl0aG9uJywgJy1waCcsICc3LjAnLCAnLXRuJywgJzgnLCAnLW1hJywgJzIwMCcsICctbWV0YWxfYmluZGluZycsICctaW1hZScsICc8aW5maWxlLm1hZT4nLCAnLW9tYWUnLCAnPG91dGZpbGUubWFlPic=

> <r_lp_tautomer_probability>
1

> <r_epik_Ionization_Penalty>
0.116886

> <r_epik_Ionization_Penalty_Charging>
0.00955009

> <r_epik_Ionization_Penalty_Neutral>
0.107336

> <r_epik_State_Penalty>
0.0956868

> <r_epik_Charging_Adjusted_Penalty>
0.105237

> <i_epik_Tot_Q>
2

> <i_epik_Tot_abs_Q>
2

> <r_epik_Metal_State_Penalty>
0.438836

> <b_epik_Metal_Only>
0

> <s_lp_Force_Field>
OPLS_2005

> <r_lp_Energy>
43.7014

> <b_lp_Chiralities_Consistent>
1

> <s_lp_Variant>
AV-unprocessed.smi:2252-2

> <Gold.Version>
5.8.1

> <Gold.Id.Protein>
6NUR|6NUR_protein|mol2

> <Gold.PLP.Fitness>
50.3218

> <Gold.PLP.PLP>
-43.6977

> <Gold.PLP.part.hbond>
-2.0000

> <Gold.PLP.part.metal>
0.0000

> <Gold.PLP.part.buried>
-5.4442

> <Gold.PLP.part.nonpolar>
-36.2064

> <Gold.PLP.part.repulsive>
0.3552

> <Gold.PLP.ligand.clash>
0.0000

> <Gold.PLP.ligand.torsion>
1.7581

> <Gold.PLP.Chemscore.Hbond>
3.0000

> <Gold.PLP.Chemscore.CHOScore>
0.0000

> <Gold.PLP.Chemscore.Metal>
0.0000

> <Gold.Chemscore.Hbonds>
donor molecule, donor type, donor heavy atom, donor atom, acceptor molecule, acceptor atom, score
      L1  H     9    30       P1  8028  1.00
      L1  H    16    45       P1  8028  2.00
      P1  H  7989  7998       L1    11  0.07

> <Gold.PLP.Chemscore.Internal.Correction>
1.1402

> <Gold.Rescore>
     Score         DG    S(hbond)    S(metal)    S(lipo)     H(rot)  DE(clash)    DE(int)     intcor
     14.95     -18.10       1.93        0.00      97.52       2.05       1.43       1.72       ----

> <Gold.Chemscore.Fitness>
14.9467

> <Gold.Chemscore.DG>
-18.0973

> <Gold.Chemscore.ZeroCoef>
-5.4800

> <Gold.Chemscore.Hbond>
1.9295

> <Gold.Chemscore.Metal>
0.0000

> <Gold.Chemscore.Lipo>
97.5172

> <Gold.Chemscore.Internal_Hbond>
0.0000

> <Gold.Chemscore.DEClash>
1.4297

> <Gold.Chemscore.DEInternal>
1.7210

> <Gold.Chemscore.Rot>
2.0456

> <Gold.Chemscore.Internal.Correction>
   9.000000E+99

> <Gold.Chemscore.Hbonds>
donor molecule, donor type, donor heavy atom, donor atom, acceptor molecule, acceptor atom, score
      L1  H     9    30       P1  8028  1.00
      L1  H    16    45       P1  8028  1.00

> <Gold.Chemscore.Hbond.Weighted>
-6.4446

> <Gold.Chemscore.Metal.Weighted>
-0.0000

> <Gold.Chemscore.Lipo.Weighted>
-11.4095

> <Gold.Chemscore.Internal_Hbond.Weighted>
0.0000

> <Gold.Chemscore.DEClash.Weighted>
1.4297

> <Gold.Chemscore.DEInternal.Weighted>
1.7210

> <Gold.Chemscore.Rot.Weighted>
5.2368

> <Gold.Chemscore.Internal.Correction.Weighted>
   9.000000E+99

> <Gold.Protein.RotatedTorsions>
[ 6907 6896 6895 6894 ] final -131.48 input  -60.11 | X-H torsion
[ 7974 7965 7964 7962 ] final  -88.40 input  175.53 | X-H torsion
[ 8008 7997 7996 7995 ] final   20.28 input   59.86 | X-H torsion
[ 10167 10162 10161 10158 ] final  157.39 input  -65.29 | X-H torsion
[ 10718 10713 10712 10709 ] final   79.32 input   66.30 | X-H torsion
[ 10763 10752 10751 10750 ] final -178.00 input  -60.55 | X-H torsion
[ 11005 11000 10999 10996 ] final  -19.52 input  -57.11 | X-H torsion

> <Gold.Protein.ActiveResidues>
 VAL166  LYS551  ARG553  GLY616  TRP617  ASP618  TYR619  PRO620  LYS621  CYS622 
 ASP623  PHE694  ASN695  SER759  ASP760  ASP761  ALA762  ILE779  LEU786  VAL792 
 PHE793  MET794  SER795  GLU796  ALA797  LYS798  CYS799  TRP800  GLU811  SER814 

> <Gold.Protein.RotatedAtoms>
  150.9514  133.6545  159.2771 H   0  0  0  0  0  0  0  0  0  0  0  0  # atno 6907 bound_to 6896
  151.3900  135.0953  159.9533 H   0  0  0  0  0  0  0  0  0  0  0  0  # atno 6908 bound_to 6896
  152.5111  133.9030  159.7505 H   0  0  0  0  0  0  0  0  0  0  0  0  # atno 6909 bound_to 6896
  145.4536  140.9561  143.2008 H   0  0  0  0  0  0  0  0  0  0  0  0  # atno 7974 bound_to 7965
  154.9332  140.3043  155.5157 H   0  0  0  0  0  0  0  0  0  0  0  0  # atno 8008 bound_to 7997
  156.3002  140.2350  156.4331 H   0  0  0  0  0  0  0  0  0  0  0  0  # atno 8009 bound_to 7997
  154.8217  140.0423  157.1404 H   0  0  0  0  0  0  0  0  0  0  0  0  # atno 8010 bound_to 7997
  139.4823  144.4922  151.8292 H   0  0  0  0  0  0  0  0  0  0  0  0  # atno 10167 bound_to 10162
  157.6773  130.9909  150.1916 H   0  0  0  0  0  0  0  0  0  0  0  0  # atno 10718 bound_to 10713
  154.5531  135.2814  155.0990 H   0  0  0  0  0  0  0  0  0  0  0  0  # atno 10763 bound_to 10752
  154.2428  135.6354  153.5217 H   0  0  0  0  0  0  0  0  0  0  0  0  # atno 10764 bound_to 10752
  153.0008  135.5564  154.6103 H   0  0  0  0  0  0  0  0  0  0  0  0  # atno 10765 bound_to 10752
  140.8374  133.7951  155.9824 H   0  0  0  0  0  0  0  0  0  0  0  0  # atno 11005 bound_to 11000
  144.8046  139.6076  143.7056 LP  0  0  0  0  0  0  0  0  0  0  0  0  # atno 17320 bound_to 7965
  146.2490  139.6160  142.9440 LP  0  0  0  0  0  0  0  0  0  0  0  0  # atno 17321 bound_to 7965
  140.4407  144.1990  150.5891 LP  0  0  0  0  0  0  0  0  0  0  0  0  # atno 17342 bound_to 10162
  140.4686  143.2421  151.9121 LP  0  0  0  0  0  0  0  0  0  0  0  0  # atno 17343 bound_to 10162
  156.2626  130.3712  149.8115 LP  0  0  0  0  0  0  0  0  0  0  0  0  # atno 17370 bound_to 10713
  156.5855  130.8484  151.3394 LP  0  0  0  0  0  0  0  0  0  0  0  0  # atno 17371 bound_to 10713
  140.8932  134.2470  157.5083 LP  0  0  0  0  0  0  0  0  0  0  0  0  # atno 17394 bound_to 11000
  139.8704  134.9671  156.4586 LP  0  0  0  0  0  0  0  0  0  0  0  0  # atno 17395 bound_to 11000

$$$$
