AV-unprocessed.smi:2902|AV-procd|sdf|11155|dock3
  -GOLD-   2272016 33D 1   1.00000     0.00000
 Structure written by MMmdl.
 47 48  0  0  0  0  0  0  0  0  1 V2000
  145.4263  136.9466  159.3386 C   0  0  0  0  0  0  0  0  0  0  0  0
  146.7964  137.1056  158.6619 C   0  0  0  0  0  0  0  0  0  0  0  0
  147.9389  136.3546  159.3747 C   0  0  2  0  0  0  0  0  0  0  0  0
  147.9658  136.8092  160.7244 O   0  0  0  0  0  0  0  0  0  0  0  0
  147.8212  135.8030  161.7247 C   0  0  0  0  0  0  0  0  0  0  0  0
  146.4610  135.1294  161.5421 C   0  0  0  0  0  0  0  0  0  0  0  0
  145.4462  136.0595  162.2194 C   0  0  0  0  0  0  0  0  0  0  0  0
  146.2492  136.9606  163.1707 C   0  0  0  0  0  0  0  0  0  0  0  0
  147.7020  136.4809  163.0897 C   0  0  0  0  0  0  0  0  0  0  0  0
  149.3077  136.6058  158.7183 C   0  0  0  0  0  0  0  0  0  0  0  0
  150.0257  135.6585  158.3981 O   0  0  0  0  0  0  0  0  0  0  0  0
  149.6402  137.8903  158.5184 N   0  0  0  0  0  0  0  0  0  0  0  0
  150.8763  138.3848  157.9126 C   0  0  2  0  0  0  0  0  0  0  0  0
  152.0672  137.9642  158.7900 C   0  0  0  0  0  0  0  0  0  0  0  0
  150.8086  139.9144  157.6581 C   0  0  1  0  0  0  0  0  0  0  0  0
  152.1404  140.6358  157.9403 C   0  0  0  0  0  0  0  0  0  0  0  0
  150.2881  140.2472  156.3357 N   0  0  0  0  0  0  0  0  0  0  0  0
  150.0677  141.4376  155.7734 C   0  0  0  0  0  0  0  0  0  0  0  0
  149.5541  141.3701  154.5531 N   0  0  0  0  0  0  0  0  0  0  0  0
  149.4724  140.0138  154.4147 C   0  0  0  0  0  0  0  0  0  0  0  0
  149.8928  139.2944  155.4549 N   0  0  0  0  0  0  0  0  0  0  0  0
  144.6708  137.5403  158.8237 H   0  0  0  0  0  0  0  0  0  0  0  0
  145.4600  137.2799  160.3761 H   0  0  0  0  0  0  0  0  0  0  0  0
  145.0902  135.9097  159.3295 H   0  0  0  0  0  0  0  0  0  0  0  0
  146.7273  136.7853  157.6213 H   0  0  0  0  0  0  0  0  0  0  0  0
  147.0436  138.1671  158.6289 H   0  0  0  0  0  0  0  0  0  0  0  0
  147.7064  135.2876  159.3648 H   0  0  0  0  0  0  0  0  0  0  0  0
  148.6288  135.0694  161.7068 H   0  0  0  0  0  0  0  0  0  0  0  0
  146.2238  134.9368  160.4952 H   0  0  0  0  0  0  0  0  0  0  0  0
  146.4662  134.1681  162.0576 H   0  0  0  0  0  0  0  0  0  0  0  0
  144.9357  136.6707  161.4738 H   0  0  0  0  0  0  0  0  0  0  0  0
  144.6836  135.4880  162.7499 H   0  0  0  0  0  0  0  0  0  0  0  0
  146.1829  137.9967  162.8357 H   0  0  0  0  0  0  0  0  0  0  0  0
  145.8698  136.9239  164.1922 H   0  0  0  0  0  0  0  0  0  0  0  0
  147.8828  135.7452  163.8742 H   0  0  0  0  0  0  0  0  0  0  0  0
  148.4223  137.2884  163.2254 H   0  0  0  0  0  0  0  0  0  0  0  0
  148.9715  138.5921  158.8023 H   0  0  0  0  0  0  0  0  0  0  0  0
  151.0194  137.9098  156.9407 H   0  0  0  0  0  0  0  0  0  0  0  0
  153.0083  138.3195  158.3694 H   0  0  0  0  0  0  0  0  0  0  0  0
  152.1308  136.8780  158.8639 H   0  0  0  0  0  0  0  0  0  0  0  0
  151.9841  138.3575  159.8035 H   0  0  0  0  0  0  0  0  0  0  0  0
  150.0893  140.3159  158.3736 H   0  0  0  0  0  0  0  0  0  0  0  0
  152.4872  140.4325  158.9537 H   0  0  0  0  0  0  0  0  0  0  0  0
  152.0281  141.7158  157.8414 H   0  0  0  0  0  0  0  0  0  0  0  0
  152.9277  140.3243  157.2551 H   0  0  0  0  0  0  0  0  0  0  0  0
  150.2825  142.3729  156.2690 H   0  0  0  0  0  0  0  0  0  0  0  0
  149.0874  139.5419  153.5226 H   0  0  0  0  0  0  0  0  0  0  0  0
  1  2  1  0  0  0  0
  1 22  1  0  0  0  0
  1 23  1  0  0  0  0
  1 24  1  0  0  0  0
  2  3  1  0  0  0  0
  2 25  1  0  0  0  0
  2 26  1  0  0  0  0
  3  4  1  0  0  0  0
  3 10  1  0  0  0  0
  3 27  1  0  0  0  0
  4  5  1  0  0  0  0
  5  9  1  0  0  0  0
  5  6  1  0  0  0  0
  5 28  1  0  0  0  0
  6  7  1  0  0  0  0
  6 29  1  0  0  0  0
  6 30  1  0  0  0  0
  7  8  1  0  0  0  0
  7 31  1  0  0  0  0
  7 32  1  0  0  0  0
  8  9  1  0  0  0  0
  8 33  1  0  0  0  0
  8 34  1  0  0  0  0
  9 35  1  0  0  0  0
  9 36  1  0  0  0  0
 10 11  2  0  0  0  0
 10 12  1  0  0  0  0
 12 13  1  0  0  0  0
 12 37  1  0  0  0  0
 13 14  1  0  0  0  0
 13 15  1  0  0  0  0
 13 38  1  0  0  0  0
 14 39  1  0  0  0  0
 14 40  1  0  0  0  0
 14 41  1  0  0  0  0
 15 16  1  0  0  0  0
 15 17  1  0  0  0  0
 15 42  1  0  0  0  0
 16 43  1  0  0  0  0
 16 44  1  0  0  0  0
 16 45  1  0  0  0  0
 17 21  1  0  0  0  0
 17 18  1  0  0  0  0
 18 19  2  0  0  0  0
 18 46  1  0  0  0  0
 19 20  1  0  0  0  0
 20 21  2  0  0  0  0
 20 47  1  0  0  0  0
M  END
> <s_m_source_file>
AV-unprocessed.smi

> <i_m_source_file_index>
2902

> <i_lp_mmshare_version>
43012

> <i_f3d_flags>
0

> <s_epik_input>
W0NIMl0xW0NIMl1bQ0gyXVtDSDJdW0NIXTFPW0NAQEhdKFtDSDJdW0NIM10pQyg9TylbTkhdW0NASF0oW0NIM10pW0NASF0oW0NIM10pbjJbY0hdbltjSF1uMg==

> <s_epik_cmdline>
J2VwaWtfcHl0aG9uJywgJy1waCcsICc3LjAnLCAnLXRuJywgJzgnLCAnLW1hJywgJzIwMCcsICctbWV0YWxfYmluZGluZycsICctaW1hZScsICc8aW5maWxlLm1hZT4nLCAnLW9tYWUnLCAnPG91dGZpbGUubWFlPic=

> <r_lp_tautomer_probability>
1

> <r_epik_Ionization_Penalty>
6.95617e-05

> <r_epik_Ionization_Penalty_Charging>
0

> <r_epik_Ionization_Penalty_Neutral>
6.95617e-05

> <r_epik_State_Penalty>
-0

> <r_epik_Charging_Adjusted_Penalty>
0

> <i_epik_Tot_Q>
0

> <i_epik_Tot_abs_Q>
0

> <r_epik_Metal_State_Penalty>
-0

> <b_epik_Metal_Only>
0

> <s_lp_Force_Field>
OPLS_2005

> <r_lp_Energy>
29.711

> <b_lp_Chiralities_Consistent>
1

> <s_lp_Variant>
AV-unprocessed.smi:2902-5

> <Gold.Version>
5.8.1

> <Gold.Id.Protein>
6NUR|6NUR_protein|mol2

> <Gold.PLP.Fitness>
42.0037

> <Gold.PLP.PLP>
-31.9622

> <Gold.PLP.part.hbond>
-4.8929

> <Gold.PLP.part.metal>
0.0000

> <Gold.PLP.part.buried>
-3.5626

> <Gold.PLP.part.nonpolar>
-24.4403

> <Gold.PLP.part.repulsive>
0.3865

> <Gold.PLP.ligand.clash>
0.0000

> <Gold.PLP.ligand.torsion>
1.9882

> <Gold.PLP.Chemscore.Hbond>
2.4949

> <Gold.PLP.Chemscore.CHOScore>
1.9986

> <Gold.PLP.Chemscore.Metal>
0.0000

> <Gold.Chemscore.Hbonds>
donor molecule, donor type, donor heavy atom, donor atom, acceptor molecule, acceptor atom, score
      P1  H  6896  6907       L1    11  1.00
      P1  H  6931  6943       L1     4  0.64
      P1  H  6934  6947       L1     4  0.17
      L1  C    18    46       P1  8028  0.28
      L1  C    20    47       P1  7957  0.98

> <Gold.PLP.Chemscore.Internal.Correction>
0.5374

> <Gold.Rescore>
     Score         DG    S(hbond)    S(metal)    S(lipo)     H(rot)  DE(clash)    DE(int)     intcor
     11.29     -13.85       2.34        0.00      63.81       2.69       0.51       2.04       ----

> <Gold.Chemscore.Fitness>
11.2933

> <Gold.Chemscore.DG>
-13.8499

> <Gold.Chemscore.ZeroCoef>
-5.4800

> <Gold.Chemscore.Hbond>
2.3352

> <Gold.Chemscore.Metal>
0.0000

> <Gold.Chemscore.Lipo>
63.8088

> <Gold.Chemscore.Internal_Hbond>
0.0000

> <Gold.Chemscore.DEClash>
0.5126

> <Gold.Chemscore.DEInternal>
2.0439

> <Gold.Chemscore.Rot>
2.6935

> <Gold.Chemscore.Internal.Correction>
   9.000000E+99

> <Gold.Chemscore.Hbonds>
donor molecule, donor type, donor heavy atom, donor atom, acceptor molecule, acceptor atom, score
      P1  H  6896  6907       L1    11  0.91
      P1  H  6931  6943       L1     4  0.12
      P1  H  6934  6947       L1     4  0.14
      P1  H  8011  8017       L1    19  0.02

> <Gold.Chemscore.Hbond.Weighted>
-7.7996

> <Gold.Chemscore.Metal.Weighted>
-0.0000

> <Gold.Chemscore.Lipo.Weighted>
-7.4656

> <Gold.Chemscore.Internal_Hbond.Weighted>
0.0000

> <Gold.Chemscore.DEClash.Weighted>
0.5126

> <Gold.Chemscore.DEInternal.Weighted>
2.0439

> <Gold.Chemscore.Rot.Weighted>
6.8954

> <Gold.Chemscore.Internal.Correction.Weighted>
   9.000000E+99

> <Gold.Protein.RotatedTorsions>
[ 6907 6896 6895 6894 ] final  -58.30 input  -60.11 | X-H torsion
[ 7974 7965 7964 7962 ] final  169.83 input  175.53 | X-H torsion
[ 8008 7997 7996 7995 ] final  -56.34 input   59.86 | X-H torsion
[ 10167 10162 10161 10158 ] final  155.50 input  -65.29 | X-H torsion
[ 10718 10713 10712 10709 ] final   -2.63 input   66.30 | X-H torsion
[ 10763 10752 10751 10750 ] final -171.31 input  -60.55 | X-H torsion
[ 11005 11000 10999 10996 ] final -143.73 input  -57.11 | X-H torsion

> <Gold.Protein.ActiveResidues>
 VAL166  LYS551  ARG553  GLY616  TRP617  ASP618  TYR619  PRO620  LYS621  CYS622 
 ASP623  PHE694  ASN695  SER759  ASP760  ASP761  ALA762  ILE779  LEU786  VAL792 
 PHE793  MET794  SER795  GLU796  ALA797  LYS798  CYS799  TRP800  GLU811  SER814 

> <Gold.Protein.RotatedAtoms>
  150.8018  134.7116  159.6606 H   0  0  0  0  0  0  0  0  0  0  0  0  # atno 6907 bound_to 6896
  152.4135  134.6079  160.0027 H   0  0  0  0  0  0  0  0  0  0  0  0  # atno 6908 bound_to 6896
  151.6315  133.3294  159.3146 H   0  0  0  0  0  0  0  0  0  0  0  0  # atno 6909 bound_to 6896
  144.7342  139.9113  143.6415 H   0  0  0  0  0  0  0  0  0  0  0  0  # atno 7974 bound_to 7965
  154.4226  140.1132  156.5621 H   0  0  0  0  0  0  0  0  0  0  0  0  # atno 8008 bound_to 7997
  155.6300  140.3495  155.4661 H   0  0  0  0  0  0  0  0  0  0  0  0  # atno 8009 bound_to 7997
  155.9956  140.1188  157.0587 H   0  0  0  0  0  0  0  0  0  0  0  0  # atno 8010 bound_to 7997
  139.4821  144.5093  151.8049 H   0  0  0  0  0  0  0  0  0  0  0  0  # atno 10167 bound_to 10162
  156.7880  130.5352  149.5740 H   0  0  0  0  0  0  0  0  0  0  0  0  # atno 10718 bound_to 10713
  154.6319  135.2887  155.0206 H   0  0  0  0  0  0  0  0  0  0  0  0  # atno 10763 bound_to 10752
  154.1364  135.6525  153.4936 H   0  0  0  0  0  0  0  0  0  0  0  0  # atno 10764 bound_to 10752
  153.0284  135.5322  154.7150 H   0  0  0  0  0  0  0  0  0  0  0  0  # atno 10765 bound_to 10752
  140.8096  134.2760  157.4946 H   0  0  0  0  0  0  0  0  0  0  0  0  # atno 11005 bound_to 11000
  146.0999  139.3993  143.0353 LP  0  0  0  0  0  0  0  0  0  0  0  0  # atno 17320 bound_to 7965
  145.7593  140.9941  143.1208 LP  0  0  0  0  0  0  0  0  0  0  0  0  # atno 17321 bound_to 7965
  140.4594  144.1743  150.5905 LP  0  0  0  0  0  0  0  0  0  0  0  0  # atno 17342 bound_to 10162
  140.4500  143.2490  151.9360 LP  0  0  0  0  0  0  0  0  0  0  0  0  # atno 17343 bound_to 10162
  156.1177  130.6087  151.0145 LP  0  0  0  0  0  0  0  0  0  0  0  0  # atno 17370 bound_to 10713
  157.6614  131.0880  150.7829 LP  0  0  0  0  0  0  0  0  0  0  0  0  # atno 17371 bound_to 10713
  139.8715  134.9475  156.3970 LP  0  0  0  0  0  0  0  0  0  0  0  0  # atno 17394 bound_to 11000
  140.9211  133.7644  155.9908 LP  0  0  0  0  0  0  0  0  0  0  0  0  # atno 17395 bound_to 11000

$$$$
