AV-unprocessed.smi:2618|AV-procd|sdf|10221|dock2
  -GOLD-   2272014223D 1   1.00000     0.00000
 Structure written by MMmdl.
 38 39  0  0  0  0  0  0  0  0  2 V2000
  159.9313  142.3529  160.1377 C   0  0  0  0  0  0  0  0  0  0  0  0
  159.1814  141.3858  160.8518 O   0  0  0  0  0  0  0  0  0  0  0  0
  159.8020  140.1107  160.8517 C   0  0  0  0  0  0  0  0  0  0  0  0
  158.8094  139.0745  161.4076 C   0  0  0  0  0  0  0  0  0  0  0  0
  157.4040  139.2360  160.8827 C   0  0  0  0  0  0  0  0  0  0  0  0
  156.6355  140.2258  161.1570 N   0  0  0  0  0  0  0  0  0  0  0  0
  155.4501  140.1072  160.5556 N   0  0  0  0  0  0  0  0  0  0  0  0
  154.4160  141.0404  160.7752 C   0  0  0  0  0  0  0  0  0  0  0  0
  154.3306  141.6798  161.9563 N   0  0  0  0  0  0  0  0  0  0  0  0
  153.3244  142.5615  162.1304 C   0  0  0  0  0  0  0  0  0  0  0  0
  153.2692  143.2704  163.4664 C   0  0  0  0  0  0  0  0  0  0  0  0
  152.3720  142.8094  161.1224 C   0  0  0  0  0  0  0  0  0  0  0  0
  152.5389  142.0837  159.9265 C   0  0  0  0  0  0  0  0  0  0  0  0
  151.5847  142.2441  158.7626 C   0  0  0  0  0  0  0  0  0  0  0  0
  153.5532  141.2086  159.7595 N   0  0  0  0  0  0  0  0  0  0  0  0
  155.3785  138.8572  159.7668 C   0  0  2  0  0  0  0  0  0  0  0  0
  155.2327  139.1045  158.4842 O   0  5  0  0  0  0  0  0  0  0  0  0
  154.2484  137.9092  160.2583 C   0  0  0  0  0  0  0  0  0  0  0  0
  154.3762  136.7096  159.6875 F   0  0  0  0  0  0  0  0  0  0  0  0
  154.2779  137.7405  161.5813 F   0  0  0  0  0  0  0  0  0  0  0  0
  153.0519  138.3996  159.9268 F   0  0  0  0  0  0  0  0  0  0  0  0
  156.7685  138.2407  159.9797 C   0  0  0  0  0  0  0  0  0  0  0  0
  159.4146  143.3122  160.1667 H   0  0  0  0  0  0  0  0  0  0  0  0
  160.0504  142.0661  159.0921 H   0  0  0  0  0  0  0  0  0  0  0  0
  160.9198  142.4891  160.5782 H   0  0  0  0  0  0  0  0  0  0  0  0
  160.0980  139.8465  159.8346 H   0  0  0  0  0  0  0  0  0  0  0  0
  160.7047  140.1415  161.4647 H   0  0  0  0  0  0  0  0  0  0  0  0
  159.1637  138.0706  161.1725 H   0  0  0  0  0  0  0  0  0  0  0  0
  158.7900  139.1461  162.4955 H   0  0  0  0  0  0  0  0  0  0  0  0
  152.5269  144.0689  163.4580 H   0  0  0  0  0  0  0  0  0  0  0  0
  154.2386  143.7096  163.7043 H   0  0  0  0  0  0  0  0  0  0  0  0
  153.0073  142.5659  164.2560 H   0  0  0  0  0  0  0  0  0  0  0  0
  151.5627  143.5114  161.2593 H   0  0  0  0  0  0  0  0  0  0  0  0
  150.8469  143.0216  158.9623 H   0  0  0  0  0  0  0  0  0  0  0  0
  151.0550  141.3093  158.5772 H   0  0  0  0  0  0  0  0  0  0  0  0
  152.1303  142.5156  157.8585 H   0  0  0  0  0  0  0  0  0  0  0  0
  157.3510  138.1308  159.0627 H   0  0  0  0  0  0  0  0  0  0  0  0
  156.7216  137.2652  160.4644 H   0  0  0  0  0  0  0  0  0  0  0  0
  1  2  1  0  0  0  0
  1 23  1  0  0  0  0
  1 24  1  0  0  0  0
  1 25  1  0  0  0  0
  2  3  1  0  0  0  0
  3  4  1  0  0  0  0
  3 26  1  0  0  0  0
  3 27  1  0  0  0  0
  4  5  1  0  0  0  0
  4 28  1  0  0  0  0
  4 29  1  0  0  0  0
  5 22  1  0  0  0  0
  5  6  2  0  0  0  0
  6  7  1  0  0  0  0
  7  8  1  0  0  0  0
  7 16  1  0  0  0  0
  8 15  1  0  0  0  0
  8  9  2  0  0  0  0
  9 10  1  0  0  0  0
 10 11  1  0  0  0  0
 10 12  2  0  0  0  0
 11 30  1  0  0  0  0
 11 31  1  0  0  0  0
 11 32  1  0  0  0  0
 12 13  1  0  0  0  0
 12 33  1  0  0  0  0
 13 14  1  0  0  0  0
 13 15  2  0  0  0  0
 14 34  1  0  0  0  0
 14 35  1  0  0  0  0
 14 36  1  0  0  0  0
 16 17  1  0  0  0  0
 16 18  1  0  0  0  0
 16 22  1  0  0  0  0
 18 19  1  0  0  0  0
 18 20  1  0  0  0  0
 18 21  1  0  0  0  0
 22 37  1  0  0  0  0
 22 38  1  0  0  0  0
M  CHG  1  17  -1
M  END
> <s_m_source_file>
AV-unprocessed.smi

> <i_m_source_file_index>
2618

> <i_lp_mmshare_version>
43012

> <i_f3d_flags>
0

> <s_epik_input>
W0NIM11PW0NIMl1bQ0gyXUMoW0NIMl0xKT1OTihbQ0BAXTEoW09IXSlDKEYpKEYpRiljMm5jKFtDSDNdKVtjSF1jKG4yKVtDSDNd

> <s_epik_cmdline>
J2VwaWtfcHl0aG9uJywgJy1waCcsICc3LjAnLCAnLXRuJywgJzgnLCAnLW1hJywgJzIwMCcsICctbWV0YWxfYmluZGluZycsICctaW1hZScsICc8aW5maWxlLm1hZT4nLCAnLW9tYWUnLCAnPG91dGZpbGUubWFlPic=

> <r_lp_tautomer_probability>
1

> <r_epik_Ionization_Penalty>
1.35617

> <r_epik_Ionization_Penalty_Charging>
1.35566

> <r_epik_Ionization_Penalty_Neutral>
0.000506926

> <r_epik_State_Penalty>
1.43411

> <r_epik_Charging_Adjusted_Penalty>
2.78977

> <i_epik_Tot_Q>
-1

> <i_epik_Tot_abs_Q>
1

> <r_epik_Metal_State_Penalty>
1.43499

> <b_epik_Metal_Only>
0

> <s_epik_Chemistry_Notes>
This compound has an imine and may undergo hydrolysis.

> <s_lp_Force_Field>
OPLS_2005

> <r_lp_Energy>
21.8368

> <b_lp_Chiralities_Consistent>
1

> <s_lp_Variant>
AV-unprocessed.smi:2618-4

> <Gold.Version>
5.8.1

> <Gold.Id.Protein>
6NUR|6NUR_protein|mol2

> <Gold.PLP.Fitness>
42.7480

> <Gold.PLP.PLP>
-38.0273

> <Gold.PLP.part.hbond>
-3.6707

> <Gold.PLP.part.metal>
0.0000

> <Gold.PLP.part.buried>
-5.6511

> <Gold.PLP.part.nonpolar>
-27.9003

> <Gold.PLP.part.repulsive>
0.0377

> <Gold.PLP.ligand.clash>
0.0000

> <Gold.PLP.ligand.torsion>
0.7403

> <Gold.PLP.Chemscore.Hbond>
2.0000

> <Gold.PLP.Chemscore.CHOScore>
0.0000

> <Gold.PLP.Chemscore.Metal>
0.0000

> <Gold.Chemscore.Hbonds>
donor molecule, donor type, donor heavy atom, donor atom, acceptor molecule, acceptor atom, score
      P1  H  7997  8010       L1    17  1.56

> <Gold.PLP.Chemscore.Internal.Correction>
0.2012

> <Gold.Rescore>
     Score         DG    S(hbond)    S(metal)    S(lipo)     H(rot)  DE(clash)    DE(int)     intcor
      9.31     -14.26       0.98        0.00      79.37       1.47       0.12       4.83       ----

> <Gold.Chemscore.Fitness>
9.3081

> <Gold.Chemscore.DG>
-14.2592

> <Gold.Chemscore.ZeroCoef>
-5.4800

> <Gold.Chemscore.Hbond>
0.9780

> <Gold.Chemscore.Metal>
0.0000

> <Gold.Chemscore.Lipo>
79.3744

> <Gold.Chemscore.Internal_Hbond>
0.0000

> <Gold.Chemscore.DEClash>
0.1229

> <Gold.Chemscore.DEInternal>
4.8282

> <Gold.Chemscore.Rot>
1.4742

> <Gold.Chemscore.Internal.Correction>
   9.000000E+99

> <Gold.Chemscore.Hbonds>
donor molecule, donor type, donor heavy atom, donor atom, acceptor molecule, acceptor atom, score
      P1  H  7997  8010       L1    17  0.77

> <Gold.Chemscore.Hbond.Weighted>
-3.2664

> <Gold.Chemscore.Metal.Weighted>
-0.0000

> <Gold.Chemscore.Lipo.Weighted>
-9.2868

> <Gold.Chemscore.Internal_Hbond.Weighted>
0.0000

> <Gold.Chemscore.DEClash.Weighted>
0.1229

> <Gold.Chemscore.DEInternal.Weighted>
4.8282

> <Gold.Chemscore.Rot.Weighted>
3.7740

> <Gold.Chemscore.Internal.Correction.Weighted>
   9.000000E+99

> <Gold.Protein.RotatedTorsions>
[ 6907 6896 6895 6894 ] final  107.47 input  -60.11 | X-H torsion
[ 7974 7965 7964 7962 ] final  -52.89 input  175.53 | X-H torsion
[ 8008 7997 7996 7995 ] final  -12.45 input   59.86 | X-H torsion
[ 10167 10162 10161 10158 ] final  -42.56 input  -65.29 | X-H torsion
[ 10718 10713 10712 10709 ] final  126.19 input   66.30 | X-H torsion
[ 10763 10752 10751 10750 ] final  -96.29 input  -60.55 | X-H torsion
[ 11005 11000 10999 10996 ] final  -70.36 input  -57.11 | X-H torsion

> <Gold.Protein.ActiveResidues>
 VAL166  LYS551  ARG553  GLY616  TRP617  ASP618  TYR619  PRO620  LYS621  CYS622 
 ASP623  PHE694  ASN695  SER759  ASP760  ASP761  ALA762  ILE779  LEU786  VAL792 
 PHE793  MET794  SER795  GLU796  ALA797  LYS798  CYS799  TRP800  GLU811  SER814 

> <Gold.Protein.RotatedAtoms>
  152.5153  133.9229  159.7542 H   0  0  0  0  0  0  0  0  0  0  0  0  # atno 6907 bound_to 6896
  150.9597  133.6450  159.2763 H   0  0  0  0  0  0  0  0  0  0  0  0  # atno 6908 bound_to 6896
  151.3700  135.0926  159.9515 H   0  0  0  0  0  0  0  0  0  0  0  0  # atno 6909 bound_to 6896
  145.9029  140.7979  142.9734 H   0  0  0  0  0  0  0  0  0  0  0  0  # atno 7974 bound_to 7965
  154.5376  140.2276  155.8695 H   0  0  0  0  0  0  0  0  0  0  0  0  # atno 8008 bound_to 7997
  156.1827  140.3096  155.9142 H   0  0  0  0  0  0  0  0  0  0  0  0  # atno 8009 bound_to 7997
  155.3322  140.0446  157.3033 H   0  0  0  0  0  0  0  0  0  0  0  0  # atno 8010 bound_to 7997
  140.6965  143.3031  151.3227 H   0  0  0  0  0  0  0  0  0  0  0  0  # atno 10167 bound_to 10162
  157.5440  131.1096  150.8813 H   0  0  0  0  0  0  0  0  0  0  0  0  # atno 10718 bound_to 10713
  154.7226  135.5089  153.8836 H   0  0  0  0  0  0  0  0  0  0  0  0  # atno 10763 bound_to 10752
  153.0876  135.6650  153.9927 H   0  0  0  0  0  0  0  0  0  0  0  0  # atno 10764 bound_to 10752
  153.9746  135.3035  155.3404 H   0  0  0  0  0  0  0  0  0  0  0  0  # atno 10765 bound_to 10752
  141.1572  133.6788  156.6740 H   0  0  0  0  0  0  0  0  0  0  0  0  # atno 11005 bound_to 11000
  144.6737  140.1705  143.7414 LP  0  0  0  0  0  0  0  0  0  0  0  0  # atno 17320 bound_to 7965
  145.8768  139.2301  143.1628 LP  0  0  0  0  0  0  0  0  0  0  0  0  # atno 17321 bound_to 7965
  139.6426  144.0511  152.2566 LP  0  0  0  0  0  0  0  0  0  0  0  0  # atno 17342 bound_to 10162
  140.0021  144.6286  150.7721 LP  0  0  0  0  0  0  0  0  0  0  0  0  # atno 17343 bound_to 10162
  156.9357  130.5366  149.5279 LP  0  0  0  0  0  0  0  0  0  0  0  0  # atno 17370 bound_to 10713
  156.0520  130.5588  150.9010 LP  0  0  0  0  0  0  0  0  0  0  0  0  # atno 17371 bound_to 10713
  140.3153  134.8053  157.4209 LP  0  0  0  0  0  0  0  0  0  0  0  0  # atno 17394 bound_to 11000
  140.1144  134.5303  155.8238 LP  0  0  0  0  0  0  0  0  0  0  0  0  # atno 17395 bound_to 11000

$$$$
