AV-unprocessed.smi:3338|AV-procd|sdf|12869|dock10
  -GOLD-   2272019273D 1   1.00000     0.00000
 Structure written by MMmdl.
 44 45  0  0  0  0  0  0  0  0  2 V2000
  152.8452  138.3539  154.6418 C   0  0  0  0  0  0  0  0  0  0  0  0
  151.3875  138.0431  154.2739 C   0  0  2  0  0  0  0  0  0  0  0  0
  150.5050  139.2991  154.3645 C   0  0  0  0  0  0  0  0  0  0  0  0
  149.0522  138.9533  154.0163 C   0  0  0  0  0  0  0  0  0  0  0  0
  148.5315  137.8100  154.9014 C   0  0  0  0  0  0  0  0  0  0  0  0
  149.4001  136.6092  154.7924 N   0  3  2  0  0  0  0  0  0  0  0  0
  148.8446  135.4484  155.5326 C   0  0  0  0  0  0  0  0  0  0  0  0
  148.6860  134.2012  154.6411 C   0  0  0  0  0  0  0  0  0  0  0  0
  147.9190  134.5044  153.4392 N   0  0  0  0  0  0  0  0  0  0  0  0
  146.8186  133.8447  153.0422 C   0  0  0  0  0  0  0  0  0  0  0  0
  146.3230  132.9231  153.6923 O   0  0  0  0  0  0  0  0  0  0  0  0
  146.1956  134.2969  151.7096 C   0  0  2  0  0  0  0  0  0  0  0  0
  145.5259  135.6833  151.7945 C   0  0  0  0  0  0  0  0  0  0  0  0
  145.2733  133.2873  151.2011 N   0  0  0  0  0  0  0  0  0  0  0  0
  145.5368  131.9632  150.9144 C   0  0  0  0  0  0  0  0  0  0  0  0
  144.3716  131.3960  150.4848 C   0  0  0  0  0  0  0  0  0  0  0  0
  143.4339  132.4639  150.5446 C   0  0  0  0  0  0  0  0  0  0  0  0
  143.9734  133.5916  150.9772 N   0  0  0  0  0  0  0  0  0  0  0  0
  150.8089  136.9191  155.1572 C   0  0  0  0  0  0  0  0  0  0  0  0
  152.9290  138.7075  155.6699 H   0  0  0  0  0  0  0  0  0  0  0  0
  153.2588  139.1244  153.9905 H   0  0  0  0  0  0  0  0  0  0  0  0
  153.4733  137.4680  154.5423 H   0  0  0  0  0  0  0  0  0  0  0  0
  151.3776  137.6970  153.2391 H   0  0  0  0  0  0  0  0  0  0  0  0
  150.5513  139.7163  155.3715 H   0  0  0  0  0  0  0  0  0  0  0  0
  150.8741  140.0719  153.6892 H   0  0  0  0  0  0  0  0  0  0  0  0
  148.4211  139.8343  154.1359 H   0  0  0  0  0  0  0  0  0  0  0  0
  148.9849  138.6646  152.9665 H   0  0  0  0  0  0  0  0  0  0  0  0
  148.4813  138.1312  155.9431 H   0  0  0  0  0  0  0  0  0  0  0  0
  147.5143  137.5606  154.5966 H   0  0  0  0  0  0  0  0  0  0  0  0
  149.4672  135.2292  156.4014 H   0  0  0  0  0  0  0  0  0  0  0  0
  147.8614  135.7172  155.9220 H   0  0  0  0  0  0  0  0  0  0  0  0
  149.6628  133.7974  154.3688 H   0  0  0  0  0  0  0  0  0  0  0  0
  148.1576  133.4081  155.1687 H   0  0  0  0  0  0  0  0  0  0  0  0
  148.2608  135.2525  152.8528 H   0  0  0  0  0  0  0  0  0  0  0  0
  147.0141  134.3767  150.9923 H   0  0  0  0  0  0  0  0  0  0  0  0
  146.2361  136.4460  152.1155 H   0  0  0  0  0  0  0  0  0  0  0  0
  144.6909  135.6906  152.4964 H   0  0  0  0  0  0  0  0  0  0  0  0
  145.1402  135.9877  150.8211 H   0  0  0  0  0  0  0  0  0  0  0  0
  146.5219  131.5381  151.0386 H   0  0  0  0  0  0  0  0  0  0  0  0
  144.2129  130.3737  150.1743 H   0  0  0  0  0  0  0  0  0  0  0  0
  142.3842  132.4527  150.2907 H   0  0  0  0  0  0  0  0  0  0  0  0
  151.4282  136.0298  155.0446 H   0  0  0  0  0  0  0  0  0  0  0  0
  150.8567  137.2036  156.2098 H   0  0  0  0  0  0  0  0  0  0  0  0
  149.3972  136.3514  153.8158 H   0  0  0  0  0  0  0  0  0  0  0  0
  1  2  1  0  0  0  0
  1 20  1  0  0  0  0
  1 21  1  0  0  0  0
  1 22  1  0  0  0  0
  2 19  1  0  0  0  0
  2  3  1  0  0  0  0
  2 23  1  0  0  0  0
  3  4  1  0  0  0  0
  3 24  1  0  0  0  0
  3 25  1  0  0  0  0
  4  5  1  0  0  0  0
  4 26  1  0  0  0  0
  4 27  1  0  0  0  0
  5  6  1  0  0  0  0
  5 28  1  0  0  0  0
  5 29  1  0  0  0  0
  6  7  1  0  0  0  0
  6 19  1  0  0  0  0
  6 44  1  0  0  0  0
  7  8  1  0  0  0  0
  7 30  1  0  0  0  0
  7 31  1  0  0  0  0
  8  9  1  0  0  0  0
  8 32  1  0  0  0  0
  8 33  1  0  0  0  0
  9 10  1  0  0  0  0
  9 34  1  0  0  0  0
 10 11  2  0  0  0  0
 10 12  1  0  0  0  0
 12 13  1  0  0  0  0
 12 14  1  0  0  0  0
 12 35  1  0  0  0  0
 13 36  1  0  0  0  0
 13 37  1  0  0  0  0
 13 38  1  0  0  0  0
 14 18  1  0  0  0  0
 14 15  1  0  0  0  0
 15 16  2  0  0  0  0
 15 39  1  0  0  0  0
 16 17  1  0  0  0  0
 16 40  1  0  0  0  0
 17 18  2  0  0  0  0
 17 41  1  0  0  0  0
 19 42  1  0  0  0  0
 19 43  1  0  0  0  0
M  CHG  1   6   1
M  END
> <s_m_source_file>
AV-unprocessed.smi

> <i_m_source_file_index>
3338

> <i_lp_mmshare_version>
43012

> <i_f3d_flags>
0

> <s_epik_input>
W0NIM11bQ0BASF0xW0NIMl1bQ0gyXVtDSDJdTihbQ0gyXTEpW0NIMl1bQ0gyXVtOSF1DKD1PKVtDQEhdKFtDSDNdKW4yW2NIXVtjSF1bY0hdbjI=

> <s_epik_cmdline>
J2VwaWtfcHl0aG9uJywgJy1waCcsICc3LjAnLCAnLXRuJywgJzgnLCAnLW1hJywgJzIwMCcsICctbWV0YWxfYmluZGluZycsICctaW1hZScsICc8aW5maWxlLm1hZT4nLCAnLW9tYWUnLCAnPG91dGZpbGUubWFlPic=

> <r_lp_tautomer_probability>
1

> <r_epik_Ionization_Penalty>
0.00225707

> <r_epik_Ionization_Penalty_Charging>
0.00223709

> <r_epik_Ionization_Penalty_Neutral>
1.99775e-05

> <r_epik_State_Penalty>
0.00153978

> <r_epik_Charging_Adjusted_Penalty>
0.00377687

> <i_epik_Tot_Q>
1

> <i_epik_Tot_abs_Q>
1

> <r_epik_Metal_State_Penalty>
-0

> <b_epik_Metal_Only>
0

> <s_lp_Force_Field>
OPLS_2005

> <r_lp_Energy>
19.7834

> <b_lp_Chiralities_Consistent>
1

> <s_lp_Variant>
AV-unprocessed.smi:3338-1

> <Gold.Version>
5.8.1

> <Gold.Id.Protein>
6NUR|6NUR_protein|mol2

> <Gold.PLP.Fitness>
47.8181

> <Gold.PLP.PLP>
-33.8063

> <Gold.PLP.part.hbond>
-1.9585

> <Gold.PLP.part.metal>
0.0000

> <Gold.PLP.part.buried>
-3.1029

> <Gold.PLP.part.nonpolar>
-29.4108

> <Gold.PLP.part.repulsive>
0.2801

> <Gold.PLP.ligand.clash>
0.0000

> <Gold.PLP.ligand.torsion>
1.0770

> <Gold.PLP.Chemscore.Hbond>
2.9913

> <Gold.PLP.Chemscore.CHOScore>
2.3537

> <Gold.PLP.Chemscore.Metal>
0.0000

> <Gold.Chemscore.Hbonds>
donor molecule, donor type, donor heavy atom, donor atom, acceptor molecule, acceptor atom, score
      L1  H     6    44       P1  7948  2.00
      L1  H     9    34       P1  7948  0.99
      L1  C    15    39       P1 10747  0.68
      L1  C    17    41       P1 10186  0.94
      L1  C    17    41       P1 10952  0.55

> <Gold.PLP.Chemscore.Internal.Correction>
0.1310

> <Gold.Rescore>
     Score         DG    S(hbond)    S(metal)    S(lipo)     H(rot)  DE(clash)    DE(int)     intcor
     16.34     -17.52       1.92        0.00      86.69       1.76       0.10       1.08       ----

> <Gold.Chemscore.Fitness>
16.3429

> <Gold.Chemscore.DG>
-17.5250

> <Gold.Chemscore.ZeroCoef>
-5.4800

> <Gold.Chemscore.Hbond>
1.9161

> <Gold.Chemscore.Metal>
0.0000

> <Gold.Chemscore.Lipo>
86.6939

> <Gold.Chemscore.Internal_Hbond>
0.0000

> <Gold.Chemscore.DEClash>
0.0989

> <Gold.Chemscore.DEInternal>
1.0832

> <Gold.Chemscore.Rot>
1.7570

> <Gold.Chemscore.Internal.Correction>
   9.000000E+99

> <Gold.Chemscore.Hbonds>
donor molecule, donor type, donor heavy atom, donor atom, acceptor molecule, acceptor atom, score
      L1  H     6    44       P1  7948  0.80
      L1  H     9    34       P1  7948  0.90

> <Gold.Chemscore.Hbond.Weighted>
-6.3997

> <Gold.Chemscore.Metal.Weighted>
-0.0000

> <Gold.Chemscore.Lipo.Weighted>
-10.1432

> <Gold.Chemscore.Internal_Hbond.Weighted>
0.0000

> <Gold.Chemscore.DEClash.Weighted>
0.0989

> <Gold.Chemscore.DEInternal.Weighted>
1.0832

> <Gold.Chemscore.Rot.Weighted>
4.4979

> <Gold.Chemscore.Internal.Correction.Weighted>
   9.000000E+99

> <Gold.Protein.RotatedTorsions>
[ 6907 6896 6895 6894 ] final -136.50 input  -60.11 | X-H torsion
[ 7974 7965 7964 7962 ] final  -86.57 input  175.53 | X-H torsion
[ 8008 7997 7996 7995 ] final  -72.49 input   59.86 | X-H torsion
[ 10167 10162 10161 10158 ] final   38.67 input  -65.29 | X-H torsion
[ 10718 10713 10712 10709 ] final  -72.16 input   66.30 | X-H torsion
[ 10763 10752 10751 10750 ] final   54.96 input  -60.55 | X-H torsion
[ 11005 11000 10999 10996 ] final   49.36 input  -57.11 | X-H torsion

> <Gold.Protein.ActiveResidues>
 VAL166  LYS551  ARG553  GLY616  TRP617  ASP618  TYR619  PRO620  LYS621  CYS622 
 ASP623  PHE694  ASN695  SER759  ASP760  ASP761  ALA762  ILE779  LEU786  VAL792 
 PHE793  MET794  SER795  GLU796  ALA797  LYS798  CYS799  TRP800  GLU811  SER814 

> <Gold.Protein.RotatedAtoms>
  151.0108  133.5967  159.2682 H   0  0  0  0  0  0  0  0  0  0  0  0  # atno 6907 bound_to 6896
  151.3119  135.0795  159.9285 H   0  0  0  0  0  0  0  0  0  0  0  0  # atno 6908 bound_to 6896
  152.5299  133.9771  159.7843 H   0  0  0  0  0  0  0  0  0  0  0  0  # atno 6909 bound_to 6896
  145.4781  140.9558  143.1880 H   0  0  0  0  0  0  0  0  0  0  0  0  # atno 7974 bound_to 7965
  154.5170  140.0796  156.8100 H   0  0  0  0  0  0  0  0  0  0  0  0  # atno 8008 bound_to 7997
  155.3658  140.3420  155.4224 H   0  0  0  0  0  0  0  0  0  0  0  0  # atno 8009 bound_to 7997
  156.1639  140.1597  156.8552 H   0  0  0  0  0  0  0  0  0  0  0  0  # atno 8010 bound_to 7997
  140.3914  144.1847  150.6131 H   0  0  0  0  0  0  0  0  0  0  0  0  # atno 10167 bound_to 10162
  156.0332  130.4366  150.2551 H   0  0  0  0  0  0  0  0  0  0  0  0  # atno 10718 bound_to 10713
  152.9811  135.5727  154.4990 H   0  0  0  0  0  0  0  0  0  0  0  0  # atno 10763 bound_to 10752
  154.4512  135.2778  155.1781 H   0  0  0  0  0  0  0  0  0  0  0  0  # atno 10764 bound_to 10752
  154.3408  135.6229  153.5649 H   0  0  0  0  0  0  0  0  0  0  0  0  # atno 10765 bound_to 10752
  140.1110  134.4954  155.8677 H   0  0  0  0  0  0  0  0  0  0  0  0  # atno 11005 bound_to 11000
  144.7905  139.6338  143.7115 LP  0  0  0  0  0  0  0  0  0  0  0  0  # atno 17320 bound_to 7965
  146.2357  139.5901  142.9525 LP  0  0  0  0  0  0  0  0  0  0  0  0  # atno 17321 bound_to 7965
  140.4835  143.2371  151.8921 LP  0  0  0  0  0  0  0  0  0  0  0  0  # atno 17342 bound_to 10162
  139.4789  144.5243  151.8757 LP  0  0  0  0  0  0  0  0  0  0  0  0  # atno 17343 bound_to 10162
  157.0652  131.0101  151.3209 LP  0  0  0  0  0  0  0  0  0  0  0  0  # atno 17370 bound_to 10713
  157.5041  130.7898  149.7635 LP  0  0  0  0  0  0  0  0  0  0  0  0  # atno 17371 bound_to 10713
  141.2130  133.6727  156.6706 LP  0  0  0  0  0  0  0  0  0  0  0  0  # atno 17394 bound_to 11000
  140.3090  134.8101  157.4161 LP  0  0  0  0  0  0  0  0  0  0  0  0  # atno 17395 bound_to 11000

$$$$
