AV-unprocessed.smi:1617|AV-procd|sdf|6484|dock6
  -GOLD-   22720 7143D 1   1.00000     0.00000
 Structure written by MMmdl.
 47 49  0  0  0  0  0  0  0  0  1 V2000
  149.2265  135.4474  156.3083 O   0  0  0  0  0  0  0  0  0  0  0  0
  149.1338  135.8027  155.1335 C   0  0  0  0  0  0  0  0  0  0  0  0
  149.4722  137.0130  154.6571 N   0  0  0  0  0  0  0  0  0  0  0  0
  149.9575  138.1423  155.3706 C   0  0  0  0  0  0  0  0  0  0  0  0
  150.4559  139.3176  154.7639 C   0  0  0  0  0  0  0  0  0  0  0  0
  150.9264  140.3630  155.5818 C   0  0  0  0  0  0  0  0  0  0  0  0
  150.8952  140.2125  156.9916 C   0  0  0  0  0  0  0  0  0  0  0  0
  151.3590  141.2210  157.8684 N   0  0  0  0  0  0  0  0  0  0  0  0
  152.5067  140.9326  158.7252 C   0  0  0  0  0  0  0  0  0  0  0  0
  152.6503  142.0025  159.8211 C   0  0  0  0  0  0  0  0  0  0  0  0
  152.7079  143.2948  159.2291 O   0  0  0  0  0  0  0  0  0  0  0  0
  151.5133  143.5985  158.5182 C   0  0  0  0  0  0  0  0  0  0  0  0
  151.3218  142.5956  157.3676 C   0  0  0  0  0  0  0  0  0  0  0  0
  150.4287  139.0764  157.5639 N   0  0  0  0  0  0  0  0  0  0  0  0
  149.9805  138.0767  156.7770 C   0  0  0  0  0  0  0  0  0  0  0  0
  148.6891  135.0032  154.1522 N   0  0  0  0  0  0  0  0  0  0  0  0
  148.2225  133.6253  154.3258 C   0  0  2  0  0  0  0  0  0  0  0  0
  149.3646  132.6847  153.8774 C   0  0  0  0  0  0  0  0  0  0  0  0
  149.2731  131.2692  154.4736 C   0  0  0  0  0  0  0  0  0  0  0  0
  148.0511  130.4531  154.0252 C   0  0  0  0  0  0  0  0  0  0  0  0
  146.7063  131.0715  154.4445 C   0  0  0  0  0  0  0  0  0  0  0  0
  146.3265  132.1885  153.5895 N   0  0  0  0  0  0  0  0  0  0  0  0
  146.9716  133.3571  153.4563 C   0  0  0  0  0  0  0  0  0  0  0  0
  146.5743  134.1976  152.6493 O   0  0  0  0  0  0  0  0  0  0  0  0
  149.4171  137.1266  153.6555 H   0  0  0  0  0  0  0  0  0  0  0  0
  150.5002  139.4363  153.6927 H   0  0  0  0  0  0  0  0  0  0  0  0
  151.2951  141.2581  155.1054 H   0  0  0  0  0  0  0  0  0  0  0  0
  152.3894  139.9605  159.2046 H   0  0  0  0  0  0  0  0  0  0  0  0
  153.4102  140.8952  158.1153 H   0  0  0  0  0  0  0  0  0  0  0  0
  151.8197  141.9500  160.5269 H   0  0  0  0  0  0  0  0  0  0  0  0
  153.5628  141.8326  160.3926 H   0  0  0  0  0  0  0  0  0  0  0  0
  150.6582  143.5799  159.1959 H   0  0  0  0  0  0  0  0  0  0  0  0
  151.5832  144.6120  158.1233 H   0  0  0  0  0  0  0  0  0  0  0  0
  152.1128  142.7204  156.6271 H   0  0  0  0  0  0  0  0  0  0  0  0
  150.3792  142.8189  156.8683 H   0  0  0  0  0  0  0  0  0  0  0  0
  149.6226  137.1965  157.2911 H   0  0  0  0  0  0  0  0  0  0  0  0
  148.6459  135.3799  153.2169 H   0  0  0  0  0  0  0  0  0  0  0  0
  147.9901  133.4589  155.3793 H   0  0  0  0  0  0  0  0  0  0  0  0
  149.4245  132.6328  152.7887 H   0  0  0  0  0  0  0  0  0  0  0  0
  150.3184  133.1044  154.2008 H   0  0  0  0  0  0  0  0  0  0  0  0
  150.1742  130.7193  154.2002 H   0  0  0  0  0  0  0  0  0  0  0  0
  149.2858  131.3340  155.5623 H   0  0  0  0  0  0  0  0  0  0  0  0
  148.0749  130.3004  152.9452 H   0  0  0  0  0  0  0  0  0  0  0  0
  148.1269  129.4596  154.4684 H   0  0  0  0  0  0  0  0  0  0  0  0
  145.9227  130.3188  154.3555 H   0  0  0  0  0  0  0  0  0  0  0  0
  146.7203  131.3768  155.4917 H   0  0  0  0  0  0  0  0  0  0  0  0
  145.5071  132.0505  153.0156 H   0  0  0  0  0  0  0  0  0  0  0  0
  1  2  2  0  0  0  0
  2  3  1  0  0  0  0
  2 16  1  0  0  0  0
  3  4  1  0  0  0  0
  3 25  1  0  0  0  0
  4 15  1  0  0  0  0
  4  5  2  0  0  0  0
  5  6  1  0  0  0  0
  5 26  1  0  0  0  0
  6  7  2  0  0  0  0
  6 27  1  0  0  0  0
  7  8  1  0  0  0  0
  7 14  1  0  0  0  0
  8 13  1  0  0  0  0
  8  9  1  0  0  0  0
  9 10  1  0  0  0  0
  9 28  1  0  0  0  0
  9 29  1  0  0  0  0
 10 11  1  0  0  0  0
 10 30  1  0  0  0  0
 10 31  1  0  0  0  0
 11 12  1  0  0  0  0
 12 13  1  0  0  0  0
 12 32  1  0  0  0  0
 12 33  1  0  0  0  0
 13 34  1  0  0  0  0
 13 35  1  0  0  0  0
 14 15  2  0  0  0  0
 15 36  1  0  0  0  0
 16 17  1  0  0  0  0
 16 37  1  0  0  0  0
 17 23  1  0  0  0  0
 17 18  1  0  0  0  0
 17 38  1  0  0  0  0
 18 19  1  0  0  0  0
 18 39  1  0  0  0  0
 18 40  1  0  0  0  0
 19 20  1  0  0  0  0
 19 41  1  0  0  0  0
 19 42  1  0  0  0  0
 20 21  1  0  0  0  0
 20 43  1  0  0  0  0
 20 44  1  0  0  0  0
 21 22  1  0  0  0  0
 21 45  1  0  0  0  0
 21 46  1  0  0  0  0
 22 23  1  0  0  0  0
 22 47  1  0  0  0  0
 23 24  2  0  0  0  0
M  END
> <s_m_source_file>
AV-unprocessed.smi

> <i_m_source_file_index>
1617

> <i_lp_mmshare_version>
43012

> <i_f3d_flags>
0

> <s_epik_input>
Tz1DMVtOSF1bQ0gyXVtDSDJdW0NIMl1bQ0gyXVtDQEhdMVtOSF1DKD1PKVtOSF1jMltjSF1bY0hdYyhuW2NIXTIpTjNbQ0gyXVtDSDJdT1tDSDJdW0NIMl0z

> <s_epik_cmdline>
J2VwaWtfcHl0aG9uJywgJy1waCcsICc3LjAnLCAnLXRuJywgJzgnLCAnLW1hJywgJzIwMCcsICctbWV0YWxfYmluZGluZycsICctaW1hZScsICc8aW5maWxlLm1hZT4nLCAnLW9tYWUnLCAnPG91dGZpbGUubWFlPic=

> <r_lp_tautomer_probability>
1

> <r_epik_Ionization_Penalty>
0.00171733

> <r_epik_Ionization_Penalty_Charging>
0

> <r_epik_Ionization_Penalty_Neutral>
0.00171733

> <r_epik_State_Penalty>
0.00113787

> <r_epik_Charging_Adjusted_Penalty>
0.00113787

> <i_epik_Tot_Q>
0

> <i_epik_Tot_abs_Q>
0

> <r_epik_Metal_State_Penalty>
-0

> <b_epik_Metal_Only>
0

> <s_lp_Force_Field>
OPLS_2005

> <r_lp_Energy>
27.2722

> <b_lp_Chiralities_Consistent>
1

> <s_lp_Variant>
AV-unprocessed.smi:1617-1

> <Gold.Version>
5.8.1

> <Gold.Id.Protein>
6NUR|6NUR_protein|mol2

> <Gold.PLP.Fitness>
38.7439

> <Gold.PLP.PLP>
-33.7760

> <Gold.PLP.part.hbond>
-2.0000

> <Gold.PLP.part.metal>
0.0000

> <Gold.PLP.part.buried>
-4.9657

> <Gold.PLP.part.nonpolar>
-26.2730

> <Gold.PLP.part.repulsive>
0.1554

> <Gold.PLP.ligand.clash>
0.0000

> <Gold.PLP.ligand.torsion>
0.6406

> <Gold.PLP.Chemscore.Hbond>
1.9280

> <Gold.PLP.Chemscore.CHOScore>
0.0000

> <Gold.PLP.Chemscore.Metal>
0.0000

> <Gold.Chemscore.Hbonds>
donor molecule, donor type, donor heavy atom, donor atom, acceptor molecule, acceptor atom, score
      L1  H     3    25       P1  7948  0.92
      L1  H    16    37       P1  7948  1.00

> <Gold.PLP.Chemscore.Internal.Correction>
0.4650

> <Gold.Rescore>
     Score         DG    S(hbond)    S(metal)    S(lipo)     H(rot)  DE(clash)    DE(int)     intcor
     15.99     -18.11       1.82        0.00      83.88       1.27       0.07       2.05       ----

> <Gold.Chemscore.Fitness>
15.9891

> <Gold.Chemscore.DG>
-18.1111

> <Gold.Chemscore.ZeroCoef>
-5.4800

> <Gold.Chemscore.Hbond>
1.8157

> <Gold.Chemscore.Metal>
0.0000

> <Gold.Chemscore.Lipo>
83.8786

> <Gold.Chemscore.Internal_Hbond>
0.0000

> <Gold.Chemscore.DEClash>
0.0688

> <Gold.Chemscore.DEInternal>
2.0531

> <Gold.Chemscore.Rot>
1.2684

> <Gold.Chemscore.Internal.Correction>
   9.000000E+99

> <Gold.Chemscore.Hbonds>
donor molecule, donor type, donor heavy atom, donor atom, acceptor molecule, acceptor atom, score
      L1  H     3    25       P1  7948  0.79
      L1  H    16    37       P1  7948  0.89

> <Gold.Chemscore.Hbond.Weighted>
-6.0644

> <Gold.Chemscore.Metal.Weighted>
-0.0000

> <Gold.Chemscore.Lipo.Weighted>
-9.8138

> <Gold.Chemscore.Internal_Hbond.Weighted>
0.0000

> <Gold.Chemscore.DEClash.Weighted>
0.0688

> <Gold.Chemscore.DEInternal.Weighted>
2.0531

> <Gold.Chemscore.Rot.Weighted>
3.2471

> <Gold.Chemscore.Internal.Correction.Weighted>
   9.000000E+99

> <Gold.Protein.RotatedTorsions>
[ 6907 6896 6895 6894 ] final  -89.20 input  -60.11 | X-H torsion
[ 7974 7965 7964 7962 ] final  158.63 input  175.53 | X-H torsion
[ 8008 7997 7996 7995 ] final -154.95 input   59.86 | X-H torsion
[ 10167 10162 10161 10158 ] final  -79.36 input  -65.29 | X-H torsion
[ 10718 10713 10712 10709 ] final   -7.12 input   66.30 | X-H torsion
[ 10763 10752 10751 10750 ] final -161.04 input  -60.55 | X-H torsion
[ 11005 11000 10999 10996 ] final -105.10 input  -57.11 | X-H torsion

> <Gold.Protein.ActiveResidues>
 VAL166  LYS551  ARG553  GLY616  TRP617  ASP618  TYR619  PRO620  LYS621  CYS622 
 ASP623  PHE694  ASN695  SER759  ASP760  ASP761  ALA762  ILE779  LEU786  VAL792 
 PHE793  MET794  SER795  GLU796  ALA797  LYS798  CYS799  TRP800  GLU811  SER814 

> <Gold.Protein.RotatedAtoms>
  150.6872  134.2623  159.4554 H   0  0  0  0  0  0  0  0  0  0  0  0  # atno 6907 bound_to 6896
  152.0552  134.9626  160.0584 H   0  0  0  0  0  0  0  0  0  0  0  0  # atno 6908 bound_to 6896
  152.1075  133.4248  159.4652 H   0  0  0  0  0  0  0  0  0  0  0  0  # atno 6909 bound_to 6896
  144.7835  139.7505  143.6250 H   0  0  0  0  0  0  0  0  0  0  0  0  # atno 7974 bound_to 7965
  155.6943  140.0759  157.2436 H   0  0  0  0  0  0  0  0  0  0  0  0  # atno 8008 bound_to 7997
  154.4083  140.1659  156.2173 H   0  0  0  0  0  0  0  0  0  0  0  0  # atno 8009 bound_to 7997
  155.9424  140.3383  155.6341 H   0  0  0  0  0  0  0  0  0  0  0  0  # atno 8010 bound_to 7997
  140.4600  143.2456  151.8363 H   0  0  0  0  0  0  0  0  0  0  0  0  # atno 10167 bound_to 10162
  156.7219  130.5153  149.5866 H   0  0  0  0  0  0  0  0  0  0  0  0  # atno 10718 bound_to 10713
  154.7338  135.3052  154.8846 H   0  0  0  0  0  0  0  0  0  0  0  0  # atno 10763 bound_to 10752
  153.9681  135.6745  153.4750 H   0  0  0  0  0  0  0  0  0  0  0  0  # atno 10764 bound_to 10752
  153.0943  135.4943  154.8671 H   0  0  0  0  0  0  0  0  0  0  0  0  # atno 10765 bound_to 10752
  141.1069  133.8779  157.1693 H   0  0  0  0  0  0  0  0  0  0  0  0  # atno 11005 bound_to 11000
  146.2055  139.5377  142.9715 LP  0  0  0  0  0  0  0  0  0  0  0  0  # atno 17320 bound_to 7965
  145.5985  141.0359  143.2031 LP  0  0  0  0  0  0  0  0  0  0  0  0  # atno 17321 bound_to 7965
  139.4805  144.5019  151.9049 LP  0  0  0  0  0  0  0  0  0  0  0  0  # atno 17342 bound_to 10162
  140.4105  144.2376  150.5889 LP  0  0  0  0  0  0  0  0  0  0  0  0  # atno 17343 bound_to 10162
  156.1588  130.6360  151.0692 LP  0  0  0  0  0  0  0  0  0  0  0  0  # atno 17370 bound_to 10713
  157.6894  131.0814  150.7150 LP  0  0  0  0  0  0  0  0  0  0  0  0  # atno 17371 bound_to 10713
  139.9944  135.0052  157.0048 LP  0  0  0  0  0  0  0  0  0  0  0  0  # atno 17394 bound_to 11000
  140.4878  134.1224  155.7227 LP  0  0  0  0  0  0  0  0  0  0  0  0  # atno 17395 bound_to 11000

$$$$
