AV-unprocessed.smi:99|AV-procd|sdf|883|dock10
  -GOLD-   2262017363D 1   1.00000     0.00000
 Structure written by MMmdl.
 52 55  0  0  0  0  0  0  0  0  2 V2000
  148.8800  136.0221  158.9233 O   0  0  0  0  0  0  0  0  0  0  0  0
  147.9051  136.5845  159.4266 C   0  0  0  0  0  0  0  0  0  0  0  0
  147.4679  137.8074  159.0537 O   0  0  0  0  0  0  0  0  0  0  0  0
  147.9411  138.4357  157.8668 C   0  0  0  0  0  0  0  0  0  0  0  0
  147.1792  139.7409  157.5778 C   0  0  2  0  0  0  0  0  0  0  0  0
  146.0197  139.4770  156.7914 O   0  0  0  0  0  0  0  0  0  0  0  0
  145.8445  140.4579  155.8072 C   0  0  2  0  0  0  0  0  0  0  0  0
  146.0299  139.7868  154.4517 N   0  0  0  0  0  0  0  0  0  0  0  0
  146.9806  140.2002  153.5274 C   0  0  0  0  0  0  0  0  0  0  0  0
  147.1769  139.5395  152.3683 C   0  0  0  0  0  0  0  0  0  0  0  0
  146.3864  138.3492  152.0782 C   0  0  0  0  0  0  0  0  0  0  0  0
  146.5670  137.7581  151.0154 O   0  0  0  0  0  0  0  0  0  0  0  0
  145.4806  137.9402  153.0107 N   0  5  0  0  0  0  0  0  0  0  0  0
  145.2847  138.6023  154.1883 C   0  0  0  0  0  0  0  0  0  0  0  0
  144.4848  138.2189  155.0423 O   0  0  0  0  0  0  0  0  0  0  0  0
  146.8450  141.5885  156.1089 C   0  0  1  0  0  0  0  0  0  0  0  0
  146.2437  142.5504  156.9559 O   0  0  0  0  0  0  0  0  0  0  0  0
  147.9513  140.8128  156.8125 C   0  0  1  0  0  0  0  0  0  0  0  0
  148.7946  141.6179  157.6269 O   0  0  0  0  0  0  0  0  0  0  0  0
  149.9491  141.1202  158.1197 C   0  0  0  0  0  0  0  0  0  0  0  0
  150.3180  139.9555  157.9541 O   0  0  0  0  0  0  0  0  0  0  0  0
  150.7321  142.1274  158.8917 C   0  0  0  0  0  0  0  0  0  0  0  0
  150.5231  143.5047  158.6454 C   0  0  0  0  0  0  0  0  0  0  0  0
  151.2526  144.4790  159.3540 C   0  0  0  0  0  0  0  0  0  0  0  0
  152.1998  144.0880  160.3180 C   0  0  0  0  0  0  0  0  0  0  0  0
  152.4162  142.7214  160.5733 C   0  0  0  0  0  0  0  0  0  0  0  0
  151.6877  141.7454  159.8654 C   0  0  0  0  0  0  0  0  0  0  0  0
  147.0624  135.9701  160.4917 C   0  0  0  0  0  0  0  0  0  0  0  0
  146.5611  136.7843  161.5335 C   0  0  0  0  0  0  0  0  0  0  0  0
  145.7777  136.2289  162.5638 C   0  0  0  0  0  0  0  0  0  0  0  0
  145.4857  134.8524  162.5642 C   0  0  0  0  0  0  0  0  0  0  0  0
  145.9758  134.0326  161.5313 C   0  0  0  0  0  0  0  0  0  0  0  0
  146.7591  134.5862  160.5000 C   0  0  0  0  0  0  0  0  0  0  0  0
  148.9973  138.6638  158.0103 H   0  0  0  0  0  0  0  0  0  0  0  0
  147.8891  137.7667  157.0068 H   0  0  0  0  0  0  0  0  0  0  0  0
  146.8296  140.1658  158.5198 H   0  0  0  0  0  0  0  0  0  0  0  0
  144.8177  140.8281  155.7922 H   0  0  0  0  0  0  0  0  0  0  0  0
  147.5979  141.0648  153.7040 H   0  0  0  0  0  0  0  0  0  0  0  0
  147.9241  139.8789  151.6662 H   0  0  0  0  0  0  0  0  0  0  0  0
  147.1692  142.1072  155.2074 H   0  0  0  0  0  0  0  0  0  0  0  0
  146.2763  142.2283  157.8437 H   0  0  0  0  0  0  0  0  0  0  0  0
  148.5545  140.3160  156.0572 H   0  0  0  0  0  0  0  0  0  0  0  0
  149.8023  143.8294  157.9087 H   0  0  0  0  0  0  0  0  0  0  0  0
  151.0854  145.5276  159.1563 H   0  0  0  0  0  0  0  0  0  0  0  0
  152.7596  144.8355  160.8606 H   0  0  0  0  0  0  0  0  0  0  0  0
  153.1434  142.4201  161.3129 H   0  0  0  0  0  0  0  0  0  0  0  0
  151.8795  140.7052  160.0849 H   0  0  0  0  0  0  0  0  0  0  0  0
  146.7780  137.8425  161.5580 H   0  0  0  0  0  0  0  0  0  0  0  0
  145.4034  136.8600  163.3562 H   0  0  0  0  0  0  0  0  0  0  0  0
  144.8889  134.4252  163.3566 H   0  0  0  0  0  0  0  0  0  0  0  0
  145.7583  132.9747  161.5331 H   0  0  0  0  0  0  0  0  0  0  0  0
  147.1281  133.9258  159.7289 H   0  0  0  0  0  0  0  0  0  0  0  0
  1  2  2  0  0  0  0
  2  3  1  0  0  0  0
  2 28  1  0  0  0  0
  3  4  1  0  0  0  0
  4  5  1  0  0  0  0
  4 34  1  0  0  0  0
  4 35  1  0  0  0  0
  5 18  1  0  0  0  0
  5  6  1  0  0  0  0
  5 36  1  0  0  0  0
  6  7  1  0  0  0  0
  7  8  1  0  0  0  0
  7 16  1  0  0  0  0
  7 37  1  0  0  0  0
  8 14  1  0  0  0  0
  8  9  1  0  0  0  0
  9 10  2  0  0  0  0
  9 38  1  0  0  0  0
 10 11  1  0  0  0  0
 10 39  1  0  0  0  0
 11 12  2  0  0  0  0
 11 13  1  0  0  0  0
 13 14  1  0  0  0  0
 14 15  2  0  0  0  0
 16 17  1  0  0  0  0
 16 18  1  0  0  0  0
 16 40  1  0  0  0  0
 17 41  1  0  0  0  0
 18 19  1  0  0  0  0
 18 42  1  0  0  0  0
 19 20  1  0  0  0  0
 20 21  2  0  0  0  0
 20 22  1  0  0  0  0
 22 27  1  0  0  0  0
 22 23  2  0  0  0  0
 23 24  1  0  0  0  0
 23 43  1  0  0  0  0
 24 25  2  0  0  0  0
 24 44  1  0  0  0  0
 25 26  1  0  0  0  0
 25 45  1  0  0  0  0
 26 27  2  0  0  0  0
 26 46  1  0  0  0  0
 27 47  1  0  0  0  0
 28 33  1  0  0  0  0
 28 29  2  0  0  0  0
 29 30  1  0  0  0  0
 29 48  1  0  0  0  0
 30 31  2  0  0  0  0
 30 49  1  0  0  0  0
 31 32  1  0  0  0  0
 31 50  1  0  0  0  0
 32 33  2  0  0  0  0
 32 51  1  0  0  0  0
 33 52  1  0  0  0  0
M  CHG  1  13  -1
M  END
> <s_m_source_file>
AV-unprocessed.smi

> <i_m_source_file_index>
99

> <i_lp_mmshare_version>
43012

> <i_f3d_flags>
0

> <s_epik_input>
W2NIXTFbY0hdW2NIXVtjSF1bY0hdYzFDKD1PKU9bQ0gyXVtDQEBIXTJPW0NAQEhdKG4zW2NIXVtjSF1jKD1PKVtuSF1jMz1PKVtDQEBIXShbT0hdKVtDQEhdMk9DKD1PKWM0W2NIXVtjSF1bY0hdW2NIXVtjSF00

> <s_epik_cmdline>
J2VwaWtfcHl0aG9uJywgJy1waCcsICc3LjAnLCAnLXRuJywgJzgnLCAnLW1hJywgJzIwMCcsICctbWV0YWxfYmluZGluZycsICctaW1hZScsICc8aW5maWxlLm1hZT4nLCAnLW9tYWUnLCAnPG91dGZpbGUubWFlPic=

> <r_lp_tautomer_probability>
1

> <r_epik_Ionization_Penalty>
2.89159

> <r_epik_Ionization_Penalty_Charging>
2.1077e-08

> <r_epik_Ionization_Penalty_Neutral>
2.89159

> <r_epik_State_Penalty>
2.88671

> <r_epik_Charging_Adjusted_Penalty>
2.88671

> <i_epik_Tot_Q>
-1

> <i_epik_Tot_abs_Q>
1

> <r_epik_Metal_State_Penalty>
0.0727308

> <b_epik_Metal_Only>
1

> <s_epik_Chemistry_Notes>
This compound has an ester and may undergo hydrolysis at high or low pH. This compound contains an acetal/aminal-like group ( X-CH(R)-Y where X, Y are N, S, or O) that may be acid/base labile, releasing an aldehyde.

> <s_lp_Force_Field>
OPLS_2005

> <r_lp_Energy>
45.2738

> <b_lp_Chiralities_Consistent>
1

> <s_lp_Variant>
AV-unprocessed.smi:99-19

> <Gold.Version>
5.8.1

> <Gold.Id.Protein>
6NUR|6NUR_protein|mol2

> <Gold.PLP.Fitness>
53.9227

> <Gold.PLP.PLP>
-50.6685

> <Gold.PLP.part.hbond>
-2.4885

> <Gold.PLP.part.metal>
0.0000

> <Gold.PLP.part.buried>
-4.7463

> <Gold.PLP.part.nonpolar>
-46.9333

> <Gold.PLP.part.repulsive>
2.5775

> <Gold.PLP.ligand.clash>
0.0000

> <Gold.PLP.ligand.torsion>
1.4912

> <Gold.PLP.Chemscore.Hbond>
2.0000

> <Gold.PLP.Chemscore.CHOScore>
0.0000

> <Gold.PLP.Chemscore.Metal>
0.0000

> <Gold.Chemscore.Hbonds>
donor molecule, donor type, donor heavy atom, donor atom, acceptor molecule, acceptor atom, score
      P1  H  6896  6909       L1     1  0.13
      P1  H  7954  7966       L1    12  1.00

> <Gold.PLP.Chemscore.Internal.Correction>
0.2366

> <Gold.Rescore>
     Score         DG    S(hbond)    S(metal)    S(lipo)     H(rot)  DE(clash)    DE(int)     intcor
     13.26     -18.63       1.90        0.00     126.65       3.13       2.74       2.62       ----

> <Gold.Chemscore.Fitness>
13.2646

> <Gold.Chemscore.DG>
-18.6258

> <Gold.Chemscore.ZeroCoef>
-5.4800

> <Gold.Chemscore.Hbond>
1.9017

> <Gold.Chemscore.Metal>
0.0000

> <Gold.Chemscore.Lipo>
126.6547

> <Gold.Chemscore.Internal_Hbond>
0.0000

> <Gold.Chemscore.DEClash>
2.7392

> <Gold.Chemscore.DEInternal>
2.6221

> <Gold.Chemscore.Rot>
3.1346

> <Gold.Chemscore.Internal.Correction>
   9.000000E+99

> <Gold.Chemscore.Hbonds>
donor molecule, donor type, donor heavy atom, donor atom, acceptor molecule, acceptor atom, score
      P1  H  6896  6909       L1     1  0.14
      P1  H  7954  7966       L1    12  0.99

> <Gold.Chemscore.Hbond.Weighted>
-6.3518

> <Gold.Chemscore.Metal.Weighted>
-0.0000

> <Gold.Chemscore.Lipo.Weighted>
-14.8186

> <Gold.Chemscore.Internal_Hbond.Weighted>
0.0000

> <Gold.Chemscore.DEClash.Weighted>
2.7392

> <Gold.Chemscore.DEInternal.Weighted>
2.6221

> <Gold.Chemscore.Rot.Weighted>
8.0246

> <Gold.Chemscore.Internal.Correction.Weighted>
   9.000000E+99

> <Gold.Protein.RotatedTorsions>
[ 6907 6896 6895 6894 ] final   50.22 input  -60.11 | X-H torsion
[ 7974 7965 7964 7962 ] final  104.89 input  175.53 | X-H torsion
[ 8008 7997 7996 7995 ] final -176.49 input   59.86 | X-H torsion
[ 10167 10162 10161 10158 ] final -163.62 input  -65.29 | X-H torsion
[ 10718 10713 10712 10709 ] final -110.64 input   66.30 | X-H torsion
[ 10763 10752 10751 10750 ] final  160.73 input  -60.55 | X-H torsion
[ 11005 11000 10999 10996 ] final -142.50 input  -57.11 | X-H torsion

> <Gold.Protein.ActiveResidues>
 VAL166  LYS551  ARG553  GLY616  TRP617  ASP618  TYR619  PRO620  LYS621  CYS622 
 ASP623  PHE694  ASN695  SER759  ASP760  ASP761  ALA762  ILE779  LEU786  VAL792 
 PHE793  MET794  SER795  GLU796  ALA797  LYS798  CYS799  TRP800  GLU811  SER814 

> <Gold.Protein.RotatedAtoms>
  152.2994  134.7629  160.0360 H   0  0  0  0  0  0  0  0  0  0  0  0  # atno 6907 bound_to 6896
  151.8147  133.3381  159.3574 H   0  0  0  0  0  0  0  0  0  0  0  0  # atno 6908 bound_to 6896
  150.7266  134.5560  159.5862 H   0  0  0  0  0  0  0  0  0  0  0  0  # atno 6909 bound_to 6896
  145.3268  139.2497  143.3682 H   0  0  0  0  0  0  0  0  0  0  0  0  # atno 7974 bound_to 7965
  155.9955  140.1210  157.0597 H   0  0  0  0  0  0  0  0  0  0  0  0  # atno 8008 bound_to 7997
  154.4225  140.1117  156.5693 H   0  0  0  0  0  0  0  0  0  0  0  0  # atno 8009 bound_to 7997
  155.6284  140.3473  155.4677 H   0  0  0  0  0  0  0  0  0  0  0  0  # atno 8010 bound_to 7997
  139.6308  144.0443  152.2014 H   0  0  0  0  0  0  0  0  0  0  0  0  # atno 10167 bound_to 10162
  156.0602  130.5826  150.8264 H   0  0  0  0  0  0  0  0  0  0  0  0  # atno 10718 bound_to 10713
  154.2520  135.2771  155.2812 H   0  0  0  0  0  0  0  0  0  0  0  0  # atno 10763 bound_to 10752
  154.5457  135.5690  153.6881 H   0  0  0  0  0  0  0  0  0  0  0  0  # atno 10764 bound_to 10752
  152.9978  135.6262  154.2667 H   0  0  0  0  0  0  0  0  0  0  0  0  # atno 10765 bound_to 10752
  140.8219  134.2621  157.4896 H   0  0  0  0  0  0  0  0  0  0  0  0  # atno 11005 bound_to 11000
  146.3061  140.3837  142.8687 LP  0  0  0  0  0  0  0  0  0  0  0  0  # atno 17320 bound_to 7965
  144.8895  140.7506  143.5935 LP  0  0  0  0  0  0  0  0  0  0  0  0  # atno 17321 bound_to 7965
  140.0108  144.6225  150.7649 LP  0  0  0  0  0  0  0  0  0  0  0  0  # atno 17342 bound_to 10162
  140.7438  143.2851  151.3486 LP  0  0  0  0  0  0  0  0  0  0  0  0  # atno 17343 bound_to 10162
  157.5604  131.0946  150.9567 LP  0  0  0  0  0  0  0  0  0  0  0  0  # atno 17370 bound_to 10713
  156.9806  130.5525  149.5296 LP  0  0  0  0  0  0  0  0  0  0  0  0  # atno 17371 bound_to 10713
  139.8708  134.9540  156.4161 LP  0  0  0  0  0  0  0  0  0  0  0  0  # atno 17394 bound_to 11000
  140.9090  133.7725  155.9769 LP  0  0  0  0  0  0  0  0  0  0  0  0  # atno 17395 bound_to 11000

$$$$
