AV-unprocessed.smi:2267|AV-procd|sdf|9149|dock2
  -GOLD-   2272012353D 1   1.00000     0.00000
 Structure written by MMmdl.
 41 42  0  0  0  0  0  0  0  0  1 V2000
  147.2401  132.4942  160.0742 C   0  0  0  0  0  0  0  0  0  0  0  0
  147.2506  133.8043  160.8345 C   0  0  0  0  0  0  0  0  0  0  0  0
  146.6986  133.8798  162.1289 C   0  0  0  0  0  0  0  0  0  0  0  0
  146.7112  135.1009  162.8273 C   0  0  0  0  0  0  0  0  0  0  0  0
  147.2747  136.2463  162.2337 C   0  0  0  0  0  0  0  0  0  0  0  0
  147.8309  136.1889  160.9394 C   0  0  0  0  0  0  0  0  0  0  0  0
  148.3616  137.3572  160.4355 O   0  0  0  0  0  0  0  0  0  0  0  0
  148.8797  137.3476  159.1118 C   0  0  0  0  0  0  0  0  0  0  0  0
  150.3175  137.8939  159.1360 C   0  0  1  0  0  0  0  0  0  0  0  0
  151.1857  136.7908  158.9633 O   0  0  0  0  0  0  0  0  0  0  0  0
  150.5768  138.8867  157.9800 C   0  0  0  0  0  0  0  0  0  0  0  0
  151.2703  140.1032  158.4370 N   0  0  0  0  0  0  0  0  0  0  0  0
  150.6357  141.3244  158.1561 C   0  0  0  0  0  0  0  0  0  0  0  0
  151.1513  142.4556  158.5110 N   0  0  0  0  0  0  0  0  0  0  0  0
  152.3735  142.4826  159.1887 C   0  0  0  0  0  0  0  0  0  0  0  0
  152.8885  143.8628  159.5577 C   0  0  0  0  0  0  0  0  0  0  0  0
  153.0431  141.3354  159.4852 C   0  0  0  0  0  0  0  0  0  0  0  0
  154.3785  141.3037  160.2182 C   0  0  0  0  0  0  0  0  0  0  0  0
  152.4691  140.0400  159.0859 C   0  0  0  0  0  0  0  0  0  0  0  0
  153.0242  138.9635  159.3148 O   0  0  0  0  0  0  0  0  0  0  0  0
  147.8128  134.9541  160.2421 C   0  0  0  0  0  0  0  0  0  0  0  0
  146.9784  131.6596  160.7252 H   0  0  0  0  0  0  0  0  0  0  0  0
  148.2230  132.2942  159.6465 H   0  0  0  0  0  0  0  0  0  0  0  0
  146.5137  132.5364  159.2624 H   0  0  0  0  0  0  0  0  0  0  0  0
  146.2646  133.0044  162.5898 H   0  0  0  0  0  0  0  0  0  0  0  0
  146.2885  135.1600  163.8194 H   0  0  0  0  0  0  0  0  0  0  0  0
  147.2801  137.1796  162.7775 H   0  0  0  0  0  0  0  0  0  0  0  0
  148.8515  136.3485  158.6728 H   0  0  0  0  0  0  0  0  0  0  0  0
  148.2528  137.9984  158.4999 H   0  0  0  0  0  0  0  0  0  0  0  0
  150.5083  138.3705  160.0985 H   0  0  0  0  0  0  0  0  0  0  0  0
  151.2527  136.6019  158.0398 H   0  0  0  0  0  0  0  0  0  0  0  0
  151.1060  138.3935  157.1617 H   0  0  0  0  0  0  0  0  0  0  0  0
  149.6260  139.1872  157.5359 H   0  0  0  0  0  0  0  0  0  0  0  0
  149.6883  141.2492  157.6197 H   0  0  0  0  0  0  0  0  0  0  0  0
  153.0094  143.9506  160.6379 H   0  0  0  0  0  0  0  0  0  0  0  0
  152.1983  144.6433  159.2346 H   0  0  0  0  0  0  0  0  0  0  0  0
  153.8511  144.0506  159.0814 H   0  0  0  0  0  0  0  0  0  0  0  0
  155.1394  140.8373  159.5918 H   0  0  0  0  0  0  0  0  0  0  0  0
  154.2903  140.7207  161.1354 H   0  0  0  0  0  0  0  0  0  0  0  0
  154.7416  142.2927  160.4930 H   0  0  0  0  0  0  0  0  0  0  0  0
  148.2251  134.8642  159.2487 H   0  0  0  0  0  0  0  0  0  0  0  0
  1  2  1  0  0  0  0
  1 22  1  0  0  0  0
  1 23  1  0  0  0  0
  1 24  1  0  0  0  0
  2 21  1  0  0  0  0
  2  3  2  0  0  0  0
  3  4  1  0  0  0  0
  3 25  1  0  0  0  0
  4  5  2  0  0  0  0
  4 26  1  0  0  0  0
  5  6  1  0  0  0  0
  5 27  1  0  0  0  0
  6  7  1  0  0  0  0
  6 21  2  0  0  0  0
  7  8  1  0  0  0  0
  8  9  1  0  0  0  0
  8 28  1  0  0  0  0
  8 29  1  0  0  0  0
  9 10  1  0  0  0  0
  9 11  1  0  0  0  0
  9 30  1  0  0  0  0
 10 31  1  0  0  0  0
 11 12  1  0  0  0  0
 11 32  1  0  0  0  0
 11 33  1  0  0  0  0
 12 19  1  0  0  0  0
 12 13  1  0  0  0  0
 13 14  2  0  0  0  0
 13 34  1  0  0  0  0
 14 15  1  0  0  0  0
 15 16  1  0  0  0  0
 15 17  2  0  0  0  0
 16 35  1  0  0  0  0
 16 36  1  0  0  0  0
 16 37  1  0  0  0  0
 17 18  1  0  0  0  0
 17 19  1  0  0  0  0
 18 38  1  0  0  0  0
 18 39  1  0  0  0  0
 18 40  1  0  0  0  0
 19 20  2  0  0  0  0
 21 41  1  0  0  0  0
M  END
> <s_m_source_file>
AV-unprocessed.smi

> <i_m_source_file_index>
2267

> <i_lp_mmshare_version>
43012

> <i_f3d_flags>
0

> <s_epik_input>
W0NIM11jMVtjSF1bY0hdW2NIXWMoW2NIXTEpT1tDSDJdW0NASF0oW09IXSlbQ0gyXW4yW2NIXW5jKFtDSDNdKWMoW0NIM10pYzI9Tw==

> <s_epik_cmdline>
J2VwaWtfcHl0aG9uJywgJy1waCcsICc3LjAnLCAnLXRuJywgJzgnLCAnLW1hJywgJzIwMCcsICctbWV0YWxfYmluZGluZycsICctaW1hZScsICc8aW5maWxlLm1hZT4nLCAnLW9tYWUnLCAnPG91dGZpbGUubWFlPic=

> <r_lp_tautomer_probability>
1

> <r_epik_Ionization_Penalty>
3.72236e-05

> <r_epik_Ionization_Penalty_Charging>
8.38864e-08

> <r_epik_Ionization_Penalty_Neutral>
3.71397e-05

> <r_epik_State_Penalty>
-0

> <r_epik_Charging_Adjusted_Penalty>
8.38864e-08

> <i_epik_Tot_Q>
0

> <i_epik_Tot_abs_Q>
0

> <r_epik_Metal_State_Penalty>
-0

> <b_epik_Metal_Only>
0

> <s_lp_Force_Field>
OPLS_2005

> <r_lp_Energy>
23.9214

> <b_lp_Chiralities_Consistent>
1

> <s_lp_Variant>
AV-unprocessed.smi:2267-2

> <Gold.Version>
5.8.1

> <Gold.Id.Protein>
6NUR|6NUR_protein|mol2

> <Gold.PLP.Fitness>
46.7226

> <Gold.PLP.PLP>
-44.4910

> <Gold.PLP.part.hbond>
-3.0000

> <Gold.PLP.part.metal>
0.0000

> <Gold.PLP.part.buried>
-5.2461

> <Gold.PLP.part.nonpolar>
-37.3239

> <Gold.PLP.part.repulsive>
0.0595

> <Gold.PLP.ligand.clash>
0.0000

> <Gold.PLP.ligand.torsion>
1.6919

> <Gold.PLP.Chemscore.Hbond>
1.8262

> <Gold.PLP.Chemscore.CHOScore>
0.0000

> <Gold.PLP.Chemscore.Metal>
0.0000

> <Gold.Chemscore.Hbonds>
donor molecule, donor type, donor heavy atom, donor atom, acceptor molecule, acceptor atom, score
      P1  H  6896  6907       L1    10  0.83
      P1  H  6931  6943       L1     7  0.64
      P1  H  6934  6947       L1     7  0.47

> <Gold.PLP.Chemscore.Internal.Correction>
0.1369

> <Gold.Rescore>
     Score         DG    S(hbond)    S(metal)    S(lipo)     H(rot)  DE(clash)    DE(int)     intcor
     13.32     -17.30       1.77        0.00     101.92       2.35       0.09       3.89       ----

> <Gold.Chemscore.Fitness>
13.3219

> <Gold.Chemscore.DG>
-17.3002

> <Gold.Chemscore.ZeroCoef>
-5.4800

> <Gold.Chemscore.Hbond>
1.7692

> <Gold.Chemscore.Metal>
0.0000

> <Gold.Chemscore.Lipo>
101.9197

> <Gold.Chemscore.Internal_Hbond>
0.0000

> <Gold.Chemscore.DEClash>
0.0854

> <Gold.Chemscore.DEInternal>
3.8929

> <Gold.Chemscore.Rot>
2.3490

> <Gold.Chemscore.Internal.Correction>
   9.000000E+99

> <Gold.Chemscore.Hbonds>
donor molecule, donor type, donor heavy atom, donor atom, acceptor molecule, acceptor atom, score
      P1  H  6896  6907       L1    10  0.32
      P1  H  6931  6943       L1     7  0.35
      P1  H  6934  6947       L1     7  0.35

> <Gold.Chemscore.Hbond.Weighted>
-5.9092

> <Gold.Chemscore.Metal.Weighted>
-0.0000

> <Gold.Chemscore.Lipo.Weighted>
-11.9246

> <Gold.Chemscore.Internal_Hbond.Weighted>
0.0000

> <Gold.Chemscore.DEClash.Weighted>
0.0854

> <Gold.Chemscore.DEInternal.Weighted>
3.8929

> <Gold.Chemscore.Rot.Weighted>
6.0136

> <Gold.Chemscore.Internal.Correction.Weighted>
   9.000000E+99

> <Gold.Protein.RotatedTorsions>
[ 6907 6896 6895 6894 ] final  -36.95 input  -60.11 | X-H torsion
[ 7974 7965 7964 7962 ] final  -95.11 input  175.53 | X-H torsion
[ 8008 7997 7996 7995 ] final   84.82 input   59.86 | X-H torsion
[ 10167 10162 10161 10158 ] final  -63.36 input  -65.29 | X-H torsion
[ 10718 10713 10712 10709 ] final  -37.78 input   66.30 | X-H torsion
[ 10763 10752 10751 10750 ] final   11.14 input  -60.55 | X-H torsion
[ 11005 11000 10999 10996 ] final -114.62 input  -57.11 | X-H torsion

> <Gold.Protein.ActiveResidues>
 VAL166  LYS551  ARG553  GLY616  TRP617  ASP618  TYR619  PRO620  LYS621  CYS622 
 ASP623  PHE694  ASN695  SER759  ASP760  ASP761  ALA762  ILE779  LEU786  VAL792 
 PHE793  MET794  SER795  GLU796  ALA797  LYS798  CYS799  TRP800  GLU811  SER814 

> <Gold.Protein.RotatedAtoms>
  151.0208  134.9467  159.8058 H   0  0  0  0  0  0  0  0  0  0  0  0  # atno 6907 bound_to 6896
  152.5324  134.2906  159.9051 H   0  0  0  0  0  0  0  0  0  0  0  0  # atno 6908 bound_to 6896
  151.2913  133.4122  159.2667 H   0  0  0  0  0  0  0  0  0  0  0  0  # atno 6909 bound_to 6896
  145.3644  140.9496  143.2482 H   0  0  0  0  0  0  0  0  0  0  0  0  # atno 7974 bound_to 7965
  155.9421  140.3407  155.6336 H   0  0  0  0  0  0  0  0  0  0  0  0  # atno 8008 bound_to 7997
  155.7027  140.0762  157.2422 H   0  0  0  0  0  0  0  0  0  0  0  0  # atno 8009 bound_to 7997
  154.4104  140.1637  156.2196 H   0  0  0  0  0  0  0  0  0  0  0  0  # atno 8010 bound_to 7997
  140.5876  143.2336  151.6209 H   0  0  0  0  0  0  0  0  0  0  0  0  # atno 10167 bound_to 10162
  156.3112  130.4253  149.8048 H   0  0  0  0  0  0  0  0  0  0  0  0  # atno 10718 bound_to 10713
  153.1957  135.6849  153.8295 H   0  0  0  0  0  0  0  0  0  0  0  0  # atno 10763 bound_to 10752
  153.7578  135.3214  155.3333 H   0  0  0  0  0  0  0  0  0  0  0  0  # atno 10764 bound_to 10752
  154.8143  135.4696  154.0701 H   0  0  0  0  0  0  0  0  0  0  0  0  # atno 10765 bound_to 10752
  141.0540  133.9641  157.2786 H   0  0  0  0  0  0  0  0  0  0  0  0  # atno 11005 bound_to 11000
  144.8623  139.5159  143.6806 LP  0  0  0  0  0  0  0  0  0  0  0  0  # atno 17320 bound_to 7965
  146.2913  139.7148  142.9159 LP  0  0  0  0  0  0  0  0  0  0  0  0  # atno 17321 bound_to 7965
  139.5207  144.3215  152.0907 LP  0  0  0  0  0  0  0  0  0  0  0  0  # atno 17342 bound_to 10162
  140.2374  144.4305  150.6274 LP  0  0  0  0  0  0  0  0  0  0  0  0  # atno 17343 bound_to 10162
  156.5391  130.8292  151.3263 LP  0  0  0  0  0  0  0  0  0  0  0  0  # atno 17370 bound_to 10713
  157.7391  130.9826  150.2295 LP  0  0  0  0  0  0  0  0  0  0  0  0  # atno 17371 bound_to 10713
  139.9374  135.0195  156.8601 LP  0  0  0  0  0  0  0  0  0  0  0  0  # atno 17394 bound_to 11000
  140.5999  134.0181  155.7533 LP  0  0  0  0  0  0  0  0  0  0  0  0  # atno 17395 bound_to 11000

$$$$
