AV-unprocessed.smi:83|AV-procd|sdf|800|dock2
  -GOLD-   2262017183D 1   1.00000     0.00000
 Structure written by MMmdl.
 56 59  0  0  0  0  0  0  0  0  1 V2000
  151.4880  145.5547  160.0244 C   0  0  0  0  0  0  0  0  0  0  0  0
  151.9502  144.4739  161.0036 C   0  0  0  0  0  0  0  0  0  0  0  0
  151.7282  144.6240  162.2048 O   0  0  0  0  0  0  0  0  0  0  0  0
  152.5879  143.3910  160.5147 N   0  0  0  0  0  0  0  0  0  0  0  0
  153.0801  142.2942  161.3437 C   0  0  0  0  0  0  0  0  0  0  0  0
  153.7905  141.3399  160.3789 C   0  0  0  0  0  0  0  0  0  0  0  0
  153.1278  141.6009  159.0267 C   0  0  1  0  0  0  0  0  0  0  0  0
  151.8654  140.7175  158.8722 C   0  0  0  0  0  0  0  0  0  0  0  0
  151.3819  140.5963  157.4956 N   0  0  0  0  0  0  0  0  0  0  0  0
  150.2131  141.3950  157.1306 C   0  0  0  0  0  0  0  0  0  0  0  0
  151.7197  139.5278  156.7124 C   0  0  0  0  0  0  0  0  0  0  0  0
  152.6358  139.7235  155.7244 N   0  0  0  0  0  0  0  0  0  0  0  0
  152.9806  138.7358  154.8955 C   0  0  0  0  0  0  0  0  0  0  0  0
  152.5374  137.4801  154.8689 N   0  0  0  0  0  0  0  0  0  0  0  0
  151.6300  137.2589  155.8603 C   0  0  0  0  0  0  0  0  0  0  0  0
  151.1743  138.2084  156.8233 C   0  0  0  0  0  0  0  0  0  0  0  0
  150.2636  137.5867  157.6731 N   0  0  0  0  0  0  0  0  0  0  0  0
  150.1700  136.3648  157.2294 C   0  0  0  0  0  0  0  0  0  0  0  0
  150.9573  136.0827  156.1402 N   0  0  0  0  0  0  0  0  0  0  0  0
  151.0473  134.8112  155.4446 C   0  0  0  0  0  0  0  0  0  0  0  0
  150.2074  133.7107  156.1207 C   0  0  2  0  0  0  0  0  0  0  0  0
  150.9832  133.0024  157.0688 O   0  0  0  0  0  0  0  0  0  0  0  0
  149.5657  132.7424  155.1058 C   0  0  2  0  0  0  0  0  0  0  0  0
  150.5259  131.8958  154.2653 C   0  0  0  0  0  0  0  0  0  0  0  0
  149.6587  131.5650  153.0714 C   0  0  0  0  0  0  0  0  0  0  0  0
  148.8870  132.8679  152.8777 C   0  0  0  0  0  0  0  0  0  0  0  0
  148.7170  133.4188  154.1808 O   0  0  0  0  0  0  0  0  0  0  0  0
  152.8471  143.1101  159.1048 C   0  0  0  0  0  0  0  0  0  0  0  0
  152.3166  145.8951  159.4030 H   0  0  0  0  0  0  0  0  0  0  0  0
  151.0943  146.4178  160.5620 H   0  0  0  0  0  0  0  0  0  0  0  0
  150.6981  145.1753  159.3767 H   0  0  0  0  0  0  0  0  0  0  0  0
  153.7530  142.6464  162.1269 H   0  0  0  0  0  0  0  0  0  0  0  0
  152.2331  141.7982  161.8204 H   0  0  0  0  0  0  0  0  0  0  0  0
  154.8470  141.6056  160.3210 H   0  0  0  0  0  0  0  0  0  0  0  0
  153.7334  140.2985  160.6973 H   0  0  0  0  0  0  0  0  0  0  0  0
  153.8192  141.3800  158.2126 H   0  0  0  0  0  0  0  0  0  0  0  0
  152.1158  139.7101  159.2061 H   0  0  0  0  0  0  0  0  0  0  0  0
  151.0876  141.0294  159.5607 H   0  0  0  0  0  0  0  0  0  0  0  0
  150.2921  141.7528  156.1035 H   0  0  0  0  0  0  0  0  0  0  0  0
  150.1181  142.2683  157.7763 H   0  0  0  0  0  0  0  0  0  0  0  0
  149.2992  140.8077  157.2266 H   0  0  0  0  0  0  0  0  0  0  0  0
  153.7122  138.9900  154.1426 H   0  0  0  0  0  0  0  0  0  0  0  0
  149.5198  135.6331  157.6866 H   0  0  0  0  0  0  0  0  0  0  0  0
  150.7118  134.9623  154.4179 H   0  0  0  0  0  0  0  0  0  0  0  0
  152.0959  134.5168  155.3877 H   0  0  0  0  0  0  0  0  0  0  0  0
  149.4008  134.1879  156.6788 H   0  0  0  0  0  0  0  0  0  0  0  0
  151.4508  132.3147  156.6200 H   0  0  0  0  0  0  0  0  0  0  0  0
  148.9156  132.0580  155.6535 H   0  0  0  0  0  0  0  0  0  0  0  0
  151.3910  132.4725  153.9367 H   0  0  0  0  0  0  0  0  0  0  0  0
  150.8859  131.0118  154.7921 H   0  0  0  0  0  0  0  0  0  0  0  0
  150.2315  131.2735  152.1906 H   0  0  0  0  0  0  0  0  0  0  0  0
  148.9725  130.7540  153.3189 H   0  0  0  0  0  0  0  0  0  0  0  0
  149.4712  133.5688  152.2805 H   0  0  0  0  0  0  0  0  0  0  0  0
  147.9289  132.7160  152.3803 H   0  0  0  0  0  0  0  0  0  0  0  0
  152.0439  143.4296  158.4456 H   0  0  0  0  0  0  0  0  0  0  0  0
  153.7369  143.6679  158.8094 H   0  0  0  0  0  0  0  0  0  0  0  0
  1  2  1  0  0  0  0
  1 29  1  0  0  0  0
  1 30  1  0  0  0  0
  1 31  1  0  0  0  0
  2  3  2  0  0  0  0
  2  4  1  0  0  0  0
  4 28  1  0  0  0  0
  4  5  1  0  0  0  0
  5  6  1  0  0  0  0
  5 32  1  0  0  0  0
  5 33  1  0  0  0  0
  6  7  1  0  0  0  0
  6 34  1  0  0  0  0
  6 35  1  0  0  0  0
  7  8  1  0  0  0  0
  7 28  1  0  0  0  0
  7 36  1  0  0  0  0
  8  9  1  0  0  0  0
  8 37  1  0  0  0  0
  8 38  1  0  0  0  0
  9 10  1  0  0  0  0
  9 11  1  0  0  0  0
 10 39  1  0  0  0  0
 10 40  1  0  0  0  0
 10 41  1  0  0  0  0
 11 16  1  0  0  0  0
 11 12  2  0  0  0  0
 12 13  1  0  0  0  0
 13 14  2  0  0  0  0
 13 42  1  0  0  0  0
 14 15  1  0  0  0  0
 15 19  1  0  0  0  0
 15 16  2  0  0  0  0
 16 17  1  0  0  0  0
 17 18  2  0  0  0  0
 18 19  1  0  0  0  0
 18 43  1  0  0  0  0
 19 20  1  0  0  0  0
 20 21  1  0  0  0  0
 20 44  1  0  0  0  0
 20 45  1  0  0  0  0
 21 22  1  0  0  0  0
 21 23  1  0  0  0  0
 21 46  1  0  0  0  0
 22 47  1  0  0  0  0
 23 27  1  0  0  0  0
 23 24  1  0  0  0  0
 23 48  1  0  0  0  0
 24 25  1  0  0  0  0
 24 49  1  0  0  0  0
 24 50  1  0  0  0  0
 25 26  1  0  0  0  0
 25 51  1  0  0  0  0
 25 52  1  0  0  0  0
 26 27  1  0  0  0  0
 26 53  1  0  0  0  0
 26 54  1  0  0  0  0
 28 55  1  0  0  0  0
 28 56  1  0  0  0  0
M  END
> <s_m_source_file>
AV-unprocessed.smi

> <i_m_source_file_index>
83

> <i_lp_mmshare_version>
43012

> <i_f3d_flags>
0

> <s_epik_input>
W0NIM11DKD1PKU4xW0NIMl1bQ0gyXVtDQEhdKFtDSDJdMSlbQ0gyXU4oW0NIM10pYyhuW2NIXW4yKWMoYzIzKW5bY0hdbjNbQ0gyXVtDQEhdKFtPSF0pW0NAQEhdNFtDSDJdW0NIMl1bQ0gyXU80

> <s_epik_cmdline>
J2VwaWtfcHl0aG9uJywgJy1waCcsICc3LjAnLCAnLXRuJywgJzgnLCAnLW1hJywgJzIwMCcsICctbWV0YWxfYmluZGluZycsICctaW1hZScsICc8aW5maWxlLm1hZT4nLCAnLW9tYWUnLCAnPG91dGZpbGUubWFlPic=

> <r_lp_tautomer_probability>
1

> <r_epik_Ionization_Penalty>
0.00109752

> <r_epik_Ionization_Penalty_Charging>
0

> <r_epik_Ionization_Penalty_Neutral>
0.00109752

> <r_epik_State_Penalty>
0.000634803

> <r_epik_Charging_Adjusted_Penalty>
0.000634803

> <i_epik_Tot_Q>
0

> <i_epik_Tot_abs_Q>
0

> <r_epik_Metal_State_Penalty>
-0

> <b_epik_Metal_Only>
0

> <s_lp_Force_Field>
OPLS_2005

> <r_lp_Energy>
57.114

> <b_lp_Chiralities_Consistent>
1

> <s_lp_Variant>
AV-unprocessed.smi:83-1

> <Gold.Version>
5.8.1

> <Gold.Id.Protein>
6NUR|6NUR_protein|mol2

> <Gold.PLP.Fitness>
53.6485

> <Gold.PLP.PLP>
-49.7065

> <Gold.PLP.part.hbond>
-3.0000

> <Gold.PLP.part.metal>
0.0000

> <Gold.PLP.part.buried>
-8.7747

> <Gold.PLP.part.nonpolar>
-42.4796

> <Gold.PLP.part.repulsive>
3.9430

> <Gold.PLP.ligand.clash>
0.0000

> <Gold.PLP.ligand.torsion>
2.3838

> <Gold.PLP.Chemscore.Hbond>
2.7680

> <Gold.PLP.Chemscore.CHOScore>
0.0000

> <Gold.PLP.Chemscore.Metal>
0.0000

> <Gold.Chemscore.Hbonds>
donor molecule, donor type, donor heavy atom, donor atom, acceptor molecule, acceptor atom, score
      P1  H  6896  6908       L1    22  0.55
      P1  H  7997  8010       L1    12  0.95
      P1  H 10752 10764       L1    14  0.41

> <Gold.PLP.Chemscore.Internal.Correction>
0.4057

> <Gold.Rescore>
     Score         DG    S(hbond)    S(metal)    S(lipo)     H(rot)  DE(clash)    DE(int)     intcor
     14.81     -18.63       2.39        0.00     101.48       2.62       1.55       2.28       ----

> <Gold.Chemscore.Fitness>
14.8060

> <Gold.Chemscore.DG>
-18.6344

> <Gold.Chemscore.ZeroCoef>
-5.4800

> <Gold.Chemscore.Hbond>
2.3880

> <Gold.Chemscore.Metal>
0.0000

> <Gold.Chemscore.Lipo>
101.4804

> <Gold.Chemscore.Internal_Hbond>
0.0000

> <Gold.Chemscore.DEClash>
1.5467

> <Gold.Chemscore.DEInternal>
2.2817

> <Gold.Chemscore.Rot>
2.6152

> <Gold.Chemscore.Internal.Correction>
   9.000000E+99

> <Gold.Chemscore.Hbonds>
donor molecule, donor type, donor heavy atom, donor atom, acceptor molecule, acceptor atom, score
      P1  H  6896  6908       L1    22  0.54
      P1  H  7997  8010       L1    12  0.16
      P1  H 10752 10764       L1    14  0.05

> <Gold.Chemscore.Hbond.Weighted>
-7.9761

> <Gold.Chemscore.Metal.Weighted>
-0.0000

> <Gold.Chemscore.Lipo.Weighted>
-11.8732

> <Gold.Chemscore.Internal_Hbond.Weighted>
0.0000

> <Gold.Chemscore.DEClash.Weighted>
1.5467

> <Gold.Chemscore.DEInternal.Weighted>
2.2817

> <Gold.Chemscore.Rot.Weighted>
6.6949

> <Gold.Chemscore.Internal.Correction.Weighted>
   9.000000E+99

> <Gold.Protein.RotatedTorsions>
[ 6907 6896 6895 6894 ] final   97.68 input  -60.11 | X-H torsion
[ 7974 7965 7964 7962 ] final   85.12 input  175.53 | X-H torsion
[ 8008 7997 7996 7995 ] final   68.57 input   59.86 | X-H torsion
[ 10167 10162 10161 10158 ] final  -81.06 input  -65.29 | X-H torsion
[ 10718 10713 10712 10709 ] final  -78.34 input   66.30 | X-H torsion
[ 10763 10752 10751 10750 ] final  -56.24 input  -60.55 | X-H torsion
[ 11005 11000 10999 10996 ] final   -3.74 input  -57.11 | X-H torsion

> <Gold.Protein.ActiveResidues>
 VAL166  LYS551  ARG553  GLY616  TRP617  ASP618  TYR619  PRO620  LYS621  CYS622 
 ASP623  PHE694  ASN695  SER759  ASP760  ASP761  ALA762  ILE779  LEU786  VAL792 
 PHE793  MET794  SER795  GLU796  ALA797  LYS798  CYS799  TRP800  GLU811  SER814 

> <Gold.Protein.RotatedAtoms>
  152.5420  134.0696  159.8187 H   0  0  0  0  0  0  0  0  0  0  0  0  # atno 6907 bound_to 6896
  151.0813  133.5381  159.2628 H   0  0  0  0  0  0  0  0  0  0  0  0  # atno 6908 bound_to 6896
  151.2207  135.0526  159.9002 H   0  0  0  0  0  0  0  0  0  0  0  0  # atno 6909 bound_to 6896
  145.5897  139.2336  143.2306 H   0  0  0  0  0  0  0  0  0  0  0  0  # atno 7974 bound_to 7965
  155.7103  140.3494  155.4971 H   0  0  0  0  0  0  0  0  0  0  0  0  # atno 8008 bound_to 7997
  155.9362  140.1093  157.1115 H   0  0  0  0  0  0  0  0  0  0  0  0  # atno 8009 bound_to 7997
  154.4094  140.1221  156.4853 H   0  0  0  0  0  0  0  0  0  0  0  0  # atno 8010 bound_to 7997
  140.4447  143.2503  151.8576 H   0  0  0  0  0  0  0  0  0  0  0  0  # atno 10167 bound_to 10162
  156.0120  130.4515  150.3481 H   0  0  0  0  0  0  0  0  0  0  0  0  # atno 10718 bound_to 10713
  154.2036  135.6407  153.5094 H   0  0  0  0  0  0  0  0  0  0  0  0  # atno 10763 bound_to 10752
  153.0006  135.5457  154.6289 H   0  0  0  0  0  0  0  0  0  0  0  0  # atno 10764 bound_to 10752
  154.5709  135.2916  155.0802 H   0  0  0  0  0  0  0  0  0  0  0  0  # atno 10765 bound_to 10752
  140.6727  133.9222  155.8505 H   0  0  0  0  0  0  0  0  0  0  0  0  # atno 11005 bound_to 11000
  146.1656  140.6723  142.9257 LP  0  0  0  0  0  0  0  0  0  0  0  0  # atno 17320 bound_to 7965
  144.7357  140.4801  143.6905 LP  0  0  0  0  0  0  0  0  0  0  0  0  # atno 17321 bound_to 7965
  139.4792  144.5189  151.8829 LP  0  0  0  0  0  0  0  0  0  0  0  0  # atno 17342 bound_to 10162
  140.4278  144.2157  150.5887 LP  0  0  0  0  0  0  0  0  0  0  0  0  # atno 17343 bound_to 10162
  157.1574  131.0336  151.2857 LP  0  0  0  0  0  0  0  0  0  0  0  0  # atno 17370 bound_to 10713
  157.4340  130.7506  149.7014 LP  0  0  0  0  0  0  0  0  0  0  0  0  # atno 17371 bound_to 10713
  141.0379  134.0663  157.3937 LP  0  0  0  0  0  0  0  0  0  0  0  0  # atno 17394 bound_to 11000
  139.8976  135.0151  156.7110 LP  0  0  0  0  0  0  0  0  0  0  0  0  # atno 17395 bound_to 11000

$$$$
