AV-unprocessed.smi:300|AV-procd|sdf|2269|dock4
  -GOLD-   2262022163D 1   1.00000     0.00000
 Structure written by MMmdl.
 45 46  0  0  0  0  0  0  0  0  1 V2000
  154.2159  140.1860  160.6887 C   0  0  0  0  0  0  0  0  0  0  0  0
  153.4343  141.3763  160.4250 N   0  0  0  0  0  0  0  0  0  0  0  0
  153.2715  142.3326  161.4563 C   0  0  0  0  0  0  0  0  0  0  0  0
  153.7718  142.1969  162.5731 O   0  0  0  0  0  0  0  0  0  0  0  0
  152.4563  143.4839  161.0877 C   0  0  0  0  0  0  0  0  0  0  0  0
  151.9143  143.5847  159.8543 C   0  0  0  0  0  0  0  0  0  0  0  0
  152.0810  142.6301  158.8677 N   0  0  0  0  0  0  0  0  0  0  0  0
  151.4413  142.8160  157.5588 C   0  0  0  0  0  0  0  0  0  0  0  0
  150.2911  141.8326  157.3031 C   0  0  0  0  0  0  0  0  0  0  0  0
  150.4317  140.6272  157.5158 O   0  0  0  0  0  0  0  0  0  0  0  0
  149.1438  142.3715  156.8643 N   0  0  0  0  0  0  0  0  0  0  0  0
  147.9277  141.6244  156.5687 C   0  0  0  0  0  0  0  0  0  0  0  0
  146.6859  142.3056  157.1736 C   0  0  0  0  0  0  0  0  0  0  0  0
  145.8062  142.8419  156.1247 N   0  0  0  0  0  0  0  0  0  0  0  0
  145.8665  142.1522  154.8267 C   0  0  0  0  0  0  0  0  0  0  0  0
  146.4095  143.0521  153.6997 C   0  0  0  0  0  0  0  0  0  0  0  0
  145.3613  143.9973  153.0943 C   0  0  0  0  0  0  0  0  0  0  0  0
  144.7976  145.0327  154.0783 C   0  0  0  0  0  0  0  0  0  0  0  0
  144.0571  144.3996  155.2678 C   0  0  0  0  0  0  0  0  0  0  0  0
  145.0103  143.9113  156.3658 C   0  0  0  0  0  0  0  0  0  0  0  0
  145.0055  144.5052  157.4451 O   0  0  0  0  0  0  0  0  0  0  0  0
  152.8545  141.4818  159.1414 C   0  0  0  0  0  0  0  0  0  0  0  0
  153.0075  140.6071  158.2850 O   0  0  0  0  0  0  0  0  0  0  0  0
  154.7894  140.2897  161.6095 H   0  0  0  0  0  0  0  0  0  0  0  0
  154.9110  140.0500  159.8579 H   0  0  0  0  0  0  0  0  0  0  0  0
  153.5134  139.3544  160.7618 H   0  0  0  0  0  0  0  0  0  0  0  0
  152.2823  144.2649  161.8132 H   0  0  0  0  0  0  0  0  0  0  0  0
  151.3148  144.4556  159.6324 H   0  0  0  0  0  0  0  0  0  0  0  0
  151.0447  143.8291  157.4801 H   0  0  0  0  0  0  0  0  0  0  0  0
  152.1847  142.7292  156.7642 H   0  0  0  0  0  0  0  0  0  0  0  0
  149.1116  143.3709  156.7218 H   0  0  0  0  0  0  0  0  0  0  0  0
  147.8323  141.5557  155.4848 H   0  0  0  0  0  0  0  0  0  0  0  0
  148.0202  140.6007  156.9358 H   0  0  0  0  0  0  0  0  0  0  0  0
  146.1447  141.6034  157.8086 H   0  0  0  0  0  0  0  0  0  0  0  0
  146.9951  143.1051  157.8497 H   0  0  0  0  0  0  0  0  0  0  0  0
  146.5180  141.2805  154.8931 H   0  0  0  0  0  0  0  0  0  0  0  0
  144.8852  141.7530  154.5665 H   0  0  0  0  0  0  0  0  0  0  0  0
  147.2742  143.6173  154.0503 H   0  0  0  0  0  0  0  0  0  0  0  0
  146.7799  142.4110  152.8991 H   0  0  0  0  0  0  0  0  0  0  0  0
  145.8108  144.5247  152.2525 H   0  0  0  0  0  0  0  0  0  0  0  0
  144.5429  143.4104  152.6752 H   0  0  0  0  0  0  0  0  0  0  0  0
  145.5981  145.6846  154.4314 H   0  0  0  0  0  0  0  0  0  0  0  0
  144.1044  145.6796  153.5399 H   0  0  0  0  0  0  0  0  0  0  0  0
  143.3983  145.1498  155.7075 H   0  0  0  0  0  0  0  0  0  0  0  0
  143.4042  143.5893  154.9419 H   0  0  0  0  0  0  0  0  0  0  0  0
  1  2  1  0  0  0  0
  1 24  1  0  0  0  0
  1 25  1  0  0  0  0
  1 26  1  0  0  0  0
  2 22  1  0  0  0  0
  2  3  1  0  0  0  0
  3  4  2  0  0  0  0
  3  5  1  0  0  0  0
  5  6  2  0  0  0  0
  5 27  1  0  0  0  0
  6  7  1  0  0  0  0
  6 28  1  0  0  0  0
  7  8  1  0  0  0  0
  7 22  1  0  0  0  0
  8  9  1  0  0  0  0
  8 29  1  0  0  0  0
  8 30  1  0  0  0  0
  9 10  2  0  0  0  0
  9 11  1  0  0  0  0
 11 12  1  0  0  0  0
 11 31  1  0  0  0  0
 12 13  1  0  0  0  0
 12 32  1  0  0  0  0
 12 33  1  0  0  0  0
 13 14  1  0  0  0  0
 13 34  1  0  0  0  0
 13 35  1  0  0  0  0
 14 20  1  0  0  0  0
 14 15  1  0  0  0  0
 15 16  1  0  0  0  0
 15 36  1  0  0  0  0
 15 37  1  0  0  0  0
 16 17  1  0  0  0  0
 16 38  1  0  0  0  0
 16 39  1  0  0  0  0
 17 18  1  0  0  0  0
 17 40  1  0  0  0  0
 17 41  1  0  0  0  0
 18 19  1  0  0  0  0
 18 42  1  0  0  0  0
 18 43  1  0  0  0  0
 19 20  1  0  0  0  0
 19 44  1  0  0  0  0
 19 45  1  0  0  0  0
 20 21  2  0  0  0  0
 22 23  2  0  0  0  0
M  END
> <s_m_source_file>
AV-unprocessed.smi

> <i_m_source_file_index>
300

> <i_lp_mmshare_version>
43012

> <i_f3d_flags>
0

> <s_epik_input>
W0NIM11uMWMoPU8pW2NIXVtjSF1uKGMxPU8pW0NIMl1DKD1PKVtOSF1bQ0gyXVtDSDJdTjJbQ0gyXVtDSDJdW0NIMl1bQ0gyXVtDSDJdQzI9Tw==

> <s_epik_cmdline>
J2VwaWtfcHl0aG9uJywgJy1waCcsICc3LjAnLCAnLXRuJywgJzgnLCAnLW1hJywgJzIwMCcsICctbWV0YWxfYmluZGluZycsICctaW1hZScsICc8aW5maWxlLm1hZT4nLCAnLW9tYWUnLCAnPG91dGZpbGUubWFlPic=

> <r_lp_tautomer_probability>
1

> <r_epik_Ionization_Penalty>
6.11943e-08

> <r_epik_Ionization_Penalty_Charging>
1.13819e-08

> <r_epik_Ionization_Penalty_Neutral>
4.98124e-08

> <r_epik_State_Penalty>
-0

> <r_epik_Charging_Adjusted_Penalty>
1.13819e-08

> <i_epik_Tot_Q>
0

> <i_epik_Tot_abs_Q>
0

> <r_epik_Metal_State_Penalty>
-0

> <b_epik_Metal_Only>
0

> <s_lp_Force_Field>
OPLS_2005

> <r_lp_Energy>
25.2871

> <b_lp_Chiralities_Consistent>
1

> <s_lp_Variant>
AV-unprocessed.smi:300-1

> <Gold.Version>
5.8.1

> <Gold.Id.Protein>
6NUR|6NUR_protein|mol2

> <Gold.PLP.Fitness>
46.8969

> <Gold.PLP.PLP>
-44.0483

> <Gold.PLP.part.hbond>
-2.6951

> <Gold.PLP.part.metal>
0.0000

> <Gold.PLP.part.buried>
-5.9323

> <Gold.PLP.part.nonpolar>
-35.4739

> <Gold.PLP.part.repulsive>
0.2672

> <Gold.PLP.ligand.clash>
0.0028

> <Gold.PLP.ligand.torsion>
1.0182

> <Gold.PLP.Chemscore.Hbond>
1.6163

> <Gold.PLP.Chemscore.CHOScore>
0.0000

> <Gold.PLP.Chemscore.Metal>
0.0000

> <Gold.Chemscore.Hbonds>
donor molecule, donor type, donor heavy atom, donor atom, acceptor molecule, acceptor atom, score
      L1  H    11    31       P1  8028  1.00
      P1  H  7997  8009       L1    23  0.64

> <Gold.PLP.Chemscore.Internal.Correction>
0.0389

> <Gold.Rescore>
     Score         DG    S(hbond)    S(metal)    S(lipo)     H(rot)  DE(clash)    DE(int)     intcor
     12.07     -14.46       1.90        0.00      70.33       2.18       0.05       2.34       ----

> <Gold.Chemscore.Fitness>
12.0672

> <Gold.Chemscore.DG>
-14.4580

> <Gold.Chemscore.ZeroCoef>
-5.4800

> <Gold.Chemscore.Hbond>
1.8967

> <Gold.Chemscore.Metal>
0.0000

> <Gold.Chemscore.Lipo>
70.3344

> <Gold.Chemscore.Internal_Hbond>
0.0000

> <Gold.Chemscore.DEClash>
0.0534

> <Gold.Chemscore.DEInternal>
2.3373

> <Gold.Chemscore.Rot>
2.1820

> <Gold.Chemscore.Internal.Correction>
   9.000000E+99

> <Gold.Chemscore.Hbonds>
donor molecule, donor type, donor heavy atom, donor atom, acceptor molecule, acceptor atom, score
      L1  H    11    31       P1  8028  0.89
      P1  H  7997  8009       L1    23  0.61

> <Gold.Chemscore.Hbond.Weighted>
-6.3349

> <Gold.Chemscore.Metal.Weighted>
-0.0000

> <Gold.Chemscore.Lipo.Weighted>
-8.2291

> <Gold.Chemscore.Internal_Hbond.Weighted>
0.0000

> <Gold.Chemscore.DEClash.Weighted>
0.0534

> <Gold.Chemscore.DEInternal.Weighted>
2.3373

> <Gold.Chemscore.Rot.Weighted>
5.5860

> <Gold.Chemscore.Internal.Correction.Weighted>
   9.000000E+99

> <Gold.Protein.RotatedTorsions>
[ 6907 6896 6895 6894 ] final   13.98 input  -60.11 | X-H torsion
[ 7974 7965 7964 7962 ] final    3.66 input  175.53 | X-H torsion
[ 8008 7997 7996 7995 ] final  163.61 input   59.86 | X-H torsion
[ 10167 10162 10161 10158 ] final  101.94 input  -65.29 | X-H torsion
[ 10718 10713 10712 10709 ] final  -87.47 input   66.30 | X-H torsion
[ 10763 10752 10751 10750 ] final  -73.13 input  -60.55 | X-H torsion
[ 11005 11000 10999 10996 ] final  -51.55 input  -57.11 | X-H torsion

> <Gold.Protein.ActiveResidues>
 VAL166  LYS551  ARG553  GLY616  TRP617  ASP618  TYR619  PRO620  LYS621  CYS622 
 ASP623  PHE694  ASN695  SER759  ASP760  ASP761  ALA762  ILE779  LEU786  VAL792 
 PHE793  MET794  SER795  GLU796  ALA797  LYS798  CYS799  TRP800  GLU811  SER814 

> <Gold.Protein.RotatedAtoms>
  151.7950  135.0725  160.0392 H   0  0  0  0  0  0  0  0  0  0  0  0  # atno 6907 bound_to 6896
  152.3130  133.5768  159.5701 H   0  0  0  0  0  0  0  0  0  0  0  0  # atno 6908 bound_to 6896
  150.7329  134.0041  159.3690 H   0  0  0  0  0  0  0  0  0  0  0  0  # atno 6909 bound_to 6896
  146.2445  140.0652  142.8366 H   0  0  0  0  0  0  0  0  0  0  0  0  # atno 7974 bound_to 7965
  156.1944  140.1719  156.8028 H   0  0  0  0  0  0  0  0  0  0  0  0  # atno 8008 bound_to 7997
  154.5511  140.0717  156.8700 H   0  0  0  0  0  0  0  0  0  0  0  0  # atno 8009 bound_to 7997
  155.3027  140.3362  155.4249 H   0  0  0  0  0  0  0  0  0  0  0  0  # atno 8010 bound_to 7997
  139.7393  144.7015  151.0600 H   0  0  0  0  0  0  0  0  0  0  0  0  # atno 10167 bound_to 10162
  155.9985  130.4801  150.4871 H   0  0  0  0  0  0  0  0  0  0  0  0  # atno 10718 bound_to 10713
  154.4552  135.5907  153.6218 H   0  0  0  0  0  0  0  0  0  0  0  0  # atno 10763 bound_to 10752
  152.9817  135.6030  154.3555 H   0  0  0  0  0  0  0  0  0  0  0  0  # atno 10764 bound_to 10752
  154.3421  135.2841  155.2396 H   0  0  0  0  0  0  0  0  0  0  0  0  # atno 10765 bound_to 10752
  141.0877  133.6639  156.3893 H   0  0  0  0  0  0  0  0  0  0  0  0  # atno 11005 bound_to 11000
  145.0864  140.9255  143.4795 LP  0  0  0  0  0  0  0  0  0  0  0  0  # atno 17320 bound_to 7965
  145.0816  139.2955  143.5780 LP  0  0  0  0  0  0  0  0  0  0  0  0  # atno 17321 bound_to 7965
  140.7783  143.4944  150.9851 LP  0  0  0  0  0  0  0  0  0  0  0  0  # atno 17342 bound_to 10162
  139.8632  143.7287  152.3172 LP  0  0  0  0  0  0  0  0  0  0  0  0  # atno 17343 bound_to 10162
  157.2870  131.0618  151.2159 LP  0  0  0  0  0  0  0  0  0  0  0  0  # atno 17370 bound_to 10713
  157.3185  130.6925  149.6256 LP  0  0  0  0  0  0  0  0  0  0  0  0  # atno 17371 bound_to 10713
  140.5325  134.6198  157.5354 LP  0  0  0  0  0  0  0  0  0  0  0  0  # atno 17394 bound_to 11000
  139.9697  134.7313  156.0066 LP  0  0  0  0  0  0  0  0  0  0  0  0  # atno 17395 bound_to 11000

$$$$
