AV-unprocessed.smi:1236|AV-procd|sdf|5181|dock8
  -GOLD-   22720 4263D 1   1.00000     0.00000
 Structure written by MMmdl.
 40 41  0  0  0  0  0  0  0  0  2 V2000
  152.9234  138.7016  154.7430 C   0  0  0  0  0  0  0  0  0  0  0  0
  151.4785  138.7608  155.2569 C   0  0  2  0  0  0  0  0  0  0  0  0
  150.4727  138.3820  154.1444 C   0  0  0  0  0  0  0  0  0  0  0  0
  149.8062  137.0763  154.3806 N   0  3  0  0  0  0  0  0  0  0  0  0
  150.7472  136.0035  154.7774 C   0  0  0  0  0  0  0  0  0  0  0  0
  149.9986  134.6668  154.9182 C   0  0  0  0  0  0  0  0  0  0  0  0
  148.9400  134.8060  155.8583 O   0  0  0  0  0  0  0  0  0  0  0  0
  147.9880  135.7810  155.4496 C   0  0  0  0  0  0  0  0  0  0  0  0
  148.6749  137.1516  155.3363 C   0  0  0  0  0  0  0  0  0  0  0  0
  151.2157  140.1011  155.7845 N   0  0  0  0  0  0  0  0  0  0  0  0
  151.7889  140.6481  156.8675 C   0  0  0  0  0  0  0  0  0  0  0  0
  152.6073  140.0563  157.5718 O   0  0  0  0  0  0  0  0  0  0  0  0
  151.3438  141.8992  157.0774 N   0  0  0  0  0  0  0  0  0  0  0  0
  151.6648  142.7742  158.1494 C   0  0  0  0  0  0  0  0  0  0  0  0
  151.6843  144.1475  157.8167 C   0  0  0  0  0  0  0  0  0  0  0  0
  151.9866  145.0974  158.8116 C   0  0  0  0  0  0  0  0  0  0  0  0
  152.2617  144.6485  160.1155 C   0  0  0  0  0  0  0  0  0  0  0  0
  152.2205  143.2641  160.3630 C   0  0  0  0  0  0  0  0  0  0  0  0
  151.9290  142.3521  159.4113 N   0  0  0  0  0  0  0  0  0  0  0  0
  153.1701  137.7024  154.3829 H   0  0  0  0  0  0  0  0  0  0  0  0
  153.6327  138.9490  155.5336 H   0  0  0  0  0  0  0  0  0  0  0  0
  153.0837  139.4003  153.9210 H   0  0  0  0  0  0  0  0  0  0  0  0
  151.4051  138.0376  156.0704 H   0  0  0  0  0  0  0  0  0  0  0  0
  149.7148  139.1654  154.0934 H   0  0  0  0  0  0  0  0  0  0  0  0
  150.9612  138.3708  153.1689 H   0  0  0  0  0  0  0  0  0  0  0  0
  151.5347  135.9035  154.0295 H   0  0  0  0  0  0  0  0  0  0  0  0
  151.2289  136.2677  155.7202 H   0  0  0  0  0  0  0  0  0  0  0  0
  149.6042  134.3388  153.9551 H   0  0  0  0  0  0  0  0  0  0  0  0
  150.6794  133.8896  155.2654 H   0  0  0  0  0  0  0  0  0  0  0  0
  147.5356  135.4920  154.4993 H   0  0  0  0  0  0  0  0  0  0  0  0
  147.1851  135.8222  156.1856 H   0  0  0  0  0  0  0  0  0  0  0  0
  149.0384  137.4698  156.3145 H   0  0  0  0  0  0  0  0  0  0  0  0
  147.9482  137.8946  155.0089 H   0  0  0  0  0  0  0  0  0  0  0  0
  150.5557  140.6644  155.2678 H   0  0  0  0  0  0  0  0  0  0  0  0
  150.6872  142.2635  156.4028 H   0  0  0  0  0  0  0  0  0  0  0  0
  151.4708  144.4758  156.8097 H   0  0  0  0  0  0  0  0  0  0  0  0
  152.0065  146.1516  158.5774 H   0  0  0  0  0  0  0  0  0  0  0  0
  152.4981  145.3467  160.9048 H   0  0  0  0  0  0  0  0  0  0  0  0
  152.4253  142.8781  161.3503 H   0  0  0  0  0  0  0  0  0  0  0  0
  149.4168  136.7937  153.4922 H   0  0  0  0  0  0  0  0  0  0  0  0
  1  2  1  0  0  0  0
  1 20  1  0  0  0  0
  1 21  1  0  0  0  0
  1 22  1  0  0  0  0
  2  3  1  0  0  0  0
  2 10  1  0  0  0  0
  2 23  1  0  0  0  0
  3  4  1  0  0  0  0
  3 24  1  0  0  0  0
  3 25  1  0  0  0  0
  4  9  1  0  0  0  0
  4  5  1  0  0  0  0
  4 40  1  0  0  0  0
  5  6  1  0  0  0  0
  5 26  1  0  0  0  0
  5 27  1  0  0  0  0
  6  7  1  0  0  0  0
  6 28  1  0  0  0  0
  6 29  1  0  0  0  0
  7  8  1  0  0  0  0
  8  9  1  0  0  0  0
  8 30  1  0  0  0  0
  8 31  1  0  0  0  0
  9 32  1  0  0  0  0
  9 33  1  0  0  0  0
 10 11  1  0  0  0  0
 10 34  1  0  0  0  0
 11 12  2  0  0  0  0
 11 13  1  0  0  0  0
 13 14  1  0  0  0  0
 13 35  1  0  0  0  0
 14 19  1  0  0  0  0
 14 15  2  0  0  0  0
 15 16  1  0  0  0  0
 15 36  1  0  0  0  0
 16 17  2  0  0  0  0
 16 37  1  0  0  0  0
 17 18  1  0  0  0  0
 17 38  1  0  0  0  0
 18 19  2  0  0  0  0
 18 39  1  0  0  0  0
M  CHG  1   4   1
M  END
> <s_m_source_file>
AV-unprocessed.smi

> <i_m_source_file_index>
1236

> <i_lp_mmshare_version>
43012

> <i_f3d_flags>
0

> <s_epik_input>
W0NIMl0xW0NIMl1PW0NIMl1bQ0gyXU4xW0NIMl1bQ0BASF0oW0NIM10pW05IXUMoPU8pW05IXWMyW2NIXVtjSF1bY0hdW2NIXW4y

> <s_epik_cmdline>
J2VwaWtfcHl0aG9uJywgJy1waCcsICc3LjAnLCAnLXRuJywgJzgnLCAnLW1hJywgJzIwMCcsICctbWV0YWxfYmluZGluZycsICctaW1hZScsICc8aW5maWxlLm1hZT4nLCAnLW9tYWUnLCAnPG91dGZpbGUubWFlPic=

> <r_epik_Ionization_Penalty>
0.602564

> <r_epik_Ionization_Penalty_Charging>
0.602531

> <r_epik_Ionization_Penalty_Neutral>
3.36306e-05

> <r_epik_State_Penalty>
0.617039

> <r_epik_Charging_Adjusted_Penalty>
1.21957

> <i_epik_Tot_Q>
1

> <i_epik_Tot_abs_Q>
1

> <r_epik_Metal_State_Penalty>
0.617041

> <b_epik_Metal_Only>
0

> <s_lp_Force_Field>
OPLS_2005

> <r_lp_Energy>
24.2739

> <b_lp_Chiralities_Consistent>
1

> <s_lp_Variant>
AV-unprocessed.smi:1236-3

> <Gold.Version>
5.8.1

> <Gold.Id.Protein>
6NUR|6NUR_protein|mol2

> <Gold.PLP.Fitness>
45.0231

> <Gold.PLP.PLP>
-38.2801

> <Gold.PLP.part.hbond>
-2.0000

> <Gold.PLP.part.metal>
0.0000

> <Gold.PLP.part.buried>
-5.0671

> <Gold.PLP.part.nonpolar>
-31.3583

> <Gold.PLP.part.repulsive>
0.2694

> <Gold.PLP.ligand.clash>
0.0000

> <Gold.PLP.ligand.torsion>
1.1380

> <Gold.PLP.Chemscore.Hbond>
3.0000

> <Gold.PLP.Chemscore.CHOScore>
0.0000

> <Gold.PLP.Chemscore.Metal>
0.0000

> <Gold.Chemscore.Hbonds>
donor molecule, donor type, donor heavy atom, donor atom, acceptor molecule, acceptor atom, score
      L1  H     4    40       P1  7948  2.00
      P1  H  7997  8009       L1    12  1.00

> <Gold.PLP.Chemscore.Internal.Correction>
0.0191

> <Gold.Rescore>
     Score         DG    S(hbond)    S(metal)    S(lipo)     H(rot)  DE(clash)    DE(int)     intcor
     16.46     -18.59       1.92        0.00      91.29       1.56       0.13       2.00       ----

> <Gold.Chemscore.Fitness>
16.4590

> <Gold.Chemscore.DG>
-18.5939

> <Gold.Chemscore.ZeroCoef>
-5.4800

> <Gold.Chemscore.Hbond>
1.9231

> <Gold.Chemscore.Metal>
0.0000

> <Gold.Chemscore.Lipo>
91.2857

> <Gold.Chemscore.Internal_Hbond>
0.0000

> <Gold.Chemscore.DEClash>
0.1308

> <Gold.Chemscore.DEInternal>
2.0042

> <Gold.Chemscore.Rot>
1.5584

> <Gold.Chemscore.Internal.Correction>
   9.000000E+99

> <Gold.Chemscore.Hbonds>
donor molecule, donor type, donor heavy atom, donor atom, acceptor molecule, acceptor atom, score
      L1  H     4    40       P1  7948  0.88
      P1  H  7997  8009       L1    12  0.66

> <Gold.Chemscore.Hbond.Weighted>
-6.4231

> <Gold.Chemscore.Metal.Weighted>
-0.0000

> <Gold.Chemscore.Lipo.Weighted>
-10.6804

> <Gold.Chemscore.Internal_Hbond.Weighted>
0.0000

> <Gold.Chemscore.DEClash.Weighted>
0.1308

> <Gold.Chemscore.DEInternal.Weighted>
2.0042

> <Gold.Chemscore.Rot.Weighted>
3.9896

> <Gold.Chemscore.Internal.Correction.Weighted>
   9.000000E+99

> <Gold.Protein.RotatedTorsions>
[ 6907 6896 6895 6894 ] final -160.78 input  -60.11 | X-H torsion
[ 7974 7965 7964 7962 ] final   47.65 input  175.53 | X-H torsion
[ 8008 7997 7996 7995 ] final  177.83 input   59.86 | X-H torsion
[ 10167 10162 10161 10158 ] final  -44.79 input  -65.29 | X-H torsion
[ 10718 10713 10712 10709 ] final  179.04 input   66.30 | X-H torsion
[ 10763 10752 10751 10750 ] final   91.13 input  -60.55 | X-H torsion
[ 11005 11000 10999 10996 ] final   73.27 input  -57.11 | X-H torsion

> <Gold.Protein.ActiveResidues>
 VAL166  LYS551  ARG553  GLY616  TRP617  ASP618  TYR619  PRO620  LYS621  CYS622 
 ASP623  PHE694  ASN695  SER759  ASP760  ASP761  ALA762  ILE779  LEU786  VAL792 
 PHE793  MET794  SER795  GLU796  ALA797  LYS798  CYS799  TRP800  GLU811  SER814 

> <Gold.Protein.RotatedAtoms>
  151.3544  133.3913  159.2683 H   0  0  0  0  0  0  0  0  0  0  0  0  # atno 6907 bound_to 6896
  150.9775  134.9137  159.7835 H   0  0  0  0  0  0  0  0  0  0  0  0  # atno 6908 bound_to 6896
  152.5206  134.3508  159.9302 H   0  0  0  0  0  0  0  0  0  0  0  0  # atno 6909 bound_to 6896
  146.0278  139.4727  142.9857 H   0  0  0  0  0  0  0  0  0  0  0  0  # atno 7974 bound_to 7965
  156.0613  140.1348  156.9938 H   0  0  0  0  0  0  0  0  0  0  0  0  # atno 8008 bound_to 7997
  154.4483  140.0991  156.6592 H   0  0  0  0  0  0  0  0  0  0  0  0  # atno 8009 bound_to 7997
  155.5373  140.3460  155.4441 H   0  0  0  0  0  0  0  0  0  0  0  0  # atno 8010 bound_to 7997
  140.6883  143.2912  151.3545 H   0  0  0  0  0  0  0  0  0  0  0  0  # atno 10167 bound_to 10162
  156.8816  130.9817  151.3061 H   0  0  0  0  0  0  0  0  0  0  0  0  # atno 10718 bound_to 10713
  153.2050  135.4408  155.0312 H   0  0  0  0  0  0  0  0  0  0  0  0  # atno 10763 bound_to 10752
  154.8168  135.3319  154.7155 H   0  0  0  0  0  0  0  0  0  0  0  0  # atno 10764 bound_to 10752
  153.7597  135.6992  153.4983 H   0  0  0  0  0  0  0  0  0  0  0  0  # atno 10765 bound_to 10752
  139.9449  134.7332  156.1006 H   0  0  0  0  0  0  0  0  0  0  0  0  # atno 11005 bound_to 11000
  145.7090  141.0112  143.1463 LP  0  0  0  0  0  0  0  0  0  0  0  0  # atno 17320 bound_to 7965
  144.7017  139.8734  143.7442 LP  0  0  0  0  0  0  0  0  0  0  0  0  # atno 17321 bound_to 7965
  139.6262  144.0810  152.2436 LP  0  0  0  0  0  0  0  0  0  0  0  0  # atno 17342 bound_to 10162
  140.0270  144.6110  150.7519 LP  0  0  0  0  0  0  0  0  0  0  0  0  # atno 17343 bound_to 10162
  157.6137  130.8602  149.8993 LP  0  0  0  0  0  0  0  0  0  0  0  0  # atno 17370 bound_to 10713
  156.0674  130.3690  150.0849 LP  0  0  0  0  0  0  0  0  0  0  0  0  # atno 17371 bound_to 10713
  141.1096  133.6648  156.2946 LP  0  0  0  0  0  0  0  0  0  0  0  0  # atno 17394 bound_to 11000
  140.5860  134.5698  157.5490 LP  0  0  0  0  0  0  0  0  0  0  0  0  # atno 17395 bound_to 11000

$$$$
