AV-unprocessed.smi:2158|AV-procd|sdf|8787|dock2
  -GOLD-   2272011563D 1   1.00000     0.00000
 Structure written by MMmdl.
 31 31  0  0  0  0  0  0  0  0  1 V2000
  151.6628  145.5690  159.7021 C   0  0  0  0  0  0  0  0  0  0  0  0
  151.6618  144.6947  158.4396 C   0  0  0  0  0  0  0  0  0  0  0  0
  151.5326  143.1871  158.7283 C   0  0  2  0  0  0  0  0  0  0  0  0
  152.5584  142.7240  159.7753 C   0  0  0  0  0  0  0  0  0  0  0  0
  151.6990  142.4283  157.4925 N   0  0  0  0  0  0  0  0  0  0  0  0
  150.9353  141.3996  157.0867 C   0  0  0  0  0  0  0  0  0  0  0  0
  149.9903  140.9695  157.7471 O   0  0  0  0  0  0  0  0  0  0  0  0
  151.2633  140.7441  155.7337 C   0  0  0  0  0  0  0  0  0  0  0  0
  150.0896  140.4377  154.8985 N   0  0  0  0  0  0  0  0  0  0  0  0
  149.0621  141.3623  154.7753 C   0  0  0  0  0  0  0  0  0  0  0  0
  147.9623  141.1578  154.0124 C   0  0  0  0  0  0  0  0  0  0  0  0
  147.8040  139.9168  153.2623 C   0  0  0  0  0  0  0  0  0  0  0  0
  146.8465  139.6394  152.5439 O   0  0  0  0  0  0  0  0  0  0  0  0
  148.8585  139.0120  153.4115 N   0  0  0  0  0  0  0  0  0  0  0  0
  149.9950  139.2166  154.1953 C   0  0  0  0  0  0  0  0  0  0  0  0
  150.8725  138.3560  154.2485 O   0  0  0  0  0  0  0  0  0  0  0  0
  148.7940  138.1385  152.9091 H   0  0  0  0  0  0  0  0  0  0  0  0
  151.8021  146.6190  159.4439 H   0  0  0  0  0  0  0  0  0  0  0  0
  152.4700  145.2836  160.3771 H   0  0  0  0  0  0  0  0  0  0  0  0
  150.7229  145.4879  160.2488 H   0  0  0  0  0  0  0  0  0  0  0  0
  150.8524  145.0155  157.7827 H   0  0  0  0  0  0  0  0  0  0  0  0
  152.5864  144.8756  157.8903 H   0  0  0  0  0  0  0  0  0  0  0  0
  150.5316  143.0054  159.1239 H   0  0  0  0  0  0  0  0  0  0  0  0
  152.4417  143.2757  160.7082 H   0  0  0  0  0  0  0  0  0  0  0  0
  153.5795  142.8761  159.4240 H   0  0  0  0  0  0  0  0  0  0  0  0
  152.4401  141.6646  160.0059 H   0  0  0  0  0  0  0  0  0  0  0  0
  152.4576  142.7117  156.8892 H   0  0  0  0  0  0  0  0  0  0  0  0
  151.9590  141.3894  155.1944 H   0  0  0  0  0  0  0  0  0  0  0  0
  151.8238  139.8289  155.9304 H   0  0  0  0  0  0  0  0  0  0  0  0
  149.1394  142.2984  155.3099 H   0  0  0  0  0  0  0  0  0  0  0  0
  147.1959  141.9173  153.9557 H   0  0  0  0  0  0  0  0  0  0  0  0
  1  2  1  0  0  0  0
  1 18  1  0  0  0  0
  1 19  1  0  0  0  0
  1 20  1  0  0  0  0
  2  3  1  0  0  0  0
  2 21  1  0  0  0  0
  2 22  1  0  0  0  0
  3  4  1  0  0  0  0
  3  5  1  0  0  0  0
  3 23  1  0  0  0  0
  4 24  1  0  0  0  0
  4 25  1  0  0  0  0
  4 26  1  0  0  0  0
  5  6  1  0  0  0  0
  5 27  1  0  0  0  0
  6  7  2  0  0  0  0
  6  8  1  0  0  0  0
  8  9  1  0  0  0  0
  8 28  1  0  0  0  0
  8 29  1  0  0  0  0
  9 15  1  0  0  0  0
  9 10  1  0  0  0  0
 10 11  2  0  0  0  0
 10 30  1  0  0  0  0
 11 12  1  0  0  0  0
 11 31  1  0  0  0  0
 12 13  2  0  0  0  0
 12 14  1  0  0  0  0
 14 17  1  0  0  0  0
 14 15  1  0  0  0  0
 15 16  2  0  0  0  0
M  END
> <s_m_source_file>
AV-unprocessed.smi

> <i_m_source_file_index>
2158

> <i_lp_mmshare_version>
43012

> <i_f3d_flags>
0

> <s_epik_input>
W0NIM11bQ0gyXVtDQEhdKFtDSDNdKVtOSF1DKD1PKVtDSDJdbjFbY0hdW2NIXWMoPU8pW25IXWMxPU8=

> <s_epik_cmdline>
J2VwaWtfcHl0aG9uJywgJy1waCcsICc3LjAnLCAnLXRuJywgJzgnLCAnLW1hJywgJzIwMCcsICctbWV0YWxfYmluZGluZycsICctaW1hZScsICc8aW5maWxlLm1hZT4nLCAnLW9tYWUnLCAnPG91dGZpbGUubWFlPic=

> <r_lp_tautomer_probability>
0.999537

> <r_epik_Ionization_Penalty>
0.00326083

> <r_epik_Ionization_Penalty_Charging>
0.00326081

> <r_epik_Ionization_Penalty_Neutral>
1.93017e-08

> <r_epik_State_Penalty>
0.00230249

> <r_epik_Charging_Adjusted_Penalty>
0.0055633

> <i_epik_Tot_Q>
0

> <i_epik_Tot_abs_Q>
0

> <r_epik_Metal_State_Penalty>
0.364899

> <b_epik_Metal_Only>
0

> <s_lp_Force_Field>
OPLS_2005

> <r_lp_Energy>
3.24702

> <b_lp_Chiralities_Consistent>
1

> <s_lp_Variant>
AV-unprocessed.smi:2158-1

> <Gold.Version>
5.8.1

> <Gold.Id.Protein>
6NUR|6NUR_protein|mol2

> <Gold.PLP.Fitness>
38.3878

> <Gold.PLP.PLP>
-34.4646

> <Gold.PLP.part.hbond>
-1.7243

> <Gold.PLP.part.metal>
0.0000

> <Gold.PLP.part.buried>
-0.2965

> <Gold.PLP.part.nonpolar>
-33.4837

> <Gold.PLP.part.repulsive>
1.2637

> <Gold.PLP.ligand.clash>
0.0000

> <Gold.PLP.ligand.torsion>
0.7195

> <Gold.PLP.Chemscore.Hbond>
0.7800

> <Gold.PLP.Chemscore.CHOScore>
1.0000

> <Gold.PLP.Chemscore.Metal>
0.0000

> <Gold.Chemscore.Hbonds>
donor molecule, donor type, donor heavy atom, donor atom, acceptor molecule, acceptor atom, score
      L1  H    14    17       P1  7948  0.68
      L1  C    10    30       P1  8028  1.00

> <Gold.PLP.Chemscore.Internal.Correction>
0.0222

> <Gold.Rescore>
     Score         DG    S(hbond)    S(metal)    S(lipo)     H(rot)  DE(clash)    DE(int)     intcor
      9.86     -12.01       0.99        0.00      71.23       1.99       1.58       0.57       ----

> <Gold.Chemscore.Fitness>
9.8584

> <Gold.Chemscore.DG>
-12.0093

> <Gold.Chemscore.ZeroCoef>
-5.4800

> <Gold.Chemscore.Hbond>
0.9853

> <Gold.Chemscore.Metal>
0.0000

> <Gold.Chemscore.Lipo>
71.2305

> <Gold.Chemscore.Internal_Hbond>
0.0000

> <Gold.Chemscore.DEClash>
1.5763

> <Gold.Chemscore.DEInternal>
0.5746

> <Gold.Chemscore.Rot>
1.9904

> <Gold.Chemscore.Internal.Correction>
   9.000000E+99

> <Gold.Chemscore.Hbonds>
donor molecule, donor type, donor heavy atom, donor atom, acceptor molecule, acceptor atom, score
      L1  H    14    17       P1  7948  0.69

> <Gold.Chemscore.Hbond.Weighted>
-3.2908

> <Gold.Chemscore.Metal.Weighted>
-0.0000

> <Gold.Chemscore.Lipo.Weighted>
-8.3340

> <Gold.Chemscore.Internal_Hbond.Weighted>
0.0000

> <Gold.Chemscore.DEClash.Weighted>
1.5763

> <Gold.Chemscore.DEInternal.Weighted>
0.5746

> <Gold.Chemscore.Rot.Weighted>
5.0955

> <Gold.Chemscore.Internal.Correction.Weighted>
   9.000000E+99

> <Gold.Protein.RotatedTorsions>
[ 6907 6896 6895 6894 ] final  -18.67 input  -60.11 | X-H torsion
[ 7974 7965 7964 7962 ] final   -3.74 input  175.53 | X-H torsion
[ 8008 7997 7996 7995 ] final -157.64 input   59.86 | X-H torsion
[ 10167 10162 10161 10158 ] final  149.76 input  -65.29 | X-H torsion
[ 10718 10713 10712 10709 ] final   33.12 input   66.30 | X-H torsion
[ 10763 10752 10751 10750 ] final  126.54 input  -60.55 | X-H torsion
[ 11005 11000 10999 10996 ] final -119.34 input  -57.11 | X-H torsion

> <Gold.Protein.ActiveResidues>
 VAL166  LYS551  ARG553  GLY616  TRP617  ASP618  TYR619  PRO620  LYS621  CYS622 
 ASP623  PHE694  ASN695  SER759  ASP760  ASP761  ALA762  ILE779  LEU786  VAL792 
 PHE793  MET794  SER795  GLU796  ALA797  LYS798  CYS799  TRP800  GLU811  SER814 

> <Gold.Protein.RotatedAtoms>
  151.2746  135.0695  159.9146 H   0  0  0  0  0  0  0  0  0  0  0  0  # atno 6907 bound_to 6896
  152.5345  134.0094  159.7942 H   0  0  0  0  0  0  0  0  0  0  0  0  # atno 6908 bound_to 6896
  151.0338  133.5716  159.2689 H   0  0  0  0  0  0  0  0  0  0  0  0  # atno 6909 bound_to 6896
  146.2384  140.1766  142.8332 H   0  0  0  0  0  0  0  0  0  0  0  0  # atno 7974 bound_to 7965
  155.7355  140.0807  157.2270 H   0  0  0  0  0  0  0  0  0  0  0  0  # atno 8008 bound_to 7997
  154.4028  140.1587  156.2611 H   0  0  0  0  0  0  0  0  0  0  0  0  # atno 8009 bound_to 7997
  155.9069  140.3406  155.6072 H   0  0  0  0  0  0  0  0  0  0  0  0  # atno 8010 bound_to 7997
  139.4857  144.5576  151.7290 H   0  0  0  0  0  0  0  0  0  0  0  0  # atno 10167 bound_to 10162
  157.2939  130.7316  149.6627 H   0  0  0  0  0  0  0  0  0  0  0  0  # atno 10718 bound_to 10713
  153.6950  135.3293  155.3211 H   0  0  0  0  0  0  0  0  0  0  0  0  # atno 10763 bound_to 10752
  154.8429  135.4440  154.1470 H   0  0  0  0  0  0  0  0  0  0  0  0  # atno 10764 bound_to 10752
  153.2521  135.6982  153.7746 H   0  0  0  0  0  0  0  0  0  0  0  0  # atno 10765 bound_to 10752
  141.0222  134.0107  157.3266 H   0  0  0  0  0  0  0  0  0  0  0  0  # atno 11005 bound_to 11000
  144.9968  140.8596  143.5306 LP  0  0  0  0  0  0  0  0  0  0  0  0  # atno 17320 bound_to 7965
  145.1780  139.2367  143.5307 LP  0  0  0  0  0  0  0  0  0  0  0  0  # atno 17321 bound_to 7965
  140.5140  144.0981  150.6003 LP  0  0  0  0  0  0  0  0  0  0  0  0  # atno 17342 bound_to 10162
  140.3917  143.2749  152.0052 LP  0  0  0  0  0  0  0  0  0  0  0  0  # atno 17343 bound_to 10162
  155.9668  130.4300  150.4859 LP  0  0  0  0  0  0  0  0  0  0  0  0  # atno 17370 bound_to 10713
  157.2827  131.0610  151.2187 LP  0  0  0  0  0  0  0  0  0  0  0  0  # atno 17371 bound_to 10713
  139.9153  135.0196  156.7857 LP  0  0  0  0  0  0  0  0  0  0  0  0  # atno 17394 bound_to 11000
  140.6553  133.9694  155.7776 LP  0  0  0  0  0  0  0  0  0  0  0  0  # atno 17395 bound_to 11000

$$$$
