AV-unprocessed.smi:3222|AV-procd|sdf|12303|dock5
  -GOLD-   2272018143D 1   1.00000     0.00000
 Structure written by MMmdl.
 41 42  0  0  0  0  0  0  0  0  2 V2000
  147.4593  141.6736  155.7434 C   0  0  0  0  0  0  0  0  0  0  0  0
  148.8256  140.9606  155.7455 C   0  0  2  0  0  0  0  0  0  0  0  0
  149.9082  141.9453  155.9829 N   0  3  0  0  0  0  0  0  0  0  0  0
  150.2991  142.1330  157.3950 C   0  0  0  0  0  0  0  0  0  0  0  0
  151.3647  143.2326  157.5224 C   0  0  0  0  0  0  0  0  0  0  0  0
  151.7516  143.4502  158.9136 N   0  0  0  0  0  0  0  0  0  0  0  0
  152.4477  142.4174  159.6623 C   0  0  0  0  0  0  0  0  0  0  0  0
  152.5212  142.9479  161.1015 C   0  0  0  0  0  0  0  0  0  0  0  0
  152.1390  144.4302  161.0223 C   0  0  0  0  0  0  0  0  0  0  0  0
  151.5798  144.5754  159.6173 C   0  0  0  0  0  0  0  0  0  0  0  0
  151.0466  145.6074  159.2127 O   0  0  0  0  0  0  0  0  0  0  0  0
  149.0966  140.1916  154.4254 C   0  0  2  0  0  0  0  0  0  0  0  0
  147.8965  139.3569  153.9392 C   0  0  0  0  0  0  0  0  0  0  0  0
  150.2718  139.3361  154.5563 N   0  0  0  0  0  0  0  0  0  0  0  0
  150.3658  137.9643  154.4252 C   0  0  0  0  0  0  0  0  0  0  0  0
  151.6627  137.6175  154.6739 C   0  0  0  0  0  0  0  0  0  0  0  0
  152.2952  138.8586  154.9617 C   0  0  0  0  0  0  0  0  0  0  0  0
  151.4589  139.8821  154.9013 N   0  0  0  0  0  0  0  0  0  0  0  0
  146.6358  140.9646  155.6625 H   0  0  0  0  0  0  0  0  0  0  0  0
  147.3792  142.3743  154.9117 H   0  0  0  0  0  0  0  0  0  0  0  0
  147.2928  142.2333  156.6634 H   0  0  0  0  0  0  0  0  0  0  0  0
  148.8379  140.2376  156.5630 H   0  0  0  0  0  0  0  0  0  0  0  0
  150.7260  141.6150  155.4895 H   0  0  0  0  0  0  0  0  0  0  0  0
  149.4209  142.3907  157.9865 H   0  0  0  0  0  0  0  0  0  0  0  0
  150.6903  141.1939  157.7890 H   0  0  0  0  0  0  0  0  0  0  0  0
  152.2475  142.9645  156.9401 H   0  0  0  0  0  0  0  0  0  0  0  0
  150.9924  144.1694  157.1040 H   0  0  0  0  0  0  0  0  0  0  0  0
  151.9191  141.4648  159.6100 H   0  0  0  0  0  0  0  0  0  0  0  0
  153.4458  142.2788  159.2448 H   0  0  0  0  0  0  0  0  0  0  0  0
  151.8104  142.4149  161.7345 H   0  0  0  0  0  0  0  0  0  0  0  0
  153.5130  142.8060  161.5325 H   0  0  0  0  0  0  0  0  0  0  0  0
  151.4004  144.7056  161.7757 H   0  0  0  0  0  0  0  0  0  0  0  0
  153.0120  145.0739  161.1351 H   0  0  0  0  0  0  0  0  0  0  0  0
  149.3109  140.9241  153.6446 H   0  0  0  0  0  0  0  0  0  0  0  0
  147.0563  139.9884  153.6519 H   0  0  0  0  0  0  0  0  0  0  0  0
  147.5478  138.6673  154.7084 H   0  0  0  0  0  0  0  0  0  0  0  0
  148.1624  138.7676  153.0606 H   0  0  0  0  0  0  0  0  0  0  0  0
  149.5126  137.3538  154.1680 H   0  0  0  0  0  0  0  0  0  0  0  0
  152.0941  136.6277  154.6545 H   0  0  0  0  0  0  0  0  0  0  0  0
  153.3284  139.0444  155.2159 H   0  0  0  0  0  0  0  0  0  0  0  0
  149.6376  142.8341  155.5865 H   0  0  0  0  0  0  0  0  0  0  0  0
  1  2  1  0  0  0  0
  1 19  1  0  0  0  0
  1 20  1  0  0  0  0
  1 21  1  0  0  0  0
  2  3  1  0  0  0  0
  2 12  1  0  0  0  0
  2 22  1  0  0  0  0
  3  4  1  0  0  0  0
  3 23  1  0  0  0  0
  3 41  1  0  0  0  0
  4  5  1  0  0  0  0
  4 24  1  0  0  0  0
  4 25  1  0  0  0  0
  5  6  1  0  0  0  0
  5 26  1  0  0  0  0
  5 27  1  0  0  0  0
  6 10  1  0  0  0  0
  6  7  1  0  0  0  0
  7  8  1  0  0  0  0
  7 28  1  0  0  0  0
  7 29  1  0  0  0  0
  8  9  1  0  0  0  0
  8 30  1  0  0  0  0
  8 31  1  0  0  0  0
  9 10  1  0  0  0  0
  9 32  1  0  0  0  0
  9 33  1  0  0  0  0
 10 11  2  0  0  0  0
 12 13  1  0  0  0  0
 12 14  1  0  0  0  0
 12 34  1  0  0  0  0
 13 35  1  0  0  0  0
 13 36  1  0  0  0  0
 13 37  1  0  0  0  0
 14 18  1  0  0  0  0
 14 15  1  0  0  0  0
 15 16  2  0  0  0  0
 15 38  1  0  0  0  0
 16 17  1  0  0  0  0
 16 39  1  0  0  0  0
 17 18  2  0  0  0  0
 17 40  1  0  0  0  0
M  CHG  1   3   1
M  END
> <s_m_source_file>
AV-unprocessed.smi

> <i_m_source_file_index>
3222

> <i_lp_mmshare_version>
43012

> <i_f3d_flags>
0

> <s_epik_input>
bjFbY0hdW2NIXVtjSF1uMVtDQEBIXShbQ0gzXSlbQ0BIXShbQ0gzXSlbTkhdW0NIMl1bQ0gyXU4yW0NIMl1bQ0gyXVtDSDJdQzI9Tw==

> <s_epik_cmdline>
J2VwaWtfcHl0aG9uJywgJy1waCcsICc3LjAnLCAnLXRuJywgJzgnLCAnLW1hJywgJzIwMCcsICctbWV0YWxfYmluZGluZycsICctaW1hZScsICc8aW5maWxlLm1hZT4nLCAnLW9tYWUnLCAnPG91dGZpbGUubWFlPic=

> <r_lp_tautomer_probability>
1

> <r_epik_Ionization_Penalty>
0.0064019

> <r_epik_Ionization_Penalty_Charging>
0.00639164

> <r_epik_Ionization_Penalty_Neutral>
1.02567e-05

> <r_epik_State_Penalty>
0.00472531

> <r_epik_Charging_Adjusted_Penalty>
0.011117

> <i_epik_Tot_Q>
1

> <i_epik_Tot_abs_Q>
1

> <r_epik_Metal_State_Penalty>
-0

> <b_epik_Metal_Only>
0

> <s_lp_Force_Field>
OPLS_2005

> <r_lp_Energy>
24.5342

> <b_lp_Chiralities_Consistent>
1

> <s_lp_Variant>
AV-unprocessed.smi:3222-1

> <Gold.Version>
5.8.1

> <Gold.Id.Protein>
6NUR|6NUR_protein|mol2

> <Gold.PLP.Fitness>
54.9623

> <Gold.PLP.PLP>
-44.0605

> <Gold.PLP.part.hbond>
-2.9390

> <Gold.PLP.part.metal>
0.0000

> <Gold.PLP.part.buried>
-5.0313

> <Gold.PLP.part.nonpolar>
-37.9181

> <Gold.PLP.part.repulsive>
0.3599

> <Gold.PLP.ligand.clash>
0.0000

> <Gold.PLP.ligand.torsion>
0.6431

> <Gold.PLP.Chemscore.Hbond>
3.0000

> <Gold.PLP.Chemscore.CHOScore>
0.9990

> <Gold.PLP.Chemscore.Metal>
0.0000

> <Gold.Chemscore.Hbonds>
donor molecule, donor type, donor heavy atom, donor atom, acceptor molecule, acceptor atom, score
      L1  H     3    41       P1  8028  2.00
      P1  H  7989  7998       L1    18  0.85
      L1  C    15    38       P1  7948  0.78

> <Gold.PLP.Chemscore.Internal.Correction>
0.1912

> <Gold.Rescore>
     Score         DG    S(hbond)    S(metal)    S(lipo)     H(rot)  DE(clash)    DE(int)     intcor
     15.28     -17.49       1.73        0.00      96.96       1.99       0.02       2.19       ----

> <Gold.Chemscore.Fitness>
15.2822

> <Gold.Chemscore.DG>
-17.4884

> <Gold.Chemscore.ZeroCoef>
-5.4800

> <Gold.Chemscore.Hbond>
1.7259

> <Gold.Chemscore.Metal>
0.0000

> <Gold.Chemscore.Lipo>
96.9577

> <Gold.Chemscore.Internal_Hbond>
0.0000

> <Gold.Chemscore.DEClash>
0.0206

> <Gold.Chemscore.DEInternal>
2.1856

> <Gold.Chemscore.Rot>
1.9922

> <Gold.Chemscore.Internal.Correction>
   9.000000E+99

> <Gold.Chemscore.Hbonds>
donor molecule, donor type, donor heavy atom, donor atom, acceptor molecule, acceptor atom, score
      L1  H     3    41       P1  8028  0.92
      P1  H  7989  7998       L1    18  0.13

> <Gold.Chemscore.Hbond.Weighted>
-5.7645

> <Gold.Chemscore.Metal.Weighted>
-0.0000

> <Gold.Chemscore.Lipo.Weighted>
-11.3441

> <Gold.Chemscore.Internal_Hbond.Weighted>
0.0000

> <Gold.Chemscore.DEClash.Weighted>
0.0206

> <Gold.Chemscore.DEInternal.Weighted>
2.1856

> <Gold.Chemscore.Rot.Weighted>
5.1002

> <Gold.Chemscore.Internal.Correction.Weighted>
   9.000000E+99

> <Gold.Protein.RotatedTorsions>
[ 6907 6896 6895 6894 ] final   98.29 input  -60.11 | X-H torsion
[ 7974 7965 7964 7962 ] final -136.96 input  175.53 | X-H torsion
[ 8008 7997 7996 7995 ] final  -83.55 input   59.86 | X-H torsion
[ 10167 10162 10161 10158 ] final  -73.72 input  -65.29 | X-H torsion
[ 10718 10713 10712 10709 ] final  166.32 input   66.30 | X-H torsion
[ 10763 10752 10751 10750 ] final   91.06 input  -60.55 | X-H torsion
[ 11005 11000 10999 10996 ] final   63.98 input  -57.11 | X-H torsion

> <Gold.Protein.ActiveResidues>
 VAL166  LYS551  ARG553  GLY616  TRP617  ASP618  TYR619  PRO620  LYS621  CYS622 
 ASP623  PHE694  ASN695  SER759  ASP760  ASP761  ALA762  ILE779  LEU786  VAL792 
 PHE793  MET794  SER795  GLU796  ALA797  LYS798  CYS799  TRP800  GLU811  SER814 

> <Gold.Protein.RotatedAtoms>
  152.5411  134.0603  159.8148 H   0  0  0  0  0  0  0  0  0  0  0  0  # atno 6907 bound_to 6896
  151.0731  133.5442  159.2633 H   0  0  0  0  0  0  0  0  0  0  0  0  # atno 6908 bound_to 6896
  151.2297  135.0558  159.9037 H   0  0  0  0  0  0  0  0  0  0  0  0  # atno 6909 bound_to 6896
  144.8882  140.6605  143.5162 H   0  0  0  0  0  0  0  0  0  0  0  0  # atno 7974 bound_to 7965
  154.6203  140.0617  156.9606 H   0  0  0  0  0  0  0  0  0  0  0  0  # atno 8008 bound_to 7997
  155.1829  140.3300  155.4353 H   0  0  0  0  0  0  0  0  0  0  0  0  # atno 8009 bound_to 7997
  156.2427  140.1894  156.6924 H   0  0  0  0  0  0  0  0  0  0  0  0  # atno 8010 bound_to 7997
  140.5087  143.2348  151.7631 H   0  0  0  0  0  0  0  0  0  0  0  0  # atno 10167 bound_to 10162
  157.0675  131.0357  151.2624 H   0  0  0  0  0  0  0  0  0  0  0  0  # atno 10718 bound_to 10713
  153.2041  135.4411  155.0302 H   0  0  0  0  0  0  0  0  0  0  0  0  # atno 10763 bound_to 10752
  154.8164  135.3317  154.7167 H   0  0  0  0  0  0  0  0  0  0  0  0  # atno 10764 bound_to 10752
  153.7610  135.6991  153.4981 H   0  0  0  0  0  0  0  0  0  0  0  0  # atno 10765 bound_to 10752
  139.9989  134.6474  155.9964 H   0  0  0  0  0  0  0  0  0  0  0  0  # atno 11005 bound_to 11000
  145.3831  139.1632  143.4270 LP  0  0  0  0  0  0  0  0  0  0  0  0  # atno 17320 bound_to 7965
  146.3037  140.3913  142.8695 LP  0  0  0  0  0  0  0  0  0  0  0  0  # atno 17321 bound_to 7965
  139.4890  144.4422  151.9752 LP  0  0  0  0  0  0  0  0  0  0  0  0  # atno 17342 bound_to 10162
  140.3513  144.3085  150.5949 LP  0  0  0  0  0  0  0  0  0  0  0  0  # atno 17343 bound_to 10162
  157.4905  130.7819  149.7503 LP  0  0  0  0  0  0  0  0  0  0  0  0  # atno 17370 bound_to 10713
  155.9960  130.3908  150.2796 LP  0  0  0  0  0  0  0  0  0  0  0  0  # atno 17371 bound_to 10713
  141.1626  133.6538  156.4370 LP  0  0  0  0  0  0  0  0  0  0  0  0  # atno 17394 bound_to 11000
  140.4766  134.6704  157.5153 LP  0  0  0  0  0  0  0  0  0  0  0  0  # atno 17395 bound_to 11000

$$$$
