AV-unprocessed.smi:2801|AV-procd|sdf|10802|dock1
  -GOLD-   2272015233D 1   1.00000     0.00000
 Structure written by MMmdl.
 31 31  0  0  0  0  0  0  0  0  2 V2000
  151.4017  145.7969  160.4398 C   0  0  0  0  0  0  0  0  0  0  0  0
  151.7912  144.6663  161.3944 C   0  0  0  0  0  0  0  0  0  0  0  0
  151.2677  143.4441  160.8884 O   0  0  0  0  0  0  0  0  0  0  0  0
  152.0634  142.8038  159.8929 C   0  0  1  0  0  0  0  0  0  0  0  0
  152.9207  141.7310  160.5910 C   0  0  0  0  0  0  0  0  0  0  0  0
  153.6545  142.2677  161.8265 C   0  0  0  0  0  0  0  0  0  0  0  0
  151.1614  142.1804  158.8146 C   0  0  0  0  0  0  0  0  0  0  0  0
  149.9381  142.2469  158.9350 O   0  0  0  0  0  0  0  0  0  0  0  0
  151.8056  141.6189  157.7752 N   0  0  0  0  0  0  0  0  0  0  0  0
  151.2832  140.9633  156.6242 C   0  0  0  0  0  0  0  0  0  0  0  0
  150.0515  141.3005  156.0119 C   0  0  0  0  0  0  0  0  0  0  0  0
  149.6315  140.5647  154.8865 C   0  0  0  0  0  0  0  0  0  0  0  0
  150.3360  139.5435  154.3569 N   0  0  0  0  0  0  0  0  0  0  0  0
  151.5038  139.2153  154.9480 C   0  0  0  0  0  0  0  0  0  0  0  0
  152.0191  139.8849  156.0773 C   0  0  0  0  0  0  0  0  0  0  0  0
  153.2104  139.4837  156.6172 O   0  5  0  0  0  0  0  0  0  0  0  0
  151.7863  146.7540  160.7923 H   0  0  0  0  0  0  0  0  0  0  0  0
  150.3182  145.8817  160.3548 H   0  0  0  0  0  0  0  0  0  0  0  0
  151.8038  145.6215  159.4418 H   0  0  0  0  0  0  0  0  0  0  0  0
  152.8771  144.6238  161.4845 H   0  0  0  0  0  0  0  0  0  0  0  0
  151.3852  144.8649  162.3874 H   0  0  0  0  0  0  0  0  0  0  0  0
  152.7309  143.5353  159.4324 H   0  0  0  0  0  0  0  0  0  0  0  0
  152.2965  140.8849  160.8825 H   0  0  0  0  0  0  0  0  0  0  0  0
  153.6605  141.3389  159.8915 H   0  0  0  0  0  0  0  0  0  0  0  0
  154.2596  141.4873  162.2878 H   0  0  0  0  0  0  0  0  0  0  0  0
  152.9520  142.6301  162.5775 H   0  0  0  0  0  0  0  0  0  0  0  0
  154.3185  143.0914  161.5629 H   0  0  0  0  0  0  0  0  0  0  0  0
  152.8115  141.7098  157.7799 H   0  0  0  0  0  0  0  0  0  0  0  0
  149.4174  142.0901  156.3810 H   0  0  0  0  0  0  0  0  0  0  0  0
  148.6962  140.8005  154.4009 H   0  0  0  0  0  0  0  0  0  0  0  0
  152.0422  138.3898  154.5058 H   0  0  0  0  0  0  0  0  0  0  0  0
  1  2  1  0  0  0  0
  1 17  1  0  0  0  0
  1 18  1  0  0  0  0
  1 19  1  0  0  0  0
  2  3  1  0  0  0  0
  2 20  1  0  0  0  0
  2 21  1  0  0  0  0
  3  4  1  0  0  0  0
  4  5  1  0  0  0  0
  4  7  1  0  0  0  0
  4 22  1  0  0  0  0
  5  6  1  0  0  0  0
  5 23  1  0  0  0  0
  5 24  1  0  0  0  0
  6 25  1  0  0  0  0
  6 26  1  0  0  0  0
  6 27  1  0  0  0  0
  7  8  2  0  0  0  0
  7  9  1  0  0  0  0
  9 28  1  0  0  0  0
  9 10  1  0  0  0  0
 10 11  2  0  0  0  0
 10 15  1  0  0  0  0
 11 12  1  0  0  0  0
 11 29  1  0  0  0  0
 12 13  2  0  0  0  0
 12 30  1  0  0  0  0
 13 14  1  0  0  0  0
 14 15  2  0  0  0  0
 14 31  1  0  0  0  0
 15 16  1  0  0  0  0
M  CHG  1  16  -1
M  END
> <s_m_source_file>
AV-unprocessed.smi

> <i_m_source_file_index>
2801

> <i_lp_mmshare_version>
43012

> <i_f3d_flags>
0

> <s_epik_input>
W0NIM11bQ0gyXU9bQ0BIXShbQ0gyXVtDSDNdKUMoPU8pW05IXWMxW2NIXVtjSF1uW2NIXWMxW09IXQ==

> <s_epik_cmdline>
J2VwaWtfcHl0aG9uJywgJy1waCcsICc3LjAnLCAnLXRuJywgJzgnLCAnLW1hJywgJzIwMCcsICctbWV0YWxfYmluZGluZycsICctaW1hZScsICc8aW5maWxlLm1hZT4nLCAnLW9tYWUnLCAnPG91dGZpbGUubWFlPic=

> <r_lp_tautomer_probability>
0.56342

> <r_epik_Ionization_Penalty>
4.38321

> <r_epik_Ionization_Penalty_Charging>
2.0641

> <r_epik_Ionization_Penalty_Neutral>
2.31912

> <r_epik_State_Penalty>
2.63873

> <r_epik_Charging_Adjusted_Penalty>
4.70283

> <i_epik_Tot_Q>
-1

> <i_epik_Tot_abs_Q>
1

> <r_epik_Metal_State_Penalty>
0.606608

> <b_epik_Metal_Only>
1

> <s_lp_Force_Field>
OPLS_2005

> <r_lp_Energy>
9.76409

> <b_lp_Chiralities_Consistent>
1

> <s_lp_Variant>
AV-unprocessed.smi:2801-6

> <Gold.Version>
5.8.1

> <Gold.Id.Protein>
6NUR|6NUR_protein|mol2

> <Gold.PLP.Fitness>
42.6829

> <Gold.PLP.PLP>
-38.4741

> <Gold.PLP.part.hbond>
-2.7640

> <Gold.PLP.part.metal>
0.0000

> <Gold.PLP.part.buried>
-3.9427

> <Gold.PLP.part.nonpolar>
-32.3789

> <Gold.PLP.part.repulsive>
0.6814

> <Gold.PLP.ligand.clash>
0.0000

> <Gold.PLP.ligand.torsion>
0.9421

> <Gold.PLP.Chemscore.Hbond>
2.0000

> <Gold.PLP.Chemscore.CHOScore>
0.0000

> <Gold.PLP.Chemscore.Metal>
0.0000

> <Gold.Chemscore.Hbonds>
donor molecule, donor type, donor heavy atom, donor atom, acceptor molecule, acceptor atom, score
      P1  H  7997  8010       L1    16  0.91

> <Gold.PLP.Chemscore.Internal.Correction>
0.0930

> <Gold.Rescore>
     Score         DG    S(hbond)    S(metal)    S(lipo)     H(rot)  DE(clash)    DE(int)     intcor
     13.60     -14.97       0.95        0.00      87.71       1.55       0.02       1.34       ----

> <Gold.Chemscore.Fitness>
13.6003

> <Gold.Chemscore.DG>
-14.9670

> <Gold.Chemscore.ZeroCoef>
-5.4800

> <Gold.Chemscore.Hbond>
0.9530

> <Gold.Chemscore.Metal>
0.0000

> <Gold.Chemscore.Lipo>
87.7116

> <Gold.Chemscore.Internal_Hbond>
0.0000

> <Gold.Chemscore.DEClash>
0.0222

> <Gold.Chemscore.DEInternal>
1.3446

> <Gold.Chemscore.Rot>
1.5462

> <Gold.Chemscore.Internal.Correction>
   9.000000E+99

> <Gold.Chemscore.Hbonds>
donor molecule, donor type, donor heavy atom, donor atom, acceptor molecule, acceptor atom, score
      P1  H  6933  6945       L1     3  0.01
      P1  H  7997  8010       L1    16  0.45

> <Gold.Chemscore.Hbond.Weighted>
-3.1831

> <Gold.Chemscore.Metal.Weighted>
-0.0000

> <Gold.Chemscore.Lipo.Weighted>
-10.2623

> <Gold.Chemscore.Internal_Hbond.Weighted>
0.0000

> <Gold.Chemscore.DEClash.Weighted>
0.0222

> <Gold.Chemscore.DEInternal.Weighted>
1.3446

> <Gold.Chemscore.Rot.Weighted>
3.9583

> <Gold.Chemscore.Internal.Correction.Weighted>
   9.000000E+99

> <Gold.Protein.RotatedTorsions>
[ 6907 6896 6895 6894 ] final  130.10 input  -60.11 | X-H torsion
[ 7974 7965 7964 7962 ] final  -79.09 input  175.53 | X-H torsion
[ 8008 7997 7996 7995 ] final   76.31 input   59.86 | X-H torsion
[ 10167 10162 10161 10158 ] final -140.56 input  -65.29 | X-H torsion
[ 10718 10713 10712 10709 ] final -123.38 input   66.30 | X-H torsion
[ 10763 10752 10751 10750 ] final   14.61 input  -60.55 | X-H torsion
[ 11005 11000 10999 10996 ] final  172.04 input  -57.11 | X-H torsion

> <Gold.Protein.ActiveResidues>
 VAL166  LYS551  ARG553  GLY616  TRP617  ASP618  TYR619  PRO620  LYS621  CYS622 
 ASP623  PHE694  ASN695  SER759  ASP760  ASP761  ALA762  ILE779  LEU786  VAL792 
 PHE793  MET794  SER795  GLU796  ALA797  LYS798  CYS799  TRP800  GLU811  SER814 

> <Gold.Protein.RotatedAtoms>
  152.3559  133.6237  159.5978 H   0  0  0  0  0  0  0  0  0  0  0  0  # atno 6907 bound_to 6896
  150.7568  133.9500  159.3491 H   0  0  0  0  0  0  0  0  0  0  0  0  # atno 6908 bound_to 6896
  151.7345  135.0868  160.0357 H   0  0  0  0  0  0  0  0  0  0  0  0  # atno 6909 bound_to 6896
  145.5778  140.9454  143.1360 H   0  0  0  0  0  0  0  0  0  0  0  0  # atno 7974 bound_to 7965
  155.8255  140.3468  155.5540 H   0  0  0  0  0  0  0  0  0  0  0  0  # atno 8008 bound_to 7997
  155.8297  140.0925  157.1820 H   0  0  0  0  0  0  0  0  0  0  0  0  # atno 8009 bound_to 7997
  154.4004  140.1414  156.3586 H   0  0  0  0  0  0  0  0  0  0  0  0  # atno 8010 bound_to 7997
  139.8269  143.7498  152.2666 H   0  0  0  0  0  0  0  0  0  0  0  0  # atno 10167 bound_to 10162
  156.1497  130.6526  150.9895 H   0  0  0  0  0  0  0  0  0  0  0  0  # atno 10718 bound_to 10713
  153.1606  135.6795  153.8749 H   0  0  0  0  0  0  0  0  0  0  0  0  # atno 10763 bound_to 10752
  153.8145  135.3138  155.3405 H   0  0  0  0  0  0  0  0  0  0  0  0  # atno 10764 bound_to 10752
  154.7929  135.4824  154.0183 H   0  0  0  0  0  0  0  0  0  0  0  0  # atno 10765 bound_to 10752
  140.3255  134.7401  157.4096 H   0  0  0  0  0  0  0  0  0  0  0  0  # atno 11005 bound_to 11000
  144.7408  139.7455  143.7311 LP  0  0  0  0  0  0  0  0  0  0  0  0  # atno 17320 bound_to 7965
  146.1738  139.4900  142.9910 LP  0  0  0  0  0  0  0  0  0  0  0  0  # atno 17321 bound_to 7965
  139.7694  144.7481  151.0247 LP  0  0  0  0  0  0  0  0  0  0  0  0  # atno 17342 bound_to 10162
  140.7809  143.4662  151.0209 LP  0  0  0  0  0  0  0  0  0  0  0  0  # atno 17343 bound_to 10162
  157.6647  131.0874  150.7757 LP  0  0  0  0  0  0  0  0  0  0  0  0  # atno 17370 bound_to 10713
  156.7826  130.4864  149.5398 LP  0  0  0  0  0  0  0  0  0  0  0  0  # atno 17371 bound_to 10713
  140.0905  134.5607  155.8449 LP  0  0  0  0  0  0  0  0  0  0  0  0  # atno 17394 bound_to 11000
  141.2076  133.6666  156.6318 LP  0  0  0  0  0  0  0  0  0  0  0  0  # atno 17395 bound_to 11000

$$$$
