AV-unprocessed.smi:2059|AV-procd|sdf|8352|dock5
  -GOLD-   2272011 23D 1   1.00000     0.00000
 Structure written by MMmdl.
 29 30  0  0  0  0  0  0  0  0  2 V2000
  151.9748  144.9812  159.7480 C   0  0  0  0  0  0  0  0  0  0  0  0
  151.5899  143.7261  159.0427 C   0  0  0  0  0  0  0  0  0  0  0  0
  151.3491  143.4327  157.7301 C   0  0  0  0  0  0  0  0  0  0  0  0
  151.0278  142.0486  157.7591 C   0  0  0  0  0  0  0  0  0  0  0  0
  150.7099  141.3665  156.5494 N   0  0  0  0  0  0  0  0  0  0  0  0
  151.3483  140.3809  155.8821 C   0  0  0  0  0  0  0  0  0  0  0  0
  152.3977  139.9920  156.4051 O   0  0  0  0  0  0  0  0  0  0  0  0
  150.7943  139.9154  154.7249 N   0  5  0  0  0  0  0  0  0  0  0  0
  149.3657  139.9352  154.4021 C   0  0  2  0  0  0  0  0  0  0  0  0
  148.8800  141.3790  154.1671 C   0  0  0  0  0  0  0  0  0  0  0  0
  147.3445  141.3901  154.1826 C   0  0  0  0  0  0  0  0  0  0  0  0
  146.8480  140.0674  155.3534 S   0  0  0  0  0  0  0  0  0  0  0  0
  146.4333  140.6701  156.6299 O   0  0  0  0  0  0  0  0  0  0  0  0
  145.9729  139.1138  154.6531 O   0  0  0  0  0  0  0  0  0  0  0  0
  148.5250  139.3454  155.5453 C   0  0  0  0  0  0  0  0  0  0  0  0
  151.0748  141.5454  158.9850 N   0  0  0  0  0  0  0  0  0  0  0  0
  151.4339  142.6159  159.8122 O   0  0  0  0  0  0  0  0  0  0  0  0
  151.9521  145.8330  159.0682 H   0  0  0  0  0  0  0  0  0  0  0  0
  152.9821  144.9007  160.1566 H   0  0  0  0  0  0  0  0  0  0  0  0
  151.2900  145.1877  160.5708 H   0  0  0  0  0  0  0  0  0  0  0  0
  151.3943  144.1030  156.8848 H   0  0  0  0  0  0  0  0  0  0  0  0
  149.8518  141.6714  156.1148 H   0  0  0  0  0  0  0  0  0  0  0  0
  149.1453  139.3691  153.4955 H   0  0  0  0  0  0  0  0  0  0  0  0
  149.2406  142.0190  154.9743 H   0  0  0  0  0  0  0  0  0  0  0  0
  149.2709  141.7915  153.2364 H   0  0  0  0  0  0  0  0  0  0  0  0
  146.9333  142.3478  154.5009 H   0  0  0  0  0  0  0  0  0  0  0  0
  146.9365  141.1468  153.2003 H   0  0  0  0  0  0  0  0  0  0  0  0
  148.4745  138.2569  155.5169 H   0  0  0  0  0  0  0  0  0  0  0  0
  148.9092  139.6518  156.5189 H   0  0  0  0  0  0  0  0  0  0  0  0
  1  2  1  0  0  0  0
  1 18  1  0  0  0  0
  1 19  1  0  0  0  0
  1 20  1  0  0  0  0
  2 17  1  0  0  0  0
  2  3  2  0  0  0  0
  3  4  1  0  0  0  0
  3 21  1  0  0  0  0
  4  5  1  0  0  0  0
  4 16  2  0  0  0  0
  5  6  1  0  0  0  0
  5 22  1  0  0  0  0
  6  7  2  0  0  0  0
  6  8  1  0  0  0  0
  8  9  1  0  0  0  0
  9 15  1  0  0  0  0
  9 10  1  0  0  0  0
  9 23  1  0  0  0  0
 10 11  1  0  0  0  0
 10 24  1  0  0  0  0
 10 25  1  0  0  0  0
 11 12  1  0  0  0  0
 11 26  1  0  0  0  0
 11 27  1  0  0  0  0
 12 13  2  0  0  0  0
 12 14  2  0  0  0  0
 12 15  1  0  0  0  0
 15 28  1  0  0  0  0
 15 29  1  0  0  0  0
 16 17  1  0  0  0  0
M  CHG  1   8  -1
M  END
> <s_m_source_file>
AV-unprocessed.smi

> <i_m_source_file_index>
2059

> <i_lp_mmshare_version>
43012

> <i_f3d_flags>
0

> <s_epik_input>
W0NIM11jMVtjSF1jKG5vMSlbTkhdQyg9TylbTkhdW0NAQEhdKFtDSDJdMilbQ0gyXVtDSDJdUzIoPU8pPU8=

> <s_epik_cmdline>
J2VwaWtfcHl0aG9uJywgJy1waCcsICc3LjAnLCAnLXRuJywgJzgnLCAnLW1hJywgJzIwMCcsICctbWV0YWxfYmluZGluZycsICctaW1hZScsICc8aW5maWxlLm1hZT4nLCAnLW9tYWUnLCAnPG91dGZpbGUubWFlPic=

> <r_lp_tautomer_probability>
1

> <r_epik_Ionization_Penalty>
6.6071

> <r_epik_Ionization_Penalty_Charging>
6.60709

> <r_epik_Ionization_Penalty_Neutral>
5.42629e-06

> <r_epik_State_Penalty>
6.6352

> <r_epik_Charging_Adjusted_Penalty>
13.2423

> <i_epik_Tot_Q>
-1

> <i_epik_Tot_abs_Q>
1

> <r_epik_Metal_State_Penalty>
2.57602

> <b_epik_Metal_Only>
1

> <s_lp_Force_Field>
OPLS_2005

> <r_lp_Energy>
11.3724

> <b_lp_Chiralities_Consistent>
1

> <s_lp_Variant>
AV-unprocessed.smi:2059-5

> <Gold.Version>
5.8.1

> <Gold.Id.Protein>
6NUR|6NUR_protein|mol2

> <Gold.PLP.Fitness>
33.7816

> <Gold.PLP.PLP>
-29.5267

> <Gold.PLP.part.hbond>
-2.3058

> <Gold.PLP.part.metal>
0.0000

> <Gold.PLP.part.buried>
-3.4816

> <Gold.PLP.part.nonpolar>
-23.6597

> <Gold.PLP.part.repulsive>
0.2581

> <Gold.PLP.ligand.clash>
0.0000

> <Gold.PLP.ligand.torsion>
0.8737

> <Gold.PLP.Chemscore.Hbond>
2.0000

> <Gold.PLP.Chemscore.CHOScore>
0.0000

> <Gold.PLP.Chemscore.Metal>
0.0000

> <Gold.Chemscore.Hbonds>
donor molecule, donor type, donor heavy atom, donor atom, acceptor molecule, acceptor atom, score
      P1  H  7989  7998       L1     8  1.00
      P1  H  7997  8010       L1     7  1.00

> <Gold.PLP.Chemscore.Internal.Correction>
0.0023

> <Gold.Rescore>
     Score         DG    S(hbond)    S(metal)    S(lipo)     H(rot)  DE(clash)    DE(int)     intcor
     14.11     -15.21       1.71        0.00      56.32       1.00       0.05       1.04       ----

> <Gold.Chemscore.Fitness>
14.1148

> <Gold.Chemscore.DG>
-15.2069

> <Gold.Chemscore.ZeroCoef>
-5.4800

> <Gold.Chemscore.Hbond>
1.7057

> <Gold.Chemscore.Metal>
0.0000

> <Gold.Chemscore.Lipo>
56.3239

> <Gold.Chemscore.Internal_Hbond>
0.0000

> <Gold.Chemscore.DEClash>
0.0545

> <Gold.Chemscore.DEInternal>
1.0376

> <Gold.Chemscore.Rot>
1.0000

> <Gold.Chemscore.Internal.Correction>
   9.000000E+99

> <Gold.Chemscore.Hbonds>
donor molecule, donor type, donor heavy atom, donor atom, acceptor molecule, acceptor atom, score
      P1  H  7989  7998       L1     8  0.23
      P1  H  7997  8010       L1     7  0.99

> <Gold.Chemscore.Hbond.Weighted>
-5.6970

> <Gold.Chemscore.Metal.Weighted>
-0.0000

> <Gold.Chemscore.Lipo.Weighted>
-6.5899

> <Gold.Chemscore.Internal_Hbond.Weighted>
0.0000

> <Gold.Chemscore.DEClash.Weighted>
0.0545

> <Gold.Chemscore.DEInternal.Weighted>
1.0376

> <Gold.Chemscore.Rot.Weighted>
2.5600

> <Gold.Chemscore.Internal.Correction.Weighted>
   9.000000E+99

> <Gold.Protein.RotatedTorsions>
[ 6907 6896 6895 6894 ] final  165.78 input  -60.11 | X-H torsion
[ 7974 7965 7964 7962 ] final  172.68 input  175.53 | X-H torsion
[ 8008 7997 7996 7995 ] final   73.29 input   59.86 | X-H torsion
[ 10167 10162 10161 10158 ] final  -84.80 input  -65.29 | X-H torsion
[ 10718 10713 10712 10709 ] final   71.68 input   66.30 | X-H torsion
[ 10763 10752 10751 10750 ] final   79.53 input  -60.55 | X-H torsion
[ 11005 11000 10999 10996 ] final -130.08 input  -57.11 | X-H torsion

> <Gold.Protein.ActiveResidues>
 VAL166  LYS551  ARG553  GLY616  TRP617  ASP618  TYR619  PRO620  LYS621  CYS622 
 ASP623  PHE694  ASN695  SER759  ASP760  ASP761  ALA762  ILE779  LEU786  VAL792 
 PHE793  MET794  SER795  GLU796  ALA797  LYS798  CYS799  TRP800  GLU811  SER814 

> <Gold.Protein.RotatedAtoms>
  151.8891  133.3512  159.3791 H   0  0  0  0  0  0  0  0  0  0  0  0  # atno 6907 bound_to 6896
  150.7108  134.4942  159.5539 H   0  0  0  0  0  0  0  0  0  0  0  0  # atno 6908 bound_to 6896
  152.2508  134.8134  160.0497 H   0  0  0  0  0  0  0  0  0  0  0  0  # atno 6909 bound_to 6896
  144.7262  139.9534  143.6432 H   0  0  0  0  0  0  0  0  0  0  0  0  # atno 7974 bound_to 7965
  155.7815  140.3482  155.5300 H   0  0  0  0  0  0  0  0  0  0  0  0  # atno 8008 bound_to 7997
  155.8723  140.0988  157.1562 H   0  0  0  0  0  0  0  0  0  0  0  0  # atno 8009 bound_to 7997
  154.4018  140.1338  156.4081 H   0  0  0  0  0  0  0  0  0  0  0  0  # atno 8010 bound_to 7997
  140.4098  143.2627  151.9033 H   0  0  0  0  0  0  0  0  0  0  0  0  # atno 10167 bound_to 10162
  157.6464  130.9541  150.0823 H   0  0  0  0  0  0  0  0  0  0  0  0  # atno 10718 bound_to 10713
  153.0960  135.4836  154.8779 H   0  0  0  0  0  0  0  0  0  0  0  0  # atno 10763 bound_to 10752
  154.7325  135.3063  154.8870 H   0  0  0  0  0  0  0  0  0  0  0  0  # atno 10764 bound_to 10752
  153.9501  135.6824  153.4797 H   0  0  0  0  0  0  0  0  0  0  0  0  # atno 10765 bound_to 10752
  140.9376  134.1236  157.4179 H   0  0  0  0  0  0  0  0  0  0  0  0  # atno 11005 bound_to 11000
  146.0694  139.3683  143.0532 LP  0  0  0  0  0  0  0  0  0  0  0  0  # atno 17320 bound_to 7965
  145.7988  140.9780  143.1010 LP  0  0  0  0  0  0  0  0  0  0  0  0  # atno 17321 bound_to 7965
  139.4783  144.5549  151.8329 LP  0  0  0  0  0  0  0  0  0  0  0  0  # atno 17342 bound_to 10162
  140.4651  144.1667  150.5911 LP  0  0  0  0  0  0  0  0  0  0  0  0  # atno 17343 bound_to 10162
  156.1796  130.3649  149.9053 LP  0  0  0  0  0  0  0  0  0  0  0  0  # atno 17370 bound_to 10713
  156.7009  130.8932  151.3599 LP  0  0  0  0  0  0  0  0  0  0  0  0  # atno 17371 bound_to 10713
  139.8812  135.0026  156.6137 LP  0  0  0  0  0  0  0  0  0  0  0  0  # atno 17394 bound_to 11000
  140.7777  133.8685  155.8543 LP  0  0  0  0  0  0  0  0  0  0  0  0  # atno 17395 bound_to 11000

$$$$
