AV-unprocessed.smi:3137|AV-procd|sdf|11953|dock3
  -GOLD-   2272017353D 1   1.00000     0.00000
 Structure written by MMmdl.
 40 40  0  0  0  0  0  0  0  0  2 V2000
  150.9574  143.3013  157.1474 C   0  0  0  0  0  0  0  0  0  0  0  0
  150.7807  141.8078  157.4374 C   0  0  0  0  0  0  0  0  0  0  0  0
  150.4881  141.0777  156.2118 N   0  0  0  0  0  0  0  0  0  0  0  0
  151.3006  140.1628  155.6638 C   0  0  0  0  0  0  0  0  0  0  0  0
  152.3880  139.8511  156.1498 O   0  0  0  0  0  0  0  0  0  0  0  0
  150.8097  139.5085  154.3683 C   0  0  0  0  0  0  0  0  0  0  0  0
  149.4344  138.8368  154.5192 C   0  0  0  0  0  0  0  0  0  0  0  0
  148.7507  138.7356  153.2122 N   0  3  0  0  0  0  0  0  0  0  0  0
  147.3629  139.2537  153.1695 C   0  0  1  0  0  0  0  0  0  0  0  0
  147.4010  140.7851  153.2661 C   0  0  0  0  0  0  0  0  0  0  0  0
  146.6220  138.8164  151.8842 C   0  0  0  0  0  0  0  0  0  0  0  0
  146.2023  137.4267  151.8939 N   0  0  0  0  0  0  0  0  0  0  0  0
  145.7261  136.6666  150.8463 C   0  0  0  0  0  0  0  0  0  0  0  0
  145.4519  135.4204  151.3342 C   0  0  0  0  0  0  0  0  0  0  0  0
  144.9216  134.2219  150.6015 C   0  0  0  0  0  0  0  0  0  0  0  0
  145.7833  135.5247  152.7150 C   0  0  0  0  0  0  0  0  0  0  0  0
  146.2268  136.7261  153.0474 N   0  0  0  0  0  0  0  0  0  0  0  0
  151.1772  143.8497  158.0634 H   0  0  0  0  0  0  0  0  0  0  0  0
  150.0532  143.7294  156.7136 H   0  0  0  0  0  0  0  0  0  0  0  0
  151.7793  143.4744  156.4517 H   0  0  0  0  0  0  0  0  0  0  0  0
  151.6883  141.4088  157.8925 H   0  0  0  0  0  0  0  0  0  0  0  0
  149.9693  141.6615  158.1516 H   0  0  0  0  0  0  0  0  0  0  0  0
  149.6126  141.2833  155.7525 H   0  0  0  0  0  0  0  0  0  0  0  0
  150.7651  140.2616  153.5802 H   0  0  0  0  0  0  0  0  0  0  0  0
  151.5518  138.7723  154.0579 H   0  0  0  0  0  0  0  0  0  0  0  0
  149.5550  137.8440  154.9489 H   0  0  0  0  0  0  0  0  0  0  0  0
  148.8118  139.4119  155.2061 H   0  0  0  0  0  0  0  0  0  0  0  0
  149.2927  139.2833  152.5594 H   0  0  0  0  0  0  0  0  0  0  0  0
  146.8222  138.8971  154.0476 H   0  0  0  0  0  0  0  0  0  0  0  0
  146.3939  141.2029  153.2793 H   0  0  0  0  0  0  0  0  0  0  0  0
  147.9322  141.2253  152.4215 H   0  0  0  0  0  0  0  0  0  0  0  0
  147.8999  141.1092  154.1801 H   0  0  0  0  0  0  0  0  0  0  0  0
  145.7255  139.4228  151.7476 H   0  0  0  0  0  0  0  0  0  0  0  0
  147.2461  138.9896  151.0063 H   0  0  0  0  0  0  0  0  0  0  0  0
  145.6276  137.0679  149.8483 H   0  0  0  0  0  0  0  0  0  0  0  0
  145.0752  133.3015  151.1655 H   0  0  0  0  0  0  0  0  0  0  0  0
  145.4097  134.0908  149.6357 H   0  0  0  0  0  0  0  0  0  0  0  0
  143.8513  134.3080  150.4128 H   0  0  0  0  0  0  0  0  0  0  0  0
  145.7141  134.7670  153.4817 H   0  0  0  0  0  0  0  0  0  0  0  0
  148.7539  137.7751  152.9000 H   0  0  0  0  0  0  0  0  0  0  0  0
  1  2  1  0  0  0  0
  1 18  1  0  0  0  0
  1 19  1  0  0  0  0
  1 20  1  0  0  0  0
  2  3  1  0  0  0  0
  2 21  1  0  0  0  0
  2 22  1  0  0  0  0
  3  4  1  0  0  0  0
  3 23  1  0  0  0  0
  4  5  2  0  0  0  0
  4  6  1  0  0  0  0
  6  7  1  0  0  0  0
  6 24  1  0  0  0  0
  6 25  1  0  0  0  0
  7  8  1  0  0  0  0
  7 26  1  0  0  0  0
  7 27  1  0  0  0  0
  8  9  1  0  0  0  0
  8 28  1  0  0  0  0
  8 40  1  0  0  0  0
  9 10  1  0  0  0  0
  9 11  1  0  0  0  0
  9 29  1  0  0  0  0
 10 30  1  0  0  0  0
 10 31  1  0  0  0  0
 10 32  1  0  0  0  0
 11 12  1  0  0  0  0
 11 33  1  0  0  0  0
 11 34  1  0  0  0  0
 12 17  1  0  0  0  0
 12 13  1  0  0  0  0
 13 14  2  0  0  0  0
 13 35  1  0  0  0  0
 14 15  1  0  0  0  0
 14 16  1  0  0  0  0
 15 36  1  0  0  0  0
 15 37  1  0  0  0  0
 15 38  1  0  0  0  0
 16 17  2  0  0  0  0
 16 39  1  0  0  0  0
M  CHG  1   8   1
M  END
> <s_m_source_file>
AV-unprocessed.smi

> <i_m_source_file_index>
3137

> <i_lp_mmshare_version>
43012

> <i_f3d_flags>
0

> <s_epik_input>
W0NIM11bQ0gyXVtOSF1DKD1PKVtDSDJdW0NIMl1bTkhdW0NASF0oW0NIM10pW0NIMl1uMVtjSF1jKFtDSDNdKVtjSF1uMQ==

> <s_epik_cmdline>
J2VwaWtfcHl0aG9uJywgJy1waCcsICc3LjAnLCAnLXRuJywgJzgnLCAnLW1hJywgJzIwMCcsICctbWV0YWxfYmluZGluZycsICctaW1hZScsICc8aW5maWxlLm1hZT4nLCAnLW9tYWUnLCAnPG91dGZpbGUubWFlPic=

> <r_lp_tautomer_probability>
1

> <r_epik_Ionization_Penalty>
0.00598586

> <r_epik_Ionization_Penalty_Charging>
0.00597743

> <r_epik_Ionization_Penalty_Neutral>
8.43172e-06

> <r_epik_State_Penalty>
0.00439883

> <r_epik_Charging_Adjusted_Penalty>
0.0103763

> <i_epik_Tot_Q>
1

> <i_epik_Tot_abs_Q>
1

> <r_epik_Metal_State_Penalty>
-0

> <b_epik_Metal_Only>
0

> <s_lp_Force_Field>
OPLS_2005

> <r_lp_Energy>
6.05872

> <b_lp_Chiralities_Consistent>
1

> <s_lp_Variant>
AV-unprocessed.smi:3137-2

> <Gold.Version>
5.8.1

> <Gold.Id.Protein>
6NUR|6NUR_protein|mol2

> <Gold.PLP.Fitness>
45.1713

> <Gold.PLP.PLP>
-32.8708

> <Gold.PLP.part.hbond>
-3.0000

> <Gold.PLP.part.metal>
0.0000

> <Gold.PLP.part.buried>
5.1852

> <Gold.PLP.part.nonpolar>
-34.6601

> <Gold.PLP.part.repulsive>
0.7185

> <Gold.PLP.ligand.clash>
0.0000

> <Gold.PLP.ligand.torsion>
0.8497

> <Gold.PLP.Chemscore.Hbond>
4.0000

> <Gold.PLP.Chemscore.CHOScore>
0.6224

> <Gold.PLP.Chemscore.Metal>
0.0000

> <Gold.Chemscore.Hbonds>
donor molecule, donor type, donor heavy atom, donor atom, acceptor molecule, acceptor atom, score
      L1  H     8    28       P1  7957  1.00
      L1  H     8    40       P1  7948  2.00
      P1  H  7997  8010       L1     5  1.00
      L1  C    13    35       P1 10171  0.61

> <Gold.PLP.Chemscore.Internal.Correction>
0.1328

> <Gold.Rescore>
     Score         DG    S(hbond)    S(metal)    S(lipo)     H(rot)  DE(clash)    DE(int)     intcor
     15.67     -17.55       2.95        0.00      69.24       2.30       0.43       1.45       ----

> <Gold.Chemscore.Fitness>
15.6739

> <Gold.Chemscore.DG>
-17.5536

> <Gold.Chemscore.ZeroCoef>
-5.4800

> <Gold.Chemscore.Hbond>
2.9495

> <Gold.Chemscore.Metal>
0.0000

> <Gold.Chemscore.Lipo>
69.2372

> <Gold.Chemscore.Internal_Hbond>
0.0000

> <Gold.Chemscore.DEClash>
0.4267

> <Gold.Chemscore.DEInternal>
1.4530

> <Gold.Chemscore.Rot>
2.2963

> <Gold.Chemscore.Internal.Correction>
   9.000000E+99

> <Gold.Chemscore.Hbonds>
donor molecule, donor type, donor heavy atom, donor atom, acceptor molecule, acceptor atom, score
      L1  H     8    28       P1  7957  0.97
      L1  H     8    40       P1  7948  1.00
      P1  H  7997  8010       L1     5  0.98

> <Gold.Chemscore.Hbond.Weighted>
-9.8515

> <Gold.Chemscore.Metal.Weighted>
-0.0000

> <Gold.Chemscore.Lipo.Weighted>
-8.1007

> <Gold.Chemscore.Internal_Hbond.Weighted>
0.0000

> <Gold.Chemscore.DEClash.Weighted>
0.4267

> <Gold.Chemscore.DEInternal.Weighted>
1.4530

> <Gold.Chemscore.Rot.Weighted>
5.8786

> <Gold.Chemscore.Internal.Correction.Weighted>
   9.000000E+99

> <Gold.Protein.RotatedTorsions>
[ 6907 6896 6895 6894 ] final -179.02 input  -60.11 | X-H torsion
[ 7974 7965 7964 7962 ] final -157.70 input  175.53 | X-H torsion
[ 8008 7997 7996 7995 ] final   81.86 input   59.86 | X-H torsion
[ 10167 10162 10161 10158 ] final   33.89 input  -65.29 | X-H torsion
[ 10718 10713 10712 10709 ] final  -97.38 input   66.30 | X-H torsion
[ 10763 10752 10751 10750 ] final -179.26 input  -60.55 | X-H torsion
[ 11005 11000 10999 10996 ] final  178.30 input  -57.11 | X-H torsion

> <Gold.Protein.ActiveResidues>
 VAL166  LYS551  ARG553  GLY616  TRP617  ASP618  TYR619  PRO620  LYS621  CYS622 
 ASP623  PHE694  ASN695  SER759  ASP760  ASP761  ALA762  ILE779  LEU786  VAL792 
 PHE793  MET794  SER795  GLU796  ALA797  LYS798  CYS799  TRP800  GLU811  SER814 

> <Gold.Protein.RotatedAtoms>
  151.6466  133.3323  159.3142 H   0  0  0  0  0  0  0  0  0  0  0  0  # atno 6907 bound_to 6896
  150.7981  134.7059  159.6586 H   0  0  0  0  0  0  0  0  0  0  0  0  # atno 6908 bound_to 6896
  152.4070  134.6193  160.0098 H   0  0  0  0  0  0  0  0  0  0  0  0  # atno 6909 bound_to 6896
  144.7537  140.3932  143.6029 H   0  0  0  0  0  0  0  0  0  0  0  0  # atno 7974 bound_to 7965
  155.9029  140.3432  155.6040 H   0  0  0  0  0  0  0  0  0  0  0  0  # atno 8008 bound_to 7997
  155.7479  140.0816  157.2234 H   0  0  0  0  0  0  0  0  0  0  0  0  # atno 8009 bound_to 7997
  154.4046  140.1558  156.2678 H   0  0  0  0  0  0  0  0  0  0  0  0  # atno 8010 bound_to 7997
  140.4365  144.1249  150.6167 H   0  0  0  0  0  0  0  0  0  0  0  0  # atno 10167 bound_to 10162
  156.0082  130.5192  150.6366 H   0  0  0  0  0  0  0  0  0  0  0  0  # atno 10718 bound_to 10713
  154.5373  135.2804  155.1127 H   0  0  0  0  0  0  0  0  0  0  0  0  # atno 10763 bound_to 10752
  154.2623  135.6319  153.5283 H   0  0  0  0  0  0  0  0  0  0  0  0  # atno 10764 bound_to 10752
  152.9970  135.5608  154.5903 H   0  0  0  0  0  0  0  0  0  0  0  0  # atno 10765 bound_to 10752
  140.3936  134.6840  157.4521 H   0  0  0  0  0  0  0  0  0  0  0  0  # atno 11005 bound_to 11000
  145.6854  139.1627  143.2677 LP  0  0  0  0  0  0  0  0  0  0  0  0  # atno 17320 bound_to 7965
  146.1520  140.6911  142.9317 LP  0  0  0  0  0  0  0  0  0  0  0  0  # atno 17321 bound_to 7965
  140.4367  143.2544  151.9526 LP  0  0  0  0  0  0  0  0  0  0  0  0  # atno 17342 bound_to 10162
  139.4787  144.5693  151.8114 LP  0  0  0  0  0  0  0  0  0  0  0  0  # atno 17343 bound_to 10162
  157.4154  131.0829  151.1181 LP  0  0  0  0  0  0  0  0  0  0  0  0  # atno 17370 bound_to 10713
  157.1800  130.6305  149.5668 LP  0  0  0  0  0  0  0  0  0  0  0  0  # atno 17371 bound_to 10713
  140.0388  134.6297  155.9007 LP  0  0  0  0  0  0  0  0  0  0  0  0  # atno 17394 bound_to 11000
  141.1882  133.6562  156.5315 LP  0  0  0  0  0  0  0  0  0  0  0  0  # atno 17395 bound_to 11000

$$$$
