AV-unprocessed.smi:447|AV-procd|sdf|2603|dock7
  -GOLD-   2262023 03D 1   1.00000     0.00000
 Structure written by MMmdl.
 46 48  0  0  0  0  0  0  0  0  2 V2000
  150.7212  137.1765  159.0414 C   0  0  0  0  0  0  0  0  0  0  0  0
  150.4382  137.3297  157.5509 C   0  0  0  0  0  0  0  0  0  0  0  0
  149.2780  137.4178  157.1508 O   0  0  0  0  0  0  0  0  0  0  0  0
  151.5066  137.3583  156.7389 N   0  0  0  0  0  0  0  0  0  0  0  0
  151.4523  137.4684  155.2834 C   0  0  2  0  0  0  0  0  0  0  0  0
  152.8280  137.8772  154.7415 C   0  0  0  0  0  0  0  0  0  0  0  0
  150.3971  138.4314  154.8207 C   0  0  0  0  0  0  0  0  0  0  0  0
  149.3570  138.1429  153.9863 N   0  3  0  0  0  0  0  0  0  0  0  0
  148.5856  139.2860  153.7773 C   0  0  0  0  0  0  0  0  0  0  0  0
  147.4432  139.4855  153.0080 C   0  0  0  0  0  0  0  0  0  0  0  0
  146.9014  140.7876  153.0053 C   0  0  0  0  0  0  0  0  0  0  0  0
  147.4938  141.8303  153.7466 C   0  0  0  0  0  0  0  0  0  0  0  0
  148.6499  141.6147  154.5251 C   0  0  0  0  0  0  0  0  0  0  0  0
  149.1785  140.3239  154.5248 C   0  0  0  0  0  0  0  0  0  0  0  0
  150.2865  139.7486  155.1594 N   0  0  0  0  0  0  0  0  0  0  0  0
  151.1311  140.5751  156.0372 C   0  0  0  0  0  0  0  0  0  0  0  0
  150.3743  141.1017  157.2728 C   0  0  1  0  0  0  0  0  0  0  0  0
  149.4016  140.1622  157.6869 O   0  0  0  0  0  0  0  0  0  0  0  0
  151.3333  141.4655  158.3943 C   0  0  0  0  0  0  0  0  0  0  0  0
  151.4330  142.7989  158.8492 C   0  0  0  0  0  0  0  0  0  0  0  0
  152.3213  143.1284  159.8914 C   0  0  0  0  0  0  0  0  0  0  0  0
  153.1125  142.1269  160.4859 C   0  0  0  0  0  0  0  0  0  0  0  0
  153.0132  140.7950  160.0396 C   0  0  0  0  0  0  0  0  0  0  0  0
  152.1250  140.4648  158.9973 C   0  0  0  0  0  0  0  0  0  0  0  0
  151.6700  137.6413  159.3123 H   0  0  0  0  0  0  0  0  0  0  0  0
  150.7653  136.1206  159.3091 H   0  0  0  0  0  0  0  0  0  0  0  0
  149.9333  137.6470  159.6305 H   0  0  0  0  0  0  0  0  0  0  0  0
  152.4221  137.2771  157.1572 H   0  0  0  0  0  0  0  0  0  0  0  0
  151.2199  136.4786  154.8882 H   0  0  0  0  0  0  0  0  0  0  0  0
  152.8236  137.9125  153.6516 H   0  0  0  0  0  0  0  0  0  0  0  0
  153.5961  137.1646  155.0432 H   0  0  0  0  0  0  0  0  0  0  0  0
  153.1250  138.8616  155.1053 H   0  0  0  0  0  0  0  0  0  0  0  0
  146.9896  138.6891  152.4363 H   0  0  0  0  0  0  0  0  0  0  0  0
  146.0158  140.9920  152.4210 H   0  0  0  0  0  0  0  0  0  0  0  0
  147.0539  142.8166  153.7172 H   0  0  0  0  0  0  0  0  0  0  0  0
  149.0980  142.4236  155.0828 H   0  0  0  0  0  0  0  0  0  0  0  0
  152.0170  140.0089  156.3249 H   0  0  0  0  0  0  0  0  0  0  0  0
  151.4949  141.4119  155.4397 H   0  0  0  0  0  0  0  0  0  0  0  0
  149.8301  142.0025  156.9896 H   0  0  0  0  0  0  0  0  0  0  0  0
  149.0548  140.4407  158.5209 H   0  0  0  0  0  0  0  0  0  0  0  0
  150.8276  143.5731  158.4007 H   0  0  0  0  0  0  0  0  0  0  0  0
  152.3952  144.1499  160.2346 H   0  0  0  0  0  0  0  0  0  0  0  0
  153.7943  142.3800  161.2844 H   0  0  0  0  0  0  0  0  0  0  0  0
  153.6181  140.0259  160.4969 H   0  0  0  0  0  0  0  0  0  0  0  0
  152.0550  139.4401  158.6629 H   0  0  0  0  0  0  0  0  0  0  0  0
  149.1953  137.2289  153.5837 H   0  0  0  0  0  0  0  0  0  0  0  0
  1  2  1  0  0  0  0
  1 25  1  0  0  0  0
  1 26  1  0  0  0  0
  1 27  1  0  0  0  0
  2  3  2  0  0  0  0
  2  4  1  0  0  0  0
  4  5  1  0  0  0  0
  4 28  1  0  0  0  0
  5  6  1  0  0  0  0
  5  7  1  0  0  0  0
  5 29  1  0  0  0  0
  6 30  1  0  0  0  0
  6 31  1  0  0  0  0
  6 32  1  0  0  0  0
  7 15  1  0  0  0  0
  7  8  2  0  0  0  0
  8  9  1  0  0  0  0
  8 46  1  0  0  0  0
  9 14  2  0  0  0  0
  9 10  1  0  0  0  0
 10 11  2  0  0  0  0
 10 33  1  0  0  0  0
 11 12  1  0  0  0  0
 11 34  1  0  0  0  0
 12 13  2  0  0  0  0
 12 35  1  0  0  0  0
 13 14  1  0  0  0  0
 13 36  1  0  0  0  0
 14 15  1  0  0  0  0
 15 16  1  0  0  0  0
 16 17  1  0  0  0  0
 16 37  1  0  0  0  0
 16 38  1  0  0  0  0
 17 18  1  0  0  0  0
 17 19  1  0  0  0  0
 17 39  1  0  0  0  0
 18 40  1  0  0  0  0
 19 24  1  0  0  0  0
 19 20  2  0  0  0  0
 20 21  1  0  0  0  0
 20 41  1  0  0  0  0
 21 22  2  0  0  0  0
 21 42  1  0  0  0  0
 22 23  1  0  0  0  0
 22 43  1  0  0  0  0
 23 24  2  0  0  0  0
 23 44  1  0  0  0  0
 24 45  1  0  0  0  0
M  CHG  1   8   1
M  END
> <s_m_source_file>
AV-unprocessed.smi

> <i_m_source_file_index>
447

> <i_lp_mmshare_version>
43012

> <i_f3d_flags>
0

> <s_epik_input>
W0NIM11DKD1PKVtOSF1bQ0BIXShbQ0gzXSljKG4xKW4oYyhjMTIpW2NIXVtjSF1bY0hdW2NIXTIpW0NIMl1bQ0BIXShbT0hdKWMzW2NIXVtjSF1bY0hdW2NIXVtjSF0z

> <s_epik_cmdline>
J2VwaWtfcHl0aG9uJywgJy1waCcsICc3LjAnLCAnLXRuJywgJzgnLCAnLW1hJywgJzIwMCcsICctbWV0YWxfYmluZGluZycsICctaW1hZScsICc8aW5maWxlLm1hZT4nLCAnLW9tYWUnLCAnPG91dGZpbGUubWFlPic=

> <r_epik_Ionization_Penalty>
0.950381

> <r_epik_Ionization_Penalty_Charging>
0.950379

> <r_epik_Ionization_Penalty_Neutral>
1.42115e-06

> <r_epik_State_Penalty>
0.994584

> <r_epik_Charging_Adjusted_Penalty>
1.94496

> <i_epik_Tot_Q>
1

> <i_epik_Tot_abs_Q>
1

> <r_epik_Metal_State_Penalty>
1.10485

> <b_epik_Metal_Only>
0

> <s_lp_Force_Field>
OPLS_2005

> <r_lp_Energy>
11.1979

> <b_lp_Chiralities_Consistent>
1

> <s_lp_Variant>
AV-unprocessed.smi:447-7

> <Gold.Version>
5.8.1

> <Gold.Id.Protein>
6NUR|6NUR_protein|mol2

> <Gold.PLP.Fitness>
52.8416

> <Gold.PLP.PLP>
-47.9456

> <Gold.PLP.part.hbond>
-1.4993

> <Gold.PLP.part.metal>
0.0000

> <Gold.PLP.part.buried>
1.4548

> <Gold.PLP.part.nonpolar>
-47.0340

> <Gold.PLP.part.repulsive>
0.1444

> <Gold.PLP.ligand.clash>
0.0000

> <Gold.PLP.ligand.torsion>
0.5808

> <Gold.PLP.Chemscore.Hbond>
1.9840

> <Gold.PLP.Chemscore.CHOScore>
0.0000

> <Gold.PLP.Chemscore.Metal>
0.0000

> <Gold.Chemscore.Hbonds>
donor molecule, donor type, donor heavy atom, donor atom, acceptor molecule, acceptor atom, score
      L1  H     8    46       P1  7948  1.76

> <Gold.PLP.Chemscore.Internal.Correction>
0.1055

> <Gold.Rescore>
     Score         DG    S(hbond)    S(metal)    S(lipo)     H(rot)  DE(clash)    DE(int)     intcor
     14.90     -17.23       0.70        0.00     133.12       2.41       0.41       1.92       ----

> <Gold.Chemscore.Fitness>
14.8968

> <Gold.Chemscore.DG>
-17.2315

> <Gold.Chemscore.ZeroCoef>
-5.4800

> <Gold.Chemscore.Hbond>
0.7035

> <Gold.Chemscore.Metal>
0.0000

> <Gold.Chemscore.Lipo>
133.1153

> <Gold.Chemscore.Internal_Hbond>
0.0000

> <Gold.Chemscore.DEClash>
0.4129

> <Gold.Chemscore.DEInternal>
1.9218

> <Gold.Chemscore.Rot>
2.4112

> <Gold.Chemscore.Internal.Correction>
   9.000000E+99

> <Gold.Chemscore.Hbonds>
donor molecule, donor type, donor heavy atom, donor atom, acceptor molecule, acceptor atom, score
      L1  H     8    46       P1  7948  0.84

> <Gold.Chemscore.Hbond.Weighted>
-2.3497

> <Gold.Chemscore.Metal.Weighted>
-0.0000

> <Gold.Chemscore.Lipo.Weighted>
-15.5745

> <Gold.Chemscore.Internal_Hbond.Weighted>
0.0000

> <Gold.Chemscore.DEClash.Weighted>
0.4129

> <Gold.Chemscore.DEInternal.Weighted>
1.9218

> <Gold.Chemscore.Rot.Weighted>
6.1727

> <Gold.Chemscore.Internal.Correction.Weighted>
   9.000000E+99

> <Gold.Protein.RotatedTorsions>
[ 6907 6896 6895 6894 ] final  118.60 input  -60.11 | X-H torsion
[ 7974 7965 7964 7962 ] final  160.00 input  175.53 | X-H torsion
[ 8008 7997 7996 7995 ] final  -60.78 input   59.86 | X-H torsion
[ 10167 10162 10161 10158 ] final  119.45 input  -65.29 | X-H torsion
[ 10718 10713 10712 10709 ] final  136.05 input   66.30 | X-H torsion
[ 10763 10752 10751 10750 ] final  162.98 input  -60.55 | X-H torsion
[ 11005 11000 10999 10996 ] final   69.75 input  -57.11 | X-H torsion

> <Gold.Protein.ActiveResidues>
 VAL166  LYS551  ARG553  GLY616  TRP617  ASP618  TYR619  PRO620  LYS621  CYS622 
 ASP623  PHE694  ASN695  SER759  ASP760  ASP761  ALA762  ILE779  LEU786  VAL792 
 PHE793  MET794  SER795  GLU796  ALA797  LYS798  CYS799  TRP800  GLU811  SER814 

> <Gold.Protein.RotatedAtoms>
  152.4532  133.7670  159.6777 H   0  0  0  0  0  0  0  0  0  0  0  0  # atno 6907 bound_to 6896
  150.8449  133.7866  159.3053 H   0  0  0  0  0  0  0  0  0  0  0  0  # atno 6908 bound_to 6896
  151.5480  135.1070  159.9994 H   0  0  0  0  0  0  0  0  0  0  0  0  # atno 6909 bound_to 6896
  144.7760  139.7696  143.6278 H   0  0  0  0  0  0  0  0  0  0  0  0  # atno 7974 bound_to 7965
  154.4415  140.1032  156.6327 H   0  0  0  0  0  0  0  0  0  0  0  0  # atno 8008 bound_to 7997
  155.5587  140.3487  155.4467 H   0  0  0  0  0  0  0  0  0  0  0  0  # atno 8009 bound_to 7997
  156.0475  140.1296  157.0076 H   0  0  0  0  0  0  0  0  0  0  0  0  # atno 8010 bound_to 7997
  139.6045  144.7066  151.2985 H   0  0  0  0  0  0  0  0  0  0  0  0  # atno 10167 bound_to 10162
  157.4507  131.1065  151.0037 H   0  0  0  0  0  0  0  0  0  0  0  0  # atno 10718 bound_to 10713
  154.2867  135.2762  155.2673 H   0  0  0  0  0  0  0  0  0  0  0  0  # atno 10763 bound_to 10752
  154.5170  135.5767  153.6654 H   0  0  0  0  0  0  0  0  0  0  0  0  # atno 10764 bound_to 10752
  152.9920  135.6195  154.3029 H   0  0  0  0  0  0  0  0  0  0  0  0  # atno 10765 bound_to 10752
  139.9636  134.7019  156.0593 H   0  0  0  0  0  0  0  0  0  0  0  0  # atno 11005 bound_to 11000
  146.1939  139.5195  142.9787 LP  0  0  0  0  0  0  0  0  0  0  0  0  # atno 17320 bound_to 7965
  145.6185  141.0327  143.1928 LP  0  0  0  0  0  0  0  0  0  0  0  0  # atno 17321 bound_to 7965
  140.7275  143.6962  150.7882 LP  0  0  0  0  0  0  0  0  0  0  0  0  # atno 17342 bound_to 10162
  140.0545  143.5216  152.2658 LP  0  0  0  0  0  0  0  0  0  0  0  0  # atno 17343 bound_to 10162
  157.0868  130.5926  149.5431 LP  0  0  0  0  0  0  0  0  0  0  0  0  # atno 17370 bound_to 10713
  155.9986  130.5060  150.7576 LP  0  0  0  0  0  0  0  0  0  0  0  0  # atno 17371 bound_to 10713
  141.1315  133.6585  156.3476 LP  0  0  0  0  0  0  0  0  0  0  0  0  # atno 17394 bound_to 11000
  140.5446  134.6087  157.5390 LP  0  0  0  0  0  0  0  0  0  0  0  0  # atno 17395 bound_to 11000

$$$$
