AV-unprocessed.smi:910|AV-procd|sdf|4120|dock9
  -GOLD-   22720 2 23D 1   1.00000     0.00000
 Structure written by MMmdl.
 46 47  0  0  0  0  0  0  0  0  1 V2000
  147.4811  133.9325  162.5604 C   0  0  0  0  0  0  0  0  0  0  0  0
  147.7692  135.1520  161.7124 C   0  0  0  0  0  0  0  0  0  0  0  0
  148.3872  135.0587  160.4950 N   0  0  0  0  0  0  0  0  0  0  0  0
  148.5014  136.3358  159.9675 C   0  0  0  0  0  0  0  0  0  0  0  0
  149.0284  136.6794  158.8331 N   0  0  0  0  0  0  0  0  0  0  0  0
  149.0412  138.0159  158.4621 C   0  0  0  0  0  0  0  0  0  0  0  0
  148.0968  138.8110  158.4195 O   0  0  0  0  0  0  0  0  0  0  0  0
  150.2892  138.3932  158.1471 N   0  0  0  0  0  0  0  0  0  0  0  0
  150.6963  139.7377  157.7510 C   0  0  0  0  0  0  0  0  0  0  0  0
  151.3108  140.5111  158.9264 C   0  0  0  0  0  0  0  0  0  0  0  0
  152.3622  141.3287  158.4338 O   0  0  0  0  0  0  0  0  0  0  0  0
  152.8687  142.2713  159.3701 C   0  0  2  0  0  0  0  0  0  0  0  0
  153.0817  141.5845  160.7355 C   0  0  0  0  0  0  0  0  0  0  0  0
  153.4922  142.5945  161.8169 C   0  0  0  0  0  0  0  0  0  0  0  0
  152.4655  143.7303  161.9290 C   0  0  0  0  0  0  0  0  0  0  0  0
  152.2595  144.4233  160.5737 C   0  0  0  0  0  0  0  0  0  0  0  0
  151.8432  143.4225  159.4769 C   0  0  1  0  0  0  0  0  0  0  0  0
  151.6533  144.1405  158.1301 C   0  0  0  0  0  0  0  0  0  0  0  0
  147.9450  137.1888  160.8931 O   0  0  0  0  0  0  0  0  0  0  0  0
  147.5087  136.4370  161.9412 C   0  0  0  0  0  0  0  0  0  0  0  0
  146.8432  137.1347  163.1059 C   0  0  0  0  0  0  0  0  0  0  0  0
  146.4096  133.8433  162.7404 H   0  0  0  0  0  0  0  0  0  0  0  0
  147.9870  134.0136  163.5226 H   0  0  0  0  0  0  0  0  0  0  0  0
  147.8239  133.0226  162.0671 H   0  0  0  0  0  0  0  0  0  0  0  0
  148.6886  134.1852  160.0880 H   0  0  0  0  0  0  0  0  0  0  0  0
  151.0198  137.6989  158.2081 H   0  0  0  0  0  0  0  0  0  0  0  0
  151.4223  139.6535  156.9422 H   0  0  0  0  0  0  0  0  0  0  0  0
  149.8418  140.2814  157.3450 H   0  0  0  0  0  0  0  0  0  0  0  0
  150.5459  141.1248  159.4024 H   0  0  0  0  0  0  0  0  0  0  0  0
  151.6844  139.8160  159.6798 H   0  0  0  0  0  0  0  0  0  0  0  0
  153.8147  142.6868  159.0171 H   0  0  0  0  0  0  0  0  0  0  0  0
  152.1617  141.0827  161.0389 H   0  0  0  0  0  0  0  0  0  0  0  0
  153.8444  140.8099  160.6600 H   0  0  0  0  0  0  0  0  0  0  0  0
  153.5952  142.0895  162.7778 H   0  0  0  0  0  0  0  0  0  0  0  0
  154.4723  143.0088  161.5774 H   0  0  0  0  0  0  0  0  0  0  0  0
  151.5144  143.3319  162.2851 H   0  0  0  0  0  0  0  0  0  0  0  0
  152.7948  144.4570  162.6722 H   0  0  0  0  0  0  0  0  0  0  0  0
  151.5021  145.2013  160.6753 H   0  0  0  0  0  0  0  0  0  0  0  0
  153.1814  144.9279  160.2816 H   0  0  0  0  0  0  0  0  0  0  0  0
  150.8812  142.9944  159.7634 H   0  0  0  0  0  0  0  0  0  0  0  0
  152.5874  144.5811  157.7803 H   0  0  0  0  0  0  0  0  0  0  0  0
  150.9181  144.9413  158.2132 H   0  0  0  0  0  0  0  0  0  0  0  0
  151.3014  143.4546  157.3587 H   0  0  0  0  0  0  0  0  0  0  0  0
  146.8131  136.4849  163.9808 H   0  0  0  0  0  0  0  0  0  0  0  0
  145.8221  137.4122  162.8443 H   0  0  0  0  0  0  0  0  0  0  0  0
  147.3916  138.0398  163.3675 H   0  0  0  0  0  0  0  0  0  0  0  0
  1 22  1  0  0  0  0
  1 23  1  0  0  0  0
  1 24  1  0  0  0  0
  1  2  1  0  0  0  0
  2  3  1  0  0  0  0
  2 20  2  0  0  0  0
  3 25  1  0  0  0  0
  3  4  1  0  0  0  0
  4 19  1  0  0  0  0
  4  5  2  0  0  0  0
  5  6  1  0  0  0  0
  6  8  1  0  0  0  0
  6  7  2  0  0  0  0
  8  9  1  0  0  0  0
  8 26  1  0  0  0  0
  9 10  1  0  0  0  0
  9 27  1  0  0  0  0
  9 28  1  0  0  0  0
 10 11  1  0  0  0  0
 10 29  1  0  0  0  0
 10 30  1  0  0  0  0
 11 12  1  0  0  0  0
 12 17  1  0  0  0  0
 12 13  1  0  0  0  0
 12 31  1  0  0  0  0
 13 14  1  0  0  0  0
 13 32  1  0  0  0  0
 13 33  1  0  0  0  0
 14 15  1  0  0  0  0
 14 34  1  0  0  0  0
 14 35  1  0  0  0  0
 15 16  1  0  0  0  0
 15 36  1  0  0  0  0
 15 37  1  0  0  0  0
 16 17  1  0  0  0  0
 16 38  1  0  0  0  0
 16 39  1  0  0  0  0
 17 18  1  0  0  0  0
 17 40  1  0  0  0  0
 18 41  1  0  0  0  0
 18 42  1  0  0  0  0
 18 43  1  0  0  0  0
 19 20  1  0  0  0  0
 20 21  1  0  0  0  0
 21 44  1  0  0  0  0
 21 45  1  0  0  0  0
 21 46  1  0  0  0  0
M  END
> <s_m_source_file>
AV-unprocessed.smi

> <i_m_source_file_index>
910

> <i_lp_mmshare_version>
43012

> <i_f3d_flags>
0

> <s_epik_input>
W0NIM11jMW5jKG9jMVtDSDNdKVtOSF1DKD1PKVtOSF1bQ0gyXVtDSDJdT1tDQEBIXTJbQ0gyXVtDSDJdW0NIMl1bQ0gyXVtDQEhdMltDSDNd

> <s_epik_cmdline>
J2VwaWtfcHl0aG9uJywgJy1waCcsICc3LjAnLCAnLXRuJywgJzgnLCAnLW1hJywgJzIwMCcsICctbWV0YWxfYmluZGluZycsICctaW1hZScsICc8aW5maWxlLm1hZT4nLCAnLW9tYWUnLCAnPG91dGZpbGUubWFlPic=

> <r_lp_tautomer_probability>
0.107061

> <r_epik_Ionization_Penalty>
0.727192

> <r_epik_Ionization_Penalty_Charging>
0.726719

> <r_epik_Ionization_Penalty_Neutral>
0.000473387

> <r_epik_State_Penalty>
2.53712

> <r_epik_Charging_Adjusted_Penalty>
3.26383

> <i_epik_Tot_Q>
0

> <i_epik_Tot_abs_Q>
0

> <r_epik_Metal_State_Penalty>
3.71015

> <b_epik_Metal_Only>
0

> <s_lp_Force_Field>
OPLS_2005

> <r_lp_Energy>
30.8071

> <b_lp_Chiralities_Consistent>
1

> <s_lp_Variant>
AV-unprocessed.smi:910-5

> <Gold.Version>
5.8.1

> <Gold.Id.Protein>
6NUR|6NUR_protein|mol2

> <Gold.PLP.Fitness>
49.9871

> <Gold.PLP.PLP>
-47.7318

> <Gold.PLP.part.hbond>
-3.0000

> <Gold.PLP.part.metal>
0.0000

> <Gold.PLP.part.buried>
-6.1685

> <Gold.PLP.part.nonpolar>
-38.9883

> <Gold.PLP.part.repulsive>
0.2014

> <Gold.PLP.ligand.clash>
0.0106

> <Gold.PLP.ligand.torsion>
1.0068

> <Gold.PLP.Chemscore.Hbond>
1.4144

> <Gold.PLP.Chemscore.CHOScore>
0.0000

> <Gold.PLP.Chemscore.Metal>
0.0000

> <Gold.Chemscore.Hbonds>
donor molecule, donor type, donor heavy atom, donor atom, acceptor molecule, acceptor atom, score
      P1  H  6931  6943       L1    19  0.67
      P1  H  6934  6947       L1    19  0.77

> <Gold.PLP.Chemscore.Internal.Correction>
0.0362

> <Gold.Rescore>
     Score         DG    S(hbond)    S(metal)    S(lipo)     H(rot)  DE(clash)    DE(int)     intcor
     16.40     -18.39       0.84        0.00     122.67       1.66       0.07       1.92       ----

> <Gold.Chemscore.Fitness>
16.3969

> <Gold.Chemscore.DG>
-18.3883

> <Gold.Chemscore.ZeroCoef>
-5.4800

> <Gold.Chemscore.Hbond>
0.8380

> <Gold.Chemscore.Metal>
0.0000

> <Gold.Chemscore.Lipo>
122.6738

> <Gold.Chemscore.Internal_Hbond>
0.0000

> <Gold.Chemscore.DEClash>
0.0678

> <Gold.Chemscore.DEInternal>
1.9237

> <Gold.Chemscore.Rot>
1.6576

> <Gold.Chemscore.Internal.Correction>
   9.000000E+99

> <Gold.Chemscore.Hbonds>
donor molecule, donor type, donor heavy atom, donor atom, acceptor molecule, acceptor atom, score
      P1  H  6931  6943       L1    19  0.08
      P1  H  6934  6947       L1    19  0.62

> <Gold.Chemscore.Hbond.Weighted>
-2.7991

> <Gold.Chemscore.Metal.Weighted>
-0.0000

> <Gold.Chemscore.Lipo.Weighted>
-14.3528

> <Gold.Chemscore.Internal_Hbond.Weighted>
0.0000

> <Gold.Chemscore.DEClash.Weighted>
0.0678

> <Gold.Chemscore.DEInternal.Weighted>
1.9237

> <Gold.Chemscore.Rot.Weighted>
4.2436

> <Gold.Chemscore.Internal.Correction.Weighted>
   9.000000E+99

> <Gold.Protein.RotatedTorsions>
[ 6907 6896 6895 6894 ] final  166.47 input  -60.11 | X-H torsion
[ 7974 7965 7964 7962 ] final  -13.15 input  175.53 | X-H torsion
[ 8008 7997 7996 7995 ] final  -95.38 input   59.86 | X-H torsion
[ 10167 10162 10161 10158 ] final  123.48 input  -65.29 | X-H torsion
[ 10718 10713 10712 10709 ] final   -6.56 input   66.30 | X-H torsion
[ 10763 10752 10751 10750 ] final  127.24 input  -60.55 | X-H torsion
[ 11005 11000 10999 10996 ] final   40.63 input  -57.11 | X-H torsion

> <Gold.Protein.ActiveResidues>
 VAL166  LYS551  ARG553  GLY616  TRP617  ASP618  TYR619  PRO620  LYS621  CYS622 
 ASP623  PHE694  ASN695  SER759  ASP760  ASP761  ALA762  ILE779  LEU786  VAL792 
 PHE793  MET794  SER795  GLU796  ALA797  LYS798  CYS799  TRP800  GLU811  SER814 

> <Gold.Protein.RotatedAtoms>
  151.8784  133.3490  159.3757 H   0  0  0  0  0  0  0  0  0  0  0  0  # atno 6907 bound_to 6896
  150.7134  134.5043  159.5585 H   0  0  0  0  0  0  0  0  0  0  0  0  # atno 6908 bound_to 6896
  152.2589  134.8055  160.0485 H   0  0  0  0  0  0  0  0  0  0  0  0  # atno 6909 bound_to 6896
  146.2125  140.3161  142.8386 H   0  0  0  0  0  0  0  0  0  0  0  0  # atno 7974 bound_to 7965
  154.7606  140.0480  157.0970 H   0  0  0  0  0  0  0  0  0  0  0  0  # atno 8008 bound_to 7997
  154.9942  140.3117  155.4874 H   0  0  0  0  0  0  0  0  0  0  0  0  # atno 8009 bound_to 7997
  156.2903  140.2213  156.5049 H   0  0  0  0  0  0  0  0  0  0  0  0  # atno 8010 bound_to 7997
  139.5797  144.6980  151.3560 H   0  0  0  0  0  0  0  0  0  0  0  0  # atno 10167 bound_to 10162
  156.7301  130.5177  149.5847 H   0  0  0  0  0  0  0  0  0  0  0  0  # atno 10718 bound_to 10713
  153.7062  135.3275  155.3236 H   0  0  0  0  0  0  0  0  0  0  0  0  # atno 10763 bound_to 10752
  154.8398  135.4466  154.1360 H   0  0  0  0  0  0  0  0  0  0  0  0  # atno 10764 bound_to 10752
  153.2441  135.6974  153.7829 H   0  0  0  0  0  0  0  0  0  0  0  0  # atno 10765 bound_to 10752
  140.1912  134.3985  155.8146 H   0  0  0  0  0  0  0  0  0  0  0  0  # atno 11005 bound_to 11000
  144.8954  140.7576  143.5900 LP  0  0  0  0  0  0  0  0  0  0  0  0  # atno 17320 bound_to 7965
  145.3084  139.1826  143.4652 LP  0  0  0  0  0  0  0  0  0  0  0  0  # atno 17321 bound_to 7965
  140.7076  143.7472  150.7510 LP  0  0  0  0  0  0  0  0  0  0  0  0  # atno 17342 bound_to 10162
  140.1002  143.4795  152.2430 LP  0  0  0  0  0  0  0  0  0  0  0  0  # atno 17343 bound_to 10162
  156.1535  130.6326  151.0626 LP  0  0  0  0  0  0  0  0  0  0  0  0  # atno 17370 bound_to 10713
  157.6862  131.0824  150.7235 LP  0  0  0  0  0  0  0  0  0  0  0  0  # atno 17371 bound_to 10713
  141.2226  133.7047  156.8098 LP  0  0  0  0  0  0  0  0  0  0  0  0  # atno 17394 bound_to 11000
  140.2158  134.8794  157.3324 LP  0  0  0  0  0  0  0  0  0  0  0  0  # atno 17395 bound_to 11000

$$$$
