AV-unprocessed.smi:2997|AV-procd|sdf|11414|dock1
  -GOLD-   2272016333D 1   1.00000     0.00000
 Structure written by MMmdl.
 39 41  0  0  0  0  0  0  0  0  2 V2000
  153.0743  142.8936  161.2650 C   0  0  0  0  0  0  0  0  0  0  0  0
  152.4050  142.4927  159.9612 C   0  0  0  0  0  0  0  0  0  0  0  0
  152.5886  141.1742  159.4865 C   0  0  0  0  0  0  0  0  0  0  0  0
  151.9662  140.8386  158.2899 C   0  0  0  0  0  0  0  0  0  0  0  0
  151.9524  139.6427  157.5687 N   0  3  0  0  0  0  0  0  0  0  0  0
  151.1966  139.7976  156.4463 C   0  0  0  0  0  0  0  0  0  0  0  0
  150.7295  141.0755  156.4405 N   0  0  0  0  0  0  0  0  0  0  0  0
  149.8670  141.7605  155.4688 C   0  0  0  0  0  0  0  0  0  0  0  0
  149.2187  140.7925  154.4607 C   0  0  2  0  0  0  0  0  0  0  0  0
  149.2439  141.3715  153.1691 O   0  0  0  0  0  0  0  0  0  0  0  0
  147.7706  140.4416  154.8509 C   0  0  0  0  0  0  0  0  0  0  0  0
  146.9025  141.6059  154.8675 N   0  0  0  0  0  0  0  0  0  0  0  0
  146.4898  142.3795  153.8031 C   0  0  0  0  0  0  0  0  0  0  0  0
  145.6893  143.3659  154.3037 C   0  0  0  0  0  0  0  0  0  0  0  0
  145.6697  143.1077  155.7028 C   0  0  0  0  0  0  0  0  0  0  0  0
  146.3976  142.0544  156.0372 N   0  0  0  0  0  0  0  0  0  0  0  0
  151.1823  141.7619  157.5713 C   0  0  0  0  0  0  0  0  0  0  0  0
  150.9880  143.0637  158.0258 C   0  0  0  0  0  0  0  0  0  0  0  0
  151.6142  143.4250  159.2404 C   0  0  0  0  0  0  0  0  0  0  0  0
  151.4243  144.8400  159.7601 C   0  0  0  0  0  0  0  0  0  0  0  0
  153.6601  142.0739  161.6819 H   0  0  0  0  0  0  0  0  0  0  0  0
  152.3279  143.1802  162.0062 H   0  0  0  0  0  0  0  0  0  0  0  0
  153.7476  143.7362  161.1068 H   0  0  0  0  0  0  0  0  0  0  0  0
  153.1877  140.4589  160.0306 H   0  0  0  0  0  0  0  0  0  0  0  0
  150.9985  139.0430  155.6987 H   0  0  0  0  0  0  0  0  0  0  0  0
  149.1095  142.3245  156.0146 H   0  0  0  0  0  0  0  0  0  0  0  0
  150.4816  142.4949  154.9463 H   0  0  0  0  0  0  0  0  0  0  0  0
  149.8046  139.8734  154.4210 H   0  0  0  0  0  0  0  0  0  0  0  0
  149.3004  140.6763  152.5306 H   0  0  0  0  0  0  0  0  0  0  0  0
  147.3560  139.7240  154.1420 H   0  0  0  0  0  0  0  0  0  0  0  0
  147.7430  139.9617  155.8309 H   0  0  0  0  0  0  0  0  0  0  0  0
  146.7983  142.1669  152.7902 H   0  0  0  0  0  0  0  0  0  0  0  0
  145.1923  144.1519  153.7545 H   0  0  0  0  0  0  0  0  0  0  0  0
  145.1526  143.6508  156.4800 H   0  0  0  0  0  0  0  0  0  0  0  0
  150.3859  143.7720  157.4766 H   0  0  0  0  0  0  0  0  0  0  0  0
  150.7692  145.4197  159.1093 H   0  0  0  0  0  0  0  0  0  0  0  0
  152.3820  145.3576  159.8160 H   0  0  0  0  0  0  0  0  0  0  0  0
  150.9779  144.8270  160.7546 H   0  0  0  0  0  0  0  0  0  0  0  0
  152.4210  138.7822  157.8222 H   0  0  0  0  0  0  0  0  0  0  0  0
  1  2  1  0  0  0  0
  1 21  1  0  0  0  0
  1 22  1  0  0  0  0
  1 23  1  0  0  0  0
  2 19  1  0  0  0  0
  2  3  2  0  0  0  0
  3  4  1  0  0  0  0
  3 24  1  0  0  0  0
  4 17  2  0  0  0  0
  4  5  1  0  0  0  0
  5  6  2  0  0  0  0
  5 39  1  0  0  0  0
  6  7  1  0  0  0  0
  6 25  1  0  0  0  0
  7  8  1  0  0  0  0
  7 17  1  0  0  0  0
  8  9  1  0  0  0  0
  8 26  1  0  0  0  0
  8 27  1  0  0  0  0
  9 10  1  0  0  0  0
  9 11  1  0  0  0  0
  9 28  1  0  0  0  0
 10 29  1  0  0  0  0
 11 12  1  0  0  0  0
 11 30  1  0  0  0  0
 11 31  1  0  0  0  0
 12 16  1  0  0  0  0
 12 13  1  0  0  0  0
 13 14  2  0  0  0  0
 13 32  1  0  0  0  0
 14 15  1  0  0  0  0
 14 33  1  0  0  0  0
 15 16  2  0  0  0  0
 15 34  1  0  0  0  0
 17 18  1  0  0  0  0
 18 19  2  0  0  0  0
 18 35  1  0  0  0  0
 19 20  1  0  0  0  0
 20 36  1  0  0  0  0
 20 37  1  0  0  0  0
 20 38  1  0  0  0  0
M  CHG  1   5   1
M  END
> <s_m_source_file>
AV-unprocessed.smi

> <i_m_source_file_index>
2997

> <i_lp_mmshare_version>
43012

> <i_f3d_flags>
0

> <s_epik_input>
W0NIM11jKFtjSF0xKWMoW0NIM10pW2NIXWMoYzEyKW4oW2NIXW4yKVtDSDJdW0NASF0oW09IXSlbQ0gyXW4zW2NIXVtjSF1bY0hdbjM=

> <s_epik_cmdline>
J2VwaWtfcHl0aG9uJywgJy1waCcsICc3LjAnLCAnLXRuJywgJzgnLCAnLW1hJywgJzIwMCcsICctbWV0YWxfYmluZGluZycsICctaW1hZScsICc8aW5maWxlLm1hZT4nLCAnLW9tYWUnLCAnPG91dGZpbGUubWFlPic=

> <r_lp_tautomer_probability>
1

> <r_epik_Ionization_Penalty>
1.09215

> <r_epik_Ionization_Penalty_Charging>
1.09214

> <r_epik_Ionization_Penalty_Neutral>
1.42327e-05

> <r_epik_State_Penalty>
1.14852

> <r_epik_Charging_Adjusted_Penalty>
2.24066

> <i_epik_Tot_Q>
1

> <i_epik_Tot_abs_Q>
1

> <r_epik_Metal_State_Penalty>
1.23686

> <b_epik_Metal_Only>
0

> <s_lp_Force_Field>
OPLS_2005

> <r_lp_Energy>
13.1956

> <b_lp_Chiralities_Consistent>
1

> <s_lp_Variant>
AV-unprocessed.smi:2997-3

> <Gold.Version>
5.8.1

> <Gold.Id.Protein>
6NUR|6NUR_protein|mol2

> <Gold.PLP.Fitness>
50.9587

> <Gold.PLP.PLP>
-46.3945

> <Gold.PLP.part.hbond>
-2.4082

> <Gold.PLP.part.metal>
0.0000

> <Gold.PLP.part.buried>
-6.0566

> <Gold.PLP.part.nonpolar>
-37.7887

> <Gold.PLP.part.repulsive>
0.1901

> <Gold.PLP.ligand.clash>
0.0000

> <Gold.PLP.ligand.torsion>
0.7500

> <Gold.PLP.Chemscore.Hbond>
1.9924

> <Gold.PLP.Chemscore.CHOScore>
0.0000

> <Gold.PLP.Chemscore.Metal>
0.0000

> <Gold.Chemscore.Hbonds>
donor molecule, donor type, donor heavy atom, donor atom, acceptor molecule, acceptor atom, score
      L1  H    10    29       P1  7957  1.00
      P1  H  8011  8017       L1    10  0.62

> <Gold.PLP.Chemscore.Internal.Correction>
0.0868

> <Gold.Rescore>
     Score         DG    S(hbond)    S(metal)    S(lipo)     H(rot)  DE(clash)    DE(int)     intcor
     16.75     -17.81       1.40        0.00     113.70       2.21       0.14       0.92       ----

> <Gold.Chemscore.Fitness>
16.7478

> <Gold.Chemscore.DG>
-17.8057

> <Gold.Chemscore.ZeroCoef>
-5.4800

> <Gold.Chemscore.Hbond>
1.4036

> <Gold.Chemscore.Metal>
0.0000

> <Gold.Chemscore.Lipo>
113.6984

> <Gold.Chemscore.Internal_Hbond>
0.0000

> <Gold.Chemscore.DEClash>
0.1388

> <Gold.Chemscore.DEInternal>
0.9191

> <Gold.Chemscore.Rot>
2.2129

> <Gold.Chemscore.Internal.Correction>
   9.000000E+99

> <Gold.Chemscore.Hbonds>
donor molecule, donor type, donor heavy atom, donor atom, acceptor molecule, acceptor atom, score
      L1  H    10    29       P1  7957  0.92
      P1  H  8011  8017       L1    10  0.09

> <Gold.Chemscore.Hbond.Weighted>
-4.6879

> <Gold.Chemscore.Metal.Weighted>
-0.0000

> <Gold.Chemscore.Lipo.Weighted>
-13.3027

> <Gold.Chemscore.Internal_Hbond.Weighted>
0.0000

> <Gold.Chemscore.DEClash.Weighted>
0.1388

> <Gold.Chemscore.DEInternal.Weighted>
0.9191

> <Gold.Chemscore.Rot.Weighted>
5.6649

> <Gold.Chemscore.Internal.Correction.Weighted>
   9.000000E+99

> <Gold.Protein.RotatedTorsions>
[ 6907 6896 6895 6894 ] final  -81.73 input  -60.11 | X-H torsion
[ 7974 7965 7964 7962 ] final   10.89 input  175.53 | X-H torsion
[ 8008 7997 7996 7995 ] final   34.71 input   59.86 | X-H torsion
[ 10167 10162 10161 10158 ] final  166.07 input  -65.29 | X-H torsion
[ 10718 10713 10712 10709 ] final  -23.68 input   66.30 | X-H torsion
[ 10763 10752 10751 10750 ] final  -37.29 input  -60.55 | X-H torsion
[ 11005 11000 10999 10996 ] final -179.64 input  -57.11 | X-H torsion

> <Gold.Protein.ActiveResidues>
 VAL166  LYS551  ARG553  GLY616  TRP617  ASP618  TYR619  PRO620  LYS621  CYS622 
 ASP623  PHE694  ASN695  SER759  ASP760  ASP761  ALA762  ILE779  LEU786  VAL792 
 PHE793  MET794  SER795  GLU796  ALA797  LYS798  CYS799  TRP800  GLU811  SER814 

> <Gold.Protein.RotatedAtoms>
  150.6907  134.3773  159.5018 H   0  0  0  0  0  0  0  0  0  0  0  0  # atno 6907 bound_to 6896
  152.1580  134.8932  160.0553 H   0  0  0  0  0  0  0  0  0  0  0  0  # atno 6908 bound_to 6896
  152.0005  133.3789  159.4217 H   0  0  0  0  0  0  0  0  0  0  0  0  # atno 6909 bound_to 6896
  146.2381  139.9567  142.8463 H   0  0  0  0  0  0  0  0  0  0  0  0  # atno 7974 bound_to 7965
  155.1593  140.3282  155.4415 H   0  0  0  0  0  0  0  0  0  0  0  0  # atno 8008 bound_to 7997
  156.2548  140.1963  156.6651 H   0  0  0  0  0  0  0  0  0  0  0  0  # atno 8009 bound_to 7997
  154.6416  140.0569  156.9839 H   0  0  0  0  0  0  0  0  0  0  0  0  # atno 8010 bound_to 7997
  139.4917  144.4066  151.9348 H   0  0  0  0  0  0  0  0  0  0  0  0  # atno 10167 bound_to 10162
  156.4878  130.4559  149.6773 H   0  0  0  0  0  0  0  0  0  0  0  0  # atno 10718 bound_to 10713
  153.8938  135.6809  153.4759 H   0  0  0  0  0  0  0  0  0  0  0  0  # atno 10763 bound_to 10752
  153.1166  135.4758  154.9124 H   0  0  0  0  0  0  0  0  0  0  0  0  # atno 10764 bound_to 10752
  154.7609  135.3210  154.8333 H   0  0  0  0  0  0  0  0  0  0  0  0  # atno 10765 bound_to 10752
  140.4164  134.6645  157.4641 H   0  0  0  0  0  0  0  0  0  0  0  0  # atno 11005 bound_to 11000
  145.1810  140.9767  143.4266 LP  0  0  0  0  0  0  0  0  0  0  0  0  # atno 17320 bound_to 7965
  144.9942  139.3660  143.6199 LP  0  0  0  0  0  0  0  0  0  0  0  0  # atno 17321 bound_to 7965
  140.3507  144.3093  150.5950 LP  0  0  0  0  0  0  0  0  0  0  0  0  # atno 17342 bound_to 10162
  140.5488  143.2210  151.7962 LP  0  0  0  0  0  0  0  0  0  0  0  0  # atno 17343 bound_to 10162
  156.3457  130.7405  151.2357 LP  0  0  0  0  0  0  0  0  0  0  0  0  # atno 17370 bound_to 10713
  157.7477  131.0391  150.4535 LP  0  0  0  0  0  0  0  0  0  0  0  0  # atno 17371 bound_to 10713
  140.0231  134.6517  155.9211 LP  0  0  0  0  0  0  0  0  0  0  0  0  # atno 17394 bound_to 11000
  141.1801  133.6545  156.4986 LP  0  0  0  0  0  0  0  0  0  0  0  0  # atno 17395 bound_to 11000

$$$$
