AV-unprocessed.smi:234|AV-procd|sdf|1794|dock6
  -GOLD-   2262020353D 1   1.00000     0.00000
 Structure written by MMmdl.
 59 62  0  0  0  0  0  0  0  0  1 V2000
  147.1055  136.4649  162.1843 C   0  0  0  0  0  0  0  0  0  0  0  0
  147.4789  136.5850  160.7055 C   0  0  0  0  0  0  0  0  0  0  0  0
  146.3274  136.3231  159.9213 O   0  0  0  0  0  0  0  0  0  0  0  0
  146.5281  136.5637  158.5369 C   0  0  1  0  0  0  0  0  0  0  0  0
  145.4025  135.9786  157.6865 C   0  0  0  0  0  0  0  0  0  0  0  0
  145.5837  137.2136  156.7950 C   0  0  1  0  0  0  0  0  0  0  0  0
  144.3377  137.7435  156.2353 N   0  0  0  0  0  0  0  0  0  0  0  0
  144.2629  139.1839  156.0300 C   0  0  0  0  0  0  0  0  0  0  0  0
  143.8189  137.0733  155.1806 C   0  0  0  0  0  0  0  0  0  0  0  0
  142.5791  136.5449  155.3348 N   0  0  0  0  0  0  0  0  0  0  0  0
  142.0138  135.8603  154.3361 C   0  0  0  0  0  0  0  0  0  0  0  0
  142.5039  135.5947  153.1235 N   0  0  0  0  0  0  0  0  0  0  0  0
  143.7450  136.1365  152.9602 C   0  0  0  0  0  0  0  0  0  0  0  0
  144.4688  136.8913  153.9258 C   0  0  0  0  0  0  0  0  0  0  0  0
  145.6884  137.2925  153.3928 N   0  0  0  0  0  0  0  0  0  0  0  0
  145.6928  136.7890  152.1892 C   0  0  0  0  0  0  0  0  0  0  0  0
  144.5687  136.0707  151.8502 N   0  0  0  0  0  0  0  0  0  0  0  0
  144.3177  135.3945  150.5876 C   0  0  0  0  0  0  0  0  0  0  0  0
  144.2288  133.8565  150.7285 C   0  0  1  0  0  0  0  0  0  0  0  0
  143.0549  133.5390  151.4601 O   0  0  0  0  0  0  0  0  0  0  0  0
  144.1890  133.1124  149.4019 C   0  0  0  0  0  0  0  0  0  0  0  0
  144.6942  131.7272  149.7847 C   0  0  0  0  0  0  0  0  0  0  0  0
  145.6794  131.9614  150.7831 O   0  0  0  0  0  0  0  0  0  0  0  0
  145.4737  133.2336  151.3967 C   0  0  2  0  0  0  0  0  0  0  0  0
  145.4409  133.1053  152.9282 C   0  0  0  0  0  0  0  0  0  0  0  0
  146.1210  137.9766  158.0384 C   0  0  0  0  0  0  0  0  0  0  0  0
  145.0919  138.7185  158.9106 C   0  0  0  0  0  0  0  0  0  0  0  0
  147.2789  138.9416  157.7783 C   0  0  0  0  0  0  0  0  0  0  0  0
  147.9696  136.6556  162.8209 H   0  0  0  0  0  0  0  0  0  0  0  0
  146.7332  135.4662  162.4142 H   0  0  0  0  0  0  0  0  0  0  0  0
  146.3286  137.1822  162.4498 H   0  0  0  0  0  0  0  0  0  0  0  0
  147.8613  137.5852  160.5022 H   0  0  0  0  0  0  0  0  0  0  0  0
  148.2689  135.8733  160.4607 H   0  0  0  0  0  0  0  0  0  0  0  0
  147.5068  136.2379  158.1759 H   0  0  0  0  0  0  0  0  0  0  0  0
  145.6411  135.0293  157.2062 H   0  0  0  0  0  0  0  0  0  0  0  0
  144.4426  135.9403  158.2049 H   0  0  0  0  0  0  0  0  0  0  0  0
  146.3687  137.0632  156.0514 H   0  0  0  0  0  0  0  0  0  0  0  0
  143.2493  139.4918  155.7697 H   0  0  0  0  0  0  0  0  0  0  0  0
  144.9329  139.4910  155.2259 H   0  0  0  0  0  0  0  0  0  0  0  0
  144.5478  139.7227  156.9323 H   0  0  0  0  0  0  0  0  0  0  0  0
  141.0291  135.4657  154.5389 H   0  0  0  0  0  0  0  0  0  0  0  0
  146.5250  136.9212  151.5130 H   0  0  0  0  0  0  0  0  0  0  0  0
  143.3920  135.7910  150.1685 H   0  0  0  0  0  0  0  0  0  0  0  0
  145.1099  135.6652  149.8882 H   0  0  0  0  0  0  0  0  0  0  0  0
  142.3048  133.7892  150.9424 H   0  0  0  0  0  0  0  0  0  0  0  0
  143.2039  133.0973  148.9332 H   0  0  0  0  0  0  0  0  0  0  0  0
  144.8885  133.5636  148.6972 H   0  0  0  0  0  0  0  0  0  0  0  0
  143.8886  131.1310  150.2151 H   0  0  0  0  0  0  0  0  0  0  0  0
  145.1053  131.1800  148.9363 H   0  0  0  0  0  0  0  0  0  0  0  0
  146.3468  133.8289  151.1248 H   0  0  0  0  0  0  0  0  0  0  0  0
  145.2704  134.0736  153.3994 H   0  0  0  0  0  0  0  0  0  0  0  0
  146.3884  132.7170  153.3021 H   0  0  0  0  0  0  0  0  0  0  0  0
  144.6561  132.4248  153.2596 H   0  0  0  0  0  0  0  0  0  0  0  0
  144.7402  139.6328  158.4328 H   0  0  0  0  0  0  0  0  0  0  0  0
  145.5165  139.0040  159.8731 H   0  0  0  0  0  0  0  0  0  0  0  0
  144.2136  138.1080  159.1197 H   0  0  0  0  0  0  0  0  0  0  0  0
  146.9491  139.8335  157.2459 H   0  0  0  0  0  0  0  0  0  0  0  0
  148.0577  138.4763  157.1736 H   0  0  0  0  0  0  0  0  0  0  0  0
  147.7458  139.2711  158.7064 H   0  0  0  0  0  0  0  0  0  0  0  0
  1  2  1  0  0  0  0
  1 29  1  0  0  0  0
  1 30  1  0  0  0  0
  1 31  1  0  0  0  0
  2  3  1  0  0  0  0
  2 32  1  0  0  0  0
  2 33  1  0  0  0  0
  3  4  1  0  0  0  0
  4 26  1  0  0  0  0
  4  5  1  0  0  0  0
  4 34  1  0  0  0  0
  5  6  1  0  0  0  0
  5 35  1  0  0  0  0
  5 36  1  0  0  0  0
  6  7  1  0  0  0  0
  6 26  1  0  0  0  0
  6 37  1  0  0  0  0
  7  8  1  0  0  0  0
  7  9  1  0  0  0  0
  8 38  1  0  0  0  0
  8 39  1  0  0  0  0
  8 40  1  0  0  0  0
  9 14  1  0  0  0  0
  9 10  2  0  0  0  0
 10 11  1  0  0  0  0
 11 12  2  0  0  0  0
 11 41  1  0  0  0  0
 12 13  1  0  0  0  0
 13 17  1  0  0  0  0
 13 14  2  0  0  0  0
 14 15  1  0  0  0  0
 15 16  2  0  0  0  0
 16 17  1  0  0  0  0
 16 42  1  0  0  0  0
 17 18  1  0  0  0  0
 18 19  1  0  0  0  0
 18 43  1  0  0  0  0
 18 44  1  0  0  0  0
 19 24  1  0  0  0  0
 19 20  1  0  0  0  0
 19 21  1  0  0  0  0
 20 45  1  0  0  0  0
 21 22  1  0  0  0  0
 21 46  1  0  0  0  0
 21 47  1  0  0  0  0
 22 23  1  0  0  0  0
 22 48  1  0  0  0  0
 22 49  1  0  0  0  0
 23 24  1  0  0  0  0
 24 25  1  0  0  0  0
 24 50  1  0  0  0  0
 25 51  1  0  0  0  0
 25 52  1  0  0  0  0
 25 53  1  0  0  0  0
 26 27  1  0  0  0  0
 26 28  1  0  0  0  0
 27 54  1  0  0  0  0
 27 55  1  0  0  0  0
 27 56  1  0  0  0  0
 28 57  1  0  0  0  0
 28 58  1  0  0  0  0
 28 59  1  0  0  0  0
M  END
> <s_m_source_file>
AV-unprocessed.smi

> <i_m_source_file_index>
234

> <i_lp_mmshare_version>
43012

> <i_f3d_flags>
0

> <s_epik_input>
W0NIM11bQ0gyXU9bQ0BASF0oQzEoW0NIM10pW0NIM10pW0NIMl1bQ0BIXTFOKFtDSDNdKWMobltjSF1uMiljKGMyMyluW2NIXW4zW0NIMl1bQ0BAXTQoW09IXSlbQ0gyXVtDSDJdT1tDQEhdNFtDSDNd

> <s_epik_cmdline>
J2VwaWtfcHl0aG9uJywgJy1waCcsICc3LjAnLCAnLXRuJywgJzgnLCAnLW1hJywgJzIwMCcsICctbWV0YWxfYmluZGluZycsICctaW1hZScsICc8aW5maWxlLm1hZT4nLCAnLW9tYWUnLCAnPG91dGZpbGUubWFlPic=

> <r_lp_tautomer_probability>
1

> <r_epik_Ionization_Penalty>
0.00349132

> <r_epik_Ionization_Penalty_Charging>
0

> <r_epik_Ionization_Penalty_Neutral>
0.00349132

> <r_epik_State_Penalty>
0.00242418

> <r_epik_Charging_Adjusted_Penalty>
0.00242418

> <i_epik_Tot_Q>
0

> <i_epik_Tot_abs_Q>
0

> <r_epik_Metal_State_Penalty>
-0

> <b_epik_Metal_Only>
0

> <s_lp_Force_Field>
OPLS_2005

> <r_lp_Energy>
47.8711

> <b_lp_Chiralities_Consistent>
1

> <s_lp_Variant>
AV-unprocessed.smi:234-10

> <Gold.Version>
5.8.1

> <Gold.Id.Protein>
6NUR|6NUR_protein|mol2

> <Gold.PLP.Fitness>
36.1841

> <Gold.PLP.PLP>
-28.3943

> <Gold.PLP.part.hbond>
-1.0000

> <Gold.PLP.part.metal>
0.0000

> <Gold.PLP.part.buried>
-4.2946

> <Gold.PLP.part.nonpolar>
-25.0404

> <Gold.PLP.part.repulsive>
0.4531

> <Gold.PLP.ligand.clash>
0.0000

> <Gold.PLP.ligand.torsion>
0.8949

> <Gold.PLP.Chemscore.Hbond>
1.0000

> <Gold.PLP.Chemscore.CHOScore>
1.9232

> <Gold.PLP.Chemscore.Metal>
0.0000

> <Gold.Chemscore.Hbonds>
donor molecule, donor type, donor heavy atom, donor atom, acceptor molecule, acceptor atom, score
      L1  H    20    45       P1 10186  1.00
      L1  C    11    41       P1 11000  0.78
      L1  C    16    42       P1  7948  0.98

> <Gold.PLP.Chemscore.Internal.Correction>
0.8100

> <Gold.Rescore>
     Score         DG    S(hbond)    S(metal)    S(lipo)     H(rot)  DE(clash)    DE(int)     intcor
      8.35      -9.19       0.90        0.00      63.41       2.62       0.05       0.78       ----

> <Gold.Chemscore.Fitness>
8.3545

> <Gold.Chemscore.DG>
-9.1852

> <Gold.Chemscore.ZeroCoef>
-5.4800

> <Gold.Chemscore.Hbond>
0.8977

> <Gold.Chemscore.Metal>
0.0000

> <Gold.Chemscore.Lipo>
63.4107

> <Gold.Chemscore.Internal_Hbond>
0.0000

> <Gold.Chemscore.DEClash>
0.0492

> <Gold.Chemscore.DEInternal>
0.7814

> <Gold.Chemscore.Rot>
2.6219

> <Gold.Chemscore.Internal.Correction>
   9.000000E+99

> <Gold.Chemscore.Hbonds>
donor molecule, donor type, donor heavy atom, donor atom, acceptor molecule, acceptor atom, score
      L1  H    20    45       P1 10186  0.58

> <Gold.Chemscore.Hbond.Weighted>
-2.9982

> <Gold.Chemscore.Metal.Weighted>
-0.0000

> <Gold.Chemscore.Lipo.Weighted>
-7.4191

> <Gold.Chemscore.Internal_Hbond.Weighted>
0.0000

> <Gold.Chemscore.DEClash.Weighted>
0.0492

> <Gold.Chemscore.DEInternal.Weighted>
0.7814

> <Gold.Chemscore.Rot.Weighted>
6.7121

> <Gold.Chemscore.Internal.Correction.Weighted>
   9.000000E+99

> <Gold.Protein.RotatedTorsions>
[ 6907 6896 6895 6894 ] final   46.10 input  -60.11 | X-H torsion
[ 7974 7965 7964 7962 ] final  -70.41 input  175.53 | X-H torsion
[ 8008 7997 7996 7995 ] final -120.02 input   59.86 | X-H torsion
[ 10167 10162 10161 10158 ] final -148.61 input  -65.29 | X-H torsion
[ 10718 10713 10712 10709 ] final   72.21 input   66.30 | X-H torsion
[ 10763 10752 10751 10750 ] final -173.79 input  -60.55 | X-H torsion
[ 11005 11000 10999 10996 ] final -166.88 input  -57.11 | X-H torsion

> <Gold.Protein.ActiveResidues>
 VAL166  LYS551  ARG553  GLY616  TRP617  ASP618  TYR619  PRO620  LYS621  CYS622 
 ASP623  PHE694  ASN695  SER759  ASP760  ASP761  ALA762  ILE779  LEU786  VAL792 
 PHE793  MET794  SER795  GLU796  ALA797  LYS798  CYS799  TRP800  GLU811  SER814 

> <Gold.Protein.RotatedAtoms>
  152.2525  134.8118  160.0443 H   0  0  0  0  0  0  0  0  0  0  0  0  # atno 6907 bound_to 6896
  151.8794  133.3487  159.3769 H   0  0  0  0  0  0  0  0  0  0  0  0  # atno 6908 bound_to 6896
  150.7088  134.4961  159.5583 H   0  0  0  0  0  0  0  0  0  0  0  0  # atno 6909 bound_to 6896
  145.6913  140.9152  143.0780 H   0  0  0  0  0  0  0  0  0  0  0  0  # atno 7974 bound_to 7965
  155.1251  140.0399  157.2760 H   0  0  0  0  0  0  0  0  0  0  0  0  # atno 8008 bound_to 7997
  154.6584  140.2585  155.7110 H   0  0  0  0  0  0  0  0  0  0  0  0  # atno 8009 bound_to 7997
  156.2608  140.2822  156.1047 H   0  0  0  0  0  0  0  0  0  0  0  0  # atno 8010 bound_to 7997
  139.7516  143.8510  152.2587 H   0  0  0  0  0  0  0  0  0  0  0  0  # atno 10167 bound_to 10162
  157.6490  130.9567  150.0897 H   0  0  0  0  0  0  0  0  0  0  0  0  # atno 10718 bound_to 10713
  154.6038  135.2857  155.0507 H   0  0  0  0  0  0  0  0  0  0  0  0  # atno 10763 bound_to 10752
  154.1762  135.6464  153.5026 H   0  0  0  0  0  0  0  0  0  0  0  0  # atno 10764 bound_to 10752
  153.0167  135.5412  154.6766 H   0  0  0  0  0  0  0  0  0  0  0  0  # atno 10765 bound_to 10752
  140.5595  134.5347  157.5140 H   0  0  0  0  0  0  0  0  0  0  0  0  # atno 11005 bound_to 11000
  144.6996  139.8825  143.7448 LP  0  0  0  0  0  0  0  0  0  0  0  0  # atno 17320 bound_to 7965
  146.0879  139.3868  143.0424 LP  0  0  0  0  0  0  0  0  0  0  0  0  # atno 17321 bound_to 7965
  139.8490  144.7173  150.9237 LP  0  0  0  0  0  0  0  0  0  0  0  0  # atno 17342 bound_to 10162
  140.7798  143.3916  151.1300 LP  0  0  0  0  0  0  0  0  0  0  0  0  # atno 17343 bound_to 10162
  156.1850  130.3652  149.8985 LP  0  0  0  0  0  0  0  0  0  0  0  0  # atno 17370 bound_to 10713
  156.6928  130.8902  151.3590 LP  0  0  0  0  0  0  0  0  0  0  0  0  # atno 17371 bound_to 10713
  139.9415  134.7779  156.0668 LP  0  0  0  0  0  0  0  0  0  0  0  0  # atno 17394 bound_to 11000
  141.1123  133.6639  156.3008 LP  0  0  0  0  0  0  0  0  0  0  0  0  # atno 17395 bound_to 11000

$$$$
