AV-unprocessed.smi:2628|AV-procd|sdf|10243|dock5
  -GOLD-   2272014253D 1   1.00000     0.00000
 Structure written by MMmdl.
 38 38  0  0  0  0  0  0  0  0  1 V2000
  147.8863  141.1752  153.9486 C   0  0  0  0  0  0  0  0  0  0  0  0
  148.5437  140.6508  155.2297 C   0  0  0  0  0  0  0  0  0  0  0  0
  149.9608  141.2101  155.4362 C   0  0  0  0  0  0  0  0  0  0  0  0
  151.0607  140.4762  154.6416 C   0  0  0  0  0  0  0  0  0  0  0  0
  151.3017  139.1135  155.0837 N   0  0  0  0  0  0  0  0  0  0  0  0
  150.7312  137.9974  154.4651 C   0  0  0  0  0  0  0  0  0  0  0  0
  149.8916  138.2160  153.3821 N   0  0  0  0  0  0  0  0  0  0  0  0
  150.9655  136.7219  154.8930 C   0  0  0  0  0  0  0  0  0  0  0  0
  150.3701  135.6374  154.2467 N   0  0  0  0  0  0  0  0  0  0  0  0
  150.4575  134.2076  154.5035 C   0  0  0  0  0  0  0  0  0  0  0  0
  149.5112  133.4201  153.5909 C   0  0  0  0  0  0  0  0  0  0  0  0
  149.2510  132.1514  154.1691 O   0  0  0  0  0  0  0  0  0  0  0  0
  150.3658  131.2807  154.0908 C   0  0  0  0  0  0  0  0  0  0  0  0
  151.8445  136.4886  156.0523 C   0  0  0  0  0  0  0  0  0  0  0  0
  152.1395  135.4013  156.5459 O   0  0  0  0  0  0  0  0  0  0  0  0
  152.3748  137.6396  156.6297 N   0  0  0  0  0  0  0  0  0  0  0  0
  152.1444  138.9425  156.2076 C   0  0  0  0  0  0  0  0  0  0  0  0
  152.6657  139.8742  156.8215 O   0  0  0  0  0  0  0  0  0  0  0  0
  152.9765  137.5152  157.4308 H   0  0  0  0  0  0  0  0  0  0  0  0
  146.8848  140.7615  153.8296 H   0  0  0  0  0  0  0  0  0  0  0  0
  148.4665  140.9000  153.0675 H   0  0  0  0  0  0  0  0  0  0  0  0
  147.7980  142.2617  153.9669 H   0  0  0  0  0  0  0  0  0  0  0  0
  147.9200  140.9091  156.0862 H   0  0  0  0  0  0  0  0  0  0  0  0
  148.5764  139.5620  155.1863 H   0  0  0  0  0  0  0  0  0  0  0  0
  149.9695  142.2707  155.1830 H   0  0  0  0  0  0  0  0  0  0  0  0
  150.2100  141.1546  156.4963 H   0  0  0  0  0  0  0  0  0  0  0  0
  150.7926  140.4030  153.5874 H   0  0  0  0  0  0  0  0  0  0  0  0
  152.0012  141.0286  154.6495 H   0  0  0  0  0  0  0  0  0  0  0  0
  149.6919  139.1457  153.0429 H   0  0  0  0  0  0  0  0  0  0  0  0
  149.5174  137.4517  152.8384 H   0  0  0  0  0  0  0  0  0  0  0  0
  149.7824  135.8688  153.4593 H   0  0  0  0  0  0  0  0  0  0  0  0
  151.4798  133.8783  154.3164 H   0  0  0  0  0  0  0  0  0  0  0  0
  150.2323  134.0026  155.5507 H   0  0  0  0  0  0  0  0  0  0  0  0
  148.5834  133.9731  153.4348 H   0  0  0  0  0  0  0  0  0  0  0  0
  149.9777  133.2830  152.6142 H   0  0  0  0  0  0  0  0  0  0  0  0
  150.1143  130.3212  154.5427 H   0  0  0  0  0  0  0  0  0  0  0  0
  151.2239  131.6904  154.6252 H   0  0  0  0  0  0  0  0  0  0  0  0
  150.6523  131.0994  153.0540 H   0  0  0  0  0  0  0  0  0  0  0  0
  1  2  1  0  0  0  0
  1 20  1  0  0  0  0
  1 21  1  0  0  0  0
  1 22  1  0  0  0  0
  2  3  1  0  0  0  0
  2 23  1  0  0  0  0
  2 24  1  0  0  0  0
  3  4  1  0  0  0  0
  3 25  1  0  0  0  0
  3 26  1  0  0  0  0
  4  5  1  0  0  0  0
  4 27  1  0  0  0  0
  4 28  1  0  0  0  0
  5 17  1  0  0  0  0
  5  6  1  0  0  0  0
  6  7  1  0  0  0  0
  6  8  2  0  0  0  0
  7 29  1  0  0  0  0
  7 30  1  0  0  0  0
  8  9  1  0  0  0  0
  8 14  1  0  0  0  0
  9 10  1  0  0  0  0
  9 31  1  0  0  0  0
 10 11  1  0  0  0  0
 10 32  1  0  0  0  0
 10 33  1  0  0  0  0
 11 12  1  0  0  0  0
 11 34  1  0  0  0  0
 11 35  1  0  0  0  0
 12 13  1  0  0  0  0
 13 36  1  0  0  0  0
 13 37  1  0  0  0  0
 13 38  1  0  0  0  0
 14 15  2  0  0  0  0
 14 16  1  0  0  0  0
 16 19  1  0  0  0  0
 16 17  1  0  0  0  0
 17 18  2  0  0  0  0
M  END
> <s_m_source_file>
AV-unprocessed.smi

> <i_m_source_file_index>
2628

> <i_lp_mmshare_version>
43012

> <i_f3d_flags>
0

> <s_epik_input>
W0NIM11bQ0gyXVtDSDJdW0NIMl1uMWMoW05IMl0pYyhjKD1PKVtuSF1jMT1PKVtOSF1bQ0gyXVtDSDJdT1tDSDNd

> <s_epik_cmdline>
J2VwaWtfcHl0aG9uJywgJy1waCcsICc3LjAnLCAnLXRuJywgJzgnLCAnLW1hJywgJzIwMCcsICctbWV0YWxfYmluZGluZycsICctaW1hZScsICc8aW5maWxlLm1hZT4nLCAnLW9tYWUnLCAnPG91dGZpbGUubWFlPic=

> <r_lp_tautomer_probability>
1

> <r_epik_Ionization_Penalty>
1.09794e-05

> <r_epik_Ionization_Penalty_Charging>
2.75876e-06

> <r_epik_Ionization_Penalty_Neutral>
8.2206e-06

> <r_epik_State_Penalty>
-0

> <r_epik_Charging_Adjusted_Penalty>
2.75876e-06

> <i_epik_Tot_Q>
0

> <i_epik_Tot_abs_Q>
0

> <r_epik_Metal_State_Penalty>
-0

> <b_epik_Metal_Only>
0

> <s_epik_Chemistry_Notes>
This compound has an imine and may undergo hydrolysis.

> <s_lp_Force_Field>
OPLS_2005

> <r_lp_Energy>
18.1798

> <b_lp_Chiralities_Consistent>
1

> <s_lp_Variant>
AV-unprocessed.smi:2628-1

> <Gold.Version>
5.8.1

> <Gold.Id.Protein>
6NUR|6NUR_protein|mol2

> <Gold.PLP.Fitness>
37.8786

> <Gold.PLP.PLP>
-28.0760

> <Gold.PLP.part.hbond>
-4.9848

> <Gold.PLP.part.metal>
0.0000

> <Gold.PLP.part.buried>
1.5345

> <Gold.PLP.part.nonpolar>
-23.3457

> <Gold.PLP.part.repulsive>
0.2976

> <Gold.PLP.ligand.clash>
0.0000

> <Gold.PLP.ligand.torsion>
0.5979

> <Gold.PLP.Chemscore.Hbond>
3.6521

> <Gold.PLP.Chemscore.CHOScore>
0.0000

> <Gold.PLP.Chemscore.Metal>
0.0000

> <Gold.Chemscore.Hbonds>
donor molecule, donor type, donor heavy atom, donor atom, acceptor molecule, acceptor atom, score
      L1  H     7    29       P1  7957  0.60
      L1  H     7    30       P1  7948  1.00
      L1  H     9    31       P1  7948  0.70
      P1  H  7997  8009       L1    18  1.00
      P1  H 10752 10763       L1    15  0.25

> <Gold.PLP.Chemscore.Internal.Correction>
0.0422

> <Gold.Rescore>
     Score         DG    S(hbond)    S(metal)    S(lipo)     H(rot)  DE(clash)    DE(int)     intcor
     13.48     -17.11       3.46        0.00      52.15       2.35       1.92       1.71       ----

> <Gold.Chemscore.Fitness>
13.4833

> <Gold.Chemscore.DG>
-17.1142

> <Gold.Chemscore.ZeroCoef>
-5.4800

> <Gold.Chemscore.Hbond>
3.4565

> <Gold.Chemscore.Metal>
0.0000

> <Gold.Chemscore.Lipo>
52.1494

> <Gold.Chemscore.Internal_Hbond>
0.0000

> <Gold.Chemscore.DEClash>
1.9159

> <Gold.Chemscore.DEInternal>
1.7150

> <Gold.Chemscore.Rot>
2.3484

> <Gold.Chemscore.Internal.Correction>
   9.000000E+99

> <Gold.Chemscore.Hbonds>
donor molecule, donor type, donor heavy atom, donor atom, acceptor molecule, acceptor atom, score
      L1  H     7    29       P1  7957  0.58
      L1  H     7    30       P1  7948  0.74
      L1  H     9    31       P1  7948  0.07
      P1  H  7997  8009       L1    18  0.95

> <Gold.Chemscore.Hbond.Weighted>
-11.5447

> <Gold.Chemscore.Metal.Weighted>
-0.0000

> <Gold.Chemscore.Lipo.Weighted>
-6.1015

> <Gold.Chemscore.Internal_Hbond.Weighted>
0.0000

> <Gold.Chemscore.DEClash.Weighted>
1.9159

> <Gold.Chemscore.DEInternal.Weighted>
1.7150

> <Gold.Chemscore.Rot.Weighted>
6.0120

> <Gold.Chemscore.Internal.Correction.Weighted>
   9.000000E+99

> <Gold.Protein.RotatedTorsions>
[ 6907 6896 6895 6894 ] final   83.40 input  -60.11 | X-H torsion
[ 7974 7965 7964 7962 ] final   54.79 input  175.53 | X-H torsion
[ 8008 7997 7996 7995 ] final  177.79 input   59.86 | X-H torsion
[ 10167 10162 10161 10158 ] final   27.88 input  -65.29 | X-H torsion
[ 10718 10713 10712 10709 ] final  -29.33 input   66.30 | X-H torsion
[ 10763 10752 10751 10750 ] final  113.67 input  -60.55 | X-H torsion
[ 11005 11000 10999 10996 ] final  143.19 input  -57.11 | X-H torsion

> <Gold.Protein.ActiveResidues>
 VAL166  LYS551  ARG553  GLY616  TRP617  ASP618  TYR619  PRO620  LYS621  CYS622 
 ASP623  PHE694  ASN695  SER759  ASP760  ASP761  ALA762  ILE779  LEU786  VAL792 
 PHE793  MET794  SER795  GLU796  ALA797  LYS798  CYS799  TRP800  GLU811  SER814 

> <Gold.Protein.RotatedAtoms>
  152.5326  134.2901  159.9039 H   0  0  0  0  0  0  0  0  0  0  0  0  # atno 6907 bound_to 6896
  151.2853  133.4184  159.2637 H   0  0  0  0  0  0  0  0  0  0  0  0  # atno 6908 bound_to 6896
  151.0247  134.9511  159.8136 H   0  0  0  0  0  0  0  0  0  0  0  0  # atno 6909 bound_to 6896
  145.9572  139.4025  143.0270 H   0  0  0  0  0  0  0  0  0  0  0  0  # atno 7974 bound_to 7965
  156.0618  140.1349  156.9932 H   0  0  0  0  0  0  0  0  0  0  0  0  # atno 8008 bound_to 7997
  154.4486  140.0990  156.6599 H   0  0  0  0  0  0  0  0  0  0  0  0  # atno 8009 bound_to 7997
  155.5365  140.3460  155.4440 H   0  0  0  0  0  0  0  0  0  0  0  0  # atno 8010 bound_to 7997
  140.4901  144.0481  150.6294 H   0  0  0  0  0  0  0  0  0  0  0  0  # atno 10167 bound_to 10162
  156.4138  130.4413  149.7233 H   0  0  0  0  0  0  0  0  0  0  0  0  # atno 10718 bound_to 10713
  153.4960  135.3648  155.2516 H   0  0  0  0  0  0  0  0  0  0  0  0  # atno 10763 bound_to 10752
  154.8750  135.3988  154.3534 H   0  0  0  0  0  0  0  0  0  0  0  0  # atno 10764 bound_to 10752
  153.4161  135.7079  153.6391 H   0  0  0  0  0  0  0  0  0  0  0  0  # atno 10765 bound_to 10752
  140.0535  134.9243  157.1059 H   0  0  0  0  0  0  0  0  0  0  0  0  # atno 11005 bound_to 11000
  145.8090  140.9735  143.0958 LP  0  0  0  0  0  0  0  0  0  0  0  0  # atno 17320 bound_to 7965
  144.6807  139.9897  143.7484 LP  0  0  0  0  0  0  0  0  0  0  0  0  # atno 17321 bound_to 7965
  140.3747  143.2835  152.0238 LP  0  0  0  0  0  0  0  0  0  0  0  0  # atno 17342 bound_to 10162
  139.4849  144.6202  151.7269 LP  0  0  0  0  0  0  0  0  0  0  0  0  # atno 17343 bound_to 10162
  156.4201  130.7764  151.2781 LP  0  0  0  0  0  0  0  0  0  0  0  0  # atno 17370 bound_to 10713
  157.7507  131.0185  150.3630 LP  0  0  0  0  0  0  0  0  0  0  0  0  # atno 17371 bound_to 10713
  140.3880  134.2215  155.7167 LP  0  0  0  0  0  0  0  0  0  0  0  0  # atno 17394 bound_to 11000
  141.1941  133.8135  157.0770 LP  0  0  0  0  0  0  0  0  0  0  0  0  # atno 17395 bound_to 11000

$$$$
