AV-unprocessed.smi:528|AV-procd|sdf|2831|dock6
  -GOLD-   2262023323D 1   1.00000     0.00000
 Structure written by MMmdl.
 45 47  0  0  0  0  0  0  0  0  1 V2000
  147.3399  139.1148  156.8189 C   0  0  0  0  0  0  0  0  0  0  0  0
  148.1971  137.8518  156.9950 C   0  0  2  0  0  0  0  0  0  0  0  0
  148.3770  137.5985  158.4233 N   0  0  0  0  0  0  0  0  0  0  0  0
  148.9323  136.5037  158.9663 C   0  0  0  0  0  0  0  0  0  0  0  0
  149.3166  135.5386  158.3046 O   0  0  0  0  0  0  0  0  0  0  0  0
  149.0646  136.5083  160.4950 C   0  0  0  0  0  0  0  0  0  0  0  0
  148.0038  135.7325  161.1574 N   0  0  0  0  0  0  0  0  0  0  0  0
  147.9195  134.3671  160.8216 C   0  0  0  0  0  0  0  0  0  0  0  0
  146.9979  133.5375  161.3465 C   0  0  0  0  0  0  0  0  0  0  0  0
  146.8944  132.0838  160.9127 C   0  0  0  0  0  0  0  0  0  0  0  0
  145.8540  131.4819  161.4894 F   0  0  0  0  0  0  0  0  0  0  0  0
  146.7548  131.9863  159.5900 F   0  0  0  0  0  0  0  0  0  0  0  0
  148.0002  131.4276  161.2617 F   0  0  0  0  0  0  0  0  0  0  0  0
  146.0536  134.1281  162.2745 C   0  0  0  0  0  0  0  0  0  0  0  0
  146.1112  135.4356  162.5957 C   0  0  0  0  0  0  0  0  0  0  0  0
  147.1276  136.3226  162.0244 C   0  0  0  0  0  0  0  0  0  0  0  0
  147.1843  137.5195  162.3061 O   0  0  0  0  0  0  0  0  0  0  0  0
  149.5782  137.9823  156.3096 C   0  0  2  0  0  0  0  0  0  0  0  0
  150.3432  139.2879  156.6235 C   0  0  0  0  0  0  0  0  0  0  0  0
  150.7667  139.7864  155.2286 C   0  0  2  0  0  0  0  0  0  0  0  0
  149.5349  140.3569  154.5029 C   0  0  0  0  0  0  0  0  0  0  0  0
  148.7300  139.0908  154.1600 C   0  0  0  0  0  0  0  0  0  0  0  0
  149.5938  137.9613  154.7594 C   0  0  1  0  0  0  0  0  0  0  0  0
  150.9988  138.4821  154.4740 C   0  0  0  0  0  0  0  0  0  0  0  0
  147.1506  139.3231  155.7658 H   0  0  0  0  0  0  0  0  0  0  0  0
  147.8280  139.9904  157.2481 H   0  0  0  0  0  0  0  0  0  0  0  0
  146.3712  139.0013  157.3068 H   0  0  0  0  0  0  0  0  0  0  0  0
  147.6540  137.0277  156.5307 H   0  0  0  0  0  0  0  0  0  0  0  0
  148.0820  138.3332  159.0497 H   0  0  0  0  0  0  0  0  0  0  0  0
  150.0381  136.1022  160.7763 H   0  0  0  0  0  0  0  0  0  0  0  0
  149.0792  137.5437  160.8389 H   0  0  0  0  0  0  0  0  0  0  0  0
  148.6497  134.0397  160.0951 H   0  0  0  0  0  0  0  0  0  0  0  0
  145.2884  133.5119  162.7230 H   0  0  0  0  0  0  0  0  0  0  0  0
  145.3922  135.8415  163.2921 H   0  0  0  0  0  0  0  0  0  0  0  0
  150.1918  137.1443  156.6463 H   0  0  0  0  0  0  0  0  0  0  0  0
  149.7335  140.0264  157.1456 H   0  0  0  0  0  0  0  0  0  0  0  0
  151.2138  139.0794  157.2466 H   0  0  0  0  0  0  0  0  0  0  0  0
  151.6172  140.4684  155.2471 H   0  0  0  0  0  0  0  0  0  0  0  0
  148.9711  141.0521  155.1260 H   0  0  0  0  0  0  0  0  0  0  0  0
  149.8266  140.8833  153.5933 H   0  0  0  0  0  0  0  0  0  0  0  0
  147.7156  139.1191  154.5546 H   0  0  0  0  0  0  0  0  0  0  0  0
  148.6515  138.9750  153.0781 H   0  0  0  0  0  0  0  0  0  0  0  0
  149.3821  136.9801  154.3333 H   0  0  0  0  0  0  0  0  0  0  0  0
  151.2009  138.6269  153.4111 H   0  0  0  0  0  0  0  0  0  0  0  0
  151.7889  137.8661  154.9071 H   0  0  0  0  0  0  0  0  0  0  0  0
  1  2  1  0  0  0  0
  1 25  1  0  0  0  0
  1 26  1  0  0  0  0
  1 27  1  0  0  0  0
  2  3  1  0  0  0  0
  2 18  1  0  0  0  0
  2 28  1  0  0  0  0
  3  4  1  0  0  0  0
  3 29  1  0  0  0  0
  4  5  2  0  0  0  0
  4  6  1  0  0  0  0
  6  7  1  0  0  0  0
  6 30  1  0  0  0  0
  6 31  1  0  0  0  0
  7 16  1  0  0  0  0
  7  8  1  0  0  0  0
  8  9  2  0  0  0  0
  8 32  1  0  0  0  0
  9 10  1  0  0  0  0
  9 14  1  0  0  0  0
 10 11  1  0  0  0  0
 10 12  1  0  0  0  0
 10 13  1  0  0  0  0
 14 15  2  0  0  0  0
 14 33  1  0  0  0  0
 15 16  1  0  0  0  0
 15 34  1  0  0  0  0
 16 17  2  0  0  0  0
 18 23  1  0  0  0  0
 18 19  1  0  0  0  0
 18 35  1  0  0  0  0
 19 20  1  0  0  0  0
 19 36  1  0  0  0  0
 19 37  1  0  0  0  0
 20 24  1  0  0  0  0
 20 21  1  0  0  0  0
 20 38  1  0  0  0  0
 21 22  1  0  0  0  0
 21 39  1  0  0  0  0
 21 40  1  0  0  0  0
 22 23  1  0  0  0  0
 22 41  1  0  0  0  0
 22 42  1  0  0  0  0
 23 24  1  0  0  0  0
 23 43  1  0  0  0  0
 24 44  1  0  0  0  0
 24 45  1  0  0  0  0
M  END
> <s_m_source_file>
AV-unprocessed.smi

> <i_m_source_file_index>
528

> <i_lp_mmshare_version>
43012

> <i_f3d_flags>
0

> <s_epik_input>
W0NIMl0xW0NIMl1bQ0BASF0oW0NIMl0yKVtDQEBIXShbQ0gyXVtDQEhdMTIpW0NASF0oW0NIM10pW05IXUMoPU8pW0NIMl1uM1tjSF1jKEMoRikoRilGKVtjSF1bY0hdYzM9Tw==

> <s_epik_cmdline>
J2VwaWtfcHl0aG9uJywgJy1waCcsICc3LjAnLCAnLXRuJywgJzgnLCAnLW1hJywgJzIwMCcsICctbWV0YWxfYmluZGluZycsICctaW1hZScsICc8aW5maWxlLm1hZT4nLCAnLW9tYWUnLCAnPG91dGZpbGUubWFlPic=

> <r_lp_tautomer_probability>
1

> <r_epik_Ionization_Penalty>
4.09479e-08

> <r_epik_Ionization_Penalty_Charging>
1.9321e-08

> <r_epik_Ionization_Penalty_Neutral>
2.16269e-08

> <r_epik_State_Penalty>
-0

> <r_epik_Charging_Adjusted_Penalty>
1.9321e-08

> <i_epik_Tot_Q>
0

> <i_epik_Tot_abs_Q>
0

> <r_epik_Metal_State_Penalty>
-0

> <b_epik_Metal_Only>
0

> <s_lp_Force_Field>
OPLS_2005

> <r_lp_Energy>
62.8802

> <b_lp_Chiralities_Consistent>
1

> <s_lp_Variant>
AV-unprocessed.smi:528-1

> <Gold.Version>
5.8.1

> <Gold.Id.Protein>
6NUR|6NUR_protein|mol2

> <Gold.PLP.Fitness>
42.5835

> <Gold.PLP.PLP>
-37.2039

> <Gold.PLP.part.hbond>
-3.0000

> <Gold.PLP.part.metal>
0.0000

> <Gold.PLP.part.buried>
-1.0250

> <Gold.PLP.part.nonpolar>
-32.3093

> <Gold.PLP.part.repulsive>
0.1271

> <Gold.PLP.ligand.clash>
0.0000

> <Gold.PLP.ligand.torsion>
0.5029

> <Gold.PLP.Chemscore.Hbond>
2.1107

> <Gold.PLP.Chemscore.CHOScore>
0.0000

> <Gold.PLP.Chemscore.Metal>
0.0000

> <Gold.Chemscore.Hbonds>
donor molecule, donor type, donor heavy atom, donor atom, acceptor molecule, acceptor atom, score
      P1  H  6896  6909       L1     5  0.89
      P1  H  6931  6943       L1    17  0.64
      P1  H  6934  6947       L1    17  0.56

> <Gold.PLP.Chemscore.Internal.Correction>
0.0534

> <Gold.Rescore>
     Score         DG    S(hbond)    S(metal)    S(lipo)     H(rot)  DE(clash)    DE(int)     intcor
     14.60     -16.93       1.88        0.00      81.59       1.71       0.76       1.57       ----

> <Gold.Chemscore.Fitness>
14.5956

> <Gold.Chemscore.DG>
-16.9280

> <Gold.Chemscore.ZeroCoef>
-5.4800

> <Gold.Chemscore.Hbond>
1.8819

> <Gold.Chemscore.Metal>
0.0000

> <Gold.Chemscore.Lipo>
81.5942

> <Gold.Chemscore.Internal_Hbond>
0.0000

> <Gold.Chemscore.DEClash>
0.7615

> <Gold.Chemscore.DEInternal>
1.5709

> <Gold.Chemscore.Rot>
1.7125

> <Gold.Chemscore.Internal.Correction>
   9.000000E+99

> <Gold.Chemscore.Hbonds>
donor molecule, donor type, donor heavy atom, donor atom, acceptor molecule, acceptor atom, score
      P1  H  6896  6909       L1     5  0.47
      P1  H  6931  6943       L1    17  0.48
      P1  H  6934  6947       L1    17  0.53

> <Gold.Chemscore.Hbond.Weighted>
-6.2854

> <Gold.Chemscore.Metal.Weighted>
-0.0000

> <Gold.Chemscore.Lipo.Weighted>
-9.5465

> <Gold.Chemscore.Internal_Hbond.Weighted>
0.0000

> <Gold.Chemscore.DEClash.Weighted>
0.7615

> <Gold.Chemscore.DEInternal.Weighted>
1.5709

> <Gold.Chemscore.Rot.Weighted>
4.3840

> <Gold.Chemscore.Internal.Correction.Weighted>
   9.000000E+99

> <Gold.Protein.RotatedTorsions>
[ 6907 6896 6895 6894 ] final   44.71 input  -60.11 | X-H torsion
[ 7974 7965 7964 7962 ] final  -32.50 input  175.53 | X-H torsion
[ 8008 7997 7996 7995 ] final  -50.40 input   59.86 | X-H torsion
[ 10167 10162 10161 10158 ] final   11.57 input  -65.29 | X-H torsion
[ 10718 10713 10712 10709 ] final -145.03 input   66.30 | X-H torsion
[ 10763 10752 10751 10750 ] final  110.73 input  -60.55 | X-H torsion
[ 11005 11000 10999 10996 ] final -160.62 input  -57.11 | X-H torsion

> <Gold.Protein.ActiveResidues>
 VAL166  LYS551  ARG553  GLY616  TRP617  ASP618  TYR619  PRO620  LYS621  CYS622 
 ASP623  PHE694  ASN695  SER759  ASP760  ASP761  ALA762  ILE779  LEU786  VAL792 
 PHE793  MET794  SER795  GLU796  ALA797  LYS798  CYS799  TRP800  GLU811  SER814 

> <Gold.Protein.RotatedAtoms>
  152.2358  134.8277  160.0467 H   0  0  0  0  0  0  0  0  0  0  0  0  # atno 6907 bound_to 6896
  151.9010  133.3533  159.3839 H   0  0  0  0  0  0  0  0  0  0  0  0  # atno 6908 bound_to 6896
  150.7039  134.4754  159.5489 H   0  0  0  0  0  0  0  0  0  0  0  0  # atno 6909 bound_to 6896
  146.0985  140.5800  142.8832 H   0  0  0  0  0  0  0  0  0  0  0  0  # atno 7974 bound_to 7965
  154.4061  140.1273  156.4660 H   0  0  0  0  0  0  0  0  0  0  0  0  # atno 8008 bound_to 7997
  155.7226  140.3492  155.5003 H   0  0  0  0  0  0  0  0  0  0  0  0  # atno 8009 bound_to 7997
  155.9200  140.1051  157.1204 H   0  0  0  0  0  0  0  0  0  0  0  0  # atno 8010 bound_to 7997
  140.6123  143.8381  150.7079 H   0  0  0  0  0  0  0  0  0  0  0  0  # atno 10167 bound_to 10162
  156.3775  130.7820  151.2008 H   0  0  0  0  0  0  0  0  0  0  0  0  # atno 10718 bound_to 10713
  153.4531  135.3739  155.2295 H   0  0  0  0  0  0  0  0  0  0  0  0  # atno 10763 bound_to 10752
  154.8756  135.3890  154.4014 H   0  0  0  0  0  0  0  0  0  0  0  0  # atno 10764 bound_to 10752
  153.4576  135.7086  153.6134 H   0  0  0  0  0  0  0  0  0  0  0  0  # atno 10765 bound_to 10752
  140.6294  134.4667  157.5228 H   0  0  0  0  0  0  0  0  0  0  0  0  # atno 11005 bound_to 11000
  144.7414  140.4952  143.6866 LP  0  0  0  0  0  0  0  0  0  0  0  0  # atno 17320 bound_to 7965
  145.5901  139.1495  143.3187 LP  0  0  0  0  0  0  0  0  0  0  0  0  # atno 17321 bound_to 7965
  140.1952  143.4004  152.1833 LP  0  0  0  0  0  0  0  0  0  0  0  0  # atno 17342 bound_to 10162
  139.5371  144.7220  151.4856 LP  0  0  0  0  0  0  0  0  0  0  0  0  # atno 17343 bound_to 10162
  157.7489  131.0354  150.4361 LP  0  0  0  0  0  0  0  0  0  0  0  0  # atno 17370 bound_to 10713
  156.4599  130.4030  149.6582 LP  0  0  0  0  0  0  0  0  0  0  0  0  # atno 17371 bound_to 10713
  139.9122  134.8321  156.1489 LP  0  0  0  0  0  0  0  0  0  0  0  0  # atno 17394 bound_to 11000
  141.0686  133.6807  156.2094 LP  0  0  0  0  0  0  0  0  0  0  0  0  # atno 17395 bound_to 11000

$$$$
