AV-unprocessed.smi:1047|AV-procd|sdf|4596|dock6
  -GOLD-   22720 3 83D 1   1.00000     0.00000
 Structure written by MMmdl.
 57 59  0  0  0  0  0  0  0  0  3 V2000
  149.1296  131.6194  154.0326 C   0  0  0  0  0  0  0  0  0  0  0  0
  148.9454  132.6752  152.9332 C   0  0  0  0  0  0  0  0  0  0  0  0
  148.4443  133.9692  153.4605 N   0  3  1  0  0  0  0  0  0  0  0  0
  147.0010  133.9182  153.7927 C   0  0  0  0  0  0  0  0  0  0  0  0
  146.5143  135.2887  154.2897 C   0  0  0  0  0  0  0  0  0  0  0  0
  147.2941  135.6892  155.4086 O   0  0  0  0  0  0  0  0  0  0  0  0
  148.6707  135.8464  155.0791 C   0  0  1  0  0  0  0  0  0  0  0  0
  149.4023  136.3604  156.3277 C   0  0  0  0  0  0  0  0  0  0  0  0
  150.8339  136.4946  156.0800 N   0  0  0  0  0  0  0  0  0  0  0  0
  151.1476  137.3883  154.9673 C   0  0  0  0  0  0  0  0  0  0  0  0
  150.7110  138.8382  155.2442 C   0  0  2  0  0  0  0  0  0  0  0  0
  150.4392  139.4919  154.0202 O   0  0  0  0  0  0  0  0  0  0  0  0
  151.7084  139.6468  156.1002 C   0  0  0  0  0  0  0  0  0  0  0  0
  151.1405  140.9104  156.5876 N   0  0  0  0  0  0  0  0  0  0  0  0
  150.1856  141.7103  156.0395 C   0  0  0  0  0  0  0  0  0  0  0  0
  150.0058  142.7679  156.8785 N   0  3  0  0  0  0  0  0  0  0  0  0
  150.8605  142.6430  157.9761 C   0  0  0  0  0  0  0  0  0  0  0  0
  151.0439  143.4589  159.0862 C   0  0  0  0  0  0  0  0  0  0  0  0
  152.0058  143.0479  160.0367 C   0  0  0  0  0  0  0  0  0  0  0  0
  152.2335  143.9184  161.2609 C   0  0  0  0  0  0  0  0  0  0  0  0
  152.7457  141.8504  159.8564 C   0  0  0  0  0  0  0  0  0  0  0  0
  153.7773  141.4185  160.8847 C   0  0  0  0  0  0  0  0  0  0  0  0
  152.5441  141.0338  158.7206 C   0  0  0  0  0  0  0  0  0  0  0  0
  151.5932  141.4541  157.7940 C   0  0  0  0  0  0  0  0  0  0  0  0
  149.2210  134.4825  154.6166 C   0  0  0  0  0  0  0  0  0  0  0  0
  149.5895  130.7195  153.6239 H   0  0  0  0  0  0  0  0  0  0  0  0
  148.1809  131.3211  154.4780 H   0  0  0  0  0  0  0  0  0  0  0  0
  149.7771  131.9879  154.8290 H   0  0  0  0  0  0  0  0  0  0  0  0
  149.9156  132.8373  152.4613 H   0  0  0  0  0  0  0  0  0  0  0  0
  148.2799  132.3053  152.1518 H   0  0  0  0  0  0  0  0  0  0  0  0
  146.4261  133.6222  152.9144 H   0  0  0  0  0  0  0  0  0  0  0  0
  146.8291  133.1611  154.5598 H   0  0  0  0  0  0  0  0  0  0  0  0
  146.5756  136.0376  153.4983 H   0  0  0  0  0  0  0  0  0  0  0  0
  145.4684  135.2293  154.5916 H   0  0  0  0  0  0  0  0  0  0  0  0
  148.7792  136.5726  154.2708 H   0  0  0  0  0  0  0  0  0  0  0  0
  148.9760  137.3153  156.6383 H   0  0  0  0  0  0  0  0  0  0  0  0
  149.2455  135.6648  157.1529 H   0  0  0  0  0  0  0  0  0  0  0  0
  151.2343  135.5795  155.8963 H   0  0  0  0  0  0  0  0  0  0  0  0
  152.2184  137.3671  154.7594 H   0  0  0  0  0  0  0  0  0  0  0  0
  150.6525  137.0322  154.0632 H   0  0  0  0  0  0  0  0  0  0  0  0
  149.7610  138.7906  155.7773 H   0  0  0  0  0  0  0  0  0  0  0  0
  149.5996  139.1963  153.7034 H   0  0  0  0  0  0  0  0  0  0  0  0
  152.0479  139.0656  156.9584 H   0  0  0  0  0  0  0  0  0  0  0  0
  152.5996  139.8963  155.5230 H   0  0  0  0  0  0  0  0  0  0  0  0
  149.6628  141.5359  155.1100 H   0  0  0  0  0  0  0  0  0  0  0  0
  150.4763  144.3687  159.2172 H   0  0  0  0  0  0  0  0  0  0  0  0
  153.2736  144.2407  161.3141 H   0  0  0  0  0  0  0  0  0  0  0  0
  151.9934  143.3691  162.1714 H   0  0  0  0  0  0  0  0  0  0  0  0
  151.6095  144.8124  161.2367 H   0  0  0  0  0  0  0  0  0  0  0  0
  154.2326  140.4646  160.6173 H   0  0  0  0  0  0  0  0  0  0  0  0
  153.3172  141.3036  161.8663 H   0  0  0  0  0  0  0  0  0  0  0  0
  154.5740  142.1588  160.9595 H   0  0  0  0  0  0  0  0  0  0  0  0
  153.1068  140.1224  158.5819 H   0  0  0  0  0  0  0  0  0  0  0  0
  149.1759  133.7620  155.4350 H   0  0  0  0  0  0  0  0  0  0  0  0
  150.2706  134.5926  154.3458 H   0  0  0  0  0  0  0  0  0  0  0  0
  148.5408  134.6441  152.7150 H   0  0  0  0  0  0  0  0  0  0  0  0
  149.3483  143.5188  156.7107 H   0  0  0  0  0  0  0  0  0  0  0  0
  1  2  1  0  0  0  0
  1 26  1  0  0  0  0
  1 27  1  0  0  0  0
  1 28  1  0  0  0  0
  2  3  1  0  0  0  0
  2 29  1  0  0  0  0
  2 30  1  0  0  0  0
  3 25  1  0  0  0  0
  3  4  1  0  0  0  0
  3 56  1  0  0  0  0
  4  5  1  0  0  0  0
  4 31  1  0  0  0  0
  4 32  1  0  0  0  0
  5  6  1  0  0  0  0
  5 33  1  0  0  0  0
  5 34  1  0  0  0  0
  6  7  1  0  0  0  0
  7  8  1  0  0  0  0
  7 25  1  0  0  0  0
  7 35  1  0  0  0  0
  8  9  1  0  0  0  0
  8 36  1  0  0  0  0
  8 37  1  0  0  0  0
  9 10  1  0  0  0  0
  9 38  1  0  0  0  0
 10 11  1  0  0  0  0
 10 39  1  0  0  0  0
 10 40  1  0  0  0  0
 11 12  1  0  0  0  0
 11 13  1  0  0  0  0
 11 41  1  0  0  0  0
 12 42  1  0  0  0  0
 13 14  1  0  0  0  0
 13 43  1  0  0  0  0
 13 44  1  0  0  0  0
 14 24  1  0  0  0  0
 14 15  1  0  0  0  0
 15 16  2  0  0  0  0
 15 45  1  0  0  0  0
 16 17  1  0  0  0  0
 16 57  1  0  0  0  0
 17 24  2  0  0  0  0
 17 18  1  0  0  0  0
 18 19  2  0  0  0  0
 18 46  1  0  0  0  0
 19 20  1  0  0  0  0
 19 21  1  0  0  0  0
 20 47  1  0  0  0  0
 20 48  1  0  0  0  0
 20 49  1  0  0  0  0
 21 22  1  0  0  0  0
 21 23  2  0  0  0  0
 22 50  1  0  0  0  0
 22 51  1  0  0  0  0
 22 52  1  0  0  0  0
 23 24  1  0  0  0  0
 23 53  1  0  0  0  0
 25 54  1  0  0  0  0
 25 55  1  0  0  0  0
M  CHG  1   3   1
M  CHG  1  16   1
M  END
> <s_m_source_file>
AV-unprocessed.smi

> <i_m_source_file_index>
1047

> <i_lp_mmshare_version>
43012

> <i_f3d_flags>
0

> <s_epik_input>
W0NIM11bQ0gyXU4xW0NIMl1bQ0gyXU9bQ0BIXShbQ0gyXTEpW0NIMl1bTkhdW0NIMl1bQ0BIXShbT0hdKVtDSDJdbihbY0hdbjIpYyhjMjMpW2NIXWMoW0NIM10pYyhbY0hdMylbQ0gzXQ==

> <s_epik_cmdline>
J2VwaWtfcHl0aG9uJywgJy1waCcsICc3LjAnLCAnLXRuJywgJzgnLCAnLW1hJywgJzIwMCcsICctbWV0YWxfYmluZGluZycsICctaW1hZScsICc8aW5maWxlLm1hZT4nLCAnLW9tYWUnLCAnPG91dGZpbGUubWFlPic=

> <r_epik_Ionization_Penalty>
2.03028

> <r_epik_Ionization_Penalty_Charging>
1.21256

> <r_epik_Ionization_Penalty_Neutral>
0.817715

> <r_epik_State_Penalty>
2.54959

> <r_epik_Charging_Adjusted_Penalty>
3.76215

> <i_epik_Tot_Q>
2

> <i_epik_Tot_abs_Q>
2

> <r_epik_Metal_State_Penalty>
6.52811

> <b_epik_Metal_Only>
0

> <s_lp_Force_Field>
OPLS_2005

> <r_lp_Energy>
37.5009

> <b_lp_Chiralities_Consistent>
1

> <s_lp_Variant>
AV-unprocessed.smi:1047-37

> <Gold.Version>
5.8.1

> <Gold.Id.Protein>
6NUR|6NUR_protein|mol2

> <Gold.PLP.Fitness>
60.6037

> <Gold.PLP.PLP>
-47.0647

> <Gold.PLP.part.hbond>
-3.8194

> <Gold.PLP.part.metal>
0.0000

> <Gold.PLP.part.buried>
-5.4624

> <Gold.PLP.part.nonpolar>
-39.2461

> <Gold.PLP.part.repulsive>
0.0911

> <Gold.PLP.ligand.clash>
0.0000

> <Gold.PLP.ligand.torsion>
0.7888

> <Gold.PLP.Chemscore.Hbond>
5.0000

> <Gold.PLP.Chemscore.CHOScore>
0.0000

> <Gold.PLP.Chemscore.Metal>
0.0000

> <Gold.Chemscore.Hbonds>
donor molecule, donor type, donor heavy atom, donor atom, acceptor molecule, acceptor atom, score
      L1  H     3    56       P1  7948  1.80
      L1  H    16    57       P1  8028  1.86
      P1  H  7989  7998       L1    12  1.00

> <Gold.PLP.Chemscore.Internal.Correction>
0.1166

> <Gold.Rescore>
     Score         DG    S(hbond)    S(metal)    S(lipo)     H(rot)  DE(clash)    DE(int)     intcor
     20.46     -22.06       2.90        0.00     118.22       2.71       0.00       1.60       ----

> <Gold.Chemscore.Fitness>
20.4619

> <Gold.Chemscore.DG>
-22.0575

> <Gold.Chemscore.ZeroCoef>
-5.4800

> <Gold.Chemscore.Hbond>
2.8985

> <Gold.Chemscore.Metal>
0.0000

> <Gold.Chemscore.Lipo>
118.2160

> <Gold.Chemscore.Internal_Hbond>
0.0000

> <Gold.Chemscore.DEClash>
0.0004

> <Gold.Chemscore.DEInternal>
1.5952

> <Gold.Chemscore.Rot>
2.7088

> <Gold.Chemscore.Internal.Correction>
   9.000000E+99

> <Gold.Chemscore.Hbonds>
donor molecule, donor type, donor heavy atom, donor atom, acceptor molecule, acceptor atom, score
      L1  H     3    56       P1  7948  0.18
      L1  H    16    57       P1  8028  0.87
      P1  H  7989  7998       L1    12  0.94

> <Gold.Chemscore.Hbond.Weighted>
-9.6809

> <Gold.Chemscore.Metal.Weighted>
-0.0000

> <Gold.Chemscore.Lipo.Weighted>
-13.8313

> <Gold.Chemscore.Internal_Hbond.Weighted>
0.0000

> <Gold.Chemscore.DEClash.Weighted>
0.0004

> <Gold.Chemscore.DEInternal.Weighted>
1.5952

> <Gold.Chemscore.Rot.Weighted>
6.9346

> <Gold.Chemscore.Internal.Correction.Weighted>
   9.000000E+99

> <Gold.Protein.RotatedTorsions>
[ 6907 6896 6895 6894 ] final   44.20 input  -60.11 | X-H torsion
[ 7974 7965 7964 7962 ] final -161.24 input  175.53 | X-H torsion
[ 8008 7997 7996 7995 ] final   54.76 input   59.86 | X-H torsion
[ 10167 10162 10161 10158 ] final  147.27 input  -65.29 | X-H torsion
[ 10718 10713 10712 10709 ] final   32.34 input   66.30 | X-H torsion
[ 10763 10752 10751 10750 ] final  172.13 input  -60.55 | X-H torsion
[ 11005 11000 10999 10996 ] final  -58.34 input  -57.11 | X-H torsion

> <Gold.Protein.ActiveResidues>
 VAL166  LYS551  ARG553  GLY616  TRP617  ASP618  TYR619  PRO620  LYS621  CYS622 
 ASP623  PHE694  ASN695  SER759  ASP760  ASP761  ALA762  ILE779  LEU786  VAL792 
 PHE793  MET794  SER795  GLU796  ALA797  LYS798  CYS799  TRP800  GLU811  SER814 

> <Gold.Protein.RotatedAtoms>
  152.2296  134.8334  160.0475 H   0  0  0  0  0  0  0  0  0  0  0  0  # atno 6907 bound_to 6896
  151.9088  133.3551  159.3864 H   0  0  0  0  0  0  0  0  0  0  0  0  # atno 6908 bound_to 6896
  150.7022  134.4679  159.5455 H   0  0  0  0  0  0  0  0  0  0  0  0  # atno 6909 bound_to 6896
  144.7398  140.3425  143.6132 H   0  0  0  0  0  0  0  0  0  0  0  0  # atno 7974 bound_to 7965
  155.4900  140.3471  155.4353 H   0  0  0  0  0  0  0  0  0  0  0  0  # atno 8008 bound_to 7997
  156.0983  140.1428  156.9530 H   0  0  0  0  0  0  0  0  0  0  0  0  # atno 8009 bound_to 7997
  154.4677  140.0911  156.7042 H   0  0  0  0  0  0  0  0  0  0  0  0  # atno 8010 bound_to 7997
  139.4893  144.5767  151.6950 H   0  0  0  0  0  0  0  0  0  0  0  0  # atno 10167 bound_to 10162
  157.2840  130.7269  149.6572 H   0  0  0  0  0  0  0  0  0  0  0  0  # atno 10718 bound_to 10713
  154.4217  135.2758  155.1971 H   0  0  0  0  0  0  0  0  0  0  0  0  # atno 10763 bound_to 10752
  154.3913  135.6065  153.5848 H   0  0  0  0  0  0  0  0  0  0  0  0  # atno 10764 bound_to 10752
  152.9833  135.5904  154.4515 H   0  0  0  0  0  0  0  0  0  0  0  0  # atno 10765 bound_to 10752
  141.1203  133.6612  156.4905 H   0  0  0  0  0  0  0  0  0  0  0  0  # atno 11005 bound_to 11000
  145.7359  139.1750  143.2403 LP  0  0  0  0  0  0  0  0  0  0  0  0  # atno 17320 bound_to 7965
  146.1171  140.7356  142.9475 LP  0  0  0  0  0  0  0  0  0  0  0  0  # atno 17321 bound_to 7965
  140.5365  144.0647  150.6072 LP  0  0  0  0  0  0  0  0  0  0  0  0  # atno 17342 bound_to 10162
  140.3655  143.2884  152.0337 LP  0  0  0  0  0  0  0  0  0  0  0  0  # atno 17343 bound_to 10162
  155.9665  130.4329  150.4985 LP  0  0  0  0  0  0  0  0  0  0  0  0  # atno 17370 bound_to 10713
  157.2934  131.0631  151.2118 LP  0  0  0  0  0  0  0  0  0  0  0  0  # atno 17371 bound_to 10713
  140.4527  134.6914  157.5047 LP  0  0  0  0  0  0  0  0  0  0  0  0  # atno 17394 bound_to 11000
  140.0155  134.6626  155.9316 LP  0  0  0  0  0  0  0  0  0  0  0  0  # atno 17395 bound_to 11000

$$$$
