AV-unprocessed.smi:2883|AV-procd|sdf|11081|dock9
  -GOLD-   2272015553D 1   1.00000     0.00000
 Structure written by MMmdl.
 39 41  0  0  0  0  0  0  0  0  1 V2000
  147.3021  139.2764  153.2968 C   0  0  0  0  0  0  0  0  0  0  0  0
  147.3873  140.4783  154.2551 C   0  0  0  0  0  0  0  0  0  0  0  0
  147.1619  141.7895  153.4654 C   0  0  0  0  0  0  0  0  0  0  0  0
  146.2388  140.3978  155.2882 C   0  0  0  0  0  0  0  0  0  0  0  0
  148.7600  140.4835  154.9492 C   0  0  0  0  0  0  0  0  0  0  0  0
  149.5999  139.4813  154.6579 N   0  0  0  0  0  0  0  0  0  0  0  0
  150.8500  139.5486  155.1627 C   0  0  0  0  0  0  0  0  0  0  0  0
  151.2784  140.6421  155.9400 C   0  0  0  0  0  0  0  0  0  0  0  0
  150.3343  141.6650  156.1570 C   0  0  0  0  0  0  0  0  0  0  0  0
  150.6970  142.7891  156.9114 N   0  0  0  0  0  0  0  0  0  0  0  0
  151.8449  142.7466  157.8126 C   0  0  2  0  0  0  0  0  0  0  0  0
  151.5390  142.0530  159.1422 C   0  0  0  0  0  0  0  0  0  0  0  0
  151.9867  143.1115  160.1601 C   0  0  2  0  0  0  0  0  0  0  0  0
  150.9847  144.2699  160.2451 C   0  0  0  0  0  0  0  0  0  0  0  0
  151.2368  144.9950  158.9246 C   0  0  0  0  0  0  0  0  0  0  0  0
  152.3375  144.1280  158.2897 C   0  0  1  0  0  0  0  0  0  0  0  0
  153.0454  143.7376  159.4544 O   0  0  0  0  0  0  0  0  0  0  0  0
  149.0865  141.5828  155.6409 N   0  0  0  0  0  0  0  0  0  0  0  0
  146.3392  139.2417  152.7863 H   0  0  0  0  0  0  0  0  0  0  0  0
  147.4252  138.3343  153.8319 H   0  0  0  0  0  0  0  0  0  0  0  0
  148.0784  139.3240  152.5323 H   0  0  0  0  0  0  0  0  0  0  0  0
  147.8834  141.9093  152.6561 H   0  0  0  0  0  0  0  0  0  0  0  0
  147.2452  142.6631  154.1133 H   0  0  0  0  0  0  0  0  0  0  0  0
  146.1717  141.8135  153.0091 H   0  0  0  0  0  0  0  0  0  0  0  0
  145.2640  140.4403  154.8013 H   0  0  0  0  0  0  0  0  0  0  0  0
  146.2854  141.2229  156.0000 H   0  0  0  0  0  0  0  0  0  0  0  0
  146.2650  139.4678  155.8573 H   0  0  0  0  0  0  0  0  0  0  0  0
  151.5153  138.7277  154.9397 H   0  0  0  0  0  0  0  0  0  0  0  0
  152.2803  140.6913  156.3403 H   0  0  0  0  0  0  0  0  0  0  0  0
  150.3072  143.6890  156.6724 H   0  0  0  0  0  0  0  0  0  0  0  0
  152.6652  142.2163  157.3264 H   0  0  0  0  0  0  0  0  0  0  0  0
  150.4891  141.7847  159.2683 H   0  0  0  0  0  0  0  0  0  0  0  0
  152.1334  141.1440  159.2387 H   0  0  0  0  0  0  0  0  0  0  0  0
  152.2713  142.7016  161.1295 H   0  0  0  0  0  0  0  0  0  0  0  0
  149.9561  143.9233  160.3492 H   0  0  0  0  0  0  0  0  0  0  0  0
  151.2137  144.9213  161.0891 H   0  0  0  0  0  0  0  0  0  0  0  0
  150.3437  145.0757  158.3045 H   0  0  0  0  0  0  0  0  0  0  0  0
  151.6061  146.0038  159.1121 H   0  0  0  0  0  0  0  0  0  0  0  0
  152.9480  144.6585  157.5584 H   0  0  0  0  0  0  0  0  0  0  0  0
  1  2  1  0  0  0  0
  1 19  1  0  0  0  0
  1 20  1  0  0  0  0
  1 21  1  0  0  0  0
  2  3  1  0  0  0  0
  2  4  1  0  0  0  0
  2  5  1  0  0  0  0
  3 22  1  0  0  0  0
  3 23  1  0  0  0  0
  3 24  1  0  0  0  0
  4 25  1  0  0  0  0
  4 26  1  0  0  0  0
  4 27  1  0  0  0  0
  5 18  1  0  0  0  0
  5  6  2  0  0  0  0
  6  7  1  0  0  0  0
  7  8  2  0  0  0  0
  7 28  1  0  0  0  0
  8  9  1  0  0  0  0
  8 29  1  0  0  0  0
  9 10  1  0  0  0  0
  9 18  2  0  0  0  0
 10 11  1  0  0  0  0
 10 30  1  0  0  0  0
 11 16  1  0  0  0  0
 11 12  1  0  0  0  0
 11 31  1  0  0  0  0
 12 13  1  0  0  0  0
 12 32  1  0  0  0  0
 12 33  1  0  0  0  0
 13 17  1  0  0  0  0
 13 14  1  0  0  0  0
 13 34  1  0  0  0  0
 14 15  1  0  0  0  0
 14 35  1  0  0  0  0
 14 36  1  0  0  0  0
 15 16  1  0  0  0  0
 15 37  1  0  0  0  0
 15 38  1  0  0  0  0
 16 17  1  0  0  0  0
 16 39  1  0  0  0  0
M  END
> <s_m_source_file>
AV-unprocessed.smi

> <i_m_source_file_index>
2883

> <i_lp_mmshare_version>
43012

> <i_f3d_flags>
0

> <s_epik_input>
W0NIM11DKFtDSDNdKShbQ0gzXSljMW5bY0hdW2NIXWMobjEpW05IXVtDQEhdKFtDSDJdW0NAQEhdMjMpW0NAQEhdKE8zKVtDSDJdW0NIMl0y

> <s_epik_cmdline>
J2VwaWtfcHl0aG9uJywgJy1waCcsICc3LjAnLCAnLXRuJywgJzgnLCAnLW1hJywgJzIwMCcsICctbWV0YWxfYmluZGluZycsICctaW1hZScsICc8aW5maWxlLm1hZT4nLCAnLW9tYWUnLCAnPG91dGZpbGUubWFlPic=

> <r_lp_tautomer_probability>
1

> <r_epik_Ionization_Penalty>
0.453006

> <r_epik_Ionization_Penalty_Charging>
0

> <r_epik_Ionization_Penalty_Neutral>
0.453006

> <r_epik_State_Penalty>
0.455155

> <r_epik_Charging_Adjusted_Penalty>
0.455155

> <i_epik_Tot_Q>
0

> <i_epik_Tot_abs_Q>
0

> <r_epik_Metal_State_Penalty>
0.255592

> <b_epik_Metal_Only>
0

> <s_lp_Force_Field>
OPLS_2005

> <r_lp_Energy>
33.5757

> <b_lp_Chiralities_Consistent>
1

> <s_lp_Variant>
AV-unprocessed.smi:2883-7

> <Gold.Version>
5.8.1

> <Gold.Id.Protein>
6NUR|6NUR_protein|mol2

> <Gold.PLP.Fitness>
38.9157

> <Gold.PLP.PLP>
-36.8574

> <Gold.PLP.part.hbond>
-1.0000

> <Gold.PLP.part.metal>
0.0000

> <Gold.PLP.part.buried>
-5.7861

> <Gold.PLP.part.nonpolar>
-30.0981

> <Gold.PLP.part.repulsive>
0.3735

> <Gold.PLP.ligand.clash>
0.0000

> <Gold.PLP.ligand.torsion>
0.4829

> <Gold.PLP.Chemscore.Hbond>
0.9600

> <Gold.PLP.Chemscore.CHOScore>
0.0000

> <Gold.PLP.Chemscore.Metal>
0.0000

> <Gold.Chemscore.Hbonds>
donor molecule, donor type, donor heavy atom, donor atom, acceptor molecule, acceptor atom, score
      L1  H    10    30       P1  8028  0.98

> <Gold.PLP.Chemscore.Internal.Correction>
0.1441

> <Gold.Rescore>
     Score         DG    S(hbond)    S(metal)    S(lipo)     H(rot)  DE(clash)    DE(int)     intcor
     16.93     -17.42       0.98        0.00      99.16       1.15       0.15       0.33       ----

> <Gold.Chemscore.Fitness>
16.9344

> <Gold.Chemscore.DG>
-17.4158

> <Gold.Chemscore.ZeroCoef>
-5.4800

> <Gold.Chemscore.Hbond>
0.9802

> <Gold.Chemscore.Metal>
0.0000

> <Gold.Chemscore.Lipo>
99.1553

> <Gold.Chemscore.Internal_Hbond>
0.0000

> <Gold.Chemscore.DEClash>
0.1540

> <Gold.Chemscore.DEInternal>
0.3273

> <Gold.Chemscore.Rot>
1.1482

> <Gold.Chemscore.Internal.Correction>
   9.000000E+99

> <Gold.Chemscore.Hbonds>
donor molecule, donor type, donor heavy atom, donor atom, acceptor molecule, acceptor atom, score
      L1  H    10    30       P1  8028  0.88

> <Gold.Chemscore.Hbond.Weighted>
-3.2739

> <Gold.Chemscore.Metal.Weighted>
-0.0000

> <Gold.Chemscore.Lipo.Weighted>
-11.6012

> <Gold.Chemscore.Internal_Hbond.Weighted>
0.0000

> <Gold.Chemscore.DEClash.Weighted>
0.1540

> <Gold.Chemscore.DEInternal.Weighted>
0.3273

> <Gold.Chemscore.Rot.Weighted>
2.9393

> <Gold.Chemscore.Internal.Correction.Weighted>
   9.000000E+99

> <Gold.Protein.RotatedTorsions>
[ 6907 6896 6895 6894 ] final  160.80 input  -60.11 | X-H torsion
[ 7974 7965 7964 7962 ] final -114.82 input  175.53 | X-H torsion
[ 8008 7997 7996 7995 ] final    7.05 input   59.86 | X-H torsion
[ 10167 10162 10161 10158 ] final  -25.80 input  -65.29 | X-H torsion
[ 10718 10713 10712 10709 ] final  143.26 input   66.30 | X-H torsion
[ 10763 10752 10751 10750 ] final -164.63 input  -60.55 | X-H torsion
[ 11005 11000 10999 10996 ] final   43.39 input  -57.11 | X-H torsion

> <Gold.Protein.ActiveResidues>
 VAL166  LYS551  ARG553  GLY616  TRP617  ASP618  TYR619  PRO620  LYS621  CYS622 
 ASP623  PHE694  ASN695  SER759  ASP760  ASP761  ALA762  ILE779  LEU786  VAL792 
 PHE793  MET794  SER795  GLU796  ALA797  LYS798  CYS799  TRP800  GLU811  SER814 

> <Gold.Protein.RotatedAtoms>
  151.9651  133.3708  159.4049 H   0  0  0  0  0  0  0  0  0  0  0  0  # atno 6907 bound_to 6896
  150.6958  134.4199  159.5209 H   0  0  0  0  0  0  0  0  0  0  0  0  # atno 6908 bound_to 6896
  152.1894  134.8685  160.0570 H   0  0  0  0  0  0  0  0  0  0  0  0  # atno 6909 bound_to 6896
  145.1157  140.8638  143.3844 H   0  0  0  0  0  0  0  0  0  0  0  0  # atno 7974 bound_to 7965
  154.7489  140.2763  155.6309 H   0  0  0  0  0  0  0  0  0  0  0  0  # atno 8008 bound_to 7997
  156.2891  140.2682  156.2164 H   0  0  0  0  0  0  0  0  0  0  0  0  # atno 8009 bound_to 7997
  155.0162  140.0372  157.2409 H   0  0  0  0  0  0  0  0  0  0  0  0  # atno 8010 bound_to 7997
  140.7285  143.4233  151.0916 H   0  0  0  0  0  0  0  0  0  0  0  0  # atno 10167 bound_to 10162
  157.3710  131.0979  151.0828 H   0  0  0  0  0  0  0  0  0  0  0  0  # atno 10718 bound_to 10713
  154.7010  135.2988  154.9341 H   0  0  0  0  0  0  0  0  0  0  0  0  # atno 10763 bound_to 10752
  154.0273  135.6674  153.4781 H   0  0  0  0  0  0  0  0  0  0  0  0  # atno 10764 bound_to 10752
  153.0681  135.5076  154.8154 H   0  0  0  0  0  0  0  0  0  0  0  0  # atno 10765 bound_to 10752
  140.1649  134.4294  155.8293 H   0  0  0  0  0  0  0  0  0  0  0  0  # atno 11005 bound_to 11000
  145.0797  139.2969  143.5790 LP  0  0  0  0  0  0  0  0  0  0  0  0  # atno 17320 bound_to 7965
  146.3524  140.0299  142.8651 LP  0  0  0  0  0  0  0  0  0  0  0  0  # atno 17321 bound_to 7965
  139.7882  143.8257  152.3148 LP  0  0  0  0  0  0  0  0  0  0  0  0  # atno 17342 bound_to 10162
  139.8232  144.7287  150.9546 LP  0  0  0  0  0  0  0  0  0  0  0  0  # atno 17343 bound_to 10162
  157.1932  130.6361  149.5712 LP  0  0  0  0  0  0  0  0  0  0  0  0  # atno 17370 bound_to 10713
  155.9755  130.4715  150.6467 LP  0  0  0  0  0  0  0  0  0  0  0  0  # atno 17371 bound_to 10713
  141.2213  133.6930  156.7661 LP  0  0  0  0  0  0  0  0  0  0  0  0  # atno 17394 bound_to 11000
  140.2445  134.8588  157.3606 LP  0  0  0  0  0  0  0  0  0  0  0  0  # atno 17395 bound_to 11000

$$$$
