AV-unprocessed.smi:215|AV-procd|sdf|1656|dock7
  -GOLD-   2262020 43D 1   1.00000     0.00000
 Structure written by MMmdl.
 59 62  0  0  0  0  0  0  0  0  2 V2000
  147.8809  137.0441  155.8301 C   0  0  0  0  0  0  0  0  0  0  0  0
  149.0234  136.1826  155.2671 C   0  0  2  0  0  0  0  0  0  0  0  0
  148.6069  134.7451  154.9339 C   0  0  1  0  0  0  0  0  0  0  0  0
  147.7254  134.5845  153.7393 N   0  3  1  0  0  0  0  0  0  0  0  0
  147.8460  133.2876  153.0228 C   0  0  0  0  0  0  0  0  0  0  0  0
  146.3135  134.9505  154.0278 C   0  0  0  0  0  0  0  0  0  0  0  0
  145.7394  134.1813  155.2296 C   0  0  0  0  0  0  0  0  0  0  0  0
  145.3191  132.8961  154.8233 O   0  0  0  0  0  0  0  0  0  0  0  0
  149.9588  134.0294  154.8672 C   0  0  0  0  0  0  0  0  0  0  0  0
  150.7727  134.7321  155.9608 C   0  0  0  0  0  0  0  0  0  0  0  0
  150.1207  136.0177  156.2163 N   0  0  0  0  0  0  0  0  0  0  0  0
  150.9374  137.0904  156.3261 C   0  0  0  0  0  0  0  0  0  0  0  0
  152.1864  137.0553  155.7912 N   0  0  0  0  0  0  0  0  0  0  0  0
  152.9815  138.1251  155.8872 C   0  0  0  0  0  0  0  0  0  0  0  0
  152.7273  139.3052  156.4567 N   0  0  0  0  0  0  0  0  0  0  0  0
  151.4710  139.3448  156.9884 C   0  0  0  0  0  0  0  0  0  0  0  0
  150.5200  138.2868  156.9653 C   0  0  0  0  0  0  0  0  0  0  0  0
  149.3484  138.6812  157.5970 N   0  0  0  0  0  0  0  0  0  0  0  0
  149.5924  139.9065  157.9750 C   0  0  0  0  0  0  0  0  0  0  0  0
  150.8422  140.3878  157.6509 N   0  0  0  0  0  0  0  0  0  0  0  0
  151.3548  141.6962  157.9499 C   0  0  0  0  0  0  0  0  0  0  0  0
  152.6283  141.8859  158.7790 C   0  0  0  0  0  0  0  0  0  0  0  0
  152.0375  143.1900  159.3651 C   0  0  0  0  0  0  0  0  0  0  0  0
  152.2825  143.4411  160.8664 C   0  0  0  0  0  0  0  0  0  0  0  0
  151.2007  144.1031  161.4910 O   0  0  0  0  0  0  0  0  0  0  0  0
  152.4672  144.4641  158.6136 C   0  0  0  0  0  0  0  0  0  0  0  0
  151.7949  145.6085  159.0996 O   0  0  0  0  0  0  0  0  0  0  0  0
  150.6598  142.6143  158.9588 C   0  0  0  0  0  0  0  0  0  0  0  0
  149.4274  136.6729  154.3820 H   0  0  0  0  0  0  0  0  0  0  0  0
  148.0650  134.3604  155.8006 H   0  0  0  0  0  0  0  0  0  0  0  0
  147.0602  137.1193  155.1165 H   0  0  0  0  0  0  0  0  0  0  0  0
  148.2178  138.0581  156.0469 H   0  0  0  0  0  0  0  0  0  0  0  0
  147.4830  136.6212  156.7533 H   0  0  0  0  0  0  0  0  0  0  0  0
  147.4948  132.4538  153.6304 H   0  0  0  0  0  0  0  0  0  0  0  0
  148.8697  133.0837  152.7153 H   0  0  0  0  0  0  0  0  0  0  0  0
  147.2529  133.2937  152.1094 H   0  0  0  0  0  0  0  0  0  0  0  0
  146.2456  136.0260  154.1983 H   0  0  0  0  0  0  0  0  0  0  0  0
  145.6817  134.7441  153.1625 H   0  0  0  0  0  0  0  0  0  0  0  0
  146.4552  134.0940  156.0461 H   0  0  0  0  0  0  0  0  0  0  0  0
  144.8736  134.7122  155.6262 H   0  0  0  0  0  0  0  0  0  0  0  0
  144.3738  132.8709  154.8309 H   0  0  0  0  0  0  0  0  0  0  0  0
  149.8816  132.9538  155.0279 H   0  0  0  0  0  0  0  0  0  0  0  0
  150.4507  134.1919  153.9089 H   0  0  0  0  0  0  0  0  0  0  0  0
  150.7342  134.1522  156.8834 H   0  0  0  0  0  0  0  0  0  0  0  0
  151.8232  134.8173  155.6795 H   0  0  0  0  0  0  0  0  0  0  0  0
  153.9609  138.0229  155.4432 H   0  0  0  0  0  0  0  0  0  0  0  0
  148.8586  140.4968  158.5048 H   0  0  0  0  0  0  0  0  0  0  0  0
  151.4579  142.2126  156.9936 H   0  0  0  0  0  0  0  0  0  0  0  0
  152.7726  141.0969  159.5178 H   0  0  0  0  0  0  0  0  0  0  0  0
  153.5321  142.0216  158.1844 H   0  0  0  0  0  0  0  0  0  0  0  0
  152.4487  142.5018  161.3944 H   0  0  0  0  0  0  0  0  0  0  0  0
  153.1723  144.0516  161.0223 H   0  0  0  0  0  0  0  0  0  0  0  0
  150.3947  143.7802  161.1182 H   0  0  0  0  0  0  0  0  0  0  0  0
  153.5422  144.6262  158.6999 H   0  0  0  0  0  0  0  0  0  0  0  0
  152.2571  144.3834  157.5468 H   0  0  0  0  0  0  0  0  0  0  0  0
  150.9015  145.5857  158.7924 H   0  0  0  0  0  0  0  0  0  0  0  0
  149.9751  143.3334  158.5086 H   0  0  0  0  0  0  0  0  0  0  0  0
  150.1645  142.0645  159.7597 H   0  0  0  0  0  0  0  0  0  0  0  0
  148.0480  135.2888  153.0907 H   0  0  0  0  0  0  0  0  0  0  0  0
  1  2  1  0  0  0  0
  1 31  1  0  0  0  0
  1 32  1  0  0  0  0
  1 33  1  0  0  0  0
  2 29  1  0  0  0  0
  2 11  1  0  0  0  0
  2  3  1  0  0  0  0
  3 30  1  0  0  0  0
  3  4  1  0  0  0  0
  3  9  1  0  0  0  0
  4  5  1  0  0  0  0
  4  6  1  0  0  0  0
  4 59  1  0  0  0  0
  5 34  1  0  0  0  0
  5 35  1  0  0  0  0
  5 36  1  0  0  0  0
  6  7  1  0  0  0  0
  6 37  1  0  0  0  0
  6 38  1  0  0  0  0
  7  8  1  0  0  0  0
  7 39  1  0  0  0  0
  7 40  1  0  0  0  0
  8 41  1  0  0  0  0
  9 10  1  0  0  0  0
  9 42  1  0  0  0  0
  9 43  1  0  0  0  0
 10 11  1  0  0  0  0
 10 44  1  0  0  0  0
 10 45  1  0  0  0  0
 11 12  1  0  0  0  0
 12 17  1  0  0  0  0
 12 13  2  0  0  0  0
 13 14  1  0  0  0  0
 14 15  2  0  0  0  0
 14 46  1  0  0  0  0
 15 16  1  0  0  0  0
 16 20  1  0  0  0  0
 16 17  2  0  0  0  0
 17 18  1  0  0  0  0
 18 19  2  0  0  0  0
 19 20  1  0  0  0  0
 19 47  1  0  0  0  0
 20 21  1  0  0  0  0
 21 28  1  0  0  0  0
 21 22  1  0  0  0  0
 21 48  1  0  0  0  0
 22 23  1  0  0  0  0
 22 49  1  0  0  0  0
 22 50  1  0  0  0  0
 23 24  1  0  0  0  0
 23 26  1  0  0  0  0
 23 28  1  0  0  0  0
 24 25  1  0  0  0  0
 24 51  1  0  0  0  0
 24 52  1  0  0  0  0
 25 53  1  0  0  0  0
 26 27  1  0  0  0  0
 26 54  1  0  0  0  0
 26 55  1  0  0  0  0
 27 56  1  0  0  0  0
 28 57  1  0  0  0  0
 28 58  1  0  0  0  0
M  CHG  1   4   1
M  END
> <s_m_source_file>
AV-unprocessed.smi

> <i_m_source_file_index>
215

> <i_lp_mmshare_version>
43012

> <i_f3d_flags>
0

> <s_epik_input>
W09IXVtDSDJdW0NIMl1OKFtDSDNdKVtDQEBIXShbQ0BIXTFbQ0gzXSlbQ0gyXVtDSDJdTjFjKG5bY0hdbjIpYyhjMjMpbltjSF1uM1tDSF0oW0NIMl00KVtDSDJdQzQoW0NIMl1bT0hdKVtDSDJdW09IXQ==

> <s_epik_cmdline>
J2VwaWtfcHl0aG9uJywgJy1waCcsICc3LjAnLCAnLXRuJywgJzgnLCAnLW1hJywgJzIwMCcsICctbWV0YWxfYmluZGluZycsICctaW1hZScsICc8aW5maWxlLm1hZT4nLCAnLW9tYWUnLCAnPG91dGZpbGUubWFlPic=

> <r_lp_tautomer_probability>
1

> <r_epik_Ionization_Penalty>
0.0036237

> <r_epik_Ionization_Penalty_Charging>
0.0032725

> <r_epik_Ionization_Penalty_Neutral>
0.000351196

> <r_epik_State_Penalty>
-0

> <r_epik_Charging_Adjusted_Penalty>
0.0032725

> <i_epik_Tot_Q>
1

> <i_epik_Tot_abs_Q>
1

> <r_epik_Metal_State_Penalty>
-0

> <b_epik_Metal_Only>
0

> <s_lp_Force_Field>
OPLS_2005

> <r_lp_Energy>
69.5021

> <b_lp_Chiralities_Consistent>
1

> <s_lp_Variant>
AV-unprocessed.smi:215-7

> <Gold.Version>
5.8.1

> <Gold.Id.Protein>
6NUR|6NUR_protein|mol2

> <Gold.PLP.Fitness>
53.9124

> <Gold.PLP.PLP>
-42.4463

> <Gold.PLP.part.hbond>
-6.7492

> <Gold.PLP.part.metal>
0.0000

> <Gold.PLP.part.buried>
-7.4061

> <Gold.PLP.part.nonpolar>
-29.9111

> <Gold.PLP.part.repulsive>
0.0497

> <Gold.PLP.ligand.clash>
0.0000

> <Gold.PLP.ligand.torsion>
1.7775

> <Gold.PLP.Chemscore.Hbond>
4.7893

> <Gold.PLP.Chemscore.CHOScore>
0.0000

> <Gold.PLP.Chemscore.Metal>
0.0000

> <Gold.Chemscore.Hbonds>
donor molecule, donor type, donor heavy atom, donor atom, acceptor molecule, acceptor atom, score
      L1  H     4    59       P1  7948  2.00
      L1  H     8    41       P1 10957  0.96
      P1  H  7997  8009       L1    15  1.00
      P1  H 10752 10765       L1    13  0.94

> <Gold.PLP.Chemscore.Internal.Correction>
0.6533

> <Gold.Rescore>
     Score         DG    S(hbond)    S(metal)    S(lipo)     H(rot)  DE(clash)    DE(int)     intcor
     12.21     -15.69       3.52        0.00      92.14       4.81       0.29       3.19       ----

> <Gold.Chemscore.Fitness>
12.2063

> <Gold.Chemscore.DG>
-15.6915

> <Gold.Chemscore.ZeroCoef>
-5.4800

> <Gold.Chemscore.Hbond>
3.5164

> <Gold.Chemscore.Metal>
0.0000

> <Gold.Chemscore.Lipo>
92.1364

> <Gold.Chemscore.Internal_Hbond>
0.0000

> <Gold.Chemscore.DEClash>
0.2926

> <Gold.Chemscore.DEInternal>
3.1926

> <Gold.Chemscore.Rot>
4.8098

> <Gold.Chemscore.Internal.Correction>
   9.000000E+99

> <Gold.Chemscore.Hbonds>
donor molecule, donor type, donor heavy atom, donor atom, acceptor molecule, acceptor atom, score
      L1  H     4    59       P1  7948  1.00
      L1  H     8    41       P1 10957  0.86
      P1  H  7997  8009       L1    15  0.40
      P1  H 10752 10765       L1    13  0.74

> <Gold.Chemscore.Hbond.Weighted>
-11.7446

> <Gold.Chemscore.Metal.Weighted>
-0.0000

> <Gold.Chemscore.Lipo.Weighted>
-10.7800

> <Gold.Chemscore.Internal_Hbond.Weighted>
0.0000

> <Gold.Chemscore.DEClash.Weighted>
0.2926

> <Gold.Chemscore.DEInternal.Weighted>
3.1926

> <Gold.Chemscore.Rot.Weighted>
12.3130

> <Gold.Chemscore.Internal.Correction.Weighted>
   9.000000E+99

> <Gold.Protein.RotatedTorsions>
[ 6907 6896 6895 6894 ] final   55.82 input  -60.11 | X-H torsion
[ 7974 7965 7964 7962 ] final  147.38 input  175.53 | X-H torsion
[ 8008 7997 7996 7995 ] final -171.76 input   59.86 | X-H torsion
[ 10167 10162 10161 10158 ] final -156.68 input  -65.29 | X-H torsion
[ 10718 10713 10712 10709 ] final   98.54 input   66.30 | X-H torsion
[ 10763 10752 10751 10750 ] final -158.98 input  -60.55 | X-H torsion
[ 11005 11000 10999 10996 ] final  142.04 input  -57.11 | X-H torsion

> <Gold.Protein.ActiveResidues>
 VAL166  LYS551  ARG553  GLY616  TRP617  ASP618  TYR619  PRO620  LYS621  CYS622 
 ASP623  PHE694  ASN695  SER759  ASP760  ASP761  ALA762  ILE779  LEU786  VAL792 
 PHE793  MET794  SER795  GLU796  ALA797  LYS798  CYS799  TRP800  GLU811  SER814 

> <Gold.Protein.RotatedAtoms>
  152.3576  134.6917  160.0216 H   0  0  0  0  0  0  0  0  0  0  0  0  # atno 6907 bound_to 6896
  151.7251  133.3310  159.3333 H   0  0  0  0  0  0  0  0  0  0  0  0  # atno 6908 bound_to 6896
  150.7582  134.6347  159.6250 H   0  0  0  0  0  0  0  0  0  0  0  0  # atno 6909 bound_to 6896
  144.8596  139.6021  143.5936 H   0  0  0  0  0  0  0  0  0  0  0  0  # atno 7974 bound_to 7965
  155.9357  140.1099  157.1096 H   0  0  0  0  0  0  0  0  0  0  0  0  # atno 8008 bound_to 7997
  154.4079  140.1229  156.4927 H   0  0  0  0  0  0  0  0  0  0  0  0  # atno 8009 bound_to 7997
  155.7024  140.3471  155.4941 H   0  0  0  0  0  0  0  0  0  0  0  0  # atno 8010 bound_to 7997
  139.6831  143.9547  152.2347 H   0  0  0  0  0  0  0  0  0  0  0  0  # atno 10167 bound_to 10162
  157.6893  131.0643  150.4812 H   0  0  0  0  0  0  0  0  0  0  0  0  # atno 10718 bound_to 10713
  154.7512  135.3093  154.8554 H   0  0  0  0  0  0  0  0  0  0  0  0  # atno 10763 bound_to 10752
  153.9340  135.6782  153.4749 H   0  0  0  0  0  0  0  0  0  0  0  0  # atno 10764 bound_to 10752
  153.1108  135.4867  154.8960 H   0  0  0  0  0  0  0  0  0  0  0  0  # atno 10765 bound_to 10752
  140.0446  134.9287  157.0907 H   0  0  0  0  0  0  0  0  0  0  0  0  # atno 11005 bound_to 11000
  146.2850  139.6980  142.9202 LP  0  0  0  0  0  0  0  0  0  0  0  0  # atno 17320 bound_to 7965
  145.4338  141.0417  143.2896 LP  0  0  0  0  0  0  0  0  0  0  0  0  # atno 17321 bound_to 7965
  139.9343  144.6722  150.8331 LP  0  0  0  0  0  0  0  0  0  0  0  0  # atno 17342 bound_to 10162
  140.7659  143.3287  151.2457 LP  0  0  0  0  0  0  0  0  0  0  0  0  # atno 17343 bound_to 10162
  156.5144  130.4147  149.6284 LP  0  0  0  0  0  0  0  0  0  0  0  0  # atno 17370 bound_to 10713
  156.3211  130.7281  151.2193 LP  0  0  0  0  0  0  0  0  0  0  0  0  # atno 17371 bound_to 10713
  140.4013  134.2079  155.7163 LP  0  0  0  0  0  0  0  0  0  0  0  0  # atno 17394 bound_to 11000
  141.1901  133.8225  157.0933 LP  0  0  0  0  0  0  0  0  0  0  0  0  # atno 17395 bound_to 11000

$$$$
