AV-unprocessed.smi:1703|AV-procd|sdf|6867|dock2
  -GOLD-   22720 8 63D 1   1.00000     0.00000
 Structure written by MMmdl.
 49 51  0  0  0  0  0  0  0  0  2 V2000
  147.6611  134.7453  159.0912 C   0  0  0  0  0  0  0  0  0  0  0  0
  148.6504  135.6403  158.3256 C   0  0  2  0  0  0  0  0  0  0  0  0
  147.9951  136.4204  157.1684 C   0  0  0  0  0  0  0  0  0  0  0  0
  147.6807  135.5695  156.0218 N   0  0  0  0  0  0  0  0  0  0  0  0
  147.0805  136.3114  154.9121 C   0  0  0  0  0  0  0  0  0  0  0  0
  146.6004  135.4575  153.7207 C   0  0  2  0  0  0  0  0  0  0  0  0
  146.3351  136.3120  152.6256 O   0  0  0  0  0  0  0  0  0  0  0  0
  145.3268  134.6659  154.0740 C   0  0  0  0  0  0  0  0  0  0  0  0
  144.5729  134.2376  152.8841 N   0  0  0  0  0  0  0  0  0  0  0  0
  143.2576  134.4212  152.5722 C   0  0  0  0  0  0  0  0  0  0  0  0
  142.2361  135.1253  153.4079 C   0  0  0  0  0  0  0  0  0  0  0  0
  141.2921  134.2516  153.9910 O   0  0  0  0  0  0  0  0  0  0  0  0
  143.0474  133.8388  151.3572 N   0  3  0  0  0  0  0  0  0  0  0  0
  144.2348  133.2763  150.8890 C   0  0  0  0  0  0  0  0  0  0  0  0
  144.5126  132.5844  149.7142 C   0  0  0  0  0  0  0  0  0  0  0  0
  145.8381  132.1347  149.5432 C   0  0  0  0  0  0  0  0  0  0  0  0
  146.8267  132.3774  150.5188 C   0  0  0  0  0  0  0  0  0  0  0  0
  146.5333  133.0822  151.7048 C   0  0  0  0  0  0  0  0  0  0  0  0
  145.2204  133.5257  151.8663 C   0  0  0  0  0  0  0  0  0  0  0  0
  148.8961  134.8878  155.5952 C   0  0  0  0  0  0  0  0  0  0  0  0
  149.5210  134.0567  156.7301 C   0  0  1  0  0  0  0  0  0  0  0  0
  150.8451  133.4110  156.3091 C   0  0  0  0  0  0  0  0  0  0  0  0
  149.7769  134.9019  157.8503 O   0  0  0  0  0  0  0  0  0  0  0  0
  146.8654  135.3416  159.5380 H   0  0  0  0  0  0  0  0  0  0  0  0
  148.1643  134.2096  159.8961 H   0  0  0  0  0  0  0  0  0  0  0  0
  147.1883  134.0081  158.4427 H   0  0  0  0  0  0  0  0  0  0  0  0
  149.0400  136.3660  159.0400 H   0  0  0  0  0  0  0  0  0  0  0  0
  147.0988  136.9112  157.5444 H   0  0  0  0  0  0  0  0  0  0  0  0
  148.6721  137.2158  156.8528 H   0  0  0  0  0  0  0  0  0  0  0  0
  146.2429  136.8984  155.2920 H   0  0  0  0  0  0  0  0  0  0  0  0
  147.8008  137.0387  154.5346 H   0  0  0  0  0  0  0  0  0  0  0  0
  147.3683  134.7469  153.4195 H   0  0  0  0  0  0  0  0  0  0  0  0
  147.1532  136.5172  152.1999 H   0  0  0  0  0  0  0  0  0  0  0  0
  145.5948  133.7635  154.6243 H   0  0  0  0  0  0  0  0  0  0  0  0
  144.6739  135.2362  154.7346 H   0  0  0  0  0  0  0  0  0  0  0  0
  142.7417  135.6767  154.2008 H   0  0  0  0  0  0  0  0  0  0  0  0
  141.7073  135.8528  152.7919 H   0  0  0  0  0  0  0  0  0  0  0  0
  141.6424  133.3739  153.9706 H   0  0  0  0  0  0  0  0  0  0  0  0
  143.7559  132.3959  148.9667 H   0  0  0  0  0  0  0  0  0  0  0  0
  146.1013  131.5913  148.6471 H   0  0  0  0  0  0  0  0  0  0  0  0
  147.8310  132.0146  150.3550 H   0  0  0  0  0  0  0  0  0  0  0  0
  147.2993  133.2570  152.4450 H   0  0  0  0  0  0  0  0  0  0  0  0
  148.6736  134.2309  154.7534 H   0  0  0  0  0  0  0  0  0  0  0  0
  149.6219  135.6191  155.2352 H   0  0  0  0  0  0  0  0  0  0  0  0
  148.8315  133.2647  157.0234 H   0  0  0  0  0  0  0  0  0  0  0  0
  150.7031  132.7437  155.4589 H   0  0  0  0  0  0  0  0  0  0  0  0
  151.2694  132.8249  157.1245 H   0  0  0  0  0  0  0  0  0  0  0  0
  151.5788  134.1656  156.0237 H   0  0  0  0  0  0  0  0  0  0  0  0
  142.1505  133.8300  150.8883 H   0  0  0  0  0  0  0  0  0  0  0  0
  1  2  1  0  0  0  0
  1 24  1  0  0  0  0
  1 25  1  0  0  0  0
  1 26  1  0  0  0  0
  2 23  1  0  0  0  0
  2  3  1  0  0  0  0
  2 27  1  0  0  0  0
  3  4  1  0  0  0  0
  3 28  1  0  0  0  0
  3 29  1  0  0  0  0
  4  5  1  0  0  0  0
  4 20  1  0  0  0  0
  5  6  1  0  0  0  0
  5 30  1  0  0  0  0
  5 31  1  0  0  0  0
  6  7  1  0  0  0  0
  6  8  1  0  0  0  0
  6 32  1  0  0  0  0
  7 33  1  0  0  0  0
  8  9  1  0  0  0  0
  8 34  1  0  0  0  0
  8 35  1  0  0  0  0
  9 19  1  0  0  0  0
  9 10  1  0  0  0  0
 10 11  1  0  0  0  0
 10 13  2  0  0  0  0
 11 12  1  0  0  0  0
 11 36  1  0  0  0  0
 11 37  1  0  0  0  0
 12 38  1  0  0  0  0
 13 14  1  0  0  0  0
 13 49  1  0  0  0  0
 14 19  2  0  0  0  0
 14 15  1  0  0  0  0
 15 16  2  0  0  0  0
 15 39  1  0  0  0  0
 16 17  1  0  0  0  0
 16 40  1  0  0  0  0
 17 18  2  0  0  0  0
 17 41  1  0  0  0  0
 18 19  1  0  0  0  0
 18 42  1  0  0  0  0
 20 21  1  0  0  0  0
 20 43  1  0  0  0  0
 20 44  1  0  0  0  0
 21 22  1  0  0  0  0
 21 23  1  0  0  0  0
 21 45  1  0  0  0  0
 22 46  1  0  0  0  0
 22 47  1  0  0  0  0
 22 48  1  0  0  0  0
M  CHG  1  13   1
M  END
> <s_m_source_file>
AV-unprocessed.smi

> <i_m_source_file_index>
1703

> <i_lp_mmshare_version>
43012

> <i_f3d_flags>
0

> <s_epik_input>
W0NIM11bQ0BASF0xW0NIMl1OKFtDSDJdW0NASF0oTzEpW0NIM10pW0NIMl1bQ0BIXShbT0hdKVtDSDJdbihjKG4yKVtDSDJdW09IXSljKGMyMylbY0hdW2NIXVtjSF1bY0hdMw==

> <s_epik_cmdline>
J2VwaWtfcHl0aG9uJywgJy1waCcsICc3LjAnLCAnLXRuJywgJzgnLCAnLW1hJywgJzIwMCcsICctbWV0YWxfYmluZGluZycsICctaW1hZScsICc8aW5maWxlLm1hZT4nLCAnLW9tYWUnLCAnPG91dGZpbGUubWFlPic=

> <r_epik_Ionization_Penalty>
1.7682

> <r_epik_Ionization_Penalty_Charging>
1.55298

> <r_epik_Ionization_Penalty_Neutral>
0.215215

> <r_epik_State_Penalty>
1.83821

> <r_epik_Charging_Adjusted_Penalty>
3.39119

> <i_epik_Tot_Q>
1

> <i_epik_Tot_abs_Q>
1

> <r_epik_Metal_State_Penalty>
5.89206

> <b_epik_Metal_Only>
0

> <s_lp_Force_Field>
OPLS_2005

> <r_lp_Energy>
34.6201

> <b_lp_Chiralities_Consistent>
1

> <s_lp_Variant>
AV-unprocessed.smi:1703-15

> <Gold.Version>
5.8.1

> <Gold.Id.Protein>
6NUR|6NUR_protein|mol2

> <Gold.PLP.Fitness>
49.0770

> <Gold.PLP.PLP>
-31.9462

> <Gold.PLP.part.hbond>
-5.7429

> <Gold.PLP.part.metal>
0.0000

> <Gold.PLP.part.buried>
-1.5422

> <Gold.PLP.part.nonpolar>
-24.7555

> <Gold.PLP.part.repulsive>
0.0297

> <Gold.PLP.ligand.clash>
0.0000

> <Gold.PLP.ligand.torsion>
0.4663

> <Gold.PLP.Chemscore.Hbond>
6.0000

> <Gold.PLP.Chemscore.CHOScore>
0.0000

> <Gold.PLP.Chemscore.Metal>
0.0000

> <Gold.Chemscore.Hbonds>
donor molecule, donor type, donor heavy atom, donor atom, acceptor molecule, acceptor atom, score
      L1  H     7    33       P1  7948  1.00
      L1  H    12    38       P1 10957  0.98
      L1  H    13    49       P1 10186  2.00
      P1  H  6896  6907       L1    23  0.99
      P1  H 11000 11005       L1    12  1.00

> <Gold.PLP.Chemscore.Internal.Correction>
0.0634

> <Gold.Rescore>
     Score         DG    S(hbond)    S(metal)    S(lipo)     H(rot)  DE(clash)    DE(int)     intcor
     19.56     -21.86       4.44        0.00      77.84       2.96       1.70       0.60       ----

> <Gold.Chemscore.Fitness>
19.5624

> <Gold.Chemscore.DG>
-21.8581

> <Gold.Chemscore.ZeroCoef>
-5.4800

> <Gold.Chemscore.Hbond>
4.4422

> <Gold.Chemscore.Metal>
0.0000

> <Gold.Chemscore.Lipo>
77.8378

> <Gold.Chemscore.Internal_Hbond>
0.0000

> <Gold.Chemscore.DEClash>
1.6957

> <Gold.Chemscore.DEInternal>
0.6000

> <Gold.Chemscore.Rot>
2.9555

> <Gold.Chemscore.Internal.Correction>
   9.000000E+99

> <Gold.Chemscore.Hbonds>
donor molecule, donor type, donor heavy atom, donor atom, acceptor molecule, acceptor atom, score
      L1  H     7    33       P1  7948  0.97
      L1  H    12    38       P1 10957  0.89
      L1  H    13    49       P1 10186  0.48
      P1  H  6896  6907       L1    23  0.52
      P1  H 11000 11005       L1    12  0.25

> <Gold.Chemscore.Hbond.Weighted>
-14.8370

> <Gold.Chemscore.Metal.Weighted>
-0.0000

> <Gold.Chemscore.Lipo.Weighted>
-9.1070

> <Gold.Chemscore.Internal_Hbond.Weighted>
0.0000

> <Gold.Chemscore.DEClash.Weighted>
1.6957

> <Gold.Chemscore.DEInternal.Weighted>
0.6000

> <Gold.Chemscore.Rot.Weighted>
7.5660

> <Gold.Chemscore.Internal.Correction.Weighted>
   9.000000E+99

> <Gold.Protein.RotatedTorsions>
[ 6907 6896 6895 6894 ] final  -89.97 input  -60.11 | X-H torsion
[ 7974 7965 7964 7962 ] final -161.63 input  175.53 | X-H torsion
[ 8008 7997 7996 7995 ] final -151.94 input   59.86 | X-H torsion
[ 10167 10162 10161 10158 ] final  139.11 input  -65.29 | X-H torsion
[ 10718 10713 10712 10709 ] final -117.37 input   66.30 | X-H torsion
[ 10763 10752 10751 10750 ] final  116.77 input  -60.55 | X-H torsion
[ 11005 11000 10999 10996 ] final   23.19 input  -57.11 | X-H torsion

> <Gold.Protein.ActiveResidues>
 VAL166  LYS551  ARG553  GLY616  TRP617  ASP618  TYR619  PRO620  LYS621  CYS622 
 ASP623  PHE694  ASN695  SER759  ASP760  ASP761  ALA762  ILE779  LEU786  VAL792 
 PHE793  MET794  SER795  GLU796  ALA797  LYS798  CYS799  TRP800  GLU811  SER814 

> <Gold.Protein.RotatedAtoms>
  150.6878  134.2504  159.4508 H   0  0  0  0  0  0  0  0  0  0  0  0  # atno 6907 bound_to 6896
  152.0442  134.9691  160.0583 H   0  0  0  0  0  0  0  0  0  0  0  0  # atno 6908 bound_to 6896
  152.1181  133.4303  159.4699 H   0  0  0  0  0  0  0  0  0  0  0  0  # atno 6909 bound_to 6896
  144.7384  140.3370  143.6142 H   0  0  0  0  0  0  0  0  0  0  0  0  # atno 7974 bound_to 7965
  155.6472  140.0708  157.2599 H   0  0  0  0  0  0  0  0  0  0  0  0  # atno 8008 bound_to 7997
  154.4170  140.1740  156.1686 H   0  0  0  0  0  0  0  0  0  0  0  0  # atno 8009 bound_to 7997
  155.9806  140.3354  155.6663 H   0  0  0  0  0  0  0  0  0  0  0  0  # atno 8010 bound_to 7997
  139.5089  144.6314  151.5808 H   0  0  0  0  0  0  0  0  0  0  0  0  # atno 10167 bound_to 10162
  156.1029  130.6187  150.9155 H   0  0  0  0  0  0  0  0  0  0  0  0  # atno 10718 bound_to 10713
  153.5423  135.3556  155.2723 H   0  0  0  0  0  0  0  0  0  0  0  0  # atno 10763 bound_to 10752
  154.8716  135.4094  154.3030 H   0  0  0  0  0  0  0  0  0  0  0  0  # atno 10764 bound_to 10752
  153.3740  135.7065  153.6684 H   0  0  0  0  0  0  0  0  0  0  0  0  # atno 10765 bound_to 10752
  140.3723  134.2009  155.7666 H   0  0  0  0  0  0  0  0  0  0  0  0  # atno 11005 bound_to 11000
  145.7414  139.1765  143.2374 LP  0  0  0  0  0  0  0  0  0  0  0  0  # atno 17320 bound_to 7965
  146.1131  140.7403  142.9493 LP  0  0  0  0  0  0  0  0  0  0  0  0  # atno 17321 bound_to 7965
  140.6048  143.9545  150.6411 LP  0  0  0  0  0  0  0  0  0  0  0  0  # atno 17342 bound_to 10162
  140.2768  143.3417  152.1188 LP  0  0  0  0  0  0  0  0  0  0  0  0  # atno 17343 bound_to 10162
  157.6202  131.0930  150.8637 LP  0  0  0  0  0  0  0  0  0  0  0  0  # atno 17370 bound_to 10713
  156.8761  130.5163  149.5293 LP  0  0  0  0  0  0  0  0  0  0  0  0  # atno 17371 bound_to 10713
  141.1950  133.8114  157.0731 LP  0  0  0  0  0  0  0  0  0  0  0  0  # atno 17394 bound_to 11000
  140.0542  134.9789  157.1191 LP  0  0  0  0  0  0  0  0  0  0  0  0  # atno 17395 bound_to 11000

$$$$
