AV-unprocessed.smi:1115|AV-procd|sdf|4802|dock6
  -GOLD-   22720 3353D 1   1.00000     0.00000
 Structure written by MMmdl.
 51 52  0  0  0  0  0  0  0  0  2 V2000
  145.1294  131.3051  150.7924 C   0  0  0  0  0  0  0  0  0  0  0  0
  144.3396  132.4510  150.3559 N   0  0  0  0  0  0  0  0  0  0  0  0
  143.4518  132.3355  149.2064 C   0  0  0  0  0  0  0  0  0  0  0  0
  144.5333  133.7090  150.9665 C   0  0  0  0  0  0  0  0  0  0  0  0
  145.6511  134.0101  151.7823 C   0  0  0  0  0  0  0  0  0  0  0  0
  145.7735  135.2902  152.3594 C   0  0  0  0  0  0  0  0  0  0  0  0
  144.7806  136.2646  152.1283 C   0  0  0  0  0  0  0  0  0  0  0  0
  144.9608  137.5393  152.7317 N   0  0  0  0  0  0  0  0  0  0  0  0
  145.8277  137.9093  153.6900 C   0  0  0  0  0  0  0  0  0  0  0  0
  146.6521  137.1728  154.2302 O   0  0  0  0  0  0  0  0  0  0  0  0
  145.6832  139.2071  153.9909 N   0  0  0  0  0  0  0  0  0  0  0  0
  146.4364  139.9411  155.0077 C   0  0  0  0  0  0  0  0  0  0  0  0
  146.9102  141.3400  154.5137 C   0  0  0  0  0  0  0  0  0  0  0  0
  148.1767  141.6922  155.3348 C   0  0  0  0  0  0  0  0  0  0  0  0
  147.3556  141.1772  153.0404 C   0  0  0  0  0  0  0  0  0  0  0  0
  145.8511  142.3733  154.6928 N   0  0  0  0  0  0  0  0  0  0  0  0
  145.6539  142.8237  156.0754 C   0  0  0  0  0  0  0  0  0  0  0  0
  144.4689  143.7961  156.2039 C   0  0  0  0  0  0  0  0  0  0  0  0
  144.6640  144.9081  155.3389 O   0  0  0  0  0  0  0  0  0  0  0  0
  144.8001  144.5190  153.9778 C   0  0  0  0  0  0  0  0  0  0  0  0
  145.9889  143.5540  153.8317 C   0  0  0  0  0  0  0  0  0  0  0  0
  143.6873  135.9193  151.2980 C   0  0  0  0  0  0  0  0  0  0  0  0
  143.6105  134.6811  150.7641 N   0  3  0  0  0  0  0  0  0  0  0  0
  144.9785  131.1177  151.8560 H   0  0  0  0  0  0  0  0  0  0  0  0
  146.1909  131.4836  150.6180 H   0  0  0  0  0  0  0  0  0  0  0  0
  144.8479  130.4004  150.2532 H   0  0  0  0  0  0  0  0  0  0  0  0
  143.7762  132.9974  148.4027 H   0  0  0  0  0  0  0  0  0  0  0  0
  142.4303  132.5975  149.4834 H   0  0  0  0  0  0  0  0  0  0  0  0
  143.4400  131.3180  148.8154 H   0  0  0  0  0  0  0  0  0  0  0  0
  146.4215  133.2790  151.9762 H   0  0  0  0  0  0  0  0  0  0  0  0
  146.6275  135.5174  152.9806 H   0  0  0  0  0  0  0  0  0  0  0  0
  144.3747  138.2751  152.3654 H   0  0  0  0  0  0  0  0  0  0  0  0
  144.9748  139.7306  153.4978 H   0  0  0  0  0  0  0  0  0  0  0  0
  145.8489  140.0419  155.9221 H   0  0  0  0  0  0  0  0  0  0  0  0
  147.2850  139.3234  155.3006 H   0  0  0  0  0  0  0  0  0  0  0  0
  148.8814  140.8601  155.3607 H   0  0  0  0  0  0  0  0  0  0  0  0
  147.9313  141.9425  156.3675 H   0  0  0  0  0  0  0  0  0  0  0  0
  148.7207  142.5370  154.9123 H   0  0  0  0  0  0  0  0  0  0  0  0
  148.1357  140.4207  152.9501 H   0  0  0  0  0  0  0  0  0  0  0  0
  147.7645  142.0995  152.6284 H   0  0  0  0  0  0  0  0  0  0  0  0
  146.5368  140.8604  152.3946 H   0  0  0  0  0  0  0  0  0  0  0  0
  145.4607  141.9800  156.7354 H   0  0  0  0  0  0  0  0  0  0  0  0
  146.5540  143.3161  156.4439 H   0  0  0  0  0  0  0  0  0  0  0  0
  143.5306  143.2956  155.9596 H   0  0  0  0  0  0  0  0  0  0  0  0
  144.3825  144.1540  157.2297 H   0  0  0  0  0  0  0  0  0  0  0  0
  143.8775  144.0512  153.6305 H   0  0  0  0  0  0  0  0  0  0  0  0
  144.9576  145.4082  153.3673 H   0  0  0  0  0  0  0  0  0  0  0  0
  146.9064  144.0911  154.0724 H   0  0  0  0  0  0  0  0  0  0  0  0
  146.0560  143.2673  152.7840 H   0  0  0  0  0  0  0  0  0  0  0  0
  142.8732  136.5739  151.0280 H   0  0  0  0  0  0  0  0  0  0  0  0
  142.8081  134.4663  150.1719 H   0  0  0  0  0  0  0  0  0  0  0  0
  1  2  1  0  0  0  0
  1 24  1  0  0  0  0
  1 25  1  0  0  0  0
  1 26  1  0  0  0  0
  2  3  1  0  0  0  0
  2  4  1  0  0  0  0
  3 27  1  0  0  0  0
  3 28  1  0  0  0  0
  3 29  1  0  0  0  0
  4 23  1  0  0  0  0
  4  5  2  0  0  0  0
  5  6  1  0  0  0  0
  5 30  1  0  0  0  0
  6  7  2  0  0  0  0
  6 31  1  0  0  0  0
  7  8  1  0  0  0  0
  7 22  1  0  0  0  0
  8  9  1  0  0  0  0
  8 32  1  0  0  0  0
  9 10  2  0  0  0  0
  9 11  1  0  0  0  0
 11 12  1  0  0  0  0
 11 33  1  0  0  0  0
 12 13  1  0  0  0  0
 12 34  1  0  0  0  0
 12 35  1  0  0  0  0
 13 14  1  0  0  0  0
 13 15  1  0  0  0  0
 13 16  1  0  0  0  0
 14 36  1  0  0  0  0
 14 37  1  0  0  0  0
 14 38  1  0  0  0  0
 15 39  1  0  0  0  0
 15 40  1  0  0  0  0
 15 41  1  0  0  0  0
 16 21  1  0  0  0  0
 16 17  1  0  0  0  0
 17 18  1  0  0  0  0
 17 42  1  0  0  0  0
 17 43  1  0  0  0  0
 18 19  1  0  0  0  0
 18 44  1  0  0  0  0
 18 45  1  0  0  0  0
 19 20  1  0  0  0  0
 20 21  1  0  0  0  0
 20 46  1  0  0  0  0
 20 47  1  0  0  0  0
 21 48  1  0  0  0  0
 21 49  1  0  0  0  0
 22 23  2  0  0  0  0
 22 50  1  0  0  0  0
 23 51  1  0  0  0  0
M  CHG  1  23   1
M  END
> <s_m_source_file>
AV-unprocessed.smi

> <i_m_source_file_index>
1115

> <i_lp_mmshare_version>
43012

> <i_f3d_flags>
0

> <s_epik_input>
W0NIM11OKFtDSDNdKWMxW2NIXVtjSF1jKFtjSF1uMSlbTkhdQyg9TylbTkhdW0NIMl1DKFtDSDNdKShbQ0gzXSlOMltDSDJdW0NIMl1PW0NIMl1bQ0gyXTI=

> <s_epik_cmdline>
J2VwaWtfcHl0aG9uJywgJy1waCcsICc3LjAnLCAnLXRuJywgJzgnLCAnLW1hJywgJzIwMCcsICctbWV0YWxfYmluZGluZycsICctaW1hZScsICc8aW5maWxlLm1hZT4nLCAnLW9tYWUnLCAnPG91dGZpbGUubWFlPic=

> <r_lp_tautomer_probability>
0.999994

> <r_epik_Ionization_Penalty>
0.525804

> <r_epik_Ionization_Penalty_Charging>
0.259793

> <r_epik_Ionization_Penalty_Neutral>
0.266011

> <r_epik_State_Penalty>
0.517093

> <r_epik_Charging_Adjusted_Penalty>
0.776886

> <i_epik_Tot_Q>
1

> <i_epik_Tot_abs_Q>
1

> <r_epik_Metal_State_Penalty>
0.804287

> <b_epik_Metal_Only>
0

> <s_lp_Force_Field>
OPLS_2005

> <r_lp_Energy>
49.9386

> <b_lp_Chiralities_Consistent>
1

> <s_lp_Variant>
AV-unprocessed.smi:1115-1

> <Gold.Version>
5.8.1

> <Gold.Id.Protein>
6NUR|6NUR_protein|mol2

> <Gold.PLP.Fitness>
41.6295

> <Gold.PLP.PLP>
-33.8221

> <Gold.PLP.part.hbond>
-2.7275

> <Gold.PLP.part.metal>
0.0000

> <Gold.PLP.part.buried>
-3.7263

> <Gold.PLP.part.nonpolar>
-28.1350

> <Gold.PLP.part.repulsive>
0.4036

> <Gold.PLP.ligand.clash>
0.0000

> <Gold.PLP.ligand.torsion>
1.1880

> <Gold.PLP.Chemscore.Hbond>
3.3708

> <Gold.PLP.Chemscore.CHOScore>
0.0000

> <Gold.PLP.Chemscore.Metal>
0.0000

> <Gold.Chemscore.Hbonds>
donor molecule, donor type, donor heavy atom, donor atom, acceptor molecule, acceptor atom, score
      L1  H     8    32       P1 10175  0.37
      L1  H    11    33       P1 10175  1.00
      L1  H    23    51       P1 10186  2.00

> <Gold.PLP.Chemscore.Internal.Correction>
0.0711

> <Gold.Rescore>
     Score         DG    S(hbond)    S(metal)    S(lipo)     H(rot)  DE(clash)    DE(int)     intcor
     14.64     -18.37       2.20        0.00      78.96       1.44       1.19       2.54       ----

> <Gold.Chemscore.Fitness>
14.6448

> <Gold.Chemscore.DG>
-18.3720

> <Gold.Chemscore.ZeroCoef>
-5.4800

> <Gold.Chemscore.Hbond>
2.2013

> <Gold.Chemscore.Metal>
0.0000

> <Gold.Chemscore.Lipo>
78.9579

> <Gold.Chemscore.Internal_Hbond>
0.0000

> <Gold.Chemscore.DEClash>
1.1911

> <Gold.Chemscore.DEInternal>
2.5362

> <Gold.Chemscore.Rot>
1.4447

> <Gold.Chemscore.Internal.Correction>
   9.000000E+99

> <Gold.Chemscore.Hbonds>
donor molecule, donor type, donor heavy atom, donor atom, acceptor molecule, acceptor atom, score
      L1  H     8    32       P1 10175  0.35
      L1  H    11    33       P1 10175  1.00
      L1  H    23    51       P1 10186  0.78

> <Gold.Chemscore.Hbond.Weighted>
-7.3524

> <Gold.Chemscore.Metal.Weighted>
-0.0000

> <Gold.Chemscore.Lipo.Weighted>
-9.2381

> <Gold.Chemscore.Internal_Hbond.Weighted>
0.0000

> <Gold.Chemscore.DEClash.Weighted>
1.1911

> <Gold.Chemscore.DEInternal.Weighted>
2.5362

> <Gold.Chemscore.Rot.Weighted>
3.6985

> <Gold.Chemscore.Internal.Correction.Weighted>
   9.000000E+99

> <Gold.Protein.RotatedTorsions>
[ 6907 6896 6895 6894 ] final    7.96 input  -60.11 | X-H torsion
[ 7974 7965 7964 7962 ] final   82.47 input  175.53 | X-H torsion
[ 8008 7997 7996 7995 ] final   88.48 input   59.86 | X-H torsion
[ 10167 10162 10161 10158 ] final    4.42 input  -65.29 | X-H torsion
[ 10718 10713 10712 10709 ] final   71.56 input   66.30 | X-H torsion
[ 10763 10752 10751 10750 ] final   47.90 input  -60.55 | X-H torsion
[ 11005 11000 10999 10996 ] final  117.30 input  -57.11 | X-H torsion

> <Gold.Protein.ActiveResidues>
 VAL166  LYS551  ARG553  GLY616  TRP617  ASP618  TYR619  PRO620  LYS621  CYS622 
 ASP623  PHE694  ASN695  SER759  ASP760  ASP761  ALA762  ILE779  LEU786  VAL792 
 PHE793  MET794  SER795  GLU796  ALA797  LYS798  CYS799  TRP800  GLU811  SER814 

> <Gold.Protein.RotatedAtoms>
  151.6984  135.0934  160.0246 H   0  0  0  0  0  0  0  0  0  0  0  0  # atno 6907 bound_to 6896
  152.3736  133.6447  159.6114 H   0  0  0  0  0  0  0  0  0  0  0  0  # atno 6908 bound_to 6896
  150.7692  133.9146  159.3421 H   0  0  0  0  0  0  0  0  0  0  0  0  # atno 6909 bound_to 6896
  145.6246  139.2392  143.2119 H   0  0  0  0  0  0  0  0  0  0  0  0  # atno 7974 bound_to 7965
  155.9883  140.3371  155.6728 H   0  0  0  0  0  0  0  0  0  0  0  0  # atno 8008 bound_to 7997
  155.6455  140.0700  157.2622 H   0  0  0  0  0  0  0  0  0  0  0  0  # atno 8009 bound_to 7997
  154.4212  140.1735  156.1607 H   0  0  0  0  0  0  0  0  0  0  0  0  # atno 8010 bound_to 7997
  140.6536  143.7484  150.7615 H   0  0  0  0  0  0  0  0  0  0  0  0  # atno 10167 bound_to 10162
  157.6457  130.9534  150.0806 H   0  0  0  0  0  0  0  0  0  0  0  0  # atno 10718 bound_to 10713
  152.9796  135.5961  154.3838 H   0  0  0  0  0  0  0  0  0  0  0  0  # atno 10763 bound_to 10752
  154.3500  135.2767  155.2379 H   0  0  0  0  0  0  0  0  0  0  0  0  # atno 10764 bound_to 10752
  154.4422  135.6010  153.6192 H   0  0  0  0  0  0  0  0  0  0  0  0  # atno 10765 bound_to 10752
  139.9070  134.9608  156.7330 H   0  0  0  0  0  0  0  0  0  0  0  0  # atno 11005 bound_to 11000
  146.1404  140.7065  142.9369 LP  0  0  0  0  0  0  0  0  0  0  0  0  # atno 17320 bound_to 7965
  144.7217  140.4396  143.7003 LP  0  0  0  0  0  0  0  0  0  0  0  0  # atno 17321 bound_to 7965
  140.1139  143.4673  152.2353 LP  0  0  0  0  0  0  0  0  0  0  0  0  # atno 17342 bound_to 10162
  139.5754  144.7485  151.3778 LP  0  0  0  0  0  0  0  0  0  0  0  0  # atno 17343 bound_to 10162
  156.1783  130.3649  149.9070 LP  0  0  0  0  0  0  0  0  0  0  0  0  # atno 17370 bound_to 10713
  156.7028  130.8940  151.3601 LP  0  0  0  0  0  0  0  0  0  0  0  0  # atno 17371 bound_to 10713
  140.6910  133.9390  155.7966 LP  0  0  0  0  0  0  0  0  0  0  0  0  # atno 17394 bound_to 11000
  141.0442  134.0578  157.3865 LP  0  0  0  0  0  0  0  0  0  0  0  0  # atno 17395 bound_to 11000

$$$$
