AV-unprocessed.smi:1780|AV-procd|sdf|7184|dock6
  -GOLD-   22720 8423D 1   1.00000     0.00000
 Structure written by MMmdl.
 43 44  0  0  0  0  0  0  0  0  1 V2000
  151.5133  144.3845  157.9304 C   0  0  0  0  0  0  0  0  0  0  0  0
  151.5937  144.8281  159.3965 C   0  0  0  0  0  0  0  0  0  0  0  0
  152.3140  143.8693  160.2118 N   0  0  0  0  0  0  0  0  0  0  0  0
  152.9367  142.7044  159.8093 C   0  0  0  0  0  0  0  0  0  0  0  0
  153.4680  142.1590  160.9439 C   0  0  0  0  0  0  0  0  0  0  0  0
  154.2163  140.9657  161.1033 N   0  0  0  0  0  0  0  0  0  0  0  0
  154.3945  139.9883  160.1997 C   0  0  0  0  0  0  0  0  0  0  0  0
  153.9037  139.9686  159.0707 O   0  0  0  0  0  0  0  0  0  0  0  0
  155.1863  139.0200  160.6811 N   0  0  0  0  0  0  0  0  0  0  0  0
  155.5906  137.8233  159.9483 C   0  0  0  0  0  0  0  0  0  0  0  0
  155.2406  136.4930  160.6782 C   0  0  1  0  0  0  0  0  0  0  0  0
  155.8313  135.3063  159.8745 C   0  0  0  0  0  0  0  0  0  0  0  0
  155.6540  136.4838  162.1008 N   0  0  0  0  0  0  0  0  0  0  0  0
  154.6884  137.1565  162.9779 C   0  0  0  0  0  0  0  0  0  0  0  0
  155.1027  137.1231  164.4593 C   0  0  0  0  0  0  0  0  0  0  0  0
  155.2863  135.7774  164.8767 O   0  0  0  0  0  0  0  0  0  0  0  0
  156.2716  135.1089  164.1016 C   0  0  0  0  0  0  0  0  0  0  0  0
  155.8633  135.1266  162.6183 C   0  0  0  0  0  0  0  0  0  0  0  0
  153.1280  143.0475  161.9969 C   0  0  0  0  0  0  0  0  0  0  0  0
  152.4277  144.0776  161.5472 N   0  0  0  0  0  0  0  0  0  0  0  0
  150.9483  145.1044  157.3384 H   0  0  0  0  0  0  0  0  0  0  0  0
  151.0195  143.4165  157.8384 H   0  0  0  0  0  0  0  0  0  0  0  0
  152.5065  144.2981  157.4879 H   0  0  0  0  0  0  0  0  0  0  0  0
  152.0888  145.7971  159.4747 H   0  0  0  0  0  0  0  0  0  0  0  0
  150.5906  144.9505  159.8066 H   0  0  0  0  0  0  0  0  0  0  0  0
  152.9436  142.3840  158.7780 H   0  0  0  0  0  0  0  0  0  0  0  0
  154.6688  140.8469  161.9977 H   0  0  0  0  0  0  0  0  0  0  0  0
  155.5436  139.1193  161.6200 H   0  0  0  0  0  0  0  0  0  0  0  0
  155.1070  137.8474  158.9713 H   0  0  0  0  0  0  0  0  0  0  0  0
  156.6602  137.9179  159.7649 H   0  0  0  0  0  0  0  0  0  0  0  0
  154.1553  136.3850  160.6477 H   0  0  0  0  0  0  0  0  0  0  0  0
  155.5600  135.3406  158.8200 H   0  0  0  0  0  0  0  0  0  0  0  0
  155.4624  134.3441  160.2267 H   0  0  0  0  0  0  0  0  0  0  0  0
  156.9201  135.2930  159.9327 H   0  0  0  0  0  0  0  0  0  0  0  0
  154.5832  138.2045  162.7053 H   0  0  0  0  0  0  0  0  0  0  0  0
  153.7045  136.6981  162.8660 H   0  0  0  0  0  0  0  0  0  0  0  0
  156.0218  137.6901  164.6163 H   0  0  0  0  0  0  0  0  0  0  0  0
  154.3331  137.5849  165.0778 H   0  0  0  0  0  0  0  0  0  0  0  0
  157.2427  135.5862  164.2412 H   0  0  0  0  0  0  0  0  0  0  0  0
  156.3661  134.0822  164.4556 H   0  0  0  0  0  0  0  0  0  0  0  0
  154.9556  134.5362  162.4860 H   0  0  0  0  0  0  0  0  0  0  0  0
  156.6533  134.6216  162.0657 H   0  0  0  0  0  0  0  0  0  0  0  0
  153.3600  142.9814  163.0497 H   0  0  0  0  0  0  0  0  0  0  0  0
  1  2  1  0  0  0  0
  1 21  1  0  0  0  0
  1 22  1  0  0  0  0
  1 23  1  0  0  0  0
  2  3  1  0  0  0  0
  2 24  1  0  0  0  0
  2 25  1  0  0  0  0
  3 20  1  0  0  0  0
  3  4  1  0  0  0  0
  4  5  2  0  0  0  0
  4 26  1  0  0  0  0
  5  6  1  0  0  0  0
  5 19  1  0  0  0  0
  6  7  1  0  0  0  0
  6 27  1  0  0  0  0
  7  8  2  0  0  0  0
  7  9  1  0  0  0  0
  9 10  1  0  0  0  0
  9 28  1  0  0  0  0
 10 11  1  0  0  0  0
 10 29  1  0  0  0  0
 10 30  1  0  0  0  0
 11 12  1  0  0  0  0
 11 13  1  0  0  0  0
 11 31  1  0  0  0  0
 12 32  1  0  0  0  0
 12 33  1  0  0  0  0
 12 34  1  0  0  0  0
 13 18  1  0  0  0  0
 13 14  1  0  0  0  0
 14 15  1  0  0  0  0
 14 35  1  0  0  0  0
 14 36  1  0  0  0  0
 15 16  1  0  0  0  0
 15 37  1  0  0  0  0
 15 38  1  0  0  0  0
 16 17  1  0  0  0  0
 17 18  1  0  0  0  0
 17 39  1  0  0  0  0
 17 40  1  0  0  0  0
 18 41  1  0  0  0  0
 18 42  1  0  0  0  0
 19 20  2  0  0  0  0
 19 43  1  0  0  0  0
M  END
> <s_m_source_file>
AV-unprocessed.smi

> <i_m_source_file_index>
1780

> <i_lp_mmshare_version>
43012

> <i_f3d_flags>
0

> <s_epik_input>
W0NIM11bQ0gyXW4xW2NIXWMoW2NIXW4xKVtOSF1DKD1PKVtOSF1bQ0gyXVtDQEhdKFtDSDNdKU4yW0NIMl1bQ0gyXU9bQ0gyXVtDSDJdMg==

> <s_epik_cmdline>
J2VwaWtfcHl0aG9uJywgJy1waCcsICc3LjAnLCAnLXRuJywgJzgnLCAnLW1hJywgJzIwMCcsICctbWV0YWxfYmluZGluZycsICctaW1hZScsICc8aW5maWxlLm1hZT4nLCAnLW9tYWUnLCAnPG91dGZpbGUubWFlPic=

> <r_lp_tautomer_probability>
1

> <r_epik_Ionization_Penalty>
0.242902

> <r_epik_Ionization_Penalty_Charging>
0

> <r_epik_Ionization_Penalty_Neutral>
0.242902

> <r_epik_State_Penalty>
0.233765

> <r_epik_Charging_Adjusted_Penalty>
0.233765

> <i_epik_Tot_Q>
0

> <i_epik_Tot_abs_Q>
0

> <r_epik_Metal_State_Penalty>
0.233759

> <b_epik_Metal_Only>
0

> <s_lp_Force_Field>
OPLS_2005

> <r_lp_Energy>
31.4714

> <b_lp_Chiralities_Consistent>
1

> <s_lp_Variant>
AV-unprocessed.smi:1780-2

> <Gold.Version>
5.8.1

> <Gold.Id.Protein>
6NUR|6NUR_protein|mol2

> <Gold.PLP.Fitness>
45.8711

> <Gold.PLP.PLP>
-44.1682

> <Gold.PLP.part.hbond>
-1.0000

> <Gold.PLP.part.metal>
0.0000

> <Gold.PLP.part.buried>
-7.0045

> <Gold.PLP.part.nonpolar>
-36.6136

> <Gold.PLP.part.repulsive>
0.2877

> <Gold.PLP.ligand.clash>
0.0251

> <Gold.PLP.ligand.torsion>
0.6579

> <Gold.PLP.Chemscore.Hbond>
1.0000

> <Gold.PLP.Chemscore.CHOScore>
0.0000

> <Gold.PLP.Chemscore.Metal>
0.0000

> <Gold.Chemscore.Hbonds>
donor molecule, donor type, donor heavy atom, donor atom, acceptor molecule, acceptor atom, score
      P1  H  7997  8008       L1     8  0.93

> <Gold.PLP.Chemscore.Internal.Correction>
0.0438

> <Gold.Rescore>
     Score         DG    S(hbond)    S(metal)    S(lipo)     H(rot)  DE(clash)    DE(int)     intcor
     13.92     -15.98       1.00        0.00      96.46       1.61       0.02       2.04       ----

> <Gold.Chemscore.Fitness>
13.9166

> <Gold.Chemscore.DG>
-15.9770

> <Gold.Chemscore.ZeroCoef>
-5.4800

> <Gold.Chemscore.Hbond>
0.9993

> <Gold.Chemscore.Metal>
0.0000

> <Gold.Chemscore.Lipo>
96.4562

> <Gold.Chemscore.Internal_Hbond>
0.0000

> <Gold.Chemscore.DEClash>
0.0200

> <Gold.Chemscore.DEInternal>
2.0404

> <Gold.Chemscore.Rot>
1.6117

> <Gold.Chemscore.Internal.Correction>
   9.000000E+99

> <Gold.Chemscore.Hbonds>
donor molecule, donor type, donor heavy atom, donor atom, acceptor molecule, acceptor atom, score
      P1  H  7997  8008       L1     8  0.86

> <Gold.Chemscore.Hbond.Weighted>
-3.3377

> <Gold.Chemscore.Metal.Weighted>
-0.0000

> <Gold.Chemscore.Lipo.Weighted>
-11.2854

> <Gold.Chemscore.Internal_Hbond.Weighted>
0.0000

> <Gold.Chemscore.DEClash.Weighted>
0.0200

> <Gold.Chemscore.DEInternal.Weighted>
2.0404

> <Gold.Chemscore.Rot.Weighted>
4.1260

> <Gold.Chemscore.Internal.Correction.Weighted>
   9.000000E+99

> <Gold.Protein.RotatedTorsions>
[ 6907 6896 6895 6894 ] final   71.14 input  -60.11 | X-H torsion
[ 7974 7965 7964 7962 ] final  -33.98 input  175.53 | X-H torsion
[ 8008 7997 7996 7995 ] final -103.53 input   59.86 | X-H torsion
[ 10167 10162 10161 10158 ] final   93.34 input  -65.29 | X-H torsion
[ 10718 10713 10712 10709 ] final   23.27 input   66.30 | X-H torsion
[ 10763 10752 10751 10750 ] final   -2.92 input  -60.55 | X-H torsion
[ 11005 11000 10999 10996 ] final   68.06 input  -57.11 | X-H torsion

> <Gold.Protein.ActiveResidues>
 VAL166  LYS551  ARG553  GLY616  TRP617  ASP618  TYR619  PRO620  LYS621  CYS622 
 ASP623  PHE694  ASN695  SER759  ASP760  ASP761  ALA762  ILE779  LEU786  VAL792 
 PHE793  MET794  SER795  GLU796  ALA797  LYS798  CYS799  TRP800  GLU811  SER814 

> <Gold.Protein.RotatedAtoms>
  152.4792  134.4764  159.9651 H   0  0  0  0  0  0  0  0  0  0  0  0  # atno 6907 bound_to 6896
  151.4774  133.3548  159.2840 H   0  0  0  0  0  0  0  0  0  0  0  0  # atno 6908 bound_to 6896
  150.8852  134.8275  159.7315 H   0  0  0  0  0  0  0  0  0  0  0  0  # atno 6909 bound_to 6896
  146.0867  140.5982  142.8883 H   0  0  0  0  0  0  0  0  0  0  0  0  # atno 7974 bound_to 7965
  154.8723  140.0422  157.1732 H   0  0  0  0  0  0  0  0  0  0  0  0  # atno 8008 bound_to 7997
  154.8726  140.2960  155.5451 H   0  0  0  0  0  0  0  0  0  0  0  0  # atno 8009 bound_to 7997
  156.2999  140.2426  156.3717 H   0  0  0  0  0  0  0  0  0  0  0  0  # atno 8010 bound_to 7997
  139.8190  144.6740  150.9543 H   0  0  0  0  0  0  0  0  0  0  0  0  # atno 10167 bound_to 10162
  157.1638  130.6728  149.6053 H   0  0  0  0  0  0  0  0  0  0  0  0  # atno 10718 bound_to 10713
  153.3644  135.6992  153.6686 H   0  0  0  0  0  0  0  0  0  0  0  0  # atno 10763 bound_to 10752
  153.5362  135.3582  155.2698 H   0  0  0  0  0  0  0  0  0  0  0  0  # atno 10764 bound_to 10752
  154.8673  135.4192  154.2909 H   0  0  0  0  0  0  0  0  0  0  0  0  # atno 10765 bound_to 10752
  139.9734  134.6863  156.0402 H   0  0  0  0  0  0  0  0  0  0  0  0  # atno 11005 bound_to 11000
  144.7331  140.4729  143.6923 LP  0  0  0  0  0  0  0  0  0  0  0  0  # atno 17320 bound_to 7965
  145.6116  139.1514  143.3072 LP  0  0  0  0  0  0  0  0  0  0  0  0  # atno 17321 bound_to 7965
  140.7814  143.4111  151.0992 LP  0  0  0  0  0  0  0  0  0  0  0  0  # atno 17342 bound_to 10162
  139.7772  143.8408  152.3131 LP  0  0  0  0  0  0  0  0  0  0  0  0  # atno 17343 bound_to 10162
  155.9749  130.4702  150.6424 LP  0  0  0  0  0  0  0  0  0  0  0  0  # atno 17370 bound_to 10713
  157.4108  131.0823  151.1223 LP  0  0  0  0  0  0  0  0  0  0  0  0  # atno 17371 bound_to 10713
  141.1412  133.6564  156.3735 LP  0  0  0  0  0  0  0  0  0  0  0  0  # atno 17394 bound_to 11000
  140.5246  134.6271  157.5330 LP  0  0  0  0  0  0  0  0  0  0  0  0  # atno 17395 bound_to 11000

$$$$
