AV-unprocessed.smi:283|AV-procd|sdf|2155|dock8
  -GOLD-   2262021503D 1   1.00000     0.00000
 Structure written by MMmdl.
 48 51  0  0  0  0  0  0  0  0  1 V2000
  149.8901  141.1582  157.2919 C   0  0  0  0  0  0  0  0  0  0  0  0
  151.4149  141.2724  157.1650 C   0  0  2  0  0  0  0  0  0  0  0  0
  151.9810  139.9669  156.8290 N   0  0  0  0  0  0  0  0  0  0  0  0
  151.3439  139.1307  155.9796 C   0  0  0  0  0  0  0  0  0  0  0  0
  150.5674  139.7250  155.0427 N   0  0  0  0  0  0  0  0  0  0  0  0
  149.8705  138.9811  154.1796 C   0  0  0  0  0  0  0  0  0  0  0  0
  149.8050  137.6519  154.0879 N   0  0  0  0  0  0  0  0  0  0  0  0
  150.5922  137.0447  155.0224 C   0  0  0  0  0  0  0  0  0  0  0  0
  151.4050  137.7061  155.9862 C   0  0  0  0  0  0  0  0  0  0  0  0
  152.0968  136.7574  156.7287 N   0  0  0  0  0  0  0  0  0  0  0  0
  151.6971  135.6131  156.2476 C   0  0  0  0  0  0  0  0  0  0  0  0
  150.7530  135.6924  155.2465 N   0  0  0  0  0  0  0  0  0  0  0  0
  150.0931  134.5787  154.4879 C   0  0  1  0  0  0  0  0  0  0  0  0
  150.6228  133.3702  154.9528 O   0  0  0  0  0  0  0  0  0  0  0  0
  149.7155  132.7173  155.8388 C   0  0  1  0  0  0  0  0  0  0  0  0
  149.9613  133.1629  157.2947 C   0  0  0  0  0  0  0  0  0  0  0  0
  151.2181  132.7032  157.7434 O   0  0  0  0  0  0  0  0  0  0  0  0
  148.3455  133.1231  155.2901 C   0  0  2  0  0  0  0  0  0  0  0  0
  147.9738  132.2041  154.2770 O   0  0  0  0  0  0  0  0  0  0  0  0
  148.5754  134.5396  154.7641 C   0  0  2  0  0  0  0  0  0  0  0  0
  147.7918  134.8178  153.6189 O   0  0  0  0  0  0  0  0  0  0  0  0
  152.0055  141.9282  158.4177 C   0  0  0  0  0  0  0  0  0  0  0  0
  151.6967  143.2748  158.7214 C   0  0  0  0  0  0  0  0  0  0  0  0
  152.2172  143.8892  159.8755 C   0  0  0  0  0  0  0  0  0  0  0  0
  153.0620  143.1660  160.7362 C   0  0  0  0  0  0  0  0  0  0  0  0
  153.3909  141.8315  160.4357 C   0  0  0  0  0  0  0  0  0  0  0  0
  152.8731  141.2116  159.2808 C   0  0  0  0  0  0  0  0  0  0  0  0
  153.3246  139.5744  158.9560 Cl  0  0  0  0  0  0  0  0  0  0  0  0
  150.3653  134.7568  153.4469 H   0  0  0  0  0  0  0  0  0  0  0  0
  149.8754  131.6397  155.7729 H   0  0  0  0  0  0  0  0  0  0  0  0
  147.5696  133.1001  156.0564 H   0  0  0  0  0  0  0  0  0  0  0  0
  148.3250  135.2520  155.5514 H   0  0  0  0  0  0  0  0  0  0  0  0
  149.4359  142.1364  157.4524 H   0  0  0  0  0  0  0  0  0  0  0  0
  149.6079  140.5195  158.1294 H   0  0  0  0  0  0  0  0  0  0  0  0
  149.4497  140.7371  156.3876 H   0  0  0  0  0  0  0  0  0  0  0  0
  151.6111  141.9099  156.3048 H   0  0  0  0  0  0  0  0  0  0  0  0
  152.9671  139.8743  157.0246 H   0  0  0  0  0  0  0  0  0  0  0  0
  149.2726  139.5289  153.4664 H   0  0  0  0  0  0  0  0  0  0  0  0
  152.0778  134.6765  156.6273 H   0  0  0  0  0  0  0  0  0  0  0  0
  149.9590  134.2511  157.3588 H   0  0  0  0  0  0  0  0  0  0  0  0
  149.1853  132.7969  157.9672 H   0  0  0  0  0  0  0  0  0  0  0  0
  151.6625  132.2887  157.0195 H   0  0  0  0  0  0  0  0  0  0  0  0
  147.6418  131.4227  154.6923 H   0  0  0  0  0  0  0  0  0  0  0  0
  148.3017  135.3591  153.0355 H   0  0  0  0  0  0  0  0  0  0  0  0
  151.0498  143.8454  158.0712 H   0  0  0  0  0  0  0  0  0  0  0  0
  151.9674  144.9156  160.1002 H   0  0  0  0  0  0  0  0  0  0  0  0
  153.4617  143.6355  161.6230 H   0  0  0  0  0  0  0  0  0  0  0  0
  154.0459  141.2812  161.0951 H   0  0  0  0  0  0  0  0  0  0  0  0
  1  2  1  0  0  0  0
  1 33  1  0  0  0  0
  1 34  1  0  0  0  0
  1 35  1  0  0  0  0
  2  3  1  0  0  0  0
  2 22  1  0  0  0  0
  2 36  1  0  0  0  0
  3  4  1  0  0  0  0
  3 37  1  0  0  0  0
  4  9  1  0  0  0  0
  4  5  2  0  0  0  0
  5  6  1  0  0  0  0
  6  7  2  0  0  0  0
  6 38  1  0  0  0  0
  7  8  1  0  0  0  0
  8 12  1  0  0  0  0
  8  9  2  0  0  0  0
  9 10  1  0  0  0  0
 10 11  2  0  0  0  0
 11 12  1  0  0  0  0
 11 39  1  0  0  0  0
 12 13  1  0  0  0  0
 13 29  1  0  0  0  0
 13 20  1  0  0  0  0
 13 14  1  0  0  0  0
 14 15  1  0  0  0  0
 15 30  1  0  0  0  0
 15 16  1  0  0  0  0
 15 18  1  0  0  0  0
 16 17  1  0  0  0  0
 16 40  1  0  0  0  0
 16 41  1  0  0  0  0
 17 42  1  0  0  0  0
 18 31  1  0  0  0  0
 18 19  1  0  0  0  0
 18 20  1  0  0  0  0
 19 43  1  0  0  0  0
 20 32  1  0  0  0  0
 20 21  1  0  0  0  0
 21 44  1  0  0  0  0
 22 27  1  0  0  0  0
 22 23  2  0  0  0  0
 23 24  1  0  0  0  0
 23 45  1  0  0  0  0
 24 25  2  0  0  0  0
 24 46  1  0  0  0  0
 25 26  1  0  0  0  0
 25 47  1  0  0  0  0
 26 27  2  0  0  0  0
 26 48  1  0  0  0  0
 27 28  1  0  0  0  0
M  END
> <s_m_source_file>
AV-unprocessed.smi

> <i_m_source_file_index>
283

> <i_lp_mmshare_version>
43012

> <i_f3d_flags>
0

> <s_epik_input>
Q2xjMVtjSF1bY0hdW2NIXVtjSF1jMVtDQEhdKFtDSDNdKVtOSF1jKG5bY0hdbjIpYyhjMjMpbltjSF1uM1tDQEBIXTRPW0NASF0oW0NIMl1bT0hdKVtDQEBIXShbT0hdKVtDQEhdNFtPSF0=

> <s_epik_cmdline>
J2VwaWtfcHl0aG9uJywgJy1waCcsICc3LjAnLCAnLXRuJywgJzgnLCAnLW1hJywgJzIwMCcsICctbWV0YWxfYmluZGluZycsICctaW1hZScsICc8aW5maWxlLm1hZT4nLCAnLW9tYWUnLCAnPG91dGZpbGUubWFlPic=

> <r_lp_tautomer_probability>
1

> <r_epik_Ionization_Penalty>
0.000266407

> <r_epik_Ionization_Penalty_Charging>
0

> <r_epik_Ionization_Penalty_Neutral>
0.000266407

> <r_epik_State_Penalty>
-0

> <r_epik_Charging_Adjusted_Penalty>
0

> <i_epik_Tot_Q>
0

> <i_epik_Tot_abs_Q>
0

> <r_epik_Metal_State_Penalty>
-0

> <b_epik_Metal_Only>
0

> <s_epik_Chemistry_Notes>
This compound contains an acetal/aminal-like group ( X-CH(R)-Y where X, Y are N, S, or O) that may be acid/base labile, releasing an aldehyde.

> <s_lp_Force_Field>
OPLS_2005

> <r_lp_Energy>
45.281

> <b_lp_Chiralities_Consistent>
1

> <s_lp_Variant>
AV-unprocessed.smi:283-31

> <Gold.Version>
5.8.1

> <Gold.Id.Protein>
6NUR|6NUR_protein|mol2

> <Gold.PLP.Fitness>
46.9519

> <Gold.PLP.PLP>
-37.5511

> <Gold.PLP.part.hbond>
-2.4383

> <Gold.PLP.part.metal>
0.0000

> <Gold.PLP.part.buried>
-5.8664

> <Gold.PLP.part.nonpolar>
-32.8409

> <Gold.PLP.part.repulsive>
3.0442

> <Gold.PLP.ligand.clash>
0.0000

> <Gold.PLP.ligand.torsion>
0.6375

> <Gold.PLP.Chemscore.Hbond>
2.5233

> <Gold.PLP.Chemscore.CHOScore>
1.0000

> <Gold.PLP.Chemscore.Metal>
0.0000

> <Gold.Chemscore.Hbonds>
donor molecule, donor type, donor heavy atom, donor atom, acceptor molecule, acceptor atom, score
      L1  H    21    44       P1  7948  1.00
      P1  H  6896  6909       L1    17  0.41
      P1  H  7989  7998       L1     5  0.44
      L1  C     6    38       P1  7957  1.00

> <Gold.PLP.Chemscore.Internal.Correction>
0.1060

> <Gold.Rescore>
     Score         DG    S(hbond)    S(metal)    S(lipo)     H(rot)  DE(clash)    DE(int)     intcor
      8.68     -14.01       2.21        0.00      99.39       4.10       1.74       3.60       ----

> <Gold.Chemscore.Fitness>
8.6772

> <Gold.Chemscore.DG>
-14.0148

> <Gold.Chemscore.ZeroCoef>
-5.4800

> <Gold.Chemscore.Hbond>
2.2139

> <Gold.Chemscore.Metal>
0.0000

> <Gold.Chemscore.Lipo>
99.3871

> <Gold.Chemscore.Internal_Hbond>
0.0000

> <Gold.Chemscore.DEClash>
1.7405

> <Gold.Chemscore.DEInternal>
3.5971

> <Gold.Chemscore.Rot>
4.0968

> <Gold.Chemscore.Internal.Correction>
   9.000000E+99

> <Gold.Chemscore.Hbonds>
donor molecule, donor type, donor heavy atom, donor atom, acceptor molecule, acceptor atom, score
      L1  H    21    44       P1  7948  0.96
      P1  H  6896  6909       L1    17  0.02
      P1  H  7989  7998       L1     5  0.05

> <Gold.Chemscore.Hbond.Weighted>
-7.3944

> <Gold.Chemscore.Metal.Weighted>
-0.0000

> <Gold.Chemscore.Lipo.Weighted>
-11.6283

> <Gold.Chemscore.Internal_Hbond.Weighted>
0.0000

> <Gold.Chemscore.DEClash.Weighted>
1.7405

> <Gold.Chemscore.DEInternal.Weighted>
3.5971

> <Gold.Chemscore.Rot.Weighted>
10.4879

> <Gold.Chemscore.Internal.Correction.Weighted>
   9.000000E+99

> <Gold.Protein.RotatedTorsions>
[ 6907 6896 6895 6894 ] final  -16.69 input  -60.11 | X-H torsion
[ 7974 7965 7964 7962 ] final -134.56 input  175.53 | X-H torsion
[ 8008 7997 7996 7995 ] final  -24.23 input   59.86 | X-H torsion
[ 10167 10162 10161 10158 ] final  156.95 input  -65.29 | X-H torsion
[ 10718 10713 10712 10709 ] final -119.77 input   66.30 | X-H torsion
[ 10763 10752 10751 10750 ] final   29.10 input  -60.55 | X-H torsion
[ 11005 11000 10999 10996 ] final  -98.35 input  -57.11 | X-H torsion

> <Gold.Protein.ActiveResidues>
 VAL166  LYS551  ARG553  GLY616  TRP617  ASP618  TYR619  PRO620  LYS621  CYS622 
 ASP623  PHE694  ASN695  SER759  ASP760  ASP761  ALA762  ILE779  LEU786  VAL792 
 PHE793  MET794  SER795  GLU796  ALA797  LYS798  CYS799  TRP800  GLU811  SER814 

> <Gold.Protein.RotatedAtoms>
  151.3048  135.0778  159.9251 H   0  0  0  0  0  0  0  0  0  0  0  0  # atno 6907 bound_to 6896
  152.5290  133.9796  159.7811 H   0  0  0  0  0  0  0  0  0  0  0  0  # atno 6908 bound_to 6896
  151.0089  133.5932  159.2715 H   0  0  0  0  0  0  0  0  0  0  0  0  # atno 6909 bound_to 6896
  144.9091  140.6872  143.5036 H   0  0  0  0  0  0  0  0  0  0  0  0  # atno 7974 bound_to 7965
  154.4540  140.1959  156.0433 H   0  0  0  0  0  0  0  0  0  0  0  0  # atno 8008 bound_to 7997
  156.0709  140.3284  155.7546 H   0  0  0  0  0  0  0  0  0  0  0  0  # atno 8009 bound_to 7997
  155.5265  140.0574  157.2888 H   0  0  0  0  0  0  0  0  0  0  0  0  # atno 8010 bound_to 7997
  139.4822  144.4962  151.8236 H   0  0  0  0  0  0  0  0  0  0  0  0  # atno 10167 bound_to 10162
  156.1206  130.6320  150.9457 H   0  0  0  0  0  0  0  0  0  0  0  0  # atno 10718 bound_to 10713
  153.0451  135.6497  154.0839 H   0  0  0  0  0  0  0  0  0  0  0  0  # atno 10763 bound_to 10752
  154.0538  135.2893  155.3337 H   0  0  0  0  0  0  0  0  0  0  0  0  # atno 10764 bound_to 10752
  154.6702  135.5359  153.8194 H   0  0  0  0  0  0  0  0  0  0  0  0  # atno 10765 bound_to 10752
  141.1347  133.8239  157.0828 H   0  0  0  0  0  0  0  0  0  0  0  0  # atno 11005 bound_to 11000
  145.3484  139.1713  143.4448 LP  0  0  0  0  0  0  0  0  0  0  0  0  # atno 17320 bound_to 7965
  146.3149  140.3533  142.8658 LP  0  0  0  0  0  0  0  0  0  0  0  0  # atno 17321 bound_to 7965
  140.4451  144.1933  150.5893 LP  0  0  0  0  0  0  0  0  0  0  0  0  # atno 17342 bound_to 10162
  140.4643  143.2437  151.9176 LP  0  0  0  0  0  0  0  0  0  0  0  0  # atno 17343 bound_to 10162
  157.6390  131.0912  150.8290 LP  0  0  0  0  0  0  0  0  0  0  0  0  # atno 17370 bound_to 10713
  156.8388  130.5041  149.5323 LP  0  0  0  0  0  0  0  0  0  0  0  0  # atno 17371 bound_to 10713
  140.0441  134.9839  157.1016 LP  0  0  0  0  0  0  0  0  0  0  0  0  # atno 17394 bound_to 11000
  140.4090  134.2001  155.7163 LP  0  0  0  0  0  0  0  0  0  0  0  0  # atno 17395 bound_to 11000

$$$$
