AV-unprocessed.smi:3272|AV-procd|sdf|12518|dock3
  -GOLD-   2272018433D 1   1.00000     0.00000
 Structure written by MMmdl.
 35 36  0  0  0  0  0  0  0  0  1 V2000
  152.1494  144.2987  157.3714 C   0  0  0  0  0  0  0  0  0  0  0  0
  152.0391  145.0768  158.6880 C   0  0  0  0  0  0  0  0  0  0  0  0
  152.3085  144.2318  159.8348 N   0  0  0  0  0  0  0  0  0  0  0  0
  152.8386  142.9568  159.8499 C   0  0  0  0  0  0  0  0  0  0  0  0
  152.9031  142.5999  161.1672 C   0  0  0  0  0  0  0  0  0  0  0  0
  153.3771  141.3984  161.7519 N   0  0  0  0  0  0  0  0  0  0  0  0
  153.9495  140.3572  161.1262 C   0  0  0  0  0  0  0  0  0  0  0  0
  154.1310  140.2744  159.9115 O   0  0  0  0  0  0  0  0  0  0  0  0
  154.2967  139.3991  161.9975 N   0  0  0  0  0  0  0  0  0  0  0  0
  154.9239  138.1268  161.6546 C   0  0  0  0  0  0  0  0  0  0  0  0
  154.1509  136.9341  162.2467 C   0  0  2  0  0  0  0  0  0  0  0  0
  153.9621  137.0104  163.7477 C   0  0  0  0  0  0  0  0  0  0  0  0
  153.6176  135.5659  164.0991 C   0  0  0  0  0  0  0  0  0  0  0  0
  154.2892  134.7577  163.1367 O   0  0  0  0  0  0  0  0  0  0  0  0
  154.8440  135.5770  162.1121 C   0  0  0  0  0  0  0  0  0  0  0  0
  152.3953  143.7078  161.8940 C   0  0  0  0  0  0  0  0  0  0  0  0
  152.0358  144.6898  161.0816 N   0  0  0  0  0  0  0  0  0  0  0  0
  151.9313  144.9439  156.5203 H   0  0  0  0  0  0  0  0  0  0  0  0
  151.4462  143.4656  157.3474 H   0  0  0  0  0  0  0  0  0  0  0  0
  153.1530  143.8952  157.2337 H   0  0  0  0  0  0  0  0  0  0  0  0
  152.7386  145.9139  158.6952 H   0  0  0  0  0  0  0  0  0  0  0  0
  151.0389  145.4986  158.7931 H   0  0  0  0  0  0  0  0  0  0  0  0
  153.1170  142.4400  158.9433 H   0  0  0  0  0  0  0  0  0  0  0  0
  153.2697  141.3251  162.7530 H   0  0  0  0  0  0  0  0  0  0  0  0
  154.1068  139.5590  162.9760 H   0  0  0  0  0  0  0  0  0  0  0  0
  155.0295  138.0194  160.5735 H   0  0  0  0  0  0  0  0  0  0  0  0
  155.9368  138.1395  162.0577 H   0  0  0  0  0  0  0  0  0  0  0  0
  153.1664  136.8721  161.7796 H   0  0  0  0  0  0  0  0  0  0  0  0
  154.8944  137.3005  164.2347 H   0  0  0  0  0  0  0  0  0  0  0  0
  153.1868  137.7158  164.0477 H   0  0  0  0  0  0  0  0  0  0  0  0
  153.9133  135.3041  165.1153 H   0  0  0  0  0  0  0  0  0  0  0  0
  152.5443  135.3964  164.0046 H   0  0  0  0  0  0  0  0  0  0  0  0
  154.7038  135.1301  161.1275 H   0  0  0  0  0  0  0  0  0  0  0  0
  155.9160  135.6710  162.2908 H   0  0  0  0  0  0  0  0  0  0  0  0
  152.2783  143.8305  162.9607 H   0  0  0  0  0  0  0  0  0  0  0  0
  1  2  1  0  0  0  0
  1 18  1  0  0  0  0
  1 19  1  0  0  0  0
  1 20  1  0  0  0  0
  2  3  1  0  0  0  0
  2 21  1  0  0  0  0
  2 22  1  0  0  0  0
  3 17  1  0  0  0  0
  3  4  1  0  0  0  0
  4  5  2  0  0  0  0
  4 23  1  0  0  0  0
  5  6  1  0  0  0  0
  5 16  1  0  0  0  0
  6  7  1  0  0  0  0
  6 24  1  0  0  0  0
  7  8  2  0  0  0  0
  7  9  1  0  0  0  0
  9 10  1  0  0  0  0
  9 25  1  0  0  0  0
 10 11  1  0  0  0  0
 10 26  1  0  0  0  0
 10 27  1  0  0  0  0
 11 15  1  0  0  0  0
 11 12  1  0  0  0  0
 11 28  1  0  0  0  0
 12 13  1  0  0  0  0
 12 29  1  0  0  0  0
 12 30  1  0  0  0  0
 13 14  1  0  0  0  0
 13 31  1  0  0  0  0
 13 32  1  0  0  0  0
 14 15  1  0  0  0  0
 15 33  1  0  0  0  0
 15 34  1  0  0  0  0
 16 17  2  0  0  0  0
 16 35  1  0  0  0  0
M  END
> <s_m_source_file>
AV-unprocessed.smi

> <i_m_source_file_index>
3272

> <i_lp_mmshare_version>
43012

> <i_f3d_flags>
0

> <s_epik_input>
W0NIM11bQ0gyXW4xW2NIXWMoW2NIXW4xKVtOSF1DKD1PKVtOSF1bQ0gyXVtDQEBIXTJbQ0gyXVtDSDJdT1tDSDJdMg==

> <s_epik_cmdline>
J2VwaWtfcHl0aG9uJywgJy1waCcsICc3LjAnLCAnLXRuJywgJzgnLCAnLW1hJywgJzIwMCcsICctbWV0YWxfYmluZGluZycsICctaW1hZScsICc8aW5maWxlLm1hZT4nLCAnLW9tYWUnLCAnPG91dGZpbGUubWFlPic=

> <r_lp_tautomer_probability>
1

> <r_epik_Ionization_Penalty>
0.000182896

> <r_epik_Ionization_Penalty_Charging>
0

> <r_epik_Ionization_Penalty_Neutral>
0.000182896

> <r_epik_State_Penalty>
-0

> <r_epik_Charging_Adjusted_Penalty>
0

> <i_epik_Tot_Q>
0

> <i_epik_Tot_abs_Q>
0

> <r_epik_Metal_State_Penalty>
-0

> <b_epik_Metal_Only>
0

> <s_lp_Force_Field>
OPLS_2005

> <r_lp_Energy>
22.7112

> <b_lp_Chiralities_Consistent>
1

> <s_lp_Variant>
AV-unprocessed.smi:3272-1

> <Gold.Version>
5.8.1

> <Gold.Id.Protein>
6NUR|6NUR_protein|mol2

> <Gold.PLP.Fitness>
41.5405

> <Gold.PLP.PLP>
-41.8768

> <Gold.PLP.part.hbond>
0.0000

> <Gold.PLP.part.metal>
0.0000

> <Gold.PLP.part.buried>
-5.7740

> <Gold.PLP.part.nonpolar>
-35.8098

> <Gold.PLP.part.repulsive>
0.2692

> <Gold.PLP.ligand.clash>
0.0000

> <Gold.PLP.ligand.torsion>
0.1722

> <Gold.PLP.Chemscore.Hbond>
0.0000

> <Gold.PLP.Chemscore.CHOScore>
0.0000

> <Gold.PLP.Chemscore.Metal>
0.0000

> <Gold.PLP.Chemscore.Internal.Correction>
0.0081

> <Gold.Rescore>
     Score         DG    S(hbond)    S(metal)    S(lipo)     H(rot)  DE(clash)    DE(int)     intcor
     12.42     -13.74       0.00        0.00     101.37       1.41       0.03       1.29       ----

> <Gold.Chemscore.Fitness>
12.4215

> <Gold.Chemscore.DG>
-13.7403

> <Gold.Chemscore.ZeroCoef>
-5.4800

> <Gold.Chemscore.Hbond>
0.0000

> <Gold.Chemscore.Metal>
0.0000

> <Gold.Chemscore.Lipo>
101.3741

> <Gold.Chemscore.Internal_Hbond>
0.0000

> <Gold.Chemscore.DEClash>
0.0264

> <Gold.Chemscore.DEInternal>
1.2924

> <Gold.Chemscore.Rot>
1.4064

> <Gold.Chemscore.Internal.Correction>
   9.000000E+99

> <Gold.Chemscore.Hbond.Weighted>
-0.0000

> <Gold.Chemscore.Metal.Weighted>
-0.0000

> <Gold.Chemscore.Lipo.Weighted>
-11.8608

> <Gold.Chemscore.Internal_Hbond.Weighted>
0.0000

> <Gold.Chemscore.DEClash.Weighted>
0.0264

> <Gold.Chemscore.DEInternal.Weighted>
1.2924

> <Gold.Chemscore.Rot.Weighted>
3.6004

> <Gold.Chemscore.Internal.Correction.Weighted>
   9.000000E+99

> <Gold.Protein.RotatedTorsions>
[ 6907 6896 6895 6894 ] final -147.15 input  -60.11 | X-H torsion
[ 7974 7965 7964 7962 ] final -142.94 input  175.53 | X-H torsion
[ 8008 7997 7996 7995 ] final -117.95 input   59.86 | X-H torsion
[ 10167 10162 10161 10158 ] final   12.53 input  -65.29 | X-H torsion
[ 10718 10713 10712 10709 ] final  -39.98 input   66.30 | X-H torsion
[ 10763 10752 10751 10750 ] final  -67.70 input  -60.55 | X-H torsion
[ 11005 11000 10999 10996 ] final -111.02 input  -57.11 | X-H torsion

> <Gold.Protein.ActiveResidues>
 VAL166  LYS551  ARG553  GLY616  TRP617  ASP618  TYR619  PRO620  LYS621  CYS622 
 ASP623  PHE694  ASN695  SER759  ASP760  ASP761  ALA762  ILE779  LEU786  VAL792 
 PHE793  MET794  SER795  GLU796  ALA797  LYS798  CYS799  TRP800  GLU811  SER814 

> <Gold.Protein.RotatedAtoms>
  151.1517  133.4903  159.2594 H   0  0  0  0  0  0  0  0  0  0  0  0  # atno 6907 bound_to 6896
  151.1547  135.0244  159.8694 H   0  0  0  0  0  0  0  0  0  0  0  0  # atno 6908 bound_to 6896
  152.5463  134.1397  159.8527 H   0  0  0  0  0  0  0  0  0  0  0  0  # atno 6909 bound_to 6896
  144.8406  140.5896  143.5455 H   0  0  0  0  0  0  0  0  0  0  0  0  # atno 7974 bound_to 7965
  155.0919  140.0395  157.2671 H   0  0  0  0  0  0  0  0  0  0  0  0  # atno 8008 bound_to 7997
  154.6825  140.2636  155.6869 H   0  0  0  0  0  0  0  0  0  0  0  0  # atno 8009 bound_to 7997
  156.2700  140.2775  156.1374 H   0  0  0  0  0  0  0  0  0  0  0  0  # atno 8010 bound_to 7997
  140.6062  143.8503  150.7016 H   0  0  0  0  0  0  0  0  0  0  0  0  # atno 10167 bound_to 10162
  156.2864  130.4223  149.8283 H   0  0  0  0  0  0  0  0  0  0  0  0  # atno 10718 bound_to 10713
  154.3783  135.6080  153.5777 H   0  0  0  0  0  0  0  0  0  0  0  0  # atno 10763 bound_to 10752
  152.9788  135.5854  154.4440 H   0  0  0  0  0  0  0  0  0  0  0  0  # atno 10764 bound_to 10752
  154.4205  135.2846  155.1956 H   0  0  0  0  0  0  0  0  0  0  0  0  # atno 10765 bound_to 10752
  141.0758  133.9303  157.2392 H   0  0  0  0  0  0  0  0  0  0  0  0  # atno 11005 bound_to 11000
  145.4703  139.1504  143.3818 LP  0  0  0  0  0  0  0  0  0  0  0  0  # atno 17320 bound_to 7965
  146.2699  140.4836  142.8819 LP  0  0  0  0  0  0  0  0  0  0  0  0  # atno 17321 bound_to 7965
  140.2061  143.3921  152.1754 LP  0  0  0  0  0  0  0  0  0  0  0  0  # atno 17342 bound_to 10162
  139.5327  144.7176  151.5001 LP  0  0  0  0  0  0  0  0  0  0  0  0  # atno 17343 bound_to 10162
  156.5712  130.8425  151.3357 LP  0  0  0  0  0  0  0  0  0  0  0  0  # atno 17370 bound_to 10713
  157.7330  130.9723  150.1955 LP  0  0  0  0  0  0  0  0  0  0  0  0  # atno 17371 bound_to 10713
  139.9570  135.0163  156.9157 LP  0  0  0  0  0  0  0  0  0  0  0  0  # atno 17394 bound_to 11000
  140.5576  134.0566  155.7388 LP  0  0  0  0  0  0  0  0  0  0  0  0  # atno 17395 bound_to 11000

$$$$
