AV-unprocessed.smi:514|AV-procd|sdf|2777|dock4
  -GOLD-   2262023243D 1   1.00000     0.00000
 Structure written by MMmdl.
 45 47  0  0  0  0  0  0  0  0  1 V2000
  150.1799  134.5974  154.8541 C   0  0  0  0  0  0  0  0  0  0  0  0
  150.5930  135.5528  155.9757 C   0  0  0  0  0  0  0  0  0  0  0  0
  151.3932  136.5861  155.4273 O   0  0  0  0  0  0  0  0  0  0  0  0
  151.4708  137.7226  156.2700 C   0  0  0  0  0  0  0  0  0  0  0  0
  151.3565  138.9853  155.4089 C   0  0  0  0  0  0  0  0  0  0  0  0
  150.9013  140.1267  156.1979 N   0  0  0  0  0  0  0  0  0  0  0  0
  149.8414  140.9505  155.9692 C   0  0  0  0  0  0  0  0  0  0  0  0
  148.9783  140.7726  154.8878 N   0  0  0  0  0  0  0  0  0  0  0  0
  148.5949  139.4745  154.3412 C   0  0  0  0  0  0  0  0  0  0  0  0
  147.0645  139.3822  154.1749 C   0  0  0  0  0  0  0  0  0  0  0  0
  146.6018  140.4178  153.2565 N   0  0  0  0  0  0  0  0  0  0  0  0
  146.9729  141.7219  153.7959 C   0  0  0  0  0  0  0  0  0  0  0  0
  148.5044  141.7924  153.9548 C   0  0  0  0  0  0  0  0  0  0  0  0
  149.7316  141.9668  156.8290 N   0  0  0  0  0  0  0  0  0  0  0  0
  150.7948  141.7635  157.6945 C   0  0  0  0  0  0  0  0  0  0  0  0
  151.5148  140.6727  157.3275 C   0  0  0  0  0  0  0  0  0  0  0  0
  152.7264  140.2528  158.0459 C   0  0  0  0  0  0  0  0  0  0  0  0
  153.4141  139.2898  157.7145 O   0  0  0  0  0  0  0  0  0  0  0  0
  153.0137  141.0409  159.1104 N   0  0  0  0  0  0  0  0  0  0  0  0
  152.3246  142.1414  159.5405 C   0  0  0  0  0  0  0  0  0  0  0  0
  152.7071  142.7565  160.5357 O   0  0  0  0  0  0  0  0  0  0  0  0
  151.2159  142.5178  158.8268 N   0  0  0  0  0  0  0  0  0  0  0  0
  150.4455  143.6937  159.2361 C   0  0  0  0  0  0  0  0  0  0  0  0
  153.8323  140.7897  159.6452 H   0  0  0  0  0  0  0  0  0  0  0  0
  149.5609  133.7874  155.2404 H   0  0  0  0  0  0  0  0  0  0  0  0
  151.0539  134.1526  154.3779 H   0  0  0  0  0  0  0  0  0  0  0  0
  149.6081  135.1192  154.0864 H   0  0  0  0  0  0  0  0  0  0  0  0
  149.7059  135.9751  156.4498 H   0  0  0  0  0  0  0  0  0  0  0  0
  151.1506  135.0096  156.7399 H   0  0  0  0  0  0  0  0  0  0  0  0
  150.6699  137.6982  157.0108 H   0  0  0  0  0  0  0  0  0  0  0  0
  152.4202  137.7213  156.8083 H   0  0  0  0  0  0  0  0  0  0  0  0
  152.3139  139.2052  154.9475 H   0  0  0  0  0  0  0  0  0  0  0  0
  150.6776  138.8206  154.5745 H   0  0  0  0  0  0  0  0  0  0  0  0
  149.0978  139.3123  153.3867 H   0  0  0  0  0  0  0  0  0  0  0  0
  148.9357  138.6846  155.0115 H   0  0  0  0  0  0  0  0  0  0  0  0
  146.7880  138.4065  153.7753 H   0  0  0  0  0  0  0  0  0  0  0  0
  146.5640  139.4891  155.1384 H   0  0  0  0  0  0  0  0  0  0  0  0
  145.5980  140.3631  153.1595 H   0  0  0  0  0  0  0  0  0  0  0  0
  146.6296  142.4974  153.1113 H   0  0  0  0  0  0  0  0  0  0  0  0
  146.4708  141.8883  154.7499 H   0  0  0  0  0  0  0  0  0  0  0  0
  148.8161  142.7834  154.2819 H   0  0  0  0  0  0  0  0  0  0  0  0
  148.9861  141.6407  152.9876 H   0  0  0  0  0  0  0  0  0  0  0  0
  149.9669  143.5157  160.1997 H   0  0  0  0  0  0  0  0  0  0  0  0
  149.6631  143.9513  158.5224 H   0  0  0  0  0  0  0  0  0  0  0  0
  151.0920  144.5672  159.3323 H   0  0  0  0  0  0  0  0  0  0  0  0
  1  2  1  0  0  0  0
  1 25  1  0  0  0  0
  1 26  1  0  0  0  0
  1 27  1  0  0  0  0
  2  3  1  0  0  0  0
  2 28  1  0  0  0  0
  2 29  1  0  0  0  0
  3  4  1  0  0  0  0
  4  5  1  0  0  0  0
  4 30  1  0  0  0  0
  4 31  1  0  0  0  0
  5  6  1  0  0  0  0
  5 32  1  0  0  0  0
  5 33  1  0  0  0  0
  6 16  1  0  0  0  0
  6  7  1  0  0  0  0
  7  8  1  0  0  0  0
  7 14  2  0  0  0  0
  8 13  1  0  0  0  0
  8  9  1  0  0  0  0
  9 10  1  0  0  0  0
  9 34  1  0  0  0  0
  9 35  1  0  0  0  0
 10 11  1  0  0  0  0
 10 36  1  0  0  0  0
 10 37  1  0  0  0  0
 11 12  1  0  0  0  0
 11 38  1  0  0  0  0
 12 13  1  0  0  0  0
 12 39  1  0  0  0  0
 12 40  1  0  0  0  0
 13 41  1  0  0  0  0
 13 42  1  0  0  0  0
 14 15  1  0  0  0  0
 15 22  1  0  0  0  0
 15 16  2  0  0  0  0
 16 17  1  0  0  0  0
 17 18  2  0  0  0  0
 17 19  1  0  0  0  0
 19 24  1  0  0  0  0
 19 20  1  0  0  0  0
 20 21  2  0  0  0  0
 20 22  1  0  0  0  0
 22 23  1  0  0  0  0
 23 43  1  0  0  0  0
 23 44  1  0  0  0  0
 23 45  1  0  0  0  0
M  END
> <s_m_source_file>
AV-unprocessed.smi

> <i_m_source_file_index>
514

> <i_lp_mmshare_version>
43012

> <i_f3d_flags>
0

> <s_epik_input>
W0NIM11uMWMoPU8pW25IXWMoPU8pYyhjMTIpbihbQ0gyXVtDSDJdT1tDSDJdW0NIM10pYyhuMilOM1tDSDJdW0NIMl1bTkhdW0NIMl1bQ0gyXTM=

> <s_epik_cmdline>
J2VwaWtfcHl0aG9uJywgJy1waCcsICc3LjAnLCAnLXRuJywgJzgnLCAnLW1hJywgJzIwMCcsICctbWV0YWxfYmluZGluZycsICctaW1hZScsICc8aW5maWxlLm1hZT4nLCAnLW9tYWUnLCAnPG91dGZpbGUubWFlPic=

> <r_epik_Ionization_Penalty>
2.51413

> <r_epik_Ionization_Penalty_Charging>
1.58739e-05

> <r_epik_Ionization_Penalty_Neutral>
2.51411

> <r_epik_State_Penalty>
2.67993

> <r_epik_Charging_Adjusted_Penalty>
2.67995

> <i_epik_Tot_Q>
0

> <i_epik_Tot_abs_Q>
0

> <r_epik_Metal_State_Penalty>
2.70758

> <b_epik_Metal_Only>
0

> <s_lp_Force_Field>
OPLS_2005

> <r_lp_Energy>
49.2261

> <b_lp_Chiralities_Consistent>
1

> <s_lp_Variant>
AV-unprocessed.smi:514-2

> <Gold.Version>
5.8.1

> <Gold.Id.Protein>
6NUR|6NUR_protein|mol2

> <Gold.PLP.Fitness>
42.1763

> <Gold.PLP.PLP>
-35.0101

> <Gold.PLP.part.hbond>
-2.9492

> <Gold.PLP.part.metal>
0.0000

> <Gold.PLP.part.buried>
-4.1694

> <Gold.PLP.part.nonpolar>
-28.8463

> <Gold.PLP.part.repulsive>
0.7294

> <Gold.PLP.ligand.clash>
0.0000

> <Gold.PLP.ligand.torsion>
1.1184

> <Gold.PLP.Chemscore.Hbond>
3.0000

> <Gold.PLP.Chemscore.CHOScore>
0.0000

> <Gold.PLP.Chemscore.Metal>
0.0000

> <Gold.Chemscore.Hbonds>
donor molecule, donor type, donor heavy atom, donor atom, acceptor molecule, acceptor atom, score
      L1  H    11    38       P1 10175  0.99
      P1  H  7997  8009       L1    18  1.00
      P1  H 10752 10765       L1     3  1.00

> <Gold.PLP.Chemscore.Internal.Correction>
0.4029

> <Gold.Rescore>
     Score         DG    S(hbond)    S(metal)    S(lipo)     H(rot)  DE(clash)    DE(int)     intcor
     12.02     -14.47       2.07        0.00      55.51       1.72       0.24       2.21       ----

> <Gold.Chemscore.Fitness>
12.0211

> <Gold.Chemscore.DG>
-14.4718

> <Gold.Chemscore.ZeroCoef>
-5.4800

> <Gold.Chemscore.Hbond>
2.0672

> <Gold.Chemscore.Metal>
0.0000

> <Gold.Chemscore.Lipo>
55.5069

> <Gold.Chemscore.Internal_Hbond>
0.0000

> <Gold.Chemscore.DEClash>
0.2386

> <Gold.Chemscore.DEInternal>
2.2120

> <Gold.Chemscore.Rot>
1.7214

> <Gold.Chemscore.Internal.Correction>
   9.000000E+99

> <Gold.Chemscore.Hbonds>
donor molecule, donor type, donor heavy atom, donor atom, acceptor molecule, acceptor atom, score
      L1  H    11    38       P1 10175  0.88
      P1  H  7997  8009       L1    18  0.29
      P1  H 10752 10765       L1     3  0.38

> <Gold.Chemscore.Hbond.Weighted>
-6.9044

> <Gold.Chemscore.Metal.Weighted>
-0.0000

> <Gold.Chemscore.Lipo.Weighted>
-6.4943

> <Gold.Chemscore.Internal_Hbond.Weighted>
0.0000

> <Gold.Chemscore.DEClash.Weighted>
0.2386

> <Gold.Chemscore.DEInternal.Weighted>
2.2120

> <Gold.Chemscore.Rot.Weighted>
4.4069

> <Gold.Chemscore.Internal.Correction.Weighted>
   9.000000E+99

> <Gold.Protein.RotatedTorsions>
[ 6907 6896 6895 6894 ] final   11.73 input  -60.11 | X-H torsion
[ 7974 7965 7964 7962 ] final  -31.27 input  175.53 | X-H torsion
[ 8008 7997 7996 7995 ] final  149.06 input   59.86 | X-H torsion
[ 10167 10162 10161 10158 ] final  152.63 input  -65.29 | X-H torsion
[ 10718 10713 10712 10709 ] final  -27.05 input   66.30 | X-H torsion
[ 10763 10752 10751 10750 ] final -175.71 input  -60.55 | X-H torsion
[ 11005 11000 10999 10996 ] final -172.47 input  -57.11 | X-H torsion

> <Gold.Protein.ActiveResidues>
 VAL166  LYS551  ARG553  GLY616  TRP617  ASP618  TYR619  PRO620  LYS621  CYS622 
 ASP623  PHE694  ASN695  SER759  ASP760  ASP761  ALA762  ILE779  LEU786  VAL792 
 PHE793  MET794  SER795  GLU796  ALA797  LYS798  CYS799  TRP800  GLU811  SER814 

> <Gold.Protein.RotatedAtoms>
  151.7591  135.0814  160.0342 H   0  0  0  0  0  0  0  0  0  0  0  0  # atno 6907 bound_to 6896
  152.3365  133.6014  159.5855 H   0  0  0  0  0  0  0  0  0  0  0  0  # atno 6908 bound_to 6896
  150.7454  133.9703  159.3585 H   0  0  0  0  0  0  0  0  0  0  0  0  # atno 6909 bound_to 6896
  146.1080  140.5646  142.8791 H   0  0  0  0  0  0  0  0  0  0  0  0  # atno 7974 bound_to 7965
  156.2769  140.2112  156.5798 H   0  0  0  0  0  0  0  0  0  0  0  0  # atno 8008 bound_to 7997
  154.7068  140.0516  157.0534 H   0  0  0  0  0  0  0  0  0  0  0  0  # atno 8009 bound_to 7997
  155.0660  140.3171  155.4648 H   0  0  0  0  0  0  0  0  0  0  0  0  # atno 8010 bound_to 7997
  139.4832  144.5342  151.7673 H   0  0  0  0  0  0  0  0  0  0  0  0  # atno 10167 bound_to 10162
  156.4432  130.4468  149.7039 H   0  0  0  0  0  0  0  0  0  0  0  0  # atno 10718 bound_to 10713
  154.5812  135.2836  155.0731 H   0  0  0  0  0  0  0  0  0  0  0  0  # atno 10763 bound_to 10752
  154.2067  135.6415  153.5107 H   0  0  0  0  0  0  0  0  0  0  0  0  # atno 10764 bound_to 10752
  153.0089  135.5482  154.6466 H   0  0  0  0  0  0  0  0  0  0  0  0  # atno 10765 bound_to 10752
  140.4966  134.5934  157.4973 H   0  0  0  0  0  0  0  0  0  0  0  0  # atno 11005 bound_to 11000
  144.7487  140.5135  143.6817 LP  0  0  0  0  0  0  0  0  0  0  0  0  # atno 17320 bound_to 7965
  145.5721  139.1484  143.3282 LP  0  0  0  0  0  0  0  0  0  0  0  0  # atno 17321 bound_to 7965
  140.4872  144.1364  150.5943 LP  0  0  0  0  0  0  0  0  0  0  0  0  # atno 17342 bound_to 10162
  140.4212  143.2611  151.9713 LP  0  0  0  0  0  0  0  0  0  0  0  0  # atno 17343 bound_to 10162
  156.3895  130.7620  151.2619 LP  0  0  0  0  0  0  0  0  0  0  0  0  # atno 17370 bound_to 10713
  157.7505  131.0272  150.3995 LP  0  0  0  0  0  0  0  0  0  0  0  0  # atno 17371 bound_to 10713
  139.9738  134.7249  155.9990 LP  0  0  0  0  0  0  0  0  0  0  0  0  # atno 17394 bound_to 11000
  141.1457  133.6556  156.3860 LP  0  0  0  0  0  0  0  0  0  0  0  0  # atno 17395 bound_to 11000

$$$$
