AV-unprocessed.smi:48|AV-procd|sdf|456|dock1
  -GOLD-   2262016323D 1   1.00000     0.00000
 Structure written by MMmdl.
 30 32  0  0  0  0  0  0  0  0  1 V2000
  148.2608  136.1874  154.7042 O   0  0  0  0  0  0  0  0  0  0  0  0
  149.3212  135.7758  155.5402 C   0  0  0  0  0  0  0  0  0  0  0  0
  150.3187  136.9275  155.7355 C   0  0  2  0  0  0  0  0  0  0  0  0
  149.7008  137.9779  156.4646 O   0  0  0  0  0  0  0  0  0  0  0  0
  150.3622  139.1764  156.2142 C   0  0  1  0  0  0  0  0  0  0  0  0
  151.3811  139.3916  157.3014 N   0  0  0  0  0  0  0  0  0  0  0  0
  152.3312  138.5048  157.6644 C   0  0  0  0  0  0  0  0  0  0  0  0
  153.1812  138.8618  158.6243 N   0  0  0  0  0  0  0  0  0  0  0  0
  152.7478  140.1438  158.9107 C   0  0  0  0  0  0  0  0  0  0  0  0
  153.2036  141.1204  159.8295 C   0  0  0  0  0  0  0  0  0  0  0  0
  154.5442  140.8049  160.8695 Cl  0  0  0  0  0  0  0  0  0  0  0  0
  152.5645  142.3126  159.8753 N   0  0  0  0  0  0  0  0  0  0  0  0
  151.5294  142.5307  159.0566 C   0  0  0  0  0  0  0  0  0  0  0  0
  150.9909  141.7098  158.1485 N   0  0  0  0  0  0  0  0  0  0  0  0
  151.6329  140.5044  158.0987 C   0  0  0  0  0  0  0  0  0  0  0  0
  150.9735  139.0749  154.8059 C   0  0  2  0  0  0  0  0  0  0  0  0
  150.3138  139.9363  153.9005 O   0  0  0  0  0  0  0  0  0  0  0  0
  150.7217  137.6138  154.4210 C   0  0  1  0  0  0  0  0  0  0  0  0
  151.8960  137.0246  153.9001 O   0  0  0  0  0  0  0  0  0  0  0  0
  151.2006  136.5811  156.2748 H   0  0  0  0  0  0  0  0  0  0  0  0
  149.6754  140.0165  156.3284 H   0  0  0  0  0  0  0  0  0  0  0  0
  152.0290  139.3445  154.8203 H   0  0  0  0  0  0  0  0  0  0  0  0
  149.9125  137.5367  153.6923 H   0  0  0  0  0  0  0  0  0  0  0  0
  148.5167  136.0502  153.8050 H   0  0  0  0  0  0  0  0  0  0  0  0
  148.8875  135.4905  156.4991 H   0  0  0  0  0  0  0  0  0  0  0  0
  149.8098  134.8919  155.1292 H   0  0  0  0  0  0  0  0  0  0  0  0
  152.4046  137.5354  157.1935 H   0  0  0  0  0  0  0  0  0  0  0  0
  151.0628  143.5007  159.1426 H   0  0  0  0  0  0  0  0  0  0  0  0
  150.1579  139.4644  153.0968 H   0  0  0  0  0  0  0  0  0  0  0  0
  151.7387  136.7940  152.9972 H   0  0  0  0  0  0  0  0  0  0  0  0
  1  2  1  0  0  0  0
  1 24  1  0  0  0  0
  2  3  1  0  0  0  0
  2 25  1  0  0  0  0
  2 26  1  0  0  0  0
  3 20  1  0  0  0  0
  3 18  1  0  0  0  0
  3  4  1  0  0  0  0
  4  5  1  0  0  0  0
  5 21  1  0  0  0  0
  5  6  1  0  0  0  0
  5 16  1  0  0  0  0
  6 15  1  0  0  0  0
  6  7  1  0  0  0  0
  7  8  2  0  0  0  0
  7 27  1  0  0  0  0
  8  9  1  0  0  0  0
  9 15  2  0  0  0  0
  9 10  1  0  0  0  0
 10 11  1  0  0  0  0
 10 12  2  0  0  0  0
 12 13  1  0  0  0  0
 13 14  2  0  0  0  0
 13 28  1  0  0  0  0
 14 15  1  0  0  0  0
 16 22  1  0  0  0  0
 16 17  1  0  0  0  0
 16 18  1  0  0  0  0
 17 29  1  0  0  0  0
 18 23  1  0  0  0  0
 18 19  1  0  0  0  0
 19 30  1  0  0  0  0
M  END
> <s_m_source_file>
AV-unprocessed.smi

> <i_m_source_file_index>
48

> <i_lp_mmshare_version>
43012

> <i_f3d_flags>
0

> <s_epik_input>
W09IXVtDSDJdW0NASF0xT1tDQEhdKFtDQEhdKFtPSF0pW0NAQEhdMVtPSF0pbihbY0hdbjIpYyhjMjMpbltjSF1uYzNDbA==

> <s_epik_cmdline>
J2VwaWtfcHl0aG9uJywgJy1waCcsICc3LjAnLCAnLXRuJywgJzgnLCAnLW1hJywgJzIwMCcsICctbWV0YWxfYmluZGluZycsICctaW1hZScsICc8aW5maWxlLm1hZT4nLCAnLW9tYWUnLCAnPG91dGZpbGUubWFlPic=

> <r_lp_tautomer_probability>
1

> <r_epik_Ionization_Penalty>
3.45505e-06

> <r_epik_Ionization_Penalty_Charging>
0

> <r_epik_Ionization_Penalty_Neutral>
3.45505e-06

> <r_epik_State_Penalty>
-0

> <r_epik_Charging_Adjusted_Penalty>
0

> <i_epik_Tot_Q>
0

> <i_epik_Tot_abs_Q>
0

> <r_epik_Metal_State_Penalty>
-0

> <b_epik_Metal_Only>
0

> <s_epik_Chemistry_Notes>
This compound contains an acetal/aminal-like group ( X-CH(R)-Y where X, Y are N, S, or O) that may be acid/base labile, releasing an aldehyde.

> <s_lp_Force_Field>
OPLS_2005

> <r_lp_Energy>
32.3387

> <b_lp_Chiralities_Consistent>
1

> <s_lp_Variant>
AV-unprocessed.smi:48-10

> <Gold.Version>
5.8.1

> <Gold.Id.Protein>
6NUR|6NUR_protein|mol2

> <Gold.PLP.Fitness>
42.0055

> <Gold.PLP.PLP>
-28.7037

> <Gold.PLP.part.hbond>
-4.9165

> <Gold.PLP.part.metal>
0.0000

> <Gold.PLP.part.buried>
-4.8922

> <Gold.PLP.part.nonpolar>
-19.4018

> <Gold.PLP.part.repulsive>
0.0279

> <Gold.PLP.ligand.clash>
0.0000

> <Gold.PLP.ligand.torsion>
0.1759

> <Gold.PLP.Chemscore.Hbond>
4.5432

> <Gold.PLP.Chemscore.CHOScore>
0.0000

> <Gold.PLP.Chemscore.Metal>
0.0000

> <Gold.Chemscore.Hbonds>
donor molecule, donor type, donor heavy atom, donor atom, acceptor molecule, acceptor atom, score
      L1  H     1    24       P1  7948  1.00
      L1  H    17    29       P1  7957  0.59
      L1  H    19    30       P1  7949  1.00
      P1  H  7989  7998       L1    17  0.88
      P1  H 10752 10764       L1    19  0.93

> <Gold.PLP.Chemscore.Internal.Correction>
0.0240

> <Gold.Rescore>
     Score         DG    S(hbond)    S(metal)    S(lipo)     H(rot)  DE(clash)    DE(int)     intcor
     12.78     -13.02       3.63        0.00      43.92       3.80       0.09       0.14       ----

> <Gold.Chemscore.Fitness>
12.7829

> <Gold.Chemscore.DG>
-13.0182

> <Gold.Chemscore.ZeroCoef>
-5.4800

> <Gold.Chemscore.Hbond>
3.6325

> <Gold.Chemscore.Metal>
0.0000

> <Gold.Chemscore.Lipo>
43.9154

> <Gold.Chemscore.Internal_Hbond>
0.0000

> <Gold.Chemscore.DEClash>
0.0911

> <Gold.Chemscore.DEInternal>
0.1443

> <Gold.Chemscore.Rot>
3.8017

> <Gold.Chemscore.Internal.Correction>
   9.000000E+99

> <Gold.Chemscore.Hbonds>
donor molecule, donor type, donor heavy atom, donor atom, acceptor molecule, acceptor atom, score
      L1  H     1    24       P1  7948  0.97
      L1  H    17    29       P1  7957  0.56
      L1  H    19    30       P1  7949  0.99
      P1  H  7989  7998       L1    17  0.05
      P1  H 10752 10764       L1    19  0.23

> <Gold.Chemscore.Hbond.Weighted>
-12.1325

> <Gold.Chemscore.Metal.Weighted>
-0.0000

> <Gold.Chemscore.Lipo.Weighted>
-5.1381

> <Gold.Chemscore.Internal_Hbond.Weighted>
0.0000

> <Gold.Chemscore.DEClash.Weighted>
0.0911

> <Gold.Chemscore.DEInternal.Weighted>
0.1443

> <Gold.Chemscore.Rot.Weighted>
9.7324

> <Gold.Chemscore.Internal.Correction.Weighted>
   9.000000E+99

> <Gold.Protein.RotatedTorsions>
[ 6907 6896 6895 6894 ] final   77.63 input  -60.11 | X-H torsion
[ 7974 7965 7964 7962 ] final  150.14 input  175.53 | X-H torsion
[ 8008 7997 7996 7995 ] final  -74.55 input   59.86 | X-H torsion
[ 10167 10162 10161 10158 ] final  111.33 input  -65.29 | X-H torsion
[ 10718 10713 10712 10709 ] final -115.10 input   66.30 | X-H torsion
[ 10763 10752 10751 10750 ] final  -69.57 input  -60.55 | X-H torsion
[ 11005 11000 10999 10996 ] final -177.73 input  -57.11 | X-H torsion

> <Gold.Protein.ActiveResidues>
 VAL166  LYS551  ARG553  GLY616  TRP617  ASP618  TYR619  PRO620  LYS621  CYS622 
 ASP623  PHE694  ASN695  SER759  ASP760  ASP761  ALA762  ILE779  LEU786  VAL792 
 PHE793  MET794  SER795  GLU796  ALA797  LYS798  CYS799  TRP800  GLU811  SER814 

> <Gold.Protein.RotatedAtoms>
  152.5126  134.3787  159.9343 H   0  0  0  0  0  0  0  0  0  0  0  0  # atno 6907 bound_to 6896
  151.3744  133.3837  159.2711 H   0  0  0  0  0  0  0  0  0  0  0  0  # atno 6908 bound_to 6896
  150.9553  134.8968  159.7756 H   0  0  0  0  0  0  0  0  0  0  0  0  # atno 6909 bound_to 6896
  144.8386  139.6370  143.6027 H   0  0  0  0  0  0  0  0  0  0  0  0  # atno 7974 bound_to 7965
  154.5340  140.0759  156.8395 H   0  0  0  0  0  0  0  0  0  0  0  0  # atno 8008 bound_to 7997
  155.3316  140.3402  155.4221 H   0  0  0  0  0  0  0  0  0  0  0  0  # atno 8009 bound_to 7997
  156.1810  140.1652  156.8261 H   0  0  0  0  0  0  0  0  0  0  0  0  # atno 8010 bound_to 7997
  139.6619  144.7128  151.1848 H   0  0  0  0  0  0  0  0  0  0  0  0  # atno 10167 bound_to 10162
  156.0873  130.6062  150.8861 H   0  0  0  0  0  0  0  0  0  0  0  0  # atno 10718 bound_to 10713
  154.4053  135.6021  153.5921 H   0  0  0  0  0  0  0  0  0  0  0  0  # atno 10763 bound_to 10752
  152.9789  135.5916  154.4135 H   0  0  0  0  0  0  0  0  0  0  0  0  # atno 10764 bound_to 10752
  154.3939  135.2842  155.2116 H   0  0  0  0  0  0  0  0  0  0  0  0  # atno 10765 bound_to 10752
  140.4376  134.6461  157.4742 H   0  0  0  0  0  0  0  0  0  0  0  0  # atno 11005 bound_to 11000
  146.2681  139.6570  142.9315 LP  0  0  0  0  0  0  0  0  0  0  0  0  # atno 17320 bound_to 7965
  145.4742  141.0437  143.2682 LP  0  0  0  0  0  0  0  0  0  0  0  0  # atno 17321 bound_to 7965
  140.7584  143.5980  150.8729 LP  0  0  0  0  0  0  0  0  0  0  0  0  # atno 17342 bound_to 10162
  139.9638  143.6134  152.2994 LP  0  0  0  0  0  0  0  0  0  0  0  0  # atno 17343 bound_to 10162
  157.6012  131.0941  150.8957 LP  0  0  0  0  0  0  0  0  0  0  0  0  # atno 17370 bound_to 10713
  156.9114  130.5282  149.5280 LP  0  0  0  0  0  0  0  0  0  0  0  0  # atno 17371 bound_to 10713
  140.0091  134.6717  155.9408 LP  0  0  0  0  0  0  0  0  0  0  0  0  # atno 17394 bound_to 11000
  141.1719  133.6538  156.4684 LP  0  0  0  0  0  0  0  0  0  0  0  0  # atno 17395 bound_to 11000

$$$$
