AV-unprocessed.smi:1439|AV-procd|sdf|5870|dock4
  -GOLD-   22720 5543D 1   1.00000     0.00000
 Structure written by MMmdl.
 36 37  0  0  0  0  0  0  0  0  1 V2000
  145.1167  137.9494  153.4127 N   0  0  0  0  0  0  0  0  0  0  0  0
  146.4064  137.7123  153.1583 C   0  0  0  0  0  0  0  0  0  0  0  0
  146.9474  136.6461  153.4434 O   0  0  0  0  0  0  0  0  0  0  0  0
  147.2054  138.8331  152.4914 C   0  0  0  0  0  0  0  0  0  0  0  0
  147.2461  140.0435  153.3785 C   0  0  0  0  0  0  0  0  0  0  0  0
  146.2292  140.9442  153.5888 C   0  0  0  0  0  0  0  0  0  0  0  0
  146.6926  142.2106  154.6921 S   0  0  0  0  0  0  0  0  0  0  0  0
  148.2826  141.4567  154.8224 C   0  0  0  0  0  0  0  0  0  0  0  0
  149.3841  141.8969  155.5972 N   0  0  0  0  0  0  0  0  0  0  0  0
  150.6578  141.4704  155.5423 C   0  0  0  0  0  0  0  0  0  0  0  0
  151.0699  140.6032  154.7718 O   0  0  0  0  0  0  0  0  0  0  0  0
  151.6174  142.1511  156.5244 C   0  0  0  0  0  0  0  0  0  0  0  0
  151.1837  142.0264  157.9973 C   0  0  0  0  0  0  0  0  0  0  0  0
  151.8957  143.0375  158.9083 C   0  0  1  0  0  0  0  0  0  0  0  0
  151.4351  144.4799  158.7097 C   0  0  0  0  0  0  0  0  0  0  0  0
  151.8040  145.0998  160.0380 C   0  0  0  0  0  0  0  0  0  0  0  0
  151.4727  143.9721  161.0119 C   0  0  0  0  0  0  0  0  0  0  0  0
  151.6331  142.7583  160.2813 O   0  0  0  0  0  0  0  0  0  0  0  0
  148.4132  140.3508  154.0878 N   0  0  0  0  0  0  0  0  0  0  0  0
  144.5521  137.2335  153.8464 H   0  0  0  0  0  0  0  0  0  0  0  0
  144.7093  138.8396  153.1654 H   0  0  0  0  0  0  0  0  0  0  0  0
  148.2122  138.4788  152.2646 H   0  0  0  0  0  0  0  0  0  0  0  0
  146.7449  139.0785  151.5335 H   0  0  0  0  0  0  0  0  0  0  0  0
  145.2365  140.9358  153.1633 H   0  0  0  0  0  0  0  0  0  0  0  0
  149.1795  142.6168  156.2748 H   0  0  0  0  0  0  0  0  0  0  0  0
  152.6079  141.7150  156.3909 H   0  0  0  0  0  0  0  0  0  0  0  0
  151.7012  143.2062  156.2597 H   0  0  0  0  0  0  0  0  0  0  0  0
  150.1063  142.1806  158.0719 H   0  0  0  0  0  0  0  0  0  0  0  0
  151.3778  141.0157  158.3600 H   0  0  0  0  0  0  0  0  0  0  0  0
  152.9752  142.9867  158.7561 H   0  0  0  0  0  0  0  0  0  0  0  0
  151.9153  144.9673  157.8607 H   0  0  0  0  0  0  0  0  0  0  0  0
  150.3545  144.5248  158.5653 H   0  0  0  0  0  0  0  0  0  0  0  0
  152.8723  145.3189  160.0644 H   0  0  0  0  0  0  0  0  0  0  0  0
  151.2599  146.0207  160.2496 H   0  0  0  0  0  0  0  0  0  0  0  0
  152.1083  143.9903  161.8976 H   0  0  0  0  0  0  0  0  0  0  0  0
  150.4346  144.0424  161.3387 H   0  0  0  0  0  0  0  0  0  0  0  0
  1  2  1  0  0  0  0
  1 20  1  0  0  0  0
  1 21  1  0  0  0  0
  2  3  2  0  0  0  0
  2  4  1  0  0  0  0
  4  5  1  0  0  0  0
  4 22  1  0  0  0  0
  4 23  1  0  0  0  0
  5 19  1  0  0  0  0
  5  6  2  0  0  0  0
  6  7  1  0  0  0  0
  6 24  1  0  0  0  0
  7  8  1  0  0  0  0
  8  9  1  0  0  0  0
  8 19  2  0  0  0  0
  9 10  1  0  0  0  0
  9 25  1  0  0  0  0
 10 11  2  0  0  0  0
 10 12  1  0  0  0  0
 12 13  1  0  0  0  0
 12 26  1  0  0  0  0
 12 27  1  0  0  0  0
 13 14  1  0  0  0  0
 13 28  1  0  0  0  0
 13 29  1  0  0  0  0
 14 18  1  0  0  0  0
 14 15  1  0  0  0  0
 14 30  1  0  0  0  0
 15 16  1  0  0  0  0
 15 31  1  0  0  0  0
 15 32  1  0  0  0  0
 16 17  1  0  0  0  0
 16 33  1  0  0  0  0
 16 34  1  0  0  0  0
 17 18  1  0  0  0  0
 17 35  1  0  0  0  0
 17 36  1  0  0  0  0
M  END
> <s_m_source_file>
AV-unprocessed.smi

> <i_m_source_file_index>
1439

> <i_lp_mmshare_version>
43012

> <i_f3d_flags>
0

> <s_epik_input>
W05IMl1DKD1PKVtDSDJdYzFbY0hdc2MobjEpW05IXUMoPU8pW0NIMl1bQ0gyXVtDQEBIXTJbQ0gyXVtDSDJdW0NIMl1PMg==

> <s_epik_cmdline>
J2VwaWtfcHl0aG9uJywgJy1waCcsICc3LjAnLCAnLXRuJywgJzgnLCAnLW1hJywgJzIwMCcsICctbWV0YWxfYmluZGluZycsICctaW1hZScsICc8aW5maWxlLm1hZT4nLCAnLW9tYWUnLCAnPG91dGZpbGUubWFlPic=

> <r_lp_tautomer_probability>
1

> <r_epik_Ionization_Penalty>
0.000300833

> <r_epik_Ionization_Penalty_Charging>
0

> <r_epik_Ionization_Penalty_Neutral>
0.000300833

> <r_epik_State_Penalty>
-0

> <r_epik_Charging_Adjusted_Penalty>
0

> <i_epik_Tot_Q>
0

> <i_epik_Tot_abs_Q>
0

> <r_epik_Metal_State_Penalty>
0.167159

> <b_epik_Metal_Only>
0

> <s_lp_Force_Field>
OPLS_2005

> <r_lp_Energy>
15.0487

> <b_lp_Chiralities_Consistent>
1

> <s_lp_Variant>
AV-unprocessed.smi:1439-2

> <Gold.Version>
5.8.1

> <Gold.Id.Protein>
6NUR|6NUR_protein|mol2

> <Gold.PLP.Fitness>
44.3976

> <Gold.PLP.PLP>
-35.3364

> <Gold.PLP.part.hbond>
-3.5630

> <Gold.PLP.part.metal>
0.0000

> <Gold.PLP.part.buried>
-1.5487

> <Gold.PLP.part.nonpolar>
-30.2161

> <Gold.PLP.part.repulsive>
0.4803

> <Gold.PLP.ligand.clash>
0.0000

> <Gold.PLP.ligand.torsion>
0.3714

> <Gold.PLP.Chemscore.Hbond>
2.8160

> <Gold.PLP.Chemscore.CHOScore>
0.4446

> <Gold.PLP.Chemscore.Metal>
0.0000

> <Gold.Chemscore.Hbonds>
donor molecule, donor type, donor heavy atom, donor atom, acceptor molecule, acceptor atom, score
      L1  H     1    21       P1 10175  0.98
      L1  H     9    25       P1  8028  0.24
      P1  H  7989  7998       L1    11  0.71
      L1  C     6    24       P1 10175  0.30

> <Gold.PLP.Chemscore.Internal.Correction>
0.0221

> <Gold.Rescore>
     Score         DG    S(hbond)    S(metal)    S(lipo)     H(rot)  DE(clash)    DE(int)     intcor
     13.76     -18.47       2.56        0.00      93.95       2.56       2.66       2.05       ----

> <Gold.Chemscore.Fitness>
13.7564

> <Gold.Chemscore.DG>
-18.4723

> <Gold.Chemscore.ZeroCoef>
-5.4800

> <Gold.Chemscore.Hbond>
2.5608

> <Gold.Chemscore.Metal>
0.0000

> <Gold.Chemscore.Lipo>
93.9522

> <Gold.Chemscore.Internal_Hbond>
0.0000

> <Gold.Chemscore.DEClash>
2.6645

> <Gold.Chemscore.DEInternal>
2.0514

> <Gold.Chemscore.Rot>
2.5598

> <Gold.Chemscore.Internal.Correction>
   9.000000E+99

> <Gold.Chemscore.Hbonds>
donor molecule, donor type, donor heavy atom, donor atom, acceptor molecule, acceptor atom, score
      L1  H     1    21       P1 10175  0.91
      L1  H     9    25       P1  8028  0.23
      P1  H  7989  7998       L1    11  0.66

> <Gold.Chemscore.Hbond.Weighted>
-8.5531

> <Gold.Chemscore.Metal.Weighted>
-0.0000

> <Gold.Chemscore.Lipo.Weighted>
-10.9924

> <Gold.Chemscore.Internal_Hbond.Weighted>
0.0000

> <Gold.Chemscore.DEClash.Weighted>
2.6645

> <Gold.Chemscore.DEInternal.Weighted>
2.0514

> <Gold.Chemscore.Rot.Weighted>
6.5532

> <Gold.Chemscore.Internal.Correction.Weighted>
   9.000000E+99

> <Gold.Protein.RotatedTorsions>
[ 6907 6896 6895 6894 ] final   44.40 input  -60.11 | X-H torsion
[ 7974 7965 7964 7962 ] final  -78.76 input  175.53 | X-H torsion
[ 8008 7997 7996 7995 ] final   91.56 input   59.86 | X-H torsion
[ 10167 10162 10161 10158 ] final  107.68 input  -65.29 | X-H torsion
[ 10718 10713 10712 10709 ] final  105.50 input   66.30 | X-H torsion
[ 10763 10752 10751 10750 ] final  -98.67 input  -60.55 | X-H torsion
[ 11005 11000 10999 10996 ] final  132.62 input  -57.11 | X-H torsion

> <Gold.Protein.ActiveResidues>
 VAL166  LYS551  ARG553  GLY616  TRP617  ASP618  TYR619  PRO620  LYS621  CYS622 
 ASP623  PHE694  ASN695  SER759  ASP760  ASP761  ALA762  ILE779  LEU786  VAL792 
 PHE793  MET794  SER795  GLU796  ALA797  LYS798  CYS799  TRP800  GLU811  SER814 

> <Gold.Protein.RotatedAtoms>
  152.2320  134.8313  160.0472 H   0  0  0  0  0  0  0  0  0  0  0  0  # atno 6907 bound_to 6896
  151.9058  133.3544  159.3854 H   0  0  0  0  0  0  0  0  0  0  0  0  # atno 6908 bound_to 6896
  150.7028  134.4708  159.5468 H   0  0  0  0  0  0  0  0  0  0  0  0  # atno 6909 bound_to 6896
  145.5821  140.9446  143.1338 H   0  0  0  0  0  0  0  0  0  0  0  0  # atno 7974 bound_to 7965
  156.0251  140.3336  155.7080 H   0  0  0  0  0  0  0  0  0  0  0  0  # atno 8008 bound_to 7997
  155.5966  140.0651  157.2762 H   0  0  0  0  0  0  0  0  0  0  0  0  # atno 8009 bound_to 7997
  154.4331  140.1818  156.1117 H   0  0  0  0  0  0  0  0  0  0  0  0  # atno 8010 bound_to 7997
  139.6907  144.7108  151.1353 H   0  0  0  0  0  0  0  0  0  0  0  0  # atno 10167 bound_to 10162
  157.6703  131.0829  150.5866 H   0  0  0  0  0  0  0  0  0  0  0  0  # atno 10718 bound_to 10713
  154.7434  135.5000  153.9162 H   0  0  0  0  0  0  0  0  0  0  0  0  # atno 10763 bound_to 10752
  153.1067  135.6699  153.9582 H   0  0  0  0  0  0  0  0  0  0  0  0  # atno 10764 bound_to 10752
  153.9353  135.3073  155.3423 H   0  0  0  0  0  0  0  0  0  0  0  0  # atno 10765 bound_to 10752
  139.9801  134.9551  156.9607 H   0  0  0  0  0  0  0  0  0  0  0  0  # atno 11005 bound_to 11000
  144.7389  139.7506  143.7318 LP  0  0  0  0  0  0  0  0  0  0  0  0  # atno 17320 bound_to 7965
  146.1708  139.4858  142.9928 LP  0  0  0  0  0  0  0  0  0  0  0  0  # atno 17321 bound_to 7965
  140.7682  143.5563  150.9148 LP  0  0  0  0  0  0  0  0  0  0  0  0  # atno 17342 bound_to 10162
  139.9240  143.6572  152.3091 LP  0  0  0  0  0  0  0  0  0  0  0  0  # atno 17343 bound_to 10162
  156.6167  130.4394  149.5838 LP  0  0  0  0  0  0  0  0  0  0  0  0  # atno 17370 bound_to 10713
  156.2388  130.6838  151.1535 LP  0  0  0  0  0  0  0  0  0  0  0  0  # atno 17371 bound_to 10713
  140.5114  134.0998  155.7271 LP  0  0  0  0  0  0  0  0  0  0  0  0  # atno 17394 bound_to 11000
  141.1474  133.9030  157.2182 LP  0  0  0  0  0  0  0  0  0  0  0  0  # atno 17395 bound_to 11000

$$$$
