AV-unprocessed.smi:3191|AV-procd|sdf|12198|dock2
  -GOLD-   2272018 33D 1   1.00000     0.00000
 Structure written by MMmdl.
 35 36  0  0  0  0  0  0  0  0  1 V2000
  149.5754  139.0435  154.2718 C   0  0  0  0  0  0  0  0  0  0  0  0
  148.6998  140.1910  154.4074 N   0  0  0  0  0  0  0  0  0  0  0  0
  147.7652  140.5954  153.5364 C   0  0  0  0  0  0  0  0  0  0  0  0
  147.1032  141.6839  153.9051 N   0  0  0  0  0  0  0  0  0  0  0  0
  147.6673  142.0137  155.1344 C   0  0  0  0  0  0  0  0  0  0  0  0
  148.6504  141.1046  155.4574 C   0  0  0  0  0  0  0  0  0  0  0  0
  149.5256  141.0291  156.6669 C   0  0  0  0  0  0  0  0  0  0  0  0
  150.8061  141.8684  156.5311 C   0  0  0  0  0  0  0  0  0  0  0  0
  151.6447  141.7606  157.7187 N   0  0  0  0  0  0  0  0  0  0  0  0
  151.2654  142.1009  158.9599 C   0  0  0  0  0  0  0  0  0  0  0  0
  150.1490  142.5555  159.2145 O   0  0  0  0  0  0  0  0  0  0  0  0
  152.3252  141.8781  159.9938 C   0  0  1  0  0  0  0  0  0  0  0  0
  153.6510  142.5907  159.8218 C   0  0  0  0  0  0  0  0  0  0  0  0
  152.7245  143.0058  160.9430 C   0  0  0  0  0  0  0  0  0  0  0  0
  152.0806  144.3867  160.9063 C   0  0  0  0  0  0  0  0  0  0  0  0
  153.0680  142.6390  162.3762 C   0  0  0  0  0  0  0  0  0  0  0  0
  152.3630  140.8725  160.4108 H   0  0  0  0  0  0  0  0  0  0  0  0
  149.3643  138.5148  153.3417 H   0  0  0  0  0  0  0  0  0  0  0  0
  149.4239  138.3605  155.1076 H   0  0  0  0  0  0  0  0  0  0  0  0
  150.6147  139.3725  154.2621 H   0  0  0  0  0  0  0  0  0  0  0  0
  147.5643  140.0801  152.6084 H   0  0  0  0  0  0  0  0  0  0  0  0
  147.3234  142.8730  155.6910 H   0  0  0  0  0  0  0  0  0  0  0  0
  148.9609  141.3474  157.5437 H   0  0  0  0  0  0  0  0  0  0  0  0
  149.7940  139.9882  156.8503 H   0  0  0  0  0  0  0  0  0  0  0  0
  151.3837  141.5264  155.6719 H   0  0  0  0  0  0  0  0  0  0  0  0
  150.5639  142.9153  156.3421 H   0  0  0  0  0  0  0  0  0  0  0  0
  152.5777  141.3970  157.5887 H   0  0  0  0  0  0  0  0  0  0  0  0
  154.5465  142.0278  160.0771 H   0  0  0  0  0  0  0  0  0  0  0  0
  153.7711  143.2768  158.9851 H   0  0  0  0  0  0  0  0  0  0  0  0
  152.6653  145.0947  161.4944 H   0  0  0  0  0  0  0  0  0  0  0  0
  151.0727  144.3441  161.3196 H   0  0  0  0  0  0  0  0  0  0  0  0
  152.0237  144.7782  159.8914 H   0  0  0  0  0  0  0  0  0  0  0  0
  153.7725  143.3579  162.7956 H   0  0  0  0  0  0  0  0  0  0  0  0
  153.5236  141.6495  162.4249 H   0  0  0  0  0  0  0  0  0  0  0  0
  152.1680  142.6323  162.9918 H   0  0  0  0  0  0  0  0  0  0  0  0
  1  2  1  0  0  0  0
  1 18  1  0  0  0  0
  1 19  1  0  0  0  0
  1 20  1  0  0  0  0
  2  6  1  0  0  0  0
  2  3  1  0  0  0  0
  3  4  2  0  0  0  0
  3 21  1  0  0  0  0
  4  5  1  0  0  0  0
  5  6  2  0  0  0  0
  5 22  1  0  0  0  0
  6  7  1  0  0  0  0
  7  8  1  0  0  0  0
  7 23  1  0  0  0  0
  7 24  1  0  0  0  0
  8  9  1  0  0  0  0
  8 25  1  0  0  0  0
  8 26  1  0  0  0  0
  9 10  1  0  0  0  0
  9 27  1  0  0  0  0
 10 11  2  0  0  0  0
 10 12  1  0  0  0  0
 12 17  1  0  0  0  0
 12 14  1  0  0  0  0
 12 13  1  0  0  0  0
 13 14  1  0  0  0  0
 13 28  1  0  0  0  0
 13 29  1  0  0  0  0
 14 15  1  0  0  0  0
 14 16  1  0  0  0  0
 15 30  1  0  0  0  0
 15 31  1  0  0  0  0
 15 32  1  0  0  0  0
 16 33  1  0  0  0  0
 16 34  1  0  0  0  0
 16 35  1  0  0  0  0
M  END
> <s_m_source_file>
AV-unprocessed.smi

> <i_m_source_file_index>
3191

> <i_lp_mmshare_version>
43012

> <i_f3d_flags>
0

> <s_epik_input>
W0NIM11uMVtjSF1uW2NIXWMxW0NIMl1bQ0gyXVtOSF1DKD1PKVtDQEBIXShbQ0gyXTIpQzIoW0NIM10pW0NIM10=

> <s_epik_cmdline>
J2VwaWtfcHl0aG9uJywgJy1waCcsICc3LjAnLCAnLXRuJywgJzgnLCAnLW1hJywgJzIwMCcsICctbWV0YWxfYmluZGluZycsICctaW1hZScsICc8aW5maWxlLm1hZT4nLCAnLW9tYWUnLCAnPG91dGZpbGUubWFlPic=

> <r_lp_tautomer_probability>
1

> <r_epik_Ionization_Penalty>
0.874249

> <r_epik_Ionization_Penalty_Charging>
0.874249

> <r_epik_Ionization_Penalty_Neutral>
1.97773e-08

> <r_epik_State_Penalty>
0.911868

> <r_epik_Charging_Adjusted_Penalty>
1.78612

> <i_epik_Tot_Q>
0

> <i_epik_Tot_abs_Q>
0

> <r_epik_Metal_State_Penalty>
0.361186

> <b_epik_Metal_Only>
0

> <s_lp_Force_Field>
OPLS_2005

> <r_lp_Energy>
11.7772

> <b_lp_Chiralities_Consistent>
1

> <s_lp_Variant>
AV-unprocessed.smi:3191-3

> <Gold.Version>
5.8.1

> <Gold.Id.Protein>
6NUR|6NUR_protein|mol2

> <Gold.PLP.Fitness>
39.1620

> <Gold.PLP.PLP>
-35.7126

> <Gold.PLP.part.hbond>
-1.0000

> <Gold.PLP.part.metal>
0.0000

> <Gold.PLP.part.buried>
-1.0067

> <Gold.PLP.part.nonpolar>
-33.2473

> <Gold.PLP.part.repulsive>
0.3005

> <Gold.PLP.ligand.clash>
0.0000

> <Gold.PLP.ligand.torsion>
0.4282

> <Gold.PLP.Chemscore.Hbond>
0.0000

> <Gold.PLP.Chemscore.CHOScore>
1.4030

> <Gold.PLP.Chemscore.Metal>
0.0000

> <Gold.Chemscore.Hbonds>
donor molecule, donor type, donor heavy atom, donor atom, acceptor molecule, acceptor atom, score
      L1  C     3    21       P1  7957  0.63
      L1  C     5    22       P1  8028  0.61

> <Gold.PLP.Chemscore.Internal.Correction>
0.0968

> <Gold.Rescore>
     Score         DG    S(hbond)    S(metal)    S(lipo)     H(rot)  DE(clash)    DE(int)     intcor
     11.23     -11.58       0.00        0.00      89.14       1.69       0.06       0.29       ----

> <Gold.Chemscore.Fitness>
11.2317

> <Gold.Chemscore.DG>
-11.5785

> <Gold.Chemscore.ZeroCoef>
-5.4800

> <Gold.Chemscore.Hbond>
0.0000

> <Gold.Chemscore.Metal>
0.0000

> <Gold.Chemscore.Lipo>
89.1422

> <Gold.Chemscore.Internal_Hbond>
0.0000

> <Gold.Chemscore.DEClash>
0.0574

> <Gold.Chemscore.DEInternal>
0.2893

> <Gold.Chemscore.Rot>
1.6919

> <Gold.Chemscore.Internal.Correction>
   9.000000E+99

> <Gold.Chemscore.Hbond.Weighted>
-0.0000

> <Gold.Chemscore.Metal.Weighted>
-0.0000

> <Gold.Chemscore.Lipo.Weighted>
-10.4296

> <Gold.Chemscore.Internal_Hbond.Weighted>
0.0000

> <Gold.Chemscore.DEClash.Weighted>
0.0574

> <Gold.Chemscore.DEInternal.Weighted>
0.2893

> <Gold.Chemscore.Rot.Weighted>
4.3312

> <Gold.Chemscore.Internal.Correction.Weighted>
   9.000000E+99

> <Gold.Protein.RotatedTorsions>
[ 6907 6896 6895 6894 ] final  132.14 input  -60.11 | X-H torsion
[ 7974 7965 7964 7962 ] final  -85.31 input  175.53 | X-H torsion
[ 8008 7997 7996 7995 ] final   -3.85 input   59.86 | X-H torsion
[ 10167 10162 10161 10158 ] final   51.83 input  -65.29 | X-H torsion
[ 10718 10713 10712 10709 ] final   -0.80 input   66.30 | X-H torsion
[ 10763 10752 10751 10750 ] final  138.97 input  -60.55 | X-H torsion
[ 11005 11000 10999 10996 ] final   49.89 input  -57.11 | X-H torsion

> <Gold.Protein.ActiveResidues>
 VAL166  LYS551  ARG553  GLY616  TRP617  ASP618  TYR619  PRO620  LYS621  CYS622 
 ASP623  PHE694  ASN695  SER759  ASP760  ASP761  ALA762  ILE779  LEU786  VAL792 
 PHE793  MET794  SER795  GLU796  ALA797  LYS798  CYS799  TRP800  GLU811  SER814 

> <Gold.Protein.RotatedAtoms>
  152.3354  133.6006  159.5838 H   0  0  0  0  0  0  0  0  0  0  0  0  # atno 6907 bound_to 6896
  150.7447  133.9804  159.3583 H   0  0  0  0  0  0  0  0  0  0  0  0  # atno 6908 bound_to 6896
  151.7674  135.0795  160.0406 H   0  0  0  0  0  0  0  0  0  0  0  0  # atno 6909 bound_to 6896
  145.4950  140.9550  143.1791 H   0  0  0  0  0  0  0  0  0  0  0  0  # atno 7974 bound_to 7965
  154.6206  140.2499  155.7555 H   0  0  0  0  0  0  0  0  0  0  0  0  # atno 8008 bound_to 7997
  156.2424  140.2927  156.0431 H   0  0  0  0  0  0  0  0  0  0  0  0  # atno 8009 bound_to 7997
  155.1904  140.0391  157.2889 H   0  0  0  0  0  0  0  0  0  0  0  0  # atno 8010 bound_to 7997
  140.2578  144.3407  150.6327 H   0  0  0  0  0  0  0  0  0  0  0  0  # atno 10167 bound_to 10162
  156.8151  130.5437  149.5704 H   0  0  0  0  0  0  0  0  0  0  0  0  # atno 10718 bound_to 10713
  153.8985  135.3025  155.3448 H   0  0  0  0  0  0  0  0  0  0  0  0  # atno 10763 bound_to 10752
  154.7682  135.4899  153.9599 H   0  0  0  0  0  0  0  0  0  0  0  0  # atno 10764 bound_to 10752
  153.1258  135.6793  153.9359 H   0  0  0  0  0  0  0  0  0  0  0  0  # atno 10765 bound_to 10752
  140.1064  134.5012  155.8716 H   0  0  0  0  0  0  0  0  0  0  0  0  # atno 11005 bound_to 11000
  144.7812  139.6522  143.7153 LP  0  0  0  0  0  0  0  0  0  0  0  0  # atno 17320 bound_to 7965
  146.2261  139.5725  142.9586 LP  0  0  0  0  0  0  0  0  0  0  0  0  # atno 17321 bound_to 7965
  140.5990  143.2167  151.7109 LP  0  0  0  0  0  0  0  0  0  0  0  0  # atno 17342 bound_to 10162
  139.5026  144.3823  152.0364 LP  0  0  0  0  0  0  0  0  0  0  0  0  # atno 17343 bound_to 10162
  156.1021  130.5977  150.9911 LP  0  0  0  0  0  0  0  0  0  0  0  0  # atno 17370 bound_to 10713
  157.6486  131.0900  150.8100 LP  0  0  0  0  0  0  0  0  0  0  0  0  # atno 17371 bound_to 10713
  141.2119  133.6713  156.6620 LP  0  0  0  0  0  0  0  0  0  0  0  0  # atno 17394 bound_to 11000
  140.3150  134.8055  157.4206 LP  0  0  0  0  0  0  0  0  0  0  0  0  # atno 17395 bound_to 11000

$$$$
