AV-unprocessed.smi:1940|AV-procd|sdf|7839|dock9
  -GOLD-   22720 9583D 1   1.00000     0.00000
 Structure written by MMmdl.
 49 51  0  0  0  0  0  0  0  0  1 V2000
  144.6596  137.5296  153.1386 C   0  0  0  0  0  0  0  0  0  0  0  0
  145.6355  136.3449  153.1857 C   0  0  2  0  0  0  0  0  0  0  0  0
  146.9939  136.8546  153.3681 N   0  0  0  0  0  0  0  0  0  0  0  0
  147.3840  137.7483  154.2887 C   0  0  0  0  0  0  0  0  0  0  0  0
  146.6194  138.2646  155.1023 O   0  0  0  0  0  0  0  0  0  0  0  0
  148.7023  137.9915  154.1899 N   0  0  0  0  0  0  0  0  0  0  0  0
  149.5230  138.8633  154.9579 C   0  0  0  0  0  0  0  0  0  0  0  0
  150.9131  139.0493  154.7697 C   0  0  0  0  0  0  0  0  0  0  0  0
  151.5992  139.9536  155.6031 C   0  0  0  0  0  0  0  0  0  0  0  0
  150.8855  140.6542  156.6030 C   0  0  0  0  0  0  0  0  0  0  0  0
  151.5592  141.5610  157.4494 N   0  0  0  0  0  0  0  0  0  0  0  0
  151.1650  142.9706  157.3852 C   0  0  0  0  0  0  0  0  0  0  0  0
  152.2110  143.8719  158.0629 C   0  0  0  0  0  0  0  0  0  0  0  0
  152.4937  143.4050  159.4980 C   0  0  0  0  0  0  0  0  0  0  0  0
  152.9064  141.9255  159.4977 C   0  0  0  0  0  0  0  0  0  0  0  0
  151.8516  141.0557  158.7924 C   0  0  0  0  0  0  0  0  0  0  0  0
  149.5523  140.4817  156.7740 N   0  0  0  0  0  0  0  0  0  0  0  0
  148.8991  139.6134  155.9745 C   0  0  0  0  0  0  0  0  0  0  0  0
  145.5611  135.4844  151.9091 C   0  0  1  0  0  0  0  0  0  0  0  0
  146.3767  134.1911  151.9586 C   0  0  0  0  0  0  0  0  0  0  0  0
  145.6807  133.3539  150.9107 C   0  0  0  0  0  0  0  0  0  0  0  0
  144.2179  133.7317  151.1269 C   0  0  0  0  0  0  0  0  0  0  0  0
  144.2244  135.0489  151.6733 O   0  0  0  0  0  0  0  0  0  0  0  0
  143.6297  137.1868  153.0348 H   0  0  0  0  0  0  0  0  0  0  0  0
  144.8756  138.1912  152.2989 H   0  0  0  0  0  0  0  0  0  0  0  0
  144.7159  138.1212  154.0529 H   0  0  0  0  0  0  0  0  0  0  0  0
  145.3518  135.7176  154.0327 H   0  0  0  0  0  0  0  0  0  0  0  0
  147.6969  136.4869  152.7439 H   0  0  0  0  0  0  0  0  0  0  0  0
  149.1809  137.5024  153.4478 H   0  0  0  0  0  0  0  0  0  0  0  0
  151.4716  138.5327  154.0061 H   0  0  0  0  0  0  0  0  0  0  0  0
  152.6577  140.1112  155.4579 H   0  0  0  0  0  0  0  0  0  0  0  0
  151.0473  143.2810  156.3462 H   0  0  0  0  0  0  0  0  0  0  0  0
  150.1960  143.0936  157.8711 H   0  0  0  0  0  0  0  0  0  0  0  0
  153.1359  143.8549  157.4846 H   0  0  0  0  0  0  0  0  0  0  0  0
  151.8667  144.9062  158.0657 H   0  0  0  0  0  0  0  0  0  0  0  0
  153.2774  144.0164  159.9462 H   0  0  0  0  0  0  0  0  0  0  0  0
  151.6016  143.5386  160.1114 H   0  0  0  0  0  0  0  0  0  0  0  0
  153.8669  141.8145  158.9925 H   0  0  0  0  0  0  0  0  0  0  0  0
  153.0525  141.5775  160.5205 H   0  0  0  0  0  0  0  0  0  0  0  0
  150.9263  141.0543  159.3700 H   0  0  0  0  0  0  0  0  0  0  0  0
  152.2037  140.0253  158.7668 H   0  0  0  0  0  0  0  0  0  0  0  0
  147.8387  139.5144  156.1561 H   0  0  0  0  0  0  0  0  0  0  0  0
  145.8771  136.0684  151.0425 H   0  0  0  0  0  0  0  0  0  0  0  0
  147.4355  134.3447  151.7479 H   0  0  0  0  0  0  0  0  0  0  0  0
  146.2874  133.7166  152.9369 H   0  0  0  0  0  0  0  0  0  0  0  0
  146.0045  133.6587  149.9147 H   0  0  0  0  0  0  0  0  0  0  0  0
  145.8666  132.2852  151.0193 H   0  0  0  0  0  0  0  0  0  0  0  0
  143.6401  133.6883  150.2035 H   0  0  0  0  0  0  0  0  0  0  0  0
  143.7520  133.0612  151.8496 H   0  0  0  0  0  0  0  0  0  0  0  0
  1  2  1  0  0  0  0
  1 24  1  0  0  0  0
  1 25  1  0  0  0  0
  1 26  1  0  0  0  0
  2  3  1  0  0  0  0
  2 19  1  0  0  0  0
  2 27  1  0  0  0  0
  3  4  1  0  0  0  0
  3 28  1  0  0  0  0
  4  5  2  0  0  0  0
  4  6  1  0  0  0  0
  6  7  1  0  0  0  0
  6 29  1  0  0  0  0
  7 18  1  0  0  0  0
  7  8  2  0  0  0  0
  8  9  1  0  0  0  0
  8 30  1  0  0  0  0
  9 10  2  0  0  0  0
  9 31  1  0  0  0  0
 10 11  1  0  0  0  0
 10 17  1  0  0  0  0
 11 16  1  0  0  0  0
 11 12  1  0  0  0  0
 12 13  1  0  0  0  0
 12 32  1  0  0  0  0
 12 33  1  0  0  0  0
 13 14  1  0  0  0  0
 13 34  1  0  0  0  0
 13 35  1  0  0  0  0
 14 15  1  0  0  0  0
 14 36  1  0  0  0  0
 14 37  1  0  0  0  0
 15 16  1  0  0  0  0
 15 38  1  0  0  0  0
 15 39  1  0  0  0  0
 16 40  1  0  0  0  0
 16 41  1  0  0  0  0
 17 18  2  0  0  0  0
 18 42  1  0  0  0  0
 19 23  1  0  0  0  0
 19 20  1  0  0  0  0
 19 43  1  0  0  0  0
 20 21  1  0  0  0  0
 20 44  1  0  0  0  0
 20 45  1  0  0  0  0
 21 22  1  0  0  0  0
 21 46  1  0  0  0  0
 21 47  1  0  0  0  0
 22 23  1  0  0  0  0
 22 48  1  0  0  0  0
 22 49  1  0  0  0  0
M  END
> <s_m_source_file>
AV-unprocessed.smi

> <i_m_source_file_index>
1940

> <i_lp_mmshare_version>
43012

> <i_f3d_flags>
0

> <s_epik_input>
TzFbQ0gyXVtDSDJdW0NIMl1bQ0BIXTFbQ0BIXShbQ0gzXSlbTkhdQyg9TylbTkhdYzJbY0hdW2NIXWMobltjSF0yKU4zW0NIMl1bQ0gyXVtDSDJdW0NIMl1bQ0gyXTM=

> <s_epik_cmdline>
J2VwaWtfcHl0aG9uJywgJy1waCcsICc3LjAnLCAnLXRuJywgJzgnLCAnLW1hJywgJzIwMCcsICctbWV0YWxfYmluZGluZycsICctaW1hZScsICc8aW5maWxlLm1hZT4nLCAnLW9tYWUnLCAnPG91dGZpbGUubWFlPic=

> <r_lp_tautomer_probability>
1

> <r_epik_Ionization_Penalty>
0.105688

> <r_epik_Ionization_Penalty_Charging>
0

> <r_epik_Ionization_Penalty_Neutral>
0.105688

> <r_epik_State_Penalty>
0.0895745

> <r_epik_Charging_Adjusted_Penalty>
0.0895745

> <i_epik_Tot_Q>
0

> <i_epik_Tot_abs_Q>
0

> <r_epik_Metal_State_Penalty>
0.0765749

> <b_epik_Metal_Only>
0

> <s_lp_Force_Field>
OPLS_2005

> <r_lp_Energy>
32.8596

> <b_lp_Chiralities_Consistent>
1

> <s_lp_Variant>
AV-unprocessed.smi:1940-3

> <Gold.Version>
5.8.1

> <Gold.Id.Protein>
6NUR|6NUR_protein|mol2

> <Gold.PLP.Fitness>
43.6795

> <Gold.PLP.PLP>
-38.2573

> <Gold.PLP.part.hbond>
-1.9837

> <Gold.PLP.part.metal>
0.0000

> <Gold.PLP.part.buried>
-3.3711

> <Gold.PLP.part.nonpolar>
-33.1608

> <Gold.PLP.part.repulsive>
0.2561

> <Gold.PLP.ligand.clash>
0.0000

> <Gold.PLP.ligand.torsion>
0.3656

> <Gold.PLP.Chemscore.Hbond>
1.9120

> <Gold.PLP.Chemscore.CHOScore>
0.0000

> <Gold.PLP.Chemscore.Metal>
0.0000

> <Gold.Chemscore.Hbonds>
donor molecule, donor type, donor heavy atom, donor atom, acceptor molecule, acceptor atom, score
      L1  H     3    28       P1  7948  1.00
      L1  H     6    29       P1  7948  0.93

> <Gold.PLP.Chemscore.Internal.Correction>
0.4173

> <Gold.Rescore>
     Score         DG    S(hbond)    S(metal)    S(lipo)     H(rot)  DE(clash)    DE(int)     intcor
     17.52     -20.63       1.91        0.00     104.13       1.34       0.04       3.07       ----

> <Gold.Chemscore.Fitness>
17.5218

> <Gold.Chemscore.DG>
-20.6323

> <Gold.Chemscore.ZeroCoef>
-5.4800

> <Gold.Chemscore.Hbond>
1.9128

> <Gold.Chemscore.Metal>
0.0000

> <Gold.Chemscore.Lipo>
104.1311

> <Gold.Chemscore.Internal_Hbond>
0.0000

> <Gold.Chemscore.DEClash>
0.0407

> <Gold.Chemscore.DEInternal>
3.0699

> <Gold.Chemscore.Rot>
1.3359

> <Gold.Chemscore.Internal.Correction>
   9.000000E+99

> <Gold.Chemscore.Hbonds>
donor molecule, donor type, donor heavy atom, donor atom, acceptor molecule, acceptor atom, score
      L1  H     3    28       P1  7948  0.95
      L1  H     6    29       P1  7948  0.84

> <Gold.Chemscore.Hbond.Weighted>
-6.3889

> <Gold.Chemscore.Metal.Weighted>
-0.0000

> <Gold.Chemscore.Lipo.Weighted>
-12.1833

> <Gold.Chemscore.Internal_Hbond.Weighted>
0.0000

> <Gold.Chemscore.DEClash.Weighted>
0.0407

> <Gold.Chemscore.DEInternal.Weighted>
3.0699

> <Gold.Chemscore.Rot.Weighted>
3.4199

> <Gold.Chemscore.Internal.Correction.Weighted>
   9.000000E+99

> <Gold.Protein.RotatedTorsions>
[ 6907 6896 6895 6894 ] final -110.79 input  -60.11 | X-H torsion
[ 7974 7965 7964 7962 ] final   -2.51 input  175.53 | X-H torsion
[ 8008 7997 7996 7995 ] final   -6.19 input   59.86 | X-H torsion
[ 10167 10162 10161 10158 ] final -165.70 input  -65.29 | X-H torsion
[ 10718 10713 10712 10709 ] final  114.92 input   66.30 | X-H torsion
[ 10763 10752 10751 10750 ] final  161.29 input  -60.55 | X-H torsion
[ 11005 11000 10999 10996 ] final  106.89 input  -57.11 | X-H torsion

> <Gold.Protein.ActiveResidues>
 VAL166  LYS551  ARG553  GLY616  TRP617  ASP618  TYR619  PRO620  LYS621  CYS622 
 ASP623  PHE694  ASN695  SER759  ASP760  ASP761  ALA762  ILE779  LEU786  VAL792 
 PHE793  MET794  SER795  GLU796  ALA797  LYS798  CYS799  TRP800  GLU811  SER814 

> <Gold.Protein.RotatedAtoms>
  150.7648  133.9330  159.3432 H   0  0  0  0  0  0  0  0  0  0  0  0  # atno 6907 bound_to 6896
  151.7230  135.0888  160.0297 H   0  0  0  0  0  0  0  0  0  0  0  0  # atno 6908 bound_to 6896
  152.3638  133.6292  159.6070 H   0  0  0  0  0  0  0  0  0  0  0  0  # atno 6909 bound_to 6896
  146.2403  140.1581  142.8333 H   0  0  0  0  0  0  0  0  0  0  0  0  # atno 7974 bound_to 7965
  154.5962  140.2439  155.7853 H   0  0  0  0  0  0  0  0  0  0  0  0  # atno 8008 bound_to 7997
  156.2281  140.2976  156.0071 H   0  0  0  0  0  0  0  0  0  0  0  0  # atno 8009 bound_to 7997
  155.2289  140.0403  157.2949 H   0  0  0  0  0  0  0  0  0  0  0  0  # atno 8010 bound_to 7997
  139.6164  144.0711  152.1892 H   0  0  0  0  0  0  0  0  0  0  0  0  # atno 10167 bound_to 10162
  157.6253  131.1005  150.7255 H   0  0  0  0  0  0  0  0  0  0  0  0  # atno 10718 bound_to 10713
  154.2607  135.2768  155.2779 H   0  0  0  0  0  0  0  0  0  0  0  0  # atno 10763 bound_to 10752
  154.5386  135.5709  153.6823 H   0  0  0  0  0  0  0  0  0  0  0  0  # atno 10764 bound_to 10752
  152.9963  135.6245  154.2758 H   0  0  0  0  0  0  0  0  0  0  0  0  # atno 10765 bound_to 10752
  139.8820  134.9383  156.5735 H   0  0  0  0  0  0  0  0  0  0  0  0  # atno 11005 bound_to 11000
  145.0112  140.8715  143.5223 LP  0  0  0  0  0  0  0  0  0  0  0  0  # atno 17320 bound_to 7965
  145.1615  139.2456  143.5389 LP  0  0  0  0  0  0  0  0  0  0  0  0  # atno 17321 bound_to 7965
  140.0342  144.6057  150.7463 LP  0  0  0  0  0  0  0  0  0  0  0  0  # atno 17342 bound_to 10162
  140.7354  143.2740  151.3799 LP  0  0  0  0  0  0  0  0  0  0  0  0  # atno 17343 bound_to 10162
  156.7605  130.4797  149.5438 LP  0  0  0  0  0  0  0  0  0  0  0  0  # atno 17370 bound_to 10713
  156.1421  130.6252  151.0481 LP  0  0  0  0  0  0  0  0  0  0  0  0  # atno 17371 bound_to 10713
  140.8080  133.8451  155.8785 LP  0  0  0  0  0  0  0  0  0  0  0  0  # atno 17394 bound_to 11000
  140.9532  134.1752  157.4712 LP  0  0  0  0  0  0  0  0  0  0  0  0  # atno 17395 bound_to 11000

$$$$
