AV-unprocessed.smi:114|AV-procd|sdf|1115|dock1
  -GOLD-   2262018233D 1   1.00000     0.00000
 Structure written by MMmdl.
 32 34  0  0  0  0  0  0  0  0  1 V2000
  150.4431  134.0461  156.5261 N   0  0  0  0  0  0  0  0  0  0  0  0
  150.1868  135.3592  156.6105 C   0  0  0  0  0  0  0  0  0  0  0  0
  149.4260  135.8027  157.6382 N   0  0  0  0  0  0  0  0  0  0  0  0
  149.1457  137.1063  157.7584 C   0  0  0  0  0  0  0  0  0  0  0  0
  148.3805  137.4626  158.8167 F   0  0  0  0  0  0  0  0  0  0  0  0
  149.5361  138.0972  156.9498 N   0  0  0  0  0  0  0  0  0  0  0  0
  150.3034  137.6546  155.9118 C   0  0  0  0  0  0  0  0  0  0  0  0
  150.6738  136.3039  155.6743 C   0  0  0  0  0  0  0  0  0  0  0  0
  151.4587  136.2213  154.5324 N   0  0  0  0  0  0  0  0  0  0  0  0
  151.5448  137.4581  154.1211 C   0  0  0  0  0  0  0  0  0  0  0  0
  150.8747  138.3850  154.8892 N   0  0  0  0  0  0  0  0  0  0  0  0
  150.7887  139.8602  154.6677 C   0  0  2  0  0  0  0  0  0  0  0  0
  151.2488  140.4981  155.8190 O   0  0  0  0  0  0  0  0  0  0  0  0
  150.4113  141.6079  156.1204 C   0  0  2  0  0  0  0  0  0  0  0  0
  150.5066  141.9395  157.6174 C   0  0  0  0  0  0  0  0  0  0  0  0
  149.6985  143.0568  157.9192 O   0  0  0  0  0  0  0  0  0  0  0  0
  149.0310  141.1055  155.6930 C   0  0  1  0  0  0  0  0  0  0  0  0
  148.1063  142.1561  155.4795 O   0  0  0  0  0  0  0  0  0  0  0  0
  149.3329  140.2965  154.4328 C   0  0  1  0  0  0  0  0  0  0  0  0
  149.2251  141.0763  153.2557 O   0  0  0  0  0  0  0  0  0  0  0  0
  151.4502  140.0556  153.8223 H   0  0  0  0  0  0  0  0  0  0  0  0
  150.7017  142.4598  155.5018 H   0  0  0  0  0  0  0  0  0  0  0  0
  148.6288  140.4417  156.4587 H   0  0  0  0  0  0  0  0  0  0  0  0
  148.6719  139.4334  154.3403 H   0  0  0  0  0  0  0  0  0  0  0  0
  151.0079  133.6922  155.7672 H   0  0  0  0  0  0  0  0  0  0  0  0
  150.0723  133.4138  157.2204 H   0  0  0  0  0  0  0  0  0  0  0  0
  152.1013  137.7296  153.2356 H   0  0  0  0  0  0  0  0  0  0  0  0
  150.1398  141.1022  158.2117 H   0  0  0  0  0  0  0  0  0  0  0  0
  151.5389  142.1217  157.9184 H   0  0  0  0  0  0  0  0  0  0  0  0
  149.6728  143.6221  157.1623 H   0  0  0  0  0  0  0  0  0  0  0  0
  148.5334  142.9748  155.6805 H   0  0  0  0  0  0  0  0  0  0  0  0
  149.1499  140.4916  152.5169 H   0  0  0  0  0  0  0  0  0  0  0  0
  1  2  1  0  0  0  0
  1 25  1  0  0  0  0
  1 26  1  0  0  0  0
  2  8  1  0  0  0  0
  2  3  2  0  0  0  0
  3  4  1  0  0  0  0
  4  5  1  0  0  0  0
  4  6  2  0  0  0  0
  6  7  1  0  0  0  0
  7 11  1  0  0  0  0
  7  8  2  0  0  0  0
  8  9  1  0  0  0  0
  9 10  2  0  0  0  0
 10 11  1  0  0  0  0
 10 27  1  0  0  0  0
 11 12  1  0  0  0  0
 12 21  1  0  0  0  0
 12 19  1  0  0  0  0
 12 13  1  0  0  0  0
 13 14  1  0  0  0  0
 14 22  1  0  0  0  0
 14 15  1  0  0  0  0
 14 17  1  0  0  0  0
 15 16  1  0  0  0  0
 15 28  1  0  0  0  0
 15 29  1  0  0  0  0
 16 30  1  0  0  0  0
 17 23  1  0  0  0  0
 17 18  1  0  0  0  0
 17 19  1  0  0  0  0
 18 31  1  0  0  0  0
 19 24  1  0  0  0  0
 19 20  1  0  0  0  0
 20 32  1  0  0  0  0
M  END
> <s_m_source_file>
AV-unprocessed.smi

> <i_m_source_file_index>
114

> <i_lp_mmshare_version>
43012

> <i_f3d_flags>
0

> <s_epik_input>
RmMobjEpbmMoW05IMl0pYyhjMTIpbltjSF1uMltDQEBIXTNPW0NASF0oW0NIMl1bT0hdKVtDQEBIXShbT0hdKVtDQEBIXTNbT0hd

> <s_epik_cmdline>
J2VwaWtfcHl0aG9uJywgJy1waCcsICc3LjAnLCAnLXRuJywgJzgnLCAnLW1hJywgJzIwMCcsICctbWV0YWxfYmluZGluZycsICctaW1hZScsICc8aW5maWxlLm1hZT4nLCAnLW9tYWUnLCAnPG91dGZpbGUubWFlPic=

> <r_lp_tautomer_probability>
1

> <r_epik_Ionization_Penalty>
1.13199e-05

> <r_epik_Ionization_Penalty_Charging>
0

> <r_epik_Ionization_Penalty_Neutral>
1.13199e-05

> <r_epik_State_Penalty>
-0

> <r_epik_Charging_Adjusted_Penalty>
0

> <i_epik_Tot_Q>
0

> <i_epik_Tot_abs_Q>
0

> <r_epik_Metal_State_Penalty>
-0

> <b_epik_Metal_Only>
0

> <s_epik_Chemistry_Notes>
This compound contains an acetal/aminal-like group ( X-CH(R)-Y where X, Y are N, S, or O) that may be acid/base labile, releasing an aldehyde.

> <s_lp_Force_Field>
OPLS_2005

> <r_lp_Energy>
39.1628

> <b_lp_Chiralities_Consistent>
1

> <s_lp_Variant>
AV-unprocessed.smi:114-9

> <Gold.Version>
5.8.1

> <Gold.Id.Protein>
6NUR|6NUR_protein|mol2

> <Gold.PLP.Fitness>
43.0337

> <Gold.PLP.PLP>
-27.0248

> <Gold.PLP.part.hbond>
-6.3805

> <Gold.PLP.part.metal>
0.0000

> <Gold.PLP.part.buried>
-0.3337

> <Gold.PLP.part.nonpolar>
-21.5100

> <Gold.PLP.part.repulsive>
0.6958

> <Gold.PLP.ligand.clash>
0.0000

> <Gold.PLP.ligand.torsion>
0.0327

> <Gold.PLP.Chemscore.Hbond>
4.8320

> <Gold.PLP.Chemscore.CHOScore>
0.5218

> <Gold.PLP.Chemscore.Metal>
0.0000

> <Gold.Chemscore.Hbonds>
donor molecule, donor type, donor heavy atom, donor atom, acceptor molecule, acceptor atom, score
      L1  H    16    30       P1  8028  1.00
      L1  H    18    31       P1  8028  1.00
      L1  H    20    32       P1  7957  0.92
      P1  H  8011  8017       L1    20  0.75
      P1  H 10752 10765       L1     9  1.00
      L1  C    10    27       P1  7949  0.33

> <Gold.PLP.Chemscore.Internal.Correction>
0.0128

> <Gold.Rescore>
     Score         DG    S(hbond)    S(metal)    S(lipo)     H(rot)  DE(clash)    DE(int)     intcor
      9.37     -10.90       3.62        0.00      31.06       4.03       1.48       0.05       ----

> <Gold.Chemscore.Fitness>
9.3657

> <Gold.Chemscore.DG>
-10.8955

> <Gold.Chemscore.ZeroCoef>
-5.4800

> <Gold.Chemscore.Hbond>
3.6203

> <Gold.Chemscore.Metal>
0.0000

> <Gold.Chemscore.Lipo>
31.0648

> <Gold.Chemscore.Internal_Hbond>
0.0000

> <Gold.Chemscore.DEClash>
1.4843

> <Gold.Chemscore.DEInternal>
0.0454

> <Gold.Chemscore.Rot>
4.0277

> <Gold.Chemscore.Internal.Correction>
   9.000000E+99

> <Gold.Chemscore.Hbonds>
donor molecule, donor type, donor heavy atom, donor atom, acceptor molecule, acceptor atom, score
      L1  H    16    30       P1  8028  0.86
      L1  H    18    31       P1  8028  0.99
      L1  H    20    32       P1  7957  0.84
      P1  H  8011  8017       L1    20  0.09
      P1  H 10752 10765       L1     9  0.25

> <Gold.Chemscore.Hbond.Weighted>
-12.0919

> <Gold.Chemscore.Metal.Weighted>
-0.0000

> <Gold.Chemscore.Lipo.Weighted>
-3.6346

> <Gold.Chemscore.Internal_Hbond.Weighted>
0.0000

> <Gold.Chemscore.DEClash.Weighted>
1.4843

> <Gold.Chemscore.DEInternal.Weighted>
0.0454

> <Gold.Chemscore.Rot.Weighted>
10.3110

> <Gold.Chemscore.Internal.Correction.Weighted>
   9.000000E+99

> <Gold.Protein.RotatedTorsions>
[ 6907 6896 6895 6894 ] final   33.37 input  -60.11 | X-H torsion
[ 7974 7965 7964 7962 ] final  166.63 input  175.53 | X-H torsion
[ 8008 7997 7996 7995 ] final  -50.90 input   59.86 | X-H torsion
[ 10167 10162 10161 10158 ] final   18.48 input  -65.29 | X-H torsion
[ 10718 10713 10712 10709 ] final  146.92 input   66.30 | X-H torsion
[ 10763 10752 10751 10750 ] final  151.91 input  -60.55 | X-H torsion
[ 11005 11000 10999 10996 ] final  -91.49 input  -57.11 | X-H torsion

> <Gold.Protein.ActiveResidues>
 VAL166  LYS551  ARG553  GLY616  TRP617  ASP618  TYR619  PRO620  LYS621  CYS622 
 ASP623  PHE694  ASN695  SER759  ASP760  ASP761  ALA762  ILE779  LEU786  VAL792 
 PHE793  MET794  SER795  GLU796  ALA797  LYS798  CYS799  TRP800  GLU811  SER814 

> <Gold.Protein.RotatedAtoms>
  152.0875  134.9429  160.0572 H   0  0  0  0  0  0  0  0  0  0  0  0  # atno 6907 bound_to 6896
  152.0694  133.4094  159.4460 H   0  0  0  0  0  0  0  0  0  0  0  0  # atno 6908 bound_to 6896
  150.6836  134.3029  159.4757 H   0  0  0  0  0  0  0  0  0  0  0  0  # atno 6909 bound_to 6896
  144.7455  139.8644  143.6383 H   0  0  0  0  0  0  0  0  0  0  0  0  # atno 7974 bound_to 7965
  154.4071  140.1261  156.4741 H   0  0  0  0  0  0  0  0  0  0  0  0  # atno 8008 bound_to 7997
  155.7150  140.3493  155.4971 H   0  0  0  0  0  0  0  0  0  0  0  0  # atno 8009 bound_to 7997
  155.9266  140.1062  157.1155 H   0  0  0  0  0  0  0  0  0  0  0  0  # atno 8010 bound_to 7997
  140.5650  143.9268  150.6670 H   0  0  0  0  0  0  0  0  0  0  0  0  # atno 10167 bound_to 10162
  157.3274  131.0914  151.1191 H   0  0  0  0  0  0  0  0  0  0  0  0  # atno 10718 bound_to 10713
  154.1114  135.2839  155.3229 H   0  0  0  0  0  0  0  0  0  0  0  0  # atno 10763 bound_to 10752
  154.6487  135.5376  153.7879 H   0  0  0  0  0  0  0  0  0  0  0  0  # atno 10764 bound_to 10752
  153.0344  135.6504  154.1272 H   0  0  0  0  0  0  0  0  0  0  0  0  # atno 10765 bound_to 10752
  141.1543  133.7759  156.9886 H   0  0  0  0  0  0  0  0  0  0  0  0  # atno 11005 bound_to 11000
  146.1325  139.4364  143.0159 LP  0  0  0  0  0  0  0  0  0  0  0  0  # atno 17320 bound_to 7965
  145.7141  141.0097  143.1438 LP  0  0  0  0  0  0  0  0  0  0  0  0  # atno 17321 bound_to 7965
  140.2728  143.3444  152.1222 LP  0  0  0  0  0  0  0  0  0  0  0  0  # atno 17342 bound_to 10162
  139.5088  144.6857  151.5894 LP  0  0  0  0  0  0  0  0  0  0  0  0  # atno 17343 bound_to 10162
  157.2453  130.6588  149.5907 LP  0  0  0  0  0  0  0  0  0  0  0  0  # atno 17370 bound_to 10713
  155.9692  130.4555  150.5892 LP  0  0  0  0  0  0  0  0  0  0  0  0  # atno 17371 bound_to 10713
  140.1017  134.9531  157.1934 LP  0  0  0  0  0  0  0  0  0  0  0  0  # atno 17394 bound_to 11000
  140.3309  134.2811  155.7228 LP  0  0  0  0  0  0  0  0  0  0  0  0  # atno 17395 bound_to 11000

$$$$
