AV-unprocessed.smi:1870|AV-procd|sdf|7598|dock7
  -GOLD-   22720 9313D 1   1.00000     0.00000
 Structure written by MMmdl.
 47 49  0  0  0  0  0  0  0  0  1 V2000
  147.2622  137.0851  163.0184 C   0  0  0  0  0  0  0  0  0  0  0  0
  147.6495  136.3589  161.7586 C   0  0  0  0  0  0  0  0  0  0  0  0
  148.2957  137.0411  160.8711 N   0  0  0  0  0  0  0  0  0  0  0  0
  148.6928  136.4740  159.6766 N   0  0  0  0  0  0  0  0  0  0  0  0
  149.4099  137.3970  158.7873 C   0  0  0  0  0  0  0  0  0  0  0  0
  150.8937  137.0000  158.6156 C   0  0  1  0  0  0  0  0  0  0  0  0
  150.9509  135.9171  157.7086 O   0  0  0  0  0  0  0  0  0  0  0  0
  151.7978  138.1016  158.0239 C   0  0  0  0  0  0  0  0  0  0  0  0
  151.4344  139.4647  158.4161 N   0  0  0  0  0  0  0  0  0  0  0  0
  151.0616  140.2925  157.2698 C   0  0  0  0  0  0  0  0  0  0  0  0
  150.4182  141.6142  157.7169 C   0  0  0  0  0  0  0  0  0  0  0  0
  151.2176  142.2941  158.8170 C   0  0  0  0  0  0  0  0  0  0  0  0
  150.9534  143.6363  159.1580 C   0  0  0  0  0  0  0  0  0  0  0  0
  151.6765  144.2563  160.1953 C   0  0  0  0  0  0  0  0  0  0  0  0
  152.6650  143.5363  160.8937 C   0  0  0  0  0  0  0  0  0  0  0  0
  152.9324  142.1953  160.5557 C   0  0  0  0  0  0  0  0  0  0  0  0
  152.2077  141.5676  159.5217 C   0  0  0  0  0  0  0  0  0  0  0  0
  152.5229  140.1262  159.1391 C   0  0  0  0  0  0  0  0  0  0  0  0
  148.4541  135.1810  159.3131 C   0  0  0  0  0  0  0  0  0  0  0  0
  148.8183  134.7180  158.2311 O   0  0  0  0  0  0  0  0  0  0  0  0
  147.7271  134.4119  160.3257 C   0  0  0  0  0  0  0  0  0  0  0  0
  147.4572  133.0518  159.9868 C   0  0  0  0  0  0  0  0  0  0  0  0
  147.2331  131.9546  159.6930 N   0  0  0  0  0  0  0  0  0  0  0  0
  147.3348  134.9566  161.5045 C   0  0  0  0  0  0  0  0  0  0  0  0
  146.5752  134.2015  162.5867 C   0  0  0  0  0  0  0  0  0  0  0  0
  146.1881  137.0155  163.1918 H   0  0  0  0  0  0  0  0  0  0  0  0
  147.5183  138.1448  162.9721 H   0  0  0  0  0  0  0  0  0  0  0  0
  147.7733  136.6592  163.8821 H   0  0  0  0  0  0  0  0  0  0  0  0
  148.9179  137.4687  157.8153 H   0  0  0  0  0  0  0  0  0  0  0  0
  149.3327  138.3929  159.2206 H   0  0  0  0  0  0  0  0  0  0  0  0
  151.3161  136.6746  159.5671 H   0  0  0  0  0  0  0  0  0  0  0  0
  150.4841  135.1870  158.0858 H   0  0  0  0  0  0  0  0  0  0  0  0
  152.8115  137.8917  158.3699 H   0  0  0  0  0  0  0  0  0  0  0  0
  151.8470  138.0166  156.9369 H   0  0  0  0  0  0  0  0  0  0  0  0
  151.9500  140.5044  156.6723 H   0  0  0  0  0  0  0  0  0  0  0  0
  150.3765  139.7697  156.6053 H   0  0  0  0  0  0  0  0  0  0  0  0
  150.3151  142.2878  156.8655 H   0  0  0  0  0  0  0  0  0  0  0  0
  149.4134  141.4241  158.0959 H   0  0  0  0  0  0  0  0  0  0  0  0
  150.1933  144.1913  158.6281 H   0  0  0  0  0  0  0  0  0  0  0  0
  151.4719  145.2841  160.4560 H   0  0  0  0  0  0  0  0  0  0  0  0
  153.2197  144.0134  161.6880 H   0  0  0  0  0  0  0  0  0  0  0  0
  153.6965  141.6506  161.0908 H   0  0  0  0  0  0  0  0  0  0  0  0
  152.7503  139.5680  160.0482 H   0  0  0  0  0  0  0  0  0  0  0  0
  153.4304  140.1266  158.5330 H   0  0  0  0  0  0  0  0  0  0  0  0
  146.4801  133.1401  162.3592 H   0  0  0  0  0  0  0  0  0  0  0  0
  145.5693  134.6071  162.6983 H   0  0  0  0  0  0  0  0  0  0  0  0
  147.0872  134.2817  163.5462 H   0  0  0  0  0  0  0  0  0  0  0  0
  1  2  1  0  0  0  0
  1 26  1  0  0  0  0
  1 27  1  0  0  0  0
  1 28  1  0  0  0  0
  2 24  1  0  0  0  0
  2  3  2  0  0  0  0
  3  4  1  0  0  0  0
  4  5  1  0  0  0  0
  4 19  1  0  0  0  0
  5  6  1  0  0  0  0
  5 29  1  0  0  0  0
  5 30  1  0  0  0  0
  6  7  1  0  0  0  0
  6  8  1  0  0  0  0
  6 31  1  0  0  0  0
  7 32  1  0  0  0  0
  8  9  1  0  0  0  0
  8 33  1  0  0  0  0
  8 34  1  0  0  0  0
  9 18  1  0  0  0  0
  9 10  1  0  0  0  0
 10 11  1  0  0  0  0
 10 35  1  0  0  0  0
 10 36  1  0  0  0  0
 11 12  1  0  0  0  0
 11 37  1  0  0  0  0
 11 38  1  0  0  0  0
 12 17  2  0  0  0  0
 12 13  1  0  0  0  0
 13 14  2  0  0  0  0
 13 39  1  0  0  0  0
 14 15  1  0  0  0  0
 14 40  1  0  0  0  0
 15 16  2  0  0  0  0
 15 41  1  0  0  0  0
 16 17  1  0  0  0  0
 16 42  1  0  0  0  0
 17 18  1  0  0  0  0
 18 43  1  0  0  0  0
 18 44  1  0  0  0  0
 19 20  2  0  0  0  0
 19 21  1  0  0  0  0
 21 22  1  0  0  0  0
 21 24  2  0  0  0  0
 22 23  3  0  0  0  0
 24 25  1  0  0  0  0
 25 45  1  0  0  0  0
 25 46  1  0  0  0  0
 25 47  1  0  0  0  0
M  END
> <s_m_source_file>
AV-unprocessed.smi

> <i_m_source_file_index>
1870

> <i_lp_mmshare_version>
43012

> <i_f3d_flags>
0

> <s_epik_input>
TiNDYyhjMVtDSDNdKWMoPU8pbihuYzFbQ0gzXSlbQ0gyXVtDQEhdKFtPSF0pW0NIMl1OKFtDSDJdW0NIMl0yKVtDSDJdYyhjMjMpW2NIXVtjSF1bY0hdW2NIXTM=

> <s_epik_cmdline>
J2VwaWtfcHl0aG9uJywgJy1waCcsICc3LjAnLCAnLXRuJywgJzgnLCAnLW1hJywgJzIwMCcsICctbWV0YWxfYmluZGluZycsICctaW1hZScsICc8aW5maWxlLm1hZT4nLCAnLW9tYWUnLCAnPG91dGZpbGUubWFlPic=

> <r_epik_Ionization_Penalty>
2.30251

> <r_epik_Ionization_Penalty_Charging>
1.06171e-10

> <r_epik_Ionization_Penalty_Neutral>
2.30251

> <r_epik_State_Penalty>
2.45335

> <r_epik_Charging_Adjusted_Penalty>
2.45335

> <i_epik_Tot_Q>
0

> <i_epik_Tot_abs_Q>
0

> <r_epik_Metal_State_Penalty>
2.45335

> <b_epik_Metal_Only>
0

> <s_lp_Force_Field>
OPLS_2005

> <r_lp_Energy>
48.2343

> <b_lp_Chiralities_Consistent>
1

> <s_lp_Variant>
AV-unprocessed.smi:1870-6

> <Gold.Version>
5.8.1

> <Gold.Id.Protein>
6NUR|6NUR_protein|mol2

> <Gold.PLP.Fitness>
50.7750

> <Gold.PLP.PLP>
-46.6505

> <Gold.PLP.part.hbond>
-3.8819

> <Gold.PLP.part.metal>
0.0000

> <Gold.PLP.part.buried>
-2.3529

> <Gold.PLP.part.nonpolar>
-41.3128

> <Gold.PLP.part.repulsive>
0.0000

> <Gold.PLP.ligand.clash>
0.0000

> <Gold.PLP.ligand.torsion>
1.2450

> <Gold.PLP.Chemscore.Hbond>
2.2000

> <Gold.PLP.Chemscore.CHOScore>
0.0000

> <Gold.PLP.Chemscore.Metal>
0.0000

> <Gold.Chemscore.Hbonds>
donor molecule, donor type, donor heavy atom, donor atom, acceptor molecule, acceptor atom, score
      P1  H  6931  6943       L1     3  0.98
      P1  H  6934  6947       L1     3  0.27

> <Gold.PLP.Chemscore.Internal.Correction>
0.0144

> <Gold.Rescore>
     Score         DG    S(hbond)    S(metal)    S(lipo)     H(rot)  DE(clash)    DE(int)     intcor
     16.11     -19.09       0.96        0.00     134.73       2.10       0.10       2.88       ----

> <Gold.Chemscore.Fitness>
16.1134

> <Gold.Chemscore.DG>
-19.0941

> <Gold.Chemscore.ZeroCoef>
-5.4800

> <Gold.Chemscore.Hbond>
0.9637

> <Gold.Chemscore.Metal>
0.0000

> <Gold.Chemscore.Lipo>
134.7331

> <Gold.Chemscore.Internal_Hbond>
0.0000

> <Gold.Chemscore.DEClash>
0.1006

> <Gold.Chemscore.DEInternal>
2.8802

> <Gold.Chemscore.Rot>
2.0971

> <Gold.Chemscore.Internal.Correction>
   9.000000E+99

> <Gold.Chemscore.Hbonds>
donor molecule, donor type, donor heavy atom, donor atom, acceptor molecule, acceptor atom, score
      P1  H  6931  6943       L1     3  0.24
      P1  H  6934  6947       L1     3  0.09

> <Gold.Chemscore.Hbond.Weighted>
-3.2189

> <Gold.Chemscore.Metal.Weighted>
-0.0000

> <Gold.Chemscore.Lipo.Weighted>
-15.7638

> <Gold.Chemscore.Internal_Hbond.Weighted>
0.0000

> <Gold.Chemscore.DEClash.Weighted>
0.1006

> <Gold.Chemscore.DEInternal.Weighted>
2.8802

> <Gold.Chemscore.Rot.Weighted>
5.3685

> <Gold.Chemscore.Internal.Correction.Weighted>
   9.000000E+99

> <Gold.Protein.RotatedTorsions>
[ 6907 6896 6895 6894 ] final   37.33 input  -60.11 | X-H torsion
[ 7974 7965 7964 7962 ] final   50.02 input  175.53 | X-H torsion
[ 8008 7997 7996 7995 ] final  -58.53 input   59.86 | X-H torsion
[ 10167 10162 10161 10158 ] final   30.42 input  -65.29 | X-H torsion
[ 10718 10713 10712 10709 ] final  -41.89 input   66.30 | X-H torsion
[ 10763 10752 10751 10750 ] final   81.19 input  -60.55 | X-H torsion
[ 11005 11000 10999 10996 ] final   75.23 input  -57.11 | X-H torsion

> <Gold.Protein.ActiveResidues>
 VAL166  LYS551  ARG553  GLY616  TRP617  ASP618  TYR619  PRO620  LYS621  CYS622 
 ASP623  PHE694  ASN695  SER759  ASP760  ASP761  ALA762  ILE779  LEU786  VAL792 
 PHE793  MET794  SER795  GLU796  ALA797  LYS798  CYS799  TRP800  GLU811  SER814 

> <Gold.Protein.RotatedAtoms>
  152.1418  134.9057  160.0553 H   0  0  0  0  0  0  0  0  0  0  0  0  # atno 6907 bound_to 6896
  152.0122  133.3861  159.4232 H   0  0  0  0  0  0  0  0  0  0  0  0  # atno 6908 bound_to 6896
  150.6866  134.3639  159.5006 H   0  0  0  0  0  0  0  0  0  0  0  0  # atno 6909 bound_to 6896
  146.0052  139.4483  142.9990 H   0  0  0  0  0  0  0  0  0  0  0  0  # atno 7974 bound_to 7965
  154.4313  140.1082  156.5972 H   0  0  0  0  0  0  0  0  0  0  0  0  # atno 8008 bound_to 7997
  155.5949  140.3492  155.4558 H   0  0  0  0  0  0  0  0  0  0  0  0  # atno 8009 bound_to 7997
  156.0218  140.1241  157.0339 H   0  0  0  0  0  0  0  0  0  0  0  0  # atno 8010 bound_to 7997
  140.4679  144.0807  150.6229 H   0  0  0  0  0  0  0  0  0  0  0  0  # atno 10167 bound_to 10162
  156.2655  130.4201  149.8495 H   0  0  0  0  0  0  0  0  0  0  0  0  # atno 10718 bound_to 10713
  153.1096  135.4774  154.9012 H   0  0  0  0  0  0  0  0  0  0  0  0  # atno 10763 bound_to 10752
  154.7467  135.3095  154.8635 H   0  0  0  0  0  0  0  0  0  0  0  0  # atno 10764 bound_to 10752
  153.9228  135.6853  153.4801 H   0  0  0  0  0  0  0  0  0  0  0  0  # atno 10765 bound_to 10752
  139.9353  134.7500  156.1246 H   0  0  0  0  0  0  0  0  0  0  0  0  # atno 11005 bound_to 11000
  145.7426  141.0002  143.1293 LP  0  0  0  0  0  0  0  0  0  0  0  0  # atno 17320 bound_to 7965
  144.6933  139.9118  143.7464 LP  0  0  0  0  0  0  0  0  0  0  0  0  # atno 17321 bound_to 7965
  140.4013  143.2702  151.9944 LP  0  0  0  0  0  0  0  0  0  0  0  0  # atno 17342 bound_to 10162
  139.4814  144.5995  151.7631 LP  0  0  0  0  0  0  0  0  0  0  0  0  # atno 17343 bound_to 10162
  156.5996  130.8541  151.3428 LP  0  0  0  0  0  0  0  0  0  0  0  0  # atno 17370 bound_to 10713
  157.7265  130.9631  150.1661 LP  0  0  0  0  0  0  0  0  0  0  0  0  # atno 17371 bound_to 10713
  141.0964  133.6694  156.2654 LP  0  0  0  0  0  0  0  0  0  0  0  0  # atno 17394 bound_to 11000
  140.6092  134.5476  157.5530 LP  0  0  0  0  0  0  0  0  0  0  0  0  # atno 17395 bound_to 11000

$$$$
