AV-unprocessed.smi:2685|AV-procd|sdf|10383|dock3
  -GOLD-   2272014413D 1   1.00000     0.00000
 Structure written by MMmdl.
 21 21  0  0  0  0  0  0  0  0  3 V2000
  144.0962  136.0454  162.7053 C   0  0  0  0  0  0  0  0  0  0  0  0
  144.6470  134.6808  162.3324 C   0  0  0  0  0  0  0  0  0  0  0  0
  143.8459  133.7605  161.9320 N   0  0  0  0  0  0  0  0  0  0  0  0
  144.3044  132.4748  161.5858 C   0  0  0  0  0  0  0  0  0  0  0  0
  143.4933  131.6346  161.2025 O   0  0  0  0  0  0  0  0  0  0  0  0
  145.6445  132.2051  161.6896 N   0  5  0  0  0  0  0  0  0  0  0  0
  146.5168  133.1538  162.1132 C   0  0  0  0  0  0  0  0  0  0  0  0
  147.9780  132.7376  162.1978 C   0  0  0  0  0  0  0  0  0  0  0  0
  146.1117  134.4391  162.4423 C   0  0  0  0  0  0  0  0  0  0  0  0
  147.0460  135.5540  162.9202 C   0  0  0  0  0  0  0  0  0  0  0  0
  147.4703  136.5568  161.8396 C   0  0  0  0  0  0  0  0  0  0  0  0
  146.5588  137.2484  161.3348 O   0  0  0  0  0  0  0  0  0  0  0  0
  148.6796  136.6183  161.5239 O   0  5  0  0  0  0  0  0  0  0  0  0
  144.4133  136.3270  163.7094 H   0  0  0  0  0  0  0  0  0  0  0  0
  143.0057  136.0410  162.6884 H   0  0  0  0  0  0  0  0  0  0  0  0
  144.4410  136.8007  161.9991 H   0  0  0  0  0  0  0  0  0  0  0  0
  148.5739  133.2645  161.4528 H   0  0  0  0  0  0  0  0  0  0  0  0
  148.1072  131.6681  162.0268 H   0  0  0  0  0  0  0  0  0  0  0  0
  148.3904  132.9615  163.1818 H   0  0  0  0  0  0  0  0  0  0  0  0
  146.5582  136.1126  163.7184 H   0  0  0  0  0  0  0  0  0  0  0  0
  147.9377  135.1314  163.3824 H   0  0  0  0  0  0  0  0  0  0  0  0
  1  2  1  0  0  0  0
  1 14  1  0  0  0  0
  1 15  1  0  0  0  0
  1 16  1  0  0  0  0
  2  9  1  0  0  0  0
  2  3  2  0  0  0  0
  3  4  1  0  0  0  0
  4  5  2  0  0  0  0
  4  6  1  0  0  0  0
  6  7  1  0  0  0  0
  7  8  1  0  0  0  0
  7  9  2  0  0  0  0
  8 17  1  0  0  0  0
  8 18  1  0  0  0  0
  8 19  1  0  0  0  0
  9 10  1  0  0  0  0
 10 11  1  0  0  0  0
 10 20  1  0  0  0  0
 10 21  1  0  0  0  0
 11 12  2  0  0  0  0
 11 13  1  0  0  0  0
M  CHG  1   6  -1
M  CHG  1  13  -1
M  END
> <s_m_source_file>
AV-unprocessed.smi

> <i_m_source_file_index>
2685

> <i_lp_mmshare_version>
43012

> <i_f3d_flags>
0

> <s_epik_input>
W0NIM11jMW5jKD1PKVtuSF1jKFtDSDNdKWMxW0NIMl1DKD1PKVtPSF0=

> <s_epik_cmdline>
J2VwaWtfcHl0aG9uJywgJy1waCcsICc3LjAnLCAnLXRuJywgJzgnLCAnLW1hJywgJzIwMCcsICctbWV0YWxfYmluZGluZycsICctaW1hZScsICc8aW5maWxlLm1hZT4nLCAnLW9tYWUnLCAnPG91dGZpbGUubWFlPic=

> <r_lp_tautomer_probability>
1

> <r_epik_Ionization_Penalty>
5.93788

> <r_epik_Ionization_Penalty_Charging>
0.439901

> <r_epik_Ionization_Penalty_Neutral>
5.49798

> <r_epik_State_Penalty>
5.49792

> <r_epik_Charging_Adjusted_Penalty>
5.93782

> <i_epik_Tot_Q>
-2

> <i_epik_Tot_abs_Q>
2

> <r_epik_Metal_State_Penalty>
1.50795

> <b_epik_Metal_Only>
1

> <s_lp_Force_Field>
OPLS_2005

> <r_lp_Energy>
12.6786

> <b_lp_Chiralities_Consistent>
1

> <s_lp_Variant>
AV-unprocessed.smi:2685-2

> <Gold.Version>
5.8.1

> <Gold.Id.Protein>
6NUR|6NUR_protein|mol2

> <Gold.PLP.Fitness>
35.2314

> <Gold.PLP.PLP>
-23.8853

> <Gold.PLP.part.hbond>
-2.1005

> <Gold.PLP.part.metal>
0.0000

> <Gold.PLP.part.buried>
-3.5805

> <Gold.PLP.part.nonpolar>
-18.0671

> <Gold.PLP.part.repulsive>
0.1998

> <Gold.PLP.ligand.clash>
0.0000

> <Gold.PLP.ligand.torsion>
0.3276

> <Gold.PLP.Chemscore.Hbond>
4.0000

> <Gold.PLP.Chemscore.CHOScore>
0.0000

> <Gold.PLP.Chemscore.Metal>
0.0000

> <Gold.Chemscore.Hbonds>
donor molecule, donor type, donor heavy atom, donor atom, acceptor molecule, acceptor atom, score
      P1  H  6931  6943       L1    13  2.00
      P1  H  6934  6947       L1    12  2.00

> <Gold.PLP.Chemscore.Internal.Correction>
0.0014

> <Gold.Rescore>
     Score         DG    S(hbond)    S(metal)    S(lipo)     H(rot)  DE(clash)    DE(int)     intcor
     12.13     -12.54       1.85        0.00      40.42       1.50       0.01       0.40       ----

> <Gold.Chemscore.Fitness>
12.1321

> <Gold.Chemscore.DG>
-12.5405

> <Gold.Chemscore.ZeroCoef>
-5.4800

> <Gold.Chemscore.Hbond>
1.8457

> <Gold.Chemscore.Metal>
0.0000

> <Gold.Chemscore.Lipo>
40.4161

> <Gold.Chemscore.Internal_Hbond>
0.0000

> <Gold.Chemscore.DEClash>
0.0060

> <Gold.Chemscore.DEInternal>
0.4024

> <Gold.Chemscore.Rot>
1.4972

> <Gold.Chemscore.Internal.Correction>
   9.000000E+99

> <Gold.Chemscore.Hbonds>
donor molecule, donor type, donor heavy atom, donor atom, acceptor molecule, acceptor atom, score
      P1  H  6931  6943       L1    13  0.35
      P1  H  6934  6947       L1    12  0.78

> <Gold.Chemscore.Hbond.Weighted>
-6.1647

> <Gold.Chemscore.Metal.Weighted>
-0.0000

> <Gold.Chemscore.Lipo.Weighted>
-4.7287

> <Gold.Chemscore.Internal_Hbond.Weighted>
0.0000

> <Gold.Chemscore.DEClash.Weighted>
0.0060

> <Gold.Chemscore.DEInternal.Weighted>
0.4024

> <Gold.Chemscore.Rot.Weighted>
3.8329

> <Gold.Chemscore.Internal.Correction.Weighted>
   9.000000E+99

> <Gold.Protein.RotatedTorsions>
[ 6907 6896 6895 6894 ] final  160.33 input  -60.11 | X-H torsion
[ 7974 7965 7964 7962 ] final  112.45 input  175.53 | X-H torsion
[ 8008 7997 7996 7995 ] final   89.34 input   59.86 | X-H torsion
[ 10167 10162 10161 10158 ] final   11.93 input  -65.29 | X-H torsion
[ 10718 10713 10712 10709 ] final -148.74 input   66.30 | X-H torsion
[ 10763 10752 10751 10750 ] final  144.43 input  -60.55 | X-H torsion
[ 11005 11000 10999 10996 ] final -156.78 input  -57.11 | X-H torsion

> <Gold.Protein.ActiveResidues>
 VAL166  LYS551  ARG553  GLY616  TRP617  ASP618  TYR619  PRO620  LYS621  CYS622 
 ASP623  PHE694  ASN695  SER759  ASP760  ASP761  ALA762  ILE779  LEU786  VAL792 
 PHE793  MET794  SER795  GLU796  ALA797  LYS798  CYS799  TRP800  GLU811  SER814 

> <Gold.Protein.RotatedAtoms>
  151.9723  133.3730  159.4075 H   0  0  0  0  0  0  0  0  0  0  0  0  # atno 6907 bound_to 6896
  150.6947  134.4127  159.5178 H   0  0  0  0  0  0  0  0  0  0  0  0  # atno 6908 bound_to 6896
  152.1833  134.8735  160.0575 H   0  0  0  0  0  0  0  0  0  0  0  0  # atno 6909 bound_to 6896
  145.2294  139.2826  143.4176 H   0  0  0  0  0  0  0  0  0  0  0  0  # atno 7974 bound_to 7965
  155.9988  140.3362  155.6825 H   0  0  0  0  0  0  0  0  0  0  0  0  # atno 8008 bound_to 7997
  155.6319  140.0686  157.2664 H   0  0  0  0  0  0  0  0  0  0  0  0  # atno 8009 bound_to 7997
  154.4242  140.1758  156.1469 H   0  0  0  0  0  0  0  0  0  0  0  0  # atno 8010 bound_to 7997
  140.6100  143.8427  150.7055 H   0  0  0  0  0  0  0  0  0  0  0  0  # atno 10167 bound_to 10162
  156.4242  130.8044  151.2268 H   0  0  0  0  0  0  0  0  0  0  0  0  # atno 10718 bound_to 10713
  153.9887  135.2934  155.3414 H   0  0  0  0  0  0  0  0  0  0  0  0  # atno 10763 bound_to 10752
  154.7227  135.5102  153.8840 H   0  0  0  0  0  0  0  0  0  0  0  0  # atno 10764 bound_to 10752
  153.0820  135.6682  154.0142 H   0  0  0  0  0  0  0  0  0  0  0  0  # atno 10765 bound_to 10752
  140.6718  134.4239  157.5231 H   0  0  0  0  0  0  0  0  0  0  0  0  # atno 11005 bound_to 11000
  146.3357  140.2624  142.8602 LP  0  0  0  0  0  0  0  0  0  0  0  0  # atno 17320 bound_to 7965
  144.9691  140.8351  143.5466 LP  0  0  0  0  0  0  0  0  0  0  0  0  # atno 17321 bound_to 7965
  140.1993  143.3972  152.1804 LP  0  0  0  0  0  0  0  0  0  0  0  0  # atno 17342 bound_to 10162
  139.5354  144.7204  151.4911 LP  0  0  0  0  0  0  0  0  0  0  0  0  # atno 17343 bound_to 10162
  157.7508  131.0218  150.3767 LP  0  0  0  0  0  0  0  0  0  0  0  0  # atno 17370 bound_to 10713
  156.4091  130.3930  149.6904 LP  0  0  0  0  0  0  0  0  0  0  0  0  # atno 17371 bound_to 10713
  139.8979  134.8626  156.2024 LP  0  0  0  0  0  0  0  0  0  0  0  0  # atno 17394 bound_to 11000
  141.0386  133.6950  156.1557 LP  0  0  0  0  0  0  0  0  0  0  0  0  # atno 17395 bound_to 11000

$$$$
