AV-unprocessed.smi:2289|AV-procd|sdf|9208|dock9
  -GOLD-   2272012423D 1   1.00000     0.00000
 Structure written by MMmdl.
 40 41  0  0  0  0  0  0  0  0  1 V2000
  152.0498  139.1115  155.8069 C   0  0  0  0  0  0  0  0  0  0  0  0
  150.7432  139.4137  155.0947 C   0  0  0  0  0  0  0  0  0  0  0  0
  150.1663  138.3405  154.4104 N   0  0  0  0  0  0  0  0  0  0  0  0
  149.0551  138.5065  153.7712 C   0  0  0  0  0  0  0  0  0  0  0  0
  148.3988  139.7481  153.7371 N   0  0  0  0  0  0  0  0  0  0  0  0
  147.1364  139.7830  152.9735 C   0  0  0  0  0  0  0  0  0  0  0  0
  146.7116  138.4199  152.3673 C   0  0  2  0  0  0  0  0  0  0  0  0
  146.5666  138.5646  150.9682 O   0  0  0  0  0  0  0  0  0  0  0  0
  145.4489  137.7690  152.9761 C   0  0  0  0  0  0  0  0  0  0  0  0
  145.2158  136.3465  152.4821 C   0  0  0  0  0  0  0  0  0  0  0  0
  146.2768  135.7002  151.8111 C   0  0  0  0  0  0  0  0  0  0  0  0
  146.1311  134.3872  151.3301 C   0  0  0  0  0  0  0  0  0  0  0  0
  144.9151  133.7081  151.5140 C   0  0  0  0  0  0  0  0  0  0  0  0
  143.8495  134.3432  152.1778 C   0  0  0  0  0  0  0  0  0  0  0  0
  143.9816  135.6629  152.6716 C   0  0  0  0  0  0  0  0  0  0  0  0
  142.7917  136.3169  153.3776 C   0  0  0  0  0  0  0  0  0  0  0  0
  141.7184  135.5252  153.3677 F   0  0  0  0  0  0  0  0  0  0  0  0
  143.0782  136.5830  154.6517 F   0  0  0  0  0  0  0  0  0  0  0  0
  142.4668  137.4508  152.7565 F   0  0  0  0  0  0  0  0  0  0  0  0
  148.8875  140.8440  154.3895 C   0  0  0  0  0  0  0  0  0  0  0  0
  148.3037  141.9294  154.3647 O   0  0  0  0  0  0  0  0  0  0  0  0
  150.1551  140.6410  155.1095 C   0  0  0  0  0  0  0  0  0  0  0  0
  150.7375  141.8461  155.8377 C   0  0  0  0  0  0  0  0  0  0  0  0
  151.9459  139.2753  156.8798 H   0  0  0  0  0  0  0  0  0  0  0  0
  152.8477  139.7521  155.4309 H   0  0  0  0  0  0  0  0  0  0  0  0
  152.3556  138.0757  155.6545 H   0  0  0  0  0  0  0  0  0  0  0  0
  148.5624  137.7022  153.2221 H   0  0  0  0  0  0  0  0  0  0  0  0
  146.3317  140.1959  153.5855 H   0  0  0  0  0  0  0  0  0  0  0  0
  147.2234  140.4989  152.1548 H   0  0  0  0  0  0  0  0  0  0  0  0
  147.5537  137.7415  152.5084 H   0  0  0  0  0  0  0  0  0  0  0  0
  145.6449  138.5597  150.7591 H   0  0  0  0  0  0  0  0  0  0  0  0
  145.5242  137.7502  154.0600 H   0  0  0  0  0  0  0  0  0  0  0  0
  144.5686  138.3776  152.7631 H   0  0  0  0  0  0  0  0  0  0  0  0
  147.2157  136.2146  151.6653 H   0  0  0  0  0  0  0  0  0  0  0  0
  146.9510  133.9032  150.8200 H   0  0  0  0  0  0  0  0  0  0  0  0
  144.7980  132.7002  151.1443 H   0  0  0  0  0  0  0  0  0  0  0  0
  142.9248  133.7996  152.2998 H   0  0  0  0  0  0  0  0  0  0  0  0
  150.9327  142.6536  155.1315 H   0  0  0  0  0  0  0  0  0  0  0  0
  151.6720  141.6271  156.3515 H   0  0  0  0  0  0  0  0  0  0  0  0
  150.0313  142.2123  156.5836 H   0  0  0  0  0  0  0  0  0  0  0  0
  1  2  1  0  0  0  0
  1 24  1  0  0  0  0
  1 25  1  0  0  0  0
  1 26  1  0  0  0  0
  2 22  2  0  0  0  0
  2  3  1  0  0  0  0
  3  4  2  0  0  0  0
  4  5  1  0  0  0  0
  4 27  1  0  0  0  0
  5  6  1  0  0  0  0
  5 20  1  0  0  0  0
  6  7  1  0  0  0  0
  6 28  1  0  0  0  0
  6 29  1  0  0  0  0
  7  8  1  0  0  0  0
  7  9  1  0  0  0  0
  7 30  1  0  0  0  0
  8 31  1  0  0  0  0
  9 10  1  0  0  0  0
  9 32  1  0  0  0  0
  9 33  1  0  0  0  0
 10 15  1  0  0  0  0
 10 11  2  0  0  0  0
 11 12  1  0  0  0  0
 11 34  1  0  0  0  0
 12 13  2  0  0  0  0
 12 35  1  0  0  0  0
 13 14  1  0  0  0  0
 13 36  1  0  0  0  0
 14 15  2  0  0  0  0
 14 37  1  0  0  0  0
 15 16  1  0  0  0  0
 16 17  1  0  0  0  0
 16 18  1  0  0  0  0
 16 19  1  0  0  0  0
 20 21  2  0  0  0  0
 20 22  1  0  0  0  0
 22 23  1  0  0  0  0
 23 38  1  0  0  0  0
 23 39  1  0  0  0  0
 23 40  1  0  0  0  0
M  END
> <s_m_source_file>
AV-unprocessed.smi

> <i_m_source_file_index>
2289

> <i_lp_mmshare_version>
43012

> <i_f3d_flags>
0

> <s_epik_input>
W0NIM11jMW5bY0hdbihjKD1PKWMxW0NIM10pW0NIMl1bQ0BIXShbT0hdKVtDSDJdYzJbY0hdW2NIXVtjSF1bY0hdYzJDKEYpKEYpRg==

> <s_epik_cmdline>
J2VwaWtfcHl0aG9uJywgJy1waCcsICc3LjAnLCAnLXRuJywgJzgnLCAnLW1hJywgJzIwMCcsICctbWV0YWxfYmluZGluZycsICctaW1hZScsICc8aW5maWxlLm1hZT4nLCAnLW9tYWUnLCAnPG91dGZpbGUubWFlPic=

> <r_lp_tautomer_probability>
1

> <r_epik_Ionization_Penalty>
8.92636e-05

> <r_epik_Ionization_Penalty_Charging>
8.63033e-08

> <r_epik_Ionization_Penalty_Neutral>
8.91773e-05

> <r_epik_State_Penalty>
-0

> <r_epik_Charging_Adjusted_Penalty>
8.63033e-08

> <i_epik_Tot_Q>
0

> <i_epik_Tot_abs_Q>
0

> <r_epik_Metal_State_Penalty>
-0

> <b_epik_Metal_Only>
0

> <s_lp_Force_Field>
OPLS_2005

> <r_lp_Energy>
23.7682

> <b_lp_Chiralities_Consistent>
1

> <s_lp_Variant>
AV-unprocessed.smi:2289-1

> <Gold.Version>
5.8.1

> <Gold.Id.Protein>
6NUR|6NUR_protein|mol2

> <Gold.PLP.Fitness>
43.1936

> <Gold.PLP.PLP>
-36.7886

> <Gold.PLP.part.hbond>
-2.3875

> <Gold.PLP.part.metal>
0.0000

> <Gold.PLP.part.buried>
4.0834

> <Gold.PLP.part.nonpolar>
-37.2176

> <Gold.PLP.part.repulsive>
0.5043

> <Gold.PLP.ligand.clash>
1.9888

> <Gold.PLP.ligand.torsion>
0.9653

> <Gold.PLP.Chemscore.Hbond>
1.9516

> <Gold.PLP.Chemscore.CHOScore>
1.0000

> <Gold.PLP.Chemscore.Metal>
0.0000

> <Gold.Chemscore.Hbonds>
donor molecule, donor type, donor heavy atom, donor atom, acceptor molecule, acceptor atom, score
      L1  H     8    31       P1 10171  1.00
      P1  H  7954  7966       L1     8  0.95
      L1  C     4    27       P1  7948  0.99

> <Gold.PLP.Chemscore.Internal.Correction>
1.4696

> <Gold.Rescore>
     Score         DG    S(hbond)    S(metal)    S(lipo)     H(rot)  DE(clash)    DE(int)     intcor
     10.36     -14.06       1.76        0.00      74.96       2.37       1.86       1.85       ----

> <Gold.Chemscore.Fitness>
10.3561

> <Gold.Chemscore.DG>
-14.0608

> <Gold.Chemscore.ZeroCoef>
-5.4800

> <Gold.Chemscore.Hbond>
1.7582

> <Gold.Chemscore.Metal>
0.0000

> <Gold.Chemscore.Lipo>
74.9630

> <Gold.Chemscore.Internal_Hbond>
0.0000

> <Gold.Chemscore.DEClash>
1.8556

> <Gold.Chemscore.DEInternal>
1.8491

> <Gold.Chemscore.Rot>
2.3681

> <Gold.Chemscore.Internal.Correction>
   9.000000E+99

> <Gold.Chemscore.Hbonds>
donor molecule, donor type, donor heavy atom, donor atom, acceptor molecule, acceptor atom, score
      L1  H     8    31       P1 10171  0.97
      P1  H  7954  7966       L1     8  0.75

> <Gold.Chemscore.Hbond.Weighted>
-5.8725

> <Gold.Chemscore.Metal.Weighted>
-0.0000

> <Gold.Chemscore.Lipo.Weighted>
-8.7707

> <Gold.Chemscore.Internal_Hbond.Weighted>
0.0000

> <Gold.Chemscore.DEClash.Weighted>
1.8556

> <Gold.Chemscore.DEInternal.Weighted>
1.8491

> <Gold.Chemscore.Rot.Weighted>
6.0624

> <Gold.Chemscore.Internal.Correction.Weighted>
   9.000000E+99

> <Gold.Protein.RotatedTorsions>
[ 6907 6896 6895 6894 ] final  109.28 input  -60.11 | X-H torsion
[ 7974 7965 7964 7962 ] final  -12.59 input  175.53 | X-H torsion
[ 8008 7997 7996 7995 ] final -160.48 input   59.86 | X-H torsion
[ 10167 10162 10161 10158 ] final  157.71 input  -65.29 | X-H torsion
[ 10718 10713 10712 10709 ] final -157.71 input   66.30 | X-H torsion
[ 10763 10752 10751 10750 ] final  -45.18 input  -60.55 | X-H torsion
[ 11005 11000 10999 10996 ] final -122.48 input  -57.11 | X-H torsion

> <Gold.Protein.ActiveResidues>
 VAL166  LYS551  ARG553  GLY616  TRP617  ASP618  TYR619  PRO620  LYS621  CYS622 
 ASP623  PHE694  ASN695  SER759  ASP760  ASP761  ALA762  ILE779  LEU786  VAL792 
 PHE793  MET794  SER795  GLU796  ALA797  LYS798  CYS799  TRP800  GLU811  SER814 

> <Gold.Protein.RotatedAtoms>
  152.5074  133.8967  159.7420 H   0  0  0  0  0  0  0  0  0  0  0  0  # atno 6907 bound_to 6896
  150.9392  133.6667  159.2801 H   0  0  0  0  0  0  0  0  0  0  0  0  # atno 6908 bound_to 6896
  151.3984  135.0972  159.9601 H   0  0  0  0  0  0  0  0  0  0  0  0  # atno 6909 bound_to 6896
  146.2146  140.3080  142.8380 H   0  0  0  0  0  0  0  0  0  0  0  0  # atno 7974 bound_to 7965
  155.7780  140.0861  157.2074 H   0  0  0  0  0  0  0  0  0  0  0  0  # atno 8008 bound_to 7997
  154.3992  140.1513  156.3076 H   0  0  0  0  0  0  0  0  0  0  0  0  # atno 8009 bound_to 7997
  155.8682  140.3427  155.5805 H   0  0  0  0  0  0  0  0  0  0  0  0  # atno 8010 bound_to 7997
  139.4824  144.4892  151.8333 H   0  0  0  0  0  0  0  0  0  0  0  0  # atno 10167 bound_to 10162
  156.5440  130.8576  151.2758 H   0  0  0  0  0  0  0  0  0  0  0  0  # atno 10718 bound_to 10713
  154.0243  135.6665  153.4775 H   0  0  0  0  0  0  0  0  0  0  0  0  # atno 10763 bound_to 10752
  153.0567  135.5052  154.7993 H   0  0  0  0  0  0  0  0  0  0  0  0  # atno 10764 bound_to 10752
  154.6918  135.3062  154.9434 H   0  0  0  0  0  0  0  0  0  0  0  0  # atno 10765 bound_to 10752
  140.9992  134.0428  157.3559 H   0  0  0  0  0  0  0  0  0  0  0  0  # atno 11005 bound_to 11000
  144.9009  140.7641  143.5867 LP  0  0  0  0  0  0  0  0  0  0  0  0  # atno 17320 bound_to 7965
  145.3006  139.1852  143.4692 LP  0  0  0  0  0  0  0  0  0  0  0  0  # atno 17321 bound_to 7965
  140.4375  144.2032  150.5890 LP  0  0  0  0  0  0  0  0  0  0  0  0  # atno 17342 bound_to 10162
  140.4717  143.2410  151.9079 LP  0  0  0  0  0  0  0  0  0  0  0  0  # atno 17343 bound_to 10162
  157.7400  130.9842  150.2349 LP  0  0  0  0  0  0  0  0  0  0  0  0  # atno 17370 bound_to 10713
  156.2945  130.3750  149.7809 LP  0  0  0  0  0  0  0  0  0  0  0  0  # atno 17371 bound_to 10713
  139.9030  135.0171  156.7357 LP  0  0  0  0  0  0  0  0  0  0  0  0  # atno 17394 bound_to 11000
  140.6917  133.9384  155.7970 LP  0  0  0  0  0  0  0  0  0  0  0  0  # atno 17395 bound_to 11000

$$$$
