AV-unprocessed.smi:169|AV-procd|sdf|1402|dock9
  -GOLD-   2262019153D 1   1.00000     0.00000
 Structure written by MMmdl.
 56 60  0  0  0  0  0  0  0  0  2 V2000
  151.9645  143.7084  158.1248 C   0  0  0  0  0  0  0  0  0  0  0  0
  152.0001  142.1896  158.3699 C   0  0  0  0  0  0  0  0  0  0  0  0
  151.1196  141.4148  157.4568 N   0  3  2  0  0  0  0  0  0  0  0  0
  151.8712  140.8280  156.2904 C   0  0  0  0  0  0  0  0  0  0  0  0
  151.1775  139.5910  155.6060 C   0  0  0  0  0  0  0  0  0  0  0  0
  149.6440  139.7248  155.5288 C   0  0  3  0  0  0  0  0  0  0  0  0
  148.6126  140.2927  154.5453 C   0  0  0  0  0  0  0  0  0  0  0  0
  147.9418  141.3813  155.4462 C   0  0  0  0  0  0  0  0  0  0  0  0
  148.5983  141.2190  156.8577 C   0  0  2  0  0  0  0  0  0  0  0  0
  149.8401  142.1462  157.1212 C   0  0  0  0  0  0  0  0  0  0  0  0
  149.0409  139.8382  156.8451 N   0  0  0  0  0  0  0  0  0  0  0  0
  148.2189  138.8601  157.3071 C   0  0  0  0  0  0  0  0  0  0  0  0
  146.9946  138.6919  156.7403 N   0  0  0  0  0  0  0  0  0  0  0  0
  146.1747  137.7304  157.1736 C   0  0  0  0  0  0  0  0  0  0  0  0
  146.3813  136.8302  158.1360 N   0  0  0  0  0  0  0  0  0  0  0  0
  147.6181  136.9747  158.6919 C   0  0  0  0  0  0  0  0  0  0  0  0
  148.5893  137.9555  158.3428 C   0  0  0  0  0  0  0  0  0  0  0  0
  149.7294  137.7849  159.1193 N   0  0  0  0  0  0  0  0  0  0  0  0
  149.4419  136.7741  159.8928 C   0  0  0  0  0  0  0  0  0  0  0  0
  148.2010  136.2128  159.6905 N   0  0  0  0  0  0  0  0  0  0  0  0
  147.6246  135.0774  160.3988 C   0  0  0  0  0  0  0  0  0  0  0  0
  147.1005  135.3892  161.8205 C   0  0  0  0  0  0  0  0  0  0  0  0
  146.7576  134.0300  162.4554 C   0  0  0  0  0  0  0  0  0  0  0  0
  145.7651  133.3236  161.7383 O   0  0  0  0  0  0  0  0  0  0  0  0
  147.9234  136.3785  162.6664 C   0  0  0  0  0  0  0  0  0  0  0  0
  147.0249  137.4656  162.3528 O   0  0  0  0  0  0  0  0  0  0  0  0
  146.0408  136.5008  161.9194 C   0  0  0  0  0  0  0  0  0  0  0  0
  152.6187  144.2231  158.8289 H   0  0  0  0  0  0  0  0  0  0  0  0
  150.9625  144.1167  158.2559 H   0  0  0  0  0  0  0  0  0  0  0  0
  152.3046  143.9650  157.1215 H   0  0  0  0  0  0  0  0  0  0  0  0
  153.0240  141.8273  158.2693 H   0  0  0  0  0  0  0  0  0  0  0  0
  151.7132  141.9790  159.4010 H   0  0  0  0  0  0  0  0  0  0  0  0
  152.0326  141.6140  155.5510 H   0  0  0  0  0  0  0  0  0  0  0  0
  152.8655  140.5165  156.6133 H   0  0  0  0  0  0  0  0  0  0  0  0
  151.6030  139.4199  154.6157 H   0  0  0  0  0  0  0  0  0  0  0  0
  151.4081  138.6966  156.1859 H   0  0  0  0  0  0  0  0  0  0  0  0
  150.0194  140.6966  155.2316 H   0  0  0  0  0  0  0  0  0  0  0  0
  149.0169  140.6855  153.6068 H   0  0  0  0  0  0  0  0  0  0  0  0
  147.8835  139.5251  154.2832 H   0  0  0  0  0  0  0  0  0  0  0  0
  148.0718  142.3876  155.0469 H   0  0  0  0  0  0  0  0  0  0  0  0
  146.8690  141.1933  155.5046 H   0  0  0  0  0  0  0  0  0  0  0  0
  147.8469  141.4081  157.6226 H   0  0  0  0  0  0  0  0  0  0  0  0
  149.5757  142.8003  157.9532 H   0  0  0  0  0  0  0  0  0  0  0  0
  150.0203  142.8132  156.2772 H   0  0  0  0  0  0  0  0  0  0  0  0
  145.2183  137.6713  156.6752 H   0  0  0  0  0  0  0  0  0  0  0  0
  150.1370  136.4060  160.6331 H   0  0  0  0  0  0  0  0  0  0  0  0
  146.8194  134.6791  159.7802 H   0  0  0  0  0  0  0  0  0  0  0  0
  148.3829  134.2940  160.4347 H   0  0  0  0  0  0  0  0  0  0  0  0
  147.6430  133.3959  162.5116 H   0  0  0  0  0  0  0  0  0  0  0  0
  146.3995  134.1603  163.4773 H   0  0  0  0  0  0  0  0  0  0  0  0
  145.7856  132.4179  162.0078 H   0  0  0  0  0  0  0  0  0  0  0  0
  147.9292  136.1623  163.7357 H   0  0  0  0  0  0  0  0  0  0  0  0
  148.9390  136.5520  162.3151 H   0  0  0  0  0  0  0  0  0  0  0  0
  145.5713  136.7656  160.9734 H   0  0  0  0  0  0  0  0  0  0  0  0
  145.2796  136.3372  162.6837 H   0  0  0  0  0  0  0  0  0  0  0  0
  150.8287  140.6216  158.0110 H   0  0  0  0  0  0  0  0  0  0  0  0
  1  2  1  0  0  0  0
  1 28  1  0  0  0  0
  1 29  1  0  0  0  0
  1 30  1  0  0  0  0
  2  3  1  0  0  0  0
  2 31  1  0  0  0  0
  2 32  1  0  0  0  0
  3 10  1  0  0  0  0
  3  4  1  0  0  0  0
  3 56  1  0  0  0  0
  4  5  1  0  0  0  0
  4 33  1  0  0  0  0
  4 34  1  0  0  0  0
  5  6  1  0  0  0  0
  5 35  1  0  0  0  0
  5 36  1  0  0  0  0
  6 11  1  0  0  0  0
  6  7  1  0  0  0  0
  6 37  1  0  0  0  0
  7  8  1  0  0  0  0
  7 38  1  0  0  0  0
  7 39  1  0  0  0  0
  8  9  1  0  0  0  0
  8 40  1  0  0  0  0
  8 41  1  0  0  0  0
  9 10  1  0  0  0  0
  9 11  1  0  0  0  0
  9 42  1  0  0  0  0
 10 43  1  0  0  0  0
 10 44  1  0  0  0  0
 11 12  1  0  0  0  0
 12 17  1  0  0  0  0
 12 13  2  0  0  0  0
 13 14  1  0  0  0  0
 14 15  2  0  0  0  0
 14 45  1  0  0  0  0
 15 16  1  0  0  0  0
 16 20  1  0  0  0  0
 16 17  2  0  0  0  0
 17 18  1  0  0  0  0
 18 19  2  0  0  0  0
 19 20  1  0  0  0  0
 19 46  1  0  0  0  0
 20 21  1  0  0  0  0
 21 22  1  0  0  0  0
 21 47  1  0  0  0  0
 21 48  1  0  0  0  0
 22 27  1  0  0  0  0
 22 23  1  0  0  0  0
 22 25  1  0  0  0  0
 23 24  1  0  0  0  0
 23 49  1  0  0  0  0
 23 50  1  0  0  0  0
 24 51  1  0  0  0  0
 25 26  1  0  0  0  0
 25 52  1  0  0  0  0
 25 53  1  0  0  0  0
 26 27  1  0  0  0  0
 27 54  1  0  0  0  0
 27 55  1  0  0  0  0
M  CHG  1   3   1
M  END
> <s_m_source_file>
AV-unprocessed.smi

> <i_m_source_file_index>
169

> <i_lp_mmshare_version>
43012

> <i_f3d_flags>
0

> <s_epik_input>
W0NASF0xMltDSDJdW0NIMl1OKFtDSDJdW0NIM10pW0NIMl1bQ0BIXShbQ0gyXVtDSDJdMSlOMmMobltjSF1uMyljKGMzNCluW2NIXW40W0NIMl1DNShbQ0gyXVtPSF0pW0NIMl1PW0NIMl01

> <s_epik_cmdline>
J2VwaWtfcHl0aG9uJywgJy1waCcsICc3LjAnLCAnLXRuJywgJzgnLCAnLW1hJywgJzIwMCcsICctbWV0YWxfYmluZGluZycsICctaW1hZScsICc8aW5maWxlLm1hZT4nLCAnLW9tYWUnLCAnPG91dGZpbGUubWFlPic=

> <r_lp_tautomer_probability>
1

> <r_epik_Ionization_Penalty>
0.00274162

> <r_epik_Ionization_Penalty_Charging>
0.00243722

> <r_epik_Ionization_Penalty_Neutral>
0.000304399

> <r_epik_State_Penalty>
-0

> <r_epik_Charging_Adjusted_Penalty>
0.00243722

> <i_epik_Tot_Q>
1

> <i_epik_Tot_abs_Q>
1

> <r_epik_Metal_State_Penalty>
-0

> <b_epik_Metal_Only>
0

> <s_lp_Force_Field>
OPLS_2005

> <r_lp_Energy>
131.144

> <b_lp_Chiralities_Consistent>
1

> <s_lp_Variant>
AV-unprocessed.smi:169-5

> <Gold.Version>
5.8.1

> <Gold.Id.Protein>
6NUR|6NUR_protein|mol2

> <Gold.PLP.Fitness>
39.0238

> <Gold.PLP.PLP>
-38.9310

> <Gold.PLP.part.hbond>
-2.3824

> <Gold.PLP.part.metal>
0.0000

> <Gold.PLP.part.buried>
-4.0668

> <Gold.PLP.part.nonpolar>
-31.3036

> <Gold.PLP.part.repulsive>
0.0608

> <Gold.PLP.ligand.clash>
0.0000

> <Gold.PLP.ligand.torsion>
0.9540

> <Gold.PLP.Chemscore.Hbond>
0.5242

> <Gold.PLP.Chemscore.CHOScore>
0.0000

> <Gold.PLP.Chemscore.Metal>
0.0000

> <Gold.Chemscore.Hbonds>
donor molecule, donor type, donor heavy atom, donor atom, acceptor molecule, acceptor atom, score
      P1  H  6934  6947       L1    26  0.50

> <Gold.PLP.Chemscore.Internal.Correction>
0.4283

> <Gold.Rescore>
     Score         DG    S(hbond)    S(metal)    S(lipo)     H(rot)  DE(clash)    DE(int)     intcor
     11.69     -13.03       0.87        0.00      97.19       2.62       0.22       1.13       ----

> <Gold.Chemscore.Fitness>
11.6867

> <Gold.Chemscore.DG>
-13.0342

> <Gold.Chemscore.ZeroCoef>
-5.4800

> <Gold.Chemscore.Hbond>
0.8662

> <Gold.Chemscore.Metal>
0.0000

> <Gold.Chemscore.Lipo>
97.1912

> <Gold.Chemscore.Internal_Hbond>
0.0000

> <Gold.Chemscore.DEClash>
0.2207

> <Gold.Chemscore.DEInternal>
1.1268

> <Gold.Chemscore.Rot>
2.6212

> <Gold.Chemscore.Internal.Correction>
   9.000000E+99

> <Gold.Chemscore.Hbonds>
donor molecule, donor type, donor heavy atom, donor atom, acceptor molecule, acceptor atom, score
      P1  H  6934  6947       L1    26  0.39

> <Gold.Chemscore.Hbond.Weighted>
-2.8930

> <Gold.Chemscore.Metal.Weighted>
-0.0000

> <Gold.Chemscore.Lipo.Weighted>
-11.3714

> <Gold.Chemscore.Internal_Hbond.Weighted>
0.0000

> <Gold.Chemscore.DEClash.Weighted>
0.2207

> <Gold.Chemscore.DEInternal.Weighted>
1.1268

> <Gold.Chemscore.Rot.Weighted>
6.7102

> <Gold.Chemscore.Internal.Correction.Weighted>
   9.000000E+99

> <Gold.Protein.RotatedTorsions>
[ 6907 6896 6895 6894 ] final   -4.64 input  -60.11 | X-H torsion
[ 7974 7965 7964 7962 ] final  132.99 input  175.53 | X-H torsion
[ 8008 7997 7996 7995 ] final  155.14 input   59.86 | X-H torsion
[ 10167 10162 10161 10158 ] final   37.97 input  -65.29 | X-H torsion
[ 10718 10713 10712 10709 ] final  130.33 input   66.30 | X-H torsion
[ 10763 10752 10751 10750 ] final  112.15 input  -60.55 | X-H torsion
[ 11005 11000 10999 10996 ] final  169.76 input  -57.11 | X-H torsion

> <Gold.Protein.ActiveResidues>
 VAL166  LYS551  ARG553  GLY616  TRP617  ASP618  TYR619  PRO620  LYS621  CYS622 
 ASP623  PHE694  ASN695  SER759  ASP760  ASP761  ALA762  ILE779  LEU786  VAL792 
 PHE793  MET794  SER795  GLU796  ALA797  LYS798  CYS799  TRP800  GLU811  SER814 

> <Gold.Protein.RotatedAtoms>
  151.4945  135.1059  159.9812 H   0  0  0  0  0  0  0  0  0  0  0  0  # atno 6907 bound_to 6896
  152.4727  133.8063  159.6990 H   0  0  0  0  0  0  0  0  0  0  0  0  # atno 6908 bound_to 6896
  150.8746  133.7394  159.2976 H   0  0  0  0  0  0  0  0  0  0  0  0  # atno 6909 bound_to 6896
  144.9911  139.4405  143.5339 H   0  0  0  0  0  0  0  0  0  0  0  0  # atno 7974 bound_to 7965
  156.2494  140.1947  156.6756 H   0  0  0  0  0  0  0  0  0  0  0  0  # atno 8008 bound_to 7997
  154.6360  140.0589  156.9815 H   0  0  0  0  0  0  0  0  0  0  0  0  # atno 8009 bound_to 7997
  155.1636  140.3262  155.4409 H   0  0  0  0  0  0  0  0  0  0  0  0  # atno 8010 bound_to 7997
  140.3981  144.1760  150.6132 H   0  0  0  0  0  0  0  0  0  0  0  0  # atno 10167 bound_to 10162
  157.5072  131.1096  150.9344 H   0  0  0  0  0  0  0  0  0  0  0  0  # atno 10718 bound_to 10713
  153.4737  135.3695  155.2404 H   0  0  0  0  0  0  0  0  0  0  0  0  # atno 10763 bound_to 10752
  154.8756  135.3937  154.3782 H   0  0  0  0  0  0  0  0  0  0  0  0  # atno 10764 bound_to 10752
  153.4374  135.7083  153.6256 H   0  0  0  0  0  0  0  0  0  0  0  0  # atno 10765 bound_to 10752
  140.3012  134.7594  157.3917 H   0  0  0  0  0  0  0  0  0  0  0  0  # atno 11005 bound_to 11000
  146.3431  139.9243  142.8762 LP  0  0  0  0  0  0  0  0  0  0  0  0  # atno 17320 bound_to 7965
  145.2284  140.9963  143.4005 LP  0  0  0  0  0  0  0  0  0  0  0  0  # atno 17321 bound_to 7965
  140.4768  143.2393  151.9011 LP  0  0  0  0  0  0  0  0  0  0  0  0  # atno 17342 bound_to 10162
  139.4786  144.5311  151.8665 LP  0  0  0  0  0  0  0  0  0  0  0  0  # atno 17343 bound_to 10162
  156.9996  130.5595  149.5310 LP  0  0  0  0  0  0  0  0  0  0  0  0  # atno 17370 bound_to 10713
  156.0266  130.5359  150.8422 LP  0  0  0  0  0  0  0  0  0  0  0  0  # atno 17371 bound_to 10713
  140.1107  134.5349  155.8268 LP  0  0  0  0  0  0  0  0  0  0  0  0  # atno 17394 bound_to 11000
  141.2127  133.6724  156.6684 LP  0  0  0  0  0  0  0  0  0  0  0  0  # atno 17395 bound_to 11000

$$$$
