AV-unprocessed.smi:2267|AV-procd|sdf|9149|dock5
  -GOLD-   2272012353D 1   1.00000     0.00000
 Structure written by MMmdl.
 41 42  0  0  0  0  0  0  0  0  1 V2000
  151.8667  145.3054  159.7243 C   0  0  0  0  0  0  0  0  0  0  0  0
  151.8104  143.8956  159.1731 C   0  0  0  0  0  0  0  0  0  0  0  0
  152.5438  142.8615  159.7886 C   0  0  0  0  0  0  0  0  0  0  0  0
  152.4870  141.5553  159.2692 C   0  0  0  0  0  0  0  0  0  0  0  0
  151.6982  141.2816  158.1357 C   0  0  0  0  0  0  0  0  0  0  0  0
  150.9584  142.3041  157.5071 C   0  0  0  0  0  0  0  0  0  0  0  0
  150.2129  141.9473  156.4038 O   0  0  0  0  0  0  0  0  0  0  0  0
  150.6291  140.8207  155.6432 C   0  0  0  0  0  0  0  0  0  0  0  0
  149.4457  140.3303  154.7916 C   0  0  1  0  0  0  0  0  0  0  0  0
  149.5707  140.9324  153.5180 O   0  0  0  0  0  0  0  0  0  0  0  0
  149.4723  138.7972  154.5960 C   0  0  0  0  0  0  0  0  0  0  0  0
  150.4018  138.1341  155.5266 N   0  0  0  0  0  0  0  0  0  0  0  0
  151.5387  137.5407  154.9537 C   0  0  0  0  0  0  0  0  0  0  0  0
  152.4236  136.9325  155.6737 N   0  0  0  0  0  0  0  0  0  0  0  0
  152.2580  136.8499  157.0592 C   0  0  0  0  0  0  0  0  0  0  0  0
  153.3549  136.1135  157.8080 C   0  0  0  0  0  0  0  0  0  0  0  0
  151.1754  137.3977  157.6758 C   0  0  0  0  0  0  0  0  0  0  0  0
  150.9408  137.3362  159.1800 C   0  0  0  0  0  0  0  0  0  0  0  0
  150.1587  138.0919  156.8687 C   0  0  0  0  0  0  0  0  0  0  0  0
  149.1505  138.6038  157.3594 O   0  0  0  0  0  0  0  0  0  0  0  0
  151.0226  143.6181  158.0367 C   0  0  0  0  0  0  0  0  0  0  0  0
  152.3297  145.3274  160.7112 H   0  0  0  0  0  0  0  0  0  0  0  0
  150.8622  145.7201  159.8126 H   0  0  0  0  0  0  0  0  0  0  0  0
  152.4463  145.9461  159.0595 H   0  0  0  0  0  0  0  0  0  0  0  0
  153.1510  143.0653  160.6585 H   0  0  0  0  0  0  0  0  0  0  0  0
  153.0485  140.7620  159.7401 H   0  0  0  0  0  0  0  0  0  0  0  0
  151.6604  140.2756  157.7440 H   0  0  0  0  0  0  0  0  0  0  0  0
  151.4904  141.0526  155.0139 H   0  0  0  0  0  0  0  0  0  0  0  0
  150.9271  140.0354  156.3399 H   0  0  0  0  0  0  0  0  0  0  0  0
  148.5098  140.6393  155.2591 H   0  0  0  0  0  0  0  0  0  0  0  0
  149.3944  140.2798  152.8577 H   0  0  0  0  0  0  0  0  0  0  0  0
  148.4629  138.3847  154.6580 H   0  0  0  0  0  0  0  0  0  0  0  0
  149.7904  138.5640  153.5782 H   0  0  0  0  0  0  0  0  0  0  0  0
  151.6176  137.6270  153.8687 H   0  0  0  0  0  0  0  0  0  0  0  0
  153.8264  136.7698  158.5402 H   0  0  0  0  0  0  0  0  0  0  0  0
  154.1311  135.7599  157.1281 H   0  0  0  0  0  0  0  0  0  0  0  0
  152.9461  135.2463  158.3274 H   0  0  0  0  0  0  0  0  0  0  0  0
  150.0061  136.8167  159.3931 H   0  0  0  0  0  0  0  0  0  0  0  0
  150.8702  138.3437  159.5911 H   0  0  0  0  0  0  0  0  0  0  0  0
  151.7333  136.8185  159.7179 H   0  0  0  0  0  0  0  0  0  0  0  0
  150.4749  144.4321  157.5869 H   0  0  0  0  0  0  0  0  0  0  0  0
  1  2  1  0  0  0  0
  1 22  1  0  0  0  0
  1 23  1  0  0  0  0
  1 24  1  0  0  0  0
  2 21  1  0  0  0  0
  2  3  2  0  0  0  0
  3  4  1  0  0  0  0
  3 25  1  0  0  0  0
  4  5  2  0  0  0  0
  4 26  1  0  0  0  0
  5  6  1  0  0  0  0
  5 27  1  0  0  0  0
  6  7  1  0  0  0  0
  6 21  2  0  0  0  0
  7  8  1  0  0  0  0
  8  9  1  0  0  0  0
  8 28  1  0  0  0  0
  8 29  1  0  0  0  0
  9 10  1  0  0  0  0
  9 11  1  0  0  0  0
  9 30  1  0  0  0  0
 10 31  1  0  0  0  0
 11 12  1  0  0  0  0
 11 32  1  0  0  0  0
 11 33  1  0  0  0  0
 12 19  1  0  0  0  0
 12 13  1  0  0  0  0
 13 14  2  0  0  0  0
 13 34  1  0  0  0  0
 14 15  1  0  0  0  0
 15 16  1  0  0  0  0
 15 17  2  0  0  0  0
 16 35  1  0  0  0  0
 16 36  1  0  0  0  0
 16 37  1  0  0  0  0
 17 18  1  0  0  0  0
 17 19  1  0  0  0  0
 18 38  1  0  0  0  0
 18 39  1  0  0  0  0
 18 40  1  0  0  0  0
 19 20  2  0  0  0  0
 21 41  1  0  0  0  0
M  END
> <s_m_source_file>
AV-unprocessed.smi

> <i_m_source_file_index>
2267

> <i_lp_mmshare_version>
43012

> <i_f3d_flags>
0

> <s_epik_input>
W0NIM11jMVtjSF1bY0hdW2NIXWMoW2NIXTEpT1tDSDJdW0NASF0oW09IXSlbQ0gyXW4yW2NIXW5jKFtDSDNdKWMoW0NIM10pYzI9Tw==

> <s_epik_cmdline>
J2VwaWtfcHl0aG9uJywgJy1waCcsICc3LjAnLCAnLXRuJywgJzgnLCAnLW1hJywgJzIwMCcsICctbWV0YWxfYmluZGluZycsICctaW1hZScsICc8aW5maWxlLm1hZT4nLCAnLW9tYWUnLCAnPG91dGZpbGUubWFlPic=

> <r_lp_tautomer_probability>
1

> <r_epik_Ionization_Penalty>
3.72236e-05

> <r_epik_Ionization_Penalty_Charging>
8.38864e-08

> <r_epik_Ionization_Penalty_Neutral>
3.71397e-05

> <r_epik_State_Penalty>
-0

> <r_epik_Charging_Adjusted_Penalty>
8.38864e-08

> <i_epik_Tot_Q>
0

> <i_epik_Tot_abs_Q>
0

> <r_epik_Metal_State_Penalty>
-0

> <b_epik_Metal_Only>
0

> <s_lp_Force_Field>
OPLS_2005

> <r_lp_Energy>
23.9214

> <b_lp_Chiralities_Consistent>
1

> <s_lp_Variant>
AV-unprocessed.smi:2267-2

> <Gold.Version>
5.8.1

> <Gold.Id.Protein>
6NUR|6NUR_protein|mol2

> <Gold.PLP.Fitness>
46.4548

> <Gold.PLP.PLP>
-41.4896

> <Gold.PLP.part.hbond>
-3.8835

> <Gold.PLP.part.metal>
0.0000

> <Gold.PLP.part.buried>
-4.9121

> <Gold.PLP.part.nonpolar>
-33.8518

> <Gold.PLP.part.repulsive>
0.3650

> <Gold.PLP.ligand.clash>
0.0000

> <Gold.PLP.ligand.torsion>
1.6159

> <Gold.PLP.Chemscore.Hbond>
2.7160

> <Gold.PLP.Chemscore.CHOScore>
0.0000

> <Gold.PLP.Chemscore.Metal>
0.0000

> <Gold.Chemscore.Hbonds>
donor molecule, donor type, donor heavy atom, donor atom, acceptor molecule, acceptor atom, score
      L1  H    10    31       P1  7957  0.78
      P1  H  7989  7998       L1    10  0.23
      P1  H  8011  8017       L1    10  0.85
      P1  H 10752 10763       L1    14  0.85
      L1  C    13    34       P1  7949  0.02

> <Gold.PLP.Chemscore.Internal.Correction>
0.0490

> <Gold.Rescore>
     Score         DG    S(hbond)    S(metal)    S(lipo)     H(rot)  DE(clash)    DE(int)     intcor
     16.85     -18.55       1.80        0.00     111.84       2.35       0.08       1.63       ----

> <Gold.Chemscore.Fitness>
16.8454

> <Gold.Chemscore.DG>
-18.5520

> <Gold.Chemscore.ZeroCoef>
-5.4800

> <Gold.Chemscore.Hbond>
1.7966

> <Gold.Chemscore.Metal>
0.0000

> <Gold.Chemscore.Lipo>
111.8364

> <Gold.Chemscore.Internal_Hbond>
0.0000

> <Gold.Chemscore.DEClash>
0.0779

> <Gold.Chemscore.DEInternal>
1.6286

> <Gold.Chemscore.Rot>
2.3490

> <Gold.Chemscore.Internal.Correction>
   9.000000E+99

> <Gold.Chemscore.Hbonds>
donor molecule, donor type, donor heavy atom, donor atom, acceptor molecule, acceptor atom, score
      L1  H    10    31       P1  7957  0.78
      P1  H  7989  7998       L1    10  0.01
      P1  H  8011  8017       L1    10  0.14
      P1  H 10752 10763       L1    14  0.66

> <Gold.Chemscore.Hbond.Weighted>
-6.0007

> <Gold.Chemscore.Metal.Weighted>
-0.0000

> <Gold.Chemscore.Lipo.Weighted>
-13.0849

> <Gold.Chemscore.Internal_Hbond.Weighted>
0.0000

> <Gold.Chemscore.DEClash.Weighted>
0.0779

> <Gold.Chemscore.DEInternal.Weighted>
1.6286

> <Gold.Chemscore.Rot.Weighted>
6.0136

> <Gold.Chemscore.Internal.Correction.Weighted>
   9.000000E+99

> <Gold.Protein.RotatedTorsions>
[ 6907 6896 6895 6894 ] final -179.13 input  -60.11 | X-H torsion
[ 7974 7965 7964 7962 ] final  -52.84 input  175.53 | X-H torsion
[ 8008 7997 7996 7995 ] final  -97.09 input   59.86 | X-H torsion
[ 10167 10162 10161 10158 ] final   34.02 input  -65.29 | X-H torsion
[ 10718 10713 10712 10709 ] final   11.55 input   66.30 | X-H torsion
[ 10763 10752 10751 10750 ] final   79.04 input  -60.55 | X-H torsion
[ 11005 11000 10999 10996 ] final   50.94 input  -57.11 | X-H torsion

> <Gold.Protein.ActiveResidues>
 VAL166  LYS551  ARG553  GLY616  TRP617  ASP618  TYR619  PRO620  LYS621  CYS622 
 ASP623  PHE694  ASN695  SER759  ASP760  ASP761  ALA762  ILE779  LEU786  VAL792 
 PHE793  MET794  SER795  GLU796  ALA797  LYS798  CYS799  TRP800  GLU811  SER814 

> <Gold.Protein.RotatedAtoms>
  151.6485  133.3322  159.3146 H   0  0  0  0  0  0  0  0  0  0  0  0  # atno 6907 bound_to 6896
  150.7972  134.7044  159.6578 H   0  0  0  0  0  0  0  0  0  0  0  0  # atno 6908 bound_to 6896
  152.4061  134.6209  160.0102 H   0  0  0  0  0  0  0  0  0  0  0  0  # atno 6909 bound_to 6896
  145.9035  140.7974  142.9731 H   0  0  0  0  0  0  0  0  0  0  0  0  # atno 7974 bound_to 7965
  154.7832  140.0466  157.1143 H   0  0  0  0  0  0  0  0  0  0  0  0  # atno 8008 bound_to 7997
  154.9680  140.3086  155.4981 H   0  0  0  0  0  0  0  0  0  0  0  0  # atno 8009 bound_to 7997
  156.2939  140.2258  156.4771 H   0  0  0  0  0  0  0  0  0  0  0  0  # atno 8010 bound_to 7997
  140.4353  144.1265  150.6165 H   0  0  0  0  0  0  0  0  0  0  0  0  # atno 10167 bound_to 10162
  156.9973  130.6065  149.5692 H   0  0  0  0  0  0  0  0  0  0  0  0  # atno 10718 bound_to 10713
  153.0921  135.4854  154.8710 H   0  0  0  0  0  0  0  0  0  0  0  0  # atno 10763 bound_to 10752
  154.7282  135.3054  154.8938 H   0  0  0  0  0  0  0  0  0  0  0  0  # atno 10764 bound_to 10752
  153.9582  135.6815  153.4798 H   0  0  0  0  0  0  0  0  0  0  0  0  # atno 10765 bound_to 10752
  140.0975  134.5126  155.8793 H   0  0  0  0  0  0  0  0  0  0  0  0  # atno 11005 bound_to 11000
  144.6737  140.1714  143.7414 LP  0  0  0  0  0  0  0  0  0  0  0  0  # atno 17320 bound_to 7965
  145.8761  139.2298  143.1632 LP  0  0  0  0  0  0  0  0  0  0  0  0  # atno 17321 bound_to 7965
  140.4380  143.2539  151.9510 LP  0  0  0  0  0  0  0  0  0  0  0  0  # atno 17342 bound_to 10162
  139.4786  144.5681  151.8132 LP  0  0  0  0  0  0  0  0  0  0  0  0  # atno 17343 bound_to 10162
  156.0184  130.5279  150.8204 LP  0  0  0  0  0  0  0  0  0  0  0  0  # atno 17370 bound_to 10713
  157.5416  131.0941  150.9820 LP  0  0  0  0  0  0  0  0  0  0  0  0  # atno 17371 bound_to 10713
  141.2096  133.6686  156.6452 LP  0  0  0  0  0  0  0  0  0  0  0  0  # atno 17394 bound_to 11000
  140.3266  134.7964  157.4294 LP  0  0  0  0  0  0  0  0  0  0  0  0  # atno 17395 bound_to 11000

$$$$
