AV-unprocessed.smi:2591|AV-procd|sdf|10154|dock5
  -GOLD-   2272014163D 1   1.00000     0.00000
 Structure written by MMmdl.
 35 36  0  0  0  0  0  0  0  0  2 V2000
  148.5400  139.8063  155.5141 C   0  0  0  0  0  0  0  0  0  0  0  0
  149.9309  139.3258  155.6533 N   0  3  2  0  0  0  0  0  0  0  0  0
  150.5855  139.0801  154.3487 C   0  0  0  0  0  0  0  0  0  0  0  0
  152.0486  138.6571  154.5568 C   0  0  0  0  0  0  0  0  0  0  0  0
  152.1034  137.5103  155.4057 O   0  0  0  0  0  0  0  0  0  0  0  0
  151.5144  137.6932  156.6972 C   0  0  1  0  0  0  0  0  0  0  0  0
  152.3775  138.6332  157.5612 C   0  0  0  0  0  0  0  0  0  0  0  0
  153.5835  138.4202  157.6948 O   0  0  0  0  0  0  0  0  0  0  0  0
  151.7165  139.6600  158.1287 N   0  0  0  0  0  0  0  0  0  0  0  0
  152.2295  140.6752  158.9787 C   0  0  0  0  0  0  0  0  0  0  0  0
  151.6930  141.9640  158.7628 C   0  0  0  0  0  0  0  0  0  0  0  0
  152.1300  143.0463  159.5562 C   0  0  0  0  0  0  0  0  0  0  0  0
  151.5676  144.4413  159.3307 C   0  0  0  0  0  0  0  0  0  0  0  0
  152.0363  145.3078  160.2292 F   0  0  0  0  0  0  0  0  0  0  0  0
  151.9081  144.8606  158.1126 F   0  0  0  0  0  0  0  0  0  0  0  0
  150.2377  144.4201  159.4222 F   0  0  0  0  0  0  0  0  0  0  0  0
  153.1056  142.7991  160.5439 C   0  0  0  0  0  0  0  0  0  0  0  0
  153.5876  141.4860  160.6928 C   0  0  0  0  0  0  0  0  0  0  0  0
  153.1630  140.4526  159.9362 N   0  0  0  0  0  0  0  0  0  0  0  0
  150.0403  138.1354  156.5297 C   0  0  0  0  0  0  0  0  0  0  0  0
  147.9122  139.0569  155.0302 H   0  0  0  0  0  0  0  0  0  0  0  0
  148.5069  140.7184  154.9174 H   0  0  0  0  0  0  0  0  0  0  0  0
  148.1125  140.0322  156.4916 H   0  0  0  0  0  0  0  0  0  0  0  0
  150.0448  138.3019  153.8075 H   0  0  0  0  0  0  0  0  0  0  0  0
  150.5451  139.9831  153.7383 H   0  0  0  0  0  0  0  0  0  0  0  0
  152.5022  138.4024  153.5989 H   0  0  0  0  0  0  0  0  0  0  0  0
  152.6358  139.4790  154.9680 H   0  0  0  0  0  0  0  0  0  0  0  0
  151.5213  136.7224  157.1944 H   0  0  0  0  0  0  0  0  0  0  0  0
  150.7278  139.7178  157.9320 H   0  0  0  0  0  0  0  0  0  0  0  0
  150.9521  142.1270  157.9934 H   0  0  0  0  0  0  0  0  0  0  0  0
  153.4818  143.5912  161.1744 H   0  0  0  0  0  0  0  0  0  0  0  0
  154.3351  141.2589  161.4383 H   0  0  0  0  0  0  0  0  0  0  0  0
  149.5930  138.3486  157.5018 H   0  0  0  0  0  0  0  0  0  0  0  0
  149.4622  137.3175  156.0969 H   0  0  0  0  0  0  0  0  0  0  0  0
  150.4486  140.0665  156.1060 H   0  0  0  0  0  0  0  0  0  0  0  0
  1  2  1  0  0  0  0
  1 21  1  0  0  0  0
  1 22  1  0  0  0  0
  1 23  1  0  0  0  0
  2 20  1  0  0  0  0
  2  3  1  0  0  0  0
  2 35  1  0  0  0  0
  3  4  1  0  0  0  0
  3 24  1  0  0  0  0
  3 25  1  0  0  0  0
  4  5  1  0  0  0  0
  4 26  1  0  0  0  0
  4 27  1  0  0  0  0
  5  6  1  0  0  0  0
  6  7  1  0  0  0  0
  6 20  1  0  0  0  0
  6 28  1  0  0  0  0
  7  8  2  0  0  0  0
  7  9  1  0  0  0  0
  9 10  1  0  0  0  0
  9 29  1  0  0  0  0
 10 19  1  0  0  0  0
 10 11  2  0  0  0  0
 11 12  1  0  0  0  0
 11 30  1  0  0  0  0
 12 13  1  0  0  0  0
 12 17  2  0  0  0  0
 13 14  1  0  0  0  0
 13 15  1  0  0  0  0
 13 16  1  0  0  0  0
 17 18  1  0  0  0  0
 17 31  1  0  0  0  0
 18 19  2  0  0  0  0
 18 32  1  0  0  0  0
 20 33  1  0  0  0  0
 20 34  1  0  0  0  0
M  CHG  1   2   1
M  END
> <s_m_source_file>
AV-unprocessed.smi

> <i_m_source_file_index>
2591

> <i_lp_mmshare_version>
43012

> <i_f3d_flags>
0

> <s_epik_input>
W0NIM11OMVtDSDJdW0NIMl1PW0NASF0oW0NIMl0xKUMoPU8pW05IXWMyW2NIXWMoQyhGKShGKUYpW2NIXVtjSF1uMg==

> <s_epik_cmdline>
J2VwaWtfcHl0aG9uJywgJy1waCcsICc3LjAnLCAnLXRuJywgJzgnLCAnLW1hJywgJzIwMCcsICctbWV0YWxfYmluZGluZycsICctaW1hZScsICc8aW5maWxlLm1hZT4nLCAnLW9tYWUnLCAnPG91dGZpbGUubWFlPic=

> <r_epik_Ionization_Penalty>
0.314028

> <r_epik_Ionization_Penalty_Charging>
0.314023

> <r_epik_Ionization_Penalty_Neutral>
5.2303e-06

> <r_epik_State_Penalty>
0.308208

> <r_epik_Charging_Adjusted_Penalty>
0.62223

> <i_epik_Tot_Q>
1

> <i_epik_Tot_abs_Q>
1

> <r_epik_Metal_State_Penalty>
0.308209

> <b_epik_Metal_Only>
0

> <s_lp_Force_Field>
OPLS_2005

> <r_lp_Energy>
16.4571

> <b_lp_Chiralities_Consistent>
1

> <s_lp_Variant>
AV-unprocessed.smi:2591-2

> <Gold.Version>
5.8.1

> <Gold.Id.Protein>
6NUR|6NUR_protein|mol2

> <Gold.PLP.Fitness>
46.3116

> <Gold.PLP.PLP>
-42.1907

> <Gold.PLP.part.hbond>
-2.0000

> <Gold.PLP.part.metal>
0.0000

> <Gold.PLP.part.buried>
-7.1557

> <Gold.PLP.part.nonpolar>
-33.0974

> <Gold.PLP.part.repulsive>
0.1487

> <Gold.PLP.ligand.clash>
0.1769

> <Gold.PLP.ligand.torsion>
0.4440

> <Gold.PLP.Chemscore.Hbond>
1.6400

> <Gold.PLP.Chemscore.CHOScore>
0.0000

> <Gold.PLP.Chemscore.Metal>
0.0000

> <Gold.Chemscore.Hbonds>
donor molecule, donor type, donor heavy atom, donor atom, acceptor molecule, acceptor atom, score
      P1  H  7997  8008       L1     8  0.89
      P1  H 10752 10765       L1     5  0.40

> <Gold.PLP.Chemscore.Internal.Correction>
0.2657

> <Gold.Rescore>
     Score         DG    S(hbond)    S(metal)    S(lipo)     H(rot)  DE(clash)    DE(int)     intcor
     15.82     -17.14       1.44        0.00      80.35       1.00       0.00       1.32       ----

> <Gold.Chemscore.Fitness>
15.8150

> <Gold.Chemscore.DG>
-17.1359

> <Gold.Chemscore.ZeroCoef>
-5.4800

> <Gold.Chemscore.Hbond>
1.4415

> <Gold.Chemscore.Metal>
0.0000

> <Gold.Chemscore.Lipo>
80.3533

> <Gold.Chemscore.Internal_Hbond>
0.0000

> <Gold.Chemscore.DEClash>
0.0045

> <Gold.Chemscore.DEInternal>
1.3164

> <Gold.Chemscore.Rot>
1.0000

> <Gold.Chemscore.Internal.Correction>
   9.000000E+99

> <Gold.Chemscore.Hbonds>
donor molecule, donor type, donor heavy atom, donor atom, acceptor molecule, acceptor atom, score
      P1  H  7997  8008       L1     8  0.74
      P1  H 10752 10765       L1     5  0.39

> <Gold.Chemscore.Hbond.Weighted>
-4.8145

> <Gold.Chemscore.Metal.Weighted>
-0.0000

> <Gold.Chemscore.Lipo.Weighted>
-9.4013

> <Gold.Chemscore.Internal_Hbond.Weighted>
0.0000

> <Gold.Chemscore.DEClash.Weighted>
0.0045

> <Gold.Chemscore.DEInternal.Weighted>
1.3164

> <Gold.Chemscore.Rot.Weighted>
2.5600

> <Gold.Chemscore.Internal.Correction.Weighted>
   9.000000E+99

> <Gold.Protein.RotatedTorsions>
[ 6907 6896 6895 6894 ] final   65.78 input  -60.11 | X-H torsion
[ 7974 7965 7964 7962 ] final  164.67 input  175.53 | X-H torsion
[ 8008 7997 7996 7995 ] final -101.65 input   59.86 | X-H torsion
[ 10167 10162 10161 10158 ] final   40.79 input  -65.29 | X-H torsion
[ 10718 10713 10712 10709 ] final  -83.87 input   66.30 | X-H torsion
[ 10763 10752 10751 10750 ] final -166.07 input  -60.55 | X-H torsion
[ 11005 11000 10999 10996 ] final -121.99 input  -57.11 | X-H torsion

> <Gold.Protein.ActiveResidues>
 VAL166  LYS551  ARG553  GLY616  TRP617  ASP618  TYR619  PRO620  LYS621  CYS622 
 ASP623  PHE694  ASN695  SER759  ASP760  ASP761  ALA762  ILE779  LEU786  VAL792 
 PHE793  MET794  SER795  GLU796  ALA797  LYS798  CYS799  TRP800  GLU811  SER814 

> <Gold.Protein.RotatedAtoms>
  152.4432  134.5547  159.9876 H   0  0  0  0  0  0  0  0  0  0  0  0  # atno 6907 bound_to 6896
  151.5639  133.3393  159.2984 H   0  0  0  0  0  0  0  0  0  0  0  0  # atno 6908 bound_to 6896
  150.8343  134.7643  159.6943 H   0  0  0  0  0  0  0  0  0  0  0  0  # atno 6909 bound_to 6896
  144.7535  139.8359  143.6358 H   0  0  0  0  0  0  0  0  0  0  0  0  # atno 7974 bound_to 7965
  154.8456  140.0433  157.1570 H   0  0  0  0  0  0  0  0  0  0  0  0  # atno 8008 bound_to 7997
  154.8999  140.2998  155.5303 H   0  0  0  0  0  0  0  0  0  0  0  0  # atno 8009 bound_to 7997
  156.2994  140.2378  156.4025 H   0  0  0  0  0  0  0  0  0  0  0  0  # atno 8010 bound_to 7997
  140.3707  144.2109  150.6133 H   0  0  0  0  0  0  0  0  0  0  0  0  # atno 10167 bound_to 10162
  156.0013  130.4679  150.4324 H   0  0  0  0  0  0  0  0  0  0  0  0  # atno 10718 bound_to 10713
  154.6869  135.2964  154.9535 H   0  0  0  0  0  0  0  0  0  0  0  0  # atno 10763 bound_to 10752
  154.0511  135.6644  153.4804 H   0  0  0  0  0  0  0  0  0  0  0  0  # atno 10764 bound_to 10752
  153.0585  135.5130  154.7941 H   0  0  0  0  0  0  0  0  0  0  0  0  # atno 10765 bound_to 10752
  141.0029  134.0377  157.3515 H   0  0  0  0  0  0  0  0  0  0  0  0  # atno 11005 bound_to 11000
  146.1516  139.4601  143.0045 LP  0  0  0  0  0  0  0  0  0  0  0  0  # atno 17320 bound_to 7965
  145.6860  141.0178  143.1581 LP  0  0  0  0  0  0  0  0  0  0  0  0  # atno 17321 bound_to 7965
  140.5036  143.2310  151.8642 LP  0  0  0  0  0  0  0  0  0  0  0  0  # atno 17342 bound_to 10162
  139.4804  144.5031  151.9034 LP  0  0  0  0  0  0  0  0  0  0  0  0  # atno 17343 bound_to 10162
  157.2372  131.0517  151.2458 LP  0  0  0  0  0  0  0  0  0  0  0  0  # atno 17370 bound_to 10713
  157.3655  130.7153  149.6530 LP  0  0  0  0  0  0  0  0  0  0  0  0  # atno 17371 bound_to 10713
  139.9048  135.0176  156.7435 LP  0  0  0  0  0  0  0  0  0  0  0  0  # atno 17394 bound_to 11000
  140.6860  133.9432  155.7938 LP  0  0  0  0  0  0  0  0  0  0  0  0  # atno 17395 bound_to 11000

$$$$
