AV-unprocessed.smi:3252|AV-procd|sdf|12439|dock8
  -GOLD-   2272018333D 1   1.00000     0.00000
 Structure written by MMmdl.
 37 38  0  0  0  0  0  0  0  0  2 V2000
  143.7806  132.3453  150.6299 C   0  0  0  0  0  0  0  0  0  0  0  0
  144.6936  133.5176  150.2433 C   0  0  0  0  0  0  0  0  0  0  0  0
  144.7403  134.5738  151.2852 N   0  3  1  0  0  0  0  0  0  0  0  0
  145.2139  134.0550  152.5902 C   0  0  0  0  0  0  0  0  0  0  0  0
  145.2050  135.1697  153.6488 C   0  0  0  0  0  0  0  0  0  0  0  0
  145.9998  136.2587  153.1972 O   0  0  0  0  0  0  0  0  0  0  0  0
  145.4930  136.8350  151.9976 C   0  0  1  0  0  0  0  0  0  0  0  0
  146.3660  138.0501  151.6396 C   0  0  0  0  0  0  0  0  0  0  0  0
  146.1223  139.1924  152.5123 N   0  0  0  0  0  0  0  0  0  0  0  0
  147.1581  139.8120  153.2270 C   0  0  0  0  0  0  0  0  0  0  0  0
  148.2741  139.0354  153.6038 C   0  0  0  0  0  0  0  0  0  0  0  0
  149.3190  139.6487  154.3226 C   0  0  0  0  0  0  0  0  0  0  0  0
  149.2108  141.0168  154.6407 C   0  0  0  0  0  0  0  0  0  0  0  0
  150.2598  141.6947  155.3829 C   0  0  0  0  0  0  0  0  0  0  0  0
  151.0950  142.2347  155.9739 N   0  0  0  0  0  0  0  0  0  0  0  0
  148.0581  141.7111  154.2211 C   0  0  0  0  0  0  0  0  0  0  0  0
  147.0537  141.1281  153.5312 N   0  0  0  0  0  0  0  0  0  0  0  0
  145.5295  135.7663  150.8882 C   0  0  0  0  0  0  0  0  0  0  0  0
  143.8472  131.5492  149.8884 H   0  0  0  0  0  0  0  0  0  0  0  0
  142.7339  132.6425  150.6882 H   0  0  0  0  0  0  0  0  0  0  0  0
  144.0664  131.9231  151.5936 H   0  0  0  0  0  0  0  0  0  0  0  0
  145.6994  133.1222  150.0944 H   0  0  0  0  0  0  0  0  0  0  0  0
  144.3853  133.9457  149.2885 H   0  0  0  0  0  0  0  0  0  0  0  0
  144.5760  133.2334  152.9181 H   0  0  0  0  0  0  0  0  0  0  0  0
  146.2230  133.6543  152.4797 H   0  0  0  0  0  0  0  0  0  0  0  0
  144.1874  135.5050  153.8565 H   0  0  0  0  0  0  0  0  0  0  0  0
  145.6157  134.7989  154.5881 H   0  0  0  0  0  0  0  0  0  0  0  0
  144.4608  137.1544  152.1519 H   0  0  0  0  0  0  0  0  0  0  0  0
  147.4206  137.7820  151.7087 H   0  0  0  0  0  0  0  0  0  0  0  0
  146.1960  138.3468  150.6038 H   0  0  0  0  0  0  0  0  0  0  0  0
  145.1820  139.5539  152.5844 H   0  0  0  0  0  0  0  0  0  0  0  0
  148.3334  137.9873  153.3485 H   0  0  0  0  0  0  0  0  0  0  0  0
  150.1838  139.0740  154.6222 H   0  0  0  0  0  0  0  0  0  0  0  0
  147.9315  142.7608  154.4436 H   0  0  0  0  0  0  0  0  0  0  0  0
  146.5599  135.4708  150.6833 H   0  0  0  0  0  0  0  0  0  0  0  0
  145.1305  136.1930  149.9684 H   0  0  0  0  0  0  0  0  0  0  0  0
  143.7893  134.8822  151.4296 H   0  0  0  0  0  0  0  0  0  0  0  0
  1  2  1  0  0  0  0
  1 19  1  0  0  0  0
  1 20  1  0  0  0  0
  1 21  1  0  0  0  0
  2  3  1  0  0  0  0
  2 22  1  0  0  0  0
  2 23  1  0  0  0  0
  3 18  1  0  0  0  0
  3  4  1  0  0  0  0
  3 37  1  0  0  0  0
  4  5  1  0  0  0  0
  4 24  1  0  0  0  0
  4 25  1  0  0  0  0
  5  6  1  0  0  0  0
  5 26  1  0  0  0  0
  5 27  1  0  0  0  0
  6  7  1  0  0  0  0
  7  8  1  0  0  0  0
  7 18  1  0  0  0  0
  7 28  1  0  0  0  0
  8  9  1  0  0  0  0
  8 29  1  0  0  0  0
  8 30  1  0  0  0  0
  9 10  1  0  0  0  0
  9 31  1  0  0  0  0
 10 17  1  0  0  0  0
 10 11  2  0  0  0  0
 11 12  1  0  0  0  0
 11 32  1  0  0  0  0
 12 13  2  0  0  0  0
 12 33  1  0  0  0  0
 13 14  1  0  0  0  0
 13 16  1  0  0  0  0
 14 15  3  0  0  0  0
 16 17  2  0  0  0  0
 16 34  1  0  0  0  0
 18 35  1  0  0  0  0
 18 36  1  0  0  0  0
M  CHG  1   3   1
M  END
> <s_m_source_file>
AV-unprocessed.smi

> <i_m_source_file_index>
3252

> <i_lp_mmshare_version>
43012

> <i_f3d_flags>
0

> <s_epik_input>
W0NIM11bQ0gyXU4xW0NIMl1bQ0gyXU9bQ0BIXShbQ0gyXTEpW0NIMl1bTkhdYzJbY0hdW2NIXWMoQyNOKVtjSF1uMg==

> <s_epik_cmdline>
J2VwaWtfcHl0aG9uJywgJy1waCcsICc3LjAnLCAnLXRuJywgJzgnLCAnLW1hJywgJzIwMCcsICctbWV0YWxfYmluZGluZycsICctaW1hZScsICc8aW5maWxlLm1hZT4nLCAnLW9tYWUnLCAnPG91dGZpbGUubWFlPic=

> <r_epik_Ionization_Penalty>
0.178512

> <r_epik_Ionization_Penalty_Charging>
0.178504

> <r_epik_Ionization_Penalty_Neutral>
8.15545e-06

> <r_epik_State_Penalty>
0.167974

> <r_epik_Charging_Adjusted_Penalty>
0.346478

> <i_epik_Tot_Q>
1

> <i_epik_Tot_abs_Q>
1

> <r_epik_Metal_State_Penalty>
0.167974

> <b_epik_Metal_Only>
0

> <s_lp_Force_Field>
OPLS_2005

> <r_lp_Energy>
17.3379

> <b_lp_Chiralities_Consistent>
1

> <s_lp_Variant>
AV-unprocessed.smi:3252-1

> <Gold.Version>
5.8.1

> <Gold.Id.Protein>
6NUR|6NUR_protein|mol2

> <Gold.PLP.Fitness>
37.3325

> <Gold.PLP.PLP>
-31.8671

> <Gold.PLP.part.hbond>
-1.0000

> <Gold.PLP.part.metal>
0.0000

> <Gold.PLP.part.buried>
-1.2684

> <Gold.PLP.part.nonpolar>
-29.2931

> <Gold.PLP.part.repulsive>
0.4148

> <Gold.PLP.ligand.clash>
0.0000

> <Gold.PLP.ligand.torsion>
0.2760

> <Gold.PLP.Chemscore.Hbond>
1.0000

> <Gold.PLP.Chemscore.CHOScore>
1.0000

> <Gold.PLP.Chemscore.Metal>
0.0000

> <Gold.Chemscore.Hbonds>
donor molecule, donor type, donor heavy atom, donor atom, acceptor molecule, acceptor atom, score
      L1  H     9    31       P1 10175  1.00
      L1  C    16    34       P1  8028  1.00

> <Gold.PLP.Chemscore.Internal.Correction>
0.0174

> <Gold.Rescore>
     Score         DG    S(hbond)    S(metal)    S(lipo)     H(rot)  DE(clash)    DE(int)     intcor
     12.93     -13.36       0.98        0.00      71.62       1.47       0.17       0.26       ----

> <Gold.Chemscore.Fitness>
12.9296

> <Gold.Chemscore.DG>
-13.3589

> <Gold.Chemscore.ZeroCoef>
-5.4800

> <Gold.Chemscore.Hbond>
0.9755

> <Gold.Chemscore.Metal>
0.0000

> <Gold.Chemscore.Lipo>
71.6170

> <Gold.Chemscore.Internal_Hbond>
0.0000

> <Gold.Chemscore.DEClash>
0.1678

> <Gold.Chemscore.DEInternal>
0.2615

> <Gold.Chemscore.Rot>
1.4681

> <Gold.Chemscore.Internal.Correction>
   9.000000E+99

> <Gold.Chemscore.Hbonds>
donor molecule, donor type, donor heavy atom, donor atom, acceptor molecule, acceptor atom, score
      L1  H     9    31       P1 10175  1.00

> <Gold.Chemscore.Hbond.Weighted>
-3.2581

> <Gold.Chemscore.Metal.Weighted>
-0.0000

> <Gold.Chemscore.Lipo.Weighted>
-8.3792

> <Gold.Chemscore.Internal_Hbond.Weighted>
0.0000

> <Gold.Chemscore.DEClash.Weighted>
0.1678

> <Gold.Chemscore.DEInternal.Weighted>
0.2615

> <Gold.Chemscore.Rot.Weighted>
3.7584

> <Gold.Chemscore.Internal.Correction.Weighted>
   9.000000E+99

> <Gold.Protein.RotatedTorsions>
[ 6907 6896 6895 6894 ] final  -88.94 input  -60.11 | X-H torsion
[ 7974 7965 7964 7962 ] final -162.54 input  175.53 | X-H torsion
[ 8008 7997 7996 7995 ] final -146.15 input   59.86 | X-H torsion
[ 10167 10162 10161 10158 ] final   12.51 input  -65.29 | X-H torsion
[ 10718 10713 10712 10709 ] final   62.92 input   66.30 | X-H torsion
[ 10763 10752 10751 10750 ] final  -43.44 input  -60.55 | X-H torsion
[ 11005 11000 10999 10996 ] final  -68.55 input  -57.11 | X-H torsion

> <Gold.Protein.ActiveResidues>
 VAL166  LYS551  ARG553  GLY616  TRP617  ASP618  TYR619  PRO620  LYS621  CYS622 
 ASP623  PHE694  ASN695  SER759  ASP760  ASP761  ALA762  ILE779  LEU786  VAL792 
 PHE793  MET794  SER795  GLU796  ALA797  LYS798  CYS799  TRP800  GLU811  SER814 

> <Gold.Protein.RotatedAtoms>
  150.6871  134.2664  159.4569 H   0  0  0  0  0  0  0  0  0  0  0  0  # atno 6907 bound_to 6896
  152.0590  134.9604  160.0584 H   0  0  0  0  0  0  0  0  0  0  0  0  # atno 6908 bound_to 6896
  152.1038  133.4229  159.4636 H   0  0  0  0  0  0  0  0  0  0  0  0  # atno 6909 bound_to 6896
  144.7354  140.3238  143.6166 H   0  0  0  0  0  0  0  0  0  0  0  0  # atno 7974 bound_to 7965
  155.5547  140.0620  157.2842 H   0  0  0  0  0  0  0  0  0  0  0  0  # atno 8008 bound_to 7997
  154.4409  140.1896  156.0767 H   0  0  0  0  0  0  0  0  0  0  0  0  # atno 8009 bound_to 7997
  156.0490  140.3286  155.7333 H   0  0  0  0  0  0  0  0  0  0  0  0  # atno 8010 bound_to 7997
  140.6063  143.8500  150.7017 H   0  0  0  0  0  0  0  0  0  0  0  0  # atno 10167 bound_to 10162
  157.5935  130.9077  149.9649 H   0  0  0  0  0  0  0  0  0  0  0  0  # atno 10718 bound_to 10713
  153.9957  135.6700  153.4756 H   0  0  0  0  0  0  0  0  0  0  0  0  # atno 10763 bound_to 10752
  153.0685  135.4987  154.8249 H   0  0  0  0  0  0  0  0  0  0  0  0  # atno 10764 bound_to 10752
  154.7083  135.3092  154.9199 H   0  0  0  0  0  0  0  0  0  0  0  0  # atno 10765 bound_to 10752
  141.1534  133.6743  156.6463 H   0  0  0  0  0  0  0  0  0  0  0  0  # atno 11005 bound_to 11000
  145.7542  139.1803  143.2304 LP  0  0  0  0  0  0  0  0  0  0  0  0  # atno 17320 bound_to 7965
  146.1037  140.7513  142.9536 LP  0  0  0  0  0  0  0  0  0  0  0  0  # atno 17321 bound_to 7965
  140.2058  143.3922  152.1756 LP  0  0  0  0  0  0  0  0  0  0  0  0  # atno 17342 bound_to 10162
  139.5328  144.7177  151.4998 LP  0  0  0  0  0  0  0  0  0  0  0  0  # atno 17343 bound_to 10162
  156.0993  130.3657  150.0247 LP  0  0  0  0  0  0  0  0  0  0  0  0  # atno 17370 bound_to 10713
  156.8366  130.9411  151.3634 LP  0  0  0  0  0  0  0  0  0  0  0  0  # atno 17371 bound_to 10713
  140.3354  134.7893  157.4358 LP  0  0  0  0  0  0  0  0  0  0  0  0  # atno 17394 bound_to 11000
  140.0982  134.5509  155.8378 LP  0  0  0  0  0  0  0  0  0  0  0  0  # atno 17395 bound_to 11000

$$$$
