AV-unprocessed.smi:2807|AV-procd|sdf|10819|dock1
  -GOLD-   2272015253D 1   1.00000     0.00000
 Structure written by MMmdl.
 32 33  0  0  0  0  0  0  0  0  1 V2000
  151.1329  141.0399  157.8155 O   0  0  0  0  0  0  0  0  0  0  0  0
  150.5968  142.1484  157.7649 C   0  0  0  0  0  0  0  0  0  0  0  0
  149.5114  142.3966  157.0141 N   0  0  0  0  0  0  0  0  0  0  0  0
  148.8334  141.4248  156.1592 C   0  0  1  0  0  0  0  0  0  0  0  0
  147.3610  141.2642  156.5835 C   0  0  0  0  0  0  0  0  0  0  0  0
  146.5606  142.1324  155.6147 C   0  0  0  0  0  0  0  0  0  0  0  0
  147.3144  141.9903  154.2966 C   0  0  0  0  0  0  0  0  0  0  0  0
  148.7949  141.9281  154.6978 C   0  0  2  0  0  0  0  0  0  0  0  0
  149.4974  141.0629  153.8298 O   0  0  0  0  0  0  0  0  0  0  0  0
  151.1326  143.3311  158.5900 C   0  0  0  0  0  0  0  0  0  0  0  0
  151.8978  144.0931  157.8045 F   0  0  0  0  0  0  0  0  0  0  0  0
  150.0894  144.0675  158.9775 F   0  0  0  0  0  0  0  0  0  0  0  0
  151.9380  142.8722  159.8051 C   0  0  0  0  0  0  0  0  0  0  0  0
  153.0462  142.0063  159.6603 C   0  0  0  0  0  0  0  0  0  0  0  0
  153.7618  141.6268  160.8119 C   0  0  0  0  0  0  0  0  0  0  0  0
  153.3482  142.1231  162.0623 C   0  0  0  0  0  0  0  0  0  0  0  0
  152.2329  142.9821  162.1056 C   0  0  0  0  0  0  0  0  0  0  0  0
  151.5399  143.3523  161.0077 N   0  0  0  0  0  0  0  0  0  0  0  0
  149.1290  143.3310  157.0326 H   0  0  0  0  0  0  0  0  0  0  0  0
  149.3458  140.4629  156.2302 H   0  0  0  0  0  0  0  0  0  0  0  0
  147.0637  140.2225  156.4557 H   0  0  0  0  0  0  0  0  0  0  0  0
  147.1728  141.5238  157.6262 H   0  0  0  0  0  0  0  0  0  0  0  0
  145.5171  141.8258  155.5384 H   0  0  0  0  0  0  0  0  0  0  0  0
  146.5824  143.1720  155.9444 H   0  0  0  0  0  0  0  0  0  0  0  0
  147.0090  141.0591  153.8160 H   0  0  0  0  0  0  0  0  0  0  0  0
  147.1029  142.8033  153.6015 H   0  0  0  0  0  0  0  0  0  0  0  0
  149.2315  142.9252  154.6190 H   0  0  0  0  0  0  0  0  0  0  0  0
  149.1444  140.1913  153.9242 H   0  0  0  0  0  0  0  0  0  0  0  0
  153.3493  141.6433  158.6895 H   0  0  0  0  0  0  0  0  0  0  0  0
  154.6142  140.9679  160.7367 H   0  0  0  0  0  0  0  0  0  0  0  0
  153.8737  141.8535  162.9665 H   0  0  0  0  0  0  0  0  0  0  0  0
  151.8879  143.3823  163.0474 H   0  0  0  0  0  0  0  0  0  0  0  0
  1  2  2  0  0  0  0
  2  3  1  0  0  0  0
  2 10  1  0  0  0  0
  3  4  1  0  0  0  0
  3 19  1  0  0  0  0
  4  8  1  0  0  0  0
  4  5  1  0  0  0  0
  4 20  1  0  0  0  0
  5  6  1  0  0  0  0
  5 21  1  0  0  0  0
  5 22  1  0  0  0  0
  6  7  1  0  0  0  0
  6 23  1  0  0  0  0
  6 24  1  0  0  0  0
  7  8  1  0  0  0  0
  7 25  1  0  0  0  0
  7 26  1  0  0  0  0
  8  9  1  0  0  0  0
  8 27  1  0  0  0  0
  9 28  1  0  0  0  0
 10 11  1  0  0  0  0
 10 12  1  0  0  0  0
 10 13  1  0  0  0  0
 13 18  1  0  0  0  0
 13 14  2  0  0  0  0
 14 15  1  0  0  0  0
 14 29  1  0  0  0  0
 15 16  2  0  0  0  0
 15 30  1  0  0  0  0
 16 17  1  0  0  0  0
 16 31  1  0  0  0  0
 17 18  2  0  0  0  0
 17 32  1  0  0  0  0
M  END
> <s_m_source_file>
AV-unprocessed.smi

> <i_m_source_file_index>
2807

> <i_lp_mmshare_version>
43012

> <i_f3d_flags>
0

> <s_epik_input>
bjFbY0hdW2NIXVtjSF1bY0hdYzFDKEYpKEYpQyg9TylbTkhdW0NAQEhdMltDSDJdW0NIMl1bQ0gyXVtDQEhdMltPSF0=

> <s_epik_cmdline>
J2VwaWtfcHl0aG9uJywgJy1waCcsICc3LjAnLCAnLXRuJywgJzgnLCAnLW1hJywgJzIwMCcsICctbWV0YWxfYmluZGluZycsICctaW1hZScsICc8aW5maWxlLm1hZT4nLCAnLW9tYWUnLCAnPG91dGZpbGUubWFlPic=

> <r_lp_tautomer_probability>
1

> <r_epik_Ionization_Penalty>
4.08325e-05

> <r_epik_Ionization_Penalty_Charging>
0

> <r_epik_Ionization_Penalty_Neutral>
4.08325e-05

> <r_epik_State_Penalty>
-0

> <r_epik_Charging_Adjusted_Penalty>
0

> <i_epik_Tot_Q>
0

> <i_epik_Tot_abs_Q>
0

> <r_epik_Metal_State_Penalty>
0.034564

> <b_epik_Metal_Only>
0

> <s_lp_Force_Field>
OPLS_2005

> <r_lp_Energy>
23.3641

> <b_lp_Chiralities_Consistent>
1

> <s_lp_Variant>
AV-unprocessed.smi:2807-4

> <Gold.Version>
5.8.1

> <Gold.Id.Protein>
6NUR|6NUR_protein|mol2

> <Gold.PLP.Fitness>
47.5169

> <Gold.PLP.PLP>
-44.2224

> <Gold.PLP.part.hbond>
-4.2232

> <Gold.PLP.part.metal>
0.0000

> <Gold.PLP.part.buried>
-3.3524

> <Gold.PLP.part.nonpolar>
-35.8309

> <Gold.PLP.part.repulsive>
0.1204

> <Gold.PLP.ligand.clash>
0.0000

> <Gold.PLP.ligand.torsion>
1.0819

> <Gold.PLP.Chemscore.Hbond>
1.8088

> <Gold.PLP.Chemscore.CHOScore>
0.0000

> <Gold.PLP.Chemscore.Metal>
0.0000

> <Gold.Chemscore.Hbonds>
donor molecule, donor type, donor heavy atom, donor atom, acceptor molecule, acceptor atom, score
      L1  H     3    19       P1  8028  0.69
      P1  H  7989  7998       L1     9  0.26
      P1  H  8011  8017       L1     9  0.77

> <Gold.PLP.Chemscore.Internal.Correction>
0.0320

> <Gold.Rescore>
     Score         DG    S(hbond)    S(metal)    S(lipo)     H(rot)  DE(clash)    DE(int)     intcor
     13.73     -16.19       1.40        0.00      96.43       2.05       0.05       2.41       ----

> <Gold.Chemscore.Fitness>
13.7335

> <Gold.Chemscore.DG>
-16.1937

> <Gold.Chemscore.ZeroCoef>
-5.4800

> <Gold.Chemscore.Hbond>
1.3977

> <Gold.Chemscore.Metal>
0.0000

> <Gold.Chemscore.Lipo>
96.4308

> <Gold.Chemscore.Internal_Hbond>
0.0000

> <Gold.Chemscore.DEClash>
0.0500

> <Gold.Chemscore.DEInternal>
2.4103

> <Gold.Chemscore.Rot>
2.0457

> <Gold.Chemscore.Internal.Correction>
   9.000000E+99

> <Gold.Chemscore.Hbonds>
donor molecule, donor type, donor heavy atom, donor atom, acceptor molecule, acceptor atom, score
      L1  H     3    19       P1  8028  0.55
      P1  H  7989  7998       L1     9  0.18
      P1  H  8011  8017       L1     9  0.12

> <Gold.Chemscore.Hbond.Weighted>
-4.6684

> <Gold.Chemscore.Metal.Weighted>
-0.0000

> <Gold.Chemscore.Lipo.Weighted>
-11.2824

> <Gold.Chemscore.Internal_Hbond.Weighted>
0.0000

> <Gold.Chemscore.DEClash.Weighted>
0.0500

> <Gold.Chemscore.DEInternal.Weighted>
2.4103

> <Gold.Chemscore.Rot.Weighted>
5.2371

> <Gold.Chemscore.Internal.Correction.Weighted>
   9.000000E+99

> <Gold.Protein.RotatedTorsions>
[ 6907 6896 6895 6894 ] final   56.28 input  -60.11 | X-H torsion
[ 7974 7965 7964 7962 ] final   54.61 input  175.53 | X-H torsion
[ 8008 7997 7996 7995 ] final -159.71 input   59.86 | X-H torsion
[ 10167 10162 10161 10158 ] final -155.43 input  -65.29 | X-H torsion
[ 10718 10713 10712 10709 ] final   76.05 input   66.30 | X-H torsion
[ 10763 10752 10751 10750 ] final -178.41 input  -60.55 | X-H torsion
[ 11005 11000 10999 10996 ] final   51.88 input  -57.11 | X-H torsion

> <Gold.Protein.ActiveResidues>
 VAL166  LYS551  ARG553  GLY616  TRP617  ASP618  TYR619  PRO620  LYS621  CYS622 
 ASP623  PHE694  ASN695  SER759  ASP760  ASP761  ALA762  ILE779  LEU786  VAL792 
 PHE793  MET794  SER795  GLU796  ALA797  LYS798  CYS799  TRP800  GLU811  SER814 

> <Gold.Protein.RotatedAtoms>
  152.3621  134.6858  160.0203 H   0  0  0  0  0  0  0  0  0  0  0  0  # atno 6907 bound_to 6896
  151.7178  133.3308  159.3315 H   0  0  0  0  0  0  0  0  0  0  0  0  # atno 6908 bound_to 6896
  150.7612  134.6410  159.6281 H   0  0  0  0  0  0  0  0  0  0  0  0  # atno 6909 bound_to 6896
  145.9591  139.4042  143.0259 H   0  0  0  0  0  0  0  0  0  0  0  0  # atno 7974 bound_to 7965
  155.7666  140.0846  157.2129 H   0  0  0  0  0  0  0  0  0  0  0  0  # atno 8008 bound_to 7997
  154.3999  140.1533  156.2950 H   0  0  0  0  0  0  0  0  0  0  0  0  # atno 8009 bound_to 7997
  155.8788  140.3421  155.5875 H   0  0  0  0  0  0  0  0  0  0  0  0  # atno 8010 bound_to 7997
  139.6931  143.9387  152.2394 H   0  0  0  0  0  0  0  0  0  0  0  0  # atno 10167 bound_to 10162
  157.6658  130.9756  150.1441 H   0  0  0  0  0  0  0  0  0  0  0  0  # atno 10718 bound_to 10713
  154.5480  135.2811  155.1035 H   0  0  0  0  0  0  0  0  0  0  0  0  # atno 10763 bound_to 10752
  154.2492  135.6342  153.5238 H   0  0  0  0  0  0  0  0  0  0  0  0  # atno 10764 bound_to 10752
  152.9995  135.5578  154.6038 H   0  0  0  0  0  0  0  0  0  0  0  0  # atno 10765 bound_to 10752
  140.0896  134.5227  155.8865 H   0  0  0  0  0  0  0  0  0  0  0  0  # atno 11005 bound_to 11000
  145.8065  140.9746  143.0971 LP  0  0  0  0  0  0  0  0  0  0  0  0  # atno 17320 bound_to 7965
  144.6811  139.9867  143.7484 LP  0  0  0  0  0  0  0  0  0  0  0  0  # atno 17321 bound_to 7965
  139.9208  144.6800  150.8463 LP  0  0  0  0  0  0  0  0  0  0  0  0  # atno 17342 bound_to 10162
  140.7688  143.3376  151.2276 LP  0  0  0  0  0  0  0  0  0  0  0  0  # atno 17343 bound_to 10162
  156.2257  130.3677  149.8504 LP  0  0  0  0  0  0  0  0  0  0  0  0  # atno 17370 bound_to 10713
  156.6345  130.8679  151.3502 LP  0  0  0  0  0  0  0  0  0  0  0  0  # atno 17371 bound_to 10713
  141.2073  133.6663  156.6300 LP  0  0  0  0  0  0  0  0  0  0  0  0  # atno 17394 bound_to 11000
  140.3371  134.7880  157.4370 LP  0  0  0  0  0  0  0  0  0  0  0  0  # atno 17395 bound_to 11000

$$$$
