AV-unprocessed.smi:3244|AV-procd|sdf|12400|dock9
  -GOLD-   2272018273D 1   1.00000     0.00000
 Structure written by MMmdl.
 40 41  0  0  0  0  0  0  0  0  1 V2000
  153.4703  141.8472  159.9015 C   0  0  0  0  0  0  0  0  0  0  0  0
  152.1002  142.5132  160.1102 C   0  0  0  0  0  0  0  0  0  0  0  0
  151.5152  142.9813  158.8424 N   0  0  0  0  0  0  0  0  0  0  0  0
  151.3057  142.1057  157.8247 C   0  0  0  0  0  0  0  0  0  0  0  0
  151.4278  140.8883  157.9664 O   0  0  0  0  0  0  0  0  0  0  0  0
  150.9103  142.6234  156.4344 C   0  0  0  0  0  0  0  0  0  0  0  0
  149.5301  142.2585  156.0903 N   0  0  0  0  0  0  0  0  0  0  0  0
  149.4419  141.3214  154.9746 C   0  0  2  0  0  0  0  0  0  0  0  0
  148.1174  141.5228  154.2185 C   0  0  0  0  0  0  0  0  0  0  0  0
  149.5541  139.8851  155.5257 C   0  0  0  0  0  0  0  0  0  0  0  0
  150.8521  139.2865  155.2599 N   0  0  0  0  0  0  0  0  0  0  0  0
  151.4249  138.9901  154.0407 C   0  0  0  0  0  0  0  0  0  0  0  0
  152.6503  138.4417  154.2893 C   0  0  0  0  0  0  0  0  0  0  0  0
  152.7367  138.4376  155.7095 C   0  0  0  0  0  0  0  0  0  0  0  0
  151.6579  138.9407  156.2876 N   0  0  0  0  0  0  0  0  0  0  0  0
  151.4229  144.4125  158.7042 C   0  0  0  0  0  0  0  0  0  0  0  0
  151.8270  145.3255  159.8483 C   0  0  0  0  0  0  0  0  0  0  0  0
  150.3751  145.1851  159.4836 C   0  0  0  0  0  0  0  0  0  0  0  0
  153.8975  141.5383  160.8555 H   0  0  0  0  0  0  0  0  0  0  0  0
  154.1733  142.5357  159.4313 H   0  0  0  0  0  0  0  0  0  0  0  0
  153.3991  140.9599  159.2720 H   0  0  0  0  0  0  0  0  0  0  0  0
  151.4189  141.8155  160.6001 H   0  0  0  0  0  0  0  0  0  0  0  0
  152.2230  143.3326  160.8168 H   0  0  0  0  0  0  0  0  0  0  0  0
  151.0111  143.7090  156.4243 H   0  0  0  0  0  0  0  0  0  0  0  0
  151.6070  142.2474  155.6868 H   0  0  0  0  0  0  0  0  0  0  0  0
  148.9565  143.0700  155.9092 H   0  0  0  0  0  0  0  0  0  0  0  0
  150.2733  141.4863  154.2870 H   0  0  0  0  0  0  0  0  0  0  0  0
  148.0163  140.7946  153.4133 H   0  0  0  0  0  0  0  0  0  0  0  0
  148.0550  142.5111  153.7634 H   0  0  0  0  0  0  0  0  0  0  0  0
  147.2586  141.4037  154.8802 H   0  0  0  0  0  0  0  0  0  0  0  0
  149.3588  139.8656  156.5996 H   0  0  0  0  0  0  0  0  0  0  0  0
  148.7984  139.2490  155.0634 H   0  0  0  0  0  0  0  0  0  0  0  0
  150.9203  139.1975  153.1086 H   0  0  0  0  0  0  0  0  0  0  0  0
  153.3747  138.0961  153.5670 H   0  0  0  0  0  0  0  0  0  0  0  0
  153.5457  138.0869  156.3329 H   0  0  0  0  0  0  0  0  0  0  0  0
  151.6523  144.7913  157.7106 H   0  0  0  0  0  0  0  0  0  0  0  0
  152.1324  144.8845  160.7951 H   0  0  0  0  0  0  0  0  0  0  0  0
  152.3204  146.2605  159.5908 H   0  0  0  0  0  0  0  0  0  0  0  0
  149.8964  146.0239  158.9830 H   0  0  0  0  0  0  0  0  0  0  0  0
  149.7447  144.6402  160.1836 H   0  0  0  0  0  0  0  0  0  0  0  0
  1  2  1  0  0  0  0
  1 19  1  0  0  0  0
  1 20  1  0  0  0  0
  1 21  1  0  0  0  0
  2  3  1  0  0  0  0
  2 22  1  0  0  0  0
  2 23  1  0  0  0  0
  3  4  1  0  0  0  0
  3 16  1  0  0  0  0
  4  5  2  0  0  0  0
  4  6  1  0  0  0  0
  6  7  1  0  0  0  0
  6 24  1  0  0  0  0
  6 25  1  0  0  0  0
  7  8  1  0  0  0  0
  7 26  1  0  0  0  0
  8  9  1  0  0  0  0
  8 10  1  0  0  0  0
  8 27  1  0  0  0  0
  9 28  1  0  0  0  0
  9 29  1  0  0  0  0
  9 30  1  0  0  0  0
 10 11  1  0  0  0  0
 10 31  1  0  0  0  0
 10 32  1  0  0  0  0
 11 15  1  0  0  0  0
 11 12  1  0  0  0  0
 12 13  2  0  0  0  0
 12 33  1  0  0  0  0
 13 14  1  0  0  0  0
 13 34  1  0  0  0  0
 14 15  2  0  0  0  0
 14 35  1  0  0  0  0
 16 18  1  0  0  0  0
 16 17  1  0  0  0  0
 16 36  1  0  0  0  0
 17 18  1  0  0  0  0
 17 37  1  0  0  0  0
 17 38  1  0  0  0  0
 18 39  1  0  0  0  0
 18 40  1  0  0  0  0
M  END
> <s_m_source_file>
AV-unprocessed.smi

> <i_m_source_file_index>
3244

> <i_lp_mmshare_version>
43012

> <i_f3d_flags>
0

> <s_epik_input>
W0NIMl0xW0NIMl1bQ0hdMU4oW0NIMl1bQ0gzXSlDKD1PKVtDSDJdW05IXVtDQEhdKFtDSDNdKVtDSDJdbjJbY0hdW2NIXVtjSF1uMg==

> <s_epik_cmdline>
J2VwaWtfcHl0aG9uJywgJy1waCcsICc3LjAnLCAnLXRuJywgJzgnLCAnLW1hJywgJzIwMCcsICctbWV0YWxfYmluZGluZycsICctaW1hZScsICc8aW5maWxlLm1hZT4nLCAnLW9tYWUnLCAnPG91dGZpbGUubWFlPic=

> <r_lp_tautomer_probability>
1

> <r_epik_Ionization_Penalty>
1.02506

> <r_epik_Ionization_Penalty_Charging>
0

> <r_epik_Ionization_Penalty_Neutral>
1.02506

> <r_epik_State_Penalty>
1.07563

> <r_epik_Charging_Adjusted_Penalty>
1.07563

> <i_epik_Tot_Q>
0

> <i_epik_Tot_abs_Q>
0

> <r_epik_Metal_State_Penalty>
1.07558

> <b_epik_Metal_Only>
0

> <s_lp_Force_Field>
OPLS_2005

> <r_lp_Energy>
34.7243

> <b_lp_Chiralities_Consistent>
1

> <s_lp_Variant>
AV-unprocessed.smi:3244-3

> <Gold.Version>
5.8.1

> <Gold.Id.Protein>
6NUR|6NUR_protein|mol2

> <Gold.PLP.Fitness>
45.2098

> <Gold.PLP.PLP>
-42.0199

> <Gold.PLP.part.hbond>
-1.0000

> <Gold.PLP.part.metal>
0.0000

> <Gold.PLP.part.buried>
-5.0017

> <Gold.PLP.part.nonpolar>
-35.3614

> <Gold.PLP.part.repulsive>
0.0000

> <Gold.PLP.ligand.clash>
0.0000

> <Gold.PLP.ligand.torsion>
1.6061

> <Gold.PLP.Chemscore.Hbond>
1.0000

> <Gold.PLP.Chemscore.CHOScore>
1.0000

> <Gold.PLP.Chemscore.Metal>
0.0000

> <Gold.Chemscore.Hbonds>
donor molecule, donor type, donor heavy atom, donor atom, acceptor molecule, acceptor atom, score
      L1  H     7    26       P1  8028  0.96
      L1  C    12    33       P1  7957  1.00

> <Gold.PLP.Chemscore.Internal.Correction>
0.4020

> <Gold.Rescore>
     Score         DG    S(hbond)    S(metal)    S(lipo)     H(rot)  DE(clash)    DE(int)     intcor
     14.60     -16.84       0.99        0.00     111.55       1.95       0.41       1.82       ----

> <Gold.Chemscore.Fitness>
14.6039

> <Gold.Chemscore.DG>
-16.8374

> <Gold.Chemscore.ZeroCoef>
-5.4800

> <Gold.Chemscore.Hbond>
0.9912

> <Gold.Chemscore.Metal>
0.0000

> <Gold.Chemscore.Lipo>
111.5520

> <Gold.Chemscore.Internal_Hbond>
0.0000

> <Gold.Chemscore.DEClash>
0.4120

> <Gold.Chemscore.DEInternal>
1.8215

> <Gold.Chemscore.Rot>
1.9550

> <Gold.Chemscore.Internal.Correction>
   9.000000E+99

> <Gold.Chemscore.Hbonds>
donor molecule, donor type, donor heavy atom, donor atom, acceptor molecule, acceptor atom, score
      L1  H     7    26       P1  8028  0.92

> <Gold.Chemscore.Hbond.Weighted>
-3.3106

> <Gold.Chemscore.Metal.Weighted>
-0.0000

> <Gold.Chemscore.Lipo.Weighted>
-13.0516

> <Gold.Chemscore.Internal_Hbond.Weighted>
0.0000

> <Gold.Chemscore.DEClash.Weighted>
0.4120

> <Gold.Chemscore.DEInternal.Weighted>
1.8215

> <Gold.Chemscore.Rot.Weighted>
5.0047

> <Gold.Chemscore.Internal.Correction.Weighted>
   9.000000E+99

> <Gold.Protein.RotatedTorsions>
[ 6907 6896 6895 6894 ] final -171.30 input  -60.11 | X-H torsion
[ 7974 7965 7964 7962 ] final  132.12 input  175.53 | X-H torsion
[ 8008 7997 7996 7995 ] final   33.30 input   59.86 | X-H torsion
[ 10167 10162 10161 10158 ] final  -88.04 input  -65.29 | X-H torsion
[ 10718 10713 10712 10709 ] final   93.82 input   66.30 | X-H torsion
[ 10763 10752 10751 10750 ] final -153.79 input  -60.55 | X-H torsion
[ 11005 11000 10999 10996 ] final  -45.35 input  -57.11 | X-H torsion

> <Gold.Protein.ActiveResidues>
 VAL166  LYS551  ARG553  GLY616  TRP617  ASP618  TYR619  PRO620  LYS621  CYS622 
 ASP623  PHE694  ASN695  SER759  ASP760  ASP761  ALA762  ILE779  LEU786  VAL792 
 PHE793  MET794  SER795  GLU796  ALA797  LYS798  CYS799  TRP800  GLU811  SER814 

> <Gold.Protein.RotatedAtoms>
  151.5216  133.3465  159.2902 H   0  0  0  0  0  0  0  0  0  0  0  0  # atno 6907 bound_to 6896
  150.8649  134.8012  159.7122 H   0  0  0  0  0  0  0  0  0  0  0  0  # atno 6908 bound_to 6896
  152.4657  134.5091  159.9800 H   0  0  0  0  0  0  0  0  0  0  0  0  # atno 6909 bound_to 6896
  145.0001  139.4320  143.5296 H   0  0  0  0  0  0  0  0  0  0  0  0  # atno 7974 bound_to 7965
  155.1364  140.3262  155.4462 H   0  0  0  0  0  0  0  0  0  0  0  0  # atno 8008 bound_to 7997
  156.2618  140.2001  156.6431 H   0  0  0  0  0  0  0  0  0  0  0  0  # atno 8009 bound_to 7997
  154.6574  140.0551  157.0011 H   0  0  0  0  0  0  0  0  0  0  0  0  # atno 8010 bound_to 7997
  140.3786  143.2760  151.9412 H   0  0  0  0  0  0  0  0  0  0  0  0  # atno 10167 bound_to 10162
  157.6952  131.0491  150.4093 H   0  0  0  0  0  0  0  0  0  0  0  0  # atno 10718 bound_to 10713
  154.7904  135.3205  154.7791 H   0  0  0  0  0  0  0  0  0  0  0  0  # atno 10763 bound_to 10752
  153.8481  135.6865  153.4799 H   0  0  0  0  0  0  0  0  0  0  0  0  # atno 10764 bound_to 10752
  153.1571  135.4675  154.9660 H   0  0  0  0  0  0  0  0  0  0  0  0  # atno 10765 bound_to 10752
  141.0510  133.6743  156.3001 H   0  0  0  0  0  0  0  0  0  0  0  0  # atno 11005 bound_to 11000
  146.3450  139.9385  142.8744 LP  0  0  0  0  0  0  0  0  0  0  0  0  # atno 17320 bound_to 7965
  145.2164  140.9917  143.4071 LP  0  0  0  0  0  0  0  0  0  0  0  0  # atno 17321 bound_to 7965
  139.4797  144.5840  151.7884 LP  0  0  0  0  0  0  0  0  0  0  0  0  # atno 17342 bound_to 10162
  140.4961  144.1238  150.5960 LP  0  0  0  0  0  0  0  0  0  0  0  0  # atno 17343 bound_to 10162
  156.4478  130.4005  149.6655 LP  0  0  0  0  0  0  0  0  0  0  0  0  # atno 17370 bound_to 10713
  156.3815  130.7581  151.2575 LP  0  0  0  0  0  0  0  0  0  0  0  0  # atno 17371 bound_to 10713
  140.6055  134.5511  157.5525 LP  0  0  0  0  0  0  0  0  0  0  0  0  # atno 17394 bound_to 11000
  139.9350  134.7892  156.0827 LP  0  0  0  0  0  0  0  0  0  0  0  0  # atno 17395 bound_to 11000

$$$$
