AV-unprocessed.smi:1701|AV-procd|sdf|6840|dock6
  -GOLD-   22720 8 13D 1   1.00000     0.00000
 Structure written by MMmdl.
 54 56  0  0  0  0  0  0  0  0  4 V2000
  151.8179  145.2654  160.2649 C   0  0  0  0  0  0  0  0  0  0  0  0
  152.4731  144.4925  159.1106 C   0  0  0  0  0  0  0  0  0  0  0  0
  152.4088  143.0422  159.2912 N   0  0  0  0  0  0  0  0  0  0  0  0
  153.6102  142.3821  159.8077 C   0  0  0  0  0  0  0  0  0  0  0  0
  153.3095  141.0450  160.5032 C   0  0  0  0  0  0  0  0  0  0  0  0
  151.5838  142.3424  158.3796 C   0  0  0  0  0  0  0  0  0  0  0  0
  150.2637  142.7563  158.0793 C   0  0  0  0  0  0  0  0  0  0  0  0
  149.4893  142.0220  157.1584 C   0  0  0  0  0  0  0  0  0  0  0  0
  150.0373  140.8848  156.5313 C   0  0  0  0  0  0  0  0  0  0  0  0
  149.2096  140.1634  155.6298 N   0  0  0  0  0  0  0  0  0  0  0  0
  149.5557  139.2823  154.6588 C   0  0  0  0  0  0  0  0  0  0  0  0
  150.7471  139.0643  154.4469 O   0  0  0  0  0  0  0  0  0  0  0  0
  148.5817  138.6748  153.9150 N   0  5  0  0  0  0  0  0  0  0  0  0
  147.1533  139.0228  153.7922 C   0  0  1  0  0  0  0  0  0  0  0  0
  146.9031  139.7099  152.4350 C   0  0  0  0  0  0  0  0  0  0  0  0
  146.5293  138.5828  151.4494 C   0  0  0  0  0  0  0  0  0  0  0  0
  146.4981  137.3436  152.2518 N   0  3  2  0  0  0  0  0  0  0  0  0
  145.5637  136.2821  151.8162 C   0  0  0  0  0  0  0  0  0  0  0  0
  145.7177  135.0503  152.7312 C   0  0  0  0  0  0  0  0  0  0  0  0
  145.5620  135.4180  154.2211 C   0  0  0  0  0  0  0  0  0  0  0  0
  146.5121  136.5667  154.6106 C   0  0  0  0  0  0  0  0  0  0  0  0
  146.2926  137.7565  153.6498 C   0  0  1  0  0  0  0  0  0  0  0  0
  151.3551  140.5012  156.8733 C   0  0  0  0  0  0  0  0  0  0  0  0
  152.0608  141.2332  157.7621 N   0  3  0  0  0  0  0  0  0  0  0  0
  151.8715  146.3394  160.0873 H   0  0  0  0  0  0  0  0  0  0  0  0
  152.3149  145.0625  161.2139 H   0  0  0  0  0  0  0  0  0  0  0  0
  150.7652  145.0024  160.3737 H   0  0  0  0  0  0  0  0  0  0  0  0
  151.9663  144.7455  158.1786 H   0  0  0  0  0  0  0  0  0  0  0  0
  153.5006  144.8270  158.9768 H   0  0  0  0  0  0  0  0  0  0  0  0
  154.3287  142.2347  159.0004 H   0  0  0  0  0  0  0  0  0  0  0  0
  154.0992  143.0439  160.5235 H   0  0  0  0  0  0  0  0  0  0  0  0
  154.2243  140.6084  160.9039 H   0  0  0  0  0  0  0  0  0  0  0  0
  152.8704  140.3143  159.8246 H   0  0  0  0  0  0  0  0  0  0  0  0
  152.6194  141.1842  161.3357 H   0  0  0  0  0  0  0  0  0  0  0  0
  149.8250  143.6195  158.5559 H   0  0  0  0  0  0  0  0  0  0  0  0
  148.4792  142.3343  156.9357 H   0  0  0  0  0  0  0  0  0  0  0  0
  148.2240  140.3736  155.6871 H   0  0  0  0  0  0  0  0  0  0  0  0
  146.7997  139.6394  154.6195 H   0  0  0  0  0  0  0  0  0  0  0  0
  146.0632  140.3995  152.5267 H   0  0  0  0  0  0  0  0  0  0  0  0
  147.7554  140.2960  152.0879 H   0  0  0  0  0  0  0  0  0  0  0  0
  145.5542  138.7809  151.0014 H   0  0  0  0  0  0  0  0  0  0  0  0
  147.2565  138.4847  150.6426 H   0  0  0  0  0  0  0  0  0  0  0  0
  144.5389  136.6550  151.8499 H   0  0  0  0  0  0  0  0  0  0  0  0
  145.7756  136.0120  150.7813 H   0  0  0  0  0  0  0  0  0  0  0  0
  144.9873  134.2888  152.4568 H   0  0  0  0  0  0  0  0  0  0  0  0
  146.7007  134.6052  152.5730 H   0  0  0  0  0  0  0  0  0  0  0  0
  144.5312  135.7169  154.4156 H   0  0  0  0  0  0  0  0  0  0  0  0
  145.7540  134.5449  154.8453 H   0  0  0  0  0  0  0  0  0  0  0  0
  146.3299  136.8629  155.6448 H   0  0  0  0  0  0  0  0  0  0  0  0
  147.5412  136.2053  154.5639 H   0  0  0  0  0  0  0  0  0  0  0  0
  145.2505  138.0696  153.7486 H   0  0  0  0  0  0  0  0  0  0  0  0
  151.8693  139.6342  156.4864 H   0  0  0  0  0  0  0  0  0  0  0  0
  147.4341  136.9646  152.2199 H   0  0  0  0  0  0  0  0  0  0  0  0
  153.0088  140.9290  157.9835 H   0  0  0  0  0  0  0  0  0  0  0  0
  1  2  1  0  0  0  0
  1 25  1  0  0  0  0
  1 26  1  0  0  0  0
  1 27  1  0  0  0  0
  2  3  1  0  0  0  0
  2 28  1  0  0  0  0
  2 29  1  0  0  0  0
  3  4  1  0  0  0  0
  3  6  1  0  0  0  0
  4  5  1  0  0  0  0
  4 30  1  0  0  0  0
  4 31  1  0  0  0  0
  5 32  1  0  0  0  0
  5 33  1  0  0  0  0
  5 34  1  0  0  0  0
  6 24  1  0  0  0  0
  6  7  2  0  0  0  0
  7  8  1  0  0  0  0
  7 35  1  0  0  0  0
  8  9  2  0  0  0  0
  8 36  1  0  0  0  0
  9 10  1  0  0  0  0
  9 23  1  0  0  0  0
 10 11  1  0  0  0  0
 10 37  1  0  0  0  0
 11 12  2  0  0  0  0
 11 13  1  0  0  0  0
 13 14  1  0  0  0  0
 14 22  1  0  0  0  0
 14 15  1  0  0  0  0
 14 38  1  0  0  0  0
 15 16  1  0  0  0  0
 15 39  1  0  0  0  0
 15 40  1  0  0  0  0
 16 17  1  0  0  0  0
 16 41  1  0  0  0  0
 16 42  1  0  0  0  0
 17 22  1  0  0  0  0
 17 18  1  0  0  0  0
 17 53  1  0  0  0  0
 18 19  1  0  0  0  0
 18 43  1  0  0  0  0
 18 44  1  0  0  0  0
 19 20  1  0  0  0  0
 19 45  1  0  0  0  0
 19 46  1  0  0  0  0
 20 21  1  0  0  0  0
 20 47  1  0  0  0  0
 20 48  1  0  0  0  0
 21 22  1  0  0  0  0
 21 49  1  0  0  0  0
 21 50  1  0  0  0  0
 22 51  1  0  0  0  0
 23 24  2  0  0  0  0
 23 52  1  0  0  0  0
 24 54  1  0  0  0  0
M  CHG  1  13  -1
M  CHG  1  17   1
M  CHG  1  24   1
M  END
> <s_m_source_file>
AV-unprocessed.smi

> <i_m_source_file_index>
1701

> <i_lp_mmshare_version>
43012

> <i_f3d_flags>
0

> <s_epik_input>
W0NIM11bQ0gyXU4oW0NIMl1bQ0gzXSljMVtjSF1bY0hdYyhbY0hdbjEpW05IXUMoPU8pW05IXVtDQEhdKFtDSDJdW0NIMl0yKVtDQEBIXShOMjMpW0NIMl1bQ0gyXVtDSDJdW0NIMl0z

> <s_epik_cmdline>
J2VwaWtfcHl0aG9uJywgJy1waCcsICc3LjAnLCAnLXRuJywgJzgnLCAnLW1hJywgJzIwMCcsICctbWV0YWxfYmluZGluZycsICctaW1hZScsICc8aW5maWxlLm1hZT4nLCAnLW9tYWUnLCAnPG91dGZpbGUubWFlPic=

> <r_lp_tautomer_probability>
0.999994

> <r_epik_Ionization_Penalty>
7.37095

> <r_epik_Ionization_Penalty_Charging>
7.37095

> <r_epik_Ionization_Penalty_Neutral>
3.78969e-06

> <r_epik_State_Penalty>
6.83842

> <r_epik_Charging_Adjusted_Penalty>
14.2094

> <i_epik_Tot_Q>
1

> <i_epik_Tot_abs_Q>
3

> <r_epik_Metal_State_Penalty>
2.78552

> <b_epik_Metal_Only>
1

> <s_lp_Force_Field>
OPLS_2005

> <r_lp_Energy>
51.4286

> <b_lp_Chiralities_Consistent>
1

> <s_lp_Variant>
AV-unprocessed.smi:1701-20

> <Gold.Version>
5.8.1

> <Gold.Id.Protein>
6NUR|6NUR_protein|mol2

> <Gold.PLP.Fitness>
50.8371

> <Gold.PLP.PLP>
-43.2562

> <Gold.PLP.part.hbond>
-2.0000

> <Gold.PLP.part.metal>
0.0000

> <Gold.PLP.part.buried>
-1.2764

> <Gold.PLP.part.nonpolar>
-42.2538

> <Gold.PLP.part.repulsive>
0.8356

> <Gold.PLP.ligand.clash>
0.0000

> <Gold.PLP.ligand.torsion>
1.2249

> <Gold.PLP.Chemscore.Hbond>
3.0000

> <Gold.PLP.Chemscore.CHOScore>
0.0000

> <Gold.PLP.Chemscore.Metal>
0.0000

> <Gold.Chemscore.Hbonds>
donor molecule, donor type, donor heavy atom, donor atom, acceptor molecule, acceptor atom, score
      L1  H    17    53       P1  7948  2.00
      P1  H  7989  7998       L1    12  0.54

> <Gold.PLP.Chemscore.Internal.Correction>
1.0307

> <Gold.Rescore>
     Score         DG    S(hbond)    S(metal)    S(lipo)     H(rot)  DE(clash)    DE(int)     intcor
     18.29     -21.64       1.92        0.00     111.31       1.28       0.87       2.48       ----

> <Gold.Chemscore.Fitness>
18.2913

> <Gold.Chemscore.DG>
-21.6399

> <Gold.Chemscore.ZeroCoef>
-5.4800

> <Gold.Chemscore.Hbond>
1.9233

> <Gold.Chemscore.Metal>
0.0000

> <Gold.Chemscore.Lipo>
111.3056

> <Gold.Chemscore.Internal_Hbond>
0.0000

> <Gold.Chemscore.DEClash>
0.8660

> <Gold.Chemscore.DEInternal>
2.4827

> <Gold.Chemscore.Rot>
1.2838

> <Gold.Chemscore.Internal.Correction>
   9.000000E+99

> <Gold.Chemscore.Hbonds>
donor molecule, donor type, donor heavy atom, donor atom, acceptor molecule, acceptor atom, score
      L1  H    17    53       P1  7948  1.00
      P1  H  7989  7998       L1    12  0.38

> <Gold.Chemscore.Hbond.Weighted>
-6.4237

> <Gold.Chemscore.Metal.Weighted>
-0.0000

> <Gold.Chemscore.Lipo.Weighted>
-13.0228

> <Gold.Chemscore.Internal_Hbond.Weighted>
0.0000

> <Gold.Chemscore.DEClash.Weighted>
0.8660

> <Gold.Chemscore.DEInternal.Weighted>
2.4827

> <Gold.Chemscore.Rot.Weighted>
3.2865

> <Gold.Chemscore.Internal.Correction.Weighted>
   9.000000E+99

> <Gold.Protein.RotatedTorsions>
[ 6907 6896 6895 6894 ] final   94.04 input  -60.11 | X-H torsion
[ 7974 7965 7964 7962 ] final  -58.49 input  175.53 | X-H torsion
[ 8008 7997 7996 7995 ] final   13.25 input   59.86 | X-H torsion
[ 10167 10162 10161 10158 ] final   58.87 input  -65.29 | X-H torsion
[ 10718 10713 10712 10709 ] final -115.98 input   66.30 | X-H torsion
[ 10763 10752 10751 10750 ] final  165.58 input  -60.55 | X-H torsion
[ 11005 11000 10999 10996 ] final   38.85 input  -57.11 | X-H torsion

> <Gold.Protein.ActiveResidues>
 VAL166  LYS551  ARG553  GLY616  TRP617  ASP618  TYR619  PRO620  LYS621  CYS622 
 ASP623  PHE694  ASN695  SER759  ASP760  ASP761  ALA762  ILE779  LEU786  VAL792 
 PHE793  MET794  SER795  GLU796  ALA797  LYS798  CYS799  TRP800  GLU811  SER814 

> <Gold.Protein.RotatedAtoms>
  152.5451  134.1255  159.8416 H   0  0  0  0  0  0  0  0  0  0  0  0  # atno 6907 bound_to 6896
  151.1306  133.5032  159.2606 H   0  0  0  0  0  0  0  0  0  0  0  0  # atno 6908 bound_to 6896
  151.1679  135.0314  159.8793 H   0  0  0  0  0  0  0  0  0  0  0  0  # atno 6909 bound_to 6896
  145.8387  140.8431  143.0045 H   0  0  0  0  0  0  0  0  0  0  0  0  # atno 7974 bound_to 7965
  154.8318  140.2900  155.5717 H   0  0  0  0  0  0  0  0  0  0  0  0  # atno 8008 bound_to 7997
  156.3006  140.2530  156.3176 H   0  0  0  0  0  0  0  0  0  0  0  0  # atno 8009 bound_to 7997
  154.9222  140.0385  157.1993 H   0  0  0  0  0  0  0  0  0  0  0  0  # atno 8010 bound_to 7997
  140.1826  144.4167  150.6608 H   0  0  0  0  0  0  0  0  0  0  0  0  # atno 10167 bound_to 10162
  156.0932  130.6110  150.8976 H   0  0  0  0  0  0  0  0  0  0  0  0  # atno 10718 bound_to 10713
  154.3261  135.2755  155.2495 H   0  0  0  0  0  0  0  0  0  0  0  0  # atno 10763 bound_to 10752
  154.4827  135.5854  153.6405 H   0  0  0  0  0  0  0  0  0  0  0  0  # atno 10764 bound_to 10752
  152.9871  135.6115  154.3450 H   0  0  0  0  0  0  0  0  0  0  0  0  # atno 10765 bound_to 10752
  140.2086  134.3783  155.8060 H   0  0  0  0  0  0  0  0  0  0  0  0  # atno 11005 bound_to 11000
  144.6735  140.0780  143.7470 LP  0  0  0  0  0  0  0  0  0  0  0  0  # atno 17320 bound_to 7965
  145.9489  139.2720  143.1224 LP  0  0  0  0  0  0  0  0  0  0  0  0  # atno 17321 bound_to 7965
  140.6510  143.2225  151.6078 LP  0  0  0  0  0  0  0  0  0  0  0  0  # atno 17342 bound_to 10162
  139.5290  144.2973  152.1102 LP  0  0  0  0  0  0  0  0  0  0  0  0  # atno 17343 bound_to 10162
  157.6087  131.0937  150.8834 LP  0  0  0  0  0  0  0  0  0  0  0  0  # atno 17370 bound_to 10713
  156.8978  130.5235  149.5284 LP  0  0  0  0  0  0  0  0  0  0  0  0  # atno 17371 bound_to 10713
  141.2226  133.7131  156.8379 LP  0  0  0  0  0  0  0  0  0  0  0  0  # atno 17394 bound_to 11000
  140.1976  134.8920  157.3132 LP  0  0  0  0  0  0  0  0  0  0  0  0  # atno 17395 bound_to 11000

$$$$
