AV-unprocessed.smi:276|AV-procd|sdf|2080|dock5
  -GOLD-   2262021353D 1   1.00000     0.00000
 Structure written by MMmdl.
 57 61  0  0  0  0  0  0  0  0  1 V2000
  147.1839  136.2813  162.0790 C   0  0  0  0  0  0  0  0  0  0  0  0
  147.2863  137.3516  161.1565 O   0  0  0  0  0  0  0  0  0  0  0  0
  147.9126  136.9686  159.9428 C   0  0  2  0  0  0  0  0  0  0  0  0
  148.0222  138.0917  158.9051 C   0  0  0  0  0  0  0  0  0  0  0  0
  147.7149  137.0289  157.8417 C   0  0  2  0  0  0  0  0  0  0  0  0
  146.8952  137.5399  156.7403 N   0  0  0  0  0  0  0  0  0  0  0  0
  147.4377  138.6811  156.0139 C   0  0  0  0  0  0  0  0  0  0  0  0
  146.4225  136.6185  155.8704 C   0  0  0  0  0  0  0  0  0  0  0  0
  146.5672  135.3154  156.2191 N   0  0  0  0  0  0  0  0  0  0  0  0
  146.1318  134.3509  155.4032 C   0  0  0  0  0  0  0  0  0  0  0  0
  145.5268  134.4684  154.2194 N   0  0  0  0  0  0  0  0  0  0  0  0
  145.3590  135.7781  153.8768 C   0  0  0  0  0  0  0  0  0  0  0  0
  145.7678  136.9091  154.6387 C   0  0  0  0  0  0  0  0  0  0  0  0
  145.4104  138.0777  153.9751 N   0  0  0  0  0  0  0  0  0  0  0  0
  144.8361  137.6614  152.8797 C   0  0  0  0  0  0  0  0  0  0  0  0
  144.7624  136.2948  152.7407 N   0  0  0  0  0  0  0  0  0  0  0  0
  144.1719  135.5675  151.6309 C   0  0  0  0  0  0  0  0  0  0  0  0
  145.1852  135.2912  150.5022 C   0  0  2  0  0  0  0  0  0  0  0  0
  144.6841  135.8129  149.2857 O   0  0  0  0  0  0  0  0  0  0  0  0
  145.4634  133.7871  150.3234 C   0  0  1  0  0  0  0  0  0  0  0  0
  145.7979  133.0467  151.6192 C   0  0  0  0  0  0  0  0  0  0  0  0
  145.4434  131.6229  151.2576 C   0  0  0  0  0  0  0  0  0  0  0  0
  144.1953  131.8170  150.4013 C   0  0  0  0  0  0  0  0  0  0  0  0
  144.3025  133.1201  149.8327 O   0  0  0  0  0  0  0  0  0  0  0  0
  146.9743  136.2438  158.9580 C   0  0  0  0  0  0  0  0  0  0  0  0
  146.8889  134.7120  158.9501 C   0  0  0  0  0  0  0  0  0  0  0  0
  145.3785  134.8195  158.7169 C   0  0  0  0  0  0  0  0  0  0  0  0
  145.4442  136.2881  159.1495 C   0  0  0  0  0  0  0  0  0  0  0  0
  146.6931  136.6281  162.9882 H   0  0  0  0  0  0  0  0  0  0  0  0
  148.1672  135.8978  162.3538 H   0  0  0  0  0  0  0  0  0  0  0  0
  146.5914  135.4632  161.6675 H   0  0  0  0  0  0  0  0  0  0  0  0
  148.8510  136.4280  160.0864 H   0  0  0  0  0  0  0  0  0  0  0  0
  147.2373  138.8436  159.0105 H   0  0  0  0  0  0  0  0  0  0  0  0
  149.0103  138.5451  158.8261 H   0  0  0  0  0  0  0  0  0  0  0  0
  148.6313  136.5294  157.5246 H   0  0  0  0  0  0  0  0  0  0  0  0
  148.3427  138.4005  155.4736 H   0  0  0  0  0  0  0  0  0  0  0  0
  147.6885  139.4920  156.6977 H   0  0  0  0  0  0  0  0  0  0  0  0
  146.7148  139.0695  155.2954 H   0  0  0  0  0  0  0  0  0  0  0  0
  146.2926  133.3402  155.7479 H   0  0  0  0  0  0  0  0  0  0  0  0
  144.4433  138.3441  152.1403 H   0  0  0  0  0  0  0  0  0  0  0  0
  143.7711  134.6300  152.0175 H   0  0  0  0  0  0  0  0  0  0  0  0
  143.3210  136.1349  151.2518 H   0  0  0  0  0  0  0  0  0  0  0  0
  146.1209  135.8055  150.7260 H   0  0  0  0  0  0  0  0  0  0  0  0
  144.3321  136.6745  149.4507 H   0  0  0  0  0  0  0  0  0  0  0  0
  146.2682  133.6315  149.6027 H   0  0  0  0  0  0  0  0  0  0  0  0
  146.8394  133.1624  151.9199 H   0  0  0  0  0  0  0  0  0  0  0  0
  145.1643  133.3932  152.4370 H   0  0  0  0  0  0  0  0  0  0  0  0
  146.2427  131.1791  150.6626 H   0  0  0  0  0  0  0  0  0  0  0  0
  145.2707  130.9884  152.1273 H   0  0  0  0  0  0  0  0  0  0  0  0
  144.1034  131.0531  149.6287 H   0  0  0  0  0  0  0  0  0  0  0  0
  143.2977  131.7826  151.0196 H   0  0  0  0  0  0  0  0  0  0  0  0
  147.4363  134.2266  158.1424 H   0  0  0  0  0  0  0  0  0  0  0  0
  147.1322  134.2741  159.9191 H   0  0  0  0  0  0  0  0  0  0  0  0
  145.1002  134.6924  157.6708 H   0  0  0  0  0  0  0  0  0  0  0  0
  144.7774  134.1851  159.3687 H   0  0  0  0  0  0  0  0  0  0  0  0
  145.1418  136.4161  160.1892 H   0  0  0  0  0  0  0  0  0  0  0  0
  144.9059  136.9777  158.5000 H   0  0  0  0  0  0  0  0  0  0  0  0
  1  2  1  0  0  0  0
  1 29  1  0  0  0  0
  1 30  1  0  0  0  0
  1 31  1  0  0  0  0
  2  3  1  0  0  0  0
  3 25  1  0  0  0  0
  3  4  1  0  0  0  0
  3 32  1  0  0  0  0
  4  5  1  0  0  0  0
  4 33  1  0  0  0  0
  4 34  1  0  0  0  0
  5  6  1  0  0  0  0
  5 25  1  0  0  0  0
  5 35  1  0  0  0  0
  6  7  1  0  0  0  0
  6  8  1  0  0  0  0
  7 36  1  0  0  0  0
  7 37  1  0  0  0  0
  7 38  1  0  0  0  0
  8 13  1  0  0  0  0
  8  9  2  0  0  0  0
  9 10  1  0  0  0  0
 10 11  2  0  0  0  0
 10 39  1  0  0  0  0
 11 12  1  0  0  0  0
 12 16  1  0  0  0  0
 12 13  2  0  0  0  0
 13 14  1  0  0  0  0
 14 15  2  0  0  0  0
 15 16  1  0  0  0  0
 15 40  1  0  0  0  0
 16 17  1  0  0  0  0
 17 18  1  0  0  0  0
 17 41  1  0  0  0  0
 17 42  1  0  0  0  0
 18 19  1  0  0  0  0
 18 20  1  0  0  0  0
 18 43  1  0  0  0  0
 19 44  1  0  0  0  0
 20 24  1  0  0  0  0
 20 21  1  0  0  0  0
 20 45  1  0  0  0  0
 21 22  1  0  0  0  0
 21 46  1  0  0  0  0
 21 47  1  0  0  0  0
 22 23  1  0  0  0  0
 22 48  1  0  0  0  0
 22 49  1  0  0  0  0
 23 24  1  0  0  0  0
 23 50  1  0  0  0  0
 23 51  1  0  0  0  0
 25 28  1  0  0  0  0
 25 26  1  0  0  0  0
 26 27  1  0  0  0  0
 26 52  1  0  0  0  0
 26 53  1  0  0  0  0
 27 28  1  0  0  0  0
 27 54  1  0  0  0  0
 27 55  1  0  0  0  0
 28 56  1  0  0  0  0
 28 57  1  0  0  0  0
M  END
> <s_m_source_file>
AV-unprocessed.smi

> <i_m_source_file_index>
276

> <i_lp_mmshare_version>
43012

> <i_f3d_flags>
0

> <s_epik_input>
W0NIMl0xW0NIMl1bQ0gyXUMxMltDQEhdKE9bQ0gzXSlbQ0gyXVtDQEhdMk4oW0NIM10pYyhuW2NIXW4zKWMoYzM0KW5bY0hdbjRbQ0gyXVtDQEhdKFtPSF0pW0NAQEhdNVtDSDJdW0NIMl1bQ0gyXU81

> <s_epik_cmdline>
J2VwaWtfcHl0aG9uJywgJy1waCcsICc3LjAnLCAnLXRuJywgJzgnLCAnLW1hJywgJzIwMCcsICctbWV0YWxfYmluZGluZycsICctaW1hZScsICc8aW5maWxlLm1hZT4nLCAnLW9tYWUnLCAnPG91dGZpbGUubWFlPic=

> <r_lp_tautomer_probability>
1

> <r_epik_Ionization_Penalty>
0.00204117

> <r_epik_Ionization_Penalty_Charging>
0

> <r_epik_Ionization_Penalty_Neutral>
0.00204117

> <r_epik_State_Penalty>
0.00127401

> <r_epik_Charging_Adjusted_Penalty>
0.00127401

> <i_epik_Tot_Q>
0

> <i_epik_Tot_abs_Q>
0

> <r_epik_Metal_State_Penalty>
-0

> <b_epik_Metal_Only>
0

> <s_lp_Force_Field>
OPLS_2005

> <r_lp_Energy>
54.5778

> <b_lp_Chiralities_Consistent>
1

> <s_lp_Variant>
AV-unprocessed.smi:276-11

> <Gold.Version>
5.8.1

> <Gold.Id.Protein>
6NUR|6NUR_protein|mol2

> <Gold.PLP.Fitness>
40.9520

> <Gold.PLP.PLP>
-29.6994

> <Gold.PLP.part.hbond>
-3.5574

> <Gold.PLP.part.metal>
0.0000

> <Gold.PLP.part.buried>
-4.0618

> <Gold.PLP.part.nonpolar>
-21.9888

> <Gold.PLP.part.repulsive>
0.4154

> <Gold.PLP.ligand.clash>
0.0000

> <Gold.PLP.ligand.torsion>
1.9035

> <Gold.PLP.Chemscore.Hbond>
2.7920

> <Gold.PLP.Chemscore.CHOScore>
1.9677

> <Gold.PLP.Chemscore.Metal>
0.0000

> <Gold.Chemscore.Hbonds>
donor molecule, donor type, donor heavy atom, donor atom, acceptor molecule, acceptor atom, score
      L1  H    19    44       P1 10171  1.00
      P1  H  6931  6943       L1     2  0.39
      P1  H  6934  6947       L1     2  1.00
      L1  C    15    40       P1 10171  1.00
      L1  C    15    40       P1 10175  0.97

> <Gold.PLP.Chemscore.Internal.Correction>
0.7805

> <Gold.Rescore>
     Score         DG    S(hbond)    S(metal)    S(lipo)     H(rot)  DE(clash)    DE(int)     intcor
      9.57     -13.96       2.33        0.00      65.53       2.72       0.60       3.79       ----

> <Gold.Chemscore.Fitness>
9.5722

> <Gold.Chemscore.DG>
-13.9599

> <Gold.Chemscore.ZeroCoef>
-5.4800

> <Gold.Chemscore.Hbond>
2.3261

> <Gold.Chemscore.Metal>
0.0000

> <Gold.Chemscore.Lipo>
65.5274

> <Gold.Chemscore.Internal_Hbond>
0.0000

> <Gold.Chemscore.DEClash>
0.6021

> <Gold.Chemscore.DEInternal>
3.7855

> <Gold.Chemscore.Rot>
2.7172

> <Gold.Chemscore.Internal.Correction>
   9.000000E+99

> <Gold.Chemscore.Hbonds>
donor molecule, donor type, donor heavy atom, donor atom, acceptor molecule, acceptor atom, score
      L1  H    19    44       P1 10171  0.98
      P1  H  6931  6943       L1     2  0.01
      P1  H  6934  6947       L1     2  0.29

> <Gold.Chemscore.Hbond.Weighted>
-7.7692

> <Gold.Chemscore.Metal.Weighted>
-0.0000

> <Gold.Chemscore.Lipo.Weighted>
-7.6667

> <Gold.Chemscore.Internal_Hbond.Weighted>
0.0000

> <Gold.Chemscore.DEClash.Weighted>
0.6021

> <Gold.Chemscore.DEInternal.Weighted>
3.7855

> <Gold.Chemscore.Rot.Weighted>
6.9560

> <Gold.Chemscore.Internal.Correction.Weighted>
   9.000000E+99

> <Gold.Protein.RotatedTorsions>
[ 6907 6896 6895 6894 ] final   38.65 input  -60.11 | X-H torsion
[ 7974 7965 7964 7962 ] final  133.81 input  175.53 | X-H torsion
[ 8008 7997 7996 7995 ] final   72.58 input   59.86 | X-H torsion
[ 10167 10162 10161 10158 ] final   10.36 input  -65.29 | X-H torsion
[ 10718 10713 10712 10709 ] final  156.05 input   66.30 | X-H torsion
[ 10763 10752 10751 10750 ] final  -95.71 input  -60.55 | X-H torsion
[ 11005 11000 10999 10996 ] final   16.65 input  -57.11 | X-H torsion

> <Gold.Protein.ActiveResidues>
 VAL166  LYS551  ARG553  GLY616  TRP617  ASP618  TYR619  PRO620  LYS621  CYS622 
 ASP623  PHE694  ASN695  SER759  ASP760  ASP761  ALA762  ILE779  LEU786  VAL792 
 PHE793  MET794  SER795  GLU796  ALA797  LYS798  CYS799  TRP800  GLU811  SER814 

> <Gold.Protein.RotatedAtoms>
  152.1593  134.8925  160.0542 H   0  0  0  0  0  0  0  0  0  0  0  0  # atno 6907 bound_to 6896
  151.9927  133.3792  159.4159 H   0  0  0  0  0  0  0  0  0  0  0  0  # atno 6908 bound_to 6896
  150.6885  134.3841  159.5091 H   0  0  0  0  0  0  0  0  0  0  0  0  # atno 6909 bound_to 6896
  144.9827  139.4487  143.5378 H   0  0  0  0  0  0  0  0  0  0  0  0  # atno 7974 bound_to 7965
  155.7710  140.3484  155.5247 H   0  0  0  0  0  0  0  0  0  0  0  0  # atno 8008 bound_to 7997
  155.8822  140.1004  157.1498 H   0  0  0  0  0  0  0  0  0  0  0  0  # atno 8009 bound_to 7997
  154.4025  140.1320  156.4197 H   0  0  0  0  0  0  0  0  0  0  0  0  # atno 8010 bound_to 7997
  140.6199  143.8228  150.7162 H   0  0  0  0  0  0  0  0  0  0  0  0  # atno 10167 bound_to 10162
  157.2102  131.0696  151.1974 H   0  0  0  0  0  0  0  0  0  0  0  0  # atno 10718 bound_to 10713
  154.7173  135.5110  153.8757 H   0  0  0  0  0  0  0  0  0  0  0  0  # atno 10763 bound_to 10752
  153.0831  135.6637  154.0012 H   0  0  0  0  0  0  0  0  0  0  0  0  # atno 10764 bound_to 10752
  153.9842  135.3026  155.3397 H   0  0  0  0  0  0  0  0  0  0  0  0  # atno 10765 bound_to 10752
  140.4447  134.1286  155.7694 H   0  0  0  0  0  0  0  0  0  0  0  0  # atno 11005 bound_to 11000
  146.3412  139.9110  142.8780 LP  0  0  0  0  0  0  0  0  0  0  0  0  # atno 17320 bound_to 7965
  145.2397  141.0005  143.3943 LP  0  0  0  0  0  0  0  0  0  0  0  0  # atno 17321 bound_to 7965
  140.1815  143.4110  152.1929 LP  0  0  0  0  0  0  0  0  0  0  0  0  # atno 17342 bound_to 10162
  139.5429  144.7273  151.4674 LP  0  0  0  0  0  0  0  0  0  0  0  0  # atno 17343 bound_to 10162
  157.3680  130.7166  149.6546 LP  0  0  0  0  0  0  0  0  0  0  0  0  # atno 17370 bound_to 10713
  155.9691  130.4207  150.4433 LP  0  0  0  0  0  0  0  0  0  0  0  0  # atno 17371 bound_to 10713
  141.1690  133.8646  157.1627 LP  0  0  0  0  0  0  0  0  0  0  0  0  # atno 17394 bound_to 11000
  140.0046  135.0013  157.0265 LP  0  0  0  0  0  0  0  0  0  0  0  0  # atno 17395 bound_to 11000

$$$$
