AV-unprocessed.smi:99|AV-procd|sdf|868|dock9
  -GOLD-   2262017323D 1   1.00000     0.00000
 Structure written by MMmdl.
 53 56  0  0  0  0  0  0  0  0  1 V2000
  148.0061  132.2601  159.4239 O   0  0  0  0  0  0  0  0  0  0  0  0
  147.1378  133.1342  159.4666 C   0  0  0  0  0  0  0  0  0  0  0  0
  146.3312  133.4346  158.4301 O   0  0  0  0  0  0  0  0  0  0  0  0
  146.6536  132.9772  157.1276 C   0  0  0  0  0  0  0  0  0  0  0  0
  147.3568  134.1076  156.3554 C   0  0  1  0  0  0  0  0  0  0  0  0
  148.4888  134.5429  157.1056 O   0  0  0  0  0  0  0  0  0  0  0  0
  149.6509  133.8831  156.6845 C   0  0  2  0  0  0  0  0  0  0  0  0
  150.7109  134.9160  156.3781 N   0  0  0  0  0  0  0  0  0  0  0  0
  150.5249  135.8637  155.3801 C   0  0  0  0  0  0  0  0  0  0  0  0
  151.4544  136.7962  155.0646 C   0  0  0  0  0  0  0  0  0  0  0  0
  152.7274  136.8424  155.7761 C   0  0  0  0  0  0  0  0  0  0  0  0
  153.6279  137.6518  155.5653 O   0  0  0  0  0  0  0  0  0  0  0  0
  152.8776  135.8620  156.7610 N   0  0  0  0  0  0  0  0  0  0  0  0
  151.9297  134.8921  157.0912 C   0  0  0  0  0  0  0  0  0  0  0  0
  152.1792  134.0616  157.9640 O   0  0  0  0  0  0  0  0  0  0  0  0
  149.3196  133.0715  155.4213 C   0  0  1  0  0  0  0  0  0  0  0  0
  149.2226  131.6919  155.7231 O   0  0  0  0  0  0  0  0  0  0  0  0
  147.9798  133.6799  155.0261 C   0  0  1  0  0  0  0  0  0  0  0  0
  147.1580  132.8340  154.2285 O   0  0  0  0  0  0  0  0  0  0  0  0
  145.8830  133.1742  153.9438 C   0  0  0  0  0  0  0  0  0  0  0  0
  145.1941  133.9024  154.6610 O   0  0  0  0  0  0  0  0  0  0  0  0
  145.3981  132.5820  152.6641 C   0  0  0  0  0  0  0  0  0  0  0  0
  146.2461  131.7138  151.9376 C   0  0  0  0  0  0  0  0  0  0  0  0
  145.8159  131.1384  150.7261 C   0  0  0  0  0  0  0  0  0  0  0  0
  144.5324  131.4250  150.2259 C   0  0  0  0  0  0  0  0  0  0  0  0
  143.6794  132.2874  150.9388 C   0  0  0  0  0  0  0  0  0  0  0  0
  144.1074  132.8631  152.1510 C   0  0  0  0  0  0  0  0  0  0  0  0
  146.8728  133.9727  160.6715 C   0  0  0  0  0  0  0  0  0  0  0  0
  146.2579  133.3854  161.8020 C   0  0  0  0  0  0  0  0  0  0  0  0
  145.9985  134.1503  162.9559 C   0  0  0  0  0  0  0  0  0  0  0  0
  146.3494  135.5122  162.9930 C   0  0  0  0  0  0  0  0  0  0  0  0
  146.9598  136.1087  161.8743 C   0  0  0  0  0  0  0  0  0  0  0  0
  147.2211  135.3452  160.7196 C   0  0  0  0  0  0  0  0  0  0  0  0
  153.7475  135.8513  157.2735 H   0  0  0  0  0  0  0  0  0  0  0  0
  147.2830  132.0885  157.1848 H   0  0  0  0  0  0  0  0  0  0  0  0
  145.7299  132.6949  156.6209 H   0  0  0  0  0  0  0  0  0  0  0  0
  146.6624  134.9334  156.1980 H   0  0  0  0  0  0  0  0  0  0  0  0
  150.0236  133.2813  157.5157 H   0  0  0  0  0  0  0  0  0  0  0  0
  149.6030  135.8692  154.8176 H   0  0  0  0  0  0  0  0  0  0  0  0
  151.2556  137.5120  154.2798 H   0  0  0  0  0  0  0  0  0  0  0  0
  150.0776  133.2099  154.6488 H   0  0  0  0  0  0  0  0  0  0  0  0
  149.4430  131.1993  154.9472 H   0  0  0  0  0  0  0  0  0  0  0  0
  148.1794  134.5983  154.4713 H   0  0  0  0  0  0  0  0  0  0  0  0
  147.2360  131.4790  152.3016 H   0  0  0  0  0  0  0  0  0  0  0  0
  146.4719  130.4761  150.1806 H   0  0  0  0  0  0  0  0  0  0  0  0
  144.2029  130.9836  149.2968 H   0  0  0  0  0  0  0  0  0  0  0  0
  142.6940  132.5083  150.5557 H   0  0  0  0  0  0  0  0  0  0  0  0
  143.4268  133.5204  152.6725 H   0  0  0  0  0  0  0  0  0  0  0  0
  145.9804  132.3412  161.7974 H   0  0  0  0  0  0  0  0  0  0  0  0
  145.5299  133.6902  163.8135 H   0  0  0  0  0  0  0  0  0  0  0  0
  146.1506  136.0985  163.8780 H   0  0  0  0  0  0  0  0  0  0  0  0
  147.2286  137.1544  161.9013 H   0  0  0  0  0  0  0  0  0  0  0  0
  147.6910  135.8339  159.8786 H   0  0  0  0  0  0  0  0  0  0  0  0
  1  2  2  0  0  0  0
  2  3  1  0  0  0  0
  2 28  1  0  0  0  0
  3  4  1  0  0  0  0
  4  5  1  0  0  0  0
  4 35  1  0  0  0  0
  4 36  1  0  0  0  0
  5 18  1  0  0  0  0
  5  6  1  0  0  0  0
  5 37  1  0  0  0  0
  6  7  1  0  0  0  0
  7  8  1  0  0  0  0
  7 16  1  0  0  0  0
  7 38  1  0  0  0  0
  8 14  1  0  0  0  0
  8  9  1  0  0  0  0
  9 10  2  0  0  0  0
  9 39  1  0  0  0  0
 10 11  1  0  0  0  0
 10 40  1  0  0  0  0
 11 12  2  0  0  0  0
 11 13  1  0  0  0  0
 13 34  1  0  0  0  0
 13 14  1  0  0  0  0
 14 15  2  0  0  0  0
 16 17  1  0  0  0  0
 16 18  1  0  0  0  0
 16 41  1  0  0  0  0
 17 42  1  0  0  0  0
 18 19  1  0  0  0  0
 18 43  1  0  0  0  0
 19 20  1  0  0  0  0
 20 21  2  0  0  0  0
 20 22  1  0  0  0  0
 22 27  1  0  0  0  0
 22 23  2  0  0  0  0
 23 24  1  0  0  0  0
 23 44  1  0  0  0  0
 24 25  2  0  0  0  0
 24 45  1  0  0  0  0
 25 26  1  0  0  0  0
 25 46  1  0  0  0  0
 26 27  2  0  0  0  0
 26 47  1  0  0  0  0
 27 48  1  0  0  0  0
 28 33  1  0  0  0  0
 28 29  2  0  0  0  0
 29 30  1  0  0  0  0
 29 49  1  0  0  0  0
 30 31  2  0  0  0  0
 30 50  1  0  0  0  0
 31 32  1  0  0  0  0
 31 51  1  0  0  0  0
 32 33  2  0  0  0  0
 32 52  1  0  0  0  0
 33 53  1  0  0  0  0
M  END
> <s_m_source_file>
AV-unprocessed.smi

> <i_m_source_file_index>
99

> <i_lp_mmshare_version>
43012

> <i_f3d_flags>
0

> <s_epik_input>
W2NIXTFbY0hdW2NIXVtjSF1bY0hdYzFDKD1PKU9bQ0gyXVtDQEBIXTJPW0NAQEhdKG4zW2NIXVtjSF1jKD1PKVtuSF1jMz1PKVtDQEBIXShbT0hdKVtDQEhdMk9DKD1PKWM0W2NIXVtjSF1bY0hdW2NIXVtjSF00

> <s_epik_cmdline>
J2VwaWtfcHl0aG9uJywgJy1waCcsICc3LjAnLCAnLXRuJywgJzgnLCAnLW1hJywgJzIwMCcsICctbWV0YWxfYmluZGluZycsICctaW1hZScsICc8aW5maWxlLm1hZT4nLCAnLW9tYWUnLCAnPG91dGZpbGUubWFlPic=

> <r_lp_tautomer_probability>
1

> <r_epik_Ionization_Penalty>
0.00454555

> <r_epik_Ionization_Penalty_Charging>
0.0045191

> <r_epik_Ionization_Penalty_Neutral>
2.64449e-05

> <r_epik_State_Penalty>
-0

> <r_epik_Charging_Adjusted_Penalty>
0.0045191

> <i_epik_Tot_Q>
0

> <i_epik_Tot_abs_Q>
0

> <r_epik_Metal_State_Penalty>
1.27877

> <b_epik_Metal_Only>
0

> <s_epik_Chemistry_Notes>
This compound has an ester and may undergo hydrolysis at high or low pH. This compound contains an acetal/aminal-like group ( X-CH(R)-Y where X, Y are N, S, or O) that may be acid/base labile, releasing an aldehyde.

> <s_lp_Force_Field>
OPLS_2005

> <r_lp_Energy>
39.5306

> <b_lp_Chiralities_Consistent>
1

> <s_lp_Variant>
AV-unprocessed.smi:99-4

> <Gold.Version>
5.8.1

> <Gold.Id.Protein>
6NUR|6NUR_protein|mol2

> <Gold.PLP.Fitness>
58.6526

> <Gold.PLP.PLP>
-52.3606

> <Gold.PLP.part.hbond>
-3.9794

> <Gold.PLP.part.metal>
0.0000

> <Gold.PLP.part.buried>
-1.3393

> <Gold.PLP.part.nonpolar>
-45.3682

> <Gold.PLP.part.repulsive>
0.4159

> <Gold.PLP.ligand.clash>
0.0000

> <Gold.PLP.ligand.torsion>
2.2490

> <Gold.PLP.Chemscore.Hbond>
2.9193

> <Gold.PLP.Chemscore.CHOScore>
0.6210

> <Gold.PLP.Chemscore.Metal>
0.0000

> <Gold.PLP.Chemscore.Internal.Correction>
0.1695

> <Gold.Rescore>
     Score         DG    S(hbond)    S(metal)    S(lipo)     H(rot)  DE(clash)    DE(int)     intcor
     14.32     -18.05       2.10        0.00     117.38       3.19       0.12       3.60       ----

> <Gold.Chemscore.Fitness>
14.3234

> <Gold.Chemscore.DG>
-18.0477

> <Gold.Chemscore.ZeroCoef>
-5.4800

> <Gold.Chemscore.Hbond>
2.0961

> <Gold.Chemscore.Metal>
0.0000

> <Gold.Chemscore.Lipo>
117.3832

> <Gold.Chemscore.Internal_Hbond>
0.0000

> <Gold.Chemscore.DEClash>
0.1211

> <Gold.Chemscore.DEInternal>
3.6032

> <Gold.Chemscore.Rot>
3.1903

> <Gold.Chemscore.Internal.Correction>
   9.000000E+99

> <Gold.Chemscore.Hbonds>
donor molecule, donor type, donor heavy atom, donor atom, acceptor molecule, acceptor atom, score
      P1  H  6896  6908       L1    15  0.01

> <Gold.Chemscore.Hbond.Weighted>
-7.0010

> <Gold.Chemscore.Metal.Weighted>
-0.0000

> <Gold.Chemscore.Lipo.Weighted>
-13.7338

> <Gold.Chemscore.Internal_Hbond.Weighted>
0.0000

> <Gold.Chemscore.DEClash.Weighted>
0.1211

> <Gold.Chemscore.DEInternal.Weighted>
3.6032

> <Gold.Chemscore.Rot.Weighted>
8.1671

> <Gold.Chemscore.Internal.Correction.Weighted>
   9.000000E+99

> <Gold.Protein.RotatedTorsions>
[ 6907 6896 6895 6894 ] final   -9.16 input  -60.11 | X-H torsion
[ 7974 7965 7964 7962 ] final   16.97 input  175.53 | X-H torsion
[ 8008 7997 7996 7995 ] final -129.61 input   59.86 | X-H torsion
[ 10167 10162 10161 10158 ] final  -55.81 input  -65.29 | X-H torsion
[ 10718 10713 10712 10709 ] final -101.13 input   66.30 | X-H torsion
[ 10763 10752 10751 10750 ] final -104.83 input  -60.55 | X-H torsion
[ 11005 11000 10999 10996 ] final  -86.78 input  -57.11 | X-H torsion

> <Gold.Protein.ActiveResidues>
 VAL166  LYS551  ARG553  GLY616  TRP617  ASP618  TYR619  PRO620  LYS621  CYS622 
 ASP623  PHE694  ASN695  SER759  ASP760  ASP761  ALA762  ILE779  LEU786  VAL792 
 PHE793  MET794  SER795  GLU796  ALA797  LYS798  CYS799  TRP800  GLU811  SER814 

> <Gold.Protein.RotatedAtoms>
  151.4222  135.0999  159.9617 H   0  0  0  0  0  0  0  0  0  0  0  0  # atno 6907 bound_to 6896
  152.4984  133.8696  159.7302 H   0  0  0  0  0  0  0  0  0  0  0  0  # atno 6908 bound_to 6896
  150.9215  133.6817  159.2859 H   0  0  0  0  0  0  0  0  0  0  0  0  # atno 6909 bound_to 6896
  146.2233  139.8671  142.8594 H   0  0  0  0  0  0  0  0  0  0  0  0  # atno 7974 bound_to 7965
  155.2821  140.0444  157.3016 H   0  0  0  0  0  0  0  0  0  0  0  0  # atno 8008 bound_to 7997
  154.5591  140.2340  155.8332 H   0  0  0  0  0  0  0  0  0  0  0  0  # atno 8009 bound_to 7997
  156.2032  140.3020  155.9578 H   0  0  0  0  0  0  0  0  0  0  0  0  # atno 8010 bound_to 7997
  140.6353  143.2479  151.5134 H   0  0  0  0  0  0  0  0  0  0  0  0  # atno 10167 bound_to 10162
  156.0185  130.5359  150.6918 H   0  0  0  0  0  0  0  0  0  0  0  0  # atno 10718 bound_to 10713
  154.7905  135.4771  154.0042 H   0  0  0  0  0  0  0  0  0  0  0  0  # atno 10763 bound_to 10752
  153.1624  135.6811  153.8731 H   0  0  0  0  0  0  0  0  0  0  0  0  # atno 10764 bound_to 10752
  153.8340  135.3188  155.3399 H   0  0  0  0  0  0  0  0  0  0  0  0  # atno 10765 bound_to 10752
  141.1626  133.7474  156.9211 H   0  0  0  0  0  0  0  0  0  0  0  0  # atno 11005 bound_to 11000
  145.2646  141.0088  143.3807 LP  0  0  0  0  0  0  0  0  0  0  0  0  # atno 17320 bound_to 7965
  144.9272  139.4342  143.6513 LP  0  0  0  0  0  0  0  0  0  0  0  0  # atno 17321 bound_to 7965
  139.5564  144.2265  152.1619 LP  0  0  0  0  0  0  0  0  0  0  0  0  # atno 17342 bound_to 10162
  140.1520  144.5105  150.6682 LP  0  0  0  0  0  0  0  0  0  0  0  0  # atno 17343 bound_to 10162
  157.4598  131.0882  151.0758 LP  0  0  0  0  0  0  0  0  0  0  0  0  # atno 17370 bound_to 10713
  157.1249  130.6077  149.5514 LP  0  0  0  0  0  0  0  0  0  0  0  0  # atno 17371 bound_to 10713
  140.1451  134.9268  157.2519 LP  0  0  0  0  0  0  0  0  0  0  0  0  # atno 17394 bound_to 11000
  140.2790  134.3372  155.7349 LP  0  0  0  0  0  0  0  0  0  0  0  0  # atno 17395 bound_to 11000

$$$$
