AV-unprocessed.smi:83|AV-procd|sdf|803|dock1
  -GOLD-   2262017193D 1   1.00000     0.00000
 Structure written by MMmdl.
 56 59  0  0  0  0  0  0  0  0  1 V2000
  150.8667  129.4383  155.2290 C   0  0  0  0  0  0  0  0  0  0  0  0
  149.5353  129.9055  154.6396 C   0  0  0  0  0  0  0  0  0  0  0  0
  148.8164  129.0871  154.0659 O   0  0  0  0  0  0  0  0  0  0  0  0
  149.1997  131.2055  154.7636 N   0  0  0  0  0  0  0  0  0  0  0  0
  148.0090  131.8415  154.2047 C   0  0  0  0  0  0  0  0  0  0  0  0
  148.2405  133.3455  154.3635 C   0  0  0  0  0  0  0  0  0  0  0  0
  149.1680  133.4585  155.5693 C   0  0  2  0  0  0  0  0  0  0  0  0
  149.9643  134.7832  155.6184 C   0  0  0  0  0  0  0  0  0  0  0  0
  149.1377  135.9526  155.9252 N   0  0  0  0  0  0  0  0  0  0  0  0
  148.1545  135.8309  156.9937 C   0  0  0  0  0  0  0  0  0  0  0  0
  149.6950  137.1676  155.6857 C   0  0  0  0  0  0  0  0  0  0  0  0
  149.9711  137.4880  154.3942 N   0  0  0  0  0  0  0  0  0  0  0  0
  150.6052  138.6255  154.0982 C   0  0  0  0  0  0  0  0  0  0  0  0
  151.0616  139.5647  154.9273 N   0  0  0  0  0  0  0  0  0  0  0  0
  150.7781  139.2567  156.2246 C   0  0  0  0  0  0  0  0  0  0  0  0
  150.0851  138.1028  156.6906 C   0  0  0  0  0  0  0  0  0  0  0  0
  149.9962  138.1432  158.0789 N   0  0  0  0  0  0  0  0  0  0  0  0
  150.6110  139.2441  158.4123 C   0  0  0  0  0  0  0  0  0  0  0  0
  151.1397  139.9556  157.3608 N   0  0  0  0  0  0  0  0  0  0  0  0
  151.9402  141.1621  157.4390 C   0  0  0  0  0  0  0  0  0  0  0  0
  152.0928  141.6712  158.8896 C   0  0  1  0  0  0  0  0  0  0  0  0
  153.1159  140.9088  159.4974 O   0  0  0  0  0  0  0  0  0  0  0  0
  152.4496  143.1711  159.0054 C   0  0  2  0  0  0  0  0  0  0  0  0
  152.4941  143.7079  160.4391 C   0  0  0  0  0  0  0  0  0  0  0  0
  152.2112  145.1961  160.2852 C   0  0  0  0  0  0  0  0  0  0  0  0
  151.7233  145.3323  158.8422 C   0  0  0  0  0  0  0  0  0  0  0  0
  151.4460  144.0012  158.4387 O   0  0  0  0  0  0  0  0  0  0  0  0
  150.0233  132.1871  155.4608 C   0  0  0  0  0  0  0  0  0  0  0  0
  151.6918  130.0394  154.8464 H   0  0  0  0  0  0  0  0  0  0  0  0
  151.0597  128.3980  154.9655 H   0  0  0  0  0  0  0  0  0  0  0  0
  150.8526  129.5134  156.3165 H   0  0  0  0  0  0  0  0  0  0  0  0
  147.8480  131.5782  153.1584 H   0  0  0  0  0  0  0  0  0  0  0  0
  147.1350  131.5262  154.7766 H   0  0  0  0  0  0  0  0  0  0  0  0
  148.7395  133.7319  153.4735 H   0  0  0  0  0  0  0  0  0  0  0  0
  147.3115  133.9016  154.4921 H   0  0  0  0  0  0  0  0  0  0  0  0
  148.5467  133.3772  156.4627 H   0  0  0  0  0  0  0  0  0  0  0  0
  150.7957  134.7027  156.3194 H   0  0  0  0  0  0  0  0  0  0  0  0
  150.4233  134.9536  154.6440 H   0  0  0  0  0  0  0  0  0  0  0  0
  147.4709  136.6806  156.9962 H   0  0  0  0  0  0  0  0  0  0  0  0
  148.6409  135.7685  157.9675 H   0  0  0  0  0  0  0  0  0  0  0  0
  147.5588  134.9283  156.8563 H   0  0  0  0  0  0  0  0  0  0  0  0
  150.7886  138.7989  153.0482 H   0  0  0  0  0  0  0  0  0  0  0  0
  150.7317  139.5473  159.4421 H   0  0  0  0  0  0  0  0  0  0  0  0
  152.9179  140.9474  157.0058 H   0  0  0  0  0  0  0  0  0  0  0  0
  151.4796  141.9271  156.8124 H   0  0  0  0  0  0  0  0  0  0  0  0
  151.1708  141.4792  159.4401 H   0  0  0  0  0  0  0  0  0  0  0  0
  152.7153  140.2031  159.9817 H   0  0  0  0  0  0  0  0  0  0  0  0
  153.3993  143.3716  158.5050 H   0  0  0  0  0  0  0  0  0  0  0  0
  151.7054  143.2491  161.0372 H   0  0  0  0  0  0  0  0  0  0  0  0
  153.4468  143.5078  160.9306 H   0  0  0  0  0  0  0  0  0  0  0  0
  151.4503  145.5184  160.9964 H   0  0  0  0  0  0  0  0  0  0  0  0
  153.1044  145.7989  160.4510 H   0  0  0  0  0  0  0  0  0  0  0  0
  150.8442  145.9696  158.7489 H   0  0  0  0  0  0  0  0  0  0  0  0
  152.5091  145.7430  158.2067 H   0  0  0  0  0  0  0  0  0  0  0  0
  150.3257  131.8242  156.4441 H   0  0  0  0  0  0  0  0  0  0  0  0
  150.9235  132.3664  154.8714 H   0  0  0  0  0  0  0  0  0  0  0  0
  1  2  1  0  0  0  0
  1 29  1  0  0  0  0
  1 30  1  0  0  0  0
  1 31  1  0  0  0  0
  2  3  2  0  0  0  0
  2  4  1  0  0  0  0
  4 28  1  0  0  0  0
  4  5  1  0  0  0  0
  5  6  1  0  0  0  0
  5 32  1  0  0  0  0
  5 33  1  0  0  0  0
  6  7  1  0  0  0  0
  6 34  1  0  0  0  0
  6 35  1  0  0  0  0
  7  8  1  0  0  0  0
  7 28  1  0  0  0  0
  7 36  1  0  0  0  0
  8  9  1  0  0  0  0
  8 37  1  0  0  0  0
  8 38  1  0  0  0  0
  9 10  1  0  0  0  0
  9 11  1  0  0  0  0
 10 39  1  0  0  0  0
 10 40  1  0  0  0  0
 10 41  1  0  0  0  0
 11 16  1  0  0  0  0
 11 12  2  0  0  0  0
 12 13  1  0  0  0  0
 13 14  2  0  0  0  0
 13 42  1  0  0  0  0
 14 15  1  0  0  0  0
 15 19  1  0  0  0  0
 15 16  2  0  0  0  0
 16 17  1  0  0  0  0
 17 18  2  0  0  0  0
 18 19  1  0  0  0  0
 18 43  1  0  0  0  0
 19 20  1  0  0  0  0
 20 21  1  0  0  0  0
 20 44  1  0  0  0  0
 20 45  1  0  0  0  0
 21 22  1  0  0  0  0
 21 23  1  0  0  0  0
 21 46  1  0  0  0  0
 22 47  1  0  0  0  0
 23 27  1  0  0  0  0
 23 24  1  0  0  0  0
 23 48  1  0  0  0  0
 24 25  1  0  0  0  0
 24 49  1  0  0  0  0
 24 50  1  0  0  0  0
 25 26  1  0  0  0  0
 25 51  1  0  0  0  0
 25 52  1  0  0  0  0
 26 27  1  0  0  0  0
 26 53  1  0  0  0  0
 26 54  1  0  0  0  0
 28 55  1  0  0  0  0
 28 56  1  0  0  0  0
M  END
> <s_m_source_file>
AV-unprocessed.smi

> <i_m_source_file_index>
83

> <i_lp_mmshare_version>
43012

> <i_f3d_flags>
0

> <s_epik_input>
W0NIM11DKD1PKU4xW0NIMl1bQ0gyXVtDQEhdKFtDSDJdMSlbQ0gyXU4oW0NIM10pYyhuW2NIXW4yKWMoYzIzKW5bY0hdbjNbQ0gyXVtDQEhdKFtPSF0pW0NAQEhdNFtDSDJdW0NIMl1bQ0gyXU80

> <s_epik_cmdline>
J2VwaWtfcHl0aG9uJywgJy1waCcsICc3LjAnLCAnLXRuJywgJzgnLCAnLW1hJywgJzIwMCcsICctbWV0YWxfYmluZGluZycsICctaW1hZScsICc8aW5maWxlLm1hZT4nLCAnLW9tYWUnLCAnPG91dGZpbGUubWFlPic=

> <r_lp_tautomer_probability>
1

> <r_epik_Ionization_Penalty>
0.00109752

> <r_epik_Ionization_Penalty_Charging>
0

> <r_epik_Ionization_Penalty_Neutral>
0.00109752

> <r_epik_State_Penalty>
0.000634803

> <r_epik_Charging_Adjusted_Penalty>
0.000634803

> <i_epik_Tot_Q>
0

> <i_epik_Tot_abs_Q>
0

> <r_epik_Metal_State_Penalty>
-0

> <b_epik_Metal_Only>
0

> <s_lp_Force_Field>
OPLS_2005

> <r_lp_Energy>
52.1505

> <b_lp_Chiralities_Consistent>
1

> <s_lp_Variant>
AV-unprocessed.smi:83-4

> <Gold.Version>
5.8.1

> <Gold.Id.Protein>
6NUR|6NUR_protein|mol2

> <Gold.PLP.Fitness>
50.4823

> <Gold.PLP.PLP>
-46.8118

> <Gold.PLP.part.hbond>
-1.0000

> <Gold.PLP.part.metal>
0.0000

> <Gold.PLP.part.buried>
-9.1826

> <Gold.PLP.part.nonpolar>
-36.7001

> <Gold.PLP.part.repulsive>
1.2703

> <Gold.PLP.ligand.clash>
0.0000

> <Gold.PLP.ligand.torsion>
1.3942

> <Gold.PLP.Chemscore.Hbond>
0.9000

> <Gold.PLP.Chemscore.CHOScore>
1.0000

> <Gold.PLP.Chemscore.Metal>
0.0000

> <Gold.Chemscore.Hbonds>
donor molecule, donor type, donor heavy atom, donor atom, acceptor molecule, acceptor atom, score
      P1  H  7989  7998       L1    14  0.80
      L1  C    13    42       P1  7957  1.00

> <Gold.PLP.Chemscore.Internal.Correction>
0.7589

> <Gold.Rescore>
     Score         DG    S(hbond)    S(metal)    S(lipo)     H(rot)  DE(clash)    DE(int)     intcor
     10.13     -11.54       0.30        0.00     100.54       2.62       0.11       1.29       ----

> <Gold.Chemscore.Fitness>
10.1339

> <Gold.Chemscore.DG>
-11.5401

> <Gold.Chemscore.ZeroCoef>
-5.4800

> <Gold.Chemscore.Hbond>
0.2969

> <Gold.Chemscore.Metal>
0.0000

> <Gold.Chemscore.Lipo>
100.5407

> <Gold.Chemscore.Internal_Hbond>
0.0000

> <Gold.Chemscore.DEClash>
0.1134

> <Gold.Chemscore.DEInternal>
1.2928

> <Gold.Chemscore.Rot>
2.6152

> <Gold.Chemscore.Internal.Correction>
   9.000000E+99

> <Gold.Chemscore.Hbonds>
donor molecule, donor type, donor heavy atom, donor atom, acceptor molecule, acceptor atom, score
      P1  H  7989  7998       L1    14  0.11

> <Gold.Chemscore.Hbond.Weighted>
-0.9917

> <Gold.Chemscore.Metal.Weighted>
-0.0000

> <Gold.Chemscore.Lipo.Weighted>
-11.7633

> <Gold.Chemscore.Internal_Hbond.Weighted>
0.0000

> <Gold.Chemscore.DEClash.Weighted>
0.1134

> <Gold.Chemscore.DEInternal.Weighted>
1.2928

> <Gold.Chemscore.Rot.Weighted>
6.6949

> <Gold.Chemscore.Internal.Correction.Weighted>
   9.000000E+99

> <Gold.Protein.RotatedTorsions>
[ 6907 6896 6895 6894 ] final   34.93 input  -60.11 | X-H torsion
[ 7974 7965 7964 7962 ] final   27.86 input  175.53 | X-H torsion
[ 8008 7997 7996 7995 ] final  124.78 input   59.86 | X-H torsion
[ 10167 10162 10161 10158 ] final  -69.26 input  -65.29 | X-H torsion
[ 10718 10713 10712 10709 ] final  127.22 input   66.30 | X-H torsion
[ 10763 10752 10751 10750 ] final   95.11 input  -60.55 | X-H torsion
[ 11005 11000 10999 10996 ] final  141.98 input  -57.11 | X-H torsion

> <Gold.Protein.ActiveResidues>
 VAL166  LYS551  ARG553  GLY616  TRP617  ASP618  TYR619  PRO620  LYS621  CYS622 
 ASP623  PHE694  ASN695  SER759  ASP760  ASP761  ALA762  ILE779  LEU786  VAL792 
 PHE793  MET794  SER795  GLU796  ALA797  LYS798  CYS799  TRP800  GLU811  SER814 

> <Gold.Protein.RotatedAtoms>
  152.1092  134.9287  160.0566 H   0  0  0  0  0  0  0  0  0  0  0  0  # atno 6907 bound_to 6896
  152.0471  133.3998  159.4369 H   0  0  0  0  0  0  0  0  0  0  0  0  # atno 6908 bound_to 6896
  150.6842  134.3270  159.4854 H   0  0  0  0  0  0  0  0  0  0  0  0  # atno 6909 bound_to 6896
  146.1761  139.7134  142.8933 H   0  0  0  0  0  0  0  0  0  0  0  0  # atno 7974 bound_to 7965
  156.2813  140.2732  156.1843 H   0  0  0  0  0  0  0  0  0  0  0  0  # atno 8008 bound_to 7997
  155.0524  140.0386  157.2566 H   0  0  0  0  0  0  0  0  0  0  0  0  # atno 8009 bound_to 7997
  154.7184  140.2683  155.6569 H   0  0  0  0  0  0  0  0  0  0  0  0  # atno 8010 bound_to 7997
  140.5444  143.2313  151.7029 H   0  0  0  0  0  0  0  0  0  0  0  0  # atno 10167 bound_to 10162
  157.5352  131.1098  150.8947 H   0  0  0  0  0  0  0  0  0  0  0  0  # atno 10718 bound_to 10713
  153.2494  135.4265  155.0781 H   0  0  0  0  0  0  0  0  0  0  0  0  # atno 10763 bound_to 10752
  154.8375  135.3422  154.6535 H   0  0  0  0  0  0  0  0  0  0  0  0  # atno 10764 bound_to 10752
  153.6956  135.7031  153.5134 H   0  0  0  0  0  0  0  0  0  0  0  0  # atno 10765 bound_to 10752
  140.0442  134.9289  157.0899 H   0  0  0  0  0  0  0  0  0  0  0  0  # atno 11005 bound_to 11000
  145.4207  141.0406  143.2965 LP  0  0  0  0  0  0  0  0  0  0  0  0  # atno 17320 bound_to 7965
  144.8239  139.5744  143.6974 LP  0  0  0  0  0  0  0  0  0  0  0  0  # atno 17321 bound_to 7965
  139.5001  144.3918  152.0272 LP  0  0  0  0  0  0  0  0  0  0  0  0  # atno 17342 bound_to 10162
  140.3029  144.3625  150.6055 LP  0  0  0  0  0  0  0  0  0  0  0  0  # atno 17343 bound_to 10162
  156.9516  130.5422  149.5282 LP  0  0  0  0  0  0  0  0  0  0  0  0  # atno 17370 bound_to 10713
  156.0453  130.5530  150.8865 LP  0  0  0  0  0  0  0  0  0  0  0  0  # atno 17371 bound_to 10713
  140.4020  134.2072  155.7163 LP  0  0  0  0  0  0  0  0  0  0  0  0  # atno 17394 bound_to 11000
  141.1898  133.8230  157.0941 LP  0  0  0  0  0  0  0  0  0  0  0  0  # atno 17395 bound_to 11000

$$$$
