AV-unprocessed.smi:101|AV-procd|sdf|926|dock9
  -GOLD-   2262017433D 1   1.00000     0.00000
 Structure written by MMmdl.
 44 46  0  0  0  0  0  0  0  0  1 V2000
  144.4168  137.7739  157.1645 C   0  0  0  0  0  0  0  0  0  0  0  0
  145.0991  139.1317  157.1896 C   0  0  0  0  0  0  0  0  0  0  0  0
  145.9847  139.5187  156.2361 C   0  0  0  0  0  0  0  0  0  0  0  0
  146.6232  140.7518  156.2338 N   0  0  0  0  0  0  0  0  0  0  0  0
  147.5889  141.1382  155.1369 C   0  0  1  0  0  0  0  0  0  0  0  0
  148.8441  141.3745  155.7041 O   0  0  0  0  0  0  0  0  0  0  0  0
  149.8466  140.6658  154.9833 C   0  0  1  0  0  0  0  0  0  0  0  0
  151.0198  140.3383  155.9134 C   0  0  0  0  0  0  0  0  0  0  0  0
  151.1345  141.3563  156.8937 O   0  0  0  0  0  0  0  0  0  0  0  0
  152.0708  141.2623  157.8574 C   0  0  0  0  0  0  0  0  0  0  0  0
  152.8267  140.2966  157.9823 O   0  0  0  0  0  0  0  0  0  0  0  0
  152.0975  142.4507  158.7584 C   0  0  0  0  0  0  0  0  0  0  0  0
  152.4889  142.2885  160.1078 C   0  0  0  0  0  0  0  0  0  0  0  0
  152.5238  143.3921  160.9823 C   0  0  0  0  0  0  0  0  0  0  0  0
  152.1673  144.6714  160.5180 C   0  0  0  0  0  0  0  0  0  0  0  0
  151.7758  144.8458  159.1779 C   0  0  0  0  0  0  0  0  0  0  0  0
  151.7406  143.7434  158.3018 C   0  0  0  0  0  0  0  0  0  0  0  0
  149.1027  139.4307  154.4796 C   0  0  2  0  0  0  0  0  0  0  0  0
  149.7504  138.7959  153.3932 O   0  0  0  0  0  0  0  0  0  0  0  0
  147.7295  139.9892  154.1241 C   0  0  2  0  0  0  0  0  0  0  0  0
  147.6602  140.4726  152.7947 O   0  0  0  0  0  0  0  0  0  0  0  0
  146.3281  141.6853  157.2483 C   0  0  0  0  0  0  0  0  0  0  0  0
  146.8237  142.8110  157.2862 O   0  0  0  0  0  0  0  0  0  0  0  0
  145.4235  141.2864  158.2305 N   0  0  0  0  0  0  0  0  0  0  0  0
  144.7748  140.0503  158.2847 C   0  0  0  0  0  0  0  0  0  0  0  0
  143.9962  139.8132  159.2069 O   0  0  0  0  0  0  0  0  0  0  0  0
  145.2144  141.9493  158.9627 H   0  0  0  0  0  0  0  0  0  0  0  0
  144.7329  137.1775  156.3081 H   0  0  0  0  0  0  0  0  0  0  0  0
  143.3342  137.8925  157.1080 H   0  0  0  0  0  0  0  0  0  0  0  0
  144.6535  137.2120  158.0687 H   0  0  0  0  0  0  0  0  0  0  0  0
  146.1946  138.8259  155.4344 H   0  0  0  0  0  0  0  0  0  0  0  0
  147.2220  142.0726  154.7074 H   0  0  0  0  0  0  0  0  0  0  0  0
  150.1734  141.2741  154.1379 H   0  0  0  0  0  0  0  0  0  0  0  0
  150.8766  139.3637  156.3824 H   0  0  0  0  0  0  0  0  0  0  0  0
  151.9468  140.2957  155.3401 H   0  0  0  0  0  0  0  0  0  0  0  0
  152.7669  141.3157  160.4874 H   0  0  0  0  0  0  0  0  0  0  0  0
  152.8249  143.2560  162.0107 H   0  0  0  0  0  0  0  0  0  0  0  0
  152.1935  145.5177  161.1886 H   0  0  0  0  0  0  0  0  0  0  0  0
  151.5007  145.8270  158.8200 H   0  0  0  0  0  0  0  0  0  0  0  0
  151.4343  143.9126  157.2798 H   0  0  0  0  0  0  0  0  0  0  0  0
  148.9940  138.7129  155.2942 H   0  0  0  0  0  0  0  0  0  0  0  0
  149.5571  139.2794  152.6045 H   0  0  0  0  0  0  0  0  0  0  0  0
  146.9437  139.2445  154.2592 H   0  0  0  0  0  0  0  0  0  0  0  0
  148.4814  140.2867  152.3649 H   0  0  0  0  0  0  0  0  0  0  0  0
  1  2  1  0  0  0  0
  1 28  1  0  0  0  0
  1 29  1  0  0  0  0
  1 30  1  0  0  0  0
  2 25  1  0  0  0  0
  2  3  2  0  0  0  0
  3  4  1  0  0  0  0
  3 31  1  0  0  0  0
  4  5  1  0  0  0  0
  4 22  1  0  0  0  0
  5 20  1  0  0  0  0
  5  6  1  0  0  0  0
  5 32  1  0  0  0  0
  6  7  1  0  0  0  0
  7  8  1  0  0  0  0
  7 18  1  0  0  0  0
  7 33  1  0  0  0  0
  8  9  1  0  0  0  0
  8 34  1  0  0  0  0
  8 35  1  0  0  0  0
  9 10  1  0  0  0  0
 10 11  2  0  0  0  0
 10 12  1  0  0  0  0
 12 17  1  0  0  0  0
 12 13  2  0  0  0  0
 13 14  1  0  0  0  0
 13 36  1  0  0  0  0
 14 15  2  0  0  0  0
 14 37  1  0  0  0  0
 15 16  1  0  0  0  0
 15 38  1  0  0  0  0
 16 17  2  0  0  0  0
 16 39  1  0  0  0  0
 17 40  1  0  0  0  0
 18 19  1  0  0  0  0
 18 20  1  0  0  0  0
 18 41  1  0  0  0  0
 19 42  1  0  0  0  0
 20 21  1  0  0  0  0
 20 43  1  0  0  0  0
 21 44  1  0  0  0  0
 22 23  2  0  0  0  0
 22 24  1  0  0  0  0
 24 27  1  0  0  0  0
 24 25  1  0  0  0  0
 25 26  2  0  0  0  0
M  END
> <s_m_source_file>
AV-unprocessed.smi

> <i_m_source_file_index>
101

> <i_lp_mmshare_version>
43012

> <i_f3d_flags>
0

> <s_epik_input>
Tz1jMVtuSF1jKD1PKW4oW2NIXWMxW0NIM10pW0NAQEhdMk9bQ0BIXShbQ0BASF0oW09IXSlbQ0BIXTJbT0hdKVtDSDJdT0MoPU8pYzNbY0hdW2NIXVtjSF1bY0hdW2NIXTM=

> <s_epik_cmdline>
J2VwaWtfcHl0aG9uJywgJy1waCcsICc3LjAnLCAnLXRuJywgJzgnLCAnLW1hJywgJzIwMCcsICctbWV0YWxfYmluZGluZycsICctaW1hZScsICc8aW5maWxlLm1hZT4nLCAnLW9tYWUnLCAnPG91dGZpbGUubWFlPic=

> <r_lp_tautomer_probability>
0.999537

> <r_epik_Ionization_Penalty>
0.00263537

> <r_epik_Ionization_Penalty_Charging>
0.00263428

> <r_epik_Ionization_Penalty_Neutral>
1.09111e-06

> <r_epik_State_Penalty>
0.00183335

> <r_epik_Charging_Adjusted_Penalty>
0.00446763

> <i_epik_Tot_Q>
0

> <i_epik_Tot_abs_Q>
0

> <r_epik_Metal_State_Penalty>
1.00528

> <b_epik_Metal_Only>
0

> <s_epik_Chemistry_Notes>
This compound has an ester and may undergo hydrolysis at high or low pH. This compound contains an acetal/aminal-like group ( X-CH(R)-Y where X, Y are N, S, or O) that may be acid/base labile, releasing an aldehyde.

> <s_lp_Force_Field>
OPLS_2005

> <r_lp_Energy>
34.5485

> <b_lp_Chiralities_Consistent>
1

> <s_lp_Variant>
AV-unprocessed.smi:101-14

> <Gold.Version>
5.8.1

> <Gold.Id.Protein>
6NUR|6NUR_protein|mol2

> <Gold.PLP.Fitness>
47.3003

> <Gold.PLP.PLP>
-39.9927

> <Gold.PLP.part.hbond>
-3.9776

> <Gold.PLP.part.metal>
0.0000

> <Gold.PLP.part.buried>
-5.4726

> <Gold.PLP.part.nonpolar>
-30.6187

> <Gold.PLP.part.repulsive>
0.4012

> <Gold.PLP.ligand.clash>
0.0000

> <Gold.PLP.ligand.torsion>
0.8088

> <Gold.PLP.Chemscore.Hbond>
2.9600

> <Gold.PLP.Chemscore.CHOScore>
0.0000

> <Gold.PLP.Chemscore.Metal>
0.0000

> <Gold.Chemscore.Hbonds>
donor molecule, donor type, donor heavy atom, donor atom, acceptor molecule, acceptor atom, score
      L1  H    19    42       P1  7957  1.00
      L1  H    21    44       P1  7957  1.00
      P1  H  7997  8009       L1    11  0.94

> <Gold.PLP.Chemscore.Internal.Correction>
0.0451

> <Gold.Rescore>
     Score         DG    S(hbond)    S(metal)    S(lipo)     H(rot)  DE(clash)    DE(int)     intcor
     16.04     -17.92       2.92        0.00      95.40       3.32       0.04       1.84       ----

> <Gold.Chemscore.Fitness>
16.0378

> <Gold.Chemscore.DG>
-17.9157

> <Gold.Chemscore.ZeroCoef>
-5.4800

> <Gold.Chemscore.Hbond>
2.9239

> <Gold.Chemscore.Metal>
0.0000

> <Gold.Chemscore.Lipo>
95.4016

> <Gold.Chemscore.Internal_Hbond>
0.0000

> <Gold.Chemscore.DEClash>
0.0351

> <Gold.Chemscore.DEInternal>
1.8428

> <Gold.Chemscore.Rot>
3.3172

> <Gold.Chemscore.Internal.Correction>
   9.000000E+99

> <Gold.Chemscore.Hbonds>
donor molecule, donor type, donor heavy atom, donor atom, acceptor molecule, acceptor atom, score
      L1  H    19    42       P1  7957  0.98
      L1  H    21    44       P1  7957  0.99
      P1  H  7997  8009       L1    11  0.87

> <Gold.Chemscore.Hbond.Weighted>
-9.7658

> <Gold.Chemscore.Metal.Weighted>
-0.0000

> <Gold.Chemscore.Lipo.Weighted>
-11.1620

> <Gold.Chemscore.Internal_Hbond.Weighted>
0.0000

> <Gold.Chemscore.DEClash.Weighted>
0.0351

> <Gold.Chemscore.DEInternal.Weighted>
1.8428

> <Gold.Chemscore.Rot.Weighted>
8.4920

> <Gold.Chemscore.Internal.Correction.Weighted>
   9.000000E+99

> <Gold.Protein.RotatedTorsions>
[ 6907 6896 6895 6894 ] final   -1.54 input  -60.11 | X-H torsion
[ 7974 7965 7964 7962 ] final -152.90 input  175.53 | X-H torsion
[ 8008 7997 7996 7995 ] final  164.99 input   59.86 | X-H torsion
[ 10167 10162 10161 10158 ] final -100.51 input  -65.29 | X-H torsion
[ 10718 10713 10712 10709 ] final  -58.20 input   66.30 | X-H torsion
[ 10763 10752 10751 10750 ] final   96.86 input  -60.55 | X-H torsion
[ 11005 11000 10999 10996 ] final  -73.49 input  -57.11 | X-H torsion

> <Gold.Protein.ActiveResidues>
 VAL166  LYS551  ARG553  GLY616  TRP617  ASP618  TYR619  PRO620  LYS621  CYS622 
 ASP623  PHE694  ASN695  SER759  ASP760  ASP761  ALA762  ILE779  LEU786  VAL792 
 PHE793  MET794  SER795  GLU796  ALA797  LYS798  CYS799  TRP800  GLU811  SER814 

> <Gold.Protein.RotatedAtoms>
  151.5445  135.1068  159.9934 H   0  0  0  0  0  0  0  0  0  0  0  0  # atno 6907 bound_to 6896
  152.4520  133.7644  159.6775 H   0  0  0  0  0  0  0  0  0  0  0  0  # atno 6908 bound_to 6896
  150.8451  133.7807  159.3070 H   0  0  0  0  0  0  0  0  0  0  0  0  # atno 6909 bound_to 6896
  144.7769  140.4599  143.5867 H   0  0  0  0  0  0  0  0  0  0  0  0  # atno 7974 bound_to 7965
  156.1836  140.1682  156.8228 H   0  0  0  0  0  0  0  0  0  0  0  0  # atno 8008 bound_to 7997
  154.5388  140.0741  156.8507 H   0  0  0  0  0  0  0  0  0  0  0  0  # atno 8009 bound_to 7997
  155.3257  140.3376  155.4242 H   0  0  0  0  0  0  0  0  0  0  0  0  # atno 8010 bound_to 7997
  140.2511  143.3472  152.0714 H   0  0  0  0  0  0  0  0  0  0  0  0  # atno 10167 bound_to 10162
  156.1153  130.4171  150.0545 H   0  0  0  0  0  0  0  0  0  0  0  0  # atno 10718 bound_to 10713
  153.2700  135.4204  155.0978 H   0  0  0  0  0  0  0  0  0  0  0  0  # atno 10763 bound_to 10752
  154.8452  135.3469  154.6258 H   0  0  0  0  0  0  0  0  0  0  0  0  # atno 10764 bound_to 10752
  153.6678  135.7045  153.5214 H   0  0  0  0  0  0  0  0  0  0  0  0  # atno 10765 bound_to 10752
  141.1623  133.6880  156.7220 H   0  0  0  0  0  0  0  0  0  0  0  0  # atno 11005 bound_to 11000
  145.6160  139.1518  143.3049 LP  0  0  0  0  0  0  0  0  0  0  0  0  # atno 17320 bound_to 7965
  146.1954  140.6273  142.9126 LP  0  0  0  0  0  0  0  0  0  0  0  0  # atno 17321 bound_to 7965
  139.5046  144.6778  151.6084 LP  0  0  0  0  0  0  0  0  0  0  0  0  # atno 17342 bound_to 10162
  140.6040  143.9559  150.6405 LP  0  0  0  0  0  0  0  0  0  0  0  0  # atno 17343 bound_to 10162
  156.8498  130.9455  151.3626 LP  0  0  0  0  0  0  0  0  0  0  0  0  # atno 17370 bound_to 10713
  157.6336  130.8748  149.9318 LP  0  0  0  0  0  0  0  0  0  0  0  0  # atno 17371 bound_to 10713
  140.2809  134.8317  157.3932 LP  0  0  0  0  0  0  0  0  0  0  0  0  # atno 17394 bound_to 11000
  140.1434  134.4942  155.8014 LP  0  0  0  0  0  0  0  0  0  0  0  0  # atno 17395 bound_to 11000

$$$$
