AV-unprocessed.smi:2703|AV-procd|sdf|10441|dock3
  -GOLD-   2272014483D 1   1.00000     0.00000
 Structure written by MMmdl.
 43 45  0  0  0  0  0  0  0  0  4 V2000
  152.5060  143.5952  161.4050 C   0  0  0  0  0  0  0  0  0  0  0  0
  152.2699  142.8102  160.1261 C   0  0  0  0  0  0  0  0  0  0  0  0
  151.4628  143.3871  159.1197 C   0  0  0  0  0  0  0  0  0  0  0  0
  151.2657  142.6448  157.9613 C   0  0  0  0  0  0  0  0  0  0  0  0
  150.5385  142.9319  156.8040 N   0  3  0  0  0  0  0  0  0  0  0  0
  150.6389  141.8893  155.9338 C   0  0  0  0  0  0  0  0  0  0  0  0
  151.4181  140.9397  156.5187 N   0  0  0  0  0  0  0  0  0  0  0  0
  151.8313  139.6233  156.0117 C   0  0  0  0  0  0  0  0  0  0  0  0
  150.6878  138.8597  155.3156 C   0  0  1  0  0  0  0  0  0  0  0  0
  150.3601  139.4885  154.0915 O   0  0  0  0  0  0  0  0  0  0  0  0
  151.0655  137.3957  155.0403 C   0  0  0  0  0  0  0  0  0  0  0  0
  150.6542  136.3097  156.4372 S   0  0  0  0  0  0  0  0  0  0  0  0
  150.1076  134.7517  155.7807 C   0  0  0  0  0  0  0  0  0  0  0  0
  149.9252  134.5431  154.3954 C   0  0  0  0  0  0  0  0  0  0  0  0
  149.4898  133.2923  153.9311 C   0  0  0  0  0  0  0  0  0  0  0  0
  149.2447  132.2722  154.8619 C   0  0  0  0  0  0  0  0  0  0  0  0
  149.4381  132.5248  156.2334 C   0  0  0  0  0  0  0  0  0  0  0  0
  149.8621  133.7451  156.6858 N   0  3  0  0  0  0  0  0  0  0  0  0
  150.0242  133.9263  157.9502 O   0  5  0  0  0  0  0  0  0  0  0  0
  151.8359  141.3690  157.7842 C   0  0  0  0  0  0  0  0  0  0  0  0
  152.6359  140.7876  158.7654 C   0  0  0  0  0  0  0  0  0  0  0  0
  152.8511  141.5278  159.9500 C   0  0  0  0  0  0  0  0  0  0  0  0
  153.7230  140.9198  161.0355 C   0  0  0  0  0  0  0  0  0  0  0  0
  151.9818  144.5514  161.3895 H   0  0  0  0  0  0  0  0  0  0  0  0
  153.5686  143.7999  161.5373 H   0  0  0  0  0  0  0  0  0  0  0  0
  152.1502  143.0348  162.2700 H   0  0  0  0  0  0  0  0  0  0  0  0
  151.0192  144.3639  159.2459 H   0  0  0  0  0  0  0  0  0  0  0  0
  150.1806  141.8258  154.9573 H   0  0  0  0  0  0  0  0  0  0  0  0
  152.6887  139.7453  155.3492 H   0  0  0  0  0  0  0  0  0  0  0  0
  152.1890  139.0510  156.8686 H   0  0  0  0  0  0  0  0  0  0  0  0
  149.8043  138.8871  155.9549 H   0  0  0  0  0  0  0  0  0  0  0  0
  150.3920  138.8389  153.4051 H   0  0  0  0  0  0  0  0  0  0  0  0
  150.5590  137.0387  154.1427 H   0  0  0  0  0  0  0  0  0  0  0  0
  152.1381  137.3192  154.8591 H   0  0  0  0  0  0  0  0  0  0  0  0
  150.1119  135.3291  153.6807 H   0  0  0  0  0  0  0  0  0  0  0  0
  149.3453  133.1182  152.8749 H   0  0  0  0  0  0  0  0  0  0  0  0
  148.9092  131.3006  154.5302 H   0  0  0  0  0  0  0  0  0  0  0  0
  149.2693  131.7896  157.0072 H   0  0  0  0  0  0  0  0  0  0  0  0
  153.0834  139.8142  158.6301 H   0  0  0  0  0  0  0  0  0  0  0  0
  154.1068  139.9431  160.7391 H   0  0  0  0  0  0  0  0  0  0  0  0
  153.1536  140.7885  161.9560 H   0  0  0  0  0  0  0  0  0  0  0  0
  154.5781  141.5626  161.2452 H   0  0  0  0  0  0  0  0  0  0  0  0
  150.0122  143.7764  156.6190 H   0  0  0  0  0  0  0  0  0  0  0  0
  1  2  1  0  0  0  0
  1 24  1  0  0  0  0
  1 25  1  0  0  0  0
  1 26  1  0  0  0  0
  2 22  1  0  0  0  0
  2  3  2  0  0  0  0
  3  4  1  0  0  0  0
  3 27  1  0  0  0  0
  4 20  2  0  0  0  0
  4  5  1  0  0  0  0
  5  6  2  0  0  0  0
  5 43  1  0  0  0  0
  6  7  1  0  0  0  0
  6 28  1  0  0  0  0
  7  8  1  0  0  0  0
  7 20  1  0  0  0  0
  8  9  1  0  0  0  0
  8 29  1  0  0  0  0
  8 30  1  0  0  0  0
  9 10  1  0  0  0  0
  9 11  1  0  0  0  0
  9 31  1  0  0  0  0
 10 32  1  0  0  0  0
 11 12  1  0  0  0  0
 11 33  1  0  0  0  0
 11 34  1  0  0  0  0
 12 13  1  0  0  0  0
 13 18  1  0  0  0  0
 13 14  2  0  0  0  0
 14 15  1  0  0  0  0
 14 35  1  0  0  0  0
 15 16  2  0  0  0  0
 15 36  1  0  0  0  0
 16 17  1  0  0  0  0
 16 37  1  0  0  0  0
 17 18  2  0  0  0  0
 17 38  1  0  0  0  0
 18 19  1  0  0  0  0
 20 21  1  0  0  0  0
 21 22  2  0  0  0  0
 21 39  1  0  0  0  0
 22 23  1  0  0  0  0
 23 40  1  0  0  0  0
 23 41  1  0  0  0  0
 23 42  1  0  0  0  0
M  CHG  1   5   1
M  CHG  1  18   1
M  CHG  1  19  -1
M  END
> <s_m_source_file>
AV-unprocessed.smi

> <i_m_source_file_index>
2703

> <i_lp_mmshare_version>
43012

> <i_f3d_flags>
0

> <s_epik_input>
W0NIM11jKFtjSF0xKWMoW0NIM10pW2NIXWMoYzEyKW4oW2NIXW4yKVtDSDJdW0NASF0oW09IXSlbQ0gyXVNjM1tjSF1bY0hdW2NIXVtjSF1bbitdM1tPLV0=

> <s_epik_cmdline>
J2VwaWtfcHl0aG9uJywgJy1waCcsICc3LjAnLCAnLXRuJywgJzgnLCAnLW1hJywgJzIwMCcsICctbWV0YWxfYmluZGluZycsICctaW1hZScsICc8aW5maWxlLm1hZT4nLCAnLW9tYWUnLCAnPG91dGZpbGUubWFlPic=

> <r_epik_Ionization_Penalty>
1.07182

> <r_epik_Ionization_Penalty_Charging>
1.07181

> <r_epik_Ionization_Penalty_Neutral>
2.88913e-06

> <r_epik_State_Penalty>
1.12646

> <r_epik_Charging_Adjusted_Penalty>
2.19828

> <i_epik_Tot_Q>
1

> <i_epik_Tot_abs_Q>
3

> <r_epik_Metal_State_Penalty>
5.12345

> <b_epik_Metal_Only>
0

> <s_lp_Force_Field>
OPLS_2005

> <r_lp_Energy>
21.0295

> <b_lp_Chiralities_Consistent>
1

> <s_lp_Variant>
AV-unprocessed.smi:2703-4

> <Gold.Version>
5.8.1

> <Gold.Id.Protein>
6NUR|6NUR_protein|mol2

> <Gold.PLP.Fitness>
58.8254

> <Gold.PLP.PLP>
-48.6354

> <Gold.PLP.part.hbond>
-3.6390

> <Gold.PLP.part.metal>
0.0000

> <Gold.PLP.part.buried>
-6.2305

> <Gold.PLP.part.nonpolar>
-39.3044

> <Gold.PLP.part.repulsive>
0.0391

> <Gold.PLP.ligand.clash>
0.0000

> <Gold.PLP.ligand.torsion>
0.9349

> <Gold.PLP.Chemscore.Hbond>
4.0000

> <Gold.PLP.Chemscore.CHOScore>
0.0000

> <Gold.PLP.Chemscore.Metal>
0.0000

> <Gold.Chemscore.Hbonds>
donor molecule, donor type, donor heavy atom, donor atom, acceptor molecule, acceptor atom, score
      L1  H     5    43       P1  8028  2.00
      P1  H  6896  6909       L1    19  1.00
      P1  H  7989  7998       L1    10  1.00

> <Gold.PLP.Chemscore.Internal.Correction>
0.0597

> <Gold.Rescore>
     Score         DG    S(hbond)    S(metal)    S(lipo)     H(rot)  DE(clash)    DE(int)     intcor
     22.26     -23.75       2.89        0.00     124.64       2.33       0.35       1.14       ----

> <Gold.Chemscore.Fitness>
22.2604

> <Gold.Chemscore.DG>
-23.7495

> <Gold.Chemscore.ZeroCoef>
-5.4800

> <Gold.Chemscore.Hbond>
2.8878

> <Gold.Chemscore.Metal>
0.0000

> <Gold.Chemscore.Lipo>
124.6378

> <Gold.Chemscore.Internal_Hbond>
0.0000

> <Gold.Chemscore.DEClash>
0.3455

> <Gold.Chemscore.DEInternal>
1.1436

> <Gold.Chemscore.Rot>
2.3274

> <Gold.Chemscore.Internal.Correction>
   9.000000E+99

> <Gold.Chemscore.Hbonds>
donor molecule, donor type, donor heavy atom, donor atom, acceptor molecule, acceptor atom, score
      L1  H     5    43       P1  8028  0.97
      P1  H  6896  6909       L1    19  0.88
      P1  H  7989  7998       L1    10  0.36

> <Gold.Chemscore.Hbond.Weighted>
-9.6451

> <Gold.Chemscore.Metal.Weighted>
-0.0000

> <Gold.Chemscore.Lipo.Weighted>
-14.5826

> <Gold.Chemscore.Internal_Hbond.Weighted>
0.0000

> <Gold.Chemscore.DEClash.Weighted>
0.3455

> <Gold.Chemscore.DEInternal.Weighted>
1.1436

> <Gold.Chemscore.Rot.Weighted>
5.9583

> <Gold.Chemscore.Internal.Correction.Weighted>
   9.000000E+99

> <Gold.Protein.RotatedTorsions>
[ 6907 6896 6895 6894 ] final   -4.38 input  -60.11 | X-H torsion
[ 7974 7965 7964 7962 ] final   87.69 input  175.53 | X-H torsion
[ 8008 7997 7996 7995 ] final  -27.17 input   59.86 | X-H torsion
[ 10167 10162 10161 10158 ] final   65.52 input  -65.29 | X-H torsion
[ 10718 10713 10712 10709 ] final   48.54 input   66.30 | X-H torsion
[ 10763 10752 10751 10750 ] final  150.88 input  -60.55 | X-H torsion
[ 11005 11000 10999 10996 ] final  123.38 input  -57.11 | X-H torsion

> <Gold.Protein.ActiveResidues>
 VAL166  LYS551  ARG553  GLY616  TRP617  ASP618  TYR619  PRO620  LYS621  CYS622 
 ASP623  PHE694  ASN695  SER759  ASP760  ASP761  ALA762  ILE779  LEU786  VAL792 
 PHE793  MET794  SER795  GLU796  ALA797  LYS798  CYS799  TRP800  GLU811  SER814 

> <Gold.Protein.RotatedAtoms>
  151.4986  135.1061  159.9822 H   0  0  0  0  0  0  0  0  0  0  0  0  # atno 6907 bound_to 6896
  152.4711  133.8028  159.6973 H   0  0  0  0  0  0  0  0  0  0  0  0  # atno 6908 bound_to 6896
  150.8721  133.7427  159.2984 H   0  0  0  0  0  0  0  0  0  0  0  0  # atno 6909 bound_to 6896
  145.5556  139.2299  143.2488 H   0  0  0  0  0  0  0  0  0  0  0  0  # atno 7974 bound_to 7965
  154.4390  140.1879  156.0891 H   0  0  0  0  0  0  0  0  0  0  0  0  # atno 8008 bound_to 7997
  156.0380  140.3323  155.7186 H   0  0  0  0  0  0  0  0  0  0  0  0  # atno 8009 bound_to 7997
  155.5742  140.0615  157.2790 H   0  0  0  0  0  0  0  0  0  0  0  0  # atno 8010 bound_to 7997
  140.1104  144.4823  150.6981 H   0  0  0  0  0  0  0  0  0  0  0  0  # atno 10167 bound_to 10162
  157.4697  130.8247  149.7974 H   0  0  0  0  0  0  0  0  0  0  0  0  # atno 10718 bound_to 10713
  154.0947  135.2850  155.3264 H   0  0  0  0  0  0  0  0  0  0  0  0  # atno 10763 bound_to 10752
  154.6596  135.5339  153.8005 H   0  0  0  0  0  0  0  0  0  0  0  0  # atno 10764 bound_to 10752
  153.0400  135.6530  154.1114 H   0  0  0  0  0  0  0  0  0  0  0  0  # atno 10765 bound_to 10752
  139.9310  134.9641  156.8251 H   0  0  0  0  0  0  0  0  0  0  0  0  # atno 11005 bound_to 11000
  146.1887  140.6380  142.9156 LP  0  0  0  0  0  0  0  0  0  0  0  0  # atno 17320 bound_to 7965
  144.7508  140.5185  143.6803 LP  0  0  0  0  0  0  0  0  0  0  0  0  # atno 17321 bound_to 7965
  140.6929  143.2386  151.5082 LP  0  0  0  0  0  0  0  0  0  0  0  0  # atno 17342 bound_to 10162
  139.5622  144.2128  152.1709 LP  0  0  0  0  0  0  0  0  0  0  0  0  # atno 17343 bound_to 10162
  156.0067  130.3852  150.2405 LP  0  0  0  0  0  0  0  0  0  0  0  0  # atno 17370 bound_to 10713
  157.0587  131.0083  151.3230 LP  0  0  0  0  0  0  0  0  0  0  0  0  # atno 17371 bound_to 10713
  140.6202  134.0001  155.7615 LP  0  0  0  0  0  0  0  0  0  0  0  0  # atno 17394 bound_to 11000
  141.0898  133.9934  157.3255 LP  0  0  0  0  0  0  0  0  0  0  0  0  # atno 17395 bound_to 11000

$$$$
