AV-unprocessed.smi:3351|AV-procd|sdf|12948|dock1
  -GOLD-   2272019383D 1   1.00000     0.00000
 Structure written by MMmdl.
 35 36  0  0  0  0  0  0  0  0  2 V2000
  153.3114  140.9556  160.7446 C   0  0  0  0  0  0  0  0  0  0  0  0
  151.8954  141.1675  160.1847 C   0  0  1  0  0  0  0  0  0  0  0  0
  151.1457  142.3374  160.8584 C   0  0  0  0  0  0  0  0  0  0  0  0
  151.1104  143.5445  160.0270 N   0  0  0  0  0  0  0  0  0  0  0  0
  152.1834  144.2619  159.5640 C   0  0  0  0  0  0  0  0  0  0  0  0
  151.6714  145.3039  158.8346 C   0  0  0  0  0  0  0  0  0  0  0  0
  150.3087  145.1814  158.8875 N   0  3  0  0  0  0  0  0  0  0  0  0
  149.9692  144.1131  159.6164 C   0  0  0  0  0  0  0  0  0  0  0  0
  151.9778  141.3827  158.7430 N   0  0  0  0  0  0  0  0  0  0  0  0
  150.9540  141.2690  157.8826 C   0  0  0  0  0  0  0  0  0  0  0  0
  149.8051  140.9977  158.2343 O   0  0  0  0  0  0  0  0  0  0  0  0
  151.2797  141.5291  156.4064 C   0  0  0  0  0  0  0  0  0  0  0  0
  151.0578  140.3556  155.5594 N   0  0  0  0  0  0  0  0  0  0  0  0
  149.8878  140.3122  154.6910 C   0  0  0  0  0  0  0  0  0  0  0  0
  150.0826  139.1678  153.6941 C   0  0  0  0  0  0  0  0  0  0  0  0
  151.2598  138.0066  154.4144 S   0  0  0  0  0  0  0  0  0  0  0  0
  151.8613  139.2232  155.5897 C   0  0  0  0  0  0  0  0  0  0  0  0
  152.8475  139.0226  156.2964 O   0  0  0  0  0  0  0  0  0  0  0  0
  153.2886  140.6953  161.8031 H   0  0  0  0  0  0  0  0  0  0  0  0
  153.9199  141.8537  160.6342 H   0  0  0  0  0  0  0  0  0  0  0  0
  153.8206  140.1430  160.2251 H   0  0  0  0  0  0  0  0  0  0  0  0
  151.3359  140.2471  160.3625 H   0  0  0  0  0  0  0  0  0  0  0  0
  150.1195  142.0506  161.0948 H   0  0  0  0  0  0  0  0  0  0  0  0
  151.6214  142.6104  161.8013 H   0  0  0  0  0  0  0  0  0  0  0  0
  153.2047  143.9828  159.7806 H   0  0  0  0  0  0  0  0  0  0  0  0
  152.1616  146.1027  158.2973 H   0  0  0  0  0  0  0  0  0  0  0  0
  148.9702  143.7750  159.8270 H   0  0  0  0  0  0  0  0  0  0  0  0
  152.8863  141.6140  158.3675 H   0  0  0  0  0  0  0  0  0  0  0  0
  150.6649  142.3604  156.0596 H   0  0  0  0  0  0  0  0  0  0  0  0
  152.3175  141.8523  156.3062 H   0  0  0  0  0  0  0  0  0  0  0  0
  149.0080  140.1286  155.3090 H   0  0  0  0  0  0  0  0  0  0  0  0
  149.7362  141.2604  154.1740 H   0  0  0  0  0  0  0  0  0  0  0  0
  149.1436  138.6731  153.4454 H   0  0  0  0  0  0  0  0  0  0  0  0
  150.5125  139.5497  152.7679 H   0  0  0  0  0  0  0  0  0  0  0  0
  149.6507  145.8086  158.4419 H   0  0  0  0  0  0  0  0  0  0  0  0
  1  2  1  0  0  0  0
  1 19  1  0  0  0  0
  1 20  1  0  0  0  0
  1 21  1  0  0  0  0
  2  3  1  0  0  0  0
  2  9  1  0  0  0  0
  2 22  1  0  0  0  0
  3  4  1  0  0  0  0
  3 23  1  0  0  0  0
  3 24  1  0  0  0  0
  4  8  1  0  0  0  0
  4  5  1  0  0  0  0
  5  6  2  0  0  0  0
  5 25  1  0  0  0  0
  6  7  1  0  0  0  0
  6 26  1  0  0  0  0
  7  8  2  0  0  0  0
  7 35  1  0  0  0  0
  8 27  1  0  0  0  0
  9 10  1  0  0  0  0
  9 28  1  0  0  0  0
 10 11  2  0  0  0  0
 10 12  1  0  0  0  0
 12 13  1  0  0  0  0
 12 29  1  0  0  0  0
 12 30  1  0  0  0  0
 13 17  1  0  0  0  0
 13 14  1  0  0  0  0
 14 15  1  0  0  0  0
 14 31  1  0  0  0  0
 14 32  1  0  0  0  0
 15 16  1  0  0  0  0
 15 33  1  0  0  0  0
 15 34  1  0  0  0  0
 16 17  1  0  0  0  0
 17 18  2  0  0  0  0
M  CHG  1   7   1
M  END
> <s_m_source_file>
AV-unprocessed.smi

> <i_m_source_file_index>
3351

> <i_lp_mmshare_version>
43012

> <i_f3d_flags>
0

> <s_epik_input>
W2NIXTFuW2NIXVtjSF1uMVtDSDJdW0NAQEhdKFtDSDNdKVtOSF1DKD1PKVtDSDJdTjJbQ0gyXVtDSDJdU0MyPU8=

> <s_epik_cmdline>
J2VwaWtfcHl0aG9uJywgJy1waCcsICc3LjAnLCAnLXRuJywgJzgnLCAnLW1hJywgJzIwMCcsICctbWV0YWxfYmluZGluZycsICctaW1hZScsICc8aW5maWxlLm1hZT4nLCAnLW9tYWUnLCAnPG91dGZpbGUubWFlPic=

> <r_lp_tautomer_probability>
1

> <r_epik_Ionization_Penalty>
0.257312

> <r_epik_Ionization_Penalty_Charging>
0

> <r_epik_Ionization_Penalty_Neutral>
0.257312

> <r_epik_State_Penalty>
0.248897

> <r_epik_Charging_Adjusted_Penalty>
0.248897

> <i_epik_Tot_Q>
1

> <i_epik_Tot_abs_Q>
1

> <r_epik_Metal_State_Penalty>
0.538022

> <b_epik_Metal_Only>
0

> <s_lp_Force_Field>
OPLS_2005

> <r_lp_Energy>
6.1395

> <b_lp_Chiralities_Consistent>
1

> <s_lp_Variant>
AV-unprocessed.smi:3351-2

> <Gold.Version>
5.8.1

> <Gold.Id.Protein>
6NUR|6NUR_protein|mol2

> <Gold.PLP.Fitness>
47.1870

> <Gold.PLP.PLP>
-40.0737

> <Gold.PLP.part.hbond>
-2.0000

> <Gold.PLP.part.metal>
0.0000

> <Gold.PLP.part.buried>
-2.7263

> <Gold.PLP.part.nonpolar>
-34.4495

> <Gold.PLP.part.repulsive>
0.3017

> <Gold.PLP.ligand.clash>
0.0000

> <Gold.PLP.ligand.torsion>
0.9404

> <Gold.PLP.Chemscore.Hbond>
2.9825

> <Gold.PLP.Chemscore.CHOScore>
0.0000

> <Gold.PLP.Chemscore.Metal>
0.0000

> <Gold.Chemscore.Hbonds>
donor molecule, donor type, donor heavy atom, donor atom, acceptor molecule, acceptor atom, score
      L1  H     7    35       P1  8029  1.57
      P1  H  7997  8009       L1    18  1.00

> <Gold.PLP.Chemscore.Internal.Correction>
0.0465

> <Gold.Rescore>
     Score         DG    S(hbond)    S(metal)    S(lipo)     H(rot)  DE(clash)    DE(int)     intcor
     15.07     -15.58       1.91        0.00      84.76       2.41       0.11       0.41       ----

> <Gold.Chemscore.Fitness>
15.0692

> <Gold.Chemscore.DG>
-15.5842

> <Gold.Chemscore.ZeroCoef>
-5.4800

> <Gold.Chemscore.Hbond>
1.9063

> <Gold.Chemscore.Metal>
0.0000

> <Gold.Chemscore.Lipo>
84.7622

> <Gold.Chemscore.Internal_Hbond>
0.0000

> <Gold.Chemscore.DEClash>
0.1064

> <Gold.Chemscore.DEInternal>
0.4086

> <Gold.Chemscore.Rot>
2.4141

> <Gold.Chemscore.Internal.Correction>
   9.000000E+99

> <Gold.Chemscore.Hbonds>
donor molecule, donor type, donor heavy atom, donor atom, acceptor molecule, acceptor atom, score
      L1  H     7    35       P1  8029  0.63
      P1  H  7997  8009       L1    18  1.00

> <Gold.Chemscore.Hbond.Weighted>
-6.3671

> <Gold.Chemscore.Metal.Weighted>
-0.0000

> <Gold.Chemscore.Lipo.Weighted>
-9.9172

> <Gold.Chemscore.Internal_Hbond.Weighted>
0.0000

> <Gold.Chemscore.DEClash.Weighted>
0.1064

> <Gold.Chemscore.DEInternal.Weighted>
0.4086

> <Gold.Chemscore.Rot.Weighted>
6.1800

> <Gold.Chemscore.Internal.Correction.Weighted>
   9.000000E+99

> <Gold.Protein.RotatedTorsions>
[ 6907 6896 6895 6894 ] final   63.11 input  -60.11 | X-H torsion
[ 7974 7965 7964 7962 ] final   53.00 input  175.53 | X-H torsion
[ 8008 7997 7996 7995 ] final -168.59 input   59.86 | X-H torsion
[ 10167 10162 10161 10158 ] final   40.57 input  -65.29 | X-H torsion
[ 10718 10713 10712 10709 ] final   62.08 input   66.30 | X-H torsion
[ 10763 10752 10751 10750 ] final -138.88 input  -60.55 | X-H torsion
[ 11005 11000 10999 10996 ] final -127.79 input  -57.11 | X-H torsion

> <Gold.Protein.ActiveResidues>
 VAL166  LYS551  ARG553  GLY616  TRP617  ASP618  TYR619  PRO620  LYS621  CYS622 
 ASP623  PHE694  ASN695  SER759  ASP760  ASP761  ALA762  ILE779  LEU786  VAL792 
 PHE793  MET794  SER795  GLU796  ALA797  LYS798  CYS799  TRP800  GLU811  SER814 

> <Gold.Protein.RotatedAtoms>
  152.4227  134.5926  159.9978 H   0  0  0  0  0  0  0  0  0  0  0  0  # atno 6907 bound_to 6896
  151.6071  133.3345  159.3067 H   0  0  0  0  0  0  0  0  0  0  0  0  # atno 6908 bound_to 6896
  150.8115  134.7310  159.6758 H   0  0  0  0  0  0  0  0  0  0  0  0  # atno 6909 bound_to 6896
  145.9756  139.4192  143.0163 H   0  0  0  0  0  0  0  0  0  0  0  0  # atno 7974 bound_to 7965
  155.8935  140.1029  157.1402 H   0  0  0  0  0  0  0  0  0  0  0  0  # atno 8008 bound_to 7997
  154.4017  140.1306  156.4409 H   0  0  0  0  0  0  0  0  0  0  0  0  # atno 8009 bound_to 7997
  155.7506  140.3465  155.5151 H   0  0  0  0  0  0  0  0  0  0  0  0  # atno 8010 bound_to 7997
  140.3728  144.2082  150.6132 H   0  0  0  0  0  0  0  0  0  0  0  0  # atno 10167 bound_to 10162
  157.5875  130.9030  149.9542 H   0  0  0  0  0  0  0  0  0  0  0  0  # atno 10718 bound_to 10713
  154.8625  135.3599  154.5456 H   0  0  0  0  0  0  0  0  0  0  0  0  # atno 10763 bound_to 10752
  153.6076  135.7010  153.5364 H   0  0  0  0  0  0  0  0  0  0  0  0  # atno 10764 bound_to 10752
  153.3237  135.4144  155.1399 H   0  0  0  0  0  0  0  0  0  0  0  0  # atno 10765 bound_to 10752
  140.9570  134.0988  157.4006 H   0  0  0  0  0  0  0  0  0  0  0  0  # atno 11005 bound_to 11000
  145.7843  140.9842  143.1082 LP  0  0  0  0  0  0  0  0  0  0  0  0  # atno 17320 bound_to 7965
  144.6848  139.9604  143.7480 LP  0  0  0  0  0  0  0  0  0  0  0  0  # atno 17321 bound_to 7965
  140.5016  143.2316  151.8670 LP  0  0  0  0  0  0  0  0  0  0  0  0  # atno 17342 bound_to 10162
  139.4802  144.5053  151.9006 LP  0  0  0  0  0  0  0  0  0  0  0  0  # atno 17343 bound_to 10162
  156.0926  130.3662  150.0367 LP  0  0  0  0  0  0  0  0  0  0  0  0  # atno 17370 bound_to 10713
  156.8496  130.9454  151.3626 LP  0  0  0  0  0  0  0  0  0  0  0  0  # atno 17371 bound_to 10713
  139.8865  135.0082  156.6505 LP  0  0  0  0  0  0  0  0  0  0  0  0  # atno 17394 bound_to 11000
  140.7522  133.8888  155.8355 LP  0  0  0  0  0  0  0  0  0  0  0  0  # atno 17395 bound_to 11000

$$$$
