AV-unprocessed.smi:2066|AV-procd|sdf|8421|dock4
  -GOLD-   2272011113D 1   1.00000     0.00000
 Structure written by MMmdl.
 38 39  0  0  0  0  0  0  0  0  2 V2000
  152.4295  138.0018  160.0723 C   0  0  0  0  0  0  0  0  0  0  0  0
  152.0044  138.6592  158.7372 C   0  0  0  0  0  0  0  0  0  0  0  0
  153.1365  138.3949  157.7121 C   0  0  0  0  0  0  0  0  0  0  0  0
  150.7582  137.8843  158.2213 C   0  0  0  0  0  0  0  0  0  0  0  0
  149.6288  137.9745  159.1427 N   0  0  0  0  0  0  0  0  0  0  0  0
  148.9278  136.9352  159.6127 C   0  0  0  0  0  0  0  0  0  0  0  0
  149.2139  135.7901  159.2553 O   0  0  0  0  0  0  0  0  0  0  0  0
  147.9418  137.2859  160.4694 N   0  5  0  0  0  0  0  0  0  0  0  0
  147.2657  136.3387  161.1392 C   0  0  0  0  0  0  0  0  0  0  0  0
  147.6784  135.0687  161.2228 N   0  0  0  0  0  0  0  0  0  0  0  0
  146.8203  134.2538  161.9631 C   0  0  0  0  0  0  0  0  0  0  0  0
  145.7226  134.9161  162.4452 C   0  0  0  0  0  0  0  0  0  0  0  0
  145.7356  136.5942  161.9831 S   0  0  0  0  0  0  0  0  0  0  0  0
  151.7314  140.1181  158.8670 N   0  0  0  0  0  0  0  0  0  0  0  0
  151.3066  140.7830  157.6303 C   0  0  0  0  0  0  0  0  0  0  0  0
  150.9229  142.2538  157.8675 C   0  0  0  0  0  0  0  0  0  0  0  0
  152.0161  142.9463  158.4584 O   0  0  0  0  0  0  0  0  0  0  0  0
  152.4192  142.3671  159.6936 C   0  0  0  0  0  0  0  0  0  0  0  0
  152.8173  140.8985  159.4718 C   0  0  0  0  0  0  0  0  0  0  0  0
  152.6194  136.9360  159.9394 H   0  0  0  0  0  0  0  0  0  0  0  0
  151.6582  138.0892  160.8371 H   0  0  0  0  0  0  0  0  0  0  0  0
  153.3453  138.4359  160.4727 H   0  0  0  0  0  0  0  0  0  0  0  0
  153.2296  137.3326  157.4834 H   0  0  0  0  0  0  0  0  0  0  0  0
  154.1119  138.7115  158.0812 H   0  0  0  0  0  0  0  0  0  0  0  0
  152.9555  138.9144  156.7703 H   0  0  0  0  0  0  0  0  0  0  0  0
  150.4407  138.2777  157.2540 H   0  0  0  0  0  0  0  0  0  0  0  0
  150.9980  136.8361  158.0387 H   0  0  0  0  0  0  0  0  0  0  0  0
  149.3706  138.8974  159.4603 H   0  0  0  0  0  0  0  0  0  0  0  0
  147.0687  133.2112  162.0949 H   0  0  0  0  0  0  0  0  0  0  0  0
  144.9119  134.5230  163.0399 H   0  0  0  0  0  0  0  0  0  0  0  0
  152.1037  140.7432  156.8880 H   0  0  0  0  0  0  0  0  0  0  0  0
  150.4429  140.2824  157.1964 H   0  0  0  0  0  0  0  0  0  0  0  0
  150.6657  142.7347  156.9239 H   0  0  0  0  0  0  0  0  0  0  0  0
  150.0458  142.3248  158.5127 H   0  0  0  0  0  0  0  0  0  0  0  0
  153.2614  142.9317  160.0935 H   0  0  0  0  0  0  0  0  0  0  0  0
  151.6095  142.4410  160.4214 H   0  0  0  0  0  0  0  0  0  0  0  0
  153.1024  140.4859  160.4379 H   0  0  0  0  0  0  0  0  0  0  0  0
  153.7038  140.8656  158.8383 H   0  0  0  0  0  0  0  0  0  0  0  0
  1  2  1  0  0  0  0
  1 20  1  0  0  0  0
  1 21  1  0  0  0  0
  1 22  1  0  0  0  0
  2  3  1  0  0  0  0
  2  4  1  0  0  0  0
  2 14  1  0  0  0  0
  3 23  1  0  0  0  0
  3 24  1  0  0  0  0
  3 25  1  0  0  0  0
  4  5  1  0  0  0  0
  4 26  1  0  0  0  0
  4 27  1  0  0  0  0
  5  6  1  0  0  0  0
  5 28  1  0  0  0  0
  6  7  2  0  0  0  0
  6  8  1  0  0  0  0
  8  9  1  0  0  0  0
  9 13  1  0  0  0  0
  9 10  2  0  0  0  0
 10 11  1  0  0  0  0
 11 12  2  0  0  0  0
 11 29  1  0  0  0  0
 12 13  1  0  0  0  0
 12 30  1  0  0  0  0
 14 19  1  0  0  0  0
 14 15  1  0  0  0  0
 15 16  1  0  0  0  0
 15 31  1  0  0  0  0
 15 32  1  0  0  0  0
 16 17  1  0  0  0  0
 16 33  1  0  0  0  0
 16 34  1  0  0  0  0
 17 18  1  0  0  0  0
 18 19  1  0  0  0  0
 18 35  1  0  0  0  0
 18 36  1  0  0  0  0
 19 37  1  0  0  0  0
 19 38  1  0  0  0  0
M  CHG  1   8  -1
M  END
> <s_m_source_file>
AV-unprocessed.smi

> <i_m_source_file_index>
2066

> <i_lp_mmshare_version>
43012

> <i_f3d_flags>
0

> <s_epik_input>
W0NIMl0xW0NIMl1PW0NIMl1bQ0gyXU4xQyhbQ0gzXSkoW0NIM10pW0NIMl1bTkhdQyg9TylbTkhdYzJuW2NIXVtjSF1zMg==

> <s_epik_cmdline>
J2VwaWtfcHl0aG9uJywgJy1waCcsICc3LjAnLCAnLXRuJywgJzgnLCAnLW1hJywgJzIwMCcsICctbWV0YWxfYmluZGluZycsICctaW1hZScsICc8aW5maWxlLm1hZT4nLCAnLW9tYWUnLCAnPG91dGZpbGUubWFlPic=

> <r_lp_tautomer_probability>
0.999

> <r_epik_Ionization_Penalty>
7.22375

> <r_epik_Ionization_Penalty_Charging>
5.82415

> <r_epik_Ionization_Penalty_Neutral>
1.39959

> <r_epik_State_Penalty>
6.03347

> <r_epik_Charging_Adjusted_Penalty>
11.8576

> <i_epik_Tot_Q>
-1

> <i_epik_Tot_abs_Q>
1

> <r_epik_Metal_State_Penalty>
2.0104

> <b_epik_Metal_Only>
1

> <s_lp_Force_Field>
OPLS_2005

> <r_lp_Energy>
36.7798

> <b_lp_Chiralities_Consistent>
1

> <s_lp_Variant>
AV-unprocessed.smi:2066-3

> <Gold.Version>
5.8.1

> <Gold.Id.Protein>
6NUR|6NUR_protein|mol2

> <Gold.PLP.Fitness>
43.5287

> <Gold.PLP.PLP>
-31.5602

> <Gold.PLP.part.hbond>
-3.0000

> <Gold.PLP.part.metal>
0.0000

> <Gold.PLP.part.buried>
-5.2814

> <Gold.PLP.part.nonpolar>
-24.2286

> <Gold.PLP.part.repulsive>
0.3832

> <Gold.PLP.ligand.clash>
0.0000

> <Gold.PLP.ligand.torsion>
0.1362

> <Gold.PLP.Chemscore.Hbond>
4.0588

> <Gold.PLP.Chemscore.CHOScore>
0.0000

> <Gold.PLP.Chemscore.Metal>
0.0000

> <Gold.Chemscore.Hbonds>
donor molecule, donor type, donor heavy atom, donor atom, acceptor molecule, acceptor atom, score
      P1  H  6896  6908       L1     7  0.96
      P1  H  6931  6943       L1     8  1.37
      P1  H  6934  6947       L1     8  1.54

> <Gold.PLP.Chemscore.Internal.Correction>
0.0644

> <Gold.Rescore>
     Score         DG    S(hbond)    S(metal)    S(lipo)     H(rot)  DE(clash)    DE(int)     intcor
     14.28     -16.23       1.84        0.00      73.25       1.55       0.16       1.78       ----

> <Gold.Chemscore.Fitness>
14.2825

> <Gold.Chemscore.DG>
-16.2265

> <Gold.Chemscore.ZeroCoef>
-5.4800

> <Gold.Chemscore.Hbond>
1.8392

> <Gold.Chemscore.Metal>
0.0000

> <Gold.Chemscore.Lipo>
73.2490

> <Gold.Chemscore.Internal_Hbond>
0.0000

> <Gold.Chemscore.DEClash>
0.1596

> <Gold.Chemscore.DEInternal>
1.7845

> <Gold.Chemscore.Rot>
1.5495

> <Gold.Chemscore.Internal.Correction>
   9.000000E+99

> <Gold.Chemscore.Hbonds>
donor molecule, donor type, donor heavy atom, donor atom, acceptor molecule, acceptor atom, score
      P1  H  6896  6908       L1     7  0.89
      P1  H  6931  6943       L1     8  0.08
      P1  H  6934  6947       L1     8  0.54

> <Gold.Chemscore.Hbond.Weighted>
-6.1430

> <Gold.Chemscore.Metal.Weighted>
-0.0000

> <Gold.Chemscore.Lipo.Weighted>
-8.5701

> <Gold.Chemscore.Internal_Hbond.Weighted>
0.0000

> <Gold.Chemscore.DEClash.Weighted>
0.1596

> <Gold.Chemscore.DEInternal.Weighted>
1.7845

> <Gold.Chemscore.Rot.Weighted>
3.9666

> <Gold.Chemscore.Internal.Correction.Weighted>
   9.000000E+99

> <Gold.Protein.RotatedTorsions>
[ 6907 6896 6895 6894 ] final  157.77 input  -60.11 | X-H torsion
[ 7974 7965 7964 7962 ] final -160.19 input  175.53 | X-H torsion
[ 8008 7997 7996 7995 ] final  -87.68 input   59.86 | X-H torsion
[ 10167 10162 10161 10158 ] final  -87.87 input  -65.29 | X-H torsion
[ 10718 10713 10712 10709 ] final  110.08 input   66.30 | X-H torsion
[ 10763 10752 10751 10750 ] final -166.80 input  -60.55 | X-H torsion
[ 11005 11000 10999 10996 ] final   13.97 input  -57.11 | X-H torsion

> <Gold.Protein.ActiveResidues>
 VAL166  LYS551  ARG553  GLY616  TRP617  ASP618  TYR619  PRO620  LYS621  CYS622 
 ASP623  PHE694  ASN695  SER759  ASP760  ASP761  ALA762  ILE779  LEU786  VAL792 
 PHE793  MET794  SER795  GLU796  ALA797  LYS798  CYS799  TRP800  GLU811  SER814 

> <Gold.Protein.RotatedAtoms>
  152.0103  133.3858  159.4216 H   0  0  0  0  0  0  0  0  0  0  0  0  # atno 6907 bound_to 6896
  150.6900  134.3738  159.5013 H   0  0  0  0  0  0  0  0  0  0  0  0  # atno 6908 bound_to 6896
  152.1498  134.8997  160.0599 H   0  0  0  0  0  0  0  0  0  0  0  0  # atno 6909 bound_to 6896
  144.7436  140.3577  143.6102 H   0  0  0  0  0  0  0  0  0  0  0  0  # atno 7974 bound_to 7965
  154.6660  140.0563  157.0114 H   0  0  0  0  0  0  0  0  0  0  0  0  # atno 8008 bound_to 7997
  155.1158  140.3242  155.4491 H   0  0  0  0  0  0  0  0  0  0  0  0  # atno 8009 bound_to 7997
  156.2638  140.2006  156.6281 H   0  0  0  0  0  0  0  0  0  0  0  0  # atno 8010 bound_to 7997
  140.3802  143.2752  151.9393 H   0  0  0  0  0  0  0  0  0  0  0  0  # atno 10167 bound_to 10162
  157.6511  131.0926  150.6549 H   0  0  0  0  0  0  0  0  0  0  0  0  # atno 10718 bound_to 10713
  154.6797  135.2952  154.9630 H   0  0  0  0  0  0  0  0  0  0  0  0  # atno 10763 bound_to 10752
  154.0629  135.6629  153.4818 H   0  0  0  0  0  0  0  0  0  0  0  0  # atno 10764 bound_to 10752
  153.0539  135.5156  154.7833 H   0  0  0  0  0  0  0  0  0  0  0  0  # atno 10765 bound_to 10752
  140.4747  134.0995  155.7739 H   0  0  0  0  0  0  0  0  0  0  0  0  # atno 11005 bound_to 11000
  145.7209  139.1709  143.2485 LP  0  0  0  0  0  0  0  0  0  0  0  0  # atno 17320 bound_to 7965
  146.1277  140.7226  142.9427 LP  0  0  0  0  0  0  0  0  0  0  0  0  # atno 17321 bound_to 7965
  139.4796  144.5825  151.7908 LP  0  0  0  0  0  0  0  0  0  0  0  0  # atno 17342 bound_to 10162
  140.4945  144.1261  150.5957 LP  0  0  0  0  0  0  0  0  0  0  0  0  # atno 17343 bound_to 10162
  156.6860  130.4581  149.5614 LP  0  0  0  0  0  0  0  0  0  0  0  0  # atno 17370 bound_to 10713
  156.1895  130.6551  151.1045 LP  0  0  0  0  0  0  0  0  0  0  0  0  # atno 17371 bound_to 10713
  141.1560  133.8882  157.1976 LP  0  0  0  0  0  0  0  0  0  0  0  0  # atno 17394 bound_to 11000
  139.9863  135.0081  156.9870 LP  0  0  0  0  0  0  0  0  0  0  0  0  # atno 17395 bound_to 11000

$$$$
