AV-unprocessed.smi:2003|AV-procd|sdf|8117|dock3
  -GOLD-   2272010353D 1   1.00000     0.00000
 Structure written by MMmdl.
 43 44  0  0  0  0  0  0  0  0  1 V2000
  143.5747  132.4030  149.5369 C   0  0  0  0  0  0  0  0  0  0  0  0
  144.6133  133.1458  150.3245 C   0  0  0  0  0  0  0  0  0  0  0  0
  144.7397  134.5544  150.5012 C   0  0  0  0  0  0  0  0  0  0  0  0
  145.8468  134.6594  151.2983 C   0  0  0  0  0  0  0  0  0  0  0  0
  146.4436  135.7772  151.7906 N   0  0  0  0  0  0  0  0  0  0  0  0
  145.8760  136.8411  152.3848 C   0  0  0  0  0  0  0  0  0  0  0  0
  144.6714  136.9879  152.5923 O   0  0  0  0  0  0  0  0  0  0  0  0
  146.7983  137.7452  152.7371 N   0  0  0  0  0  0  0  0  0  0  0  0
  146.5073  139.0014  153.4187 C   0  0  0  0  0  0  0  0  0  0  0  0
  146.8279  138.9175  154.9318 C   0  0  2  0  0  0  0  0  0  0  0  0
  145.7983  139.7872  155.6888 C   0  0  0  0  0  0  0  0  0  0  0  0
  148.2319  139.2411  155.2672 N   0  0  0  0  0  0  0  0  0  0  0  0
  148.5730  140.6370  154.9761 C   0  0  0  0  0  0  0  0  0  0  0  0
  150.0369  140.9694  155.3121 C   0  0  0  0  0  0  0  0  0  0  0  0
  150.9015  140.0939  154.6003 O   0  0  0  0  0  0  0  0  0  0  0  0
  150.6506  138.7277  154.9025 C   0  0  0  0  0  0  0  0  0  0  0  0
  149.1899  138.3818  154.5658 C   0  0  0  0  0  0  0  0  0  0  0  0
  146.3262  133.3957  151.5627 N   0  0  0  0  0  0  0  0  0  0  0  0
  147.4708  132.9925  152.3562 C   0  0  0  0  0  0  0  0  0  0  0  0
  145.5597  132.4624  150.9582 N   0  0  0  0  0  0  0  0  0  0  0  0
  142.8600  133.0893  149.0824 H   0  0  0  0  0  0  0  0  0  0  0  0
  143.0160  131.7162  150.1730 H   0  0  0  0  0  0  0  0  0  0  0  0
  144.0313  131.8215  148.7357 H   0  0  0  0  0  0  0  0  0  0  0  0
  144.1132  135.3371  150.1009 H   0  0  0  0  0  0  0  0  0  0  0  0
  147.4485  135.8036  151.6986 H   0  0  0  0  0  0  0  0  0  0  0  0
  147.7685  137.5501  152.5370 H   0  0  0  0  0  0  0  0  0  0  0  0
  147.0945  139.7975  152.9580 H   0  0  0  0  0  0  0  0  0  0  0  0
  145.4667  139.2803  153.2510 H   0  0  0  0  0  0  0  0  0  0  0  0
  146.6410  137.8846  155.2296 H   0  0  0  0  0  0  0  0  0  0  0  0
  144.7840  139.5953  155.3380 H   0  0  0  0  0  0  0  0  0  0  0  0
  145.9968  140.8510  155.5543 H   0  0  0  0  0  0  0  0  0  0  0  0
  145.7919  139.5781  156.7579 H   0  0  0  0  0  0  0  0  0  0  0  0
  148.3858  140.8517  153.9228 H   0  0  0  0  0  0  0  0  0  0  0  0
  147.9443  141.3136  155.5528 H   0  0  0  0  0  0  0  0  0  0  0  0
  150.2655  141.9986  155.0344 H   0  0  0  0  0  0  0  0  0  0  0  0
  150.2169  140.8797  156.3846 H   0  0  0  0  0  0  0  0  0  0  0  0
  151.3305  138.1041  154.3218 H   0  0  0  0  0  0  0  0  0  0  0  0
  150.8605  138.5353  155.9558 H   0  0  0  0  0  0  0  0  0  0  0  0
  149.0323  137.3372  154.8301 H   0  0  0  0  0  0  0  0  0  0  0  0
  149.0382  138.4616  153.4881 H   0  0  0  0  0  0  0  0  0  0  0  0
  148.3826  133.3923  151.9116 H   0  0  0  0  0  0  0  0  0  0  0  0
  147.5447  131.9051  152.3998 H   0  0  0  0  0  0  0  0  0  0  0  0
  147.3682  133.3801  153.3701 H   0  0  0  0  0  0  0  0  0  0  0  0
  1  2  1  0  0  0  0
  1 21  1  0  0  0  0
  1 22  1  0  0  0  0
  1 23  1  0  0  0  0
  2 20  2  0  0  0  0
  2  3  1  0  0  0  0
  3  4  2  0  0  0  0
  3 24  1  0  0  0  0
  4  5  1  0  0  0  0
  4 18  1  0  0  0  0
  5  6  1  0  0  0  0
  5 25  1  0  0  0  0
  6  7  2  0  0  0  0
  6  8  1  0  0  0  0
  8  9  1  0  0  0  0
  8 26  1  0  0  0  0
  9 10  1  0  0  0  0
  9 27  1  0  0  0  0
  9 28  1  0  0  0  0
 10 11  1  0  0  0  0
 10 12  1  0  0  0  0
 10 29  1  0  0  0  0
 11 30  1  0  0  0  0
 11 31  1  0  0  0  0
 11 32  1  0  0  0  0
 12 17  1  0  0  0  0
 12 13  1  0  0  0  0
 13 14  1  0  0  0  0
 13 33  1  0  0  0  0
 13 34  1  0  0  0  0
 14 15  1  0  0  0  0
 14 35  1  0  0  0  0
 14 36  1  0  0  0  0
 15 16  1  0  0  0  0
 16 17  1  0  0  0  0
 16 37  1  0  0  0  0
 16 38  1  0  0  0  0
 17 39  1  0  0  0  0
 17 40  1  0  0  0  0
 18 19  1  0  0  0  0
 18 20  1  0  0  0  0
 19 41  1  0  0  0  0
 19 42  1  0  0  0  0
 19 43  1  0  0  0  0
M  END
> <s_m_source_file>
AV-unprocessed.smi

> <i_m_source_file_index>
2003

> <i_lp_mmshare_version>
43012

> <i_f3d_flags>
0

> <s_epik_input>
W0NIM11jMVtjSF1jKG4objEpW0NIM10pW05IXUMoPU8pW05IXVtDSDJdW0NASF0oW0NIM10pTjJbQ0gyXVtDSDJdT1tDSDJdW0NIMl0y

> <s_epik_cmdline>
J2VwaWtfcHl0aG9uJywgJy1waCcsICc3LjAnLCAnLXRuJywgJzgnLCAnLW1hJywgJzIwMCcsICctbWV0YWxfYmluZGluZycsICctaW1hZScsICc8aW5maWxlLm1hZT4nLCAnLW9tYWUnLCAnPG91dGZpbGUubWFlPic=

> <r_lp_tautomer_probability>
1

> <r_epik_Ionization_Penalty>
0.233974

> <r_epik_Ionization_Penalty_Charging>
0

> <r_epik_Ionization_Penalty_Neutral>
0.233974

> <r_epik_State_Penalty>
0.224627

> <r_epik_Charging_Adjusted_Penalty>
0.224627

> <i_epik_Tot_Q>
0

> <i_epik_Tot_abs_Q>
0

> <r_epik_Metal_State_Penalty>
0.224624

> <b_epik_Metal_Only>
0

> <s_lp_Force_Field>
OPLS_2005

> <r_lp_Energy>
33.8314

> <b_lp_Chiralities_Consistent>
1

> <s_lp_Variant>
AV-unprocessed.smi:2003-1

> <Gold.Version>
5.8.1

> <Gold.Id.Protein>
6NUR|6NUR_protein|mol2

> <Gold.PLP.Fitness>
38.0845

> <Gold.PLP.PLP>
-31.2972

> <Gold.PLP.part.hbond>
-2.9155

> <Gold.PLP.part.metal>
0.0000

> <Gold.PLP.part.buried>
-4.9949

> <Gold.PLP.part.nonpolar>
-25.2984

> <Gold.PLP.part.repulsive>
0.5532

> <Gold.PLP.ligand.clash>
0.0000

> <Gold.PLP.ligand.torsion>
0.9156

> <Gold.PLP.Chemscore.Hbond>
2.8550

> <Gold.PLP.Chemscore.CHOScore>
0.0000

> <Gold.PLP.Chemscore.Metal>
0.0000

> <Gold.Chemscore.Hbonds>
donor molecule, donor type, donor heavy atom, donor atom, acceptor molecule, acceptor atom, score
      L1  H     5    25       P1  7948  1.00
      L1  H     8    26       P1  7948  0.88
      P1  H  7989  7998       L1    15  1.00

> <Gold.PLP.Chemscore.Internal.Correction>
0.0535

> <Gold.Rescore>
     Score         DG    S(hbond)    S(metal)    S(lipo)     H(rot)  DE(clash)    DE(int)     intcor
     17.87     -18.91       2.86        0.00      65.80       1.49       0.11       0.93       ----

> <Gold.Chemscore.Fitness>
17.8736

> <Gold.Chemscore.DG>
-18.9103

> <Gold.Chemscore.ZeroCoef>
-5.4800

> <Gold.Chemscore.Hbond>
2.8612

> <Gold.Chemscore.Metal>
0.0000

> <Gold.Chemscore.Lipo>
65.7963

> <Gold.Chemscore.Internal_Hbond>
0.0000

> <Gold.Chemscore.DEClash>
0.1050

> <Gold.Chemscore.DEInternal>
0.9316

> <Gold.Chemscore.Rot>
1.4938

> <Gold.Chemscore.Internal.Correction>
   9.000000E+99

> <Gold.Chemscore.Hbonds>
donor molecule, donor type, donor heavy atom, donor atom, acceptor molecule, acceptor atom, score
      L1  H     5    25       P1  7948  0.93
      L1  H     8    26       P1  7948  0.86
      P1  H  7989  7998       L1    15  0.70

> <Gold.Chemscore.Hbond.Weighted>
-9.5563

> <Gold.Chemscore.Metal.Weighted>
-0.0000

> <Gold.Chemscore.Lipo.Weighted>
-7.6982

> <Gold.Chemscore.Internal_Hbond.Weighted>
0.0000

> <Gold.Chemscore.DEClash.Weighted>
0.1050

> <Gold.Chemscore.DEInternal.Weighted>
0.9316

> <Gold.Chemscore.Rot.Weighted>
3.8242

> <Gold.Chemscore.Internal.Correction.Weighted>
   9.000000E+99

> <Gold.Protein.RotatedTorsions>
[ 6907 6896 6895 6894 ] final   79.29 input  -60.11 | X-H torsion
[ 7974 7965 7964 7962 ] final   52.79 input  175.53 | X-H torsion
[ 8008 7997 7996 7995 ] final -103.25 input   59.86 | X-H torsion
[ 10167 10162 10161 10158 ] final   55.82 input  -65.29 | X-H torsion
[ 10718 10713 10712 10709 ] final   -8.11 input   66.30 | X-H torsion
[ 10763 10752 10751 10750 ] final  -52.58 input  -60.55 | X-H torsion
[ 11005 11000 10999 10996 ] final   94.36 input  -57.11 | X-H torsion

> <Gold.Protein.ActiveResidues>
 VAL166  LYS551  ARG553  GLY616  TRP617  ASP618  TYR619  PRO620  LYS621  CYS622 
 ASP623  PHE694  ASN695  SER759  ASP760  ASP761  ALA762  ILE779  LEU786  VAL792 
 PHE793  MET794  SER795  GLU796  ALA797  LYS798  CYS799  TRP800  GLU811  SER814 

> <Gold.Protein.RotatedAtoms>
  152.5193  134.3534  159.9258 H   0  0  0  0  0  0  0  0  0  0  0  0  # atno 6907 bound_to 6896
  151.3485  133.3928  159.2685 H   0  0  0  0  0  0  0  0  0  0  0  0  # atno 6908 bound_to 6896
  150.9746  134.9131  159.7866 H   0  0  0  0  0  0  0  0  0  0  0  0  # atno 6909 bound_to 6896
  145.9777  139.4211  143.0151 H   0  0  0  0  0  0  0  0  0  0  0  0  # atno 7974 bound_to 7965
  154.8682  140.0424  157.1708 H   0  0  0  0  0  0  0  0  0  0  0  0  # atno 8008 bound_to 7997
  154.8767  140.2966  155.5428 H   0  0  0  0  0  0  0  0  0  0  0  0  # atno 8009 bound_to 7997
  156.2999  140.2419  156.3764 H   0  0  0  0  0  0  0  0  0  0  0  0  # atno 8010 bound_to 7997
  140.2153  144.3846  150.6472 H   0  0  0  0  0  0  0  0  0  0  0  0  # atno 10167 bound_to 10162
  156.7074  130.5111  149.5901 H   0  0  0  0  0  0  0  0  0  0  0  0  # atno 10718 bound_to 10713
  154.1450  135.6499  153.4950 H   0  0  0  0  0  0  0  0  0  0  0  0  # atno 10763 bound_to 10752
  153.0155  135.5324  154.6867 H   0  0  0  0  0  0  0  0  0  0  0  0  # atno 10764 bound_to 10752
  154.6138  135.2957  155.0373 H   0  0  0  0  0  0  0  0  0  0  0  0  # atno 10765 bound_to 10752
  139.8799  134.8841  156.3852 H   0  0  0  0  0  0  0  0  0  0  0  0  # atno 11005 bound_to 11000
  145.7814  140.9854  143.1097 LP  0  0  0  0  0  0  0  0  0  0  0  0  # atno 17320 bound_to 7965
  144.6853  139.9570  143.7479 LP  0  0  0  0  0  0  0  0  0  0  0  0  # atno 17321 bound_to 7965
  140.6294  143.2185  151.6528 LP  0  0  0  0  0  0  0  0  0  0  0  0  # atno 17342 bound_to 10162
  139.5164  144.3347  152.0795 LP  0  0  0  0  0  0  0  0  0  0  0  0  # atno 17343 bound_to 10162
  156.1685  130.6421  151.0808 LP  0  0  0  0  0  0  0  0  0  0  0  0  # atno 17370 bound_to 10713
  157.6949  131.0797  150.6997 LP  0  0  0  0  0  0  0  0  0  0  0  0  # atno 17371 bound_to 10713
  140.9371  133.7540  156.0098 LP  0  0  0  0  0  0  0  0  0  0  0  0  # atno 17394 bound_to 11000
  140.8263  134.3230  157.5364 LP  0  0  0  0  0  0  0  0  0  0  0  0  # atno 17395 bound_to 11000

$$$$
