AV-unprocessed.smi:288|AV-procd|sdf|2212|dock7
  -GOLD-   2262022 43D 1   1.00000     0.00000
 Structure written by MMmdl.
 33 34  0  0  0  0  0  0  0  0  1 V2000
  153.0164  138.0440  157.4260 O   0  0  0  0  0  0  0  0  0  0  0  0
  152.7243  139.1360  157.9163 C   0  0  0  0  0  0  0  0  0  0  0  0
  151.8376  140.0953  157.2662 C   0  0  0  0  0  0  0  0  0  0  0  0
  151.3181  139.8077  156.0607 F   0  0  0  0  0  0  0  0  0  0  0  0
  151.5265  141.2700  157.8559 C   0  0  0  0  0  0  0  0  0  0  0  0
  152.0144  141.6446  159.0975 N   0  0  0  0  0  0  0  0  0  0  0  0
  151.6431  142.9626  159.7433 C   0  0  1  0  0  0  0  0  0  0  0  0
  152.8302  143.9421  159.6933 C   0  0  0  0  0  0  0  0  0  0  0  0
  152.2017  145.1975  159.1231 C   0  0  0  0  0  0  0  0  0  0  0  0
  151.0951  144.6252  158.2502 C   0  0  0  0  0  0  0  0  0  0  0  0
  150.5889  143.5570  159.0403 O   0  0  0  0  0  0  0  0  0  0  0  0
  152.8789  140.7770  159.7994 C   0  0  0  0  0  0  0  0  0  0  0  0
  153.3084  141.0807  160.9151 O   0  0  0  0  0  0  0  0  0  0  0  0
  153.2199  139.5537  159.1754 N   0  0  0  0  0  0  0  0  0  0  0  0
  154.1073  138.6527  159.8923 C   0  0  0  0  0  0  0  0  0  0  0  0
  153.3780  137.7802  160.9390 C   0  0  1  0  0  0  0  0  0  0  0  0
  153.2219  136.4770  160.4108 O   0  0  0  0  0  0  0  0  0  0  0  0
  154.1651  137.6651  162.2591 C   0  0  0  0  0  0  0  0  0  0  0  0
  155.2840  136.9651  162.0691 F   0  0  0  0  0  0  0  0  0  0  0  0
  154.4682  138.8707  162.7425 F   0  0  0  0  0  0  0  0  0  0  0  0
  153.4267  137.0182  163.1612 F   0  0  0  0  0  0  0  0  0  0  0  0
  150.8628  141.9301  157.3194 H   0  0  0  0  0  0  0  0  0  0  0  0
  151.3075  142.7172  160.7524 H   0  0  0  0  0  0  0  0  0  0  0  0
  153.2621  144.0858  160.6841 H   0  0  0  0  0  0  0  0  0  0  0  0
  153.6019  143.5654  159.0199 H   0  0  0  0  0  0  0  0  0  0  0  0
  151.7722  145.8003  159.9243 H   0  0  0  0  0  0  0  0  0  0  0  0
  152.9076  145.8156  158.5679 H   0  0  0  0  0  0  0  0  0  0  0  0
  150.3195  145.3549  158.0176 H   0  0  0  0  0  0  0  0  0  0  0  0
  151.5005  144.2415  157.3129 H   0  0  0  0  0  0  0  0  0  0  0  0
  154.6679  138.0575  159.1694 H   0  0  0  0  0  0  0  0  0  0  0  0
  154.8675  139.2803  160.3600 H   0  0  0  0  0  0  0  0  0  0  0  0
  152.3897  138.1877  161.1564 H   0  0  0  0  0  0  0  0  0  0  0  0
  154.0397  136.0132  160.5070 H   0  0  0  0  0  0  0  0  0  0  0  0
  1  2  2  0  0  0  0
  2 14  1  0  0  0  0
  2  3  1  0  0  0  0
  3  4  1  0  0  0  0
  3  5  2  0  0  0  0
  5  6  1  0  0  0  0
  5 22  1  0  0  0  0
  6  7  1  0  0  0  0
  6 12  1  0  0  0  0
  7 11  1  0  0  0  0
  7  8  1  0  0  0  0
  7 23  1  0  0  0  0
  8  9  1  0  0  0  0
  8 24  1  0  0  0  0
  8 25  1  0  0  0  0
  9 10  1  0  0  0  0
  9 26  1  0  0  0  0
  9 27  1  0  0  0  0
 10 11  1  0  0  0  0
 10 28  1  0  0  0  0
 10 29  1  0  0  0  0
 12 13  2  0  0  0  0
 12 14  1  0  0  0  0
 14 15  1  0  0  0  0
 15 16  1  0  0  0  0
 15 30  1  0  0  0  0
 15 31  1  0  0  0  0
 16 17  1  0  0  0  0
 16 18  1  0  0  0  0
 16 32  1  0  0  0  0
 17 33  1  0  0  0  0
 18 19  1  0  0  0  0
 18 20  1  0  0  0  0
 18 21  1  0  0  0  0
M  END
> <s_m_source_file>
AV-unprocessed.smi

> <i_m_source_file_index>
288

> <i_lp_mmshare_version>
43012

> <i_f3d_flags>
0

> <s_epik_input>
TzFbQ0gyXVtDSDJdW0NIMl1bQ0BIXTFuKFtjSF1jKEYpYzI9TyljKD1PKW4yW0NIMl1bQ0BIXShbT0hdKUMoRikoRilG

> <s_epik_cmdline>
J2VwaWtfcHl0aG9uJywgJy1waCcsICc3LjAnLCAnLXRuJywgJzgnLCAnLW1hJywgJzIwMCcsICctbWV0YWxfYmluZGluZycsICctaW1hZScsICc8aW5maWxlLm1hZT4nLCAnLW9tYWUnLCAnPG91dGZpbGUubWFlPic=

> <r_lp_tautomer_probability>
1

> <r_epik_Ionization_Penalty>
0.000551119

> <r_epik_Ionization_Penalty_Charging>
2.51184e-08

> <r_epik_Ionization_Penalty_Neutral>
0.000551094

> <r_epik_State_Penalty>
0.000345115

> <r_epik_Charging_Adjusted_Penalty>
0.00034514

> <i_epik_Tot_Q>
0

> <i_epik_Tot_abs_Q>
0

> <r_epik_Metal_State_Penalty>
-0

> <b_epik_Metal_Only>
0

> <s_epik_Chemistry_Notes>
This compound contains an acetal/aminal-like group ( X-CH(R)-Y where X, Y are N, S, or O) that may be acid/base labile, releasing an aldehyde.

> <s_lp_Force_Field>
OPLS_2005

> <r_lp_Energy>
35.613

> <b_lp_Chiralities_Consistent>
1

> <s_lp_Variant>
AV-unprocessed.smi:288-4

> <Gold.Version>
5.8.1

> <Gold.Id.Protein>
6NUR|6NUR_protein|mol2

> <Gold.PLP.Fitness>
38.7643

> <Gold.PLP.PLP>
-38.3108

> <Gold.PLP.part.hbond>
-1.0000

> <Gold.PLP.part.metal>
0.0000

> <Gold.PLP.part.buried>
-4.3975

> <Gold.PLP.part.nonpolar>
-33.0308

> <Gold.PLP.part.repulsive>
0.0878

> <Gold.PLP.ligand.clash>
0.0000

> <Gold.PLP.ligand.torsion>
1.2816

> <Gold.PLP.Chemscore.Hbond>
1.0000

> <Gold.PLP.Chemscore.CHOScore>
0.0000

> <Gold.PLP.Chemscore.Metal>
0.0000

> <Gold.Chemscore.Hbonds>
donor molecule, donor type, donor heavy atom, donor atom, acceptor molecule, acceptor atom, score
      P1  H  6896  6909       L1    17  0.75

> <Gold.PLP.Chemscore.Internal.Correction>
0.0168

> <Gold.Rescore>
     Score         DG    S(hbond)    S(metal)    S(lipo)     H(rot)  DE(clash)    DE(int)     intcor
      9.02     -10.19       0.98        0.00      68.52       2.57       0.00       1.16       ----

> <Gold.Chemscore.Fitness>
9.0246

> <Gold.Chemscore.DG>
-10.1874

> <Gold.Chemscore.ZeroCoef>
-5.4800

> <Gold.Chemscore.Hbond>
0.9757

> <Gold.Chemscore.Metal>
0.0000

> <Gold.Chemscore.Lipo>
68.5157

> <Gold.Chemscore.Internal_Hbond>
0.0000

> <Gold.Chemscore.DEClash>
0.0044

> <Gold.Chemscore.DEInternal>
1.1583

> <Gold.Chemscore.Rot>
2.5656

> <Gold.Chemscore.Internal.Correction>
   9.000000E+99

> <Gold.Chemscore.Hbonds>
donor molecule, donor type, donor heavy atom, donor atom, acceptor molecule, acceptor atom, score
      P1  H  6896  6909       L1    17  0.09

> <Gold.Chemscore.Hbond.Weighted>
-3.2589

> <Gold.Chemscore.Metal.Weighted>
-0.0000

> <Gold.Chemscore.Lipo.Weighted>
-8.0163

> <Gold.Chemscore.Internal_Hbond.Weighted>
0.0000

> <Gold.Chemscore.DEClash.Weighted>
0.0044

> <Gold.Chemscore.DEInternal.Weighted>
1.1583

> <Gold.Chemscore.Rot.Weighted>
6.5679

> <Gold.Chemscore.Internal.Correction.Weighted>
   9.000000E+99

> <Gold.Protein.RotatedTorsions>
[ 6907 6896 6895 6894 ] final  158.23 input  -60.11 | X-H torsion
[ 7974 7965 7964 7962 ] final  -78.41 input  175.53 | X-H torsion
[ 8008 7997 7996 7995 ] final -178.22 input   59.86 | X-H torsion
[ 10167 10162 10161 10158 ] final  -24.03 input  -65.29 | X-H torsion
[ 10718 10713 10712 10709 ] final  101.73 input   66.30 | X-H torsion
[ 10763 10752 10751 10750 ] final  -88.50 input  -60.55 | X-H torsion
[ 11005 11000 10999 10996 ] final  -45.93 input  -57.11 | X-H torsion

> <Gold.Protein.ActiveResidues>
 VAL166  LYS551  ARG553  GLY616  TRP617  ASP618  TYR619  PRO620  LYS621  CYS622 
 ASP623  PHE694  ASN695  SER759  ASP760  ASP761  ALA762  ILE779  LEU786  VAL792 
 PHE793  MET794  SER795  GLU796  ALA797  LYS798  CYS799  TRP800  GLU811  SER814 

> <Gold.Protein.RotatedAtoms>
  152.0035  133.3834  159.4190 H   0  0  0  0  0  0  0  0  0  0  0  0  # atno 6907 bound_to 6896
  150.6907  134.3808  159.5042 H   0  0  0  0  0  0  0  0  0  0  0  0  # atno 6908 bound_to 6896
  152.1559  134.8951  160.0595 H   0  0  0  0  0  0  0  0  0  0  0  0  # atno 6909 bound_to 6896
  145.5869  140.9437  143.1314 H   0  0  0  0  0  0  0  0  0  0  0  0  # atno 7974 bound_to 7965
  156.0162  140.1251  157.0404 H   0  0  0  0  0  0  0  0  0  0  0  0  # atno 8008 bound_to 7997
  154.4294  140.1078  156.5969 H   0  0  0  0  0  0  0  0  0  0  0  0  # atno 8009 bound_to 7997
  155.6010  140.3470  155.4596 H   0  0  0  0  0  0  0  0  0  0  0  0  # atno 8010 bound_to 7997
  140.7288  143.4390  151.0686 H   0  0  0  0  0  0  0  0  0  0  0  0  # atno 10167 bound_to 10162
  157.6821  131.0734  150.5297 H   0  0  0  0  0  0  0  0  0  0  0  0  # atno 10718 bound_to 10713
  154.6452  135.5375  153.7836 H   0  0  0  0  0  0  0  0  0  0  0  0  # atno 10763 bound_to 10752
  153.0355  135.6469  154.1100 H   0  0  0  0  0  0  0  0  0  0  0  0  # atno 10764 bound_to 10752
  154.1022  135.2932  155.3229 H   0  0  0  0  0  0  0  0  0  0  0  0  # atno 10765 bound_to 10752
  141.0547  133.6730  156.3083 H   0  0  0  0  0  0  0  0  0  0  0  0  # atno 11005 bound_to 11000
  144.7369  139.7561  143.7326 LP  0  0  0  0  0  0  0  0  0  0  0  0  # atno 17320 bound_to 7965
  146.1676  139.4813  142.9948 LP  0  0  0  0  0  0  0  0  0  0  0  0  # atno 17321 bound_to 7965
  139.8055  143.8024  152.3167 LP  0  0  0  0  0  0  0  0  0  0  0  0  # atno 17342 bound_to 10162
  139.8055  144.7357  150.9767 LP  0  0  0  0  0  0  0  0  0  0  0  0  # atno 17343 bound_to 10162
  156.5607  130.4255  149.6064 LP  0  0  0  0  0  0  0  0  0  0  0  0  # atno 17370 bound_to 10713
  156.2823  130.7078  151.1905 LP  0  0  0  0  0  0  0  0  0  0  0  0  # atno 17371 bound_to 10713
  140.5988  134.5576  157.5513 LP  0  0  0  0  0  0  0  0  0  0  0  0  # atno 17394 bound_to 11000
  139.9380  134.7840  156.0753 LP  0  0  0  0  0  0  0  0  0  0  0  0  # atno 17395 bound_to 11000

$$$$
