AV-unprocessed.smi:2256|AV-procd|sdf|9126|dock4
  -GOLD-   2272012333D 1   1.00000     0.00000
 Structure written by MMmdl.
 42 44  0  0  0  0  0  0  0  0  1 V2000
  152.7948  133.1610  164.2046 C   0  0  0  0  0  0  0  0  0  0  0  0
  153.3878  134.3585  163.4837 C   0  0  0  0  0  0  0  0  0  0  0  0
  153.0699  135.6075  164.0252 N   0  0  0  0  0  0  0  0  0  0  0  0
  153.5223  136.6846  163.4713 C   0  0  0  0  0  0  0  0  0  0  0  0
  154.3350  136.6401  162.3268 N   0  0  0  0  0  0  0  0  0  0  0  0
  154.7787  137.9376  161.7906 C   0  0  0  0  0  0  0  0  0  0  0  0
  153.8328  138.4711  160.6911 C   0  0  2  0  0  0  0  0  0  0  0  0
  153.3576  137.4085  159.8890 O   0  0  0  0  0  0  0  0  0  0  0  0
  154.5069  139.4959  159.7630 C   0  0  0  0  0  0  0  0  0  0  0  0
  153.5740  139.9582  158.7938 O   0  0  0  0  0  0  0  0  0  0  0  0
  153.0061  141.2027  158.9650 C   0  0  0  0  0  0  0  0  0  0  0  0
  153.2062  142.0114  160.1145 C   0  0  0  0  0  0  0  0  0  0  0  0
  152.5937  143.2746  160.2226 C   0  0  0  0  0  0  0  0  0  0  0  0
  151.7731  143.7488  159.1856 C   0  0  0  0  0  0  0  0  0  0  0  0
  151.5751  142.9493  158.0477 C   0  0  0  0  0  0  0  0  0  0  0  0
  150.8407  143.1416  156.8940 N   0  0  0  0  0  0  0  0  0  0  0  0
  150.9600  142.0509  156.0511 C   0  0  0  0  0  0  0  0  0  0  0  0
  151.7774  141.1223  156.6407 C   0  0  0  0  0  0  0  0  0  0  0  0
  152.1820  141.6663  157.9092 C   0  0  0  0  0  0  0  0  0  0  0  0
  154.7058  135.4635  161.7438 C   0  0  0  0  0  0  0  0  0  0  0  0
  155.4361  135.4355  160.7512 O   0  0  0  0  0  0  0  0  0  0  0  0
  154.1774  134.2464  162.3807 C   0  0  0  0  0  0  0  0  0  0  0  0
  154.5560  132.9141  161.7458 C   0  0  0  0  0  0  0  0  0  0  0  0
  150.2843  143.9542  156.6706 H   0  0  0  0  0  0  0  0  0  0  0  0
  152.1359  132.6035  163.5384 H   0  0  0  0  0  0  0  0  0  0  0  0
  152.2100  133.4692  165.0720 H   0  0  0  0  0  0  0  0  0  0  0  0
  153.5838  132.4948  164.5543 H   0  0  0  0  0  0  0  0  0  0  0  0
  153.3067  137.6828  163.8565 H   0  0  0  0  0  0  0  0  0  0  0  0
  154.8135  138.6540  162.6137 H   0  0  0  0  0  0  0  0  0  0  0  0
  155.8075  137.9022  161.4254 H   0  0  0  0  0  0  0  0  0  0  0  0
  152.9629  138.9529  161.1390 H   0  0  0  0  0  0  0  0  0  0  0  0
  153.5805  136.5914  160.3079 H   0  0  0  0  0  0  0  0  0  0  0  0
  154.9173  140.3248  160.3427 H   0  0  0  0  0  0  0  0  0  0  0  0
  155.3368  139.0065  159.2509 H   0  0  0  0  0  0  0  0  0  0  0  0
  153.8290  141.6842  160.9327 H   0  0  0  0  0  0  0  0  0  0  0  0
  152.7550  143.8789  161.1032 H   0  0  0  0  0  0  0  0  0  0  0  0
  151.3006  144.7168  159.2632 H   0  0  0  0  0  0  0  0  0  0  0  0
  150.4520  142.0245  155.0982 H   0  0  0  0  0  0  0  0  0  0  0  0
  152.0694  140.1624  156.2410 H   0  0  0  0  0  0  0  0  0  0  0  0
  155.6400  132.7962  161.7363 H   0  0  0  0  0  0  0  0  0  0  0  0
  154.2026  132.8763  160.7147 H   0  0  0  0  0  0  0  0  0  0  0  0
  154.1371  132.0550  162.2667 H   0  0  0  0  0  0  0  0  0  0  0  0
  1  2  1  0  0  0  0
  1 25  1  0  0  0  0
  1 26  1  0  0  0  0
  1 27  1  0  0  0  0
  2 22  2  0  0  0  0
  2  3  1  0  0  0  0
  3  4  2  0  0  0  0
  4  5  1  0  0  0  0
  4 28  1  0  0  0  0
  5  6  1  0  0  0  0
  5 20  1  0  0  0  0
  6  7  1  0  0  0  0
  6 29  1  0  0  0  0
  6 30  1  0  0  0  0
  7  8  1  0  0  0  0
  7  9  1  0  0  0  0
  7 31  1  0  0  0  0
  8 32  1  0  0  0  0
  9 10  1  0  0  0  0
  9 33  1  0  0  0  0
  9 34  1  0  0  0  0
 10 11  1  0  0  0  0
 11 19  1  0  0  0  0
 11 12  2  0  0  0  0
 12 13  1  0  0  0  0
 12 35  1  0  0  0  0
 13 14  2  0  0  0  0
 13 36  1  0  0  0  0
 14 15  1  0  0  0  0
 14 37  1  0  0  0  0
 15 19  2  0  0  0  0
 15 16  1  0  0  0  0
 16 24  1  0  0  0  0
 16 17  1  0  0  0  0
 17 18  2  0  0  0  0
 17 38  1  0  0  0  0
 18 19  1  0  0  0  0
 18 39  1  0  0  0  0
 20 21  2  0  0  0  0
 20 22  1  0  0  0  0
 22 23  1  0  0  0  0
 23 40  1  0  0  0  0
 23 41  1  0  0  0  0
 23 42  1  0  0  0  0
M  END
> <s_m_source_file>
AV-unprocessed.smi

> <i_m_source_file_index>
2256

> <i_lp_mmshare_version>
43012

> <i_f3d_flags>
0

> <s_epik_input>
W0NIM11jMW5bY0hdbihjKD1PKWMxW0NIM10pW0NIMl1bQ0BIXShbT0hdKVtDSDJdT2MoW2NIXVtjSF1bY0hdMiljKGMyMylbY0hdW2NIXVtuSF0z

> <s_epik_cmdline>
J2VwaWtfcHl0aG9uJywgJy1waCcsICc3LjAnLCAnLXRuJywgJzgnLCAnLW1hJywgJzIwMCcsICctbWV0YWxfYmluZGluZycsICctaW1hZScsICc8aW5maWxlLm1hZT4nLCAnLW9tYWUnLCAnPG91dGZpbGUubWFlPic=

> <r_lp_tautomer_probability>
1

> <r_epik_Ionization_Penalty>
4.18314e-05

> <r_epik_Ionization_Penalty_Charging>
1.04093e-07

> <r_epik_Ionization_Penalty_Neutral>
4.17273e-05

> <r_epik_State_Penalty>
-0

> <r_epik_Charging_Adjusted_Penalty>
1.04093e-07

> <i_epik_Tot_Q>
0

> <i_epik_Tot_abs_Q>
0

> <r_epik_Metal_State_Penalty>
-0

> <b_epik_Metal_Only>
0

> <s_lp_Force_Field>
OPLS_2005

> <r_lp_Energy>
26.398

> <b_lp_Chiralities_Consistent>
1

> <s_lp_Variant>
AV-unprocessed.smi:2256-1

> <Gold.Version>
5.8.1

> <Gold.Id.Protein>
6NUR|6NUR_protein|mol2

> <Gold.PLP.Fitness>
47.8173

> <Gold.PLP.PLP>
-43.5781

> <Gold.PLP.part.hbond>
-2.0000

> <Gold.PLP.part.metal>
0.0000

> <Gold.PLP.part.buried>
-6.1637

> <Gold.PLP.part.nonpolar>
-34.5119

> <Gold.PLP.part.repulsive>
0.1136

> <Gold.PLP.ligand.clash>
0.0000

> <Gold.PLP.ligand.torsion>
0.9308

> <Gold.PLP.Chemscore.Hbond>
1.9913

> <Gold.PLP.Chemscore.CHOScore>
0.0000

> <Gold.PLP.Chemscore.Metal>
0.0000

> <Gold.Chemscore.Hbonds>
donor molecule, donor type, donor heavy atom, donor atom, acceptor molecule, acceptor atom, score
      L1  H    16    24       P1  8028  0.99
      P1  H  7997  8010       L1    10  1.00

> <Gold.PLP.Chemscore.Internal.Correction>
0.1270

> <Gold.Rescore>
     Score         DG    S(hbond)    S(metal)    S(lipo)     H(rot)  DE(clash)    DE(int)     intcor
     14.09     -17.15       1.04        0.00     126.37       2.58       0.13       2.92       ----

> <Gold.Chemscore.Fitness>
14.0942

> <Gold.Chemscore.DG>
-17.1484

> <Gold.Chemscore.ZeroCoef>
-5.4800

> <Gold.Chemscore.Hbond>
1.0445

> <Gold.Chemscore.Metal>
0.0000

> <Gold.Chemscore.Lipo>
126.3727

> <Gold.Chemscore.Internal_Hbond>
0.0000

> <Gold.Chemscore.DEClash>
0.1332

> <Gold.Chemscore.DEInternal>
2.9210

> <Gold.Chemscore.Rot>
2.5804

> <Gold.Chemscore.Internal.Correction>
   9.000000E+99

> <Gold.Chemscore.Hbonds>
donor molecule, donor type, donor heavy atom, donor atom, acceptor molecule, acceptor atom, score
      L1  H    16    24       P1  8028  0.94
      P1  H  7997  8010       L1    10  0.22

> <Gold.Chemscore.Hbond.Weighted>
-3.4888

> <Gold.Chemscore.Metal.Weighted>
-0.0000

> <Gold.Chemscore.Lipo.Weighted>
-14.7856

> <Gold.Chemscore.Internal_Hbond.Weighted>
0.0000

> <Gold.Chemscore.DEClash.Weighted>
0.1332

> <Gold.Chemscore.DEInternal.Weighted>
2.9210

> <Gold.Chemscore.Rot.Weighted>
6.6059

> <Gold.Chemscore.Internal.Correction.Weighted>
   9.000000E+99

> <Gold.Protein.RotatedTorsions>
[ 6907 6896 6895 6894 ] final  -26.68 input  -60.11 | X-H torsion
[ 7974 7965 7964 7962 ] final  -51.38 input  175.53 | X-H torsion
[ 8008 7997 7996 7995 ] final   28.57 input   59.86 | X-H torsion
[ 10167 10162 10161 10158 ] final  179.20 input  -65.29 | X-H torsion
[ 10718 10713 10712 10709 ] final -134.07 input   66.30 | X-H torsion
[ 10763 10752 10751 10750 ] final  127.87 input  -60.55 | X-H torsion
[ 11005 11000 10999 10996 ] final -103.35 input  -57.11 | X-H torsion

> <Gold.Protein.ActiveResidues>
 VAL166  LYS551  ARG553  GLY616  TRP617  ASP618  TYR619  PRO620  LYS621  CYS622 
 ASP623  PHE694  ASN695  SER759  ASP760  ASP761  ALA762  ILE779  LEU786  VAL792 
 PHE793  MET794  SER795  GLU796  ALA797  LYS798  CYS799  TRP800  GLU811  SER814 

> <Gold.Protein.RotatedAtoms>
  151.1575  135.0257  159.8695 H   0  0  0  0  0  0  0  0  0  0  0  0  # atno 6907 bound_to 6896
  152.5452  134.1317  159.8452 H   0  0  0  0  0  0  0  0  0  0  0  0  # atno 6908 bound_to 6896
  151.1409  133.4926  159.2629 H   0  0  0  0  0  0  0  0  0  0  0  0  # atno 6909 bound_to 6896
  145.9196  140.7845  142.9654 H   0  0  0  0  0  0  0  0  0  0  0  0  # atno 7974 bound_to 7965
  155.0607  140.3190  155.4661 H   0  0  0  0  0  0  0  0  0  0  0  0  # atno 8008 bound_to 7997
  156.2813  140.2129  156.5678 H   0  0  0  0  0  0  0  0  0  0  0  0  # atno 8009 bound_to 7997
  154.7134  140.0496  157.0559 H   0  0  0  0  0  0  0  0  0  0  0  0  # atno 8010 bound_to 7997
  139.5326  144.2589  152.0723 H   0  0  0  0  0  0  0  0  0  0  0  0  # atno 10167 bound_to 10162
  156.2516  130.7156  151.1058 H   0  0  0  0  0  0  0  0  0  0  0  0  # atno 10718 bound_to 10713
  153.7164  135.3260  155.3257 H   0  0  0  0  0  0  0  0  0  0  0  0  # atno 10763 bound_to 10752
  154.8369  135.4489  154.1262 H   0  0  0  0  0  0  0  0  0  0  0  0  # atno 10764 bound_to 10752
  153.2370  135.6966  153.7905 H   0  0  0  0  0  0  0  0  0  0  0  0  # atno 10765 bound_to 10752
  141.1149  133.8633  157.1475 H   0  0  0  0  0  0  0  0  0  0  0  0  # atno 11005 bound_to 11000
  144.6751  140.1954  143.7392 LP  0  0  0  0  0  0  0  0  0  0  0  0  # atno 17320 bound_to 7965
  145.8567  139.2202  143.1740 LP  0  0  0  0  0  0  0  0  0  0  0  0  # atno 17321 bound_to 7965
  140.2054  144.4616  150.6411 LP  0  0  0  0  0  0  0  0  0  0  0  0  # atno 17342 bound_to 10162
  140.6514  143.2226  151.6068 LP  0  0  0  0  0  0  0  0  0  0  0  0  # atno 17343 bound_to 10162
  157.7216  131.0677  150.6109 LP  0  0  0  0  0  0  0  0  0  0  0  0  # atno 17370 bound_to 10713
  156.6189  130.4400  149.5830 LP  0  0  0  0  0  0  0  0  0  0  0  0  # atno 17371 bound_to 10713
  140.0066  135.0006  157.0305 LP  0  0  0  0  0  0  0  0  0  0  0  0  # atno 17394 bound_to 11000
  140.4672  134.1423  155.7198 LP  0  0  0  0  0  0  0  0  0  0  0  0  # atno 17395 bound_to 11000

$$$$
