AV-unprocessed.smi:1885|AV-procd|sdf|7651|dock2
  -GOLD-   22720 9383D 1   1.00000     0.00000
 Structure written by MMmdl.
 43 45  0  0  0  0  0  0  0  0  1 V2000
  145.8392  132.0785  162.2058 C   0  0  0  0  0  0  0  0  0  0  0  0
  146.4658  133.1560  162.8861 O   0  0  0  0  0  0  0  0  0  0  0  0
  147.2188  134.0405  162.1439 C   0  0  0  0  0  0  0  0  0  0  0  0
  147.5525  133.8523  160.7787 C   0  0  0  0  0  0  0  0  0  0  0  0
  148.3339  134.8056  160.0973 C   0  0  0  0  0  0  0  0  0  0  0  0
  148.7980  135.9552  160.7678 C   0  0  0  0  0  0  0  0  0  0  0  0
  149.6504  136.9751  160.0396 C   0  0  0  0  0  0  0  0  0  0  0  0
  150.1979  136.4334  158.8492 O   0  0  0  0  0  0  0  0  0  0  0  0
  151.1800  137.2671  158.2563 C   0  0  0  0  0  0  0  0  0  0  0  0
  152.2918  137.5778  159.2769 C   0  0  1  0  0  0  0  0  0  0  0  0
  153.1610  136.4695  159.3751 O   0  0  0  0  0  0  0  0  0  0  0  0
  153.1049  138.8619  159.0021 C   0  0  0  0  0  0  0  0  0  0  0  0
  152.2675  140.0113  158.7040 N   0  0  0  0  0  0  0  0  0  0  0  0
  151.4878  140.1860  157.6195 C   0  0  0  0  0  0  0  0  0  0  0  0
  150.8089  141.3264  157.5346 N   0  0  0  0  0  0  0  0  0  0  0  0
  151.1824  141.9627  158.7061 C   0  0  0  0  0  0  0  0  0  0  0  0
  150.8121  143.2254  159.2216 C   0  0  0  0  0  0  0  0  0  0  0  0
  151.3232  143.6716  160.4582 C   0  0  0  0  0  0  0  0  0  0  0  0
  150.9584  144.8846  160.9372 F   0  0  0  0  0  0  0  0  0  0  0  0
  152.2102  142.8621  161.1980 C   0  0  0  0  0  0  0  0  0  0  0  0
  152.6949  143.2972  162.3852 F   0  0  0  0  0  0  0  0  0  0  0  0
  152.5970  141.6025  160.7025 C   0  0  0  0  0  0  0  0  0  0  0  0
  152.0872  141.1619  159.4664 C   0  0  0  0  0  0  0  0  0  0  0  0
  148.4599  136.1531  162.1213 C   0  0  0  0  0  0  0  0  0  0  0  0
  147.6778  135.2003  162.8013 C   0  0  0  0  0  0  0  0  0  0  0  0
  145.3003  131.4633  162.9263 H   0  0  0  0  0  0  0  0  0  0  0  0
  146.5723  131.4403  161.7099 H   0  0  0  0  0  0  0  0  0  0  0  0
  145.1158  132.4368  161.4723 H   0  0  0  0  0  0  0  0  0  0  0  0
  147.2237  132.9820  160.2312 H   0  0  0  0  0  0  0  0  0  0  0  0
  148.5833  134.6433  159.0589 H   0  0  0  0  0  0  0  0  0  0  0  0
  149.0396  137.8483  159.8041 H   0  0  0  0  0  0  0  0  0  0  0  0
  150.4528  137.3063  160.6999 H   0  0  0  0  0  0  0  0  0  0  0  0
  151.6212  136.7459  157.4050 H   0  0  0  0  0  0  0  0  0  0  0  0
  150.7305  138.1827  157.8683 H   0  0  0  0  0  0  0  0  0  0  0  0
  151.8189  137.6754  160.2549 H   0  0  0  0  0  0  0  0  0  0  0  0
  153.5775  136.3423  158.5361 H   0  0  0  0  0  0  0  0  0  0  0  0
  153.7338  139.1041  159.8596 H   0  0  0  0  0  0  0  0  0  0  0  0
  153.7796  138.7031  158.1602 H   0  0  0  0  0  0  0  0  0  0  0  0
  151.4235  139.4369  156.8436 H   0  0  0  0  0  0  0  0  0  0  0  0
  150.1320  143.8530  158.6652 H   0  0  0  0  0  0  0  0  0  0  0  0
  153.2843  140.9878  161.2641 H   0  0  0  0  0  0  0  0  0  0  0  0
  148.8052  137.0333  162.6436 H   0  0  0  0  0  0  0  0  0  0  0  0
  147.4304  135.3595  163.8406 H   0  0  0  0  0  0  0  0  0  0  0  0
  1  2  1  0  0  0  0
  1 26  1  0  0  0  0
  1 27  1  0  0  0  0
  1 28  1  0  0  0  0
  2  3  1  0  0  0  0
  3 25  1  0  0  0  0
  3  4  2  0  0  0  0
  4  5  1  0  0  0  0
  4 29  1  0  0  0  0
  5  6  2  0  0  0  0
  5 30  1  0  0  0  0
  6  7  1  0  0  0  0
  6 24  1  0  0  0  0
  7  8  1  0  0  0  0
  7 31  1  0  0  0  0
  7 32  1  0  0  0  0
  8  9  1  0  0  0  0
  9 10  1  0  0  0  0
  9 33  1  0  0  0  0
  9 34  1  0  0  0  0
 10 11  1  0  0  0  0
 10 12  1  0  0  0  0
 10 35  1  0  0  0  0
 11 36  1  0  0  0  0
 12 13  1  0  0  0  0
 12 37  1  0  0  0  0
 12 38  1  0  0  0  0
 13 23  1  0  0  0  0
 13 14  1  0  0  0  0
 14 15  2  0  0  0  0
 14 39  1  0  0  0  0
 15 16  1  0  0  0  0
 16 23  2  0  0  0  0
 16 17  1  0  0  0  0
 17 18  2  0  0  0  0
 17 40  1  0  0  0  0
 18 19  1  0  0  0  0
 18 20  1  0  0  0  0
 20 21  1  0  0  0  0
 20 22  2  0  0  0  0
 22 23  1  0  0  0  0
 22 41  1  0  0  0  0
 24 25  2  0  0  0  0
 24 42  1  0  0  0  0
 25 43  1  0  0  0  0
M  END
> <s_m_source_file>
AV-unprocessed.smi

> <i_m_source_file_index>
1885

> <i_lp_mmshare_version>
43012

> <i_f3d_flags>
0

> <s_epik_input>
W0NIM11PYzFbY0hdW2NIXWMoW2NIXVtjSF0xKVtDSDJdT1tDSDJdW0NASF0oW09IXSlbQ0gyXW4oW2NIXW4yKWMoYzIzKVtjSF1jKEYpYyhGKVtjSF0z

> <s_epik_cmdline>
J2VwaWtfcHl0aG9uJywgJy1waCcsICc3LjAnLCAnLXRuJywgJzgnLCAnLW1hJywgJzIwMCcsICctbWV0YWxfYmluZGluZycsICctaW1hZScsICc8aW5maWxlLm1hZT4nLCAnLW9tYWUnLCAnPG91dGZpbGUubWFlPic=

> <r_lp_tautomer_probability>
1

> <r_epik_Ionization_Penalty>
0.0160256

> <r_epik_Ionization_Penalty_Charging>
0

> <r_epik_Ionization_Penalty_Neutral>
0.0160256

> <r_epik_State_Penalty>
0.0126263

> <r_epik_Charging_Adjusted_Penalty>
0.0126263

> <i_epik_Tot_Q>
0

> <i_epik_Tot_abs_Q>
0

> <r_epik_Metal_State_Penalty>
1.27616e-05

> <b_epik_Metal_Only>
0

> <s_lp_Force_Field>
OPLS_2005

> <r_lp_Energy>
16.1037

> <b_lp_Chiralities_Consistent>
1

> <s_lp_Variant>
AV-unprocessed.smi:1885-2

> <Gold.Version>
5.8.1

> <Gold.Id.Protein>
6NUR|6NUR_protein|mol2

> <Gold.PLP.Fitness>
55.5071

> <Gold.PLP.PLP>
-51.2274

> <Gold.PLP.part.hbond>
-2.6940

> <Gold.PLP.part.metal>
0.0000

> <Gold.PLP.part.buried>
-3.0226

> <Gold.PLP.part.nonpolar>
-45.2214

> <Gold.PLP.part.repulsive>
0.0643

> <Gold.PLP.ligand.clash>
0.0000

> <Gold.PLP.ligand.torsion>
0.6329

> <Gold.PLP.Chemscore.Hbond>
1.7504

> <Gold.PLP.Chemscore.CHOScore>
0.0000

> <Gold.PLP.Chemscore.Metal>
0.0000

> <Gold.Chemscore.Hbonds>
donor molecule, donor type, donor heavy atom, donor atom, acceptor molecule, acceptor atom, score
      P1  H  6896  6908       L1     8  0.80
      P1  H  6896  6909       L1    11  0.82

> <Gold.PLP.Chemscore.Internal.Correction>
0.2943

> <Gold.Rescore>
     Score         DG    S(hbond)    S(metal)    S(lipo)     H(rot)  DE(clash)    DE(int)     intcor
     13.73     -15.68       1.05        0.00     121.33       2.93       1.38       0.56       ----

> <Gold.Chemscore.Fitness>
13.7319

> <Gold.Chemscore.DG>
-15.6754

> <Gold.Chemscore.ZeroCoef>
-5.4800

> <Gold.Chemscore.Hbond>
1.0508

> <Gold.Chemscore.Metal>
0.0000

> <Gold.Chemscore.Lipo>
121.3291

> <Gold.Chemscore.Internal_Hbond>
0.0000

> <Gold.Chemscore.DEClash>
1.3837

> <Gold.Chemscore.DEInternal>
0.5598

> <Gold.Chemscore.Rot>
2.9335

> <Gold.Chemscore.Internal.Correction>
   9.000000E+99

> <Gold.Chemscore.Hbonds>
donor molecule, donor type, donor heavy atom, donor atom, acceptor molecule, acceptor atom, score
      P1  H  6896  6908       L1     8  0.13
      P1  H  6896  6909       L1    11  0.53

> <Gold.Chemscore.Hbond.Weighted>
-3.5096

> <Gold.Chemscore.Metal.Weighted>
-0.0000

> <Gold.Chemscore.Lipo.Weighted>
-14.1955

> <Gold.Chemscore.Internal_Hbond.Weighted>
0.0000

> <Gold.Chemscore.DEClash.Weighted>
1.3837

> <Gold.Chemscore.DEInternal.Weighted>
0.5598

> <Gold.Chemscore.Rot.Weighted>
7.5097

> <Gold.Chemscore.Internal.Correction.Weighted>
   9.000000E+99

> <Gold.Protein.RotatedTorsions>
[ 6907 6896 6895 6894 ] final  178.37 input  -60.11 | X-H torsion
[ 7974 7965 7964 7962 ] final -176.60 input  175.53 | X-H torsion
[ 8008 7997 7996 7995 ] final  -32.82 input   59.86 | X-H torsion
[ 10167 10162 10161 10158 ] final -148.51 input  -65.29 | X-H torsion
[ 10718 10713 10712 10709 ] final  144.51 input   66.30 | X-H torsion
[ 10763 10752 10751 10750 ] final  178.21 input  -60.55 | X-H torsion
[ 11005 11000 10999 10996 ] final -106.80 input  -57.11 | X-H torsion

> <Gold.Protein.ActiveResidues>
 VAL166  LYS551  ARG553  GLY616  TRP617  ASP618  TYR619  PRO620  LYS621  CYS622 
 ASP623  PHE694  ASN695  SER759  ASP760  ASP761  ALA762  ILE779  LEU786  VAL792 
 PHE793  MET794  SER795  GLU796  ALA797  LYS798  CYS799  TRP800  GLU811  SER814 

> <Gold.Protein.RotatedAtoms>
  151.6889  133.3311  159.3237 H   0  0  0  0  0  0  0  0  0  0  0  0  # atno 6907 bound_to 6896
  150.7788  134.6716  159.6404 H   0  0  0  0  0  0  0  0  0  0  0  0  # atno 6908 bound_to 6896
  152.3839  134.6551  160.0185 H   0  0  0  0  0  0  0  0  0  0  0  0  # atno 6909 bound_to 6896
  144.7127  140.1145  143.6409 H   0  0  0  0  0  0  0  0  0  0  0  0  # atno 7974 bound_to 7965
  154.4168  140.1727  156.1788 H   0  0  0  0  0  0  0  0  0  0  0  0  # atno 8008 bound_to 7997
  155.9699  140.3386  155.6542 H   0  0  0  0  0  0  0  0  0  0  0  0  # atno 8009 bound_to 7997
  155.6639  140.0704  157.2535 H   0  0  0  0  0  0  0  0  0  0  0  0  # atno 8010 bound_to 7997
  139.7525  143.8496  152.2590 H   0  0  0  0  0  0  0  0  0  0  0  0  # atno 10167 bound_to 10162
  157.3563  131.0958  151.0955 H   0  0  0  0  0  0  0  0  0  0  0  0  # atno 10718 bound_to 10713
  154.5046  135.2785  155.1392 H   0  0  0  0  0  0  0  0  0  0  0  0  # atno 10763 bound_to 10752
  154.3012  135.6247  153.5429 H   0  0  0  0  0  0  0  0  0  0  0  0  # atno 10764 bound_to 10752
  152.9908  135.5697  154.5497 H   0  0  0  0  0  0  0  0  0  0  0  0  # atno 10765 bound_to 10752
  141.0986  133.8925  157.1899 H   0  0  0  0  0  0  0  0  0  0  0  0  # atno 11005 bound_to 11000
  145.9425  139.2678  143.1260 LP  0  0  0  0  0  0  0  0  0  0  0  0  # atno 17320 bound_to 7965
  145.9409  140.8980  143.0308 LP  0  0  0  0  0  0  0  0  0  0  0  0  # atno 17321 bound_to 7965
  139.8479  144.7179  150.9250 LP  0  0  0  0  0  0  0  0  0  0  0  0  # atno 17342 bound_to 10162
  140.7799  143.3925  151.1285 LP  0  0  0  0  0  0  0  0  0  0  0  0  # atno 17343 bound_to 10162
  157.2111  130.6438  149.5774 LP  0  0  0  0  0  0  0  0  0  0  0  0  # atno 17370 bound_to 10713
  155.9730  130.4659  150.6272 LP  0  0  0  0  0  0  0  0  0  0  0  0  # atno 17371 bound_to 10713
  139.9831  135.0091  156.9797 LP  0  0  0  0  0  0  0  0  0  0  0  0  # atno 17394 bound_to 11000
  140.5077  134.1033  155.7263 LP  0  0  0  0  0  0  0  0  0  0  0  0  # atno 17395 bound_to 11000

$$$$
