AV-unprocessed.smi:1954|AV-procd|sdf|7897|dock4
  -GOLD-   2272010 53D 1   1.00000     0.00000
 Structure written by MMmdl.
 45 47  0  0  0  0  0  0  0  0  2 V2000
  151.5218  140.8556  157.1389 O   0  0  0  0  0  0  0  0  0  0  0  0
  150.8846  141.8983  157.2864 C   0  0  0  0  0  0  0  0  0  0  0  0
  150.0516  142.3902  156.3582 N   0  0  0  0  0  0  0  0  0  0  0  0
  149.7716  141.7933  155.0522 C   0  0  0  0  0  0  0  0  0  0  0  0
  148.7137  140.6459  155.1096 C   0  0  2  0  0  0  0  0  0  0  0  0
  149.4452  139.3321  155.2411 N   0  3  0  0  0  0  0  0  0  0  0  0
  148.5638  138.1407  155.3954 C   0  0  0  0  0  0  0  0  0  0  0  0
  149.3903  136.8969  155.7549 C   0  0  0  0  0  0  0  0  0  0  0  0
  150.3506  136.6673  154.7341 O   0  0  0  0  0  0  0  0  0  0  0  0
  151.2661  137.7478  154.6260 C   0  0  0  0  0  0  0  0  0  0  0  0
  150.5223  139.0436  154.2555 C   0  0  0  0  0  0  0  0  0  0  0  0
  147.7849  140.7270  153.8644 C   0  0  0  0  0  0  0  0  0  0  0  0
  146.8878  141.9594  154.0088 C   0  0  0  0  0  0  0  0  0  0  0  0
  146.5150  142.1361  155.7697 S   0  0  0  0  0  0  0  0  0  0  0  0
  147.7325  140.8912  156.2804 C   0  0  0  0  0  0  0  0  0  0  0  0
  150.9219  142.6880  158.3737 N   0  0  0  0  0  0  0  0  0  0  0  0
  151.6849  142.5281  159.5614 C   0  0  0  0  0  0  0  0  0  0  0  0
  152.7715  141.6165  159.6128 C   0  0  0  0  0  0  0  0  0  0  0  0
  153.5238  141.5058  160.7984 C   0  0  0  0  0  0  0  0  0  0  0  0
  153.1837  142.3140  161.8971 C   0  0  0  0  0  0  0  0  0  0  0  0
  152.1037  143.2037  161.7554 C   0  0  0  0  0  0  0  0  0  0  0  0
  151.3805  143.3128  160.6206 N   0  0  0  0  0  0  0  0  0  0  0  0
  149.5629  143.2474  156.5734 H   0  0  0  0  0  0  0  0  0  0  0  0
  149.4749  142.5698  154.3469 H   0  0  0  0  0  0  0  0  0  0  0  0
  150.7220  141.4288  154.6642 H   0  0  0  0  0  0  0  0  0  0  0  0
  147.8185  138.3061  156.1719 H   0  0  0  0  0  0  0  0  0  0  0  0
  148.0223  137.9472  154.4688 H   0  0  0  0  0  0  0  0  0  0  0  0
  149.8815  137.0138  156.7222 H   0  0  0  0  0  0  0  0  0  0  0  0
  148.7410  136.0244  155.8304 H   0  0  0  0  0  0  0  0  0  0  0  0
  151.8100  137.8704  155.5644 H   0  0  0  0  0  0  0  0  0  0  0  0
  152.0052  137.5086  153.8612 H   0  0  0  0  0  0  0  0  0  0  0  0
  150.0980  138.9663  153.2535 H   0  0  0  0  0  0  0  0  0  0  0  0
  151.2649  139.8404  154.2441 H   0  0  0  0  0  0  0  0  0  0  0  0
  148.3310  140.7322  152.9207 H   0  0  0  0  0  0  0  0  0  0  0  0
  147.1044  139.8766  153.8310 H   0  0  0  0  0  0  0  0  0  0  0  0
  147.4024  142.8567  153.6653 H   0  0  0  0  0  0  0  0  0  0  0  0
  145.9709  141.8656  153.4265 H   0  0  0  0  0  0  0  0  0  0  0  0
  147.1753  139.9813  156.5064 H   0  0  0  0  0  0  0  0  0  0  0  0
  148.2340  141.2052  157.1963 H   0  0  0  0  0  0  0  0  0  0  0  0
  150.2628  143.4524  158.3896 H   0  0  0  0  0  0  0  0  0  0  0  0
  153.0504  141.0114  158.7639 H   0  0  0  0  0  0  0  0  0  0  0  0
  154.3526  140.8164  160.8602 H   0  0  0  0  0  0  0  0  0  0  0  0
  153.7391  142.2578  162.8216 H   0  0  0  0  0  0  0  0  0  0  0  0
  151.8144  143.8477  162.5727 H   0  0  0  0  0  0  0  0  0  0  0  0
  149.9341  139.4126  156.1216 H   0  0  0  0  0  0  0  0  0  0  0  0
  1  2  2  0  0  0  0
  2  3  1  0  0  0  0
  2 16  1  0  0  0  0
  3  4  1  0  0  0  0
  3 23  1  0  0  0  0
  4  5  1  0  0  0  0
  4 24  1  0  0  0  0
  4 25  1  0  0  0  0
  5 15  1  0  0  0  0
  5  6  1  0  0  0  0
  5 12  1  0  0  0  0
  6 11  1  0  0  0  0
  6  7  1  0  0  0  0
  6 45  1  0  0  0  0
  7  8  1  0  0  0  0
  7 26  1  0  0  0  0
  7 27  1  0  0  0  0
  8  9  1  0  0  0  0
  8 28  1  0  0  0  0
  8 29  1  0  0  0  0
  9 10  1  0  0  0  0
 10 11  1  0  0  0  0
 10 30  1  0  0  0  0
 10 31  1  0  0  0  0
 11 32  1  0  0  0  0
 11 33  1  0  0  0  0
 12 13  1  0  0  0  0
 12 34  1  0  0  0  0
 12 35  1  0  0  0  0
 13 14  1  0  0  0  0
 13 36  1  0  0  0  0
 13 37  1  0  0  0  0
 14 15  1  0  0  0  0
 15 38  1  0  0  0  0
 15 39  1  0  0  0  0
 16 17  1  0  0  0  0
 16 40  1  0  0  0  0
 17 22  1  0  0  0  0
 17 18  2  0  0  0  0
 18 19  1  0  0  0  0
 18 41  1  0  0  0  0
 19 20  2  0  0  0  0
 19 42  1  0  0  0  0
 20 21  1  0  0  0  0
 20 43  1  0  0  0  0
 21 22  2  0  0  0  0
 21 44  1  0  0  0  0
M  CHG  1   6   1
M  END
> <s_m_source_file>
AV-unprocessed.smi

> <i_m_source_file_index>
1954

> <i_lp_mmshare_version>
43012

> <i_f3d_flags>
0

> <s_epik_input>
bjFbY0hdW2NIXVtjSF1bY0hdYzFbTkhdQyg9TylbTkhdW0NIMl1bQ0BdMihbQ0gyXVtDSDJdU1tDSDJdMilOM1tDSDJdW0NIMl1PW0NIMl1bQ0gyXTM=

> <s_epik_cmdline>
J2VwaWtfcHl0aG9uJywgJy1waCcsICc3LjAnLCAnLXRuJywgJzgnLCAnLW1hJywgJzIwMCcsICctbWV0YWxfYmluZGluZycsICctaW1hZScsICc8aW5maWxlLm1hZT4nLCAnLW9tYWUnLCAnPG91dGZpbGUubWFlPic=

> <r_epik_Ionization_Penalty>
2.03222

> <r_epik_Ionization_Penalty_Charging>
2.03219

> <r_epik_Ionization_Penalty_Neutral>
3.25833e-05

> <r_epik_State_Penalty>
2.16328

> <r_epik_Charging_Adjusted_Penalty>
4.19546

> <i_epik_Tot_Q>
1

> <i_epik_Tot_abs_Q>
1

> <r_epik_Metal_State_Penalty>
2.16328

> <b_epik_Metal_Only>
0

> <s_lp_Force_Field>
OPLS_2005

> <r_lp_Energy>
46.5202

> <b_lp_Chiralities_Consistent>
1

> <s_lp_Variant>
AV-unprocessed.smi:1954-4

> <Gold.Version>
5.8.1

> <Gold.Id.Protein>
6NUR|6NUR_protein|mol2

> <Gold.PLP.Fitness>
41.6273

> <Gold.PLP.PLP>
-40.8988

> <Gold.PLP.part.hbond>
-1.2903

> <Gold.PLP.part.metal>
0.0000

> <Gold.PLP.part.buried>
-5.6070

> <Gold.PLP.part.nonpolar>
-33.8694

> <Gold.PLP.part.repulsive>
0.4377

> <Gold.PLP.ligand.clash>
0.0000

> <Gold.PLP.ligand.torsion>
0.9502

> <Gold.PLP.Chemscore.Hbond>
0.8320

> <Gold.PLP.Chemscore.CHOScore>
0.0000

> <Gold.PLP.Chemscore.Metal>
0.0000

> <Gold.Chemscore.Hbonds>
donor molecule, donor type, donor heavy atom, donor atom, acceptor molecule, acceptor atom, score
      L1  H     3    23       P1  8028  0.77

> <Gold.PLP.Chemscore.Internal.Correction>
0.1328

> <Gold.Rescore>
     Score         DG    S(hbond)    S(metal)    S(lipo)     H(rot)  DE(clash)    DE(int)     intcor
     15.97     -18.39       1.95        0.00      88.40       1.54       0.12       2.30       ----

> <Gold.Chemscore.Fitness>
15.9678

> <Gold.Chemscore.DG>
-18.3888

> <Gold.Chemscore.ZeroCoef>
-5.4800

> <Gold.Chemscore.Hbond>
1.9451

> <Gold.Chemscore.Metal>
0.0000

> <Gold.Chemscore.Lipo>
88.4027

> <Gold.Chemscore.Internal_Hbond>
0.0000

> <Gold.Chemscore.DEClash>
0.1216

> <Gold.Chemscore.DEInternal>
2.2994

> <Gold.Chemscore.Rot>
1.5355

> <Gold.Chemscore.Internal.Correction>
   9.000000E+99

> <Gold.Chemscore.Hbonds>
donor molecule, donor type, donor heavy atom, donor atom, acceptor molecule, acceptor atom, score
      L1  H     3    23       P1  8028  0.78

> <Gold.Chemscore.Hbond.Weighted>
-6.4966

> <Gold.Chemscore.Metal.Weighted>
-0.0000

> <Gold.Chemscore.Lipo.Weighted>
-10.3431

> <Gold.Chemscore.Internal_Hbond.Weighted>
0.0000

> <Gold.Chemscore.DEClash.Weighted>
0.1216

> <Gold.Chemscore.DEInternal.Weighted>
2.2994

> <Gold.Chemscore.Rot.Weighted>
3.9309

> <Gold.Chemscore.Internal.Correction.Weighted>
   9.000000E+99

> <Gold.Protein.RotatedTorsions>
[ 6907 6896 6895 6894 ] final  -77.46 input  -60.11 | X-H torsion
[ 7974 7965 7964 7962 ] final  -40.53 input  175.53 | X-H torsion
[ 8008 7997 7996 7995 ] final  -72.05 input   59.86 | X-H torsion
[ 10167 10162 10161 10158 ] final   91.03 input  -65.29 | X-H torsion
[ 10718 10713 10712 10709 ] final  -98.66 input   66.30 | X-H torsion
[ 10763 10752 10751 10750 ] final  102.50 input  -60.55 | X-H torsion
[ 11005 11000 10999 10996 ] final  -87.35 input  -57.11 | X-H torsion

> <Gold.Protein.ActiveResidues>
 VAL166  LYS551  ARG553  GLY616  TRP617  ASP618  TYR619  PRO620  LYS621  CYS622 
 ASP623  PHE694  ASN695  SER759  ASP760  ASP761  ALA762  ILE779  LEU786  VAL792 
 PHE793  MET794  SER795  GLU796  ALA797  LYS798  CYS799  TRP800  GLU811  SER814 

> <Gold.Protein.RotatedAtoms>
  150.6998  134.4419  159.5295 H   0  0  0  0  0  0  0  0  0  0  0  0  # atno 6907 bound_to 6896
  152.2127  134.8484  160.0504 H   0  0  0  0  0  0  0  0  0  0  0  0  # atno 6908 bound_to 6896
  151.9363  133.3590  159.3986 H   0  0  0  0  0  0  0  0  0  0  0  0  # atno 6909 bound_to 6896
  146.0296  140.6749  142.9139 H   0  0  0  0  0  0  0  0  0  0  0  0  # atno 7974 bound_to 7965
  154.5136  140.0804  156.8037 H   0  0  0  0  0  0  0  0  0  0  0  0  # atno 8008 bound_to 7997
  155.3731  140.3424  155.4226 H   0  0  0  0  0  0  0  0  0  0  0  0  # atno 8009 bound_to 7997
  156.1601  140.1586  156.8613 H   0  0  0  0  0  0  0  0  0  0  0  0  # atno 8010 bound_to 7997
  139.8415  144.6639  150.9278 H   0  0  0  0  0  0  0  0  0  0  0  0  # atno 10167 bound_to 10162
  156.0113  130.5248  150.6555 H   0  0  0  0  0  0  0  0  0  0  0  0  # atno 10718 bound_to 10713
  153.3404  135.4008  155.1567 H   0  0  0  0  0  0  0  0  0  0  0  0  # atno 10763 bound_to 10752
  154.8642  135.3632  154.5354 H   0  0  0  0  0  0  0  0  0  0  0  0  # atno 10764 bound_to 10752
  153.5798  135.7077  153.5528 H   0  0  0  0  0  0  0  0  0  0  0  0  # atno 10765 bound_to 10752
  141.1618  133.7506  156.9293 H   0  0  0  0  0  0  0  0  0  0  0  0  # atno 11005 bound_to 11000
  144.7024  140.3711  143.7145 LP  0  0  0  0  0  0  0  0  0  0  0  0  # atno 17320 bound_to 7965
  145.7063  139.1673  143.2564 LP  0  0  0  0  0  0  0  0  0  0  0  0  # atno 17321 bound_to 7965
  140.7797  143.3909  151.1312 LP  0  0  0  0  0  0  0  0  0  0  0  0  # atno 17342 bound_to 10162
  139.7555  143.8715  152.3087 LP  0  0  0  0  0  0  0  0  0  0  0  0  # atno 17343 bound_to 10162
  157.4308  131.0849  151.1041 LP  0  0  0  0  0  0  0  0  0  0  0  0  # atno 17370 bound_to 10713
  157.1614  130.6227  149.5612 LP  0  0  0  0  0  0  0  0  0  0  0  0  # atno 17371 bound_to 10713
  140.1397  134.9302  157.2450 LP  0  0  0  0  0  0  0  0  0  0  0  0  # atno 17394 bound_to 11000
  140.2852  134.3304  155.7331 LP  0  0  0  0  0  0  0  0  0  0  0  0  # atno 17395 bound_to 11000

$$$$
