AV-unprocessed.smi:3031|AV-procd|sdf|11542|dock2
  -GOLD-   2272016493D 1   1.00000     0.00000
 Structure written by MMmdl.
 47 48  0  0  0  0  0  0  0  0  2 V2000
  144.0925  132.0095  149.7693 C   0  0  0  0  0  0  0  0  0  0  0  0
  144.7671  133.1736  150.4356 C   0  0  0  0  0  0  0  0  0  0  0  0
  146.1197  133.2710  150.8703 C   0  0  0  0  0  0  0  0  0  0  0  0
  146.4007  134.4432  151.4164 N   0  0  0  0  0  0  0  0  0  0  0  0
  145.2412  135.1321  151.3507 N   0  0  0  0  0  0  0  0  0  0  0  0
  145.1822  136.4958  151.8448 C   0  0  0  0  0  0  0  0  0  0  0  0
  145.5596  136.6117  153.3384 C   0  0  1  0  0  0  0  0  0  0  0  0
  145.5508  135.2304  154.0066 C   0  0  0  0  0  0  0  0  0  0  0  0
  146.8940  137.2310  153.5105 N   0  3  0  0  0  0  0  0  0  0  0  0
  147.0251  138.6032  152.9739 C   0  0  0  0  0  0  0  0  0  0  0  0
  148.0591  139.4165  153.7707 C   0  0  2  0  0  0  0  0  0  0  0  0
  148.2648  140.6320  153.0780 O   0  0  0  0  0  0  0  0  0  0  0  0
  149.4451  138.7522  153.9298 C   0  0  0  0  0  0  0  0  0  0  0  0
  150.4847  139.5910  154.5350 N   0  0  0  0  0  0  0  0  0  0  0  0
  149.9564  140.4966  155.5569 C   0  0  0  0  0  0  0  0  0  0  0  0
  151.0627  141.3617  156.1849 C   0  0  0  0  0  0  0  0  0  0  0  0
  152.0647  140.5202  156.7442 O   0  0  0  0  0  0  0  0  0  0  0  0
  152.6361  139.6375  155.7849 C   0  0  0  0  0  0  0  0  0  0  0  0
  151.5283  138.7764  155.1531 C   0  0  0  0  0  0  0  0  0  0  0  0
  144.2374  134.3880  150.7686 C   0  0  0  0  0  0  0  0  0  0  0  0
  144.7413  131.1345  149.7257 H   0  0  0  0  0  0  0  0  0  0  0  0
  143.8034  132.2460  148.7453 H   0  0  0  0  0  0  0  0  0  0  0  0
  143.1876  131.7116  150.2988 H   0  0  0  0  0  0  0  0  0  0  0  0
  146.9024  132.5297  150.8006 H   0  0  0  0  0  0  0  0  0  0  0  0
  145.8650  137.0948  151.2408 H   0  0  0  0  0  0  0  0  0  0  0  0
  144.1826  136.8969  151.6685 H   0  0  0  0  0  0  0  0  0  0  0  0
  144.8133  137.2220  153.8501 H   0  0  0  0  0  0  0  0  0  0  0  0
  144.5700  134.7609  153.9252 H   0  0  0  0  0  0  0  0  0  0  0  0
  145.7899  135.3057  155.0680 H   0  0  0  0  0  0  0  0  0  0  0  0
  146.2787  134.5606  153.5473 H   0  0  0  0  0  0  0  0  0  0  0  0
  147.0996  137.2776  154.4983 H   0  0  0  0  0  0  0  0  0  0  0  0
  147.3444  138.5203  151.9411 H   0  0  0  0  0  0  0  0  0  0  0  0
  146.0528  139.0979  152.9722 H   0  0  0  0  0  0  0  0  0  0  0  0
  147.6620  139.6539  154.7587 H   0  0  0  0  0  0  0  0  0  0  0  0
  148.8250  140.4638  152.3350 H   0  0  0  0  0  0  0  0  0  0  0  0
  149.3611  137.8022  154.4600 H   0  0  0  0  0  0  0  0  0  0  0  0
  149.7671  138.4838  152.9219 H   0  0  0  0  0  0  0  0  0  0  0  0
  149.1947  141.1540  155.1490 H   0  0  0  0  0  0  0  0  0  0  0  0
  149.4685  139.9193  156.3441 H   0  0  0  0  0  0  0  0  0  0  0  0
  151.5072  142.0229  155.4398 H   0  0  0  0  0  0  0  0  0  0  0  0
  150.6499  141.9944  156.9706 H   0  0  0  0  0  0  0  0  0  0  0  0
  153.1631  140.2110  155.0207 H   0  0  0  0  0  0  0  0  0  0  0  0
  153.3745  139.0047  156.2778 H   0  0  0  0  0  0  0  0  0  0  0  0
  151.0921  138.1306  155.9172 H   0  0  0  0  0  0  0  0  0  0  0  0
  151.9755  138.1183  154.4072 H   0  0  0  0  0  0  0  0  0  0  0  0
  143.2414  134.7832  150.6325 H   0  0  0  0  0  0  0  0  0  0  0  0
  147.5816  136.6369  153.0695 H   0  0  0  0  0  0  0  0  0  0  0  0
  1  2  1  0  0  0  0
  1 21  1  0  0  0  0
  1 22  1  0  0  0  0
  1 23  1  0  0  0  0
  2 20  2  0  0  0  0
  2  3  1  0  0  0  0
  3  4  2  0  0  0  0
  3 24  1  0  0  0  0
  4  5  1  0  0  0  0
  5  6  1  0  0  0  0
  5 20  1  0  0  0  0
  6  7  1  0  0  0  0
  6 25  1  0  0  0  0
  6 26  1  0  0  0  0
  7  8  1  0  0  0  0
  7  9  1  0  0  0  0
  7 27  1  0  0  0  0
  8 28  1  0  0  0  0
  8 29  1  0  0  0  0
  8 30  1  0  0  0  0
  9 10  1  0  0  0  0
  9 31  1  0  0  0  0
  9 47  1  0  0  0  0
 10 11  1  0  0  0  0
 10 32  1  0  0  0  0
 10 33  1  0  0  0  0
 11 12  1  0  0  0  0
 11 13  1  0  0  0  0
 11 34  1  0  0  0  0
 12 35  1  0  0  0  0
 13 14  1  0  0  0  0
 13 36  1  0  0  0  0
 13 37  1  0  0  0  0
 14 19  1  0  0  0  0
 14 15  1  0  0  0  0
 15 16  1  0  0  0  0
 15 38  1  0  0  0  0
 15 39  1  0  0  0  0
 16 17  1  0  0  0  0
 16 40  1  0  0  0  0
 16 41  1  0  0  0  0
 17 18  1  0  0  0  0
 18 19  1  0  0  0  0
 18 42  1  0  0  0  0
 18 43  1  0  0  0  0
 19 44  1  0  0  0  0
 19 45  1  0  0  0  0
 20 46  1  0  0  0  0
M  CHG  1   9   1
M  END
> <s_m_source_file>
AV-unprocessed.smi

> <i_m_source_file_index>
3031

> <i_lp_mmshare_version>
43012

> <i_f3d_flags>
0

> <s_epik_input>
W0NIM11jMVtjSF1ubihbY0hdMSlbQ0gyXVtDQEhdKFtDSDNdKVtOSF1bQ0gyXVtDQEhdKFtPSF0pW0NIMl1OMltDSDJdW0NIMl1PW0NIMl1bQ0gyXTI=

> <s_epik_cmdline>
J2VwaWtfcHl0aG9uJywgJy1waCcsICc3LjAnLCAnLXRuJywgJzgnLCAnLW1hJywgJzIwMCcsICctbWV0YWxfYmluZGluZycsICctaW1hZScsICc8aW5maWxlLm1hZT4nLCAnLW9tYWUnLCAnPG91dGZpbGUubWFlPic=

> <r_lp_tautomer_probability>
1

> <r_epik_Ionization_Penalty>
0.108564

> <r_epik_Ionization_Penalty_Charging>
0.01811

> <r_epik_Ionization_Penalty_Neutral>
0.0904541

> <r_epik_State_Penalty>
0.141043

> <r_epik_Charging_Adjusted_Penalty>
0.159153

> <i_epik_Tot_Q>
1

> <i_epik_Tot_abs_Q>
1

> <r_epik_Metal_State_Penalty>
0.141052

> <b_epik_Metal_Only>
0

> <s_lp_Force_Field>
OPLS_2005

> <r_lp_Energy>
29.6303

> <b_lp_Chiralities_Consistent>
1

> <s_lp_Variant>
AV-unprocessed.smi:3031-2

> <Gold.Version>
5.8.1

> <Gold.Id.Protein>
6NUR|6NUR_protein|mol2

> <Gold.PLP.Fitness>
46.8293

> <Gold.PLP.PLP>
-31.7362

> <Gold.PLP.part.hbond>
-3.0102

> <Gold.PLP.part.metal>
0.0000

> <Gold.PLP.part.buried>
2.2618

> <Gold.PLP.part.nonpolar>
-30.9157

> <Gold.PLP.part.repulsive>
1.1168

> <Gold.PLP.ligand.clash>
0.0000

> <Gold.PLP.ligand.torsion>
1.1825

> <Gold.PLP.Chemscore.Hbond>
4.0000

> <Gold.PLP.Chemscore.CHOScore>
1.7317

> <Gold.PLP.Chemscore.Metal>
0.0000

> <Gold.Chemscore.Hbonds>
donor molecule, donor type, donor heavy atom, donor atom, acceptor molecule, acceptor atom, score
      L1  H     9    47       P1  7948  2.00
      L1  H    12    35       P1  7957  0.84
      P1  H  7989  7998       L1    14  1.00
      L1  C     3    24       P1 10747  0.55
      L1  C    20    46       P1 10186  1.00

> <Gold.PLP.Chemscore.Internal.Correction>
0.2631

> <Gold.Rescore>
     Score         DG    S(hbond)    S(metal)    S(lipo)     H(rot)  DE(clash)    DE(int)     intcor
     12.31     -15.93       2.01        0.00      89.41       2.63       1.31       2.32       ----

> <Gold.Chemscore.Fitness>
12.3088

> <Gold.Chemscore.DG>
-15.9316

> <Gold.Chemscore.ZeroCoef>
-5.4800

> <Gold.Chemscore.Hbond>
2.0106

> <Gold.Chemscore.Metal>
0.0000

> <Gold.Chemscore.Lipo>
89.4137

> <Gold.Chemscore.Internal_Hbond>
0.0000

> <Gold.Chemscore.DEClash>
1.3060

> <Gold.Chemscore.DEInternal>
2.3168

> <Gold.Chemscore.Rot>
2.6270

> <Gold.Chemscore.Internal.Correction>
   9.000000E+99

> <Gold.Chemscore.Hbonds>
donor molecule, donor type, donor heavy atom, donor atom, acceptor molecule, acceptor atom, score
      L1  H     9    47       P1  7948  0.98
      L1  H    12    35       P1  7957  0.82
      P1  H  7989  7998       L1    14  0.06

> <Gold.Chemscore.Hbond.Weighted>
-6.7153

> <Gold.Chemscore.Metal.Weighted>
-0.0000

> <Gold.Chemscore.Lipo.Weighted>
-10.4614

> <Gold.Chemscore.Internal_Hbond.Weighted>
0.0000

> <Gold.Chemscore.DEClash.Weighted>
1.3060

> <Gold.Chemscore.DEInternal.Weighted>
2.3168

> <Gold.Chemscore.Rot.Weighted>
6.7251

> <Gold.Chemscore.Internal.Correction.Weighted>
   9.000000E+99

> <Gold.Protein.RotatedTorsions>
[ 6907 6896 6895 6894 ] final -157.47 input  -60.11 | X-H torsion
[ 7974 7965 7964 7962 ] final  116.46 input  175.53 | X-H torsion
[ 8008 7997 7996 7995 ] final  -23.52 input   59.86 | X-H torsion
[ 10167 10162 10161 10158 ] final  127.38 input  -65.29 | X-H torsion
[ 10718 10713 10712 10709 ] final -178.81 input   66.30 | X-H torsion
[ 10763 10752 10751 10750 ] final  137.32 input  -60.55 | X-H torsion
[ 11005 11000 10999 10996 ] final   19.58 input  -57.11 | X-H torsion

> <Gold.Protein.ActiveResidues>
 VAL166  LYS551  ARG553  GLY616  TRP617  ASP618  TYR619  PRO620  LYS621  CYS622 
 ASP623  PHE694  ASN695  SER759  ASP760  ASP761  ALA762  ILE779  LEU786  VAL792 
 PHE793  MET794  SER795  GLU796  ALA797  LYS798  CYS799  TRP800  GLU811  SER814 

> <Gold.Protein.RotatedAtoms>
  151.3034  133.4112  159.2641 H   0  0  0  0  0  0  0  0  0  0  0  0  # atno 6907 bound_to 6896
  151.0176  134.9445  159.8052 H   0  0  0  0  0  0  0  0  0  0  0  0  # atno 6908 bound_to 6896
  152.5316  134.2998  159.9126 H   0  0  0  0  0  0  0  0  0  0  0  0  # atno 6909 bound_to 6896
  145.1794  139.3058  143.4426 H   0  0  0  0  0  0  0  0  0  0  0  0  # atno 7974 bound_to 7965
  154.4580  140.1978  156.0323 H   0  0  0  0  0  0  0  0  0  0  0  0  # atno 8008 bound_to 7997
  156.0785  140.3275  155.7636 H   0  0  0  0  0  0  0  0  0  0  0  0  # atno 8009 bound_to 7997
  155.5149  140.0565  157.2908 H   0  0  0  0  0  0  0  0  0  0  0  0  # atno 8010 bound_to 7997
  139.5581  144.6863  151.4122 H   0  0  0  0  0  0  0  0  0  0  0  0  # atno 10167 bound_to 10162
  156.8498  130.9715  151.3093 H   0  0  0  0  0  0  0  0  0  0  0  0  # atno 10718 bound_to 10713
  153.8711  135.3055  155.3442 H   0  0  0  0  0  0  0  0  0  0  0  0  # atno 10763 bound_to 10752
  154.7805  135.4838  153.9838 H   0  0  0  0  0  0  0  0  0  0  0  0  # atno 10764 bound_to 10752
  153.1406  135.6823  153.9130 H   0  0  0  0  0  0  0  0  0  0  0  0  # atno 10765 bound_to 10752
  140.4121  134.1607  155.7668 H   0  0  0  0  0  0  0  0  0  0  0  0  # atno 11005 bound_to 11000
  146.3456  140.1968  142.8589 LP  0  0  0  0  0  0  0  0  0  0  0  0  # atno 17320 bound_to 7965
  145.0152  140.8747  143.5200 LP  0  0  0  0  0  0  0  0  0  0  0  0  # atno 17321 bound_to 7965
  140.6857  143.7979  150.7183 LP  0  0  0  0  0  0  0  0  0  0  0  0  # atno 17342 bound_to 10162
  140.1446  143.4411  152.2171 LP  0  0  0  0  0  0  0  0  0  0  0  0  # atno 17343 bound_to 10162
  157.6310  130.8729  149.9273 LP  0  0  0  0  0  0  0  0  0  0  0  0  # atno 17370 bound_to 10713
  156.0835  130.3670  150.0534 LP  0  0  0  0  0  0  0  0  0  0  0  0  # atno 17371 bound_to 10713
  141.1817  133.8400  157.1234 LP  0  0  0  0  0  0  0  0  0  0  0  0  # atno 17394 bound_to 11000
  140.0260  134.9924  157.0687 LP  0  0  0  0  0  0  0  0  0  0  0  0  # atno 17395 bound_to 11000

$$$$
