AV-unprocessed.smi:2768|AV-procd|sdf|10649|dock2
  -GOLD-   2272015103D 1   1.00000     0.00000
 Structure written by MMmdl.
 35 36  0  0  0  0  0  0  0  0  1 V2000
  152.4545  139.8816  155.5373 O   0  0  0  0  0  0  0  0  0  0  0  0
  151.2630  139.9712  155.8363 C   0  0  0  0  0  0  0  0  0  0  0  0
  150.7836  140.9176  156.6603 N   0  0  0  0  0  0  0  0  0  0  0  0
  151.5853  141.9201  157.3577 C   0  0  1  0  0  0  0  0  0  0  0  0
  151.3359  143.3186  156.7604 C   0  0  0  0  0  0  0  0  0  0  0  0
  152.1669  144.3893  157.4858 C   0  0  0  0  0  0  0  0  0  0  0  0
  151.8896  144.3826  158.9973 C   0  0  0  0  0  0  0  0  0  0  0  0
  152.1255  142.9889  159.6076 C   0  0  0  0  0  0  0  0  0  0  0  0
  151.3214  141.8918  158.8835 C   0  0  1  0  0  0  0  0  0  0  0  0
  149.9439  142.0685  159.1613 O   0  0  0  0  0  0  0  0  0  0  0  0
  150.2463  138.9590  155.2888 C   0  0  0  0  0  0  0  0  0  0  0  0
  150.8854  138.0937  154.4977 F   0  0  0  0  0  0  0  0  0  0  0  0
  149.7168  138.2719  156.3038 F   0  0  0  0  0  0  0  0  0  0  0  0
  149.1452  139.6853  154.5199 C   0  0  0  0  0  0  0  0  0  0  0  0
  148.1689  138.9688  153.7901 C   0  0  0  0  0  0  0  0  0  0  0  0
  147.1878  139.6918  153.0846 C   0  0  0  0  0  0  0  0  0  0  0  0
  147.2167  141.0983  153.1299 C   0  0  0  0  0  0  0  0  0  0  0  0
  148.2307  141.7227  153.8819 C   0  0  0  0  0  0  0  0  0  0  0  0
  149.1761  141.0388  154.5609 N   0  0  0  0  0  0  0  0  0  0  0  0
  152.6390  141.6857  157.1933 H   0  0  0  0  0  0  0  0  0  0  0  0
  151.6095  140.9206  159.2876 H   0  0  0  0  0  0  0  0  0  0  0  0
  149.7913  140.9216  156.8474 H   0  0  0  0  0  0  0  0  0  0  0  0
  151.5858  143.3207  155.6987 H   0  0  0  0  0  0  0  0  0  0  0  0
  150.2769  143.5720  156.8281 H   0  0  0  0  0  0  0  0  0  0  0  0
  153.2282  144.2102  157.3084 H   0  0  0  0  0  0  0  0  0  0  0  0
  151.9468  145.3739  157.0722 H   0  0  0  0  0  0  0  0  0  0  0  0
  152.5257  145.1161  159.4934 H   0  0  0  0  0  0  0  0  0  0  0  0
  150.8610  144.6956  159.1803 H   0  0  0  0  0  0  0  0  0  0  0  0
  153.1880  142.7503  159.5454 H   0  0  0  0  0  0  0  0  0  0  0  0
  151.8792  142.9984  160.6700 H   0  0  0  0  0  0  0  0  0  0  0  0
  149.8537  142.3345  160.0635 H   0  0  0  0  0  0  0  0  0  0  0  0
  148.1688  137.8891  153.7640 H   0  0  0  0  0  0  0  0  0  0  0  0
  146.4275  139.1763  152.5170 H   0  0  0  0  0  0  0  0  0  0  0  0
  146.4803  141.6849  152.6008 H   0  0  0  0  0  0  0  0  0  0  0  0
  148.2849  142.7998  153.9388 H   0  0  0  0  0  0  0  0  0  0  0  0
  1  2  2  0  0  0  0
  2  3  1  0  0  0  0
  2 11  1  0  0  0  0
  3  4  1  0  0  0  0
  3 22  1  0  0  0  0
  4 20  1  0  0  0  0
  4  9  1  0  0  0  0
  4  5  1  0  0  0  0
  5  6  1  0  0  0  0
  5 23  1  0  0  0  0
  5 24  1  0  0  0  0
  6  7  1  0  0  0  0
  6 25  1  0  0  0  0
  6 26  1  0  0  0  0
  7  8  1  0  0  0  0
  7 27  1  0  0  0  0
  7 28  1  0  0  0  0
  8  9  1  0  0  0  0
  8 29  1  0  0  0  0
  8 30  1  0  0  0  0
  9 21  1  0  0  0  0
  9 10  1  0  0  0  0
 10 31  1  0  0  0  0
 11 12  1  0  0  0  0
 11 13  1  0  0  0  0
 11 14  1  0  0  0  0
 14 19  1  0  0  0  0
 14 15  2  0  0  0  0
 15 16  1  0  0  0  0
 15 32  1  0  0  0  0
 16 17  2  0  0  0  0
 16 33  1  0  0  0  0
 17 18  1  0  0  0  0
 17 34  1  0  0  0  0
 18 19  2  0  0  0  0
 18 35  1  0  0  0  0
M  END
> <s_m_source_file>
AV-unprocessed.smi

> <i_m_source_file_index>
2768

> <i_lp_mmshare_version>
43012

> <i_f3d_flags>
0

> <s_epik_input>
bjFbY0hdW2NIXVtjSF1bY0hdYzFDKEYpKEYpQyg9TylbTkhdW0NAQEhdMltDSDJdW0NIMl1bQ0gyXVtDSDJdW0NASF0yW09IXQ==

> <s_epik_cmdline>
J2VwaWtfcHl0aG9uJywgJy1waCcsICc3LjAnLCAnLXRuJywgJzgnLCAnLW1hJywgJzIwMCcsICctbWV0YWxfYmluZGluZycsICctaW1hZScsICc8aW5maWxlLm1hZT4nLCAnLW9tYWUnLCAnPG91dGZpbGUubWFlPic=

> <r_lp_tautomer_probability>
1

> <r_epik_Ionization_Penalty>
4.19456e-05

> <r_epik_Ionization_Penalty_Charging>
0

> <r_epik_Ionization_Penalty_Neutral>
4.19456e-05

> <r_epik_State_Penalty>
-0

> <r_epik_Charging_Adjusted_Penalty>
0

> <i_epik_Tot_Q>
0

> <i_epik_Tot_abs_Q>
0

> <r_epik_Metal_State_Penalty>
0.0354684

> <b_epik_Metal_Only>
0

> <s_lp_Force_Field>
OPLS_2005

> <r_lp_Energy>
19.7139

> <b_lp_Chiralities_Consistent>
1

> <s_lp_Variant>
AV-unprocessed.smi:2768-2

> <Gold.Version>
5.8.1

> <Gold.Id.Protein>
6NUR|6NUR_protein|mol2

> <Gold.PLP.Fitness>
43.1682

> <Gold.PLP.PLP>
-37.2911

> <Gold.PLP.part.hbond>
-3.0000

> <Gold.PLP.part.metal>
0.0000

> <Gold.PLP.part.buried>
-0.5184

> <Gold.PLP.part.nonpolar>
-33.3516

> <Gold.PLP.part.repulsive>
0.2145

> <Gold.PLP.ligand.clash>
0.0000

> <Gold.PLP.ligand.torsion>
0.2111

> <Gold.PLP.Chemscore.Hbond>
1.0914

> <Gold.PLP.Chemscore.CHOScore>
1.0000

> <Gold.PLP.Chemscore.Metal>
0.0000

> <Gold.Chemscore.Hbonds>
donor molecule, donor type, donor heavy atom, donor atom, acceptor molecule, acceptor atom, score
      P1  H  7989  7998       L1     1  0.01
      P1  H  7997  8009       L1     1  1.00
      L1  C    18    35       P1  8028  0.80

> <Gold.PLP.Chemscore.Internal.Correction>
0.0251

> <Gold.Rescore>
     Score         DG    S(hbond)    S(metal)    S(lipo)     H(rot)  DE(clash)    DE(int)     intcor
     12.95     -15.89       0.95        0.00     105.64       2.00       1.17       1.77       ----

> <Gold.Chemscore.Fitness>
12.9514

> <Gold.Chemscore.DG>
-15.8922

> <Gold.Chemscore.ZeroCoef>
-5.4800

> <Gold.Chemscore.Hbond>
0.9475

> <Gold.Chemscore.Metal>
0.0000

> <Gold.Chemscore.Lipo>
105.6376

> <Gold.Chemscore.Internal_Hbond>
0.0000

> <Gold.Chemscore.DEClash>
1.1712

> <Gold.Chemscore.DEInternal>
1.7696

> <Gold.Chemscore.Rot>
1.9969

> <Gold.Chemscore.Internal.Correction>
   9.000000E+99

> <Gold.Chemscore.Hbonds>
donor molecule, donor type, donor heavy atom, donor atom, acceptor molecule, acceptor atom, score
      P1  H  7997  8009       L1     1  0.94

> <Gold.Chemscore.Hbond.Weighted>
-3.1647

> <Gold.Chemscore.Metal.Weighted>
-0.0000

> <Gold.Chemscore.Lipo.Weighted>
-12.3596

> <Gold.Chemscore.Internal_Hbond.Weighted>
0.0000

> <Gold.Chemscore.DEClash.Weighted>
1.1712

> <Gold.Chemscore.DEInternal.Weighted>
1.7696

> <Gold.Chemscore.Rot.Weighted>
5.1122

> <Gold.Chemscore.Internal.Correction.Weighted>
   9.000000E+99

> <Gold.Protein.RotatedTorsions>
[ 6907 6896 6895 6894 ] final  149.83 input  -60.11 | X-H torsion
[ 7974 7965 7964 7962 ] final  135.57 input  175.53 | X-H torsion
[ 8008 7997 7996 7995 ] final -143.90 input   59.86 | X-H torsion
[ 10167 10162 10161 10158 ] final  170.22 input  -65.29 | X-H torsion
[ 10718 10713 10712 10709 ] final -113.86 input   66.30 | X-H torsion
[ 10763 10752 10751 10750 ] final -145.51 input  -60.55 | X-H torsion
[ 11005 11000 10999 10996 ] final  119.30 input  -57.11 | X-H torsion

> <Gold.Protein.ActiveResidues>
 VAL166  LYS551  ARG553  GLY616  TRP617  ASP618  TYR619  PRO620  LYS621  CYS622 
 ASP623  PHE694  ASN695  SER759  ASP760  ASP761  ALA762  ILE779  LEU786  VAL792 
 PHE793  MET794  SER795  GLU796  ALA797  LYS798  CYS799  TRP800  GLU811  SER814 

> <Gold.Protein.RotatedAtoms>
  152.1227  133.4362  159.4682 H   0  0  0  0  0  0  0  0  0  0  0  0  # atno 6907 bound_to 6896
  150.6873  134.2515  159.4522 H   0  0  0  0  0  0  0  0  0  0  0  0  # atno 6908 bound_to 6896
  152.0393  134.9720  160.0624 H   0  0  0  0  0  0  0  0  0  0  0  0  # atno 6909 bound_to 6896
  144.9650  139.4668  143.5461 H   0  0  0  0  0  0  0  0  0  0  0  0  # atno 7974 bound_to 7965
  155.5182  140.0589  157.2911 H   0  0  0  0  0  0  0  0  0  0  0  0  # atno 8008 bound_to 7997
  154.4527  140.1957  156.0417 H   0  0  0  0  0  0  0  0  0  0  0  0  # atno 8009 bound_to 7997
  156.0737  140.3256  155.7611 H   0  0  0  0  0  0  0  0  0  0  0  0  # atno 8010 bound_to 7997
  139.5013  144.3620  151.9814 H   0  0  0  0  0  0  0  0  0  0  0  0  # atno 10167 bound_to 10162
  156.0793  130.5995  150.8698 H   0  0  0  0  0  0  0  0  0  0  0  0  # atno 10718 bound_to 10713
  154.8380  135.3411  154.6515 H   0  0  0  0  0  0  0  0  0  0  0  0  # atno 10763 bound_to 10752
  153.7128  135.6963  153.5037 H   0  0  0  0  0  0  0  0  0  0  0  0  # atno 10764 bound_to 10752
  153.2439  135.4375  155.0680 H   0  0  0  0  0  0  0  0  0  0  0  0  # atno 10765 bound_to 10752
  139.9141  134.9627  156.7635 H   0  0  0  0  0  0  0  0  0  0  0  0  # atno 11005 bound_to 11000
  146.3365  139.8825  142.8822 LP  0  0  0  0  0  0  0  0  0  0  0  0  # atno 17320 bound_to 7965
  145.2643  141.0087  143.3808 LP  0  0  0  0  0  0  0  0  0  0  0  0  # atno 17321 bound_to 7965
  140.3057  144.3596  150.6048 LP  0  0  0  0  0  0  0  0  0  0  0  0  # atno 17342 bound_to 10162
  140.5839  143.2171  151.7378 LP  0  0  0  0  0  0  0  0  0  0  0  0  # atno 17343 bound_to 10162
  157.5902  131.0944  150.9130 LP  0  0  0  0  0  0  0  0  0  0  0  0  # atno 17370 bound_to 10713
  156.9308  130.5349  149.5279 LP  0  0  0  0  0  0  0  0  0  0  0  0  # atno 17371 bound_to 10713
  140.6678  133.9586  155.7840 LP  0  0  0  0  0  0  0  0  0  0  0  0  # atno 17394 bound_to 11000
  141.0598  134.0362  157.3673 LP  0  0  0  0  0  0  0  0  0  0  0  0  # atno 17395 bound_to 11000

$$$$
