AV-unprocessed.smi:36|AV-procd|sdf|282|dock8
  -GOLD-   2262016 53D 1   1.00000     0.00000
 Structure written by MMmdl.
 64 67  0  0  0  0  0  0  0  0  1 V2000
  156.3394  128.7184  167.5243 C   0  0  0  0  0  0  0  0  0  0  0  0
  155.6975  129.4468  166.3312 C   0  0  0  0  0  0  0  0  0  0  0  0
  155.4196  128.4342  165.2072 C   0  0  0  0  0  0  0  0  0  0  0  0
  154.3786  130.1041  166.7709 C   0  0  0  0  0  0  0  0  0  0  0  0
  156.8961  130.8085  165.7136 Si  0  0  0  0  0  0  0  0  0  0  0  0
  157.2500  132.0511  167.1063 C   0  0  0  0  0  0  0  0  0  0  0  0
  158.5284  130.0591  165.0911 C   0  0  0  0  0  0  0  0  0  0  0  0
  156.1682  131.6663  164.4475 O   0  0  0  0  0  0  0  0  0  0  0  0
  154.9035  132.2905  164.5367 C   0  0  0  0  0  0  0  0  0  0  0  0
  154.6406  133.0951  163.2551 C   0  0  1  0  0  0  0  0  0  0  0  0
  155.5359  134.1964  163.1466 O   0  0  0  0  0  0  0  0  0  0  0  0
  155.7449  134.5185  161.8029 C   0  0  2  0  0  0  0  0  0  0  0  0
  155.1895  135.8811  161.5534 N   0  0  0  0  0  0  0  0  0  0  0  0
  154.4869  136.7020  162.4091 C   0  0  0  0  0  0  0  0  0  0  0  0
  154.1233  137.8516  161.9057 N   0  0  0  0  0  0  0  0  0  0  0  0
  154.6093  137.8184  160.6044 C   0  0  0  0  0  0  0  0  0  0  0  0
  154.5746  138.7291  159.5160 C   0  0  0  0  0  0  0  0  0  0  0  0
  153.9582  139.9270  159.6489 N   0  0  0  0  0  0  0  0  0  0  0  0
  154.2081  140.9580  160.6410 C   0  0  0  0  0  0  0  0  0  0  0  0
  155.1027  140.8553  161.4809 O   0  0  0  0  0  0  0  0  0  0  0  0
  153.3596  142.1926  160.5406 C   0  0  0  0  0  0  0  0  0  0  0  0
  152.7624  142.5402  159.3079 C   0  0  0  0  0  0  0  0  0  0  0  0
  151.9798  143.7061  159.1974 C   0  0  0  0  0  0  0  0  0  0  0  0
  151.7932  144.5384  160.3172 C   0  0  0  0  0  0  0  0  0  0  0  0
  152.3929  144.2060  161.5463 C   0  0  0  0  0  0  0  0  0  0  0  0
  153.1762  143.0406  161.6579 C   0  0  0  0  0  0  0  0  0  0  0  0
  155.1682  138.3399  158.3567 N   0  0  0  0  0  0  0  0  0  0  0  0
  155.7589  137.1443  158.2702 C   0  0  0  0  0  0  0  0  0  0  0  0
  155.8700  136.1989  159.2061 N   0  0  0  0  0  0  0  0  0  0  0  0
  155.2757  136.5834  160.3722 C   0  0  0  0  0  0  0  0  0  0  0  0
  154.9995  133.4844  160.9514 C   0  0  0  0  0  0  0  0  0  0  0  0
  154.7988  132.3433  161.9278 C   0  0  1  0  0  0  0  0  0  0  0  0
  155.9179  131.4774  161.9287 O   0  0  0  0  0  0  0  0  0  0  0  0
  155.6861  127.9339  167.9080 H   0  0  0  0  0  0  0  0  0  0  0  0
  156.5435  129.4035  168.3475 H   0  0  0  0  0  0  0  0  0  0  0  0
  157.2834  128.2511  167.2427 H   0  0  0  0  0  0  0  0  0  0  0  0
  156.3415  127.9871  164.8351 H   0  0  0  0  0  0  0  0  0  0  0  0
  154.9110  128.8985  164.3643 H   0  0  0  0  0  0  0  0  0  0  0  0
  154.7818  127.6219  165.5580 H   0  0  0  0  0  0  0  0  0  0  0  0
  153.6630  129.3604  167.1234 H   0  0  0  0  0  0  0  0  0  0  0  0
  153.9121  130.6453  165.9472 H   0  0  0  0  0  0  0  0  0  0  0  0
  154.5388  130.8151  167.5816 H   0  0  0  0  0  0  0  0  0  0  0  0
  157.7469  131.5767  167.9523 H   0  0  0  0  0  0  0  0  0  0  0  0
  156.3334  132.5069  167.4804 H   0  0  0  0  0  0  0  0  0  0  0  0
  157.8962  132.8588  166.7636 H   0  0  0  0  0  0  0  0  0  0  0  0
  159.0406  129.5063  165.8782 H   0  0  0  0  0  0  0  0  0  0  0  0
  159.2124  130.8312  164.7393 H   0  0  0  0  0  0  0  0  0  0  0  0
  158.3662  129.3695  164.2629 H   0  0  0  0  0  0  0  0  0  0  0  0
  154.1401  131.5209  164.6525 H   0  0  0  0  0  0  0  0  0  0  0  0
  154.8453  132.9251  165.4199 H   0  0  0  0  0  0  0  0  0  0  0  0
  153.6313  133.5078  163.2977 H   0  0  0  0  0  0  0  0  0  0  0  0
  156.8121  134.5873  161.5887 H   0  0  0  0  0  0  0  0  0  0  0  0
  154.2521  136.4223  163.4255 H   0  0  0  0  0  0  0  0  0  0  0  0
  153.2119  140.1151  158.9956 H   0  0  0  0  0  0  0  0  0  0  0  0
  152.8975  141.9134  158.4382 H   0  0  0  0  0  0  0  0  0  0  0  0
  151.5240  143.9621  158.2524 H   0  0  0  0  0  0  0  0  0  0  0  0
  151.1938  145.4327  160.2320 H   0  0  0  0  0  0  0  0  0  0  0  0
  152.2545  144.8475  162.4042 H   0  0  0  0  0  0  0  0  0  0  0  0
  153.6345  142.8108  162.6089 H   0  0  0  0  0  0  0  0  0  0  0  0
  156.2066  136.9129  157.3150 H   0  0  0  0  0  0  0  0  0  0  0  0
  154.0316  133.8856  160.6456 H   0  0  0  0  0  0  0  0  0  0  0  0
  155.5668  133.2205  160.0581 H   0  0  0  0  0  0  0  0  0  0  0  0
  153.9112  131.7567  161.6887 H   0  0  0  0  0  0  0  0  0  0  0  0
  156.5417  131.7944  161.2932 H   0  0  0  0  0  0  0  0  0  0  0  0
  1  2  1  0  0  0  0
  1 34  1  0  0  0  0
  1 35  1  0  0  0  0
  1 36  1  0  0  0  0
  2  3  1  0  0  0  0
  2  4  1  0  0  0  0
  2  5  1  0  0  0  0
  3 37  1  0  0  0  0
  3 38  1  0  0  0  0
  3 39  1  0  0  0  0
  4 40  1  0  0  0  0
  4 41  1  0  0  0  0
  4 42  1  0  0  0  0
  5  6  1  0  0  0  0
  5  7  1  0  0  0  0
  5  8  1  0  0  0  0
  6 43  1  0  0  0  0
  6 44  1  0  0  0  0
  6 45  1  0  0  0  0
  7 46  1  0  0  0  0
  7 47  1  0  0  0  0
  7 48  1  0  0  0  0
  8  9  1  0  0  0  0
  9 10  1  0  0  0  0
  9 49  1  0  0  0  0
  9 50  1  0  0  0  0
 10 32  1  0  0  0  0
 10 11  1  0  0  0  0
 10 51  1  0  0  0  0
 11 12  1  0  0  0  0
 12 13  1  0  0  0  0
 12 31  1  0  0  0  0
 12 52  1  0  0  0  0
 13 30  1  0  0  0  0
 13 14  1  0  0  0  0
 14 15  2  0  0  0  0
 14 53  1  0  0  0  0
 15 16  1  0  0  0  0
 16 30  2  0  0  0  0
 16 17  1  0  0  0  0
 17 18  1  0  0  0  0
 17 27  2  0  0  0  0
 18 19  1  0  0  0  0
 18 54  1  0  0  0  0
 19 20  2  0  0  0  0
 19 21  1  0  0  0  0
 21 26  1  0  0  0  0
 21 22  2  0  0  0  0
 22 23  1  0  0  0  0
 22 55  1  0  0  0  0
 23 24  2  0  0  0  0
 23 56  1  0  0  0  0
 24 25  1  0  0  0  0
 24 57  1  0  0  0  0
 25 26  2  0  0  0  0
 25 58  1  0  0  0  0
 26 59  1  0  0  0  0
 27 28  1  0  0  0  0
 28 29  2  0  0  0  0
 28 60  1  0  0  0  0
 29 30  1  0  0  0  0
 31 32  1  0  0  0  0
 31 61  1  0  0  0  0
 31 62  1  0  0  0  0
 32 33  1  0  0  0  0
 32 63  1  0  0  0  0
 33 64  1  0  0  0  0
M  END
> <s_m_source_file>
AV-unprocessed.smi

> <i_m_source_file_index>
36

> <i_lp_mmshare_version>
43012

> <i_f3d_flags>
0

> <s_epik_input>
W0NIM11DKFtDSDNdKShbQ0gzXSlbU2ldKFtDSDNdKShbQ0gzXSlPW0NIMl1bQ0BASF0xT1tDQEhdKFtDSDJdW0NASF0xW09IXSluKFtjSF1uMiljKGMyMyluW2NIXW5jM1tOSF1DKD1PKWM0W2NIXVtjSF1bY0hdW2NIXVtjSF00

> <s_epik_cmdline>
J2VwaWtfcHl0aG9uJywgJy1waCcsICc3LjAnLCAnLXRuJywgJzgnLCAnLW1hJywgJzIwMCcsICctbWV0YWxfYmluZGluZycsICctaW1hZScsICc8aW5maWxlLm1hZT4nLCAnLW9tYWUnLCAnPG91dGZpbGUubWFlPic=

> <r_lp_tautomer_probability>
1

> <r_epik_Ionization_Penalty>
0.00150433

> <r_epik_Ionization_Penalty_Charging>
0

> <r_epik_Ionization_Penalty_Neutral>
0.00150433

> <r_epik_State_Penalty>
0.00724046

> <r_epik_Charging_Adjusted_Penalty>
0.00724046

> <i_epik_Tot_Q>
0

> <i_epik_Tot_abs_Q>
0

> <r_epik_Metal_State_Penalty>
0.323355

> <b_epik_Metal_Only>
0

> <s_epik_Chemistry_Notes>
This compound contains an acetal/aminal-like group ( X-CH(R)-Y where X, Y are N, S, or O) that may be acid/base labile, releasing an aldehyde.

> <s_lp_Force_Field>
OPLS_2005

> <r_lp_Energy>
37.9666

> <b_lp_Chiralities_Consistent>
1

> <s_lp_Variant>
AV-unprocessed.smi:36-4

> <Gold.Version>
5.8.1

> <Gold.Id.Protein>
6NUR|6NUR_protein|mol2

> <Gold.PLP.Fitness>
51.6756

> <Gold.PLP.PLP>
-50.3399

> <Gold.PLP.part.hbond>
-2.0000

> <Gold.PLP.part.metal>
0.0000

> <Gold.PLP.part.buried>
-6.4198

> <Gold.PLP.part.nonpolar>
-42.0318

> <Gold.PLP.part.repulsive>
0.0893

> <Gold.PLP.ligand.clash>
0.0000

> <Gold.PLP.ligand.torsion>
0.8874

> <Gold.PLP.Chemscore.Hbond>
1.0000

> <Gold.PLP.Chemscore.CHOScore>
0.0000

> <Gold.PLP.Chemscore.Metal>
0.0000

> <Gold.Chemscore.Hbonds>
donor molecule, donor type, donor heavy atom, donor atom, acceptor molecule, acceptor atom, score
      P1  H  7997  8009       L1    27  0.99

> <Gold.PLP.Chemscore.Internal.Correction>
0.1106

> <Gold.Rescore>
     Score         DG    S(hbond)    S(metal)    S(lipo)     H(rot)  DE(clash)    DE(int)     intcor
     11.73     -14.81       0.85        0.00     114.53       2.70       0.54       2.54       ----

> <Gold.Chemscore.Fitness>
11.7297

> <Gold.Chemscore.DG>
-14.8091

> <Gold.Chemscore.ZeroCoef>
-5.4800

> <Gold.Chemscore.Hbond>
0.8537

> <Gold.Chemscore.Metal>
0.0000

> <Gold.Chemscore.Lipo>
114.5318

> <Gold.Chemscore.Internal_Hbond>
0.0000

> <Gold.Chemscore.DEClash>
0.5436

> <Gold.Chemscore.DEInternal>
2.5358

> <Gold.Chemscore.Rot>
2.7041

> <Gold.Chemscore.Internal.Correction>
   9.000000E+99

> <Gold.Chemscore.Hbonds>
donor molecule, donor type, donor heavy atom, donor atom, acceptor molecule, acceptor atom, score
      P1  H  7997  8009       L1    27  0.42

> <Gold.Chemscore.Hbond.Weighted>
-2.8513

> <Gold.Chemscore.Metal.Weighted>
-0.0000

> <Gold.Chemscore.Lipo.Weighted>
-13.4002

> <Gold.Chemscore.Internal_Hbond.Weighted>
0.0000

> <Gold.Chemscore.DEClash.Weighted>
0.5436

> <Gold.Chemscore.DEInternal.Weighted>
2.5358

> <Gold.Chemscore.Rot.Weighted>
6.9225

> <Gold.Chemscore.Internal.Correction.Weighted>
   9.000000E+99

> <Gold.Protein.RotatedTorsions>
[ 6907 6896 6895 6894 ] final  137.06 input  -60.11 | X-H torsion
[ 7974 7965 7964 7962 ] final  145.15 input  175.53 | X-H torsion
[ 8008 7997 7996 7995 ] final  108.55 input   59.86 | X-H torsion
[ 10167 10162 10161 10158 ] final  -16.82 input  -65.29 | X-H torsion
[ 10718 10713 10712 10709 ] final  168.76 input   66.30 | X-H torsion
[ 10763 10752 10751 10750 ] final   53.78 input  -60.55 | X-H torsion
[ 11005 11000 10999 10996 ] final   96.17 input  -57.11 | X-H torsion

> <Gold.Protein.ActiveResidues>
 VAL166  LYS551  ARG553  GLY616  TRP617  ASP618  TYR619  PRO620  LYS621  CYS622 
 ASP623  PHE694  ASN695  SER759  ASP760  ASP761  ALA762  ILE779  LEU786  VAL792 
 PHE793  MET794  SER795  GLU796  ALA797  LYS798  CYS799  TRP800  GLU811  SER814 

> <Gold.Protein.RotatedAtoms>
  152.2824  133.5482  159.5505 H   0  0  0  0  0  0  0  0  0  0  0  0  # atno 6907 bound_to 6896
  150.7201  134.0546  159.3819 H   0  0  0  0  0  0  0  0  0  0  0  0  # atno 6908 bound_to 6896
  151.8456  135.0575  160.0504 H   0  0  0  0  0  0  0  0  0  0  0  0  # atno 6909 bound_to 6896
  144.8776  139.5749  143.5858 H   0  0  0  0  0  0  0  0  0  0  0  0  # atno 7974 bound_to 7965
  156.1911  140.3074  155.9335 H   0  0  0  0  0  0  0  0  0  0  0  0  # atno 8008 bound_to 7997
  155.3170  140.0454  157.3054 H   0  0  0  0  0  0  0  0  0  0  0  0  # atno 8009 bound_to 7997
  154.5454  140.2274  155.8582 H   0  0  0  0  0  0  0  0  0  0  0  0  # atno 8010 bound_to 7997
  140.7239  143.5078  150.9788 H   0  0  0  0  0  0  0  0  0  0  0  0  # atno 10167 bound_to 10162
  157.0324  131.0263  151.2740 H   0  0  0  0  0  0  0  0  0  0  0  0  # atno 10718 bound_to 10713
  152.9798  135.5767  154.4797 H   0  0  0  0  0  0  0  0  0  0  0  0  # atno 10763 bound_to 10752
  154.4348  135.2774  155.1890 H   0  0  0  0  0  0  0  0  0  0  0  0  # atno 10764 bound_to 10752
  154.3583  135.6194  153.5731 H   0  0  0  0  0  0  0  0  0  0  0  0  # atno 10765 bound_to 10752
  139.8783  134.8937  156.4119 H   0  0  0  0  0  0  0  0  0  0  0  0  # atno 11005 bound_to 11000
  146.2973  139.7317  142.9117 LP  0  0  0  0  0  0  0  0  0  0  0  0  # atno 17320 bound_to 7965
  145.4014  141.0385  143.3068 LP  0  0  0  0  0  0  0  0  0  0  0  0  # atno 17321 bound_to 7965
  139.8790  143.7096  152.3159 LP  0  0  0  0  0  0  0  0  0  0  0  0  # atno 17342 bound_to 10162
  139.7371  144.7568  151.0710 LP  0  0  0  0  0  0  0  0  0  0  0  0  # atno 17343 bound_to 10162
  157.5167  130.7972  149.7764 LP  0  0  0  0  0  0  0  0  0  0  0  0  # atno 17370 bound_to 10713
  156.0065  130.3853  150.2413 LP  0  0  0  0  0  0  0  0  0  0  0  0  # atno 17371 bound_to 10713
  140.9194  133.7655  155.9888 LP  0  0  0  0  0  0  0  0  0  0  0  0  # atno 17394 bound_to 11000
  140.8456  134.3015  157.5296 LP  0  0  0  0  0  0  0  0  0  0  0  0  # atno 17395 bound_to 11000

$$$$
