AV-unprocessed.smi:72|AV-procd|sdf|714|dock5
  -GOLD-   2262017 33D 1   1.00000     0.00000
 Structure written by MMmdl.
 28 29  0  0  0  0  0  0  0  0  2 V2000
  152.5840  139.2632  159.1256 N   0  0  0  0  0  0  0  0  0  0  0  0
  151.9500  139.4583  158.0537 C   0  0  0  0  0  0  0  0  0  0  0  0
  150.5097  139.5923  158.0756 N   0  0  0  0  0  0  0  0  0  0  0  0
  149.9035  139.7829  156.9443 C   0  0  0  0  0  0  0  0  0  0  0  0
  150.6310  139.8594  155.6849 N   0  0  0  0  0  0  0  0  0  0  0  0
  149.9009  140.0882  154.3748 C   0  0  1  0  0  0  0  0  0  0  0  0
  148.9903  139.0471  154.1742 O   0  0  0  0  0  0  0  0  0  0  0  0
  147.7693  139.5689  153.6607 C   0  0  1  0  0  0  0  0  0  0  0  0
  146.5982  138.6057  153.9243 C   0  0  0  0  0  0  0  0  0  0  0  0
  146.7720  137.4139  153.1875 O   0  0  0  0  0  0  0  0  0  0  0  0
  147.6603  140.9438  154.3347 C   0  0  1  0  0  0  0  0  0  0  0  0
  147.1177  140.8300  155.6403 O   0  0  0  0  0  0  0  0  0  0  0  0
  149.1109  141.4146  154.3432 C   0  0  1  0  0  0  0  0  0  0  0  0
  149.3943  142.3330  155.3853 O   0  0  0  0  0  0  0  0  0  0  0  0
  152.0469  139.7431  155.6952 C   0  0  0  0  0  0  0  0  0  0  0  0
  152.6484  139.8430  154.6257 O   0  0  0  0  0  0  0  0  0  0  0  0
  152.6767  139.5382  156.8862 N   0  5  0  0  0  0  0  0  0  0  0  0
  150.6510  140.0269  153.5853 H   0  0  0  0  0  0  0  0  0  0  0  0
  147.8899  139.7284  152.5872 H   0  0  0  0  0  0  0  0  0  0  0  0
  147.0236  141.6210  153.7645 H   0  0  0  0  0  0  0  0  0  0  0  0
  149.3318  141.8967  153.3901 H   0  0  0  0  0  0  0  0  0  0  0  0
  153.5796  139.1892  158.9740 H   0  0  0  0  0  0  0  0  0  0  0  0
  148.8222  139.9002  156.8653 H   0  0  0  0  0  0  0  0  0  0  0  0
  146.4984  138.3831  154.9872 H   0  0  0  0  0  0  0  0  0  0  0  0
  145.6609  139.0559  153.5961 H   0  0  0  0  0  0  0  0  0  0  0  0
  147.6422  137.4128  152.8192 H   0  0  0  0  0  0  0  0  0  0  0  0
  146.5937  141.5980  155.8111 H   0  0  0  0  0  0  0  0  0  0  0  0
  148.8960  143.1211  155.2299 H   0  0  0  0  0  0  0  0  0  0  0  0
  1  2  2  0  0  0  0
  1 22  1  0  0  0  0
  2 17  1  0  0  0  0
  2  3  1  0  0  0  0
  3  4  2  0  0  0  0
  4  5  1  0  0  0  0
  4 23  1  0  0  0  0
  5  6  1  0  0  0  0
  5 15  1  0  0  0  0
  6 18  1  0  0  0  0
  6 13  1  0  0  0  0
  6  7  1  0  0  0  0
  7  8  1  0  0  0  0
  8 19  1  0  0  0  0
  8  9  1  0  0  0  0
  8 11  1  0  0  0  0
  9 10  1  0  0  0  0
  9 24  1  0  0  0  0
  9 25  1  0  0  0  0
 10 26  1  0  0  0  0
 11 20  1  0  0  0  0
 11 12  1  0  0  0  0
 11 13  1  0  0  0  0
 12 27  1  0  0  0  0
 13 21  1  0  0  0  0
 13 14  1  0  0  0  0
 14 28  1  0  0  0  0
 15 16  2  0  0  0  0
 15 17  1  0  0  0  0
M  CHG  1  17  -1
M  END
> <s_m_source_file>
AV-unprocessed.smi

> <i_m_source_file_index>
72

> <i_lp_mmshare_version>
43012

> <i_f3d_flags>
0

> <s_epik_input>
W05IMl1jMW5bY0hdbihjKD1PKW4xKVtDQEBIXTJPW0NASF0oW0NIMl1bT0hdKVtDQEBIXShbT0hdKVtDQEhdMltPSF0=

> <s_epik_cmdline>
J2VwaWtfcHl0aG9uJywgJy1waCcsICc3LjAnLCAnLXRuJywgJzgnLCAnLW1hJywgJzIwMCcsICctbWV0YWxfYmluZGluZycsICctaW1hZScsICc8aW5maWxlLm1hZT4nLCAnLW9tYWUnLCAnPG91dGZpbGUubWFlPic=

> <r_lp_tautomer_probability>
7.17554e-07

> <r_epik_Ionization_Penalty>
12.8705

> <r_epik_Ionization_Penalty_Charging>
5.64144

> <r_epik_Ionization_Penalty_Neutral>
7.22905

> <r_epik_State_Penalty>
3.30104

> <r_epik_Charging_Adjusted_Penalty>
8.94249

> <i_epik_Tot_Q>
-1

> <i_epik_Tot_abs_Q>
1

> <r_epik_Metal_State_Penalty>
0.529074

> <b_epik_Metal_Only>
1

> <s_epik_Chemistry_Notes>
This compound contains an acetal/aminal-like group ( X-CH(R)-Y where X, Y are N, S, or O) that may be acid/base labile, releasing an aldehyde.

> <s_lp_Force_Field>
OPLS_2005

> <r_lp_Energy>
43.693

> <b_lp_Chiralities_Consistent>
1

> <s_lp_Variant>
AV-unprocessed.smi:72-52

> <Gold.Version>
5.8.1

> <Gold.Id.Protein>
6NUR|6NUR_protein|mol2

> <Gold.PLP.Fitness>
35.8764

> <Gold.PLP.PLP>
-23.0403

> <Gold.PLP.part.hbond>
-4.4488

> <Gold.PLP.part.metal>
0.0000

> <Gold.PLP.part.buried>
-1.3390

> <Gold.PLP.part.nonpolar>
-16.9607

> <Gold.PLP.part.repulsive>
0.2182

> <Gold.PLP.ligand.clash>
0.0000

> <Gold.PLP.ligand.torsion>
0.0158

> <Gold.PLP.Chemscore.Hbond>
4.2880

> <Gold.PLP.Chemscore.CHOScore>
0.0000

> <Gold.PLP.Chemscore.Metal>
0.0000

> <Gold.Chemscore.Hbonds>
donor molecule, donor type, donor heavy atom, donor atom, acceptor molecule, acceptor atom, score
      L1  H    10    26       P1  7948  0.85
      L1  H    14    28       P1  8028  0.83
      P1  H  7989  7998       L1    16  0.48
      P1  H  7997  8008       L1    17  2.00

> <Gold.PLP.Chemscore.Internal.Correction>
0.0037

> <Gold.Rescore>
     Score         DG    S(hbond)    S(metal)    S(lipo)     H(rot)  DE(clash)    DE(int)     intcor
      7.49      -7.65       2.98        0.00      21.94       4.04       0.03       0.13       ----

> <Gold.Chemscore.Fitness>
7.4919

> <Gold.Chemscore.DG>
-7.6549

> <Gold.Chemscore.ZeroCoef>
-5.4800

> <Gold.Chemscore.Hbond>
2.9792

> <Gold.Chemscore.Metal>
0.0000

> <Gold.Chemscore.Lipo>
21.9432

> <Gold.Chemscore.Internal_Hbond>
0.0000

> <Gold.Chemscore.DEClash>
0.0319

> <Gold.Chemscore.DEInternal>
0.1312

> <Gold.Chemscore.Rot>
4.0403

> <Gold.Chemscore.Internal.Correction>
   9.000000E+99

> <Gold.Chemscore.Hbonds>
donor molecule, donor type, donor heavy atom, donor atom, acceptor molecule, acceptor atom, score
      L1  H    10    26       P1  7948  0.80
      L1  H    14    28       P1  8028  0.81
      P1  H  7989  7998       L1    16  0.36
      P1  H  7997  8008       L1    17  0.65

> <Gold.Chemscore.Hbond.Weighted>
-9.9506

> <Gold.Chemscore.Metal.Weighted>
-0.0000

> <Gold.Chemscore.Lipo.Weighted>
-2.5674

> <Gold.Chemscore.Internal_Hbond.Weighted>
0.0000

> <Gold.Chemscore.DEClash.Weighted>
0.0319

> <Gold.Chemscore.DEInternal.Weighted>
0.1312

> <Gold.Chemscore.Rot.Weighted>
10.3431

> <Gold.Chemscore.Internal.Correction.Weighted>
   9.000000E+99

> <Gold.Protein.RotatedTorsions>
[ 6907 6896 6895 6894 ] final  -74.12 input  -60.11 | X-H torsion
[ 7974 7965 7964 7962 ] final -122.81 input  175.53 | X-H torsion
[ 8008 7997 7996 7995 ] final  -64.73 input   59.86 | X-H torsion
[ 10167 10162 10161 10158 ] final  109.04 input  -65.29 | X-H torsion
[ 10718 10713 10712 10709 ] final  171.24 input   66.30 | X-H torsion
[ 10763 10752 10751 10750 ] final  -23.28 input  -60.55 | X-H torsion
[ 11005 11000 10999 10996 ] final   40.21 input  -57.11 | X-H torsion

> <Gold.Protein.ActiveResidues>
 VAL166  LYS551  ARG553  GLY616  TRP617  ASP618  TYR619  PRO620  LYS621  CYS622 
 ASP623  PHE694  ASN695  SER759  ASP760  ASP761  ALA762  ILE779  LEU786  VAL792 
 PHE793  MET794  SER795  GLU796  ALA797  LYS798  CYS799  TRP800  GLU811  SER814 

> <Gold.Protein.RotatedAtoms>
  150.7104  134.4916  159.5517 H   0  0  0  0  0  0  0  0  0  0  0  0  # atno 6907 bound_to 6896
  152.2532  134.8108  160.0452 H   0  0  0  0  0  0  0  0  0  0  0  0  # atno 6908 bound_to 6896
  151.8848  133.3468  159.3815 H   0  0  0  0  0  0  0  0  0  0  0  0  # atno 6909 bound_to 6896
  145.0255  140.8024  143.4355 H   0  0  0  0  0  0  0  0  0  0  0  0  # atno 7974 bound_to 7965
  154.4629  140.0948  156.6941 H   0  0  0  0  0  0  0  0  0  0  0  0  # atno 8008 bound_to 7997
  155.4943  140.3471  155.4342 H   0  0  0  0  0  0  0  0  0  0  0  0  # atno 8009 bound_to 7997
  156.0903  140.1395  156.9589 H   0  0  0  0  0  0  0  0  0  0  0  0  # atno 8010 bound_to 7997
  139.6798  144.7119  151.1536 H   0  0  0  0  0  0  0  0  0  0  0  0  # atno 10167 bound_to 10162
  156.9964  131.0163  151.2843 H   0  0  0  0  0  0  0  0  0  0  0  0  # atno 10718 bound_to 10713
  153.6653  135.6974  153.5164 H   0  0  0  0  0  0  0  0  0  0  0  0  # atno 10763 bound_to 10752
  153.2600  135.4248  155.0883 H   0  0  0  0  0  0  0  0  0  0  0  0  # atno 10764 bound_to 10752
  154.8441  135.3552  154.6198 H   0  0  0  0  0  0  0  0  0  0  0  0  # atno 10765 bound_to 10752
  140.1953  134.3937  155.8124 H   0  0  0  0  0  0  0  0  0  0  0  0  # atno 11005 bound_to 11000
  145.1840  139.2336  143.5278 LP  0  0  0  0  0  0  0  0  0  0  0  0  # atno 17320 bound_to 7965
  146.3491  140.1620  142.8590 LP  0  0  0  0  0  0  0  0  0  0  0  0  # atno 17321 bound_to 7965
  140.7648  143.5716  150.8989 LP  0  0  0  0  0  0  0  0  0  0  0  0  # atno 17342 bound_to 10162
  139.9388  143.6407  152.3059 LP  0  0  0  0  0  0  0  0  0  0  0  0  # atno 17343 bound_to 10162
  157.5422  130.8127  149.8042 LP  0  0  0  0  0  0  0  0  0  0  0  0  # atno 17370 bound_to 10713
  156.0188  130.3803  150.2028 LP  0  0  0  0  0  0  0  0  0  0  0  0  # atno 17371 bound_to 10713
  141.2227  133.7066  156.8165 LP  0  0  0  0  0  0  0  0  0  0  0  0  # atno 17394 bound_to 11000
  140.2114  134.8824  157.3279 LP  0  0  0  0  0  0  0  0  0  0  0  0  # atno 17395 bound_to 11000

$$$$
