AV-unprocessed.smi:91|AV-procd|sdf|833|dock5
  -GOLD-   2262017253D 1   1.00000     0.00000
 Structure written by MMmdl.
 60 63  0  0  0  0  0  0  0  0  1 V2000
  148.9589  133.5609  161.1660 C   0  0  0  0  0  0  0  0  0  0  0  0
  148.6187  134.6224  160.2918 O   0  0  0  0  0  0  0  0  0  0  0  0
  148.2051  134.1639  159.0141 C   0  0  0  0  0  0  0  0  0  0  0  0
  149.3540  134.3057  158.0062 C   0  0  2  0  0  0  0  0  0  0  0  0
  149.7861  135.7671  157.7901 C   0  0  0  0  0  0  0  0  0  0  0  0
  150.8004  135.8308  156.7491 N   0  0  0  0  0  0  0  0  0  0  0  0
  151.3617  137.0505  156.6148 C   0  0  0  0  0  0  0  0  0  0  0  0
  151.8210  137.4607  155.4033 N   0  0  0  0  0  0  0  0  0  0  0  0
  152.3722  138.6719  155.2772 C   0  0  0  0  0  0  0  0  0  0  0  0
  152.5558  139.6075  156.2118 N   0  0  0  0  0  0  0  0  0  0  0  0
  152.0908  139.1960  157.4265 C   0  0  0  0  0  0  0  0  0  0  0  0
  151.4870  137.9403  157.7124 C   0  0  0  0  0  0  0  0  0  0  0  0
  151.1451  137.8676  159.0562 N   0  0  0  0  0  0  0  0  0  0  0  0
  151.5258  139.0191  159.5395 C   0  0  0  0  0  0  0  0  0  0  0  0
  152.0957  139.8814  158.6290 N   0  0  0  0  0  0  0  0  0  0  0  0
  152.5944  141.2212  158.8893 C   0  0  0  0  0  0  0  0  0  0  0  0
  153.7805  141.2276  159.8921 C   0  0  2  0  0  0  0  0  0  0  0  0
  154.3817  139.8117  160.0435 C   0  0  0  0  0  0  0  0  0  0  0  0
  154.9837  139.3876  158.8390 O   0  0  0  0  0  0  0  0  0  0  0  0
  153.3598  141.8011  161.2701 C   0  0  2  0  0  0  0  0  0  0  0  0
  153.1649  143.3072  161.3060 C   0  0  0  0  0  0  0  0  0  0  0  0
  153.2283  143.6035  162.7991 C   0  0  0  0  0  0  0  0  0  0  0  0
  154.1653  142.6736  163.3272 O   0  0  0  0  0  0  0  0  0  0  0  0
  154.4030  141.6342  162.3827 C   0  0  0  0  0  0  0  0  0  0  0  0
  150.3458  135.2428  155.4959 C   0  0  0  0  0  0  0  0  0  0  0  0
  149.9053  133.7765  155.7052 C   0  0  0  0  0  0  0  0  0  0  0  0
  149.1642  133.2740  154.4569 C   0  0  0  0  0  0  0  0  0  0  0  0
  151.1056  132.8485  155.9901 C   0  0  0  0  0  0  0  0  0  0  0  0
  148.9470  133.7180  156.7688 O   0  0  0  0  0  0  0  0  0  0  0  0
  149.2686  133.9649  162.1297 H   0  0  0  0  0  0  0  0  0  0  0  0
  149.7852  132.9710  160.7672 H   0  0  0  0  0  0  0  0  0  0  0  0
  148.1069  132.9013  161.3357 H   0  0  0  0  0  0  0  0  0  0  0  0
  147.9040  133.1172  159.0812 H   0  0  0  0  0  0  0  0  0  0  0  0
  147.3375  134.7303  158.6716 H   0  0  0  0  0  0  0  0  0  0  0  0
  150.1988  133.7412  158.4009 H   0  0  0  0  0  0  0  0  0  0  0  0
  148.9299  136.3766  157.4974 H   0  0  0  0  0  0  0  0  0  0  0  0
  150.1779  136.1845  158.7189 H   0  0  0  0  0  0  0  0  0  0  0  0
  152.7146  138.9289  154.2856 H   0  0  0  0  0  0  0  0  0  0  0  0
  151.3975  139.2690  160.5818 H   0  0  0  0  0  0  0  0  0  0  0  0
  152.8713  141.6728  157.9367 H   0  0  0  0  0  0  0  0  0  0  0  0
  151.7632  141.8247  159.2561 H   0  0  0  0  0  0  0  0  0  0  0  0
  154.5713  141.8723  159.5030 H   0  0  0  0  0  0  0  0  0  0  0  0
  155.1557  139.7906  160.8097 H   0  0  0  0  0  0  0  0  0  0  0  0
  153.6176  139.0931  160.3415 H   0  0  0  0  0  0  0  0  0  0  0  0
  154.4900  138.6591  158.4947 H   0  0  0  0  0  0  0  0  0  0  0  0
  152.4316  141.3259  161.5924 H   0  0  0  0  0  0  0  0  0  0  0  0
  153.9841  143.8111  160.7909 H   0  0  0  0  0  0  0  0  0  0  0  0
  152.2253  143.6351  160.8615 H   0  0  0  0  0  0  0  0  0  0  0  0
  153.5207  144.6322  163.0109 H   0  0  0  0  0  0  0  0  0  0  0  0
  152.2586  143.4229  163.2643 H   0  0  0  0  0  0  0  0  0  0  0  0
  154.3462  140.6569  162.8624 H   0  0  0  0  0  0  0  0  0  0  0  0
  155.4130  141.7580  161.9896 H   0  0  0  0  0  0  0  0  0  0  0  0
  149.5079  135.8285  155.1136 H   0  0  0  0  0  0  0  0  0  0  0  0
  151.1387  135.2978  154.7484 H   0  0  0  0  0  0  0  0  0  0  0  0
  149.8071  133.2995  153.5765 H   0  0  0  0  0  0  0  0  0  0  0  0
  148.2877  133.8869  154.2440 H   0  0  0  0  0  0  0  0  0  0  0  0
  148.8215  132.2471  154.5881 H   0  0  0  0  0  0  0  0  0  0  0  0
  151.7731  132.8005  155.1292 H   0  0  0  0  0  0  0  0  0  0  0  0
  150.7730  131.8328  156.2063 H   0  0  0  0  0  0  0  0  0  0  0  0
  151.7045  133.1872  156.8349 H   0  0  0  0  0  0  0  0  0  0  0  0
  1  2  1  0  0  0  0
  1 30  1  0  0  0  0
  1 31  1  0  0  0  0
  1 32  1  0  0  0  0
  2  3  1  0  0  0  0
  3  4  1  0  0  0  0
  3 33  1  0  0  0  0
  3 34  1  0  0  0  0
  4 29  1  0  0  0  0
  4  5  1  0  0  0  0
  4 35  1  0  0  0  0
  5  6  1  0  0  0  0
  5 36  1  0  0  0  0
  5 37  1  0  0  0  0
  6  7  1  0  0  0  0
  6 25  1  0  0  0  0
  7 12  1  0  0  0  0
  7  8  2  0  0  0  0
  8  9  1  0  0  0  0
  9 10  2  0  0  0  0
  9 38  1  0  0  0  0
 10 11  1  0  0  0  0
 11 15  1  0  0  0  0
 11 12  2  0  0  0  0
 12 13  1  0  0  0  0
 13 14  2  0  0  0  0
 14 15  1  0  0  0  0
 14 39  1  0  0  0  0
 15 16  1  0  0  0  0
 16 17  1  0  0  0  0
 16 40  1  0  0  0  0
 16 41  1  0  0  0  0
 17 18  1  0  0  0  0
 17 20  1  0  0  0  0
 17 42  1  0  0  0  0
 18 19  1  0  0  0  0
 18 43  1  0  0  0  0
 18 44  1  0  0  0  0
 19 45  1  0  0  0  0
 20 24  1  0  0  0  0
 20 21  1  0  0  0  0
 20 46  1  0  0  0  0
 21 22  1  0  0  0  0
 21 47  1  0  0  0  0
 21 48  1  0  0  0  0
 22 23  1  0  0  0  0
 22 49  1  0  0  0  0
 22 50  1  0  0  0  0
 23 24  1  0  0  0  0
 24 51  1  0  0  0  0
 24 52  1  0  0  0  0
 25 26  1  0  0  0  0
 25 53  1  0  0  0  0
 25 54  1  0  0  0  0
 26 27  1  0  0  0  0
 26 28  1  0  0  0  0
 26 29  1  0  0  0  0
 27 55  1  0  0  0  0
 27 56  1  0  0  0  0
 27 57  1  0  0  0  0
 28 58  1  0  0  0  0
 28 59  1  0  0  0  0
 28 60  1  0  0  0  0
M  END
> <s_m_source_file>
AV-unprocessed.smi

> <i_m_source_file_index>
91

> <i_lp_mmshare_version>
43012

> <i_f3d_flags>
0

> <s_epik_input>
W0NIM11PW0NIMl1bQ0BASF0oTzEpW0NIMl1OKFtDSDJdQzEoW0NIM10pW0NIM10pYyhuW2NIXW4yKWMoYzIzKW5bY0hdbjNbQ0gyXVtDQEhdKFtDSDJdW09IXSlbQ0BASF00W0NIMl1bQ0gyXU9bQ0gyXTQ=

> <s_epik_cmdline>
J2VwaWtfcHl0aG9uJywgJy1waCcsICc3LjAnLCAnLXRuJywgJzgnLCAnLW1hJywgJzIwMCcsICctbWV0YWxfYmluZGluZycsICctaW1hZScsICc8aW5maWxlLm1hZT4nLCAnLW9tYWUnLCAnPG91dGZpbGUubWFlPic=

> <r_lp_tautomer_probability>
1

> <r_epik_Ionization_Penalty>
8.63591e-05

> <r_epik_Ionization_Penalty_Charging>
0

> <r_epik_Ionization_Penalty_Neutral>
8.63591e-05

> <r_epik_State_Penalty>
-0

> <r_epik_Charging_Adjusted_Penalty>
0

> <i_epik_Tot_Q>
0

> <i_epik_Tot_abs_Q>
0

> <r_epik_Metal_State_Penalty>
-0

> <b_epik_Metal_Only>
0

> <s_lp_Force_Field>
OPLS_2005

> <r_lp_Energy>
49.9364

> <b_lp_Chiralities_Consistent>
1

> <s_lp_Variant>
AV-unprocessed.smi:91-1

> <Gold.Version>
5.8.1

> <Gold.Id.Protein>
6NUR|6NUR_protein|mol2

> <Gold.PLP.Fitness>
51.9844

> <Gold.PLP.PLP>
-46.5990

> <Gold.PLP.part.hbond>
-3.0000

> <Gold.PLP.part.metal>
0.0000

> <Gold.PLP.part.buried>
-7.3359

> <Gold.PLP.part.nonpolar>
-35.6703

> <Gold.PLP.part.repulsive>
0.2849

> <Gold.PLP.ligand.clash>
0.0000

> <Gold.PLP.ligand.torsion>
1.8376

> <Gold.PLP.Chemscore.Hbond>
2.9040

> <Gold.PLP.Chemscore.CHOScore>
0.0000

> <Gold.PLP.Chemscore.Metal>
0.0000

> <Gold.Chemscore.Hbonds>
donor molecule, donor type, donor heavy atom, donor atom, acceptor molecule, acceptor atom, score
      P1  H  6896  6909       L1     2  0.06
      P1  H  7997  8009       L1    19  0.75
      P1  H  7997  8010       L1    10  0.77
      P1  H 10752 10764       L1     8  0.27

> <Gold.PLP.Chemscore.Internal.Correction>
0.3486

> <Gold.Rescore>
     Score         DG    S(hbond)    S(metal)    S(lipo)     H(rot)  DE(clash)    DE(int)     intcor
     12.43     -17.89       2.31        0.00     106.52       3.03       0.00       5.46       ----

> <Gold.Chemscore.Fitness>
12.4279

> <Gold.Chemscore.DG>
-17.8914

> <Gold.Chemscore.ZeroCoef>
-5.4800

> <Gold.Chemscore.Hbond>
2.3058

> <Gold.Chemscore.Metal>
0.0000

> <Gold.Chemscore.Lipo>
106.5204

> <Gold.Chemscore.Internal_Hbond>
0.0000

> <Gold.Chemscore.DEClash>
0.0009

> <Gold.Chemscore.DEInternal>
5.4626

> <Gold.Chemscore.Rot>
3.0284

> <Gold.Chemscore.Internal.Correction>
   9.000000E+99

> <Gold.Chemscore.Hbonds>
donor molecule, donor type, donor heavy atom, donor atom, acceptor molecule, acceptor atom, score
      P1  H  7997  8009       L1    19  0.09
      P1  H  7997  8010       L1    10  0.28
      P1  H 10752 10764       L1     8  0.11

> <Gold.Chemscore.Hbond.Weighted>
-7.7013

> <Gold.Chemscore.Metal.Weighted>
-0.0000

> <Gold.Chemscore.Lipo.Weighted>
-12.4629

> <Gold.Chemscore.Internal_Hbond.Weighted>
0.0000

> <Gold.Chemscore.DEClash.Weighted>
0.0009

> <Gold.Chemscore.DEInternal.Weighted>
5.4626

> <Gold.Chemscore.Rot.Weighted>
7.7528

> <Gold.Chemscore.Internal.Correction.Weighted>
   9.000000E+99

> <Gold.Protein.RotatedTorsions>
[ 6907 6896 6895 6894 ] final   48.83 input  -60.11 | X-H torsion
[ 7974 7965 7964 7962 ] final  113.95 input  175.53 | X-H torsion
[ 8008 7997 7996 7995 ] final  107.25 input   59.86 | X-H torsion
[ 10167 10162 10161 10158 ] final  -19.65 input  -65.29 | X-H torsion
[ 10718 10713 10712 10709 ] final  -62.59 input   66.30 | X-H torsion
[ 10763 10752 10751 10750 ] final  -60.27 input  -60.55 | X-H torsion
[ 11005 11000 10999 10996 ] final  -99.32 input  -57.11 | X-H torsion

> <Gold.Protein.ActiveResidues>
 VAL166  LYS551  ARG553  GLY616  TRP617  ASP618  TYR619  PRO620  LYS621  CYS622 
 ASP623  PHE694  ASN695  SER759  ASP760  ASP761  ALA762  ILE779  LEU786  VAL792 
 PHE793  MET794  SER795  GLU796  ALA797  LYS798  CYS799  TRP800  GLU811  SER814 

> <Gold.Protein.RotatedAtoms>
  152.2840  134.7797  160.0390 H   0  0  0  0  0  0  0  0  0  0  0  0  # atno 6907 bound_to 6896
  151.8366  133.3412  159.3638 H   0  0  0  0  0  0  0  0  0  0  0  0  # atno 6908 bound_to 6896
  150.7201  134.5360  159.5768 H   0  0  0  0  0  0  0  0  0  0  0  0  # atno 6909 bound_to 6896
  145.2105  139.2908  143.4271 H   0  0  0  0  0  0  0  0  0  0  0  0  # atno 7974 bound_to 7965
  156.1809  140.3098  155.9147 H   0  0  0  0  0  0  0  0  0  0  0  0  # atno 8008 bound_to 7997
  155.3385  140.0464  157.3061 H   0  0  0  0  0  0  0  0  0  0  0  0  # atno 8009 bound_to 7997
  154.5342  140.2240  155.8762 H   0  0  0  0  0  0  0  0  0  0  0  0  # atno 8010 bound_to 7997
  140.7270  143.4798  151.0133 H   0  0  0  0  0  0  0  0  0  0  0  0  # atno 10167 bound_to 10162
  156.0845  130.4211  150.1156 H   0  0  0  0  0  0  0  0  0  0  0  0  # atno 10718 bound_to 10713
  154.2666  135.6298  153.5294 H   0  0  0  0  0  0  0  0  0  0  0  0  # atno 10763 bound_to 10752
  152.9887  135.5600  154.5646 H   0  0  0  0  0  0  0  0  0  0  0  0  # atno 10764 bound_to 10752
  154.5206  135.2882  155.1240 H   0  0  0  0  0  0  0  0  0  0  0  0  # atno 10765 bound_to 10752
  141.1313  133.8312  157.0956 H   0  0  0  0  0  0  0  0  0  0  0  0  # atno 11005 bound_to 11000
  146.3398  140.2379  142.8595 LP  0  0  0  0  0  0  0  0  0  0  0  0  # atno 17320 bound_to 7965
  144.9860  140.8503  143.5368 LP  0  0  0  0  0  0  0  0  0  0  0  0  # atno 17321 bound_to 7965
  139.8496  143.7456  152.3178 LP  0  0  0  0  0  0  0  0  0  0  0  0  # atno 17342 bound_to 10162
  139.7633  144.7499  151.0331 LP  0  0  0  0  0  0  0  0  0  0  0  0  # atno 17343 bound_to 10162
  156.9180  130.9673  151.3553 LP  0  0  0  0  0  0  0  0  0  0  0  0  # atno 17370 bound_to 10713
  157.5975  130.8488  149.8751 LP  0  0  0  0  0  0  0  0  0  0  0  0  # atno 17371 bound_to 10713
  140.0365  134.9875  157.0881 LP  0  0  0  0  0  0  0  0  0  0  0  0  # atno 17394 bound_to 11000
  140.4202  134.1888  155.7164 LP  0  0  0  0  0  0  0  0  0  0  0  0  # atno 17395 bound_to 11000

$$$$
