AV-unprocessed.smi:65|AV-procd|sdf|611|dock2
  -GOLD-   2262016503D 1   1.00000     0.00000
 Structure written by MMmdl.
 26 27  0  0  0  0  0  0  0  0  2 V2000
  145.9581  138.8773  152.6084 N   0  0  0  0  0  0  0  0  0  0  0  0
  146.8099  139.7702  153.2133 C   0  0  0  0  0  0  0  0  0  0  0  0
  146.3417  140.9837  153.5400 N   0  3  0  0  0  0  0  0  0  0  0  0
  147.1657  141.8794  154.1373 C   0  0  0  0  0  0  0  0  0  0  0  0
  148.5037  141.5409  154.4108 C   0  0  0  0  0  0  0  0  0  0  0  0
  148.9250  140.2533  154.0356 C   0  0  0  0  0  0  0  0  0  0  0  0
  150.2442  139.8502  154.2936 N   0  0  0  0  0  0  0  0  0  0  0  0
  150.5650  139.7344  155.7143 C   0  0  0  0  0  0  0  0  0  0  0  0
  151.0127  138.2898  155.9441 C   0  0  0  0  0  0  0  0  0  0  0  0
  151.6014  137.9107  154.5912 C   0  0  1  0  0  0  0  0  0  0  0  0
  151.6227  136.5152  154.3813 O   0  0  0  0  0  0  0  0  0  0  0  0
  150.6709  138.6285  153.6141 C   0  0  0  0  0  0  0  0  0  0  0  0
  148.0690  139.3852  153.4486 N   0  0  0  0  0  0  0  0  0  0  0  0
  146.2830  137.9562  152.3515 H   0  0  0  0  0  0  0  0  0  0  0  0
  145.0122  139.1442  152.3772 H   0  0  0  0  0  0  0  0  0  0  0  0
  146.7269  142.8367  154.3775 H   0  0  0  0  0  0  0  0  0  0  0  0
  149.1752  142.2402  154.8880 H   0  0  0  0  0  0  0  0  0  0  0  0
  151.3831  140.4216  155.9323 H   0  0  0  0  0  0  0  0  0  0  0  0
  149.7315  140.0024  156.3657 H   0  0  0  0  0  0  0  0  0  0  0  0
  151.7219  138.1886  156.7662 H   0  0  0  0  0  0  0  0  0  0  0  0
  150.1428  137.6693  156.1663 H   0  0  0  0  0  0  0  0  0  0  0  0
  152.6128  138.3103  154.5028 H   0  0  0  0  0  0  0  0  0  0  0  0
  151.4246  136.3442  153.4731 H   0  0  0  0  0  0  0  0  0  0  0  0
  149.8179  137.9936  153.3698 H   0  0  0  0  0  0  0  0  0  0  0  0
  151.1817  138.8625  152.6797 H   0  0  0  0  0  0  0  0  0  0  0  0
  145.3740  141.2426  153.3460 H   0  0  0  0  0  0  0  0  0  0  0  0
  1  2  1  0  0  0  0
  1 14  1  0  0  0  0
  1 15  1  0  0  0  0
  2 13  1  0  0  0  0
  2  3  2  0  0  0  0
  3  4  1  0  0  0  0
  3 26  1  0  0  0  0
  4  5  2  0  0  0  0
  4 16  1  0  0  0  0
  5  6  1  0  0  0  0
  5 17  1  0  0  0  0
  6  7  1  0  0  0  0
  6 13  2  0  0  0  0
  7 12  1  0  0  0  0
  7  8  1  0  0  0  0
  8  9  1  0  0  0  0
  8 18  1  0  0  0  0
  8 19  1  0  0  0  0
  9 10  1  0  0  0  0
  9 20  1  0  0  0  0
  9 21  1  0  0  0  0
 10 11  1  0  0  0  0
 10 12  1  0  0  0  0
 10 22  1  0  0  0  0
 11 23  1  0  0  0  0
 12 24  1  0  0  0  0
 12 25  1  0  0  0  0
M  CHG  1   3   1
M  END
> <s_m_source_file>
AV-unprocessed.smi

> <i_m_source_file_index>
65

> <i_lp_mmshare_version>
43012

> <i_f3d_flags>
0

> <s_epik_input>
W05IMl1jMW5bY0hdW2NIXWMobjEpTjJbQ0gyXVtDSDJdW0NAQEhdKFtPSF0pW0NIMl0y

> <s_epik_cmdline>
J2VwaWtfcHl0aG9uJywgJy1waCcsICc3LjAnLCAnLXRuJywgJzgnLCAnLW1hJywgJzIwMCcsICctbWV0YWxfYmluZGluZycsICctaW1hZScsICc8aW5maWxlLm1hZT4nLCAnLW9tYWUnLCAnPG91dGZpbGUubWFlPic=

> <r_lp_tautomer_probability>
0.575011

> <r_epik_Ionization_Penalty>
0.212468

> <r_epik_Ionization_Penalty_Charging>
0.212464

> <r_epik_Ionization_Penalty_Neutral>
4.40197e-06

> <r_epik_State_Penalty>
0.43682

> <r_epik_Charging_Adjusted_Penalty>
0.649284

> <i_epik_Tot_Q>
1

> <i_epik_Tot_abs_Q>
1

> <r_epik_Metal_State_Penalty>
0.733762

> <b_epik_Metal_Only>
0

> <s_lp_Force_Field>
OPLS_2005

> <r_lp_Energy>
27.649

> <b_lp_Chiralities_Consistent>
1

> <s_lp_Variant>
AV-unprocessed.smi:65-1

> <Gold.Version>
5.8.1

> <Gold.Id.Protein>
6NUR|6NUR_protein|mol2

> <Gold.PLP.Fitness>
39.4837

> <Gold.PLP.PLP>
-21.1537

> <Gold.PLP.part.hbond>
-5.0000

> <Gold.PLP.part.metal>
0.0000

> <Gold.PLP.part.buried>
-1.0980

> <Gold.PLP.part.nonpolar>
-16.9330

> <Gold.PLP.part.repulsive>
2.0664

> <Gold.PLP.ligand.clash>
0.0000

> <Gold.PLP.ligand.torsion>
0.2013

> <Gold.PLP.Chemscore.Hbond>
6.2270

> <Gold.PLP.Chemscore.CHOScore>
0.0000

> <Gold.PLP.Chemscore.Metal>
0.0000

> <Gold.Chemscore.Hbonds>
donor molecule, donor type, donor heavy atom, donor atom, acceptor molecule, acceptor atom, score
      L1  H     1    15       P1 10175  1.92
      L1  H     3    26       P1 10175  1.65
      L1  H    11    23       P1  7949  1.00
      P1  H  7989  7998       L1     7  0.60
      P1  H 10752 10764       L1    11  0.99

> <Gold.PLP.Chemscore.Internal.Correction>
0.0515

> <Gold.Rescore>
     Score         DG    S(hbond)    S(metal)    S(lipo)     H(rot)  DE(clash)    DE(int)     intcor
     14.93     -15.08       2.74        0.00      37.99       1.56       0.10       0.05       ----

> <Gold.Chemscore.Fitness>
14.9330

> <Gold.Chemscore.DG>
-15.0811

> <Gold.Chemscore.ZeroCoef>
-5.4800

> <Gold.Chemscore.Hbond>
2.7425

> <Gold.Chemscore.Metal>
0.0000

> <Gold.Chemscore.Lipo>
37.9923

> <Gold.Chemscore.Internal_Hbond>
0.0000

> <Gold.Chemscore.DEClash>
0.0961

> <Gold.Chemscore.DEInternal>
0.0520

> <Gold.Chemscore.Rot>
1.5640

> <Gold.Chemscore.Internal.Correction>
   9.000000E+99

> <Gold.Chemscore.Hbonds>
donor molecule, donor type, donor heavy atom, donor atom, acceptor molecule, acceptor atom, score
      L1  H     1    15       P1 10175  0.92
      L1  H     3    26       P1 10175  0.19
      L1  H    11    23       P1  7949  0.73
      P1  H  7989  7998       L1     7  0.03
      P1  H 10752 10764       L1    11  0.37

> <Gold.Chemscore.Hbond.Weighted>
-9.1598

> <Gold.Chemscore.Metal.Weighted>
-0.0000

> <Gold.Chemscore.Lipo.Weighted>
-4.4451

> <Gold.Chemscore.Internal_Hbond.Weighted>
0.0000

> <Gold.Chemscore.DEClash.Weighted>
0.0961

> <Gold.Chemscore.DEInternal.Weighted>
0.0520

> <Gold.Chemscore.Rot.Weighted>
4.0038

> <Gold.Chemscore.Internal.Correction.Weighted>
   9.000000E+99

> <Gold.Protein.RotatedTorsions>
[ 6907 6896 6895 6894 ] final -140.96 input  -60.11 | X-H torsion
[ 7974 7965 7964 7962 ] final -114.11 input  175.53 | X-H torsion
[ 8008 7997 7996 7995 ] final  113.41 input   59.86 | X-H torsion
[ 10167 10162 10161 10158 ] final -114.33 input  -65.29 | X-H torsion
[ 10718 10713 10712 10709 ] final  -21.15 input   66.30 | X-H torsion
[ 10763 10752 10751 10750 ] final  -54.03 input  -60.55 | X-H torsion
[ 11005 11000 10999 10996 ] final  -67.92 input  -57.11 | X-H torsion

> <Gold.Protein.ActiveResidues>
 VAL166  LYS551  ARG553  GLY616  TRP617  ASP618  TYR619  PRO620  LYS621  CYS622 
 ASP623  PHE694  ASN695  SER759  ASP760  ASP761  ALA762  ILE779  LEU786  VAL792 
 PHE793  MET794  SER795  GLU796  ALA797  LYS798  CYS799  TRP800  GLU811  SER814 

> <Gold.Protein.RotatedAtoms>
  151.0676  133.5493  159.2629 H   0  0  0  0  0  0  0  0  0  0  0  0  # atno 6907 bound_to 6896
  151.2444  135.0599  159.9047 H   0  0  0  0  0  0  0  0  0  0  0  0  # atno 6908 bound_to 6896
  152.5407  134.0446  159.8136 H   0  0  0  0  0  0  0  0  0  0  0  0  # atno 6909 bound_to 6896
  145.1241  140.8686  143.3796 H   0  0  0  0  0  0  0  0  0  0  0  0  # atno 7974 bound_to 7965
  156.2256  140.2980  156.0059 H   0  0  0  0  0  0  0  0  0  0  0  0  # atno 8008 bound_to 7997
  155.2365  140.0421  157.2986 H   0  0  0  0  0  0  0  0  0  0  0  0  # atno 8009 bound_to 7997
  154.5910  140.2401  155.7928 H   0  0  0  0  0  0  0  0  0  0  0  0  # atno 8010 bound_to 7997
  140.1022  143.4603  152.1805 H   0  0  0  0  0  0  0  0  0  0  0  0  # atno 10167 bound_to 10162
  156.5221  130.4635  149.6591 H   0  0  0  0  0  0  0  0  0  0  0  0  # atno 10718 bound_to 10713
  154.1683  135.6463  153.5003 H   0  0  0  0  0  0  0  0  0  0  0  0  # atno 10763 bound_to 10752
  153.0091  135.5377  154.6639 H   0  0  0  0  0  0  0  0  0  0  0  0  # atno 10764 bound_to 10752
  154.5971  135.2940  155.0546 H   0  0  0  0  0  0  0  0  0  0  0  0  # atno 10765 bound_to 10752
  141.1520  133.6729  156.6366 H   0  0  0  0  0  0  0  0  0  0  0  0  # atno 11005 bound_to 11000
  145.0708  139.3033  143.5833 LP  0  0  0  0  0  0  0  0  0  0  0  0  # atno 17320 bound_to 7965
  146.3519  140.0182  142.8661 LP  0  0  0  0  0  0  0  0  0  0  0  0  # atno 17321 bound_to 7965
  139.5665  144.7438  151.4008 LP  0  0  0  0  0  0  0  0  0  0  0  0  # atno 17342 bound_to 10162
  140.6972  143.7721  150.7345 LP  0  0  0  0  0  0  0  0  0  0  0  0  # atno 17343 bound_to 10162
  156.3139  130.7244  151.2142 LP  0  0  0  0  0  0  0  0  0  0  0  0  # atno 17370 bound_to 10713
  157.7435  131.0474  150.4941 LP  0  0  0  0  0  0  0  0  0  0  0  0  # atno 17371 bound_to 10713
  140.3425  134.7837  157.4408 LP  0  0  0  0  0  0  0  0  0  0  0  0  # atno 17394 bound_to 11000
  140.0926  134.5580  155.8429 LP  0  0  0  0  0  0  0  0  0  0  0  0  # atno 17395 bound_to 11000

$$$$
