AV-unprocessed.smi:513|AV-procd|sdf|2775|dock6
  -GOLD-   2262023243D 1   1.00000     0.00000
 Structure written by MMmdl.
 41 43  0  0  0  0  0  0  0  0  2 V2000
  154.8499  135.4160  157.7162 C   0  0  0  0  0  0  0  0  0  0  0  0
  153.7801  136.1014  157.0914 O   0  0  0  0  0  0  0  0  0  0  0  0
  153.8196  137.5004  157.3189 C   0  0  0  0  0  0  0  0  0  0  0  0
  152.3957  138.0569  157.4686 C   0  0  0  0  0  0  0  0  0  0  0  0
  152.3868  139.4219  157.9885 N   0  0  0  0  0  0  0  0  0  0  0  0
  151.8701  140.5226  157.3877 C   0  0  0  0  0  0  0  0  0  0  0  0
  151.2555  140.4326  156.1442 N   0  0  0  0  0  0  0  0  0  0  0  0
  150.2459  141.3641  155.6546 C   0  0  0  0  0  0  0  0  0  0  0  0
  149.1128  140.6226  154.9191 C   0  0  0  0  0  0  0  0  0  0  0  0
  149.6599  139.8908  153.7819 N   0  0  0  0  0  0  0  0  0  0  0  0
  150.6347  138.9270  154.2802 C   0  0  0  0  0  0  0  0  0  0  0  0
  151.7704  139.6653  155.0160 C   0  0  0  0  0  0  0  0  0  0  0  0
  151.9963  141.6571  158.0765 N   0  0  0  0  0  0  0  0  0  0  0  0
  152.6567  141.2386  159.2229 C   0  0  0  0  0  0  0  0  0  0  0  0
  152.9049  139.9012  159.1954 C   0  0  0  0  0  0  0  0  0  0  0  0
  153.6012  139.1730  160.2783 C   0  0  0  0  0  0  0  0  0  0  0  0
  153.8016  137.9625  160.2051 O   0  0  0  0  0  0  0  0  0  0  0  0
  153.9642  140.0033  161.3070 N   0  5  0  0  0  0  0  0  0  0  0  0
  153.7318  141.3607  161.3764 C   0  0  0  0  0  0  0  0  0  0  0  0
  154.0979  142.0273  162.3447 O   0  0  0  0  0  0  0  0  0  0  0  0
  153.0792  141.9932  160.3488 N   0  0  0  0  0  0  0  0  0  0  0  0
  152.7888  143.4303  160.3485 C   0  0  0  0  0  0  0  0  0  0  0  0
  154.7742  134.3495  157.5043 H   0  0  0  0  0  0  0  0  0  0  0  0
  154.8225  135.5479  158.7985 H   0  0  0  0  0  0  0  0  0  0  0  0
  155.8137  135.7654  157.3439 H   0  0  0  0  0  0  0  0  0  0  0  0
  154.3957  137.7082  158.2209 H   0  0  0  0  0  0  0  0  0  0  0  0
  154.3239  137.9985  156.4898 H   0  0  0  0  0  0  0  0  0  0  0  0
  151.8908  138.0410  156.5028 H   0  0  0  0  0  0  0  0  0  0  0  0
  151.7977  137.4160  158.1137 H   0  0  0  0  0  0  0  0  0  0  0  0
  149.8346  141.9203  156.4976 H   0  0  0  0  0  0  0  0  0  0  0  0
  150.7164  142.0956  154.9961 H   0  0  0  0  0  0  0  0  0  0  0  0
  148.5970  139.9359  155.5918 H   0  0  0  0  0  0  0  0  0  0  0  0
  148.3714  141.3355  154.5579 H   0  0  0  0  0  0  0  0  0  0  0  0
  148.9159  139.4039  153.3030 H   0  0  0  0  0  0  0  0  0  0  0  0
  150.1437  138.2108  154.9403 H   0  0  0  0  0  0  0  0  0  0  0  0
  151.0373  138.3638  153.4382 H   0  0  0  0  0  0  0  0  0  0  0  0
  152.2985  140.3334  154.3343 H   0  0  0  0  0  0  0  0  0  0  0  0
  152.5041  138.9446  155.3787 H   0  0  0  0  0  0  0  0  0  0  0  0
  153.1216  143.9584  161.2424 H   0  0  0  0  0  0  0  0  0  0  0  0
  151.7139  143.5905  160.2597 H   0  0  0  0  0  0  0  0  0  0  0  0
  153.2696  143.9048  159.4926 H   0  0  0  0  0  0  0  0  0  0  0  0
  1  2  1  0  0  0  0
  1 23  1  0  0  0  0
  1 24  1  0  0  0  0
  1 25  1  0  0  0  0
  2  3  1  0  0  0  0
  3  4  1  0  0  0  0
  3 26  1  0  0  0  0
  3 27  1  0  0  0  0
  4  5  1  0  0  0  0
  4 28  1  0  0  0  0
  4 29  1  0  0  0  0
  5 15  1  0  0  0  0
  5  6  1  0  0  0  0
  6  7  1  0  0  0  0
  6 13  2  0  0  0  0
  7 12  1  0  0  0  0
  7  8  1  0  0  0  0
  8  9  1  0  0  0  0
  8 30  1  0  0  0  0
  8 31  1  0  0  0  0
  9 10  1  0  0  0  0
  9 32  1  0  0  0  0
  9 33  1  0  0  0  0
 10 11  1  0  0  0  0
 10 34  1  0  0  0  0
 11 12  1  0  0  0  0
 11 35  1  0  0  0  0
 11 36  1  0  0  0  0
 12 37  1  0  0  0  0
 12 38  1  0  0  0  0
 13 14  1  0  0  0  0
 14 21  1  0  0  0  0
 14 15  2  0  0  0  0
 15 16  1  0  0  0  0
 16 17  2  0  0  0  0
 16 18  1  0  0  0  0
 18 19  1  0  0  0  0
 19 20  2  0  0  0  0
 19 21  1  0  0  0  0
 21 22  1  0  0  0  0
 22 39  1  0  0  0  0
 22 40  1  0  0  0  0
 22 41  1  0  0  0  0
M  CHG  1  18  -1
M  END
> <s_m_source_file>
AV-unprocessed.smi

> <i_m_source_file_index>
513

> <i_lp_mmshare_version>
43012

> <i_f3d_flags>
0

> <s_epik_input>
W0NIM11uMWMoPU8pW25IXWMoPU8pYyhjMTIpbihbQ0gyXVtDSDJdT1tDSDNdKWMobjIpTjNbQ0gyXVtDSDJdW05IXVtDSDJdW0NIMl0z

> <s_epik_cmdline>
J2VwaWtfcHl0aG9uJywgJy1waCcsICc3LjAnLCAnLXRuJywgJzgnLCAnLW1hJywgJzIwMCcsICctbWV0YWxfYmluZGluZycsICctaW1hZScsICc8aW5maWxlLm1hZT4nLCAnLW9tYWUnLCAnPG91dGZpbGUubWFlPic=

> <r_epik_Ionization_Penalty>
8.82084

> <r_epik_Ionization_Penalty_Charging>
0.08198

> <r_epik_Ionization_Penalty_Neutral>
8.73886

> <r_epik_State_Penalty>
8.90453

> <r_epik_Charging_Adjusted_Penalty>
8.98651

> <i_epik_Tot_Q>
-1

> <i_epik_Tot_abs_Q>
1

> <r_epik_Metal_State_Penalty>
4.85612

> <b_epik_Metal_Only>
1

> <s_lp_Force_Field>
OPLS_2005

> <r_lp_Energy>
54.8501

> <b_lp_Chiralities_Consistent>
1

> <s_lp_Variant>
AV-unprocessed.smi:513-4

> <Gold.Version>
5.8.1

> <Gold.Id.Protein>
6NUR|6NUR_protein|mol2

> <Gold.PLP.Fitness>
41.9447

> <Gold.PLP.PLP>
-39.5283

> <Gold.PLP.part.hbond>
-4.0000

> <Gold.PLP.part.metal>
0.0000

> <Gold.PLP.part.buried>
-2.6929

> <Gold.PLP.part.nonpolar>
-32.6341

> <Gold.PLP.part.repulsive>
0.0126

> <Gold.PLP.ligand.clash>
0.0395

> <Gold.PLP.ligand.torsion>
0.7774

> <Gold.PLP.Chemscore.Hbond>
1.0000

> <Gold.PLP.Chemscore.CHOScore>
0.0000

> <Gold.PLP.Chemscore.Metal>
0.0000

> <Gold.Chemscore.Hbonds>
donor molecule, donor type, donor heavy atom, donor atom, acceptor molecule, acceptor atom, score
      P1  H 10752 10764       L1     2  1.00

> <Gold.PLP.Chemscore.Internal.Correction>
1.0107

> <Gold.Rescore>
     Score         DG    S(hbond)    S(metal)    S(lipo)     H(rot)  DE(clash)    DE(int)     intcor
      8.27     -11.22       0.79        0.00      59.99       1.53       0.43       2.51       ----

> <Gold.Chemscore.Fitness>
8.2743

> <Gold.Chemscore.DG>
-11.2232

> <Gold.Chemscore.ZeroCoef>
-5.4800

> <Gold.Chemscore.Hbond>
0.7943

> <Gold.Chemscore.Metal>
0.0000

> <Gold.Chemscore.Lipo>
59.9917

> <Gold.Chemscore.Internal_Hbond>
0.0000

> <Gold.Chemscore.DEClash>
0.4347

> <Gold.Chemscore.DEInternal>
2.5142

> <Gold.Chemscore.Rot>
1.5348

> <Gold.Chemscore.Internal.Correction>
   9.000000E+99

> <Gold.Chemscore.Hbonds>
donor molecule, donor type, donor heavy atom, donor atom, acceptor molecule, acceptor atom, score
      P1  H 10752 10764       L1     2  0.58

> <Gold.Chemscore.Hbond.Weighted>
-2.6531

> <Gold.Chemscore.Metal.Weighted>
-0.0000

> <Gold.Chemscore.Lipo.Weighted>
-7.0190

> <Gold.Chemscore.Internal_Hbond.Weighted>
0.0000

> <Gold.Chemscore.DEClash.Weighted>
0.4347

> <Gold.Chemscore.DEInternal.Weighted>
2.5142

> <Gold.Chemscore.Rot.Weighted>
3.9290

> <Gold.Chemscore.Internal.Correction.Weighted>
   9.000000E+99

> <Gold.Protein.RotatedTorsions>
[ 6907 6896 6895 6894 ] final -164.97 input  -60.11 | X-H torsion
[ 7974 7965 7964 7962 ] final -140.45 input  175.53 | X-H torsion
[ 8008 7997 7996 7995 ] final  157.20 input   59.86 | X-H torsion
[ 10167 10162 10161 10158 ] final -175.95 input  -65.29 | X-H torsion
[ 10718 10713 10712 10709 ] final  154.43 input   66.30 | X-H torsion
[ 10763 10752 10751 10750 ] final   -0.19 input  -60.55 | X-H torsion
[ 11005 11000 10999 10996 ] final  -66.41 input  -57.11 | X-H torsion

> <Gold.Protein.ActiveResidues>
 VAL166  LYS551  ARG553  GLY616  TRP617  ASP618  TYR619  PRO620  LYS621  CYS622 
 ASP623  PHE694  ASN695  SER759  ASP760  ASP761  ALA762  ILE779  LEU786  VAL792 
 PHE793  MET794  SER795  GLU796  ALA797  LYS798  CYS799  TRP800  GLU811  SER814 

> <Gold.Protein.RotatedAtoms>
  151.4203  133.3700  159.2754 H   0  0  0  0  0  0  0  0  0  0  0  0  # atno 6907 bound_to 6896
  150.9298  134.8715  159.7555 H   0  0  0  0  0  0  0  0  0  0  0  0  # atno 6908 bound_to 6896
  152.5023  134.4147  159.9512 H   0  0  0  0  0  0  0  0  0  0  0  0  # atno 6909 bound_to 6896
  144.8596  140.6198  143.5337 H   0  0  0  0  0  0  0  0  0  0  0  0  # atno 7974 bound_to 7965
  156.2378  140.1891  156.7073 H   0  0  0  0  0  0  0  0  0  0  0  0  # atno 8008 bound_to 7997
  154.6138  140.0618  156.9555 H   0  0  0  0  0  0  0  0  0  0  0  0  # atno 8009 bound_to 7997
  155.1972  140.3289  155.4351 H   0  0  0  0  0  0  0  0  0  0  0  0  # atno 8010 bound_to 7997
  139.5554  144.2002  152.1150 H   0  0  0  0  0  0  0  0  0  0  0  0  # atno 10167 bound_to 10162
  157.2317  131.0740  151.1849 H   0  0  0  0  0  0  0  0  0  0  0  0  # atno 10718 bound_to 10713
  153.3287  135.6974  153.6967 H   0  0  0  0  0  0  0  0  0  0  0  0  # atno 10763 bound_to 10752
  153.5778  135.3504  155.2864 H   0  0  0  0  0  0  0  0  0  0  0  0  # atno 10764 bound_to 10752
  154.8613  135.4288  154.2470 H   0  0  0  0  0  0  0  0  0  0  0  0  # atno 10765 bound_to 10752
  141.1481  133.6699  156.6135 H   0  0  0  0  0  0  0  0  0  0  0  0  # atno 11005 bound_to 11000
  145.4338  139.1545  143.4008 LP  0  0  0  0  0  0  0  0  0  0  0  0  # atno 17320 bound_to 7965
  146.2850  140.4456  142.8761 LP  0  0  0  0  0  0  0  0  0  0  0  0  # atno 17321 bound_to 7965
  140.1505  144.5119  150.6690 LP  0  0  0  0  0  0  0  0  0  0  0  0  # atno 17342 bound_to 10162
  140.6826  143.2334  151.5344 LP  0  0  0  0  0  0  0  0  0  0  0  0  # atno 17343 bound_to 10162
  157.3471  130.7063  149.6417 LP  0  0  0  0  0  0  0  0  0  0  0  0  # atno 17370 bound_to 10713
  155.9675  130.4263  150.4693 LP  0  0  0  0  0  0  0  0  0  0  0  0  # atno 17371 bound_to 10713
  140.3596  134.7699  157.4524 LP  0  0  0  0  0  0  0  0  0  0  0  0  # atno 17394 bound_to 11000
  140.0796  134.5750  155.8555 LP  0  0  0  0  0  0  0  0  0  0  0  0  # atno 17395 bound_to 11000

$$$$
