AV-unprocessed.smi:1005|AV-procd|sdf|4373|dock6
  -GOLD-   22720 2283D 1   1.00000     0.00000
 Structure written by MMmdl.
 57 59  0  0  0  0  0  0  0  0  3 V2000
  152.6722  143.0425  161.0675 C   0  0  0  0  0  0  0  0  0  0  0  0
  152.4796  142.2066  159.8144 C   0  0  0  0  0  0  0  0  0  0  0  0
  151.5146  142.6069  158.8629 C   0  0  0  0  0  0  0  0  0  0  0  0
  151.3068  141.8591  157.6836 C   0  0  0  0  0  0  0  0  0  0  0  0
  150.4312  142.0644  156.6313 N   0  0  0  0  0  0  0  0  0  0  0  0
  150.7143  141.0336  155.8409 C   0  0  0  0  0  0  0  0  0  0  0  0
  151.6821  140.1906  156.2505 N   0  0  0  0  0  0  0  0  0  0  0  0
  152.1740  139.0158  155.5535 C   0  0  0  0  0  0  0  0  0  0  0  0
  151.1392  138.4402  154.5658 C   0  0  1  0  0  0  0  0  0  0  0  0
  151.6633  137.2403  154.0341 O   0  0  0  0  0  0  0  0  0  0  0  0
  149.7715  138.1367  155.2164 C   0  0  0  0  0  0  0  0  0  0  0  0
  148.6606  138.1390  154.2313 N   0  3  2  0  0  0  0  0  0  0  0  0
  148.5336  139.4154  153.4857 C   0  0  0  0  0  0  0  0  0  0  0  0
  147.3887  139.3261  152.4645 C   0  0  0  0  0  0  0  0  0  0  0  0
  146.1800  138.9894  153.1349 O   0  0  0  0  0  0  0  0  0  0  0  0
  146.2464  137.7200  153.7758 C   0  0  2  0  0  0  0  0  0  0  0  0
  144.8562  137.4424  154.3829 C   0  0  0  0  0  0  0  0  0  0  0  0
  143.7595  137.4585  153.3801 N   0  3  0  0  0  0  0  0  0  0  0  0
  142.4078  137.4267  153.9857 C   0  0  0  0  0  0  0  0  0  0  0  0
  143.9217  136.3953  152.3637 C   0  0  0  0  0  0  0  0  0  0  0  0
  147.3621  137.7661  154.8419 C   0  0  0  0  0  0  0  0  0  0  0  0
  152.0985  140.6913  157.4795 C   0  0  0  0  0  0  0  0  0  0  0  0
  153.0579  140.2796  158.4214 C   0  0  0  0  0  0  0  0  0  0  0  0
  153.2529  141.0386  159.5941 C   0  0  0  0  0  0  0  0  0  0  0  0
  154.2935  140.5876  160.6039 C   0  0  0  0  0  0  0  0  0  0  0  0
  151.9903  143.8932  161.0878 H   0  0  0  0  0  0  0  0  0  0  0  0
  153.6907  143.4290  161.1154 H   0  0  0  0  0  0  0  0  0  0  0  0
  152.4859  142.4441  161.9593 H   0  0  0  0  0  0  0  0  0  0  0  0
  150.9239  143.4954  159.0315 H   0  0  0  0  0  0  0  0  0  0  0  0
  150.1962  140.8898  154.9039 H   0  0  0  0  0  0  0  0  0  0  0  0
  153.0901  139.2911  155.0289 H   0  0  0  0  0  0  0  0  0  0  0  0
  152.4507  138.2639  156.2943 H   0  0  0  0  0  0  0  0  0  0  0  0
  151.0196  139.1444  153.7437 H   0  0  0  0  0  0  0  0  0  0  0  0
  151.3254  137.1257  153.1583 H   0  0  0  0  0  0  0  0  0  0  0  0
  149.8320  137.1633  155.7060 H   0  0  0  0  0  0  0  0  0  0  0  0
  149.5378  138.8553  156.0031 H   0  0  0  0  0  0  0  0  0  0  0  0
  148.3433  140.2318  154.1846 H   0  0  0  0  0  0  0  0  0  0  0  0
  149.4616  139.6519  152.9662 H   0  0  0  0  0  0  0  0  0  0  0  0
  147.2584  140.2851  151.9627 H   0  0  0  0  0  0  0  0  0  0  0  0
  147.6105  138.5893  151.6909 H   0  0  0  0  0  0  0  0  0  0  0  0
  146.4809  136.9678  153.0219 H   0  0  0  0  0  0  0  0  0  0  0  0
  144.8865  136.4683  154.8736 H   0  0  0  0  0  0  0  0  0  0  0  0
  144.6339  138.1683  155.1669 H   0  0  0  0  0  0  0  0  0  0  0  0
  142.2570  136.5107  154.5586 H   0  0  0  0  0  0  0  0  0  0  0  0
  141.6410  137.4710  153.2115 H   0  0  0  0  0  0  0  0  0  0  0  0
  142.2444  138.2754  154.6483 H   0  0  0  0  0  0  0  0  0  0  0  0
  143.8781  135.4060  152.8214 H   0  0  0  0  0  0  0  0  0  0  0  0
  144.8783  136.4933  151.8492 H   0  0  0  0  0  0  0  0  0  0  0  0
  143.1365  136.4578  151.6094 H   0  0  0  0  0  0  0  0  0  0  0  0
  147.4555  136.7904  155.3203 H   0  0  0  0  0  0  0  0  0  0  0  0
  147.1102  138.4847  155.6239 H   0  0  0  0  0  0  0  0  0  0  0  0
  153.6389  139.3870  158.2441 H   0  0  0  0  0  0  0  0  0  0  0  0
  154.7904  139.6719  160.2822 H   0  0  0  0  0  0  0  0  0  0  0  0
  153.8285  140.3932  161.5709 H   0  0  0  0  0  0  0  0  0  0  0  0
  155.0571  141.3549  160.7341 H   0  0  0  0  0  0  0  0  0  0  0  0
  143.8352  138.3315  152.8780 H   0  0  0  0  0  0  0  0  0  0  0  0
  148.8785  137.4185  153.5571 H   0  0  0  0  0  0  0  0  0  0  0  0
  1  2  1  0  0  0  0
  1 26  1  0  0  0  0
  1 27  1  0  0  0  0
  1 28  1  0  0  0  0
  2 24  1  0  0  0  0
  2  3  2  0  0  0  0
  3  4  1  0  0  0  0
  3 29  1  0  0  0  0
  4 22  2  0  0  0  0
  4  5  1  0  0  0  0
  5  6  2  0  0  0  0
  6  7  1  0  0  0  0
  6 30  1  0  0  0  0
  7  8  1  0  0  0  0
  7 22  1  0  0  0  0
  8  9  1  0  0  0  0
  8 31  1  0  0  0  0
  8 32  1  0  0  0  0
  9 10  1  0  0  0  0
  9 11  1  0  0  0  0
  9 33  1  0  0  0  0
 10 34  1  0  0  0  0
 11 12  1  0  0  0  0
 11 35  1  0  0  0  0
 11 36  1  0  0  0  0
 12 21  1  0  0  0  0
 12 13  1  0  0  0  0
 12 57  1  0  0  0  0
 13 14  1  0  0  0  0
 13 37  1  0  0  0  0
 13 38  1  0  0  0  0
 14 15  1  0  0  0  0
 14 39  1  0  0  0  0
 14 40  1  0  0  0  0
 15 16  1  0  0  0  0
 16 17  1  0  0  0  0
 16 21  1  0  0  0  0
 16 41  1  0  0  0  0
 17 18  1  0  0  0  0
 17 42  1  0  0  0  0
 17 43  1  0  0  0  0
 18 19  1  0  0  0  0
 18 20  1  0  0  0  0
 18 56  1  0  0  0  0
 19 44  1  0  0  0  0
 19 45  1  0  0  0  0
 19 46  1  0  0  0  0
 20 47  1  0  0  0  0
 20 48  1  0  0  0  0
 20 49  1  0  0  0  0
 21 50  1  0  0  0  0
 21 51  1  0  0  0  0
 22 23  1  0  0  0  0
 23 24  2  0  0  0  0
 23 52  1  0  0  0  0
 24 25  1  0  0  0  0
 25 53  1  0  0  0  0
 25 54  1  0  0  0  0
 25 55  1  0  0  0  0
M  CHG  1  12   1
M  CHG  1  18   1
M  END
> <s_m_source_file>
AV-unprocessed.smi

> <i_m_source_file_index>
1005

> <i_lp_mmshare_version>
43012

> <i_f3d_flags>
0

> <s_epik_input>
W0NIM11jKFtjSF0xKWMoW0NIM10pW2NIXWMoYzEyKW4oW2NIXW4yKVtDSDJdW0NASF0oW09IXSlbQ0gyXU4zW0NIMl1bQ0gyXU9bQ0BIXShbQ0gyXTMpW0NIMl1OKFtDSDNdKVtDSDNd

> <s_epik_cmdline>
J2VwaWtfcHl0aG9uJywgJy1waCcsICc3LjAnLCAnLXRuJywgJzgnLCAnLW1hJywgJzIwMCcsICctbWV0YWxfYmluZGluZycsICctaW1hZScsICc8aW5maWxlLm1hZT4nLCAnLW9tYWUnLCAnPG91dGZpbGUubWFlPic=

> <r_epik_Ionization_Penalty>
1.0968

> <r_epik_Ionization_Penalty_Charging>
1.0096

> <r_epik_Ionization_Penalty_Neutral>
0.0871956

> <r_epik_State_Penalty>
1.31185

> <r_epik_Charging_Adjusted_Penalty>
2.32145

> <i_epik_Tot_Q>
2

> <i_epik_Tot_abs_Q>
2

> <r_epik_Metal_State_Penalty>
1.22442

> <b_epik_Metal_Only>
0

> <s_lp_Force_Field>
OPLS_2005

> <r_lp_Energy>
33.9928

> <b_lp_Chiralities_Consistent>
1

> <s_lp_Variant>
AV-unprocessed.smi:1005-12

> <Gold.Version>
5.8.1

> <Gold.Id.Protein>
6NUR|6NUR_protein|mol2

> <Gold.PLP.Fitness>
57.1763

> <Gold.PLP.PLP>
-40.3831

> <Gold.PLP.part.hbond>
-4.0000

> <Gold.PLP.part.metal>
0.0000

> <Gold.PLP.part.buried>
1.7451

> <Gold.PLP.part.nonpolar>
-40.1693

> <Gold.PLP.part.repulsive>
1.5037

> <Gold.PLP.ligand.clash>
0.0000

> <Gold.PLP.ligand.torsion>
0.6448

> <Gold.PLP.Chemscore.Hbond>
6.0000

> <Gold.PLP.Chemscore.CHOScore>
0.0000

> <Gold.PLP.Chemscore.Metal>
0.0000

> <Gold.Chemscore.Hbonds>
donor molecule, donor type, donor heavy atom, donor atom, acceptor molecule, acceptor atom, score
      L1  H    10    34       P1  7949  0.99
      L1  H    12    57       P1  7948  1.89
      L1  H    18    56       P1 10175  1.40
      P1  H 10752 10765       L1    10  0.98

> <Gold.PLP.Chemscore.Internal.Correction>
0.0828

> <Gold.Rescore>
     Score         DG    S(hbond)    S(metal)    S(lipo)     H(rot)  DE(clash)    DE(int)     intcor
     20.16     -24.54       3.55        0.00     115.92       2.48       3.71       0.67       ----

> <Gold.Chemscore.Fitness>
20.1559

> <Gold.Chemscore.DG>
-24.5376

> <Gold.Chemscore.ZeroCoef>
-5.4800

> <Gold.Chemscore.Hbond>
3.5469

> <Gold.Chemscore.Metal>
0.0000

> <Gold.Chemscore.Lipo>
115.9247

> <Gold.Chemscore.Internal_Hbond>
0.0000

> <Gold.Chemscore.DEClash>
3.7113

> <Gold.Chemscore.DEInternal>
0.6705

> <Gold.Chemscore.Rot>
2.4814

> <Gold.Chemscore.Internal.Correction>
   9.000000E+99

> <Gold.Chemscore.Hbonds>
donor molecule, donor type, donor heavy atom, donor atom, acceptor molecule, acceptor atom, score
      L1  H    10    34       P1  7949  0.65
      L1  H    12    57       P1  7948  0.90
      L1  H    18    56       P1 10175  0.68
      P1  H 10752 10765       L1    10  0.41

> <Gold.Chemscore.Hbond.Weighted>
-11.8468

> <Gold.Chemscore.Metal.Weighted>
-0.0000

> <Gold.Chemscore.Lipo.Weighted>
-13.5632

> <Gold.Chemscore.Internal_Hbond.Weighted>
0.0000

> <Gold.Chemscore.DEClash.Weighted>
3.7113

> <Gold.Chemscore.DEInternal.Weighted>
0.6705

> <Gold.Chemscore.Rot.Weighted>
6.3524

> <Gold.Chemscore.Internal.Correction.Weighted>
   9.000000E+99

> <Gold.Protein.RotatedTorsions>
[ 6907 6896 6895 6894 ] final  -14.36 input  -60.11 | X-H torsion
[ 7974 7965 7964 7962 ] final  -28.02 input  175.53 | X-H torsion
[ 8008 7997 7996 7995 ] final -128.40 input   59.86 | X-H torsion
[ 10167 10162 10161 10158 ] final   73.79 input  -65.29 | X-H torsion
[ 10718 10713 10712 10709 ] final  -87.33 input   66.30 | X-H torsion
[ 10763 10752 10751 10750 ] final  160.69 input  -60.55 | X-H torsion
[ 11005 11000 10999 10996 ] final   36.69 input  -57.11 | X-H torsion

> <Gold.Protein.ActiveResidues>
 VAL166  LYS551  ARG553  GLY616  TRP617  ASP618  TYR619  PRO620  LYS621  CYS622 
 ASP623  PHE694  ASN695  SER759  ASP760  ASP761  ALA762  ILE779  LEU786  VAL792 
 PHE793  MET794  SER795  GLU796  ALA797  LYS798  CYS799  TRP800  GLU811  SER814 

> <Gold.Protein.RotatedAtoms>
  151.3405  135.0862  159.9369 H   0  0  0  0  0  0  0  0  0  0  0  0  # atno 6907 bound_to 6896
  152.5212  133.9451  159.7655 H   0  0  0  0  0  0  0  0  0  0  0  0  # atno 6908 bound_to 6896
  150.9807  133.6195  159.2752 H   0  0  0  0  0  0  0  0  0  0  0  0  # atno 6909 bound_to 6896
  146.1317  140.5228  142.8690 H   0  0  0  0  0  0  0  0  0  0  0  0  # atno 7974 bound_to 7965
  155.2620  140.0436  157.2998 H   0  0  0  0  0  0  0  0  0  0  0  0  # atno 8008 bound_to 7997
  154.5705  140.2372  155.8168 H   0  0  0  0  0  0  0  0  0  0  0  0  # atno 8009 bound_to 7997
  156.2119  140.2996  155.9759 H   0  0  0  0  0  0  0  0  0  0  0  0  # atno 8010 bound_to 7997
  140.0207  144.5542  150.7584 H   0  0  0  0  0  0  0  0  0  0  0  0  # atno 10167 bound_to 10162
  155.9986  130.4796  150.4851 H   0  0  0  0  0  0  0  0  0  0  0  0  # atno 10718 bound_to 10713
  154.2513  135.2771  155.2815 H   0  0  0  0  0  0  0  0  0  0  0  0  # atno 10763 bound_to 10752
  154.5463  135.5688  153.6886 H   0  0  0  0  0  0  0  0  0  0  0  0  # atno 10764 bound_to 10752
  152.9980  135.6263  154.2660 H   0  0  0  0  0  0  0  0  0  0  0  0  # atno 10765 bound_to 10752
  140.2300  134.3539  155.7968 H   0  0  0  0  0  0  0  0  0  0  0  0  # atno 11005 bound_to 11000
  144.7697  140.5611  143.6678 LP  0  0  0  0  0  0  0  0  0  0  0  0  # atno 17320 bound_to 7965
  145.5246  139.1476  143.3533 LP  0  0  0  0  0  0  0  0  0  0  0  0  # atno 17321 bound_to 7965
  140.7343  143.2728  151.3836 LP  0  0  0  0  0  0  0  0  0  0  0  0  # atno 17342 bound_to 10162
  139.6142  144.1037  152.2329 LP  0  0  0  0  0  0  0  0  0  0  0  0  # atno 17343 bound_to 10162
  157.2852  131.0615  151.2171 LP  0  0  0  0  0  0  0  0  0  0  0  0  # atno 17370 bound_to 10713
  157.3203  130.6934  149.6265 LP  0  0  0  0  0  0  0  0  0  0  0  0  # atno 17371 bound_to 10713
  141.2218  133.7240  156.8716 LP  0  0  0  0  0  0  0  0  0  0  0  0  # atno 17394 bound_to 11000
  140.1760  134.9066  157.2892 LP  0  0  0  0  0  0  0  0  0  0  0  0  # atno 17395 bound_to 11000

$$$$
