AV-unprocessed.smi:887|AV-procd|sdf|4053|dock3
  -GOLD-   22720 1543D 1   1.00000     0.00000
 Structure written by MMmdl.
 31 32  0  0  0  0  0  0  0  0  1 V2000
  149.2836  136.3052  154.9654 C   0  0  0  0  0  0  0  0  0  0  0  0
  150.2301  137.3831  154.7228 N   0  0  0  0  0  0  0  0  0  0  0  0
  151.5094  137.3700  155.1264 C   0  0  0  0  0  0  0  0  0  0  0  0
  152.0137  136.4317  155.7432 O   0  0  0  0  0  0  0  0  0  0  0  0
  152.3538  138.5965  154.7746 C   0  0  0  0  0  0  0  0  0  0  0  0
  151.8830  139.7997  155.5274 C   0  0  0  0  0  0  0  0  0  0  0  0
  150.9738  140.6222  155.0176 N   0  0  0  0  0  0  0  0  0  0  0  0
  150.8051  141.5827  156.0249 O   0  0  0  0  0  0  0  0  0  0  0  0
  151.6644  141.2393  157.0148 C   0  0  0  0  0  0  0  0  0  0  0  0
  151.6529  142.0330  158.2836 C   0  0  1  0  0  0  0  0  0  0  0  0
  152.5972  141.4276  159.3455 C   0  0  0  0  0  0  0  0  0  0  0  0
  152.8476  142.3661  160.5134 C   0  0  0  0  0  0  0  0  0  0  0  0
  152.5029  143.6650  160.5120 C   0  0  0  0  0  0  0  0  0  0  0  0
  151.8306  144.3493  159.3367 C   0  0  0  0  0  0  0  0  0  0  0  0
  151.9483  143.5257  158.0414 C   0  0  0  0  0  0  0  0  0  0  0  0
  152.3319  140.1119  156.7749 N   0  0  0  0  0  0  0  0  0  0  0  0
  148.3329  136.5283  154.4812 H   0  0  0  0  0  0  0  0  0  0  0  0
  149.1019  136.1836  156.0339 H   0  0  0  0  0  0  0  0  0  0  0  0
  149.6558  135.3612  154.5653 H   0  0  0  0  0  0  0  0  0  0  0  0
  149.8914  138.1930  154.2234 H   0  0  0  0  0  0  0  0  0  0  0  0
  153.4019  138.4032  155.0083 H   0  0  0  0  0  0  0  0  0  0  0  0
  152.2995  138.7879  153.7021 H   0  0  0  0  0  0  0  0  0  0  0  0
  150.6380  141.9755  158.6807 H   0  0  0  0  0  0  0  0  0  0  0  0
  152.1918  140.4847  159.7141 H   0  0  0  0  0  0  0  0  0  0  0  0
  153.5683  141.2022  158.9031 H   0  0  0  0  0  0  0  0  0  0  0  0
  153.3362  141.9431  161.3789 H   0  0  0  0  0  0  0  0  0  0  0  0
  152.6933  144.2720  161.3850 H   0  0  0  0  0  0  0  0  0  0  0  0
  150.7822  144.5059  159.5916 H   0  0  0  0  0  0  0  0  0  0  0  0
  152.2735  145.3350  159.1913 H   0  0  0  0  0  0  0  0  0  0  0  0
  152.9556  143.6343  157.6368 H   0  0  0  0  0  0  0  0  0  0  0  0
  151.2688  143.9305  157.2904 H   0  0  0  0  0  0  0  0  0  0  0  0
  1  2  1  0  0  0  0
  1 17  1  0  0  0  0
  1 18  1  0  0  0  0
  1 19  1  0  0  0  0
  2  3  1  0  0  0  0
  2 20  1  0  0  0  0
  3  4  2  0  0  0  0
  3  5  1  0  0  0  0
  5  6  1  0  0  0  0
  5 21  1  0  0  0  0
  5 22  1  0  0  0  0
  6 16  1  0  0  0  0
  6  7  2  0  0  0  0
  7  8  1  0  0  0  0
  8  9  1  0  0  0  0
  9 10  1  0  0  0  0
  9 16  2  0  0  0  0
 10 15  1  0  0  0  0
 10 11  1  0  0  0  0
 10 23  1  0  0  0  0
 11 12  1  0  0  0  0
 11 24  1  0  0  0  0
 11 25  1  0  0  0  0
 12 13  2  0  0  0  0
 12 26  1  0  0  0  0
 13 14  1  0  0  0  0
 13 27  1  0  0  0  0
 14 15  1  0  0  0  0
 14 28  1  0  0  0  0
 14 29  1  0  0  0  0
 15 30  1  0  0  0  0
 15 31  1  0  0  0  0
M  END
> <s_m_source_file>
AV-unprocessed.smi

> <i_m_source_file_index>
887

> <i_lp_mmshare_version>
43012

> <i_f3d_flags>
0

> <s_epik_input>
W0NIM11bTkhdQyg9TylbQ0gyXWMxbm9jKG4xKVtDQEBIXTJbQ0gyXVtDSF09W0NIXVtDSDJdW0NIMl0y

> <s_epik_cmdline>
J2VwaWtfcHl0aG9uJywgJy1waCcsICc3LjAnLCAnLXRuJywgJzgnLCAnLW1hJywgJzIwMCcsICctbWV0YWxfYmluZGluZycsICctaW1hZScsICc8aW5maWxlLm1hZT4nLCAnLW9tYWUnLCAnPG91dGZpbGUubWFlPic=

> <r_lp_tautomer_probability>
1

> <r_epik_Ionization_Penalty>
1.02915e-07

> <r_epik_Ionization_Penalty_Charging>
0

> <r_epik_Ionization_Penalty_Neutral>
1.02915e-07

> <r_epik_State_Penalty>
-0

> <r_epik_Charging_Adjusted_Penalty>
0

> <i_epik_Tot_Q>
0

> <i_epik_Tot_abs_Q>
0

> <r_epik_Metal_State_Penalty>
-0

> <b_epik_Metal_Only>
0

> <s_lp_Force_Field>
OPLS_2005

> <r_lp_Energy>
6.05076

> <b_lp_Chiralities_Consistent>
1

> <s_lp_Variant>
AV-unprocessed.smi:887-2

> <Gold.Version>
5.8.1

> <Gold.Id.Protein>
6NUR|6NUR_protein|mol2

> <Gold.PLP.Fitness>
42.4581

> <Gold.PLP.PLP>
-34.3937

> <Gold.PLP.part.hbond>
-3.0000

> <Gold.PLP.part.metal>
0.0000

> <Gold.PLP.part.buried>
-3.8694

> <Gold.PLP.part.nonpolar>
-27.0595

> <Gold.PLP.part.repulsive>
0.1895

> <Gold.PLP.ligand.clash>
0.0000

> <Gold.PLP.ligand.torsion>
0.4842

> <Gold.PLP.Chemscore.Hbond>
2.9753

> <Gold.PLP.Chemscore.CHOScore>
0.0000

> <Gold.PLP.Chemscore.Metal>
0.0000

> <Gold.Chemscore.Hbonds>
donor molecule, donor type, donor heavy atom, donor atom, acceptor molecule, acceptor atom, score
      P1  H  7989  7998       L1     7  0.94
      P1  H  7997  8008       L1    16  1.00
      P1  H 10752 10765       L1     4  1.00

> <Gold.PLP.Chemscore.Internal.Correction>
0.1070

> <Gold.Rescore>
     Score         DG    S(hbond)    S(metal)    S(lipo)     H(rot)  DE(clash)    DE(int)     intcor
     16.25     -16.71       1.93        0.00      76.43       1.63       0.03       0.43       ----

> <Gold.Chemscore.Fitness>
16.2490

> <Gold.Chemscore.DG>
-16.7088

> <Gold.Chemscore.ZeroCoef>
-5.4800

> <Gold.Chemscore.Hbond>
1.9347

> <Gold.Chemscore.Metal>
0.0000

> <Gold.Chemscore.Lipo>
76.4349

> <Gold.Chemscore.Internal_Hbond>
0.0000

> <Gold.Chemscore.DEClash>
0.0323

> <Gold.Chemscore.DEInternal>
0.4275

> <Gold.Chemscore.Rot>
1.6312

> <Gold.Chemscore.Internal.Correction>
   9.000000E+99

> <Gold.Chemscore.Hbonds>
donor molecule, donor type, donor heavy atom, donor atom, acceptor molecule, acceptor atom, score
      P1  H  7989  7998       L1     7  0.23
      P1  H  7997  8008       L1    16  0.32
      P1  H 10752 10765       L1     4  0.68

> <Gold.Chemscore.Hbond.Weighted>
-6.4618

> <Gold.Chemscore.Metal.Weighted>
-0.0000

> <Gold.Chemscore.Lipo.Weighted>
-8.9429

> <Gold.Chemscore.Internal_Hbond.Weighted>
0.0000

> <Gold.Chemscore.DEClash.Weighted>
0.0323

> <Gold.Chemscore.DEInternal.Weighted>
0.4275

> <Gold.Chemscore.Rot.Weighted>
4.1758

> <Gold.Chemscore.Internal.Correction.Weighted>
   9.000000E+99

> <Gold.Protein.RotatedTorsions>
[ 6907 6896 6895 6894 ] final  -37.58 input  -60.11 | X-H torsion
[ 7974 7965 7964 7962 ] final  165.83 input  175.53 | X-H torsion
[ 8008 7997 7996 7995 ] final  -51.69 input   59.86 | X-H torsion
[ 10167 10162 10161 10158 ] final  164.59 input  -65.29 | X-H torsion
[ 10718 10713 10712 10709 ] final -110.24 input   66.30 | X-H torsion
[ 10763 10752 10751 10750 ] final -174.50 input  -60.55 | X-H torsion
[ 11005 11000 10999 10996 ] final  151.97 input  -57.11 | X-H torsion

> <Gold.Protein.ActiveResidues>
 VAL166  LYS551  ARG553  GLY616  TRP617  ASP618  TYR619  PRO620  LYS621  CYS622 
 ASP623  PHE694  ASN695  SER759  ASP760  ASP761  ALA762  ILE779  LEU786  VAL792 
 PHE793  MET794  SER795  GLU796  ALA797  LYS798  CYS799  TRP800  GLU811  SER814 

> <Gold.Protein.RotatedAtoms>
  151.0129  134.9410  159.8016 H   0  0  0  0  0  0  0  0  0  0  0  0  # atno 6907 bound_to 6896
  152.5307  134.3004  159.9086 H   0  0  0  0  0  0  0  0  0  0  0  0  # atno 6908 bound_to 6896
  151.3011  133.4080  159.2674 H   0  0  0  0  0  0  0  0  0  0  0  0  # atno 6909 bound_to 6896
  144.7486  139.8527  143.6373 H   0  0  0  0  0  0  0  0  0  0  0  0  # atno 7974 bound_to 7965
  154.4089  140.1242  156.4870 H   0  0  0  0  0  0  0  0  0  0  0  0  # atno 8008 bound_to 7997
  155.7028  140.3494  155.4921 H   0  0  0  0  0  0  0  0  0  0  0  0  # atno 8009 bound_to 7997
  155.9370  140.1080  157.1077 H   0  0  0  0  0  0  0  0  0  0  0  0  # atno 8010 bound_to 7997
  139.4891  144.4220  151.9175 H   0  0  0  0  0  0  0  0  0  0  0  0  # atno 10167 bound_to 10162
  156.0580  130.5805  150.8210 H   0  0  0  0  0  0  0  0  0  0  0  0  # atno 10718 bound_to 10713
  154.5955  135.2849  155.0590 H   0  0  0  0  0  0  0  0  0  0  0  0  # atno 10763 bound_to 10752
  154.1875  135.6446  153.5054 H   0  0  0  0  0  0  0  0  0  0  0  0  # atno 10764 bound_to 10752
  153.0137  135.5438  154.6656 H   0  0  0  0  0  0  0  0  0  0  0  0  # atno 10765 bound_to 10752
  140.1266  134.8829  157.2146 H   0  0  0  0  0  0  0  0  0  0  0  0  # atno 11005 bound_to 11000
  146.1404  139.4460  143.0112 LP  0  0  0  0  0  0  0  0  0  0  0  0  # atno 17320 bound_to 7965
  145.7026  141.0131  143.1496 LP  0  0  0  0  0  0  0  0  0  0  0  0  # atno 17321 bound_to 7965
  140.3664  144.2909  150.5926 LP  0  0  0  0  0  0  0  0  0  0  0  0  # atno 17342 bound_to 10162
  140.5357  143.2234  151.8166 LP  0  0  0  0  0  0  0  0  0  0  0  0  # atno 17343 bound_to 10162
  157.5566  131.0945  150.9620 LP  0  0  0  0  0  0  0  0  0  0  0  0  # atno 17370 bound_to 10713
  156.9867  130.5547  149.5300 LP  0  0  0  0  0  0  0  0  0  0  0  0  # atno 17371 bound_to 10713
  140.2896  134.3256  155.7319 LP  0  0  0  0  0  0  0  0  0  0  0  0  # atno 17394 bound_to 11000
  141.2162  133.7526  156.9483 LP  0  0  0  0  0  0  0  0  0  0  0  0  # atno 17395 bound_to 11000

$$$$
