AV-unprocessed.smi:693|AV-procd|sdf|3375|dock9
  -GOLD-   22720 0353D 1   1.00000     0.00000
 Structure written by MMmdl.
 47 48  0  0  0  0  0  0  0  0  2 V2000
  151.0869  145.2856  158.6593 C   0  0  0  0  0  0  0  0  0  0  0  0
  151.1389  143.8044  158.3489 C   0  0  0  0  0  0  0  0  0  0  0  0
  151.9755  142.9217  159.0644 C   0  0  0  0  0  0  0  0  0  0  0  0
  151.9784  141.5513  158.7295 C   0  0  0  0  0  0  0  0  0  0  0  0
  151.1449  141.0921  157.6863 C   0  0  0  0  0  0  0  0  0  0  0  0
  151.1142  139.6247  157.3066 C   0  0  0  0  0  0  0  0  0  0  0  0
  151.1068  139.4244  155.7824 C   0  0  0  0  0  0  0  0  0  0  0  0
  149.7490  139.3744  155.2531 N   0  0  0  0  0  0  0  0  0  0  0  0
  149.2479  140.2165  154.3330 C   0  0  0  0  0  0  0  0  0  0  0  0
  149.9289  141.1119  153.8304 O   0  0  0  0  0  0  0  0  0  0  0  0
  147.9561  139.9822  153.9883 N   0  0  0  0  0  0  0  0  0  0  0  0
  147.1120  138.8781  154.4726 C   0  0  0  0  0  0  0  0  0  0  0  0
  146.1242  139.4399  155.5084 C   0  0  0  0  0  0  0  0  0  0  0  0
  145.2904  140.5901  154.9121 C   0  0  0  0  0  0  0  0  0  0  0  0
  146.1718  141.6599  154.2183 C   0  0  2  0  0  0  0  0  0  0  0  0
  145.3570  142.7466  153.4802 C   0  0  0  0  0  0  0  0  0  0  0  0
  144.1019  143.2003  154.2334 C   0  0  0  0  0  0  0  0  0  0  0  0
  142.9386  143.1137  153.5833 N   0  0  0  0  0  0  0  0  0  0  0  0
  144.1752  143.6015  155.3929 O   0  0  0  0  0  0  0  0  0  0  0  0
  147.1595  140.9706  153.2500 C   0  0  0  0  0  0  0  0  0  0  0  0
  150.3301  142.0211  157.0046 C   0  0  0  0  0  0  0  0  0  0  0  0
  150.3569  143.3256  157.3550 N   0  3  0  0  0  0  0  0  0  0  0  0
  150.9297  145.4436  159.7266 H   0  0  0  0  0  0  0  0  0  0  0  0
  150.2761  145.7771  158.1202 H   0  0  0  0  0  0  0  0  0  0  0  0
  152.0254  145.7629  158.3765 H   0  0  0  0  0  0  0  0  0  0  0  0
  152.6066  143.2888  159.8609 H   0  0  0  0  0  0  0  0  0  0  0  0
  152.6113  140.8628  159.2704 H   0  0  0  0  0  0  0  0  0  0  0  0
  151.9800  139.1313  157.7505 H   0  0  0  0  0  0  0  0  0  0  0  0
  150.2339  139.1575  157.7505 H   0  0  0  0  0  0  0  0  0  0  0  0
  151.6337  140.2456  155.2953 H   0  0  0  0  0  0  0  0  0  0  0  0
  151.6412  138.5113  155.5141 H   0  0  0  0  0  0  0  0  0  0  0  0
  149.1398  138.6563  155.6180 H   0  0  0  0  0  0  0  0  0  0  0  0
  146.5645  138.4491  153.6320 H   0  0  0  0  0  0  0  0  0  0  0  0
  147.6708  138.0483  154.9046 H   0  0  0  0  0  0  0  0  0  0  0  0
  145.4645  138.6488  155.8660 H   0  0  0  0  0  0  0  0  0  0  0  0
  146.6748  139.8003  156.3785 H   0  0  0  0  0  0  0  0  0  0  0  0
  144.5882  140.1781  154.1861 H   0  0  0  0  0  0  0  0  0  0  0  0
  144.6880  141.0359  155.7034 H   0  0  0  0  0  0  0  0  0  0  0  0
  146.7646  142.1551  154.9898 H   0  0  0  0  0  0  0  0  0  0  0  0
  145.9882  143.6183  153.3000 H   0  0  0  0  0  0  0  0  0  0  0  0
  145.0599  142.3842  152.4952 H   0  0  0  0  0  0  0  0  0  0  0  0
  142.0836  143.3989  154.0384 H   0  0  0  0  0  0  0  0  0  0  0  0
  142.9186  142.7607  152.6376 H   0  0  0  0  0  0  0  0  0  0  0  0
  147.7847  141.7145  152.7535 H   0  0  0  0  0  0  0  0  0  0  0  0
  146.6138  140.4695  152.4489 H   0  0  0  0  0  0  0  0  0  0  0  0
  149.6598  141.7620  156.1978 H   0  0  0  0  0  0  0  0  0  0  0  0
  149.7587  143.9779  156.8476 H   0  0  0  0  0  0  0  0  0  0  0  0
  1  2  1  0  0  0  0
  1 23  1  0  0  0  0
  1 24  1  0  0  0  0
  1 25  1  0  0  0  0
  2 22  1  0  0  0  0
  2  3  2  0  0  0  0
  3  4  1  0  0  0  0
  3 26  1  0  0  0  0
  4  5  2  0  0  0  0
  4 27  1  0  0  0  0
  5  6  1  0  0  0  0
  5 21  1  0  0  0  0
  6  7  1  0  0  0  0
  6 28  1  0  0  0  0
  6 29  1  0  0  0  0
  7  8  1  0  0  0  0
  7 30  1  0  0  0  0
  7 31  1  0  0  0  0
  8  9  1  0  0  0  0
  8 32  1  0  0  0  0
  9 10  2  0  0  0  0
  9 11  1  0  0  0  0
 11 20  1  0  0  0  0
 11 12  1  0  0  0  0
 12 13  1  0  0  0  0
 12 33  1  0  0  0  0
 12 34  1  0  0  0  0
 13 14  1  0  0  0  0
 13 35  1  0  0  0  0
 13 36  1  0  0  0  0
 14 15  1  0  0  0  0
 14 37  1  0  0  0  0
 14 38  1  0  0  0  0
 15 16  1  0  0  0  0
 15 20  1  0  0  0  0
 15 39  1  0  0  0  0
 16 17  1  0  0  0  0
 16 40  1  0  0  0  0
 16 41  1  0  0  0  0
 17 18  1  0  0  0  0
 17 19  2  0  0  0  0
 18 42  1  0  0  0  0
 18 43  1  0  0  0  0
 20 44  1  0  0  0  0
 20 45  1  0  0  0  0
 21 22  2  0  0  0  0
 21 46  1  0  0  0  0
 22 47  1  0  0  0  0
M  CHG  1  22   1
M  END
> <s_m_source_file>
AV-unprocessed.smi

> <i_m_source_file_index>
693

> <i_lp_mmshare_version>
43012

> <i_f3d_flags>
0

> <s_epik_input>
W0NIM11jMVtjSF1bY0hdYyhbY0hdbjEpW0NIMl1bQ0gyXVtOSF1DKD1PKU4yW0NIMl1bQ0gyXVtDSDJdW0NASF0oW0NIMl0yKVtDSDJdQyg9TylbTkgyXQ==

> <s_epik_cmdline>
J2VwaWtfcHl0aG9uJywgJy1waCcsICc3LjAnLCAnLXRuJywgJzgnLCAnLW1hJywgJzIwMCcsICctbWV0YWxfYmluZGluZycsICctaW1hZScsICc8aW5maWxlLm1hZT4nLCAnLW9tYWUnLCAnPG91dGZpbGUubWFlPic=

> <r_epik_Ionization_Penalty>
1.41666

> <r_epik_Ionization_Penalty_Charging>
1.4166

> <r_epik_Ionization_Penalty_Neutral>
5.77403e-05

> <r_epik_State_Penalty>
1.50002

> <r_epik_Charging_Adjusted_Penalty>
2.91662

> <i_epik_Tot_Q>
1

> <i_epik_Tot_abs_Q>
1

> <r_epik_Metal_State_Penalty>
1.55252

> <b_epik_Metal_Only>
0

> <s_lp_Force_Field>
OPLS_2005

> <r_lp_Energy>
32.8

> <b_lp_Chiralities_Consistent>
1

> <s_lp_Variant>
AV-unprocessed.smi:693-4

> <Gold.Version>
5.8.1

> <Gold.Id.Protein>
6NUR|6NUR_protein|mol2

> <Gold.PLP.Fitness>
51.6067

> <Gold.PLP.PLP>
-40.5033

> <Gold.PLP.part.hbond>
-3.5367

> <Gold.PLP.part.metal>
0.0000

> <Gold.PLP.part.buried>
-4.6569

> <Gold.PLP.part.nonpolar>
-33.4984

> <Gold.PLP.part.repulsive>
1.1191

> <Gold.PLP.ligand.clash>
0.0000

> <Gold.PLP.ligand.torsion>
0.6615

> <Gold.PLP.Chemscore.Hbond>
4.1040

> <Gold.PLP.Chemscore.CHOScore>
0.0000

> <Gold.PLP.Chemscore.Metal>
0.0000

> <Gold.Chemscore.Hbonds>
donor molecule, donor type, donor heavy atom, donor atom, acceptor molecule, acceptor atom, score
      L1  H    22    47       P1  8028  2.00
      P1  H  7989  7998       L1    10  0.34
      P1  H  8011  8017       L1    10  0.83

> <Gold.PLP.Chemscore.Internal.Correction>
0.1145

> <Gold.Rescore>
     Score         DG    S(hbond)    S(metal)    S(lipo)     H(rot)  DE(clash)    DE(int)     intcor
     18.50     -20.74       3.06        0.00      94.25       2.34       1.56       0.69       ----

> <Gold.Chemscore.Fitness>
18.4974

> <Gold.Chemscore.DG>
-20.7436

> <Gold.Chemscore.ZeroCoef>
-5.4800

> <Gold.Chemscore.Hbond>
3.0582

> <Gold.Chemscore.Metal>
0.0000

> <Gold.Chemscore.Lipo>
94.2531

> <Gold.Chemscore.Internal_Hbond>
0.0000

> <Gold.Chemscore.DEClash>
1.5563

> <Gold.Chemscore.DEInternal>
0.6899

> <Gold.Chemscore.Rot>
2.3354

> <Gold.Chemscore.Internal.Correction>
   9.000000E+99

> <Gold.Chemscore.Hbonds>
donor molecule, donor type, donor heavy atom, donor atom, acceptor molecule, acceptor atom, score
      L1  H    22    47       P1  8028  0.94
      P1  H  7989  7998       L1    10  0.34
      P1  H  8011  8017       L1    10  0.81

> <Gold.Chemscore.Hbond.Weighted>
-10.2145

> <Gold.Chemscore.Metal.Weighted>
-0.0000

> <Gold.Chemscore.Lipo.Weighted>
-11.0276

> <Gold.Chemscore.Internal_Hbond.Weighted>
0.0000

> <Gold.Chemscore.DEClash.Weighted>
1.5563

> <Gold.Chemscore.DEInternal.Weighted>
0.6899

> <Gold.Chemscore.Rot.Weighted>
5.9785

> <Gold.Chemscore.Internal.Correction.Weighted>
   9.000000E+99

> <Gold.Protein.RotatedTorsions>
[ 6907 6896 6895 6894 ] final -126.92 input  -60.11 | X-H torsion
[ 7974 7965 7964 7962 ] final  -65.21 input  175.53 | X-H torsion
[ 8008 7997 7996 7995 ] final   40.84 input   59.86 | X-H torsion
[ 10167 10162 10161 10158 ] final   87.37 input  -65.29 | X-H torsion
[ 10718 10713 10712 10709 ] final  -83.37 input   66.30 | X-H torsion
[ 10763 10752 10751 10750 ] final  -71.69 input  -60.55 | X-H torsion
[ 11005 11000 10999 10996 ] final    2.39 input  -57.11 | X-H torsion

> <Gold.Protein.ActiveResidues>
 VAL166  LYS551  ARG553  GLY616  TRP617  ASP618  TYR619  PRO620  LYS621  CYS622 
 ASP623  PHE694  ASN695  SER759  ASP760  ASP761  ALA762  ILE779  LEU786  VAL792 
 PHE793  MET794  SER795  GLU796  ALA797  LYS798  CYS799  TRP800  GLU811  SER814 

> <Gold.Protein.RotatedAtoms>
  150.9019  133.7107  159.2876 H   0  0  0  0  0  0  0  0  0  0  0  0  # atno 6907 bound_to 6896
  151.4623  135.1038  159.9738 H   0  0  0  0  0  0  0  0  0  0  0  0  # atno 6908 bound_to 6896
  152.4882  133.8380  159.7193 H   0  0  0  0  0  0  0  0  0  0  0  0  # atno 6909 bound_to 6896
  145.7572  140.8879  143.0449 H   0  0  0  0  0  0  0  0  0  0  0  0  # atno 7974 bound_to 7965
  155.2597  140.3358  155.4274 H   0  0  0  0  0  0  0  0  0  0  0  0  # atno 8008 bound_to 7997
  156.2180  140.1797  156.7587 H   0  0  0  0  0  0  0  0  0  0  0  0  # atno 8009 bound_to 7997
  154.5782  140.0658  156.9050 H   0  0  0  0  0  0  0  0  0  0  0  0  # atno 8010 bound_to 7997
  139.8781  144.6455  150.8874 H   0  0  0  0  0  0  0  0  0  0  0  0  # atno 10167 bound_to 10162
  156.0019  130.4663  150.4248 H   0  0  0  0  0  0  0  0  0  0  0  0  # atno 10718 bound_to 10713
  154.4353  135.5954  153.6094 H   0  0  0  0  0  0  0  0  0  0  0  0  # atno 10763 bound_to 10752
  152.9801  135.5985  154.3789 H   0  0  0  0  0  0  0  0  0  0  0  0  # atno 10764 bound_to 10752
  154.3632  135.2841  155.2287 H   0  0  0  0  0  0  0  0  0  0  0  0  # atno 10765 bound_to 10752
  140.6048  133.9802  155.8149 H   0  0  0  0  0  0  0  0  0  0  0  0  # atno 11005 bound_to 11000
  144.6838  139.9672  143.7481 LP  0  0  0  0  0  0  0  0  0  0  0  0  # atno 17320 bound_to 7965
  146.0300  139.3326  143.0761 LP  0  0  0  0  0  0  0  0  0  0  0  0  # atno 17321 bound_to 7965
  140.7749  143.3608  151.1832 LP  0  0  0  0  0  0  0  0  0  0  0  0  # atno 17342 bound_to 10162
  139.7221  143.9206  152.2989 LP  0  0  0  0  0  0  0  0  0  0  0  0  # atno 17343 bound_to 10162
  157.2301  131.0502  151.2497 LP  0  0  0  0  0  0  0  0  0  0  0  0  # atno 17370 bound_to 10713
  157.3719  130.7185  149.6571 LP  0  0  0  0  0  0  0  0  0  0  0  0  # atno 17371 bound_to 10713
  141.0848  134.0008  157.3331 LP  0  0  0  0  0  0  0  0  0  0  0  0  # atno 17394 bound_to 11000
  139.9217  135.0200  156.8087 LP  0  0  0  0  0  0  0  0  0  0  0  0  # atno 17395 bound_to 11000

$$$$
