AV-unprocessed.smi:438|AV-procd|sdf|2578|dock5
  -GOLD-   2262022563D 1   1.00000     0.00000
 Structure written by MMmdl.
 48 49  0  0  0  0  0  0  0  0  1 V2000
  147.5208  141.6979  153.2357 C   0  0  0  0  0  0  0  0  0  0  0  0
  148.3300  140.5857  153.8769 C   0  0  0  0  0  0  0  0  0  0  0  0
  149.4957  140.9611  154.4472 N   0  0  0  0  0  0  0  0  0  0  0  0
  150.2240  139.9952  155.0051 C   0  0  0  0  0  0  0  0  0  0  0  0
  151.7961  140.5054  155.6685 S   0  0  0  0  0  0  0  0  0  0  0  0
  151.8137  139.6320  157.2702 C   0  0  0  0  0  0  0  0  0  0  0  0
  152.6764  140.2966  158.3474 C   0  0  0  0  0  0  0  0  0  0  0  0
  153.8330  139.9148  158.5232 O   0  0  0  0  0  0  0  0  0  0  0  0
  152.1175  141.2999  159.0427 N   0  0  0  0  0  0  0  0  0  0  0  0
  152.8127  142.1504  160.0053 C   0  0  1  0  0  0  0  0  0  0  0  0
  152.0494  143.4842  160.1529 C   0  0  0  0  0  0  0  0  0  0  0  0
  152.6992  144.3995  161.1992 C   0  0  0  0  0  0  0  0  0  0  0  0
  152.8147  143.6864  162.5531 C   0  0  0  0  0  0  0  0  0  0  0  0
  153.5860  142.3649  162.4167 C   0  0  0  0  0  0  0  0  0  0  0  0
  152.9468  141.4297  161.3697 C   0  0  2  0  0  0  0  0  0  0  0  0
  153.7380  140.1135  161.2653 C   0  0  0  0  0  0  0  0  0  0  0  0
  149.9250  138.6976  155.0841 N   0  0  0  0  0  0  0  0  0  0  0  0
  148.7643  138.3062  154.5165 C   0  0  0  0  0  0  0  0  0  0  0  0
  148.4372  136.9830  154.5798 O   0  0  0  0  0  0  0  0  0  0  0  0
  147.9055  139.2324  153.8731 C   0  0  0  0  0  0  0  0  0  0  0  0
  146.6010  138.7892  153.2233 C   0  0  0  0  0  0  0  0  0  0  0  0
  146.4888  139.2651  151.7691 C   0  0  0  0  0  0  0  0  0  0  0  0
  146.8994  138.2352  150.8969 O   0  0  0  0  0  0  0  0  0  0  0  0
  146.4909  141.6792  153.5926 H   0  0  0  0  0  0  0  0  0  0  0  0
  147.5161  141.5839  152.1515 H   0  0  0  0  0  0  0  0  0  0  0  0
  147.9373  142.6788  153.4691 H   0  0  0  0  0  0  0  0  0  0  0  0
  150.7904  139.5533  157.6368 H   0  0  0  0  0  0  0  0  0  0  0  0
  152.1673  138.6138  157.1047 H   0  0  0  0  0  0  0  0  0  0  0  0
  151.1580  141.5386  158.8365 H   0  0  0  0  0  0  0  0  0  0  0  0
  153.8176  142.3621  159.6345 H   0  0  0  0  0  0  0  0  0  0  0  0
  152.0025  144.0027  159.1944 H   0  0  0  0  0  0  0  0  0  0  0  0
  151.0177  143.2858  160.4455 H   0  0  0  0  0  0  0  0  0  0  0  0
  153.6894  144.7031  160.8566 H   0  0  0  0  0  0  0  0  0  0  0  0
  152.1141  145.3132  161.3075 H   0  0  0  0  0  0  0  0  0  0  0  0
  153.3130  144.3354  163.2737 H   0  0  0  0  0  0  0  0  0  0  0  0
  151.8179  143.4899  162.9503 H   0  0  0  0  0  0  0  0  0  0  0  0
  154.6192  142.5766  162.1383 H   0  0  0  0  0  0  0  0  0  0  0  0
  153.6251  141.8672  163.3863 H   0  0  0  0  0  0  0  0  0  0  0  0
  151.9437  141.1805  161.7206 H   0  0  0  0  0  0  0  0  0  0  0  0
  154.7461  140.2875  160.8880 H   0  0  0  0  0  0  0  0  0  0  0  0
  153.2507  139.4021  160.5982 H   0  0  0  0  0  0  0  0  0  0  0  0
  153.8272  139.6324  162.2396 H   0  0  0  0  0  0  0  0  0  0  0  0
  148.6032  136.5288  153.7681 H   0  0  0  0  0  0  0  0  0  0  0  0
  146.5117  137.7040  153.2698 H   0  0  0  0  0  0  0  0  0  0  0  0
  145.7618  139.1723  153.8052 H   0  0  0  0  0  0  0  0  0  0  0  0
  145.4614  139.5432  151.5320 H   0  0  0  0  0  0  0  0  0  0  0  0
  147.1127  140.1432  151.5995 H   0  0  0  0  0  0  0  0  0  0  0  0
  146.1338  137.7604  150.6115 H   0  0  0  0  0  0  0  0  0  0  0  0
  1  2  1  0  0  0  0
  1 24  1  0  0  0  0
  1 25  1  0  0  0  0
  1 26  1  0  0  0  0
  2 20  1  0  0  0  0
  2  3  2  0  0  0  0
  3  4  1  0  0  0  0
  4  5  1  0  0  0  0
  4 17  2  0  0  0  0
  5  6  1  0  0  0  0
  6  7  1  0  0  0  0
  6 27  1  0  0  0  0
  6 28  1  0  0  0  0
  7  8  2  0  0  0  0
  7  9  1  0  0  0  0
  9 10  1  0  0  0  0
  9 29  1  0  0  0  0
 10 15  1  0  0  0  0
 10 11  1  0  0  0  0
 10 30  1  0  0  0  0
 11 12  1  0  0  0  0
 11 31  1  0  0  0  0
 11 32  1  0  0  0  0
 12 13  1  0  0  0  0
 12 33  1  0  0  0  0
 12 34  1  0  0  0  0
 13 14  1  0  0  0  0
 13 35  1  0  0  0  0
 13 36  1  0  0  0  0
 14 15  1  0  0  0  0
 14 37  1  0  0  0  0
 14 38  1  0  0  0  0
 15 16  1  0  0  0  0
 15 39  1  0  0  0  0
 16 40  1  0  0  0  0
 16 41  1  0  0  0  0
 16 42  1  0  0  0  0
 17 18  1  0  0  0  0
 18 19  1  0  0  0  0
 18 20  2  0  0  0  0
 19 43  1  0  0  0  0
 20 21  1  0  0  0  0
 21 22  1  0  0  0  0
 21 44  1  0  0  0  0
 21 45  1  0  0  0  0
 22 23  1  0  0  0  0
 22 46  1  0  0  0  0
 22 47  1  0  0  0  0
 23 48  1  0  0  0  0
M  END
> <s_m_source_file>
AV-unprocessed.smi

> <i_m_source_file_index>
438

> <i_lp_mmshare_version>
43012

> <i_f3d_flags>
0

> <s_epik_input>
W09IXVtDSDJdW0NIMl1jMWMoW09IXSluYyhuYzFbQ0gzXSlTW0NIMl1DKD1PKVtOSF1bQ0BASF0yW0NIMl1bQ0gyXVtDSDJdW0NIMl1bQ0BIXTJbQ0gzXQ==

> <s_epik_cmdline>
J2VwaWtfcHl0aG9uJywgJy1waCcsICc3LjAnLCAnLXRuJywgJzgnLCAnLW1hJywgJzIwMCcsICctbWV0YWxfYmluZGluZycsICctaW1hZScsICc8aW5maWxlLm1hZT4nLCAnLW9tYWUnLCAnPG91dGZpbGUubWFlPic=

> <r_lp_tautomer_probability>
0.0660145

> <r_epik_Ionization_Penalty>
2.91405

> <r_epik_Ionization_Penalty_Charging>
0

> <r_epik_Ionization_Penalty_Neutral>
2.91405

> <r_epik_State_Penalty>
2.44767

> <r_epik_Charging_Adjusted_Penalty>
2.44767

> <i_epik_Tot_Q>
0

> <i_epik_Tot_abs_Q>
0

> <r_epik_Metal_State_Penalty>
3.04288

> <b_epik_Metal_Only>
0

> <s_lp_Force_Field>
OPLS_2005

> <r_lp_Energy>
-0.453605

> <b_lp_Chiralities_Consistent>
1

> <s_lp_Variant>
AV-unprocessed.smi:438-16

> <Gold.Version>
5.8.1

> <Gold.Id.Protein>
6NUR|6NUR_protein|mol2

> <Gold.PLP.Fitness>
48.7923

> <Gold.PLP.PLP>
-42.3234

> <Gold.PLP.part.hbond>
-4.0489

> <Gold.PLP.part.metal>
0.0000

> <Gold.PLP.part.buried>
-1.1898

> <Gold.PLP.part.nonpolar>
-35.4151

> <Gold.PLP.part.repulsive>
0.3417

> <Gold.PLP.ligand.clash>
0.0000

> <Gold.PLP.ligand.torsion>
1.2786

> <Gold.PLP.Chemscore.Hbond>
3.0000

> <Gold.PLP.Chemscore.CHOScore>
0.0000

> <Gold.PLP.Chemscore.Metal>
0.0000

> <Gold.Chemscore.Hbonds>
donor molecule, donor type, donor heavy atom, donor atom, acceptor molecule, acceptor atom, score
      L1  H    19    43       P1  7948  1.00
      P1  H  7954  7966       L1    23  1.00
      P1  H  7997  8010       L1     8  1.00

> <Gold.PLP.Chemscore.Internal.Correction>
0.0260

> <Gold.Rescore>
     Score         DG    S(hbond)    S(metal)    S(lipo)     H(rot)  DE(clash)    DE(int)     intcor
     16.39     -19.80       2.82        0.00     116.99       3.44       0.74       2.68       ----

> <Gold.Chemscore.Fitness>
16.3863

> <Gold.Chemscore.DG>
-19.8029

> <Gold.Chemscore.ZeroCoef>
-5.4800

> <Gold.Chemscore.Hbond>
2.8235

> <Gold.Chemscore.Metal>
0.0000

> <Gold.Chemscore.Lipo>
116.9948

> <Gold.Chemscore.Internal_Hbond>
0.0000

> <Gold.Chemscore.DEClash>
0.7393

> <Gold.Chemscore.DEInternal>
2.6774

> <Gold.Chemscore.Rot>
3.4359

> <Gold.Chemscore.Internal.Correction>
   9.000000E+99

> <Gold.Chemscore.Hbonds>
donor molecule, donor type, donor heavy atom, donor atom, acceptor molecule, acceptor atom, score
      L1  H    19    43       P1  7948  0.98
      P1  H  7954  7966       L1    23  0.69
      P1  H  7997  8010       L1     8  0.92

> <Gold.Chemscore.Hbond.Weighted>
-9.4305

> <Gold.Chemscore.Metal.Weighted>
-0.0000

> <Gold.Chemscore.Lipo.Weighted>
-13.6884

> <Gold.Chemscore.Internal_Hbond.Weighted>
0.0000

> <Gold.Chemscore.DEClash.Weighted>
0.7393

> <Gold.Chemscore.DEInternal.Weighted>
2.6774

> <Gold.Chemscore.Rot.Weighted>
8.7960

> <Gold.Chemscore.Internal.Correction.Weighted>
   9.000000E+99

> <Gold.Protein.RotatedTorsions>
[ 6907 6896 6895 6894 ] final -103.47 input  -60.11 | X-H torsion
[ 7974 7965 7964 7962 ] final  -60.81 input  175.53 | X-H torsion
[ 8008 7997 7996 7995 ] final   10.60 input   59.86 | X-H torsion
[ 10167 10162 10161 10158 ] final -171.16 input  -65.29 | X-H torsion
[ 10718 10713 10712 10709 ] final  -44.64 input   66.30 | X-H torsion
[ 10763 10752 10751 10750 ] final -156.37 input  -60.55 | X-H torsion
[ 11005 11000 10999 10996 ] final    5.40 input  -57.11 | X-H torsion

> <Gold.Protein.ActiveResidues>
 VAL166  LYS551  ARG553  GLY616  TRP617  ASP618  TYR619  PRO620  LYS621  CYS622 
 ASP623  PHE694  ASN695  SER759  ASP760  ASP761  ALA762  ILE779  LEU786  VAL792 
 PHE793  MET794  SER795  GLU796  ALA797  LYS798  CYS799  TRP800  GLU811  SER814 

> <Gold.Protein.RotatedAtoms>
  150.7242  134.0425  159.3770 H   0  0  0  0  0  0  0  0  0  0  0  0  # atno 6907 bound_to 6896
  151.8399  135.0591  160.0456 H   0  0  0  0  0  0  0  0  0  0  0  0  # atno 6908 bound_to 6896
  152.2870  133.5489  159.5570 H   0  0  0  0  0  0  0  0  0  0  0  0  # atno 6909 bound_to 6896
  145.8110  140.8599  143.0182 H   0  0  0  0  0  0  0  0  0  0  0  0  # atno 7974 bound_to 7965
  154.7955  140.2843  155.5960 H   0  0  0  0  0  0  0  0  0  0  0  0  # atno 8008 bound_to 7997
  156.2970  140.2596  156.2741 H   0  0  0  0  0  0  0  0  0  0  0  0  # atno 8009 bound_to 7997
  154.9619  140.0377  157.2183 H   0  0  0  0  0  0  0  0  0  0  0  0  # atno 8010 bound_to 7997
  139.5819  144.1405  152.1525 H   0  0  0  0  0  0  0  0  0  0  0  0  # atno 10167 bound_to 10162
  156.2364  130.4176  149.8812 H   0  0  0  0  0  0  0  0  0  0  0  0  # atno 10718 bound_to 10713
  154.7717  135.3147  154.8175 H   0  0  0  0  0  0  0  0  0  0  0  0  # atno 10763 bound_to 10752
  153.8908  135.6825  153.4765 H   0  0  0  0  0  0  0  0  0  0  0  0  # atno 10764 bound_to 10752
  153.1333  135.4771  154.9317 H   0  0  0  0  0  0  0  0  0  0  0  0  # atno 10765 bound_to 10752
  140.5712  134.0101  155.8009 H   0  0  0  0  0  0  0  0  0  0  0  0  # atno 11005 bound_to 11000
  144.6757  140.0395  143.7481 LP  0  0  0  0  0  0  0  0  0  0  0  0  # atno 17320 bound_to 7965
  145.9777  139.2918  143.1060 LP  0  0  0  0  0  0  0  0  0  0  0  0  # atno 17321 bound_to 7965
  140.0960  144.5580  150.7021 LP  0  0  0  0  0  0  0  0  0  0  0  0  # atno 17342 bound_to 10162
  140.7096  143.2494  151.4622 LP  0  0  0  0  0  0  0  0  0  0  0  0  # atno 17343 bound_to 10162
  156.6409  130.8704  151.3513 LP  0  0  0  0  0  0  0  0  0  0  0  0  # atno 17370 bound_to 10713
  157.7156  130.9493  150.1244 LP  0  0  0  0  0  0  0  0  0  0  0  0  # atno 17371 bound_to 10713
  141.1055  133.9700  157.3004 LP  0  0  0  0  0  0  0  0  0  0  0  0  # atno 17394 bound_to 11000
  139.9361  135.0196  156.8560 LP  0  0  0  0  0  0  0  0  0  0  0  0  # atno 17395 bound_to 11000

$$$$
