AV-unprocessed.smi:3285|AV-procd|sdf|12581|dock8
  -GOLD-   2272018503D 1   1.00000     0.00000
 Structure written by MMmdl.
 45 46  0  0  0  0  0  0  0  0  2 V2000
  149.7729  138.4012  154.4000 C   0  0  0  0  0  0  0  0  0  0  0  0
  148.6952  139.3898  154.0581 C   0  0  0  0  0  0  0  0  0  0  0  0
  147.6976  139.0191  153.2738 N   0  0  0  0  0  0  0  0  0  0  0  0
  146.8770  140.1429  153.1394 O   0  0  0  0  0  0  0  0  0  0  0  0
  147.4211  141.1598  153.8547 C   0  0  0  0  0  0  0  0  0  0  0  0
  146.6905  142.4600  153.8361 C   0  0  0  0  0  0  0  0  0  0  0  0
  148.5767  140.7512  154.4616 C   0  0  0  0  0  0  0  0  0  0  0  0
  149.5064  141.5441  155.3398 C   0  0  0  0  0  0  0  0  0  0  0  0
  149.0931  141.4593  156.8147 C   0  0  0  0  0  0  0  0  0  0  0  0
  149.4057  142.7172  157.5242 N   0  3  0  0  0  0  0  0  0  0  0  0
  150.8352  142.9244  157.8460 C   0  0  1  0  0  0  0  0  0  0  0  0
  151.0332  144.3278  158.4464 C   0  0  0  0  0  0  0  0  0  0  0  0
  152.5010  144.5765  158.8325 C   0  0  0  0  0  0  0  0  0  0  0  0
  153.0406  143.5066  159.8035 C   0  0  1  0  0  0  0  0  0  0  0  0
  152.4589  143.6796  161.2213 C   0  0  0  0  0  0  0  0  0  0  0  0
  152.8365  142.0931  159.2006 C   0  0  1  0  0  0  0  0  0  0  0  0
  153.3918  140.9671  160.0886 C   0  0  0  0  0  0  0  0  0  0  0  0
  151.3645  141.8430  158.8126 C   0  0  0  0  0  0  0  0  0  0  0  0
  150.6131  138.4889  153.7111 H   0  0  0  0  0  0  0  0  0  0  0  0
  149.4066  137.3751  154.3488 H   0  0  0  0  0  0  0  0  0  0  0  0
  150.1517  138.5633  155.4090 H   0  0  0  0  0  0  0  0  0  0  0  0
  147.3097  143.2435  153.3995 H   0  0  0  0  0  0  0  0  0  0  0  0
  146.4212  142.7653  154.8471 H   0  0  0  0  0  0  0  0  0  0  0  0
  145.7738  142.3886  153.2504 H   0  0  0  0  0  0  0  0  0  0  0  0
  150.5313  141.1868  155.2324 H   0  0  0  0  0  0  0  0  0  0  0  0
  149.5259  142.5892  155.0288 H   0  0  0  0  0  0  0  0  0  0  0  0
  148.0255  141.2514  156.8846 H   0  0  0  0  0  0  0  0  0  0  0  0
  149.6168  140.6333  157.2981 H   0  0  0  0  0  0  0  0  0  0  0  0
  149.1156  143.4774  156.9259 H   0  0  0  0  0  0  0  0  0  0  0  0
  151.4029  142.8768  156.9152 H   0  0  0  0  0  0  0  0  0  0  0  0
  150.7155  145.0859  157.7294 H   0  0  0  0  0  0  0  0  0  0  0  0
  150.3956  144.4530  159.3223 H   0  0  0  0  0  0  0  0  0  0  0  0
  153.1104  144.5791  157.9277 H   0  0  0  0  0  0  0  0  0  0  0  0
  152.6086  145.5705  159.2682 H   0  0  0  0  0  0  0  0  0  0  0  0
  154.1153  143.6722  159.8921 H   0  0  0  0  0  0  0  0  0  0  0  0
  151.3894  143.4750  161.2570 H   0  0  0  0  0  0  0  0  0  0  0  0
  152.6094  144.6980  161.5805 H   0  0  0  0  0  0  0  0  0  0  0  0
  152.9465  143.0179  161.9371 H   0  0  0  0  0  0  0  0  0  0  0  0
  153.4158  142.0617  158.2763 H   0  0  0  0  0  0  0  0  0  0  0  0
  152.8179  140.8567  161.0090 H   0  0  0  0  0  0  0  0  0  0  0  0
  154.4305  141.1563  160.3606 H   0  0  0  0  0  0  0  0  0  0  0  0
  153.3589  140.0094  159.5685 H   0  0  0  0  0  0  0  0  0  0  0  0
  150.7433  141.8077  159.7084 H   0  0  0  0  0  0  0  0  0  0  0  0
  151.2865  140.8587  158.3510 H   0  0  0  0  0  0  0  0  0  0  0  0
  148.8687  142.7605  158.3784 H   0  0  0  0  0  0  0  0  0  0  0  0
  1  2  1  0  0  0  0
  1 19  1  0  0  0  0
  1 20  1  0  0  0  0
  1 21  1  0  0  0  0
  2  7  1  0  0  0  0
  2  3  2  0  0  0  0
  3  4  1  0  0  0  0
  4  5  1  0  0  0  0
  5  6  1  0  0  0  0
  5  7  2  0  0  0  0
  6 22  1  0  0  0  0
  6 23  1  0  0  0  0
  6 24  1  0  0  0  0
  7  8  1  0  0  0  0
  8  9  1  0  0  0  0
  8 25  1  0  0  0  0
  8 26  1  0  0  0  0
  9 10  1  0  0  0  0
  9 27  1  0  0  0  0
  9 28  1  0  0  0  0
 10 11  1  0  0  0  0
 10 29  1  0  0  0  0
 10 45  1  0  0  0  0
 11 18  1  0  0  0  0
 11 12  1  0  0  0  0
 11 30  1  0  0  0  0
 12 13  1  0  0  0  0
 12 31  1  0  0  0  0
 12 32  1  0  0  0  0
 13 14  1  0  0  0  0
 13 33  1  0  0  0  0
 13 34  1  0  0  0  0
 14 15  1  0  0  0  0
 14 16  1  0  0  0  0
 14 35  1  0  0  0  0
 15 36  1  0  0  0  0
 15 37  1  0  0  0  0
 15 38  1  0  0  0  0
 16 17  1  0  0  0  0
 16 18  1  0  0  0  0
 16 39  1  0  0  0  0
 17 40  1  0  0  0  0
 17 41  1  0  0  0  0
 17 42  1  0  0  0  0
 18 43  1  0  0  0  0
 18 44  1  0  0  0  0
M  CHG  1  10   1
M  END
> <s_m_source_file>
AV-unprocessed.smi

> <i_m_source_file_index>
3285

> <i_lp_mmshare_version>
43012

> <i_f3d_flags>
0

> <s_epik_input>
W0NIM11jMW5vYyhbQ0gzXSljMVtDSDJdW0NIMl1bTkhdW0NAQEhdMltDSDJdW0NIMl1bQ0BASF0oW0NIM10pW0NAQEhdKFtDSDNdKVtDSDJdMg==

> <s_epik_cmdline>
J2VwaWtfcHl0aG9uJywgJy1waCcsICc3LjAnLCAnLXRuJywgJzgnLCAnLW1hJywgJzIwMCcsICctbWV0YWxfYmluZGluZycsICctaW1hZScsICc8aW5maWxlLm1hZT4nLCAnLW9tYWUnLCAnPG91dGZpbGUubWFlPic=

> <r_lp_tautomer_probability>
1

> <r_epik_Ionization_Penalty>
0.000204615

> <r_epik_Ionization_Penalty_Charging>
0.000204615

> <r_epik_Ionization_Penalty_Neutral>
9.28663e-11

> <r_epik_State_Penalty>
-0

> <r_epik_Charging_Adjusted_Penalty>
0.000204615

> <i_epik_Tot_Q>
1

> <i_epik_Tot_abs_Q>
1

> <r_epik_Metal_State_Penalty>
-0

> <b_epik_Metal_Only>
0

> <s_lp_Force_Field>
OPLS_2005

> <r_lp_Energy>
12.3416

> <b_lp_Chiralities_Consistent>
1

> <s_lp_Variant>
AV-unprocessed.smi:3285-2

> <Gold.Version>
5.8.1

> <Gold.Id.Protein>
6NUR|6NUR_protein|mol2

> <Gold.PLP.Fitness>
48.3718

> <Gold.PLP.PLP>
-43.6812

> <Gold.PLP.part.hbond>
-1.0000

> <Gold.PLP.part.metal>
0.0000

> <Gold.PLP.part.buried>
-5.6298

> <Gold.PLP.part.nonpolar>
-38.5039

> <Gold.PLP.part.repulsive>
1.3280

> <Gold.PLP.ligand.clash>
0.0000

> <Gold.PLP.ligand.torsion>
0.6603

> <Gold.PLP.Chemscore.Hbond>
2.0000

> <Gold.PLP.Chemscore.CHOScore>
0.0000

> <Gold.PLP.Chemscore.Metal>
0.0000

> <Gold.Chemscore.Hbonds>
donor molecule, donor type, donor heavy atom, donor atom, acceptor molecule, acceptor atom, score
      L1  H    10    29       P1  8028  2.00

> <Gold.PLP.Chemscore.Internal.Correction>
0.0111

> <Gold.Rescore>
     Score         DG    S(hbond)    S(metal)    S(lipo)     H(rot)  DE(clash)    DE(int)     intcor
     20.46     -21.24       0.97        0.00     136.52       1.35       0.15       0.63       ----

> <Gold.Chemscore.Fitness>
20.4555

> <Gold.Chemscore.DG>
-21.2362

> <Gold.Chemscore.ZeroCoef>
-5.4800

> <Gold.Chemscore.Hbond>
0.9670

> <Gold.Chemscore.Metal>
0.0000

> <Gold.Chemscore.Lipo>
136.5248

> <Gold.Chemscore.Internal_Hbond>
0.0000

> <Gold.Chemscore.DEClash>
0.1530

> <Gold.Chemscore.DEInternal>
0.6277

> <Gold.Chemscore.Rot>
1.3465

> <Gold.Chemscore.Internal.Correction>
   9.000000E+99

> <Gold.Chemscore.Hbonds>
donor molecule, donor type, donor heavy atom, donor atom, acceptor molecule, acceptor atom, score
      L1  H    10    29       P1  8028  0.82

> <Gold.Chemscore.Hbond.Weighted>
-3.2298

> <Gold.Chemscore.Metal.Weighted>
-0.0000

> <Gold.Chemscore.Lipo.Weighted>
-15.9734

> <Gold.Chemscore.Internal_Hbond.Weighted>
0.0000

> <Gold.Chemscore.DEClash.Weighted>
0.1530

> <Gold.Chemscore.DEInternal.Weighted>
0.6277

> <Gold.Chemscore.Rot.Weighted>
3.4470

> <Gold.Chemscore.Internal.Correction.Weighted>
   9.000000E+99

> <Gold.Protein.RotatedTorsions>
[ 6907 6896 6895 6894 ] final -170.05 input  -60.11 | X-H torsion
[ 7974 7965 7964 7962 ] final  130.37 input  175.53 | X-H torsion
[ 8008 7997 7996 7995 ] final -150.97 input   59.86 | X-H torsion
[ 10167 10162 10161 10158 ] final   70.48 input  -65.29 | X-H torsion
[ 10718 10713 10712 10709 ] final   10.51 input   66.30 | X-H torsion
[ 10763 10752 10751 10750 ] final   97.44 input  -60.55 | X-H torsion
[ 11005 11000 10999 10996 ] final -131.25 input  -57.11 | X-H torsion

> <Gold.Protein.ActiveResidues>
 VAL166  LYS551  ARG553  GLY616  TRP617  ASP618  TYR619  PRO620  LYS621  CYS622 
 ASP623  PHE694  ASN695  SER759  ASP760  ASP761  ALA762  ILE779  LEU786  VAL792 
 PHE793  MET794  SER795  GLU796  ALA797  LYS798  CYS799  TRP800  GLU811  SER814 

> <Gold.Protein.RotatedAtoms>
  151.5015  133.3503  159.2869 H   0  0  0  0  0  0  0  0  0  0  0  0  # atno 6907 bound_to 6896
  150.8770  134.8156  159.7208 H   0  0  0  0  0  0  0  0  0  0  0  0  # atno 6908 bound_to 6896
  152.4737  134.4907  159.9746 H   0  0  0  0  0  0  0  0  0  0  0  0  # atno 6909 bound_to 6896
  145.0186  139.4153  143.5209 H   0  0  0  0  0  0  0  0  0  0  0  0  # atno 7974 bound_to 7965
  155.6320  140.0692  157.2646 H   0  0  0  0  0  0  0  0  0  0  0  0  # atno 8008 bound_to 7997
  154.4203  140.1765  156.1531 H   0  0  0  0  0  0  0  0  0  0  0  0  # atno 8009 bound_to 7997
  155.9925  140.3344  155.6770 H   0  0  0  0  0  0  0  0  0  0  0  0  # atno 8010 bound_to 7997
  140.0565  144.5268  150.7325 H   0  0  0  0  0  0  0  0  0  0  0  0  # atno 10167 bound_to 10162
  156.9821  130.6009  149.5677 H   0  0  0  0  0  0  0  0  0  0  0  0  # atno 10718 bound_to 10713
  153.2769  135.4183  155.1042 H   0  0  0  0  0  0  0  0  0  0  0  0  # atno 10763 bound_to 10752
  154.8476  135.3486  154.6166 H   0  0  0  0  0  0  0  0  0  0  0  0  # atno 10764 bound_to 10752
  153.6586  135.7049  153.5242 H   0  0  0  0  0  0  0  0  0  0  0  0  # atno 10765 bound_to 10752
  140.9275  134.1364  157.4263 H   0  0  0  0  0  0  0  0  0  0  0  0  # atno 11005 bound_to 11000
  146.3482  139.9671  142.8710 LP  0  0  0  0  0  0  0  0  0  0  0  0  # atno 17320 bound_to 7965
  145.1926  140.9818  143.4202 LP  0  0  0  0  0  0  0  0  0  0  0  0  # atno 17321 bound_to 7965
  140.7192  143.2573  151.4334 LP  0  0  0  0  0  0  0  0  0  0  0  0  # atno 17342 bound_to 10162
  139.5920  144.1478  152.2099 LP  0  0  0  0  0  0  0  0  0  0  0  0  # atno 17343 bound_to 10162
  156.0240  130.5335  150.8356 LP  0  0  0  0  0  0  0  0  0  0  0  0  # atno 17370 bound_to 10713
  157.5519  131.0944  150.9683 LP  0  0  0  0  0  0  0  0  0  0  0  0  # atno 17371 bound_to 10713
  139.8788  134.9993  156.5948 LP  0  0  0  0  0  0  0  0  0  0  0  0  # atno 17394 bound_to 11000
  140.7907  133.8585  155.8643 LP  0  0  0  0  0  0  0  0  0  0  0  0  # atno 17395 bound_to 11000

$$$$
