AV-unprocessed.smi:532|AV-procd|sdf|2848|dock1
  -GOLD-   2262023333D 1   1.00000     0.00000
 Structure written by MMmdl.
 49 51  0  0  0  0  0  0  0  0  1 V2000
  157.0777  139.7946  159.2196 C   0  0  0  0  0  0  0  0  0  0  0  0
  155.6744  139.6029  159.2518 O   0  0  0  0  0  0  0  0  0  0  0  0
  155.1761  139.4609  160.5709 C   0  0  0  0  0  0  0  0  0  0  0  0
  153.7109  139.0017  160.4960 C   0  0  0  0  0  0  0  0  0  0  0  0
  153.0756  139.3680  159.2336 N   0  0  0  0  0  0  0  0  0  0  0  0
  152.6786  140.5938  158.7791 C   0  0  0  0  0  0  0  0  0  0  0  0
  152.8551  141.7878  159.4942 N   0  0  0  0  0  0  0  0  0  0  0  0
  152.5838  143.1083  158.9207 C   0  0  0  0  0  0  0  0  0  0  0  0
  151.6504  143.9458  159.8172 C   0  0  2  0  0  0  0  0  0  0  0  0
  151.3305  145.3043  159.1789 C   0  0  0  0  0  0  0  0  0  0  0  0
  152.2729  144.1117  161.2133 C   0  0  0  0  0  0  0  0  0  0  0  0
  152.6583  142.7413  161.7926 C   0  0  2  0  0  0  0  0  0  0  0  0
  153.3633  142.8771  163.1487 C   0  0  0  0  0  0  0  0  0  0  0  0
  153.5338  141.9776  160.7786 C   0  0  0  0  0  0  0  0  0  0  0  0
  152.0684  140.5603  157.5893 N   0  0  0  0  0  0  0  0  0  0  0  0
  152.0891  139.2186  157.2487 C   0  0  0  0  0  0  0  0  0  0  0  0
  152.6810  138.4860  158.2239 C   0  0  0  0  0  0  0  0  0  0  0  0
  152.8111  137.0241  158.1367 C   0  0  0  0  0  0  0  0  0  0  0  0
  153.3234  136.3336  159.0150 O   0  0  0  0  0  0  0  0  0  0  0  0
  152.3056  136.5116  156.9887 N   0  0  0  0  0  0  0  0  0  0  0  0
  151.7071  137.1945  155.9659 C   0  0  0  0  0  0  0  0  0  0  0  0
  151.2991  136.5871  154.9762 O   0  0  0  0  0  0  0  0  0  0  0  0
  151.5867  138.5546  156.0933 N   0  0  0  0  0  0  0  0  0  0  0  0
  150.9506  139.3366  155.0314 C   0  0  0  0  0  0  0  0  0  0  0  0
  152.3763  135.5108  156.8761 H   0  0  0  0  0  0  0  0  0  0  0  0
  157.4099  139.8981  158.1865 H   0  0  0  0  0  0  0  0  0  0  0  0
  157.6020  138.9442  159.6577 H   0  0  0  0  0  0  0  0  0  0  0  0
  157.3652  140.6985  159.7582 H   0  0  0  0  0  0  0  0  0  0  0  0
  155.7834  138.7427  161.1220 H   0  0  0  0  0  0  0  0  0  0  0  0
  155.2541  140.4106  161.1005 H   0  0  0  0  0  0  0  0  0  0  0  0
  153.6520  137.9200  160.6152 H   0  0  0  0  0  0  0  0  0  0  0  0
  153.1358  139.4026  161.3262 H   0  0  0  0  0  0  0  0  0  0  0  0
  153.5274  143.6315  158.7586 H   0  0  0  0  0  0  0  0  0  0  0  0
  152.1242  142.9968  157.9381 H   0  0  0  0  0  0  0  0  0  0  0  0
  150.7102  143.4025  159.9252 H   0  0  0  0  0  0  0  0  0  0  0  0
  152.2339  145.8988  159.0393 H   0  0  0  0  0  0  0  0  0  0  0  0
  150.6461  145.8794  159.8030 H   0  0  0  0  0  0  0  0  0  0  0  0
  150.8607  145.1782  158.2032 H   0  0  0  0  0  0  0  0  0  0  0  0
  153.1591  144.7447  161.1474 H   0  0  0  0  0  0  0  0  0  0  0  0
  151.5747  144.6198  161.8795 H   0  0  0  0  0  0  0  0  0  0  0  0
  151.7402  142.1762  161.9556 H   0  0  0  0  0  0  0  0  0  0  0  0
  154.2970  143.4327  163.0565 H   0  0  0  0  0  0  0  0  0  0  0  0
  153.5979  141.8977  163.5669 H   0  0  0  0  0  0  0  0  0  0  0  0
  152.7332  143.4004  163.8685 H   0  0  0  0  0  0  0  0  0  0  0  0
  153.8469  141.0251  161.1940 H   0  0  0  0  0  0  0  0  0  0  0  0
  154.4586  142.5294  160.6035 H   0  0  0  0  0  0  0  0  0  0  0  0
  149.9611  138.9413  154.7979 H   0  0  0  0  0  0  0  0  0  0  0  0
  151.5537  139.3029  154.1232 H   0  0  0  0  0  0  0  0  0  0  0  0
  150.8228  140.3844  155.3022 H   0  0  0  0  0  0  0  0  0  0  0  0
  1  2  1  0  0  0  0
  1 26  1  0  0  0  0
  1 27  1  0  0  0  0
  1 28  1  0  0  0  0
  2  3  1  0  0  0  0
  3  4  1  0  0  0  0
  3 29  1  0  0  0  0
  3 30  1  0  0  0  0
  4  5  1  0  0  0  0
  4 31  1  0  0  0  0
  4 32  1  0  0  0  0
  5 17  1  0  0  0  0
  5  6  1  0  0  0  0
  6  7  1  0  0  0  0
  6 15  2  0  0  0  0
  7 14  1  0  0  0  0
  7  8  1  0  0  0  0
  8  9  1  0  0  0  0
  8 33  1  0  0  0  0
  8 34  1  0  0  0  0
  9 10  1  0  0  0  0
  9 11  1  0  0  0  0
  9 35  1  0  0  0  0
 10 36  1  0  0  0  0
 10 37  1  0  0  0  0
 10 38  1  0  0  0  0
 11 12  1  0  0  0  0
 11 39  1  0  0  0  0
 11 40  1  0  0  0  0
 12 13  1  0  0  0  0
 12 14  1  0  0  0  0
 12 41  1  0  0  0  0
 13 42  1  0  0  0  0
 13 43  1  0  0  0  0
 13 44  1  0  0  0  0
 14 45  1  0  0  0  0
 14 46  1  0  0  0  0
 15 16  1  0  0  0  0
 16 23  1  0  0  0  0
 16 17  2  0  0  0  0
 17 18  1  0  0  0  0
 18 19  2  0  0  0  0
 18 20  1  0  0  0  0
 20 25  1  0  0  0  0
 20 21  1  0  0  0  0
 21 22  2  0  0  0  0
 21 23  1  0  0  0  0
 23 24  1  0  0  0  0
 24 47  1  0  0  0  0
 24 48  1  0  0  0  0
 24 49  1  0  0  0  0
M  END
> <s_m_source_file>
AV-unprocessed.smi

> <i_m_source_file_index>
532

> <i_lp_mmshare_version>
43012

> <i_f3d_flags>
0

> <s_epik_input>
W0NIM11uMWMoPU8pW25IXWMoPU8pYyhjMTIpbihbQ0gyXVtDSDJdT1tDSDNdKWMobjIpTjNbQ0gyXVtDQEBIXShbQ0gzXSlbQ0gyXVtDQEBIXShbQ0gzXSlbQ0gyXTM=

> <s_epik_cmdline>
J2VwaWtfcHl0aG9uJywgJy1waCcsICc3LjAnLCAnLXRuJywgJzgnLCAnLW1hJywgJzIwMCcsICctbWV0YWxfYmluZGluZycsICctaW1hZScsICc8aW5maWxlLm1hZT4nLCAnLW9tYWUnLCAnPG91dGZpbGUubWFlPic=

> <r_lp_tautomer_probability>
1

> <r_epik_Ionization_Penalty>
0.000642525

> <r_epik_Ionization_Penalty_Charging>
0.000121571

> <r_epik_Ionization_Penalty_Neutral>
0.000520954

> <r_epik_State_Penalty>
-0

> <r_epik_Charging_Adjusted_Penalty>
0.000121571

> <i_epik_Tot_Q>
0

> <i_epik_Tot_abs_Q>
0

> <r_epik_Metal_State_Penalty>
0.0931709

> <b_epik_Metal_Only>
0

> <s_lp_Force_Field>
OPLS_2005

> <r_lp_Energy>
38.055

> <b_lp_Chiralities_Consistent>
1

> <s_lp_Variant>
AV-unprocessed.smi:532-1

> <Gold.Version>
5.8.1

> <Gold.Id.Protein>
6NUR|6NUR_protein|mol2

> <Gold.PLP.Fitness>
57.9150

> <Gold.PLP.PLP>
-49.9503

> <Gold.PLP.part.hbond>
-3.0000

> <Gold.PLP.part.metal>
0.0000

> <Gold.PLP.part.buried>
-7.2858

> <Gold.PLP.part.nonpolar>
-41.6213

> <Gold.PLP.part.repulsive>
0.2867

> <Gold.PLP.ligand.clash>
0.1849

> <Gold.PLP.ligand.torsion>
0.3964

> <Gold.PLP.Chemscore.Hbond>
2.9440

> <Gold.PLP.Chemscore.CHOScore>
0.0000

> <Gold.PLP.Chemscore.Metal>
0.0000

> <Gold.Chemscore.Hbonds>
donor molecule, donor type, donor heavy atom, donor atom, acceptor molecule, acceptor atom, score
      P1  H  6896  6907       L1    19  0.86
      P1  H  7997  8010       L1     2  1.00
      P1  H 10752 10764       L1    22  1.00

> <Gold.PLP.Chemscore.Internal.Correction>
0.1104

> <Gold.Rescore>
     Score         DG    S(hbond)    S(metal)    S(lipo)     H(rot)  DE(clash)    DE(int)     intcor
     20.38     -21.98       1.93        0.00     117.23       1.43       0.04       1.55       ----

> <Gold.Chemscore.Fitness>
20.3845

> <Gold.Chemscore.DG>
-21.9775

> <Gold.Chemscore.ZeroCoef>
-5.4800

> <Gold.Chemscore.Hbond>
1.9306

> <Gold.Chemscore.Metal>
0.0000

> <Gold.Chemscore.Lipo>
117.2315

> <Gold.Chemscore.Internal_Hbond>
0.0000

> <Gold.Chemscore.DEClash>
0.0439

> <Gold.Chemscore.DEInternal>
1.5492

> <Gold.Chemscore.Rot>
1.4324

> <Gold.Chemscore.Internal.Correction>
   9.000000E+99

> <Gold.Chemscore.Hbonds>
donor molecule, donor type, donor heavy atom, donor atom, acceptor molecule, acceptor atom, score
      P1  H  6896  6907       L1    19  0.79
      P1  H  7997  8010       L1     2  0.24
      P1  H 10752 10764       L1    22  0.25

> <Gold.Chemscore.Hbond.Weighted>
-6.4483

> <Gold.Chemscore.Metal.Weighted>
-0.0000

> <Gold.Chemscore.Lipo.Weighted>
-13.7161

> <Gold.Chemscore.Internal_Hbond.Weighted>
0.0000

> <Gold.Chemscore.DEClash.Weighted>
0.0439

> <Gold.Chemscore.DEInternal.Weighted>
1.5492

> <Gold.Chemscore.Rot.Weighted>
3.6669

> <Gold.Chemscore.Internal.Correction.Weighted>
   9.000000E+99

> <Gold.Protein.RotatedTorsions>
[ 6907 6896 6895 6894 ] final   41.48 input  -60.11 | X-H torsion
[ 7974 7965 7964 7962 ] final -156.81 input  175.53 | X-H torsion
[ 8008 7997 7996 7995 ] final   -5.11 input   59.86 | X-H torsion
[ 10167 10162 10161 10158 ] final  -23.36 input  -65.29 | X-H torsion
[ 10718 10713 10712 10709 ] final  -12.27 input   66.30 | X-H torsion
[ 10763 10752 10751 10750 ] final  -67.79 input  -60.55 | X-H torsion
[ 11005 11000 10999 10996 ] final  -35.50 input  -57.11 | X-H torsion

> <Gold.Protein.ActiveResidues>
 VAL166  LYS551  ARG553  GLY616  TRP617  ASP618  TYR619  PRO620  LYS621  CYS622 
 ASP623  PHE694  ASN695  SER759  ASP760  ASP761  ALA762  ILE779  LEU786  VAL792 
 PHE793  MET794  SER795  GLU796  ALA797  LYS798  CYS799  TRP800  GLU811  SER814 

> <Gold.Protein.RotatedAtoms>
  152.1959  134.8631  160.0512 H   0  0  0  0  0  0  0  0  0  0  0  0  # atno 6907 bound_to 6896
  151.9503  133.3659  159.4005 H   0  0  0  0  0  0  0  0  0  0  0  0  # atno 6908 bound_to 6896
  150.6944  134.4271  159.5275 H   0  0  0  0  0  0  0  0  0  0  0  0  # atno 6909 bound_to 6896
  144.7576  140.4057  143.6001 H   0  0  0  0  0  0  0  0  0  0  0  0  # atno 7974 bound_to 7965
  154.6073  140.2467  155.7714 H   0  0  0  0  0  0  0  0  0  0  0  0  # atno 8008 bound_to 7997
  156.2349  140.2954  156.0236 H   0  0  0  0  0  0  0  0  0  0  0  0  # atno 8009 bound_to 7997
  155.2111  140.0397  157.2924 H   0  0  0  0  0  0  0  0  0  0  0  0  # atno 8010 bound_to 7997
  140.7288  143.4450  151.0600 H   0  0  0  0  0  0  0  0  0  0  0  0  # atno 10167 bound_to 10162
  156.6470  130.4944  149.6075 H   0  0  0  0  0  0  0  0  0  0  0  0  # atno 10718 bound_to 10713
  154.3797  135.6077  153.5784 H   0  0  0  0  0  0  0  0  0  0  0  0  # atno 10763 bound_to 10752
  152.9788  135.5858  154.4425 H   0  0  0  0  0  0  0  0  0  0  0  0  # atno 10764 bound_to 10752
  154.4192  135.2845  155.1964 H   0  0  0  0  0  0  0  0  0  0  0  0  # atno 10765 bound_to 10752
  140.9801  133.7061  156.1669 H   0  0  0  0  0  0  0  0  0  0  0  0  # atno 11005 bound_to 11000
  145.6727  139.1602  143.2745 LP  0  0  0  0  0  0  0  0  0  0  0  0  # atno 17320 bound_to 7965
  146.1604  140.6797  142.9280 LP  0  0  0  0  0  0  0  0  0  0  0  0  # atno 17321 bound_to 7965
  139.8121  143.7937  152.3172 LP  0  0  0  0  0  0  0  0  0  0  0  0  # atno 17342 bound_to 10162
  139.7990  144.7381  150.9851 LP  0  0  0  0  0  0  0  0  0  0  0  0  # atno 17343 bound_to 10162
  156.2114  130.6681  151.1273 LP  0  0  0  0  0  0  0  0  0  0  0  0  # atno 17370 bound_to 10713
  157.7153  131.0713  150.6350 LP  0  0  0  0  0  0  0  0  0  0  0  0  # atno 17371 bound_to 10713
  140.7199  134.4369  157.5575 LP  0  0  0  0  0  0  0  0  0  0  0  0  # atno 17394 bound_to 11000
  139.8946  134.8701  156.2167 LP  0  0  0  0  0  0  0  0  0  0  0  0  # atno 17395 bound_to 11000

$$$$
