AV-unprocessed.smi:1389|AV-procd|sdf|5651|dock2
  -GOLD-   22720 5273D 1   1.00000     0.00000
 Structure written by MMmdl.
 52 54  0  0  0  0  0  0  0  0  2 V2000
  149.1806  137.4356  155.0453 C   0  0  0  0  0  0  0  0  0  0  0  0
  149.4095  138.5920  154.0386 C   0  0  1  0  0  0  0  0  0  0  0  0
  148.0313  139.0470  153.4758 C   0  0  0  0  0  0  0  0  0  0  0  0
  147.2047  137.9407  153.0004 N   0  0  0  0  0  0  0  0  0  0  0  0
  145.9704  137.6603  153.4407 C   0  0  0  0  0  0  0  0  0  0  0  0
  145.3947  138.3093  154.3139 O   0  0  0  0  0  0  0  0  0  0  0  0
  145.4493  136.6067  152.7905 N   0  0  0  0  0  0  0  0  0  0  0  0
  144.1598  136.0238  152.9518 C   0  0  0  0  0  0  0  0  0  0  0  0
  143.2428  136.4841  153.9317 C   0  0  0  0  0  0  0  0  0  0  0  0
  141.9811  135.8708  154.0531 C   0  0  0  0  0  0  0  0  0  0  0  0
  141.6579  134.8006  153.2005 C   0  0  0  0  0  0  0  0  0  0  0  0
  142.5589  134.3748  152.2910 N   0  3  0  0  0  0  0  0  0  0  0  0
  143.7867  134.9268  152.1274 C   0  0  0  0  0  0  0  0  0  0  0  0
  144.6564  134.3809  151.1588 N   0  0  0  0  0  0  0  0  0  0  0  0
  145.8548  133.7577  151.7159 C   0  0  0  0  0  0  0  0  0  0  0  0
  146.1099  132.4885  150.8983 C   0  0  0  0  0  0  0  0  0  0  0  0
  144.7300  132.1374  150.3562 C   0  0  0  0  0  0  0  0  0  0  0  0
  144.1178  133.5144  150.1121 C   0  0  0  0  0  0  0  0  0  0  0  0
  150.2025  139.7031  154.6138 N   0  0  0  0  0  0  0  0  0  0  0  0
  151.1667  139.2503  155.6236 C   0  0  0  0  0  0  0  0  0  0  0  0
  151.9693  140.4063  156.2455 C   0  0  0  0  0  0  0  0  0  0  0  0
  151.0803  141.3594  156.8114 O   0  0  0  0  0  0  0  0  0  0  0  0
  150.1768  141.8829  155.8482 C   0  0  0  0  0  0  0  0  0  0  0  0
  149.3603  140.7362  155.2279 C   0  0  0  0  0  0  0  0  0  0  0  0
  148.5524  136.6449  154.6371 H   0  0  0  0  0  0  0  0  0  0  0  0
  148.7022  137.7960  155.9566 H   0  0  0  0  0  0  0  0  0  0  0  0
  150.1096  136.9411  155.3251 H   0  0  0  0  0  0  0  0  0  0  0  0
  149.9769  138.1773  153.2038 H   0  0  0  0  0  0  0  0  0  0  0  0
  147.4739  139.5795  154.2470 H   0  0  0  0  0  0  0  0  0  0  0  0
  148.1363  139.7388  152.6412 H   0  0  0  0  0  0  0  0  0  0  0  0
  147.6006  137.3582  152.2770 H   0  0  0  0  0  0  0  0  0  0  0  0
  146.0013  136.2387  152.0298 H   0  0  0  0  0  0  0  0  0  0  0  0
  143.4907  137.2926  154.6024 H   0  0  0  0  0  0  0  0  0  0  0  0
  141.2735  136.2143  154.7936 H   0  0  0  0  0  0  0  0  0  0  0  0
  140.7172  134.2698  153.2236 H   0  0  0  0  0  0  0  0  0  0  0  0
  146.7075  134.4351  151.6671 H   0  0  0  0  0  0  0  0  0  0  0  0
  145.6940  133.4989  152.7636 H   0  0  0  0  0  0  0  0  0  0  0  0
  146.7837  132.7114  150.0697 H   0  0  0  0  0  0  0  0  0  0  0  0
  146.5542  131.6862  151.4877 H   0  0  0  0  0  0  0  0  0  0  0  0
  144.7663  131.5221  149.4567 H   0  0  0  0  0  0  0  0  0  0  0  0
  144.1568  131.6014  151.1139 H   0  0  0  0  0  0  0  0  0  0  0  0
  143.0295  133.4736  150.0690 H   0  0  0  0  0  0  0  0  0  0  0  0
  144.4559  133.9056  149.1520 H   0  0  0  0  0  0  0  0  0  0  0  0
  150.6473  138.7044  156.4127 H   0  0  0  0  0  0  0  0  0  0  0  0
  151.8914  138.5658  155.1877 H   0  0  0  0  0  0  0  0  0  0  0  0
  152.6303  140.0300  157.0264 H   0  0  0  0  0  0  0  0  0  0  0  0
  152.6008  140.8856  155.4957 H   0  0  0  0  0  0  0  0  0  0  0  0
  149.5145  142.5993  156.3344 H   0  0  0  0  0  0  0  0  0  0  0  0
  150.7262  142.4271  155.0784 H   0  0  0  0  0  0  0  0  0  0  0  0
  148.6974  141.1818  154.4886 H   0  0  0  0  0  0  0  0  0  0  0  0
  148.7259  140.2886  155.9945 H   0  0  0  0  0  0  0  0  0  0  0  0
  142.3017  133.5885  151.6941 H   0  0  0  0  0  0  0  0  0  0  0  0
  1  2  1  0  0  0  0
  1 25  1  0  0  0  0
  1 26  1  0  0  0  0
  1 27  1  0  0  0  0
  2  3  1  0  0  0  0
  2 19  1  0  0  0  0
  2 28  1  0  0  0  0
  3  4  1  0  0  0  0
  3 29  1  0  0  0  0
  3 30  1  0  0  0  0
  4  5  1  0  0  0  0
  4 31  1  0  0  0  0
  5  6  2  0  0  0  0
  5  7  1  0  0  0  0
  7  8  1  0  0  0  0
  7 32  1  0  0  0  0
  8 13  1  0  0  0  0
  8  9  2  0  0  0  0
  9 10  1  0  0  0  0
  9 33  1  0  0  0  0
 10 11  2  0  0  0  0
 10 34  1  0  0  0  0
 11 12  1  0  0  0  0
 11 35  1  0  0  0  0
 12 13  2  0  0  0  0
 12 52  1  0  0  0  0
 13 14  1  0  0  0  0
 14 18  1  0  0  0  0
 14 15  1  0  0  0  0
 15 16  1  0  0  0  0
 15 36  1  0  0  0  0
 15 37  1  0  0  0  0
 16 17  1  0  0  0  0
 16 38  1  0  0  0  0
 16 39  1  0  0  0  0
 17 18  1  0  0  0  0
 17 40  1  0  0  0  0
 17 41  1  0  0  0  0
 18 42  1  0  0  0  0
 18 43  1  0  0  0  0
 19 24  1  0  0  0  0
 19 20  1  0  0  0  0
 20 21  1  0  0  0  0
 20 44  1  0  0  0  0
 20 45  1  0  0  0  0
 21 22  1  0  0  0  0
 21 46  1  0  0  0  0
 21 47  1  0  0  0  0
 22 23  1  0  0  0  0
 23 24  1  0  0  0  0
 23 48  1  0  0  0  0
 23 49  1  0  0  0  0
 24 50  1  0  0  0  0
 24 51  1  0  0  0  0
M  CHG  1  12   1
M  END
> <s_m_source_file>
AV-unprocessed.smi

> <i_m_source_file_index>
1389

> <i_lp_mmshare_version>
43012

> <i_f3d_flags>
0

> <s_epik_input>
W0NIMl0xW0NIMl1PW0NIMl1bQ0gyXU4xW0NASF0oW0NIM10pW0NIMl1bTkhdQyg9TylbTkhdYzJbY0hdW2NIXVtjSF1uYzJOM1tDSDJdW0NIMl1bQ0gyXVtDSDJdMw==

> <s_epik_cmdline>
J2VwaWtfcHl0aG9uJywgJy1waCcsICc3LjAnLCAnLXRuJywgJzgnLCAnLW1hJywgJzIwMCcsICctbWV0YWxfYmluZGluZycsICctaW1hZScsICc8aW5maWxlLm1hZT4nLCAnLW9tYWUnLCAnPG91dGZpbGUubWFlPic=

> <r_epik_Ionization_Penalty>
1.37675

> <r_epik_Ionization_Penalty_Charging>
1.11074

> <r_epik_Ionization_Penalty_Neutral>
0.26601

> <r_epik_State_Penalty>
1.46015

> <r_epik_Charging_Adjusted_Penalty>
2.57089

> <i_epik_Tot_Q>
1

> <i_epik_Tot_abs_Q>
1

> <r_epik_Metal_State_Penalty>
1.54223

> <b_epik_Metal_Only>
0

> <s_lp_Force_Field>
OPLS_2005

> <r_lp_Energy>
63.8734

> <b_lp_Chiralities_Consistent>
1

> <s_lp_Variant>
AV-unprocessed.smi:1389-6

> <Gold.Version>
5.8.1

> <Gold.Id.Protein>
6NUR|6NUR_protein|mol2

> <Gold.PLP.Fitness>
37.6136

> <Gold.PLP.PLP>
-34.5946

> <Gold.PLP.part.hbond>
-2.1580

> <Gold.PLP.part.metal>
0.0000

> <Gold.PLP.part.buried>
-4.6618

> <Gold.PLP.part.nonpolar>
-28.2545

> <Gold.PLP.part.repulsive>
0.4424

> <Gold.PLP.ligand.clash>
0.0000

> <Gold.PLP.ligand.torsion>
0.9701

> <Gold.PLP.Chemscore.Hbond>
1.5939

> <Gold.PLP.Chemscore.CHOScore>
0.0000

> <Gold.PLP.Chemscore.Metal>
0.0000

> <Gold.Chemscore.Hbonds>
donor molecule, donor type, donor heavy atom, donor atom, acceptor molecule, acceptor atom, score
      L1  H     4    31       P1  7948  0.91
      P1  H  7989  7998       L1    19  0.56

> <Gold.PLP.Chemscore.Internal.Correction>
0.1773

> <Gold.Rescore>
     Score         DG    S(hbond)    S(metal)    S(lipo)     H(rot)  DE(clash)    DE(int)     intcor
     13.03     -15.68       0.99        0.00      93.86       1.60       0.33       2.32       ----

> <Gold.Chemscore.Fitness>
13.0261

> <Gold.Chemscore.DG>
-15.6776

> <Gold.Chemscore.ZeroCoef>
-5.4800

> <Gold.Chemscore.Hbond>
0.9942

> <Gold.Chemscore.Metal>
0.0000

> <Gold.Chemscore.Lipo>
93.8624

> <Gold.Chemscore.Internal_Hbond>
0.0000

> <Gold.Chemscore.DEClash>
0.3313

> <Gold.Chemscore.DEInternal>
2.3203

> <Gold.Chemscore.Rot>
1.6035

> <Gold.Chemscore.Internal.Correction>
   9.000000E+99

> <Gold.Chemscore.Hbonds>
donor molecule, donor type, donor heavy atom, donor atom, acceptor molecule, acceptor atom, score
      L1  H     4    31       P1  7948  0.90
      P1  H  7989  7998       L1    19  0.03

> <Gold.Chemscore.Hbond.Weighted>
-3.3206

> <Gold.Chemscore.Metal.Weighted>
-0.0000

> <Gold.Chemscore.Lipo.Weighted>
-10.9819

> <Gold.Chemscore.Internal_Hbond.Weighted>
0.0000

> <Gold.Chemscore.DEClash.Weighted>
0.3313

> <Gold.Chemscore.DEInternal.Weighted>
2.3203

> <Gold.Chemscore.Rot.Weighted>
4.1049

> <Gold.Chemscore.Internal.Correction.Weighted>
   9.000000E+99

> <Gold.Protein.RotatedTorsions>
[ 6907 6896 6895 6894 ] final -123.72 input  -60.11 | X-H torsion
[ 7974 7965 7964 7962 ] final -146.76 input  175.53 | X-H torsion
[ 8008 7997 7996 7995 ] final -120.25 input   59.86 | X-H torsion
[ 10167 10162 10161 10158 ] final  -67.15 input  -65.29 | X-H torsion
[ 10718 10713 10712 10709 ] final -150.82 input   66.30 | X-H torsion
[ 10763 10752 10751 10750 ] final   47.24 input  -60.55 | X-H torsion
[ 11005 11000 10999 10996 ] final  -83.46 input  -57.11 | X-H torsion

> <Gold.Protein.ActiveResidues>
 VAL166  LYS551  ARG553  GLY616  TRP617  ASP618  TYR619  PRO620  LYS621  CYS622 
 ASP623  PHE694  ASN695  SER759  ASP760  ASP761  ALA762  ILE779  LEU786  VAL792 
 PHE793  MET794  SER795  GLU796  ALA797  LYS798  CYS799  TRP800  GLU811  SER814 

> <Gold.Protein.RotatedAtoms>
  150.8698  133.7521  159.2964 H   0  0  0  0  0  0  0  0  0  0  0  0  # atno 6907 bound_to 6896
  151.5137  135.1064  159.9870 H   0  0  0  0  0  0  0  0  0  0  0  0  # atno 6908 bound_to 6896
  152.4687  133.7936  159.6971 H   0  0  0  0  0  0  0  0  0  0  0  0  # atno 6909 bound_to 6896
  144.8138  140.5414  143.5625 H   0  0  0  0  0  0  0  0  0  0  0  0  # atno 7974 bound_to 7965
  155.1288  140.0400  157.2769 H   0  0  0  0  0  0  0  0  0  0  0  0  # atno 8008 bound_to 7997
  154.6558  140.2579  155.7137 H   0  0  0  0  0  0  0  0  0  0  0  0  # atno 8009 bound_to 7997
  156.2597  140.2827  156.1010 H   0  0  0  0  0  0  0  0  0  0  0  0  # atno 8010 bound_to 7997
  140.5604  143.2312  151.6738 H   0  0  0  0  0  0  0  0  0  0  0  0  # atno 10167 bound_to 10162
  156.4511  130.8168  151.2399 H   0  0  0  0  0  0  0  0  0  0  0  0  # atno 10718 bound_to 10713
  152.9802  135.5982  154.3731 H   0  0  0  0  0  0  0  0  0  0  0  0  # atno 10763 bound_to 10752
  154.3402  135.2768  155.2428 H   0  0  0  0  0  0  0  0  0  0  0  0  # atno 10764 bound_to 10752
  154.4513  135.5989  153.6249 H   0  0  0  0  0  0  0  0  0  0  0  0  # atno 10765 bound_to 10752
  141.1657  133.7295  156.8723 H   0  0  0  0  0  0  0  0  0  0  0  0  # atno 11005 bound_to 11000
  145.5263  139.1476  143.3524 LP  0  0  0  0  0  0  0  0  0  0  0  0  # atno 17320 bound_to 7965
  146.2439  140.5403  142.8922 LP  0  0  0  0  0  0  0  0  0  0  0  0  # atno 17321 bound_to 7965
  139.5067  144.3670  152.0507 LP  0  0  0  0  0  0  0  0  0  0  0  0  # atno 17342 bound_to 10162
  140.2796  144.3874  150.6123 LP  0  0  0  0  0  0  0  0  0  0  0  0  # atno 17343 bound_to 10162
  157.7503  131.0137  150.3437 LP  0  0  0  0  0  0  0  0  0  0  0  0  # atno 17370 bound_to 10713
  156.3815  130.3881  149.7098 LP  0  0  0  0  0  0  0  0  0  0  0  0  # atno 17371 bound_to 10713
  140.1773  134.9058  157.2906 LP  0  0  0  0  0  0  0  0  0  0  0  0  # atno 17394 bound_to 11000
  140.2435  134.3768  155.7471 LP  0  0  0  0  0  0  0  0  0  0  0  0  # atno 17395 bound_to 11000

$$$$
