AV-unprocessed.smi:3292|AV-procd|sdf|12627|dock2
  -GOLD-   2272018563D 1   1.00000     0.00000
 Structure written by MMmdl.
 38 39  0  0  0  0  0  0  0  0  1 V2000
  146.4034  133.1446  154.3273 C   0  0  0  0  0  0  0  0  0  0  0  0
  146.3483  133.8873  152.9856 C   0  0  2  0  0  0  0  0  0  0  0  0
  146.9509  133.0343  151.8476 C   0  0  0  0  0  0  0  0  0  0  0  0
  145.9379  132.3878  151.0324 N   0  0  0  0  0  0  0  0  0  0  0  0
  144.5760  132.6584  151.0162 C   0  0  0  0  0  0  0  0  0  0  0  0
  144.0198  131.8178  150.0785 C   0  0  0  0  0  0  0  0  0  0  0  0
  145.0131  131.0198  149.5151 N   0  0  0  0  0  0  0  0  0  0  0  0
  146.1199  131.4105  150.1332 C   0  0  0  0  0  0  0  0  0  0  0  0
  147.0606  135.1581  153.1150 N   0  0  0  0  0  0  0  0  0  0  0  0
  146.5499  136.2861  153.6301 C   0  0  0  0  0  0  0  0  0  0  0  0
  145.4313  136.3719  154.1371 O   0  0  0  0  0  0  0  0  0  0  0  0
  147.3851  137.3222  153.4800 N   0  0  0  0  0  0  0  0  0  0  0  0
  147.0549  138.7076  153.7953 C   0  0  0  0  0  0  0  0  0  0  0  0
  148.2581  139.6487  153.5808 C   0  0  1  0  0  0  0  0  0  0  0  0
  148.0537  141.0551  154.1342 C   0  0  0  0  0  0  0  0  0  0  0  0
  149.3926  141.4053  154.7921 C   0  0  0  0  0  0  0  0  0  0  0  0
  150.2939  140.3962  154.3621 O   0  0  0  0  0  0  0  0  0  0  0  0
  149.5506  139.1947  154.2597 C   0  0  0  0  0  0  0  0  0  0  0  0
  145.8568  132.2026  154.2760 H   0  0  0  0  0  0  0  0  0  0  0  0
  145.9570  133.7399  155.1245 H   0  0  0  0  0  0  0  0  0  0  0  0
  147.4307  132.9174  154.6149 H   0  0  0  0  0  0  0  0  0  0  0  0
  145.2961  134.0749  152.7637 H   0  0  0  0  0  0  0  0  0  0  0  0
  147.5837  133.6469  151.2033 H   0  0  0  0  0  0  0  0  0  0  0  0
  147.5913  132.2549  152.2624 H   0  0  0  0  0  0  0  0  0  0  0  0
  144.1304  133.4128  151.6477 H   0  0  0  0  0  0  0  0  0  0  0  0
  142.9895  131.7270  149.7682 H   0  0  0  0  0  0  0  0  0  0  0  0
  147.0886  130.9843  149.9171 H   0  0  0  0  0  0  0  0  0  0  0  0
  147.9916  135.1959  152.7263 H   0  0  0  0  0  0  0  0  0  0  0  0
  148.2859  137.1526  153.0570 H   0  0  0  0  0  0  0  0  0  0  0  0
  146.2054  139.0335  153.1926 H   0  0  0  0  0  0  0  0  0  0  0  0
  146.7295  138.7474  154.8352 H   0  0  0  0  0  0  0  0  0  0  0  0
  148.4601  139.7410  152.5122 H   0  0  0  0  0  0  0  0  0  0  0  0
  147.8095  141.7511  153.3310 H   0  0  0  0  0  0  0  0  0  0  0  0
  147.2478  141.0996  154.8677 H   0  0  0  0  0  0  0  0  0  0  0  0
  149.7495  142.3975  154.5155 H   0  0  0  0  0  0  0  0  0  0  0  0
  149.3062  141.3663  155.8790 H   0  0  0  0  0  0  0  0  0  0  0  0
  149.3591  138.7960  155.2576 H   0  0  0  0  0  0  0  0  0  0  0  0
  150.0870  138.4405  153.6836 H   0  0  0  0  0  0  0  0  0  0  0  0
  1  2  1  0  0  0  0
  1 19  1  0  0  0  0
  1 20  1  0  0  0  0
  1 21  1  0  0  0  0
  2  3  1  0  0  0  0
  2  9  1  0  0  0  0
  2 22  1  0  0  0  0
  3  4  1  0  0  0  0
  3 23  1  0  0  0  0
  3 24  1  0  0  0  0
  4  8  1  0  0  0  0
  4  5  1  0  0  0  0
  5  6  2  0  0  0  0
  5 25  1  0  0  0  0
  6  7  1  0  0  0  0
  6 26  1  0  0  0  0
  7  8  2  0  0  0  0
  8 27  1  0  0  0  0
  9 10  1  0  0  0  0
  9 28  1  0  0  0  0
 10 11  2  0  0  0  0
 10 12  1  0  0  0  0
 12 13  1  0  0  0  0
 12 29  1  0  0  0  0
 13 14  1  0  0  0  0
 13 30  1  0  0  0  0
 13 31  1  0  0  0  0
 14 18  1  0  0  0  0
 14 15  1  0  0  0  0
 14 32  1  0  0  0  0
 15 16  1  0  0  0  0
 15 33  1  0  0  0  0
 15 34  1  0  0  0  0
 16 17  1  0  0  0  0
 16 35  1  0  0  0  0
 16 36  1  0  0  0  0
 17 18  1  0  0  0  0
 18 37  1  0  0  0  0
 18 38  1  0  0  0  0
M  END
> <s_m_source_file>
AV-unprocessed.smi

> <i_m_source_file_index>
3292

> <i_lp_mmshare_version>
43012

> <i_f3d_flags>
0

> <s_epik_input>
W2NIXTFuW2NIXVtjSF1uMVtDSDJdW0NAQEhdKFtDSDNdKVtOSF1DKD1PKVtOSF1bQ0gyXVtDQEBIXTJbQ0gyXVtDSDJdT1tDSDJdMg==

> <s_epik_cmdline>
J2VwaWtfcHl0aG9uJywgJy1waCcsICc3LjAnLCAnLXRuJywgJzgnLCAnLW1hJywgJzIwMCcsICctbWV0YWxfYmluZGluZycsICctaW1hZScsICc8aW5maWxlLm1hZT4nLCAnLW9tYWUnLCAnPG91dGZpbGUubWFlPic=

> <r_lp_tautomer_probability>
1

> <r_epik_Ionization_Penalty>
0.621291

> <r_epik_Ionization_Penalty_Charging>
0.621234

> <r_epik_Ionization_Penalty_Neutral>
5.72199e-05

> <r_epik_State_Penalty>
0.637278

> <r_epik_Charging_Adjusted_Penalty>
1.25851

> <i_epik_Tot_Q>
0

> <i_epik_Tot_abs_Q>
0

> <r_epik_Metal_State_Penalty>
0.306757

> <b_epik_Metal_Only>
0

> <s_lp_Force_Field>
OPLS_2005

> <r_lp_Energy>
18.0695

> <b_lp_Chiralities_Consistent>
1

> <s_lp_Variant>
AV-unprocessed.smi:3292-7

> <Gold.Version>
5.8.1

> <Gold.Id.Protein>
6NUR|6NUR_protein|mol2

> <Gold.PLP.Fitness>
45.0934

> <Gold.PLP.PLP>
-29.3621

> <Gold.PLP.part.hbond>
-4.0000

> <Gold.PLP.part.metal>
0.0000

> <Gold.PLP.part.buried>
-2.0206

> <Gold.PLP.part.nonpolar>
-24.8974

> <Gold.PLP.part.repulsive>
0.3163

> <Gold.PLP.ligand.clash>
0.0000

> <Gold.PLP.ligand.torsion>
1.1175

> <Gold.PLP.Chemscore.Hbond>
3.3280

> <Gold.PLP.Chemscore.CHOScore>
2.6439

> <Gold.PLP.Chemscore.Metal>
0.0000

> <Gold.Chemscore.Hbonds>
donor molecule, donor type, donor heavy atom, donor atom, acceptor molecule, acceptor atom, score
      L1  H     9    28       P1  7948  0.82
      L1  H    12    29       P1  7948  0.80
      P1  H  7989  7998       L1    17  0.98
      L1  C     6    26       P1 10952  0.88
      L1  C     8    27       P1 10747  0.69

> <Gold.PLP.Chemscore.Internal.Correction>
0.0506

> <Gold.Rescore>
     Score         DG    S(hbond)    S(metal)    S(lipo)     H(rot)  DE(clash)    DE(int)     intcor
     15.82     -17.23       3.00        0.00      61.90       2.16       0.26       1.15       ----

> <Gold.Chemscore.Fitness>
15.8229

> <Gold.Chemscore.DG>
-17.2311

> <Gold.Chemscore.ZeroCoef>
-5.4800

> <Gold.Chemscore.Hbond>
3.0037

> <Gold.Chemscore.Metal>
0.0000

> <Gold.Chemscore.Lipo>
61.9028

> <Gold.Chemscore.Internal_Hbond>
0.0000

> <Gold.Chemscore.DEClash>
0.2574

> <Gold.Chemscore.DEInternal>
1.1508

> <Gold.Chemscore.Rot>
2.1577

> <Gold.Chemscore.Internal.Correction>
   9.000000E+99

> <Gold.Chemscore.Hbonds>
donor molecule, donor type, donor heavy atom, donor atom, acceptor molecule, acceptor atom, score
      L1  H     9    28       P1  7948  0.80
      L1  H    12    29       P1  7948  0.79
      P1  H  7989  7998       L1    17  0.88

> <Gold.Chemscore.Hbond.Weighted>
-10.0322

> <Gold.Chemscore.Metal.Weighted>
-0.0000

> <Gold.Chemscore.Lipo.Weighted>
-7.2426

> <Gold.Chemscore.Internal_Hbond.Weighted>
0.0000

> <Gold.Chemscore.DEClash.Weighted>
0.2574

> <Gold.Chemscore.DEInternal.Weighted>
1.1508

> <Gold.Chemscore.Rot.Weighted>
5.5237

> <Gold.Chemscore.Internal.Correction.Weighted>
   9.000000E+99

> <Gold.Protein.RotatedTorsions>
[ 6907 6896 6895 6894 ] final  -42.30 input  -60.11 | X-H torsion
[ 7974 7965 7964 7962 ] final  -42.72 input  175.53 | X-H torsion
[ 8008 7997 7996 7995 ] final   41.14 input   59.86 | X-H torsion
[ 10167 10162 10161 10158 ] final  -70.68 input  -65.29 | X-H torsion
[ 10718 10713 10712 10709 ] final -103.38 input   66.30 | X-H torsion
[ 10763 10752 10751 10750 ] final -127.38 input  -60.55 | X-H torsion
[ 11005 11000 10999 10996 ] final  -42.55 input  -57.11 | X-H torsion

> <Gold.Protein.ActiveResidues>
 VAL166  LYS551  ARG553  GLY616  TRP617  ASP618  TYR619  PRO620  LYS621  CYS622 
 ASP623  PHE694  ASN695  SER759  ASP760  ASP761  ALA762  ILE779  LEU786  VAL792 
 PHE793  MET794  SER795  GLU796  ALA797  LYS798  CYS799  TRP800  GLU811  SER814 

> <Gold.Protein.RotatedAtoms>
  150.9568  134.8961  159.7705 H   0  0  0  0  0  0  0  0  0  0  0  0  # atno 6907 bound_to 6896
  152.5141  134.3729  159.9334 H   0  0  0  0  0  0  0  0  0  0  0  0  # atno 6908 bound_to 6896
  151.3742  133.3803  159.2738 H   0  0  0  0  0  0  0  0  0  0  0  0  # atno 6909 bound_to 6896
  146.0088  140.6988  142.9234 H   0  0  0  0  0  0  0  0  0  0  0  0  # atno 7974 bound_to 7965
  155.2646  140.3361  155.4270 H   0  0  0  0  0  0  0  0  0  0  0  0  # atno 8008 bound_to 7997
  156.2159  140.1789  156.7631 H   0  0  0  0  0  0  0  0  0  0  0  0  # atno 8009 bound_to 7997
  154.5753  140.0663  156.9010 H   0  0  0  0  0  0  0  0  0  0  0  0  # atno 8010 bound_to 7997
  140.5333  143.2320  151.7222 H   0  0  0  0  0  0  0  0  0  0  0  0  # atno 10167 bound_to 10162
  156.0263  130.5464  150.7245 H   0  0  0  0  0  0  0  0  0  0  0  0  # atno 10718 bound_to 10713
  154.8752  135.3963  154.3585 H   0  0  0  0  0  0  0  0  0  0  0  0  # atno 10763 bound_to 10752
  153.4361  135.7026  153.6204 H   0  0  0  0  0  0  0  0  0  0  0  0  # atno 10764 bound_to 10752
  153.4805  135.3770  155.2409 H   0  0  0  0  0  0  0  0  0  0  0  0  # atno 10765 bound_to 10752
  141.0324  133.6814  156.2611 H   0  0  0  0  0  0  0  0  0  0  0  0  # atno 11005 bound_to 11000
  144.6945  140.3362  143.7207 LP  0  0  0  0  0  0  0  0  0  0  0  0  # atno 17320 bound_to 7965
  145.7374  139.1754  143.2395 LP  0  0  0  0  0  0  0  0  0  0  0  0  # atno 17321 bound_to 7965
  139.4962  144.4081  152.0110 LP  0  0  0  0  0  0  0  0  0  0  0  0  # atno 17342 bound_to 10162
  140.3184  144.3456  150.6015 LP  0  0  0  0  0  0  0  0  0  0  0  0  # atno 17343 bound_to 10162
  157.4852  131.0906  151.0490 LP  0  0  0  0  0  0  0  0  0  0  0  0  # atno 17370 bound_to 10713
  157.0912  130.5943  149.5440 LP  0  0  0  0  0  0  0  0  0  0  0  0  # atno 17371 bound_to 10713
  140.6384  134.5192  157.5567 LP  0  0  0  0  0  0  0  0  0  0  0  0  # atno 17394 bound_to 11000
  139.9217  134.8136  156.1192 LP  0  0  0  0  0  0  0  0  0  0  0  0  # atno 17395 bound_to 11000

$$$$
