AV-unprocessed.smi:1205|AV-procd|sdf|5043|dock4
  -GOLD-   22720 4 63D 1   1.00000     0.00000
 Structure written by MMmdl.
 49 50  0  0  0  0  0  0  0  0  2 V2000
  150.5118  141.9622  156.1955 C   0  0  0  0  0  0  0  0  0  0  0  0
  150.2764  140.6504  155.5067 C   0  0  0  0  0  0  0  0  0  0  0  0
  149.0301  140.0468  155.1694 C   0  0  0  0  0  0  0  0  0  0  0  0
  149.4139  138.8802  154.5665 C   0  0  0  0  0  0  0  0  0  0  0  0
  148.6390  137.8998  154.0304 N   0  0  0  0  0  0  0  0  0  0  0  0
  147.5483  137.3123  154.5522 C   0  0  0  0  0  0  0  0  0  0  0  0
  147.0516  137.5722  155.6484 O   0  0  0  0  0  0  0  0  0  0  0  0
  147.0482  136.3891  153.7172 N   0  0  0  0  0  0  0  0  0  0  0  0
  145.8816  135.5509  153.9837 C   0  0  0  0  0  0  0  0  0  0  0  0
  144.8748  135.5341  152.8094 C   0  0  2  0  0  0  0  0  0  0  0  0
  143.4591  136.0144  153.1999 C   0  0  0  0  0  0  0  0  0  0  0  0
  144.8664  134.1944  152.1510 N   0  3  1  0  0  0  0  0  0  0  0  0
  143.8090  133.9978  151.1215 C   0  0  0  0  0  0  0  0  0  0  0  0
  143.7264  132.5220  150.7027 C   0  0  0  0  0  0  0  0  0  0  0  0
  145.0865  132.0193  150.1968 C   0  0  0  0  0  0  0  0  0  0  0  0
  146.2015  132.2846  151.2265 C   0  0  2  0  0  0  0  0  0  0  0  0
  146.1367  131.3307  152.4323 C   0  0  0  0  0  0  0  0  0  0  0  0
  146.2033  133.7669  151.6562 C   0  0  0  0  0  0  0  0  0  0  0  0
  150.7896  138.8168  154.5552 N   0  0  0  0  0  0  0  0  0  0  0  0
  151.6617  137.7864  154.0260 C   0  0  0  0  0  0  0  0  0  0  0  0
  151.3187  139.9145  155.1373 N   0  0  0  0  0  0  0  0  0  0  0  0
  149.5722  142.4164  156.5107 H   0  0  0  0  0  0  0  0  0  0  0  0
  151.0155  142.6674  155.5340 H   0  0  0  0  0  0  0  0  0  0  0  0
  151.1321  141.8347  157.0833 H   0  0  0  0  0  0  0  0  0  0  0  0
  148.0350  140.4256  155.3475 H   0  0  0  0  0  0  0  0  0  0  0  0
  148.9345  137.5671  153.1244 H   0  0  0  0  0  0  0  0  0  0  0  0
  147.5202  136.2433  152.8364 H   0  0  0  0  0  0  0  0  0  0  0  0
  146.2441  134.5385  154.1652 H   0  0  0  0  0  0  0  0  0  0  0  0
  145.4014  135.8653  154.9108 H   0  0  0  0  0  0  0  0  0  0  0  0
  145.2610  136.2455  152.0779 H   0  0  0  0  0  0  0  0  0  0  0  0
  143.4681  137.0601  153.5062 H   0  0  0  0  0  0  0  0  0  0  0  0
  143.0514  135.4377  154.0303 H   0  0  0  0  0  0  0  0  0  0  0  0
  142.7626  135.9400  152.3652 H   0  0  0  0  0  0  0  0  0  0  0  0
  142.8382  134.3125  151.5020 H   0  0  0  0  0  0  0  0  0  0  0  0
  144.0205  134.6127  150.2457 H   0  0  0  0  0  0  0  0  0  0  0  0
  143.3931  131.9167  151.5460 H   0  0  0  0  0  0  0  0  0  0  0  0
  142.9740  132.3991  149.9231 H   0  0  0  0  0  0  0  0  0  0  0  0
  145.0324  130.9576  149.9538 H   0  0  0  0  0  0  0  0  0  0  0  0
  145.3300  132.5325  149.2654 H   0  0  0  0  0  0  0  0  0  0  0  0
  147.1529  132.0871  150.7310 H   0  0  0  0  0  0  0  0  0  0  0  0
  145.2278  131.4728  153.0170 H   0  0  0  0  0  0  0  0  0  0  0  0
  146.9846  131.4874  153.0998 H   0  0  0  0  0  0  0  0  0  0  0  0
  146.1639  130.2895  152.1099 H   0  0  0  0  0  0  0  0  0  0  0  0
  146.4938  134.3929  150.8115 H   0  0  0  0  0  0  0  0  0  0  0  0
  146.9584  133.9176  152.4289 H   0  0  0  0  0  0  0  0  0  0  0  0
  151.3057  136.8044  154.3391 H   0  0  0  0  0  0  0  0  0  0  0  0
  152.6806  137.9226  154.3912 H   0  0  0  0  0  0  0  0  0  0  0  0
  151.6648  137.8350  152.9369 H   0  0  0  0  0  0  0  0  0  0  0  0
  144.6484  133.5448  152.8931 H   0  0  0  0  0  0  0  0  0  0  0  0
  1  2  1  0  0  0  0
  1 22  1  0  0  0  0
  1 23  1  0  0  0  0
  1 24  1  0  0  0  0
  2 21  2  0  0  0  0
  2  3  1  0  0  0  0
  3  4  2  0  0  0  0
  3 25  1  0  0  0  0
  4  5  1  0  0  0  0
  4 19  1  0  0  0  0
  5  6  1  0  0  0  0
  5 26  1  0  0  0  0
  6  7  2  0  0  0  0
  6  8  1  0  0  0  0
  8  9  1  0  0  0  0
  8 27  1  0  0  0  0
  9 10  1  0  0  0  0
  9 28  1  0  0  0  0
  9 29  1  0  0  0  0
 10 11  1  0  0  0  0
 10 12  1  0  0  0  0
 10 30  1  0  0  0  0
 11 31  1  0  0  0  0
 11 32  1  0  0  0  0
 11 33  1  0  0  0  0
 12 18  1  0  0  0  0
 12 13  1  0  0  0  0
 12 49  1  0  0  0  0
 13 14  1  0  0  0  0
 13 34  1  0  0  0  0
 13 35  1  0  0  0  0
 14 15  1  0  0  0  0
 14 36  1  0  0  0  0
 14 37  1  0  0  0  0
 15 16  1  0  0  0  0
 15 38  1  0  0  0  0
 15 39  1  0  0  0  0
 16 17  1  0  0  0  0
 16 18  1  0  0  0  0
 16 40  1  0  0  0  0
 17 41  1  0  0  0  0
 17 42  1  0  0  0  0
 17 43  1  0  0  0  0
 18 44  1  0  0  0  0
 18 45  1  0  0  0  0
 19 20  1  0  0  0  0
 19 21  1  0  0  0  0
 20 46  1  0  0  0  0
 20 47  1  0  0  0  0
 20 48  1  0  0  0  0
M  CHG  1  12   1
M  END
> <s_m_source_file>
AV-unprocessed.smi

> <i_m_source_file_index>
1205

> <i_lp_mmshare_version>
43012

> <i_f3d_flags>
0

> <s_epik_input>
W0NIM11jMVtjSF1jKG4objEpW0NIM10pW05IXUMoPU8pW05IXVtDSDJdW0NASF0oW0NIM10pTjJbQ0gyXVtDSDJdW0NIMl1bQ0BASF0oW0NIM10pW0NIMl0y

> <s_epik_cmdline>
J2VwaWtfcHl0aG9uJywgJy1waCcsICc3LjAnLCAnLXRuJywgJzgnLCAnLW1hJywgJzIwMCcsICctbWV0YWxfYmluZGluZycsICctaW1hZScsICc8aW5maWxlLm1hZT4nLCAnLW9tYWUnLCAnPG91dGZpbGUubWFlPic=

> <r_lp_tautomer_probability>
1

> <r_epik_Ionization_Penalty>
0.0020309

> <r_epik_Ionization_Penalty_Charging>
0.00195276

> <r_epik_Ionization_Penalty_Neutral>
7.81448e-05

> <r_epik_State_Penalty>
0.00133177

> <r_epik_Charging_Adjusted_Penalty>
0.00328452

> <i_epik_Tot_Q>
1

> <i_epik_Tot_abs_Q>
1

> <r_epik_Metal_State_Penalty>
-0

> <b_epik_Metal_Only>
0

> <s_lp_Force_Field>
OPLS_2005

> <r_lp_Energy>
25.0457

> <b_lp_Chiralities_Consistent>
1

> <s_lp_Variant>
AV-unprocessed.smi:1205-5

> <Gold.Version>
5.8.1

> <Gold.Id.Protein>
6NUR|6NUR_protein|mol2

> <Gold.PLP.Fitness>
40.6594

> <Gold.PLP.PLP>
-34.7455

> <Gold.PLP.part.hbond>
-3.0000

> <Gold.PLP.part.metal>
0.0000

> <Gold.PLP.part.buried>
-2.9396

> <Gold.PLP.part.nonpolar>
-28.3211

> <Gold.PLP.part.repulsive>
0.0737

> <Gold.PLP.ligand.clash>
0.0000

> <Gold.PLP.ligand.torsion>
1.2629

> <Gold.PLP.Chemscore.Hbond>
2.7650

> <Gold.PLP.Chemscore.CHOScore>
0.0000

> <Gold.PLP.Chemscore.Metal>
0.0000

> <Gold.Chemscore.Hbonds>
donor molecule, donor type, donor heavy atom, donor atom, acceptor molecule, acceptor atom, score
      L1  H     5    26       P1  7948  1.00
      L1  H     8    27       P1  7948  1.00
      P1  H  7989  7998       L1    21  0.64

> <Gold.PLP.Chemscore.Internal.Correction>
0.1446

> <Gold.Rescore>
     Score         DG    S(hbond)    S(metal)    S(lipo)     H(rot)  DE(clash)    DE(int)     intcor
     16.77     -18.16       1.94        0.00      85.10       1.47       0.10       1.29       ----

> <Gold.Chemscore.Fitness>
16.7670

> <Gold.Chemscore.DG>
-18.1617

> <Gold.Chemscore.ZeroCoef>
-5.4800

> <Gold.Chemscore.Hbond>
1.9395

> <Gold.Chemscore.Metal>
0.0000

> <Gold.Chemscore.Lipo>
85.0967

> <Gold.Chemscore.Internal_Hbond>
0.0000

> <Gold.Chemscore.DEClash>
0.1048

> <Gold.Chemscore.DEInternal>
1.2899

> <Gold.Chemscore.Rot>
1.4658

> <Gold.Chemscore.Internal.Correction>
   9.000000E+99

> <Gold.Chemscore.Hbonds>
donor molecule, donor type, donor heavy atom, donor atom, acceptor molecule, acceptor atom, score
      L1  H     5    26       P1  7948  0.95
      L1  H     8    27       P1  7948  0.96
      P1  H  7989  7998       L1    21  0.01

> <Gold.Chemscore.Hbond.Weighted>
-6.4780

> <Gold.Chemscore.Metal.Weighted>
-0.0000

> <Gold.Chemscore.Lipo.Weighted>
-9.9563

> <Gold.Chemscore.Internal_Hbond.Weighted>
0.0000

> <Gold.Chemscore.DEClash.Weighted>
0.1048

> <Gold.Chemscore.DEInternal.Weighted>
1.2899

> <Gold.Chemscore.Rot.Weighted>
3.7526

> <Gold.Chemscore.Internal.Correction.Weighted>
   9.000000E+99

> <Gold.Protein.RotatedTorsions>
[ 6907 6896 6895 6894 ] final  170.67 input  -60.11 | X-H torsion
[ 7974 7965 7964 7962 ] final   37.84 input  175.53 | X-H torsion
[ 8008 7997 7996 7995 ] final -144.29 input   59.86 | X-H torsion
[ 10167 10162 10161 10158 ] final  -38.45 input  -65.29 | X-H torsion
[ 10718 10713 10712 10709 ] final  176.62 input   66.30 | X-H torsion
[ 10763 10752 10751 10750 ] final  -20.87 input  -60.55 | X-H torsion
[ 11005 11000 10999 10996 ] final  143.78 input  -57.11 | X-H torsion

> <Gold.Protein.ActiveResidues>
 VAL166  LYS551  ARG553  GLY616  TRP617  ASP618  TYR619  PRO620  LYS621  CYS622 
 ASP623  PHE694  ASN695  SER759  ASP760  ASP761  ALA762  ILE779  LEU786  VAL792 
 PHE793  MET794  SER795  GLU796  ALA797  LYS798  CYS799  TRP800  GLU811  SER814 

> <Gold.Protein.RotatedAtoms>
  151.8123  133.3383  159.3558 H   0  0  0  0  0  0  0  0  0  0  0  0  # atno 6907 bound_to 6896
  150.7322  134.5652  159.5871 H   0  0  0  0  0  0  0  0  0  0  0  0  # atno 6908 bound_to 6896
  152.3066  134.7549  160.0397 H   0  0  0  0  0  0  0  0  0  0  0  0  # atno 6909 bound_to 6896
  146.1107  139.5845  142.9354 H   0  0  0  0  0  0  0  0  0  0  0  0  # atno 7974 bound_to 7965
  155.5246  140.0594  157.2900 H   0  0  0  0  0  0  0  0  0  0  0  0  # atno 8008 bound_to 7997
  154.4506  140.1946  156.0478 H   0  0  0  0  0  0  0  0  0  0  0  0  # atno 8009 bound_to 7997
  156.0695  140.3262  155.7562 H   0  0  0  0  0  0  0  0  0  0  0  0  # atno 8010 bound_to 7997
  140.7092  143.3277  151.2642 H   0  0  0  0  0  0  0  0  0  0  0  0  # atno 10167 bound_to 10162
  156.9174  130.9929  151.3010 H   0  0  0  0  0  0  0  0  0  0  0  0  # atno 10718 bound_to 10713
  153.6272  135.6990  153.5288 H   0  0  0  0  0  0  0  0  0  0  0  0  # atno 10763 bound_to 10752
  153.2889  135.4163  155.1148 H   0  0  0  0  0  0  0  0  0  0  0  0  # atno 10764 bound_to 10752
  154.8530  135.3620  154.5814 H   0  0  0  0  0  0  0  0  0  0  0  0  # atno 10765 bound_to 10752
  140.0580  134.9220  157.1135 H   0  0  0  0  0  0  0  0  0  0  0  0  # atno 11005 bound_to 11000
  145.5668  141.0398  143.2196 LP  0  0  0  0  0  0  0  0  0  0  0  0  # atno 17320 bound_to 7965
  144.7509  139.7196  143.7273 LP  0  0  0  0  0  0  0  0  0  0  0  0  # atno 17321 bound_to 7965
  139.6749  143.9954  152.2775 LP  0  0  0  0  0  0  0  0  0  0  0  0  # atno 17342 bound_to 10162
  139.9565  144.6586  150.8120 LP  0  0  0  0  0  0  0  0  0  0  0  0  # atno 17343 bound_to 10162
  157.5929  130.8457  149.8686 LP  0  0  0  0  0  0  0  0  0  0  0  0  # atno 17370 bound_to 10713
  156.0507  130.3718  150.1208 LP  0  0  0  0  0  0  0  0  0  0  0  0  # atno 17371 bound_to 10713
  140.3813  134.2284  155.7171 LP  0  0  0  0  0  0  0  0  0  0  0  0  # atno 17394 bound_to 11000
  141.1961  133.8091  157.0687 LP  0  0  0  0  0  0  0  0  0  0  0  0  # atno 17395 bound_to 11000

$$$$
