AV-unprocessed.smi:3303|AV-procd|sdf|12681|dock9
  -GOLD-   2272019 13D 1   1.00000     0.00000
 Structure written by MMmdl.
 44 45  0  0  0  0  0  0  0  0  2 V2000
  144.4580  135.7098  152.4256 C   0  0  0  0  0  0  0  0  0  0  0  0
  145.1603  134.8605  151.3511 C   0  0  2  0  0  0  0  0  0  0  0  0
  144.1224  134.3006  150.3586 C   0  0  0  0  0  0  0  0  0  0  0  0
  144.7511  133.4920  149.2820 N   0  3  2  0  0  0  0  0  0  0  0  0
  143.7508  133.1035  148.2582 C   0  0  0  0  0  0  0  0  0  0  0  0
  145.5348  132.3471  149.8338 C   0  0  1  0  0  0  0  0  0  0  0  0
  146.2089  131.5009  148.7360 C   0  0  0  0  0  0  0  0  0  0  0  0
  146.6031  132.8647  150.8168 C   0  0  0  0  0  0  0  0  0  0  0  0
  145.9902  133.7027  151.9500 C   0  0  1  0  0  0  0  0  0  0  0  0
  147.0895  134.2318  152.7468 N   0  0  0  0  0  0  0  0  0  0  0  0
  147.8278  133.1705  153.4172 C   0  0  0  0  0  0  0  0  0  0  0  0
  148.9994  133.7439  154.2325 C   0  0  0  0  0  0  0  0  0  0  0  0
  149.9237  132.6723  154.7872 C   0  0  0  0  0  0  0  0  0  0  0  0
  149.7989  131.3317  154.3645 C   0  0  0  0  0  0  0  0  0  0  0  0
  150.6630  130.3687  154.9209 C   0  0  0  0  0  0  0  0  0  0  0  0
  151.6126  130.7805  155.8756 C   0  0  0  0  0  0  0  0  0  0  0  0
  151.6569  132.1430  156.2317 C   0  0  0  0  0  0  0  0  0  0  0  0
  150.8341  133.0743  155.7037 N   0  0  0  0  0  0  0  0  0  0  0  0
  143.8042  135.0997  153.0496 H   0  0  0  0  0  0  0  0  0  0  0  0
  143.8492  136.4919  151.9712 H   0  0  0  0  0  0  0  0  0  0  0  0
  145.1770  136.2055  153.0783 H   0  0  0  0  0  0  0  0  0  0  0  0
  145.8311  135.5189  150.7958 H   0  0  0  0  0  0  0  0  0  0  0  0
  143.3882  133.6896  150.8865 H   0  0  0  0  0  0  0  0  0  0  0  0
  143.5745  135.1302  149.9093 H   0  0  0  0  0  0  0  0  0  0  0  0
  143.0580  132.3580  148.6507 H   0  0  0  0  0  0  0  0  0  0  0  0
  144.2269  132.6998  147.3651 H   0  0  0  0  0  0  0  0  0  0  0  0
  143.1698  133.9684  147.9359 H   0  0  0  0  0  0  0  0  0  0  0  0
  144.8475  131.7003  150.3824 H   0  0  0  0  0  0  0  0  0  0  0  0
  146.8500  130.7359  149.1747 H   0  0  0  0  0  0  0  0  0  0  0  0
  146.8299  132.1150  148.0831 H   0  0  0  0  0  0  0  0  0  0  0  0
  145.4810  130.9758  148.1179 H   0  0  0  0  0  0  0  0  0  0  0  0
  147.1486  132.0217  151.2437 H   0  0  0  0  0  0  0  0  0  0  0  0
  147.3372  133.4600  150.2700 H   0  0  0  0  0  0  0  0  0  0  0  0
  145.3480  133.0573  152.5521 H   0  0  0  0  0  0  0  0  0  0  0  0
  147.7223  134.7630  152.1654 H   0  0  0  0  0  0  0  0  0  0  0  0
  147.1682  132.6023  154.0739 H   0  0  0  0  0  0  0  0  0  0  0  0
  148.2053  132.4785  152.6636 H   0  0  0  0  0  0  0  0  0  0  0  0
  149.5851  134.4115  153.5995 H   0  0  0  0  0  0  0  0  0  0  0  0
  148.6241  134.3600  155.0511 H   0  0  0  0  0  0  0  0  0  0  0  0
  149.0563  131.0452  153.6344 H   0  0  0  0  0  0  0  0  0  0  0  0
  150.5971  129.3331  154.6224 H   0  0  0  0  0  0  0  0  0  0  0  0
  152.2902  130.0696  156.3249 H   0  0  0  0  0  0  0  0  0  0  0  0
  152.3708  132.4938  156.9623 H   0  0  0  0  0  0  0  0  0  0  0  0
  145.4119  134.0995  148.8186 H   0  0  0  0  0  0  0  0  0  0  0  0
  1  2  1  0  0  0  0
  1 19  1  0  0  0  0
  1 20  1  0  0  0  0
  1 21  1  0  0  0  0
  2  9  1  0  0  0  0
  2  3  1  0  0  0  0
  2 22  1  0  0  0  0
  3  4  1  0  0  0  0
  3 23  1  0  0  0  0
  3 24  1  0  0  0  0
  4  5  1  0  0  0  0
  4  6  1  0  0  0  0
  4 44  1  0  0  0  0
  5 25  1  0  0  0  0
  5 26  1  0  0  0  0
  5 27  1  0  0  0  0
  6  7  1  0  0  0  0
  6  8  1  0  0  0  0
  6 28  1  0  0  0  0
  7 29  1  0  0  0  0
  7 30  1  0  0  0  0
  7 31  1  0  0  0  0
  8  9  1  0  0  0  0
  8 32  1  0  0  0  0
  8 33  1  0  0  0  0
  9 10  1  0  0  0  0
  9 34  1  0  0  0  0
 10 11  1  0  0  0  0
 10 35  1  0  0  0  0
 11 12  1  0  0  0  0
 11 36  1  0  0  0  0
 11 37  1  0  0  0  0
 12 13  1  0  0  0  0
 12 38  1  0  0  0  0
 12 39  1  0  0  0  0
 13 18  1  0  0  0  0
 13 14  2  0  0  0  0
 14 15  1  0  0  0  0
 14 40  1  0  0  0  0
 15 16  2  0  0  0  0
 15 41  1  0  0  0  0
 16 17  1  0  0  0  0
 16 42  1  0  0  0  0
 17 18  2  0  0  0  0
 17 43  1  0  0  0  0
M  CHG  1   4   1
M  END
> <s_m_source_file>
AV-unprocessed.smi

> <i_m_source_file_index>
3303

> <i_lp_mmshare_version>
43012

> <i_f3d_flags>
0

> <s_epik_input>
W0NIM11bQ0BASF0xW0NIMl1OKFtDSDNdKVtDQEBIXShbQ0gzXSlbQ0gyXVtDQEhdMVtOSF1bQ0gyXVtDSDJdYzJbY0hdW2NIXVtjSF1bY0hdbjI=

> <s_epik_cmdline>
J2VwaWtfcHl0aG9uJywgJy1waCcsICc3LjAnLCAnLXRuJywgJzgnLCAnLW1hJywgJzIwMCcsICctbWV0YWxfYmluZGluZycsICctaW1hZScsICc8aW5maWxlLm1hZT4nLCAnLW9tYWUnLCAnPG91dGZpbGUubWFlPic=

> <r_epik_Ionization_Penalty>
2.31085

> <r_epik_Ionization_Penalty_Charging>
0.000313057

> <r_epik_Ionization_Penalty_Neutral>
2.31054

> <r_epik_State_Penalty>
2.4087

> <r_epik_Charging_Adjusted_Penalty>
2.40902

> <i_epik_Tot_Q>
1

> <i_epik_Tot_abs_Q>
1

> <r_epik_Metal_State_Penalty>
2.30979

> <b_epik_Metal_Only>
0

> <s_lp_Force_Field>
OPLS_2005

> <r_lp_Energy>
25.5146

> <b_lp_Chiralities_Consistent>
1

> <s_lp_Variant>
AV-unprocessed.smi:3303-25

> <Gold.Version>
5.8.1

> <Gold.Id.Protein>
6NUR|6NUR_protein|mol2

> <Gold.PLP.Fitness>
41.5593

> <Gold.PLP.PLP>
-35.8282

> <Gold.PLP.part.hbond>
-1.9612

> <Gold.PLP.part.metal>
0.0000

> <Gold.PLP.part.buried>
0.2346

> <Gold.PLP.part.nonpolar>
-33.7642

> <Gold.PLP.part.repulsive>
0.1505

> <Gold.PLP.ligand.clash>
0.0000

> <Gold.PLP.ligand.torsion>
0.1374

> <Gold.PLP.Chemscore.Hbond>
2.0000

> <Gold.PLP.Chemscore.CHOScore>
0.0000

> <Gold.PLP.Chemscore.Metal>
0.0000

> <Gold.Chemscore.Hbonds>
donor molecule, donor type, donor heavy atom, donor atom, acceptor molecule, acceptor atom, score
      L1  H     4    44       P1  7921  1.00
      L1  H    10    35       P1  7948  1.00

> <Gold.PLP.Chemscore.Internal.Correction>
0.0058

> <Gold.Rescore>
     Score         DG    S(hbond)    S(metal)    S(lipo)     H(rot)  DE(clash)    DE(int)     intcor
     20.20     -20.45       1.86        0.00     104.05       1.33       0.10       0.14       ----

> <Gold.Chemscore.Fitness>
20.2036

> <Gold.Chemscore.DG>
-20.4520

> <Gold.Chemscore.ZeroCoef>
-5.4800

> <Gold.Chemscore.Hbond>
1.8551

> <Gold.Chemscore.Metal>
0.0000

> <Gold.Chemscore.Lipo>
104.0490

> <Gold.Chemscore.Internal_Hbond>
0.0000

> <Gold.Chemscore.DEClash>
0.1034

> <Gold.Chemscore.DEInternal>
0.1450

> <Gold.Chemscore.Rot>
1.3272

> <Gold.Chemscore.Internal.Correction>
   9.000000E+99

> <Gold.Chemscore.Hbonds>
donor molecule, donor type, donor heavy atom, donor atom, acceptor molecule, acceptor atom, score
      L1  H     4    44       P1  7921  0.86
      L1  H    10    35       P1  7948  0.68

> <Gold.Chemscore.Hbond.Weighted>
-6.1959

> <Gold.Chemscore.Metal.Weighted>
-0.0000

> <Gold.Chemscore.Lipo.Weighted>
-12.1737

> <Gold.Chemscore.Internal_Hbond.Weighted>
0.0000

> <Gold.Chemscore.DEClash.Weighted>
0.1034

> <Gold.Chemscore.DEInternal.Weighted>
0.1450

> <Gold.Chemscore.Rot.Weighted>
3.3976

> <Gold.Chemscore.Internal.Correction.Weighted>
   9.000000E+99

> <Gold.Protein.RotatedTorsions>
[ 6907 6896 6895 6894 ] final   61.06 input  -60.11 | X-H torsion
[ 7974 7965 7964 7962 ] final -125.95 input  175.53 | X-H torsion
[ 8008 7997 7996 7995 ] final  103.24 input   59.86 | X-H torsion
[ 10167 10162 10161 10158 ] final  -12.66 input  -65.29 | X-H torsion
[ 10718 10713 10712 10709 ] final   -4.32 input   66.30 | X-H torsion
[ 10763 10752 10751 10750 ] final   57.18 input  -60.55 | X-H torsion
[ 11005 11000 10999 10996 ] final   -0.51 input  -57.11 | X-H torsion

> <Gold.Protein.ActiveResidues>
 VAL166  LYS551  ARG553  GLY616  TRP617  ASP618  TYR619  PRO620  LYS621  CYS622 
 ASP623  PHE694  ASN695  SER759  ASP760  ASP761  ALA762  ILE779  LEU786  VAL792 
 PHE793  MET794  SER795  GLU796  ALA797  LYS798  CYS799  TRP800  GLU811  SER814 

> <Gold.Protein.RotatedAtoms>
  152.4056  134.6212  160.0051 H   0  0  0  0  0  0  0  0  0  0  0  0  # atno 6907 bound_to 6896
  151.6404  133.3321  159.3137 H   0  0  0  0  0  0  0  0  0  0  0  0  # atno 6908 bound_to 6896
  150.7952  134.7047  159.6614 H   0  0  0  0  0  0  0  0  0  0  0  0  # atno 6909 bound_to 6896
  144.9923  140.7743  143.4547 H   0  0  0  0  0  0  0  0  0  0  0  0  # atno 7974 bound_to 7965
  156.1466  140.3168  155.8581 H   0  0  0  0  0  0  0  0  0  0  0  0  # atno 8008 bound_to 7997
  155.4051  140.0502  157.3052 H   0  0  0  0  0  0  0  0  0  0  0  0  # atno 8009 bound_to 7997
  154.5022  140.2133  155.9335 H   0  0  0  0  0  0  0  0  0  0  0  0  # atno 8010 bound_to 7997
  140.7166  143.5509  150.9302 H   0  0  0  0  0  0  0  0  0  0  0  0  # atno 10167 bound_to 10162
  156.7631  130.5276  149.5781 H   0  0  0  0  0  0  0  0  0  0  0  0  # atno 10718 bound_to 10713
  152.9845  135.5651  154.5348 H   0  0  0  0  0  0  0  0  0  0  0  0  # atno 10763 bound_to 10752
  154.4813  135.2789  155.1570 H   0  0  0  0  0  0  0  0  0  0  0  0  # atno 10764 bound_to 10752
  154.3077  135.6294  153.5505 H   0  0  0  0  0  0  0  0  0  0  0  0  # atno 10765 bound_to 10752
  140.6370  133.9523  155.8305 H   0  0  0  0  0  0  0  0  0  0  0  0  # atno 11005 bound_to 11000
  145.2269  139.2133  143.5063 LP  0  0  0  0  0  0  0  0  0  0  0  0  # atno 17320 bound_to 7965
  146.3434  140.2138  142.8590 LP  0  0  0  0  0  0  0  0  0  0  0  0  # atno 17321 bound_to 7965
  139.9233  143.6580  152.3092 LP  0  0  0  0  0  0  0  0  0  0  0  0  # atno 17342 bound_to 10162
  139.7004  144.7635  151.1283 LP  0  0  0  0  0  0  0  0  0  0  0  0  # atno 17343 bound_to 10162
  156.1326  130.6189  151.0355 LP  0  0  0  0  0  0  0  0  0  0  0  0  # atno 17370 bound_to 10713
  157.6725  131.0858  150.7576 LP  0  0  0  0  0  0  0  0  0  0  0  0  # atno 17371 bound_to 10713
  141.0634  134.0313  157.3627 LP  0  0  0  0  0  0  0  0  0  0  0  0  # atno 17394 bound_to 11000
  139.9094  135.0187  156.7628 LP  0  0  0  0  0  0  0  0  0  0  0  0  # atno 17395 bound_to 11000

$$$$
