AV-unprocessed.smi:1819|AV-procd|sdf|7383|dock2
  -GOLD-   22720 9 53D 1   1.00000     0.00000
 Structure written by MMmdl.
 28 28  0  0  0  0  0  0  0  0  2 V2000
  146.5269  140.0667  154.7305 O   0  0  0  0  0  0  0  0  0  0  0  0
  147.4583  140.1901  153.9342 C   0  0  0  0  0  0  0  0  0  0  0  0
  148.5953  141.1780  154.2204 C   0  0  0  0  0  0  0  0  0  0  0  0
  149.7732  140.5132  154.7998 N   0  0  0  0  0  0  0  0  0  0  0  0
  150.2493  139.3513  154.1674 C   0  0  0  0  0  0  0  0  0  0  0  0
  151.3166  138.6754  154.6338 C   0  0  0  0  0  0  0  0  0  0  0  0
  151.9839  139.1778  155.8286 C   0  0  0  0  0  0  0  0  0  0  0  0
  152.9629  138.5761  156.2658 O   0  0  0  0  0  0  0  0  0  0  0  0
  151.4813  140.3067  156.4090 N   0  5  0  0  0  0  0  0  0  0  0  0
  150.3934  140.9825  155.9250 C   0  0  0  0  0  0  0  0  0  0  0  0
  149.9543  141.9985  156.4661 O   0  0  0  0  0  0  0  0  0  0  0  0
  147.5569  139.4870  152.7958 N   0  0  0  0  0  0  0  0  0  0  0  0
  146.5608  138.5488  152.2889 C   0  0  0  0  0  0  0  0  0  0  0  0
  146.1514  137.5278  153.3630 C   0  0  0  0  0  0  0  0  0  0  0  0
  144.5457  136.7503  153.0155 S   0  0  0  0  0  0  0  0  0  0  0  0
  145.0528  135.4689  151.8377 C   0  0  0  0  0  0  0  0  0  0  0  0
  145.9157  134.6377  152.4193 F   0  0  0  0  0  0  0  0  0  0  0  0
  143.9938  134.7699  151.4311 F   0  0  0  0  0  0  0  0  0  0  0  0
  145.6423  136.0232  150.7790 F   0  0  0  0  0  0  0  0  0  0  0  0
  148.8545  141.6779  153.2863 H   0  0  0  0  0  0  0  0  0  0  0  0
  148.2501  141.9717  154.8860 H   0  0  0  0  0  0  0  0  0  0  0  0
  149.6950  139.0425  153.2933 H   0  0  0  0  0  0  0  0  0  0  0  0
  151.6681  137.7824  154.1383 H   0  0  0  0  0  0  0  0  0  0  0  0
  148.3615  139.6558  152.2098 H   0  0  0  0  0  0  0  0  0  0  0  0
  145.6867  139.1299  151.9947 H   0  0  0  0  0  0  0  0  0  0  0  0
  146.9052  138.0403  151.3869 H   0  0  0  0  0  0  0  0  0  0  0  0
  146.9133  136.7533  153.4571 H   0  0  0  0  0  0  0  0  0  0  0  0
  146.0847  138.0243  154.3310 H   0  0  0  0  0  0  0  0  0  0  0  0
  1  2  2  0  0  0  0
  2  3  1  0  0  0  0
  2 12  1  0  0  0  0
  3  4  1  0  0  0  0
  3 20  1  0  0  0  0
  3 21  1  0  0  0  0
  4 10  1  0  0  0  0
  4  5  1  0  0  0  0
  5  6  2  0  0  0  0
  5 22  1  0  0  0  0
  6  7  1  0  0  0  0
  6 23  1  0  0  0  0
  7  8  2  0  0  0  0
  7  9  1  0  0  0  0
  9 10  1  0  0  0  0
 10 11  2  0  0  0  0
 12 13  1  0  0  0  0
 12 24  1  0  0  0  0
 13 14  1  0  0  0  0
 13 25  1  0  0  0  0
 13 26  1  0  0  0  0
 14 15  1  0  0  0  0
 14 27  1  0  0  0  0
 14 28  1  0  0  0  0
 15 16  1  0  0  0  0
 16 17  1  0  0  0  0
 16 18  1  0  0  0  0
 16 19  1  0  0  0  0
M  CHG  1   9  -1
M  END
> <s_m_source_file>
AV-unprocessed.smi

> <i_m_source_file_index>
1819

> <i_lp_mmshare_version>
43012

> <i_f3d_flags>
0

> <s_epik_input>
RkMoRikoRilTW0NIMl1bQ0gyXVtOSF1DKD1PKVtDSDJdbjFbY0hdW2NIXWMoPU8pW25IXWMxPU8=

> <s_epik_cmdline>
J2VwaWtfcHl0aG9uJywgJy1waCcsICc3LjAnLCAnLXRuJywgJzgnLCAnLW1hJywgJzIwMCcsICctbWV0YWxfYmluZGluZycsICctaW1hZScsICc8aW5maWxlLm1hZT4nLCAnLW9tYWUnLCAnPG91dGZpbGUubWFlPic=

> <r_lp_tautomer_probability>
0.999537

> <r_epik_Ionization_Penalty>
3.04617

> <r_epik_Ionization_Penalty_Charging>
2.49125e-08

> <r_epik_Ionization_Penalty_Neutral>
3.04617

> <r_epik_State_Penalty>
3.04516

> <r_epik_Charging_Adjusted_Penalty>
3.04516

> <i_epik_Tot_Q>
-1

> <i_epik_Tot_abs_Q>
1

> <r_epik_Metal_State_Penalty>
0.457105

> <b_epik_Metal_Only>
1

> <s_lp_Force_Field>
OPLS_2005

> <r_lp_Energy>
9.91428

> <b_lp_Chiralities_Consistent>
1

> <s_lp_Variant>
AV-unprocessed.smi:1819-2

> <Gold.Version>
5.8.1

> <Gold.Id.Protein>
6NUR|6NUR_protein|mol2

> <Gold.PLP.Fitness>
42.2625

> <Gold.PLP.PLP>
-34.6428

> <Gold.PLP.part.hbond>
-2.0000

> <Gold.PLP.part.metal>
0.0000

> <Gold.PLP.part.buried>
-3.2523

> <Gold.PLP.part.nonpolar>
-30.4483

> <Gold.PLP.part.repulsive>
0.8650

> <Gold.PLP.ligand.clash>
0.0000

> <Gold.PLP.ligand.torsion>
0.6637

> <Gold.PLP.Chemscore.Hbond>
1.9913

> <Gold.PLP.Chemscore.CHOScore>
0.9645

> <Gold.PLP.Chemscore.Metal>
0.0000

> <Gold.Chemscore.Hbonds>
donor molecule, donor type, donor heavy atom, donor atom, acceptor molecule, acceptor atom, score
      L1  H    12    24       P1  7957  1.00
      P1  H  7997  8010       L1     8  0.93
      L1  C     5    22       P1  7957  0.99

> <Gold.PLP.Chemscore.Internal.Correction>
0.0798

> <Gold.Rescore>
     Score         DG    S(hbond)    S(metal)    S(lipo)     H(rot)  DE(clash)    DE(int)     intcor
      7.90      -9.78       1.96        0.00      43.79       2.88       0.05       1.82       ----

> <Gold.Chemscore.Fitness>
7.9043

> <Gold.Chemscore.DG>
-9.7792

> <Gold.Chemscore.ZeroCoef>
-5.4800

> <Gold.Chemscore.Hbond>
1.9570

> <Gold.Chemscore.Metal>
0.0000

> <Gold.Chemscore.Lipo>
43.7890

> <Gold.Chemscore.Internal_Hbond>
0.0000

> <Gold.Chemscore.DEClash>
0.0543

> <Gold.Chemscore.DEInternal>
1.8206

> <Gold.Chemscore.Rot>
2.8751

> <Gold.Chemscore.Internal.Correction>
   9.000000E+99

> <Gold.Chemscore.Hbonds>
donor molecule, donor type, donor heavy atom, donor atom, acceptor molecule, acceptor atom, score
      L1  H    12    24       P1  7957  1.00
      P1  H  7997  8010       L1     8  0.34

> <Gold.Chemscore.Hbond.Weighted>
-6.5363

> <Gold.Chemscore.Metal.Weighted>
-0.0000

> <Gold.Chemscore.Lipo.Weighted>
-5.1233

> <Gold.Chemscore.Internal_Hbond.Weighted>
0.0000

> <Gold.Chemscore.DEClash.Weighted>
0.0543

> <Gold.Chemscore.DEInternal.Weighted>
1.8206

> <Gold.Chemscore.Rot.Weighted>
7.3603

> <Gold.Chemscore.Internal.Correction.Weighted>
   9.000000E+99

> <Gold.Protein.RotatedTorsions>
[ 6907 6896 6895 6894 ] final  110.81 input  -60.11 | X-H torsion
[ 7974 7965 7964 7962 ] final   82.06 input  175.53 | X-H torsion
[ 8008 7997 7996 7995 ] final   69.01 input   59.86 | X-H torsion
[ 10167 10162 10161 10158 ] final -139.82 input  -65.29 | X-H torsion
[ 10718 10713 10712 10709 ] final -115.55 input   66.30 | X-H torsion
[ 10763 10752 10751 10750 ] final  175.42 input  -60.55 | X-H torsion
[ 11005 11000 10999 10996 ] final  124.88 input  -57.11 | X-H torsion

> <Gold.Protein.ActiveResidues>
 VAL166  LYS551  ARG553  GLY616  TRP617  ASP618  TYR619  PRO620  LYS621  CYS622 
 ASP623  PHE694  ASN695  SER759  ASP760  ASP761  ALA762  ILE779  LEU786  VAL792 
 PHE793  MET794  SER795  GLU796  ALA797  LYS798  CYS799  TRP800  GLU811  SER814 

> <Gold.Protein.RotatedAtoms>
  152.5001  133.8747  159.7315 H   0  0  0  0  0  0  0  0  0  0  0  0  # atno 6907 bound_to 6896
  150.9225  133.6855  159.2835 H   0  0  0  0  0  0  0  0  0  0  0  0  # atno 6908 bound_to 6896
  151.4227  135.1004  159.9671 H   0  0  0  0  0  0  0  0  0  0  0  0  # atno 6909 bound_to 6896
  145.6300  139.2403  143.2090 H   0  0  0  0  0  0  0  0  0  0  0  0  # atno 7974 bound_to 7965
  155.7171  140.3493  155.4999 H   0  0  0  0  0  0  0  0  0  0  0  0  # atno 8008 bound_to 7997
  155.9303  140.1083  157.1159 H   0  0  0  0  0  0  0  0  0  0  0  0  # atno 8009 bound_to 7997
  154.4084  140.1232  156.4781 H   0  0  0  0  0  0  0  0  0  0  0  0  # atno 8010 bound_to 7997
  139.8342  143.7407  152.2665 H   0  0  0  0  0  0  0  0  0  0  0  0  # atno 10167 bound_to 10162
  156.0903  130.6087  150.8920 H   0  0  0  0  0  0  0  0  0  0  0  0  # atno 10718 bound_to 10713
  154.4673  135.2770  155.1669 H   0  0  0  0  0  0  0  0  0  0  0  0  # atno 10763 bound_to 10752
  154.3432  135.6166  153.5610 H   0  0  0  0  0  0  0  0  0  0  0  0  # atno 10764 bound_to 10752
  152.9860  135.5793  154.5047 H   0  0  0  0  0  0  0  0  0  0  0  0  # atno 10765 bound_to 10752
  139.9379  134.9638  156.8474 H   0  0  0  0  0  0  0  0  0  0  0  0  # atno 11005 bound_to 11000
  146.1364  140.7116  142.9387 LP  0  0  0  0  0  0  0  0  0  0  0  0  # atno 17320 bound_to 7965
  144.7197  140.4333  143.7017 LP  0  0  0  0  0  0  0  0  0  0  0  0  # atno 17321 bound_to 7965
  139.7624  144.7502  151.0344 LP  0  0  0  0  0  0  0  0  0  0  0  0  # atno 17342 bound_to 10162
  140.7804  143.4736  151.0113 LP  0  0  0  0  0  0  0  0  0  0  0  0  # atno 17343 bound_to 10162
  157.6050  131.0939  150.8894 LP  0  0  0  0  0  0  0  0  0  0  0  0  # atno 17370 bound_to 10713
  156.9045  130.5258  149.5282 LP  0  0  0  0  0  0  0  0  0  0  0  0  # atno 17371 bound_to 10713
  140.6027  134.0157  155.7544 LP  0  0  0  0  0  0  0  0  0  0  0  0  # atno 17394 bound_to 11000
  141.1001  133.9781  157.3093 LP  0  0  0  0  0  0  0  0  0  0  0  0  # atno 17395 bound_to 11000

$$$$
