AV-unprocessed.smi:1487|AV-procd|sdf|6019|dock7
  -GOLD-   22720 6123D 1   1.00000     0.00000
 Structure written by MMmdl.
 49 51  0  0  0  0  0  0  0  0  3 V2000
  152.3203  143.6005  160.0244 C   0  0  0  0  0  0  0  0  0  0  0  0
  151.9828  142.5559  158.9740 C   0  0  0  0  0  0  0  0  0  0  0  0
  151.0981  142.9098  157.9306 C   0  0  0  0  0  0  0  0  0  0  0  0
  150.8095  141.9333  156.9850 C   0  0  0  0  0  0  0  0  0  0  0  0
  149.9884  141.9691  155.8563 N   0  3  0  0  0  0  0  0  0  0  0  0
  150.0202  140.7596  155.2319 C   0  0  0  0  0  0  0  0  0  0  0  0
  150.8491  139.9499  155.9458 N   0  0  0  0  0  0  0  0  0  0  0  0
  151.2345  138.5521  155.6999 C   0  0  0  0  0  0  0  0  0  0  0  0
  150.2800  137.8279  154.7304 C   0  0  2  0  0  0  0  0  0  0  0  0
  150.4168  138.3748  153.4333 O   0  0  0  0  0  0  0  0  0  0  0  0
  148.8088  137.9688  155.1688 C   0  0  0  0  0  0  0  0  0  0  0  0
  147.8567  137.5938  154.0922 N   0  3  1  0  0  0  0  0  0  0  0  0
  146.7354  136.7415  154.5690 C   0  0  0  0  0  0  0  0  0  0  0  0
  145.8819  136.2447  153.3919 C   0  0  0  0  0  0  0  0  0  0  0  0
  145.3475  137.4223  152.5646 C   0  0  0  0  0  0  0  0  0  0  0  0
  146.4901  138.3573  152.1341 C   0  0  2  0  0  0  0  0  0  0  0  0
  147.2937  137.7361  151.1503 O   0  0  0  0  0  0  0  0  0  0  0  0
  147.3684  138.7736  153.3305 C   0  0  0  0  0  0  0  0  0  0  0  0
  151.3664  140.6409  157.0491 C   0  0  0  0  0  0  0  0  0  0  0  0
  152.2388  140.2757  158.0721 C   0  0  0  0  0  0  0  0  0  0  0  0
  152.5464  141.2555  159.0431 C   0  0  0  0  0  0  0  0  0  0  0  0
  153.4962  140.8850  160.1696 C   0  0  0  0  0  0  0  0  0  0  0  0
  151.7635  144.5239  159.8624 H   0  0  0  0  0  0  0  0  0  0  0  0
  153.3831  143.8417  159.9948 H   0  0  0  0  0  0  0  0  0  0  0  0
  152.0747  143.2361  161.0222 H   0  0  0  0  0  0  0  0  0  0  0  0
  150.6650  143.8979  157.8713 H   0  0  0  0  0  0  0  0  0  0  0  0
  149.4848  140.4925  154.3319 H   0  0  0  0  0  0  0  0  0  0  0  0
  152.2417  138.5689  155.2815 H   0  0  0  0  0  0  0  0  0  0  0  0
  151.3111  138.0252  156.6513 H   0  0  0  0  0  0  0  0  0  0  0  0
  150.5666  136.7777  154.6856 H   0  0  0  0  0  0  0  0  0  0  0  0
  149.9753  137.8071  152.8196 H   0  0  0  0  0  0  0  0  0  0  0  0
  148.6097  137.3595  156.0517 H   0  0  0  0  0  0  0  0  0  0  0  0
  148.6394  139.0032  155.4728 H   0  0  0  0  0  0  0  0  0  0  0  0
  147.1171  135.8798  155.1156 H   0  0  0  0  0  0  0  0  0  0  0  0
  146.1174  137.3074  155.2679 H   0  0  0  0  0  0  0  0  0  0  0  0
  146.4781  135.5867  152.7583 H   0  0  0  0  0  0  0  0  0  0  0  0
  145.0504  135.6443  153.7618 H   0  0  0  0  0  0  0  0  0  0  0  0
  144.7970  137.0602  151.6954 H   0  0  0  0  0  0  0  0  0  0  0  0
  144.6331  137.9852  153.1670 H   0  0  0  0  0  0  0  0  0  0  0  0
  146.0659  139.2515  151.6765 H   0  0  0  0  0  0  0  0  0  0  0  0
  147.6784  136.9565  151.5223 H   0  0  0  0  0  0  0  0  0  0  0  0
  146.7969  139.4166  154.0017 H   0  0  0  0  0  0  0  0  0  0  0  0
  148.2127  139.3654  152.9734 H   0  0  0  0  0  0  0  0  0  0  0  0
  152.6653  139.2854  158.1317 H   0  0  0  0  0  0  0  0  0  0  0  0
  153.8823  139.8722  160.0498 H   0  0  0  0  0  0  0  0  0  0  0  0
  152.9855  140.9359  161.1314 H   0  0  0  0  0  0  0  0  0  0  0  0
  154.3490  141.5640  160.1929 H   0  0  0  0  0  0  0  0  0  0  0  0
  148.3861  137.0432  153.4305 H   0  0  0  0  0  0  0  0  0  0  0  0
  149.4469  142.7609  155.5328 H   0  0  0  0  0  0  0  0  0  0  0  0
  1  2  1  0  0  0  0
  1 23  1  0  0  0  0
  1 24  1  0  0  0  0
  1 25  1  0  0  0  0
  2 21  1  0  0  0  0
  2  3  2  0  0  0  0
  3  4  1  0  0  0  0
  3 26  1  0  0  0  0
  4 19  2  0  0  0  0
  4  5  1  0  0  0  0
  5  6  2  0  0  0  0
  5 49  1  0  0  0  0
  6  7  1  0  0  0  0
  6 27  1  0  0  0  0
  7  8  1  0  0  0  0
  7 19  1  0  0  0  0
  8  9  1  0  0  0  0
  8 28  1  0  0  0  0
  8 29  1  0  0  0  0
  9 10  1  0  0  0  0
  9 11  1  0  0  0  0
  9 30  1  0  0  0  0
 10 31  1  0  0  0  0
 11 12  1  0  0  0  0
 11 32  1  0  0  0  0
 11 33  1  0  0  0  0
 12 18  1  0  0  0  0
 12 13  1  0  0  0  0
 12 48  1  0  0  0  0
 13 14  1  0  0  0  0
 13 34  1  0  0  0  0
 13 35  1  0  0  0  0
 14 15  1  0  0  0  0
 14 36  1  0  0  0  0
 14 37  1  0  0  0  0
 15 16  1  0  0  0  0
 15 38  1  0  0  0  0
 15 39  1  0  0  0  0
 16 17  1  0  0  0  0
 16 18  1  0  0  0  0
 16 40  1  0  0  0  0
 17 41  1  0  0  0  0
 18 42  1  0  0  0  0
 18 43  1  0  0  0  0
 19 20  1  0  0  0  0
 20 21  2  0  0  0  0
 20 44  1  0  0  0  0
 21 22  1  0  0  0  0
 22 45  1  0  0  0  0
 22 46  1  0  0  0  0
 22 47  1  0  0  0  0
M  CHG  1   5   1
M  CHG  1  12   1
M  END
> <s_m_source_file>
AV-unprocessed.smi

> <i_m_source_file_index>
1487

> <i_lp_mmshare_version>
43012

> <i_f3d_flags>
0

> <s_epik_input>
W0NIM11jKFtjSF0xKWMoW0NIM10pW2NIXWMoYzEyKW4oW2NIXW4yKVtDSDJdW0NASF0oW09IXSlbQ0gyXU4zW0NIMl1bQ0gyXVtDSDJdW0NAQEhdKFtPSF0pW0NIMl0z

> <s_epik_cmdline>
J2VwaWtfcHl0aG9uJywgJy1waCcsICc3LjAnLCAnLXRuJywgJzgnLCAnLW1hJywgJzIwMCcsICctbWV0YWxfYmluZGluZycsICctaW1hZScsICc8aW5maWxlLm1hZT4nLCAnLW9tYWUnLCAnPG91dGZpbGUubWFlPic=

> <r_epik_Ionization_Penalty>
1.1857

> <r_epik_Ionization_Penalty_Charging>
1.1857

> <r_epik_Ionization_Penalty_Neutral>
1.75578e-06

> <r_epik_State_Penalty>
1.26953

> <r_epik_Charging_Adjusted_Penalty>
2.45524

> <i_epik_Tot_Q>
2

> <i_epik_Tot_abs_Q>
2

> <r_epik_Metal_State_Penalty>
5.28243

> <b_epik_Metal_Only>
0

> <s_lp_Force_Field>
OPLS_2005

> <r_lp_Energy>
30.6325

> <b_lp_Chiralities_Consistent>
1

> <s_lp_Variant>
AV-unprocessed.smi:1487-13

> <Gold.Version>
5.8.1

> <Gold.Id.Protein>
6NUR|6NUR_protein|mol2

> <Gold.PLP.Fitness>
60.7707

> <Gold.PLP.PLP>
-42.3195

> <Gold.PLP.part.hbond>
-6.4503

> <Gold.PLP.part.metal>
0.0000

> <Gold.PLP.part.buried>
-2.5262

> <Gold.PLP.part.nonpolar>
-35.0852

> <Gold.PLP.part.repulsive>
0.1534

> <Gold.PLP.ligand.clash>
0.0000

> <Gold.PLP.ligand.torsion>
0.9470

> <Gold.PLP.Chemscore.Hbond>
6.7713

> <Gold.PLP.Chemscore.CHOScore>
0.0000

> <Gold.PLP.Chemscore.Metal>
0.0000

> <Gold.Chemscore.Hbonds>
donor molecule, donor type, donor heavy atom, donor atom, acceptor molecule, acceptor atom, score
      L1  H     5    49       P1  8028  1.95
      L1  H    10    31       P1  7948  0.90
      L1  H    12    48       P1  7948  2.00
      L1  H    17    41       P1  7948  0.76
      P1  H  7954  7966       L1    17  0.95

> <Gold.PLP.Chemscore.Internal.Correction>
0.0315

> <Gold.Rescore>
     Score         DG    S(hbond)    S(metal)    S(lipo)     H(rot)  DE(clash)    DE(int)     intcor
     19.44     -22.92       3.66        0.00     104.52       2.74       0.04       3.45       ----

> <Gold.Chemscore.Fitness>
19.4368

> <Gold.Chemscore.DG>
-22.9188

> <Gold.Chemscore.ZeroCoef>
-5.4800

> <Gold.Chemscore.Hbond>
3.6589

> <Gold.Chemscore.Metal>
0.0000

> <Gold.Chemscore.Lipo>
104.5171

> <Gold.Chemscore.Internal_Hbond>
0.0000

> <Gold.Chemscore.DEClash>
0.0357

> <Gold.Chemscore.DEInternal>
3.4463

> <Gold.Chemscore.Rot>
2.7384

> <Gold.Chemscore.Internal.Correction>
   9.000000E+99

> <Gold.Chemscore.Hbonds>
donor molecule, donor type, donor heavy atom, donor atom, acceptor molecule, acceptor atom, score
      L1  H     5    49       P1  8028  0.89
      L1  H    10    31       P1  7948  0.19
      L1  H    12    48       P1  7948  1.00
      L1  H    17    41       P1  7948  0.72
      P1  H  7954  7966       L1    17  0.20

> <Gold.Chemscore.Hbond.Weighted>
-12.2206

> <Gold.Chemscore.Metal.Weighted>
-0.0000

> <Gold.Chemscore.Lipo.Weighted>
-12.2285

> <Gold.Chemscore.Internal_Hbond.Weighted>
0.0000

> <Gold.Chemscore.DEClash.Weighted>
0.0357

> <Gold.Chemscore.DEInternal.Weighted>
3.4463

> <Gold.Chemscore.Rot.Weighted>
7.0103

> <Gold.Chemscore.Internal.Correction.Weighted>
   9.000000E+99

> <Gold.Protein.RotatedTorsions>
[ 6907 6896 6895 6894 ] final  158.81 input  -60.11 | X-H torsion
[ 7974 7965 7964 7962 ] final  -70.23 input  175.53 | X-H torsion
[ 8008 7997 7996 7995 ] final   99.27 input   59.86 | X-H torsion
[ 10167 10162 10161 10158 ] final  -72.33 input  -65.29 | X-H torsion
[ 10718 10713 10712 10709 ] final  -50.65 input   66.30 | X-H torsion
[ 10763 10752 10751 10750 ] final -117.94 input  -60.55 | X-H torsion
[ 11005 11000 10999 10996 ] final -172.42 input  -57.11 | X-H torsion

> <Gold.Protein.ActiveResidues>
 VAL166  LYS551  ARG553  GLY616  TRP617  ASP618  TYR619  PRO620  LYS621  CYS622 
 ASP623  PHE694  ASN695  SER759  ASP760  ASP761  ALA762  ILE779  LEU786  VAL792 
 PHE793  MET794  SER795  GLU796  ALA797  LYS798  CYS799  TRP800  GLU811  SER814 

> <Gold.Protein.RotatedAtoms>
  151.9949  133.3804  159.4158 H   0  0  0  0  0  0  0  0  0  0  0  0  # atno 6907 bound_to 6896
  150.6917  134.3897  159.5080 H   0  0  0  0  0  0  0  0  0  0  0  0  # atno 6908 bound_to 6896
  152.1636  134.8892  160.0590 H   0  0  0  0  0  0  0  0  0  0  0  0  # atno 6909 bound_to 6896
  145.6936  140.9143  143.0768 H   0  0  0  0  0  0  0  0  0  0  0  0  # atno 7974 bound_to 7965
  156.1088  140.3231  155.8043 H   0  0  0  0  0  0  0  0  0  0  0  0  # atno 8008 bound_to 7997
  155.4709  140.0546  157.2997 H   0  0  0  0  0  0  0  0  0  0  0  0  # atno 8009 bound_to 7997
  154.4746  140.2026  155.9925 H   0  0  0  0  0  0  0  0  0  0  0  0  # atno 8010 bound_to 7997
  140.5201  143.2333  151.7445 H   0  0  0  0  0  0  0  0  0  0  0  0  # atno 10167 bound_to 10162
  156.1782  130.4150  149.9546 H   0  0  0  0  0  0  0  0  0  0  0  0  # atno 10718 bound_to 10713
  154.8571  135.4291  154.2060 H   0  0  0  0  0  0  0  0  0  0  0  0  # atno 10763 bound_to 10752
  153.3096  135.6975  153.7134 H   0  0  0  0  0  0  0  0  0  0  0  0  # atno 10764 bound_to 10752
  153.6231  135.3498  155.2991 H   0  0  0  0  0  0  0  0  0  0  0  0  # atno 10765 bound_to 10752
  140.4972  134.5928  157.4975 H   0  0  0  0  0  0  0  0  0  0  0  0  # atno 11005 bound_to 11000
  144.6989  139.8855  143.7450 LP  0  0  0  0  0  0  0  0  0  0  0  0  # atno 17320 bound_to 7965
  146.0860  139.3848  143.0435 LP  0  0  0  0  0  0  0  0  0  0  0  0  # atno 17321 bound_to 7965
  139.4921  144.4267  151.9918 LP  0  0  0  0  0  0  0  0  0  0  0  0  # atno 17342 bound_to 10162
  140.3363  144.3256  150.5976 LP  0  0  0  0  0  0  0  0  0  0  0  0  # atno 17343 bound_to 10162
  156.7325  130.9049  151.3627 LP  0  0  0  0  0  0  0  0  0  0  0  0  # atno 17370 bound_to 10713
  157.6850  130.9176  150.0363 LP  0  0  0  0  0  0  0  0  0  0  0  0  # atno 17371 bound_to 10713
  139.9735  134.7254  155.9996 LP  0  0  0  0  0  0  0  0  0  0  0  0  # atno 17394 bound_to 11000
  141.1454  133.6557  156.3852 LP  0  0  0  0  0  0  0  0  0  0  0  0  # atno 17395 bound_to 11000

$$$$
