AV-unprocessed.smi:876|AV-procd|sdf|4025|dock3
  -GOLD-   22720 1513D 1   1.00000     0.00000
 Structure written by MMmdl.
 40 41  0  0  0  0  0  0  0  0  1 V2000
  154.0138  142.2879  163.1976 C   0  0  0  0  0  0  0  0  0  0  0  0
  153.9976  141.4669  161.9933 N   0  0  0  0  0  0  0  0  0  0  0  0
  154.8578  140.2914  161.9029 C   0  0  0  0  0  0  0  0  0  0  0  0
  153.1268  141.7851  160.9261 C   0  0  0  0  0  0  0  0  0  0  0  0
  152.5296  143.0655  160.8143 C   0  0  0  0  0  0  0  0  0  0  0  0
  151.6701  143.3357  159.7319 C   0  0  0  0  0  0  0  0  0  0  0  0
  151.4300  142.3216  158.7765 C   0  0  0  0  0  0  0  0  0  0  0  0
  150.5726  142.4600  157.6514 N   0  0  0  0  0  0  0  0  0  0  0  0
  150.4369  141.6445  156.5917 C   0  0  0  0  0  0  0  0  0  0  0  0
  151.0438  140.5875  156.4206 O   0  0  0  0  0  0  0  0  0  0  0  0
  149.5264  142.1198  155.7306 N   0  0  0  0  0  0  0  0  0  0  0  0
  149.1359  141.4685  154.4853 C   0  0  2  0  0  0  0  0  0  0  0  0
  147.9197  142.1331  153.9016 C   0  0  0  0  0  0  0  0  0  0  0  0
  146.9003  141.2925  153.7429 C   0  0  0  0  0  0  0  0  0  0  0  0
  147.2155  139.8940  154.2094 C   0  0  1  0  0  0  0  0  0  0  0  0
  147.0105  138.8389  153.1086 C   0  0  0  0  0  0  0  0  0  0  0  0
  147.2351  137.5399  153.6158 O   0  0  0  0  0  0  0  0  0  0  0  0
  148.6861  139.9974  154.6891 C   0  0  0  0  0  0  0  0  0  0  0  0
  152.0570  141.0768  158.9780 C   0  0  0  0  0  0  0  0  0  0  0  0
  152.8814  140.8140  160.0128 N   0  0  0  0  0  0  0  0  0  0  0  0
  149.9464  141.5303  153.7570 H   0  0  0  0  0  0  0  0  0  0  0  0
  146.5709  139.6678  155.0602 H   0  0  0  0  0  0  0  0  0  0  0  0
  153.0271  142.3093  163.6609 H   0  0  0  0  0  0  0  0  0  0  0  0
  154.3121  143.3099  162.9614 H   0  0  0  0  0  0  0  0  0  0  0  0
  154.7170  141.8986  163.9340 H   0  0  0  0  0  0  0  0  0  0  0  0
  155.5096  140.3585  161.0314 H   0  0  0  0  0  0  0  0  0  0  0  0
  154.2585  139.3844  161.8185 H   0  0  0  0  0  0  0  0  0  0  0  0
  155.4914  140.1926  162.7842 H   0  0  0  0  0  0  0  0  0  0  0  0
  152.7099  143.8458  161.5381 H   0  0  0  0  0  0  0  0  0  0  0  0
  151.2064  144.3075  159.6682 H   0  0  0  0  0  0  0  0  0  0  0  0
  149.9483  143.2527  157.6817 H   0  0  0  0  0  0  0  0  0  0  0  0
  149.0689  142.9922  155.9514 H   0  0  0  0  0  0  0  0  0  0  0  0
  147.9077  143.1803  153.6370 H   0  0  0  0  0  0  0  0  0  0  0  0
  145.9343  141.5587  153.3396 H   0  0  0  0  0  0  0  0  0  0  0  0
  146.0009  138.8949  152.6992 H   0  0  0  0  0  0  0  0  0  0  0  0
  147.7038  139.0118  152.2850 H   0  0  0  0  0  0  0  0  0  0  0  0
  147.7773  137.0672  153.0028 H   0  0  0  0  0  0  0  0  0  0  0  0
  149.3359  139.3301  154.1213 H   0  0  0  0  0  0  0  0  0  0  0  0
  148.7634  139.6899  155.7331 H   0  0  0  0  0  0  0  0  0  0  0  0
  151.8969  140.2635  158.2852 H   0  0  0  0  0  0  0  0  0  0  0  0
  1  2  1  0  0  0  0
  1 23  1  0  0  0  0
  1 24  1  0  0  0  0
  1 25  1  0  0  0  0
  2  3  1  0  0  0  0
  2  4  1  0  0  0  0
  3 26  1  0  0  0  0
  3 27  1  0  0  0  0
  3 28  1  0  0  0  0
  4 20  1  0  0  0  0
  4  5  2  0  0  0  0
  5  6  1  0  0  0  0
  5 29  1  0  0  0  0
  6  7  2  0  0  0  0
  6 30  1  0  0  0  0
  7  8  1  0  0  0  0
  7 19  1  0  0  0  0
  8  9  1  0  0  0  0
  8 31  1  0  0  0  0
  9 10  2  0  0  0  0
  9 11  1  0  0  0  0
 11 12  1  0  0  0  0
 11 32  1  0  0  0  0
 12 21  1  0  0  0  0
 12 18  1  0  0  0  0
 12 13  1  0  0  0  0
 13 14  2  0  0  0  0
 13 33  1  0  0  0  0
 14 15  1  0  0  0  0
 14 34  1  0  0  0  0
 15 22  1  0  0  0  0
 15 16  1  0  0  0  0
 15 18  1  0  0  0  0
 16 17  1  0  0  0  0
 16 35  1  0  0  0  0
 16 36  1  0  0  0  0
 17 37  1  0  0  0  0
 18 38  1  0  0  0  0
 18 39  1  0  0  0  0
 19 20  2  0  0  0  0
 19 40  1  0  0  0  0
M  END
> <s_m_source_file>
AV-unprocessed.smi

> <i_m_source_file_index>
876

> <i_lp_mmshare_version>
43012

> <i_f3d_flags>
0

> <s_epik_input>
W0NIM11OKFtDSDNdKWMxW2NIXVtjSF1jKFtjSF1uMSlbTkhdQyg9TylbTkhdW0NAQEhdMltDSF09W0NIXVtDQEBIXShbQ0gyXTIpW0NIMl1bT0hd

> <s_epik_cmdline>
J2VwaWtfcHl0aG9uJywgJy1waCcsICc3LjAnLCAnLXRuJywgJzgnLCAnLW1hJywgJzIwMCcsICctbWV0YWxfYmluZGluZycsICctaW1hZScsICc8aW5maWxlLm1hZT4nLCAnLW9tYWUnLCAnPG91dGZpbGUubWFlPic=

> <r_lp_tautomer_probability>
1

> <r_epik_Ionization_Penalty>
0.617998

> <r_epik_Ionization_Penalty_Charging>
0

> <r_epik_Ionization_Penalty_Neutral>
0.617998

> <r_epik_State_Penalty>
0.632637

> <r_epik_Charging_Adjusted_Penalty>
0.632637

> <i_epik_Tot_Q>
0

> <i_epik_Tot_abs_Q>
0

> <r_epik_Metal_State_Penalty>
0.305596

> <b_epik_Metal_Only>
0

> <s_lp_Force_Field>
OPLS_2005

> <r_lp_Energy>
20.6099

> <b_lp_Chiralities_Consistent>
1

> <s_lp_Variant>
AV-unprocessed.smi:876-7

> <Gold.Version>
5.8.1

> <Gold.Id.Protein>
6NUR|6NUR_protein|mol2

> <Gold.PLP.Fitness>
46.2686

> <Gold.PLP.PLP>
-40.7474

> <Gold.PLP.part.hbond>
-2.0000

> <Gold.PLP.part.metal>
0.0000

> <Gold.PLP.part.buried>
-2.1535

> <Gold.PLP.part.nonpolar>
-35.9132

> <Gold.PLP.part.repulsive>
0.1764

> <Gold.PLP.ligand.clash>
0.0000

> <Gold.PLP.ligand.torsion>
0.2470

> <Gold.PLP.Chemscore.Hbond>
2.0000

> <Gold.PLP.Chemscore.CHOScore>
0.0000

> <Gold.PLP.Chemscore.Metal>
0.0000

> <Gold.Chemscore.Hbonds>
donor molecule, donor type, donor heavy atom, donor atom, acceptor molecule, acceptor atom, score
      L1  H    11    32       P1  8028  0.99
      L1  H    17    37       P1  7948  1.00

> <Gold.PLP.Chemscore.Internal.Correction>
0.0152

> <Gold.Rescore>
     Score         DG    S(hbond)    S(metal)    S(lipo)     H(rot)  DE(clash)    DE(int)     intcor
     15.85     -19.07       1.97        0.00      99.25       1.80       1.69       1.53       ----

> <Gold.Chemscore.Fitness>
15.8519

> <Gold.Chemscore.DG>
-19.0733

> <Gold.Chemscore.ZeroCoef>
-5.4800

> <Gold.Chemscore.Hbond>
1.9714

> <Gold.Chemscore.Metal>
0.0000

> <Gold.Chemscore.Lipo>
99.2454

> <Gold.Chemscore.Internal_Hbond>
0.0000

> <Gold.Chemscore.DEClash>
1.6903

> <Gold.Chemscore.DEInternal>
1.5311

> <Gold.Chemscore.Rot>
1.7980

> <Gold.Chemscore.Internal.Correction>
   9.000000E+99

> <Gold.Chemscore.Hbonds>
donor molecule, donor type, donor heavy atom, donor atom, acceptor molecule, acceptor atom, score
      L1  H    11    32       P1  8028  0.93
      L1  H    17    37       P1  7948  1.00

> <Gold.Chemscore.Hbond.Weighted>
-6.5844

> <Gold.Chemscore.Metal.Weighted>
-0.0000

> <Gold.Chemscore.Lipo.Weighted>
-11.6117

> <Gold.Chemscore.Internal_Hbond.Weighted>
0.0000

> <Gold.Chemscore.DEClash.Weighted>
1.6903

> <Gold.Chemscore.DEInternal.Weighted>
1.5311

> <Gold.Chemscore.Rot.Weighted>
4.6029

> <Gold.Chemscore.Internal.Correction.Weighted>
   9.000000E+99

> <Gold.Protein.RotatedTorsions>
[ 6907 6896 6895 6894 ] final  -26.28 input  -60.11 | X-H torsion
[ 7974 7965 7964 7962 ] final -109.37 input  175.53 | X-H torsion
[ 8008 7997 7996 7995 ] final  -11.15 input   59.86 | X-H torsion
[ 10167 10162 10161 10158 ] final   17.84 input  -65.29 | X-H torsion
[ 10718 10713 10712 10709 ] final -175.68 input   66.30 | X-H torsion
[ 10763 10752 10751 10750 ] final  155.13 input  -60.55 | X-H torsion
[ 11005 11000 10999 10996 ] final -117.54 input  -57.11 | X-H torsion

> <Gold.Protein.ActiveResidues>
 VAL166  LYS551  ARG553  GLY616  TRP617  ASP618  TYR619  PRO620  LYS621  CYS622 
 ASP623  PHE694  ASN695  SER759  ASP760  ASP761  ALA762  ILE779  LEU786  VAL792 
 PHE793  MET794  SER795  GLU796  ALA797  LYS798  CYS799  TRP800  GLU811  SER814 

> <Gold.Protein.RotatedAtoms>
  151.1632  135.0283  159.8718 H   0  0  0  0  0  0  0  0  0  0  0  0  # atno 6907 bound_to 6896
  152.5451  134.1255  159.8427 H   0  0  0  0  0  0  0  0  0  0  0  0  # atno 6908 bound_to 6896
  151.1353  133.4962  159.2630 H   0  0  0  0  0  0  0  0  0  0  0  0  # atno 6909 bound_to 6896
  145.1813  140.8972  143.3478 H   0  0  0  0  0  0  0  0  0  0  0  0  # atno 7974 bound_to 7965
  154.5491  140.2310  155.8515 H   0  0  0  0  0  0  0  0  0  0  0  0  # atno 8008 bound_to 7997
  156.1930  140.3072  155.9331 H   0  0  0  0  0  0  0  0  0  0  0  0  # atno 8009 bound_to 7997
  155.3106  140.0435  157.3025 H   0  0  0  0  0  0  0  0  0  0  0  0  # atno 8010 bound_to 7997
  140.5697  143.9185  150.6703 H   0  0  0  0  0  0  0  0  0  0  0  0  # atno 10167 bound_to 10162
  156.8035  130.9560  151.3118 H   0  0  0  0  0  0  0  0  0  0  0  0  # atno 10718 bound_to 10713
  154.1635  135.2808  155.3102 H   0  0  0  0  0  0  0  0  0  0  0  0  # atno 10763 bound_to 10752
  154.6129  135.5493  153.7496 H   0  0  0  0  0  0  0  0  0  0  0  0  # atno 10764 bound_to 10752
  153.0185  135.6420  154.1776 H   0  0  0  0  0  0  0  0  0  0  0  0  # atno 10765 bound_to 10752
  141.0348  133.9927  157.3088 H   0  0  0  0  0  0  0  0  0  0  0  0  # atno 11005 bound_to 11000
  145.0133  139.3490  143.6109 LP  0  0  0  0  0  0  0  0  0  0  0  0  # atno 17320 bound_to 7965
  146.3452  139.9405  142.8741 LP  0  0  0  0  0  0  0  0  0  0  0  0  # atno 17321 bound_to 7965
  140.2657  143.3492  152.1283 LP  0  0  0  0  0  0  0  0  0  0  0  0  # atno 17342 bound_to 10162
  139.5111  144.6895  151.5798 LP  0  0  0  0  0  0  0  0  0  0  0  0  # atno 17343 bound_to 10162
  157.6542  130.8910  149.9694 LP  0  0  0  0  0  0  0  0  0  0  0  0  # atno 17370 bound_to 10713
  156.1087  130.3651  150.0088 LP  0  0  0  0  0  0  0  0  0  0  0  0  # atno 17371 bound_to 10713
  139.9233  135.0201  156.8142 LP  0  0  0  0  0  0  0  0  0  0  0  0  # atno 17394 bound_to 11000
  140.6343  133.9877  155.7676 LP  0  0  0  0  0  0  0  0  0  0  0  0  # atno 17395 bound_to 11000

$$$$
