AV-unprocessed.smi:2804|AV-procd|sdf|10811|dock2
  -GOLD-   2272015243D 1   1.00000     0.00000
 Structure written by MMmdl.
 34 35  0  0  0  0  0  0  0  0  2 V2000
  156.6497  139.9096  160.7251 C   0  0  0  0  0  0  0  0  0  0  0  0
  155.6812  140.7429  159.8798 C   0  0  0  0  0  0  0  0  0  0  0  0
  154.3226  140.9416  160.5693 C   0  0  0  0  0  0  0  0  0  0  0  0
  153.2797  141.2650  159.5986 N   0  0  0  0  0  0  0  0  0  0  0  0
  152.9131  140.5165  158.5321 C   0  0  0  0  0  0  0  0  0  0  0  0
  153.3884  139.4228  158.2246 O   0  0  0  0  0  0  0  0  0  0  0  0
  151.9271  141.1741  157.8689 N   0  0  0  0  0  0  0  0  0  0  0  0
  151.1986  140.7075  156.6769 C   0  0  0  0  0  0  0  0  0  0  0  0
  151.8882  139.5341  155.9206 C   0  0  2  0  0  0  0  0  0  0  0  0
  152.7105  140.0668  155.0481 O   0  5  0  0  0  0  0  0  0  0  0  0
  150.8595  138.6857  155.1334 C   0  0  0  0  0  0  0  0  0  0  0  0
  150.0328  138.0608  155.9741 F   0  0  0  0  0  0  0  0  0  0  0  0
  150.1227  139.4814  154.3568 F   0  0  0  0  0  0  0  0  0  0  0  0
  151.4584  137.7805  154.3556 F   0  0  0  0  0  0  0  0  0  0  0  0
  151.6425  142.3684  158.5551 C   0  0  0  0  0  0  0  0  0  0  0  0
  150.7062  143.3851  158.2944 C   0  0  0  0  0  0  0  0  0  0  0  0
  150.6754  144.4831  159.1852 C   0  0  0  0  0  0  0  0  0  0  0  0
  151.5598  144.5451  160.2928 C   0  0  0  0  0  0  0  0  0  0  0  0
  152.4917  143.5088  160.5340 C   0  0  0  0  0  0  0  0  0  0  0  0
  152.4985  142.4277  159.6350 C   0  0  0  0  0  0  0  0  0  0  0  0
  157.6038  139.7845  160.2126 H   0  0  0  0  0  0  0  0  0  0  0  0
  156.2443  138.9169  160.9228 H   0  0  0  0  0  0  0  0  0  0  0  0
  156.8471  140.3892  161.6842 H   0  0  0  0  0  0  0  0  0  0  0  0
  156.1314  141.7135  159.6692 H   0  0  0  0  0  0  0  0  0  0  0  0
  155.5367  140.2545  158.9153 H   0  0  0  0  0  0  0  0  0  0  0  0
  154.0463  140.0394  161.1169 H   0  0  0  0  0  0  0  0  0  0  0  0
  154.3894  141.7353  161.3138 H   0  0  0  0  0  0  0  0  0  0  0  0
  150.2046  140.3931  156.9979 H   0  0  0  0  0  0  0  0  0  0  0  0
  151.0224  141.5488  156.0048 H   0  0  0  0  0  0  0  0  0  0  0  0
  152.2699  138.8693  156.6972 H   0  0  0  0  0  0  0  0  0  0  0  0
  150.0413  143.3367  157.4448 H   0  0  0  0  0  0  0  0  0  0  0  0
  149.9724  145.2855  159.0169 H   0  0  0  0  0  0  0  0  0  0  0  0
  151.5218  145.3942  160.9591 H   0  0  0  0  0  0  0  0  0  0  0  0
  153.1679  143.5518  161.3747 H   0  0  0  0  0  0  0  0  0  0  0  0
  1  2  1  0  0  0  0
  1 21  1  0  0  0  0
  1 22  1  0  0  0  0
  1 23  1  0  0  0  0
  2  3  1  0  0  0  0
  2 24  1  0  0  0  0
  2 25  1  0  0  0  0
  3  4  1  0  0  0  0
  3 26  1  0  0  0  0
  3 27  1  0  0  0  0
  4 20  1  0  0  0  0
  4  5  1  0  0  0  0
  5  6  2  0  0  0  0
  5  7  1  0  0  0  0
  7  8  1  0  0  0  0
  7 15  1  0  0  0  0
  8  9  1  0  0  0  0
  8 28  1  0  0  0  0
  8 29  1  0  0  0  0
  9 10  1  0  0  0  0
  9 11  1  0  0  0  0
  9 30  1  0  0  0  0
 11 12  1  0  0  0  0
 11 13  1  0  0  0  0
 11 14  1  0  0  0  0
 15 20  2  0  0  0  0
 15 16  1  0  0  0  0
 16 17  2  0  0  0  0
 16 31  1  0  0  0  0
 17 18  1  0  0  0  0
 17 32  1  0  0  0  0
 18 19  2  0  0  0  0
 18 33  1  0  0  0  0
 19 20  1  0  0  0  0
 19 34  1  0  0  0  0
M  CHG  1  10  -1
M  END
> <s_m_source_file>
AV-unprocessed.smi

> <i_m_source_file_index>
2804

> <i_lp_mmshare_version>
43012

> <i_f3d_flags>
0

> <s_epik_input>
W2NIXTFbY0hdW2NIXVtjSF1jKGMxMiluKFtDSDJdW0NIMl1bQ0gzXSljKD1PKW4yW0NIMl1bQ0BIXShbT0hdKUMoRikoRilG

> <s_epik_cmdline>
J2VwaWtfcHl0aG9uJywgJy1waCcsICc3LjAnLCAnLXRuJywgJzgnLCAnLW1hJywgJzIwMCcsICctbWV0YWxfYmluZGluZycsICctaW1hZScsICc8aW5maWxlLm1hZT4nLCAnLW9tYWUnLCAnPG91dGZpbGUubWFlPic=

> <r_epik_Ionization_Penalty>
2.32651

> <r_epik_Ionization_Penalty_Charging>
2.32651

> <r_epik_Ionization_Penalty_Neutral>
0

> <r_epik_State_Penalty>
2.47909

> <r_epik_Charging_Adjusted_Penalty>
4.8056

> <i_epik_Tot_Q>
-1

> <i_epik_Tot_abs_Q>
1

> <r_epik_Metal_State_Penalty>
2.47909

> <b_epik_Metal_Only>
0

> <s_lp_Force_Field>
OPLS_2005

> <r_lp_Energy>
44.0832

> <b_lp_Chiralities_Consistent>
1

> <s_lp_Variant>
AV-unprocessed.smi:2804-3

> <Gold.Version>
5.8.1

> <Gold.Id.Protein>
6NUR|6NUR_protein|mol2

> <Gold.PLP.Fitness>
52.8830

> <Gold.PLP.PLP>
-44.6864

> <Gold.PLP.part.hbond>
-3.0000

> <Gold.PLP.part.metal>
0.0000

> <Gold.PLP.part.buried>
-2.9312

> <Gold.PLP.part.nonpolar>
-38.8305

> <Gold.PLP.part.repulsive>
0.0173

> <Gold.PLP.ligand.clash>
0.0000

> <Gold.PLP.ligand.torsion>
0.6698

> <Gold.PLP.Chemscore.Hbond>
3.1586

> <Gold.PLP.Chemscore.CHOScore>
0.0000

> <Gold.PLP.Chemscore.Metal>
0.0000

> <Gold.Chemscore.Hbonds>
donor molecule, donor type, donor heavy atom, donor atom, acceptor molecule, acceptor atom, score
      P1  H  7989  7998       L1    10  0.46
      P1  H  7997  8009       L1     6  0.69
      P1  H  7997  8010       L1    10  2.00

> <Gold.PLP.Chemscore.Internal.Correction>
0.0606

> <Gold.Rescore>
     Score         DG    S(hbond)    S(metal)    S(lipo)     H(rot)  DE(clash)    DE(int)     intcor
     15.71     -17.74       1.34        0.00     104.16       1.72       0.00       2.04       ----

> <Gold.Chemscore.Fitness>
15.7064

> <Gold.Chemscore.DG>
-17.7440

> <Gold.Chemscore.ZeroCoef>
-5.4800

> <Gold.Chemscore.Hbond>
1.3403

> <Gold.Chemscore.Metal>
0.0000

> <Gold.Chemscore.Lipo>
104.1595

> <Gold.Chemscore.Internal_Hbond>
0.0000

> <Gold.Chemscore.DEClash>
0.0014

> <Gold.Chemscore.DEInternal>
2.0361

> <Gold.Chemscore.Rot>
1.7185

> <Gold.Chemscore.Internal.Correction>
   9.000000E+99

> <Gold.Chemscore.Hbonds>
donor molecule, donor type, donor heavy atom, donor atom, acceptor molecule, acceptor atom, score
      P1  H  7989  7998       L1    10  0.34
      P1  H  7997  8009       L1     6  0.17
      P1  H  7997  8010       L1    10  0.81

> <Gold.Chemscore.Hbond.Weighted>
-4.4765

> <Gold.Chemscore.Metal.Weighted>
-0.0000

> <Gold.Chemscore.Lipo.Weighted>
-12.1867

> <Gold.Chemscore.Internal_Hbond.Weighted>
0.0000

> <Gold.Chemscore.DEClash.Weighted>
0.0014

> <Gold.Chemscore.DEInternal.Weighted>
2.0361

> <Gold.Chemscore.Rot.Weighted>
4.3992

> <Gold.Chemscore.Internal.Correction.Weighted>
   9.000000E+99

> <Gold.Protein.RotatedTorsions>
[ 6907 6896 6895 6894 ] final  -55.72 input  -60.11 | X-H torsion
[ 7974 7965 7964 7962 ] final  105.64 input  175.53 | X-H torsion
[ 8008 7997 7996 7995 ] final  119.89 input   59.86 | X-H torsion
[ 10167 10162 10161 10158 ] final  -22.17 input  -65.29 | X-H torsion
[ 10718 10713 10712 10709 ] final -167.47 input   66.30 | X-H torsion
[ 10763 10752 10751 10750 ] final   62.55 input  -60.55 | X-H torsion
[ 11005 11000 10999 10996 ] final -137.17 input  -57.11 | X-H torsion

> <Gold.Protein.ActiveResidues>
 VAL166  LYS551  ARG553  GLY616  TRP617  ASP618  TYR619  PRO620  LYS621  CYS622 
 ASP623  PHE694  ASN695  SER759  ASP760  ASP761  ALA762  ILE779  LEU786  VAL792 
 PHE793  MET794  SER795  GLU796  ALA797  LYS798  CYS799  TRP800  GLU811  SER814 

> <Gold.Protein.RotatedAtoms>
  150.8228  134.7444  159.6786 H   0  0  0  0  0  0  0  0  0  0  0  0  # atno 6907 bound_to 6896
  152.4342  134.5716  159.9932 H   0  0  0  0  0  0  0  0  0  0  0  0  # atno 6908 bound_to 6896
  151.5896  133.3330  159.3061 H   0  0  0  0  0  0  0  0  0  0  0  0  # atno 6909 bound_to 6896
  145.3171  139.2523  143.3732 H   0  0  0  0  0  0  0  0  0  0  0  0  # atno 7974 bound_to 7965
  156.2617  140.2843  156.1064 H   0  0  0  0  0  0  0  0  0  0  0  0  # atno 8008 bound_to 7997
  155.1305  140.0393  157.2791 H   0  0  0  0  0  0  0  0  0  0  0  0  # atno 8009 bound_to 7997
  154.6603  140.2565  155.7122 H   0  0  0  0  0  0  0  0  0  0  0  0  # atno 8010 bound_to 7997
  140.7285  143.4560  151.0448 H   0  0  0  0  0  0  0  0  0  0  0  0  # atno 10167 bound_to 10162
  156.6829  130.9129  151.3059 H   0  0  0  0  0  0  0  0  0  0  0  0  # atno 10718 bound_to 10713
  152.9987  135.5461  154.6211 H   0  0  0  0  0  0  0  0  0  0  0  0  # atno 10763 bound_to 10752
  154.5510  135.2826  155.1010 H   0  0  0  0  0  0  0  0  0  0  0  0  # atno 10764 bound_to 10752
  154.2250  135.6444  153.5209 H   0  0  0  0  0  0  0  0  0  0  0  0  # atno 10765 bound_to 10752
  140.8736  134.2020  157.4635 H   0  0  0  0  0  0  0  0  0  0  0  0  # atno 11005 bound_to 11000
  146.3096  140.3720  142.8675 LP  0  0  0  0  0  0  0  0  0  0  0  0  # atno 17320 bound_to 7965
  144.8969  140.7594  143.5891 LP  0  0  0  0  0  0  0  0  0  0  0  0  # atno 17321 bound_to 7965
  139.8240  143.7781  152.3178 LP  0  0  0  0  0  0  0  0  0  0  0  0  # atno 17342 bound_to 10162
  139.7873  144.7423  151.0003 LP  0  0  0  0  0  0  0  0  0  0  0  0  # atno 17343 bound_to 10162
  157.7037  130.9361  150.0864 LP  0  0  0  0  0  0  0  0  0  0  0  0  # atno 17370 bound_to 10713
  156.1854  130.3652  149.8979 LP  0  0  0  0  0  0  0  0  0  0  0  0  # atno 17371 bound_to 10713
  139.8714  134.9785  156.5002 LP  0  0  0  0  0  0  0  0  0  0  0  0  # atno 17394 bound_to 11000
  140.8544  133.8107  155.9201 LP  0  0  0  0  0  0  0  0  0  0  0  0  # atno 17395 bound_to 11000

$$$$
