AV-unprocessed.smi:1006|AV-procd|sdf|4391|dock9
  -GOLD-   22720 2323D 1   1.00000     0.00000
 Structure written by MMmdl.
 45 47  0  0  0  0  0  0  0  0  1 V2000
  154.5739  145.2722  165.1979 C   0  0  0  0  0  0  0  0  0  0  0  0
  154.9848  144.1638  166.1442 C   0  0  0  0  0  0  0  0  0  0  0  0
  154.6538  144.2051  167.5155 C   0  0  0  0  0  0  0  0  0  0  0  0
  155.0900  143.1130  168.2949 C   0  0  0  0  0  0  0  0  0  0  0  0
  154.8157  143.0563  169.6590 N   0  0  0  0  0  0  0  0  0  0  0  0
  155.7849  142.0867  167.7582 N   0  0  0  0  0  0  0  0  0  0  0  0
  156.0382  142.1568  166.4491 C   0  0  0  0  0  0  0  0  0  0  0  0
  156.9654  140.7849  165.7770 S   0  0  0  0  0  0  0  0  0  0  0  0
  155.6883  139.8587  164.8707 C   0  0  0  0  0  0  0  0  0  0  0  0
  155.5883  140.2704  163.3903 C   0  0  1  0  0  0  0  0  0  0  0  0
  156.8853  140.5048  162.8806 O   0  0  0  0  0  0  0  0  0  0  0  0
  154.9170  139.2046  162.5000 C   0  0  0  0  0  0  0  0  0  0  0  0
  154.5170  139.7240  161.2043 N   0  0  0  0  0  0  0  0  0  0  0  0
  154.6857  139.1309  160.0071 C   0  0  0  0  0  0  0  0  0  0  0  0
  154.2540  139.7893  158.9352 N   0  0  0  0  0  0  0  0  0  0  0  0
  153.7463  140.9454  159.5030 C   0  0  0  0  0  0  0  0  0  0  0  0
  153.1436  142.0734  158.9043 C   0  0  0  0  0  0  0  0  0  0  0  0
  152.6987  143.1606  159.6898 C   0  0  0  0  0  0  0  0  0  0  0  0
  152.0580  144.3543  159.0037 C   0  0  0  0  0  0  0  0  0  0  0  0
  152.8538  143.1295  161.0989 C   0  0  0  0  0  0  0  0  0  0  0  0
  152.3885  144.2875  161.9636 C   0  0  0  0  0  0  0  0  0  0  0  0
  153.4497  142.0087  161.7135 C   0  0  0  0  0  0  0  0  0  0  0  0
  153.8908  140.9339  160.9210 C   0  0  0  0  0  0  0  0  0  0  0  0
  155.6773  143.1340  165.6113 N   0  0  0  0  0  0  0  0  0  0  0  0
  153.5644  145.0953  164.8272 H   0  0  0  0  0  0  0  0  0  0  0  0
  155.2492  145.3283  164.3432 H   0  0  0  0  0  0  0  0  0  0  0  0
  154.5900  146.2372  165.7048 H   0  0  0  0  0  0  0  0  0  0  0  0
  154.0976  145.0271  167.9422 H   0  0  0  0  0  0  0  0  0  0  0  0
  154.3011  143.7883  170.1267 H   0  0  0  0  0  0  0  0  0  0  0  0
  155.1254  142.2789  170.2240 H   0  0  0  0  0  0  0  0  0  0  0  0
  155.8943  138.7905  164.9503 H   0  0  0  0  0  0  0  0  0  0  0  0
  154.7381  140.0457  165.3705 H   0  0  0  0  0  0  0  0  0  0  0  0
  155.0254  141.2018  163.3171 H   0  0  0  0  0  0  0  0  0  0  0  0
  157.2965  139.6696  162.7166 H   0  0  0  0  0  0  0  0  0  0  0  0
  155.5945  138.3648  162.3393 H   0  0  0  0  0  0  0  0  0  0  0  0
  154.0331  138.7993  162.9939 H   0  0  0  0  0  0  0  0  0  0  0  0
  155.1565  138.1626  159.9177 H   0  0  0  0  0  0  0  0  0  0  0  0
  153.0284  142.0979  157.8307 H   0  0  0  0  0  0  0  0  0  0  0  0
  151.0544  144.5270  159.3934 H   0  0  0  0  0  0  0  0  0  0  0  0
  151.9753  144.1982  157.9275 H   0  0  0  0  0  0  0  0  0  0  0  0
  152.6535  145.2526  159.1677 H   0  0  0  0  0  0  0  0  0  0  0  0
  152.6459  144.1294  163.0113 H   0  0  0  0  0  0  0  0  0  0  0  0
  151.3064  144.4016  161.8963 H   0  0  0  0  0  0  0  0  0  0  0  0
  152.8562  145.2185  161.6431 H   0  0  0  0  0  0  0  0  0  0  0  0
  153.5766  141.9734  162.7853 H   0  0  0  0  0  0  0  0  0  0  0  0
  1  2  1  0  0  0  0
  1 25  1  0  0  0  0
  1 26  1  0  0  0  0
  1 27  1  0  0  0  0
  2 24  1  0  0  0  0
  2  3  2  0  0  0  0
  3  4  1  0  0  0  0
  3 28  1  0  0  0  0
  4  5  1  0  0  0  0
  4  6  2  0  0  0  0
  5 29  1  0  0  0  0
  5 30  1  0  0  0  0
  6  7  1  0  0  0  0
  7  8  1  0  0  0  0
  7 24  2  0  0  0  0
  8  9  1  0  0  0  0
  9 10  1  0  0  0  0
  9 31  1  0  0  0  0
  9 32  1  0  0  0  0
 10 11  1  0  0  0  0
 10 12  1  0  0  0  0
 10 33  1  0  0  0  0
 11 34  1  0  0  0  0
 12 13  1  0  0  0  0
 12 35  1  0  0  0  0
 12 36  1  0  0  0  0
 13 23  1  0  0  0  0
 13 14  1  0  0  0  0
 14 15  2  0  0  0  0
 14 37  1  0  0  0  0
 15 16  1  0  0  0  0
 16 23  2  0  0  0  0
 16 17  1  0  0  0  0
 17 18  2  0  0  0  0
 17 38  1  0  0  0  0
 18 19  1  0  0  0  0
 18 20  1  0  0  0  0
 19 39  1  0  0  0  0
 19 40  1  0  0  0  0
 19 41  1  0  0  0  0
 20 21  1  0  0  0  0
 20 22  2  0  0  0  0
 21 42  1  0  0  0  0
 21 43  1  0  0  0  0
 21 44  1  0  0  0  0
 22 23  1  0  0  0  0
 22 45  1  0  0  0  0
M  END
> <s_m_source_file>
AV-unprocessed.smi

> <i_m_source_file_index>
1006

> <i_lp_mmshare_version>
43012

> <i_f3d_flags>
0

> <s_epik_input>
W0NIM11jMVtjSF1jKFtOSDJdKW5jKG4xKVNbQ0gyXVtDQEhdKFtPSF0pW0NIMl1uKFtjSF1uMiljKGMyMylbY0hdYyhbQ0gzXSljKFtjSF0zKVtDSDNd

> <s_epik_cmdline>
J2VwaWtfcHl0aG9uJywgJy1waCcsICc3LjAnLCAnLXRuJywgJzgnLCAnLW1hJywgJzIwMCcsICctbWV0YWxfYmluZGluZycsICctaW1hZScsICc8aW5maWxlLm1hZT4nLCAnLW9tYWUnLCAnPG91dGZpbGUubWFlPic=

> <r_lp_tautomer_probability>
1

> <r_epik_Ionization_Penalty>
0.490208

> <r_epik_Ionization_Penalty_Charging>
0

> <r_epik_Ionization_Penalty_Neutral>
0.490208

> <r_epik_State_Penalty>
0.473203

> <r_epik_Charging_Adjusted_Penalty>
0.473203

> <i_epik_Tot_Q>
0

> <i_epik_Tot_abs_Q>
0

> <r_epik_Metal_State_Penalty>
0.354099

> <b_epik_Metal_Only>
0

> <s_lp_Force_Field>
OPLS_2005

> <r_lp_Energy>
2.6746

> <b_lp_Chiralities_Consistent>
1

> <s_lp_Variant>
AV-unprocessed.smi:1006-2

> <Gold.Version>
5.8.1

> <Gold.Id.Protein>
6NUR|6NUR_protein|mol2

> <Gold.PLP.Fitness>
53.4525

> <Gold.PLP.PLP>
-52.2454

> <Gold.PLP.part.hbond>
-2.7584

> <Gold.PLP.part.metal>
0.0000

> <Gold.PLP.part.buried>
-4.1704

> <Gold.PLP.part.nonpolar>
-43.9195

> <Gold.PLP.part.repulsive>
0.0490

> <Gold.PLP.ligand.clash>
0.0000

> <Gold.PLP.ligand.torsion>
0.9066

> <Gold.PLP.Chemscore.Hbond>
1.0000

> <Gold.PLP.Chemscore.CHOScore>
0.0000

> <Gold.PLP.Chemscore.Metal>
0.0000

> <Gold.Chemscore.Hbonds>
donor molecule, donor type, donor heavy atom, donor atom, acceptor molecule, acceptor atom, score
      P1  H  7997  8009       L1    15  1.00

> <Gold.PLP.Chemscore.Internal.Correction>
0.0203

> <Gold.Rescore>
     Score         DG    S(hbond)    S(metal)    S(lipo)     H(rot)  DE(clash)    DE(int)     intcor
     15.60     -17.92       0.94        0.00     141.15       2.82       1.52       0.81       ----

> <Gold.Chemscore.Fitness>
15.5978

> <Gold.Chemscore.DG>
-17.9210

> <Gold.Chemscore.ZeroCoef>
-5.4800

> <Gold.Chemscore.Hbond>
0.9426

> <Gold.Chemscore.Metal>
0.0000

> <Gold.Chemscore.Lipo>
141.1463

> <Gold.Chemscore.Internal_Hbond>
0.0000

> <Gold.Chemscore.DEClash>
1.5160

> <Gold.Chemscore.DEInternal>
0.8072

> <Gold.Chemscore.Rot>
2.8209

> <Gold.Chemscore.Internal.Correction>
   9.000000E+99

> <Gold.Chemscore.Hbonds>
donor molecule, donor type, donor heavy atom, donor atom, acceptor molecule, acceptor atom, score
      P1  H  7997  8009       L1    15  0.88

> <Gold.Chemscore.Hbond.Weighted>
-3.1483

> <Gold.Chemscore.Metal.Weighted>
-0.0000

> <Gold.Chemscore.Lipo.Weighted>
-16.5141

> <Gold.Chemscore.Internal_Hbond.Weighted>
0.0000

> <Gold.Chemscore.DEClash.Weighted>
1.5160

> <Gold.Chemscore.DEInternal.Weighted>
0.8072

> <Gold.Chemscore.Rot.Weighted>
7.2215

> <Gold.Chemscore.Internal.Correction.Weighted>
   9.000000E+99

> <Gold.Protein.RotatedTorsions>
[ 6907 6896 6895 6894 ] final  168.26 input  -60.11 | X-H torsion
[ 7974 7965 7964 7962 ] final -109.13 input  175.53 | X-H torsion
[ 8008 7997 7996 7995 ] final  129.64 input   59.86 | X-H torsion
[ 10167 10162 10161 10158 ] final   67.34 input  -65.29 | X-H torsion
[ 10718 10713 10712 10709 ] final -123.31 input   66.30 | X-H torsion
[ 10763 10752 10751 10750 ] final  156.44 input  -60.55 | X-H torsion
[ 11005 11000 10999 10996 ] final  169.46 input  -57.11 | X-H torsion

> <Gold.Protein.ActiveResidues>
 VAL166  LYS551  ARG553  GLY616  TRP617  ASP618  TYR619  PRO620  LYS621  CYS622 
 ASP623  PHE694  ASN695  SER759  ASP760  ASP761  ALA762  ILE779  LEU786  VAL792 
 PHE793  MET794  SER795  GLU796  ALA797  LYS798  CYS799  TRP800  GLU811  SER814 

> <Gold.Protein.RotatedAtoms>
  151.8504  133.3439  159.3671 H   0  0  0  0  0  0  0  0  0  0  0  0  # atno 6907 bound_to 6896
  150.7208  134.5305  159.5707 H   0  0  0  0  0  0  0  0  0  0  0  0  # atno 6908 bound_to 6896
  152.2797  134.7843  160.0450 H   0  0  0  0  0  0  0  0  0  0  0  0  # atno 6909 bound_to 6896
  145.1844  140.8986  143.3461 H   0  0  0  0  0  0  0  0  0  0  0  0  # atno 7974 bound_to 7965
  156.2940  140.2615  156.2632 H   0  0  0  0  0  0  0  0  0  0  0  0  # atno 8008 bound_to 7997
  154.9768  140.0390  157.2278 H   0  0  0  0  0  0  0  0  0  0  0  0  # atno 8009 bound_to 7997
  154.7808  140.2794  155.6070 H   0  0  0  0  0  0  0  0  0  0  0  0  # atno 8010 bound_to 7997
  140.0906  144.4991  150.7101 H   0  0  0  0  0  0  0  0  0  0  0  0  # atno 10167 bound_to 10162
  156.1491  130.6522  150.9887 H   0  0  0  0  0  0  0  0  0  0  0  0  # atno 10718 bound_to 10713
  154.1844  135.2798  155.3042 H   0  0  0  0  0  0  0  0  0  0  0  0  # atno 10763 bound_to 10752
  154.5977  135.5539  153.7346 H   0  0  0  0  0  0  0  0  0  0  0  0  # atno 10764 bound_to 10752
  153.0129  135.6384  154.1983 H   0  0  0  0  0  0  0  0  0  0  0  0  # atno 10765 bound_to 10752
  140.2980  134.7619  157.3893 H   0  0  0  0  0  0  0  0  0  0  0  0  # atno 11005 bound_to 11000
  145.0104  139.3515  143.6123 LP  0  0  0  0  0  0  0  0  0  0  0  0  # atno 17320 bound_to 7965
  146.3447  139.9364  142.8746 LP  0  0  0  0  0  0  0  0  0  0  0  0  # atno 17321 bound_to 7965
  140.7030  143.2448  151.4808 LP  0  0  0  0  0  0  0  0  0  0  0  0  # atno 17342 bound_to 10162
  139.5727  144.1892  152.1859 LP  0  0  0  0  0  0  0  0  0  0  0  0  # atno 17343 bound_to 10162
  157.6642  131.0875  150.7768 LP  0  0  0  0  0  0  0  0  0  0  0  0  # atno 17370 bound_to 10713
  156.7837  130.4867  149.5396 LP  0  0  0  0  0  0  0  0  0  0  0  0  # atno 17371 bound_to 10713
  140.1135  134.5314  155.8245 LP  0  0  0  0  0  0  0  0  0  0  0  0  # atno 17394 bound_to 11000
  141.2133  133.6732  156.6733 LP  0  0  0  0  0  0  0  0  0  0  0  0  # atno 17395 bound_to 11000

$$$$
