AV-unprocessed.smi:1239|AV-procd|sdf|5188|dock3
  -GOLD-   22720 4273D 1   1.00000     0.00000
 Structure written by MMmdl.
 47 48  0  0  0  0  0  0  0  0  1 V2000
  153.9273  137.3231  165.3690 C   0  0  0  0  0  0  0  0  0  0  0  0
  154.1904  136.5135  164.0735 C   0  0  1  0  0  0  0  0  0  0  0  0
  155.3454  137.1929  163.2804 C   0  0  0  0  0  0  0  0  0  0  0  0
  155.1865  138.6382  163.1406 N   0  0  0  0  0  0  0  0  0  0  0  0
  154.3841  139.2428  162.2531 C   0  0  0  0  0  0  0  0  0  0  0  0
  153.6962  138.6325  161.4351 O   0  0  0  0  0  0  0  0  0  0  0  0
  154.4499  140.5796  162.3737 N   0  0  0  0  0  0  0  0  0  0  0  0
  153.7450  141.5735  161.6424 C   0  0  0  0  0  0  0  0  0  0  0  0
  153.2481  142.7751  162.1973 C   0  0  0  0  0  0  0  0  0  0  0  0
  152.5805  143.6901  161.3605 C   0  0  0  0  0  0  0  0  0  0  0  0
  152.4276  143.3904  159.9840 C   0  0  0  0  0  0  0  0  0  0  0  0
  151.7632  144.2761  159.1050 N   0  0  0  0  0  0  0  0  0  0  0  0
  151.6898  143.9651  157.6811 C   0  0  0  0  0  0  0  0  0  0  0  0
  151.0658  145.4438  159.6291 C   0  0  0  0  0  0  0  0  0  0  0  0
  152.9190  142.2422  159.4567 N   0  0  0  0  0  0  0  0  0  0  0  0
  153.5582  141.3689  160.2617 C   0  0  0  0  0  0  0  0  0  0  0  0
  154.4271  135.0747  164.3373 N   0  0  0  0  0  0  0  0  0  0  0  0
  154.1149  134.2259  163.1813 C   0  0  0  0  0  0  0  0  0  0  0  0
  154.3265  132.7282  163.4642 C   0  0  0  0  0  0  0  0  0  0  0  0
  153.5458  132.3351  164.5843 O   0  0  0  0  0  0  0  0  0  0  0  0
  153.8721  133.0806  165.7488 C   0  0  0  0  0  0  0  0  0  0  0  0
  153.6532  134.5797  165.4819 C   0  0  0  0  0  0  0  0  0  0  0  0
  153.7998  138.3877  165.1764 H   0  0  0  0  0  0  0  0  0  0  0  0
  154.7509  137.2144  166.0753 H   0  0  0  0  0  0  0  0  0  0  0  0
  153.0105  137.0164  165.8699 H   0  0  0  0  0  0  0  0  0  0  0  0
  153.2906  136.5943  163.4617 H   0  0  0  0  0  0  0  0  0  0  0  0
  156.2975  137.0038  163.7769 H   0  0  0  0  0  0  0  0  0  0  0  0
  155.4393  136.7923  162.2721 H   0  0  0  0  0  0  0  0  0  0  0  0
  155.7215  139.2172  163.7712 H   0  0  0  0  0  0  0  0  0  0  0  0
  155.1217  140.9311  163.0402 H   0  0  0  0  0  0  0  0  0  0  0  0
  153.3753  143.0228  163.2395 H   0  0  0  0  0  0  0  0  0  0  0  0
  152.2039  144.6050  161.7922 H   0  0  0  0  0  0  0  0  0  0  0  0
  151.1654  143.0221  157.5229 H   0  0  0  0  0  0  0  0  0  0  0  0
  152.6899  143.8825  157.2541 H   0  0  0  0  0  0  0  0  0  0  0  0
  151.1564  144.7404  157.1310 H   0  0  0  0  0  0  0  0  0  0  0  0
  151.7657  146.1169  160.1248 H   0  0  0  0  0  0  0  0  0  0  0  0
  150.3002  145.1444  160.3454 H   0  0  0  0  0  0  0  0  0  0  0  0
  150.5745  146.0037  158.8332 H   0  0  0  0  0  0  0  0  0  0  0  0
  153.9297  140.4735  159.7847 H   0  0  0  0  0  0  0  0  0  0  0  0
  153.0837  134.3932  162.8666 H   0  0  0  0  0  0  0  0  0  0  0  0
  154.7504  134.4771  162.3349 H   0  0  0  0  0  0  0  0  0  0  0  0
  154.0302  132.1348  162.5992 H   0  0  0  0  0  0  0  0  0  0  0  0
  155.3802  132.5154  163.6519 H   0  0  0  0  0  0  0  0  0  0  0  0
  153.2406  132.7469  166.5722 H   0  0  0  0  0  0  0  0  0  0  0  0
  154.9059  132.8865  166.0388 H   0  0  0  0  0  0  0  0  0  0  0  0
  153.9303  135.1083  166.3922 H   0  0  0  0  0  0  0  0  0  0  0  0
  152.5906  134.7656  165.3176 H   0  0  0  0  0  0  0  0  0  0  0  0
  1  2  1  0  0  0  0
  1 23  1  0  0  0  0
  1 24  1  0  0  0  0
  1 25  1  0  0  0  0
  2  3  1  0  0  0  0
  2 17  1  0  0  0  0
  2 26  1  0  0  0  0
  3  4  1  0  0  0  0
  3 27  1  0  0  0  0
  3 28  1  0  0  0  0
  4  5  1  0  0  0  0
  4 29  1  0  0  0  0
  5  6  2  0  0  0  0
  5  7  1  0  0  0  0
  7  8  1  0  0  0  0
  7 30  1  0  0  0  0
  8 16  1  0  0  0  0
  8  9  2  0  0  0  0
  9 10  1  0  0  0  0
  9 31  1  0  0  0  0
 10 11  2  0  0  0  0
 10 32  1  0  0  0  0
 11 12  1  0  0  0  0
 11 15  1  0  0  0  0
 12 13  1  0  0  0  0
 12 14  1  0  0  0  0
 13 33  1  0  0  0  0
 13 34  1  0  0  0  0
 13 35  1  0  0  0  0
 14 36  1  0  0  0  0
 14 37  1  0  0  0  0
 14 38  1  0  0  0  0
 15 16  2  0  0  0  0
 16 39  1  0  0  0  0
 17 22  1  0  0  0  0
 17 18  1  0  0  0  0
 18 19  1  0  0  0  0
 18 40  1  0  0  0  0
 18 41  1  0  0  0  0
 19 20  1  0  0  0  0
 19 42  1  0  0  0  0
 19 43  1  0  0  0  0
 20 21  1  0  0  0  0
 21 22  1  0  0  0  0
 21 44  1  0  0  0  0
 21 45  1  0  0  0  0
 22 46  1  0  0  0  0
 22 47  1  0  0  0  0
M  END
> <s_m_source_file>
AV-unprocessed.smi

> <i_m_source_file_index>
1239

> <i_lp_mmshare_version>
43012

> <i_f3d_flags>
0

> <s_epik_input>
W0NIMl0xW0NIMl1PW0NIMl1bQ0gyXU4xW0NASF0oW0NIM10pW0NIMl1bTkhdQyg9TylbTkhdYzJbY0hdW2NIXWMoTihbQ0gzXSlbQ0gzXSluW2NIXTI=

> <s_epik_cmdline>
J2VwaWtfcHl0aG9uJywgJy1waCcsICc3LjAnLCAnLXRuJywgJzgnLCAnLW1hJywgJzIwMCcsICctbWV0YWxfYmluZGluZycsICctaW1hZScsICc8aW5maWxlLm1hZT4nLCAnLW9tYWUnLCAnPG91dGZpbGUubWFlPic=

> <r_lp_tautomer_probability>
1

> <r_epik_Ionization_Penalty>
0.87526

> <r_epik_Ionization_Penalty_Charging>
0

> <r_epik_Ionization_Penalty_Neutral>
0.87526

> <r_epik_State_Penalty>
0.859346

> <r_epik_Charging_Adjusted_Penalty>
0.859346

> <i_epik_Tot_Q>
0

> <i_epik_Tot_abs_Q>
0

> <r_epik_Metal_State_Penalty>
0.538105

> <b_epik_Metal_Only>
0

> <s_lp_Force_Field>
OPLS_2005

> <r_lp_Energy>
32.4423

> <b_lp_Chiralities_Consistent>
1

> <s_lp_Variant>
AV-unprocessed.smi:1239-4

> <Gold.Version>
5.8.1

> <Gold.Id.Protein>
6NUR|6NUR_protein|mol2

> <Gold.PLP.Fitness>
47.9641

> <Gold.PLP.PLP>
-49.8760

> <Gold.PLP.part.hbond>
0.0000

> <Gold.PLP.part.metal>
0.0000

> <Gold.PLP.part.buried>
-6.8562

> <Gold.PLP.part.nonpolar>
-43.7321

> <Gold.PLP.part.repulsive>
0.0261

> <Gold.PLP.ligand.clash>
0.0000

> <Gold.PLP.ligand.torsion>
0.9899

> <Gold.PLP.Chemscore.Hbond>
0.0000

> <Gold.PLP.Chemscore.CHOScore>
0.0000

> <Gold.PLP.Chemscore.Metal>
0.0000

> <Gold.PLP.Chemscore.Internal.Correction>
0.0679

> <Gold.Rescore>
     Score         DG    S(hbond)    S(metal)    S(lipo)     H(rot)  DE(clash)    DE(int)     intcor
     12.99     -14.98       0.00        0.00     112.61       1.44       0.03       1.96       ----

> <Gold.Chemscore.Fitness>
12.9866

> <Gold.Chemscore.DG>
-14.9771

> <Gold.Chemscore.ZeroCoef>
-5.4800

> <Gold.Chemscore.Hbond>
0.0000

> <Gold.Chemscore.Metal>
0.0000

> <Gold.Chemscore.Lipo>
112.6125

> <Gold.Chemscore.Internal_Hbond>
0.0000

> <Gold.Chemscore.DEClash>
0.0276

> <Gold.Chemscore.DEInternal>
1.9629

> <Gold.Chemscore.Rot>
1.4370

> <Gold.Chemscore.Internal.Correction>
   9.000000E+99

> <Gold.Chemscore.Hbond.Weighted>
-0.0000

> <Gold.Chemscore.Metal.Weighted>
-0.0000

> <Gold.Chemscore.Lipo.Weighted>
-13.1757

> <Gold.Chemscore.Internal_Hbond.Weighted>
0.0000

> <Gold.Chemscore.DEClash.Weighted>
0.0276

> <Gold.Chemscore.DEInternal.Weighted>
1.9629

> <Gold.Chemscore.Rot.Weighted>
3.6786

> <Gold.Chemscore.Internal.Correction.Weighted>
   9.000000E+99

> <Gold.Protein.RotatedTorsions>
[ 6907 6896 6895 6894 ] final   36.28 input  -60.11 | X-H torsion
[ 7974 7965 7964 7962 ] final   52.60 input  175.53 | X-H torsion
[ 8008 7997 7996 7995 ] final -170.73 input   59.86 | X-H torsion
[ 10167 10162 10161 10158 ] final   -8.71 input  -65.29 | X-H torsion
[ 10718 10713 10712 10709 ] final    4.02 input   66.30 | X-H torsion
[ 10763 10752 10751 10750 ] final -151.09 input  -60.55 | X-H torsion
[ 11005 11000 10999 10996 ] final  106.41 input  -57.11 | X-H torsion

> <Gold.Protein.ActiveResidues>
 VAL166  LYS551  ARG553  GLY616  TRP617  ASP618  TYR619  PRO620  LYS621  CYS622 
 ASP623  PHE694  ASN695  SER759  ASP760  ASP761  ALA762  ILE779  LEU786  VAL792 
 PHE793  MET794  SER795  GLU796  ALA797  LYS798  CYS799  TRP800  GLU811  SER814 

> <Gold.Protein.RotatedAtoms>
  152.1276  134.9159  160.0560 H   0  0  0  0  0  0  0  0  0  0  0  0  # atno 6907 bound_to 6896
  152.0275  133.3919  159.4292 H   0  0  0  0  0  0  0  0  0  0  0  0  # atno 6908 bound_to 6896
  150.6854  134.3478  159.4940 H   0  0  0  0  0  0  0  0  0  0  0  0  # atno 6909 bound_to 6896
  145.9797  139.4230  143.0139 H   0  0  0  0  0  0  0  0  0  0  0  0  # atno 7974 bound_to 7965
  155.9222  140.1076  157.1198 H   0  0  0  0  0  0  0  0  0  0  0  0  # atno 8008 bound_to 7997
  154.4056  140.1254  156.4759 H   0  0  0  0  0  0  0  0  0  0  0  0  # atno 8009 bound_to 7997
  155.7182  140.3470  155.5006 H   0  0  0  0  0  0  0  0  0  0  0  0  # atno 8010 bound_to 7997
  140.7067  143.5938  150.8866 H   0  0  0  0  0  0  0  0  0  0  0  0  # atno 10167 bound_to 10162
  156.8865  130.5672  149.5651 H   0  0  0  0  0  0  0  0  0  0  0  0  # atno 10718 bound_to 10713
  154.8079  135.3268  154.7382 H   0  0  0  0  0  0  0  0  0  0  0  0  # atno 10763 bound_to 10752
  153.8036  135.6901  153.4856 H   0  0  0  0  0  0  0  0  0  0  0  0  # atno 10764 bound_to 10752
  153.1838  135.4577  155.0007 H   0  0  0  0  0  0  0  0  0  0  0  0  # atno 10765 bound_to 10752
  139.8814  134.9368  156.5662 H   0  0  0  0  0  0  0  0  0  0  0  0  # atno 11005 bound_to 11000
  145.7787  140.9865  143.1110 LP  0  0  0  0  0  0  0  0  0  0  0  0  # atno 17320 bound_to 7965
  144.6858  139.9538  143.7478 LP  0  0  0  0  0  0  0  0  0  0  0  0  # atno 17321 bound_to 7965
  139.9663  143.6106  152.2987 LP  0  0  0  0  0  0  0  0  0  0  0  0  # atno 17342 bound_to 10162
  139.6677  144.7662  151.1841 LP  0  0  0  0  0  0  0  0  0  0  0  0  # atno 17343 bound_to 10162
  156.0651  130.5695  150.9271 LP  0  0  0  0  0  0  0  0  0  0  0  0  # atno 17370 bound_to 10713
  157.6109  131.0936  150.8796 LP  0  0  0  0  0  0  0  0  0  0  0  0  # atno 17371 bound_to 10713
  140.8132  133.8412  155.8829 LP  0  0  0  0  0  0  0  0  0  0  0  0  # atno 17394 bound_to 11000
  140.9487  134.1807  157.4744 LP  0  0  0  0  0  0  0  0  0  0  0  0  # atno 17395 bound_to 11000

$$$$
