AV-unprocessed.smi:2944|AV-procd|sdf|11274|dock4
  -GOLD-   2272016163D 1   1.00000     0.00000
 Structure written by MMmdl.
 45 47  0  0  0  0  0  0  0  0  2 V2000
  151.5826  138.7093  154.7693 C   0  0  0  0  0  0  0  0  0  0  0  0
  150.9747  139.9877  154.8218 O   0  0  0  0  0  0  0  0  0  0  0  0
  151.4271  140.7615  155.9213 C   0  0  0  0  0  0  0  0  0  0  0  0
  151.1040  140.0438  157.2398 C   0  0  0  0  0  0  0  0  0  0  0  0
  151.8331  140.6080  158.3860 N   0  0  0  0  0  0  0  0  0  0  0  0
  152.5905  139.9947  159.3374 C   0  0  0  0  0  0  0  0  0  0  0  0
  152.9605  138.2736  159.4406 S   0  0  0  0  0  0  0  0  0  0  0  0
  153.8919  138.0604  160.9901 C   0  0  2  0  0  0  0  0  0  0  0  0
  155.2033  138.8608  160.9298 C   0  0  0  0  0  0  0  0  0  0  0  0
  154.1613  136.5694  161.2902 C   0  0  0  0  0  0  0  0  0  0  0  0
  154.0188  135.7734  160.3585 O   0  0  0  0  0  0  0  0  0  0  0  0
  154.4905  136.1883  162.5574 N   0  0  0  0  0  0  0  0  0  0  0  0
  154.6534  134.7980  162.9856 C   0  0  0  0  0  0  0  0  0  0  0  0
  155.0549  134.8874  164.4515 C   0  0  0  0  0  0  0  0  0  0  0  0
  155.0479  136.3104  164.6737 N   0  0  0  0  0  0  0  0  0  0  0  0
  154.7263  137.0281  163.5950 C   0  0  0  0  0  0  0  0  0  0  0  0
  154.6815  138.2587  163.5914 O   0  0  0  0  0  0  0  0  0  0  0  0
  153.0458  140.9541  160.1890 N   0  3  0  0  0  0  0  0  0  0  0  0
  152.5984  142.2045  159.7628 C   0  0  0  0  0  0  0  0  0  0  0  0
  152.8161  143.4746  160.2869 C   0  0  0  0  0  0  0  0  0  0  0  0
  152.2157  144.5520  159.6031 C   0  0  0  0  0  0  0  0  0  0  0  0
  151.4357  144.3448  158.4470 C   0  0  0  0  0  0  0  0  0  0  0  0
  151.2214  143.0521  157.9252 C   0  0  0  0  0  0  0  0  0  0  0  0
  151.8180  141.9911  158.6064 C   0  0  0  0  0  0  0  0  0  0  0  0
  151.2141  138.1649  153.9000 H   0  0  0  0  0  0  0  0  0  0  0  0
  151.3469  138.1245  155.6593 H   0  0  0  0  0  0  0  0  0  0  0  0
  152.6666  138.7900  154.6804 H   0  0  0  0  0  0  0  0  0  0  0  0
  152.5031  140.9242  155.8456 H   0  0  0  0  0  0  0  0  0  0  0  0
  150.9501  141.7424  155.9075 H   0  0  0  0  0  0  0  0  0  0  0  0
  150.0344  140.0732  157.4470 H   0  0  0  0  0  0  0  0  0  0  0  0
  151.3703  138.9892  157.1639 H   0  0  0  0  0  0  0  0  0  0  0  0
  153.2952  138.5183  161.7751 H   0  0  0  0  0  0  0  0  0  0  0  0
  155.7863  138.7368  161.8433 H   0  0  0  0  0  0  0  0  0  0  0  0
  155.0019  139.9260  160.8141 H   0  0  0  0  0  0  0  0  0  0  0  0
  155.8277  138.5526  160.0901 H   0  0  0  0  0  0  0  0  0  0  0  0
  153.7208  134.2428  162.8732 H   0  0  0  0  0  0  0  0  0  0  0  0
  155.4309  134.2974  162.4115 H   0  0  0  0  0  0  0  0  0  0  0  0
  154.3390  134.3893  165.1062 H   0  0  0  0  0  0  0  0  0  0  0  0
  156.0493  134.4758  164.6297 H   0  0  0  0  0  0  0  0  0  0  0  0
  155.2652  136.7169  165.5723 H   0  0  0  0  0  0  0  0  0  0  0  0
  153.4152  143.6358  161.1713 H   0  0  0  0  0  0  0  0  0  0  0  0
  152.3574  145.5575  159.9718 H   0  0  0  0  0  0  0  0  0  0  0  0
  150.9930  145.1953  157.9487 H   0  0  0  0  0  0  0  0  0  0  0  0
  150.6278  142.9069  157.0349 H   0  0  0  0  0  0  0  0  0  0  0  0
  153.6343  140.7657  160.9907 H   0  0  0  0  0  0  0  0  0  0  0  0
  1  2  1  0  0  0  0
  1 25  1  0  0  0  0
  1 26  1  0  0  0  0
  1 27  1  0  0  0  0
  2  3  1  0  0  0  0
  3  4  1  0  0  0  0
  3 28  1  0  0  0  0
  3 29  1  0  0  0  0
  4  5  1  0  0  0  0
  4 30  1  0  0  0  0
  4 31  1  0  0  0  0
  5 24  1  0  0  0  0
  5  6  1  0  0  0  0
  6  7  1  0  0  0  0
  6 18  2  0  0  0  0
  7  8  1  0  0  0  0
  8  9  1  0  0  0  0
  8 10  1  0  0  0  0
  8 32  1  0  0  0  0
  9 33  1  0  0  0  0
  9 34  1  0  0  0  0
  9 35  1  0  0  0  0
 10 11  2  0  0  0  0
 10 12  1  0  0  0  0
 12 16  1  0  0  0  0
 12 13  1  0  0  0  0
 13 14  1  0  0  0  0
 13 36  1  0  0  0  0
 13 37  1  0  0  0  0
 14 15  1  0  0  0  0
 14 38  1  0  0  0  0
 14 39  1  0  0  0  0
 15 16  1  0  0  0  0
 15 40  1  0  0  0  0
 16 17  2  0  0  0  0
 18 19  1  0  0  0  0
 18 45  1  0  0  0  0
 19 24  2  0  0  0  0
 19 20  1  0  0  0  0
 20 21  2  0  0  0  0
 20 41  1  0  0  0  0
 21 22  1  0  0  0  0
 21 42  1  0  0  0  0
 22 23  2  0  0  0  0
 22 43  1  0  0  0  0
 23 24  1  0  0  0  0
 23 44  1  0  0  0  0
M  CHG  1  18   1
M  END
> <s_m_source_file>
AV-unprocessed.smi

> <i_m_source_file_index>
2944

> <i_lp_mmshare_version>
43012

> <i_f3d_flags>
0

> <s_epik_input>
W2NIXTFbY0hdW2NIXVtjSF1jKGMxMiluKFtDSDJdW0NIMl1PW0NIM10pYyhuMilTW0NASF0oW0NIM10pQyg9TylOM1tDSDJdW0NIMl1bTkhdQzM9Tw==

> <s_epik_cmdline>
J2VwaWtfcHl0aG9uJywgJy1waCcsICc3LjAnLCAnLXRuJywgJzgnLCAnLW1hJywgJzIwMCcsICctbWV0YWxfYmluZGluZycsICctaW1hZScsICc8aW5maWxlLm1hZT4nLCAnLW9tYWUnLCAnPG91dGZpbGUubWFlPic=

> <r_lp_tautomer_probability>
0.9999

> <r_epik_Ionization_Penalty>
1.88808

> <r_epik_Ionization_Penalty_Charging>
1.88806

> <r_epik_Ionization_Penalty_Neutral>
2.68145e-05

> <r_epik_State_Penalty>
2.00836

> <r_epik_Charging_Adjusted_Penalty>
3.89641

> <i_epik_Tot_Q>
1

> <i_epik_Tot_abs_Q>
1

> <r_epik_Metal_State_Penalty>
2.03272

> <b_epik_Metal_Only>
0

> <s_lp_Force_Field>
OPLS_2005

> <r_lp_Energy>
42.6194

> <b_lp_Chiralities_Consistent>
1

> <s_lp_Variant>
AV-unprocessed.smi:2944-3

> <Gold.Version>
5.8.1

> <Gold.Id.Protein>
6NUR|6NUR_protein|mol2

> <Gold.PLP.Fitness>
53.6440

> <Gold.PLP.PLP>
-49.6014

> <Gold.PLP.part.hbond>
-2.3498

> <Gold.PLP.part.metal>
0.0000

> <Gold.PLP.part.buried>
-6.0650

> <Gold.PLP.part.nonpolar>
-40.5392

> <Gold.PLP.part.repulsive>
0.2278

> <Gold.PLP.ligand.clash>
0.8794

> <Gold.PLP.ligand.torsion>
0.5949

> <Gold.PLP.Chemscore.Hbond>
2.0000

> <Gold.PLP.Chemscore.CHOScore>
0.0000

> <Gold.PLP.Chemscore.Metal>
0.0000

> <Gold.Chemscore.Hbonds>
donor molecule, donor type, donor heavy atom, donor atom, acceptor molecule, acceptor atom, score
      P1  H  6896  6907       L1    11  1.00
      P1  H  7989  7998       L1     2  1.00

> <Gold.PLP.Chemscore.Internal.Correction>
0.1117

> <Gold.Rescore>
     Score         DG    S(hbond)    S(metal)    S(lipo)     H(rot)  DE(clash)    DE(int)     intcor
     15.22     -18.82       1.75        0.00     114.43       2.30       0.11       3.49       ----

> <Gold.Chemscore.Fitness>
15.2184

> <Gold.Chemscore.DG>
-18.8169

> <Gold.Chemscore.ZeroCoef>
-5.4800

> <Gold.Chemscore.Hbond>
1.7467

> <Gold.Chemscore.Metal>
0.0000

> <Gold.Chemscore.Lipo>
114.4263

> <Gold.Chemscore.Internal_Hbond>
0.0000

> <Gold.Chemscore.DEClash>
0.1051

> <Gold.Chemscore.DEInternal>
3.4934

> <Gold.Chemscore.Rot>
2.2988

> <Gold.Chemscore.Internal.Correction>
   9.000000E+99

> <Gold.Chemscore.Hbonds>
donor molecule, donor type, donor heavy atom, donor atom, acceptor molecule, acceptor atom, score
      P1  H  6896  6907       L1    11  0.96
      P1  H  7989  7998       L1     2  0.17

> <Gold.Chemscore.Hbond.Weighted>
-5.8340

> <Gold.Chemscore.Metal.Weighted>
-0.0000

> <Gold.Chemscore.Lipo.Weighted>
-13.3879

> <Gold.Chemscore.Internal_Hbond.Weighted>
0.0000

> <Gold.Chemscore.DEClash.Weighted>
0.1051

> <Gold.Chemscore.DEInternal.Weighted>
3.4934

> <Gold.Chemscore.Rot.Weighted>
5.8850

> <Gold.Chemscore.Internal.Correction.Weighted>
   9.000000E+99

> <Gold.Protein.RotatedTorsions>
[ 6907 6896 6895 6894 ] final   72.76 input  -60.11 | X-H torsion
[ 7974 7965 7964 7962 ] final   82.81 input  175.53 | X-H torsion
[ 8008 7997 7996 7995 ] final -165.86 input   59.86 | X-H torsion
[ 10167 10162 10161 10158 ] final  160.47 input  -65.29 | X-H torsion
[ 10718 10713 10712 10709 ] final  -29.50 input   66.30 | X-H torsion
[ 10763 10752 10751 10750 ] final -165.85 input  -60.55 | X-H torsion
[ 11005 11000 10999 10996 ] final  171.47 input  -57.11 | X-H torsion

> <Gold.Protein.ActiveResidues>
 VAL166  LYS551  ARG553  GLY616  TRP617  ASP618  TYR619  PRO620  LYS621  CYS622 
 ASP623  PHE694  ASN695  SER759  ASP760  ASP761  ALA762  ILE779  LEU786  VAL792 
 PHE793  MET794  SER795  GLU796  ALA797  LYS798  CYS799  TRP800  GLU811  SER814 

> <Gold.Protein.RotatedAtoms>
  152.4886  134.4523  159.9578 H   0  0  0  0  0  0  0  0  0  0  0  0  # atno 6907 bound_to 6896
  151.4514  133.3610  159.2803 H   0  0  0  0  0  0  0  0  0  0  0  0  # atno 6908 bound_to 6896
  150.9019  134.8456  159.7426 H   0  0  0  0  0  0  0  0  0  0  0  0  # atno 6909 bound_to 6896
  145.6201  139.2384  143.2143 H   0  0  0  0  0  0  0  0  0  0  0  0  # atno 7974 bound_to 7965
  155.8557  140.0970  157.1646 H   0  0  0  0  0  0  0  0  0  0  0  0  # atno 8008 bound_to 7997
  154.3987  140.1374  156.3961 H   0  0  0  0  0  0  0  0  0  0  0  0  # atno 8009 bound_to 7997
  155.7912  140.3455  155.5353 H   0  0  0  0  0  0  0  0  0  0  0  0  # atno 8010 bound_to 7997
  139.4840  144.4631  151.8678 H   0  0  0  0  0  0  0  0  0  0  0  0  # atno 10167 bound_to 10162
  156.4117  130.4409  149.7247 H   0  0  0  0  0  0  0  0  0  0  0  0  # atno 10718 bound_to 10713
  154.6891  135.2967  154.9505 H   0  0  0  0  0  0  0  0  0  0  0  0  # atno 10763 bound_to 10752
  154.0474  135.6649  153.4800 H   0  0  0  0  0  0  0  0  0  0  0  0  # atno 10764 bound_to 10752
  153.0599  135.5121  154.7974 H   0  0  0  0  0  0  0  0  0  0  0  0  # atno 10765 bound_to 10752
  140.3194  134.7450  157.4052 H   0  0  0  0  0  0  0  0  0  0  0  0  # atno 11005 bound_to 11000
  146.1437  140.7022  142.9355 LP  0  0  0  0  0  0  0  0  0  0  0  0  # atno 17320 bound_to 7965
  144.7234  140.4448  143.6991 LP  0  0  0  0  0  0  0  0  0  0  0  0  # atno 17321 bound_to 7965
  140.4094  144.2389  150.5889 LP  0  0  0  0  0  0  0  0  0  0  0  0  # atno 17342 bound_to 10162
  140.4981  143.2326  151.8720 LP  0  0  0  0  0  0  0  0  0  0  0  0  # atno 17343 bound_to 10162
  156.4224  130.7775  151.2792 LP  0  0  0  0  0  0  0  0  0  0  0  0  # atno 17370 bound_to 10713
  157.7507  131.0179  150.3603 LP  0  0  0  0  0  0  0  0  0  0  0  0  # atno 17371 bound_to 10713
  140.0955  134.5543  155.8402 LP  0  0  0  0  0  0  0  0  0  0  0  0  # atno 17394 bound_to 11000
  141.2090  133.6679  156.6409 LP  0  0  0  0  0  0  0  0  0  0  0  0  # atno 17395 bound_to 11000

$$$$
