AV-unprocessed.smi:949|AV-procd|sdf|4248|dock2
  -GOLD-   22720 2153D 1   1.00000     0.00000
 Structure written by MMmdl.
 32 33  0  0  0  0  0  0  0  0  1 V2000
  151.5781  140.8951  156.4508 C   0  0  0  0  0  0  0  0  0  0  0  0
  150.2941  141.5736  156.9617 C   0  0  2  0  0  0  0  0  0  0  0  0
  149.4798  142.0344  155.8421 N   0  0  0  0  0  0  0  0  0  0  0  0
  148.7837  141.1604  154.9880 C   0  0  0  0  0  0  0  0  0  0  0  0
  149.2035  139.8311  154.7433 C   0  0  0  0  0  0  0  0  0  0  0  0
  148.4429  139.0253  153.8736 C   0  0  0  0  0  0  0  0  0  0  0  0
  147.3238  139.4511  153.2533 N   0  0  0  0  0  0  0  0  0  0  0  0
  146.9218  140.7174  153.4863 C   0  0  0  0  0  0  0  0  0  0  0  0
  147.6074  141.6092  154.3379 C   0  0  0  0  0  0  0  0  0  0  0  0
  147.1135  142.9037  154.5180 N   0  0  0  0  0  0  0  0  0  0  0  0
  150.6253  142.7523  157.8982 C   0  0  1  0  0  0  0  0  0  0  0  0
  151.5518  142.3925  159.0629 C   0  0  0  0  0  0  0  0  0  0  0  0
  152.1925  143.7251  159.3733 C   0  0  0  0  0  0  0  0  0  0  0  0
  152.3876  144.2999  157.9753 C   0  0  0  0  0  0  0  0  0  0  0  0
  151.3221  143.7757  157.1876 O   0  0  0  0  0  0  0  0  0  0  0  0
  152.1786  140.5143  157.2772 H   0  0  0  0  0  0  0  0  0  0  0  0
  152.1973  141.5936  155.8870 H   0  0  0  0  0  0  0  0  0  0  0  0
  151.3569  140.0507  155.7983 H   0  0  0  0  0  0  0  0  0  0  0  0
  149.7189  140.8523  157.5419 H   0  0  0  0  0  0  0  0  0  0  0  0
  149.4113  143.0287  155.6817 H   0  0  0  0  0  0  0  0  0  0  0  0
  150.0886  139.4152  155.1988 H   0  0  0  0  0  0  0  0  0  0  0  0
  148.7435  138.0081  153.6711 H   0  0  0  0  0  0  0  0  0  0  0  0
  146.0220  141.0279  152.9755 H   0  0  0  0  0  0  0  0  0  0  0  0
  147.5861  143.5608  155.1222 H   0  0  0  0  0  0  0  0  0  0  0  0
  146.1820  143.1525  154.2185 H   0  0  0  0  0  0  0  0  0  0  0  0
  149.7085  143.1920  158.2942 H   0  0  0  0  0  0  0  0  0  0  0  0
  151.0200  141.9666  159.9142 H   0  0  0  0  0  0  0  0  0  0  0  0
  152.3135  141.6789  158.7447 H   0  0  0  0  0  0  0  0  0  0  0  0
  151.5045  144.3484  159.9461 H   0  0  0  0  0  0  0  0  0  0  0  0
  153.1240  143.6363  159.9326 H   0  0  0  0  0  0  0  0  0  0  0  0
  152.3910  145.3901  157.9686 H   0  0  0  0  0  0  0  0  0  0  0  0
  153.3315  143.9549  157.5511 H   0  0  0  0  0  0  0  0  0  0  0  0
  1  2  1  0  0  0  0
  1 16  1  0  0  0  0
  1 17  1  0  0  0  0
  1 18  1  0  0  0  0
  2  3  1  0  0  0  0
  2 11  1  0  0  0  0
  2 19  1  0  0  0  0
  3  4  1  0  0  0  0
  3 20  1  0  0  0  0
  4  9  1  0  0  0  0
  4  5  2  0  0  0  0
  5  6  1  0  0  0  0
  5 21  1  0  0  0  0
  6  7  2  0  0  0  0
  6 22  1  0  0  0  0
  7  8  1  0  0  0  0
  8  9  2  0  0  0  0
  8 23  1  0  0  0  0
  9 10  1  0  0  0  0
 10 24  1  0  0  0  0
 10 25  1  0  0  0  0
 11 15  1  0  0  0  0
 11 12  1  0  0  0  0
 11 26  1  0  0  0  0
 12 13  1  0  0  0  0
 12 27  1  0  0  0  0
 12 28  1  0  0  0  0
 13 14  1  0  0  0  0
 13 29  1  0  0  0  0
 13 30  1  0  0  0  0
 14 15  1  0  0  0  0
 14 31  1  0  0  0  0
 14 32  1  0  0  0  0
M  END
> <s_m_source_file>
AV-unprocessed.smi

> <i_m_source_file_index>
949

> <i_lp_mmshare_version>
43012

> <i_f3d_flags>
0

> <s_epik_input>
TzFbQ0gyXVtDSDJdW0NIMl1bQ0BIXTFbQ0BIXShbQ0gzXSlbTkhdYzJbY0hdW2NIXW5bY0hdYzJbTkgyXQ==

> <s_epik_cmdline>
J2VwaWtfcHl0aG9uJywgJy1waCcsICc3LjAnLCAnLXRuJywgJzgnLCAnLW1hJywgJzIwMCcsICctbWV0YWxfYmluZGluZycsICctaW1hZScsICc8aW5maWxlLm1hZT4nLCAnLW9tYWUnLCAnPG91dGZpbGUubWFlPic=

> <r_epik_Ionization_Penalty>
3.88091

> <r_epik_Ionization_Penalty_Charging>
0

> <r_epik_Ionization_Penalty_Neutral>
3.88091

> <r_epik_State_Penalty>
3.88049

> <r_epik_Charging_Adjusted_Penalty>
3.88049

> <i_epik_Tot_Q>
0

> <i_epik_Tot_abs_Q>
0

> <r_epik_Metal_State_Penalty>
0.313783

> <b_epik_Metal_Only>
1

> <s_lp_Force_Field>
OPLS_2005

> <r_lp_Energy>
23.3824

> <b_lp_Chiralities_Consistent>
1

> <s_lp_Variant>
AV-unprocessed.smi:949-7

> <Gold.Version>
5.8.1

> <Gold.Id.Protein>
6NUR|6NUR_protein|mol2

> <Gold.PLP.Fitness>
41.3611

> <Gold.PLP.PLP>
-30.1689

> <Gold.PLP.part.hbond>
-2.0000

> <Gold.PLP.part.metal>
0.0000

> <Gold.PLP.part.buried>
-4.7436

> <Gold.PLP.part.nonpolar>
-26.0283

> <Gold.PLP.part.repulsive>
2.0344

> <Gold.PLP.ligand.clash>
0.0000

> <Gold.PLP.ligand.torsion>
0.3195

> <Gold.PLP.Chemscore.Hbond>
1.9500

> <Gold.PLP.Chemscore.CHOScore>
1.9895

> <Gold.PLP.Chemscore.Metal>
0.0000

> <Gold.Chemscore.Hbonds>
donor molecule, donor type, donor heavy atom, donor atom, acceptor molecule, acceptor atom, score
      L1  H     3    20       P1  8028  1.00
      L1  H    10    24       P1  8028  0.80
      L1  C     6    22       P1  7948  1.00
      L1  C     8    23       P1 10175  1.00

> <Gold.PLP.Chemscore.Internal.Correction>
0.0127

> <Gold.Rescore>
     Score         DG    S(hbond)    S(metal)    S(lipo)     H(rot)  DE(clash)    DE(int)     intcor
     17.84     -18.49       1.80        0.00      86.55       1.22       0.34       0.31       ----

> <Gold.Chemscore.Fitness>
17.8403

> <Gold.Chemscore.DG>
-18.4937

> <Gold.Chemscore.ZeroCoef>
-5.4800

> <Gold.Chemscore.Hbond>
1.7971

> <Gold.Chemscore.Metal>
0.0000

> <Gold.Chemscore.Lipo>
86.5517

> <Gold.Chemscore.Internal_Hbond>
0.0000

> <Gold.Chemscore.DEClash>
0.3396

> <Gold.Chemscore.DEInternal>
0.3138

> <Gold.Chemscore.Rot>
1.2169

> <Gold.Chemscore.Internal.Correction>
   9.000000E+99

> <Gold.Chemscore.Hbonds>
donor molecule, donor type, donor heavy atom, donor atom, acceptor molecule, acceptor atom, score
      L1  H     3    20       P1  8028  1.00
      L1  H    10    24       P1  8028  0.12

> <Gold.Chemscore.Hbond.Weighted>
-6.0023

> <Gold.Chemscore.Metal.Weighted>
-0.0000

> <Gold.Chemscore.Lipo.Weighted>
-10.1266

> <Gold.Chemscore.Internal_Hbond.Weighted>
0.0000

> <Gold.Chemscore.DEClash.Weighted>
0.3396

> <Gold.Chemscore.DEInternal.Weighted>
0.3138

> <Gold.Chemscore.Rot.Weighted>
3.1152

> <Gold.Chemscore.Internal.Correction.Weighted>
   9.000000E+99

> <Gold.Protein.RotatedTorsions>
[ 6907 6896 6895 6894 ] final   70.47 input  -60.11 | X-H torsion
[ 7974 7965 7964 7962 ] final  104.02 input  175.53 | X-H torsion
[ 8008 7997 7996 7995 ] final  163.42 input   59.86 | X-H torsion
[ 10167 10162 10161 10158 ] final   31.75 input  -65.29 | X-H torsion
[ 10718 10713 10712 10709 ] final  -50.73 input   66.30 | X-H torsion
[ 10763 10752 10751 10750 ] final  148.61 input  -60.55 | X-H torsion
[ 11005 11000 10999 10996 ] final  -41.13 input  -57.11 | X-H torsion

> <Gold.Protein.ActiveResidues>
 VAL166  LYS551  ARG553  GLY616  TRP617  ASP618  TYR619  PRO620  LYS621  CYS622 
 ASP623  PHE694  ASN695  SER759  ASP760  ASP761  ALA762  ILE779  LEU786  VAL792 
 PHE793  MET794  SER795  GLU796  ALA797  LYS798  CYS799  TRP800  GLU811  SER814 

> <Gold.Protein.RotatedAtoms>
  152.4751  134.4863  159.9681 H   0  0  0  0  0  0  0  0  0  0  0  0  # atno 6907 bound_to 6896
  151.4881  133.3525  159.2857 H   0  0  0  0  0  0  0  0  0  0  0  0  # atno 6908 bound_to 6896
  150.8785  134.8199  159.7269 H   0  0  0  0  0  0  0  0  0  0  0  0  # atno 6909 bound_to 6896
  145.3382  139.2469  143.3624 H   0  0  0  0  0  0  0  0  0  0  0  0  # atno 7974 bound_to 7965
  156.1958  140.1724  156.8001 H   0  0  0  0  0  0  0  0  0  0  0  0  # atno 8008 bound_to 7997
  154.5528  140.0714  156.8726 H   0  0  0  0  0  0  0  0  0  0  0  0  # atno 8009 bound_to 7997
  155.2996  140.3360  155.4250 H   0  0  0  0  0  0  0  0  0  0  0  0  # atno 8010 bound_to 7997
  140.4561  144.0977  150.6202 H   0  0  0  0  0  0  0  0  0  0  0  0  # atno 10167 bound_to 10162
  156.1774  130.4150  149.9557 H   0  0  0  0  0  0  0  0  0  0  0  0  # atno 10718 bound_to 10713
  154.0576  135.2876  155.3330 H   0  0  0  0  0  0  0  0  0  0  0  0  # atno 10763 bound_to 10752
  154.6829  135.5256  153.8290 H   0  0  0  0  0  0  0  0  0  0  0  0  # atno 10764 bound_to 10752
  153.0535  135.6586  154.0767 H   0  0  0  0  0  0  0  0  0  0  0  0  # atno 10765 bound_to 10752
  141.0224  133.6856  156.2416 H   0  0  0  0  0  0  0  0  0  0  0  0  # atno 11005 bound_to 11000
  146.3018  140.3974  142.8701 LP  0  0  0  0  0  0  0  0  0  0  0  0  # atno 17320 bound_to 7965
  144.8811  140.7401  143.5986 LP  0  0  0  0  0  0  0  0  0  0  0  0  # atno 17321 bound_to 7965
  140.4150  143.2639  151.9786 LP  0  0  0  0  0  0  0  0  0  0  0  0  # atno 17342 bound_to 10162
  139.4801  144.5882  151.7817 LP  0  0  0  0  0  0  0  0  0  0  0  0  # atno 17343 bound_to 10162
  156.7338  130.9053  151.3627 LP  0  0  0  0  0  0  0  0  0  0  0  0  # atno 17370 bound_to 10713
  157.6845  130.9172  150.0351 LP  0  0  0  0  0  0  0  0  0  0  0  0  # atno 17371 bound_to 10713
  140.6549  134.5028  157.5580 LP  0  0  0  0  0  0  0  0  0  0  0  0  # atno 17394 bound_to 11000
  139.9154  134.8256  156.1383 LP  0  0  0  0  0  0  0  0  0  0  0  0  # atno 17395 bound_to 11000

$$$$
