AV-unprocessed.smi:2032|AV-procd|sdf|8234|dock10
  -GOLD-   2272010503D 1   1.00000     0.00000
 Structure written by MMmdl.
 42 43  0  0  0  0  0  0  0  0  1 V2000
  150.7030  142.2087  156.2152 C   0  0  0  0  0  0  0  0  0  0  0  0
  150.1951  140.7918  155.9275 C   0  0  1  0  0  0  0  0  0  0  0  0
  148.8788  140.7980  155.1269 C   0  0  0  0  0  0  0  0  0  0  0  0
  148.4148  139.4514  154.7745 N   0  0  0  0  0  0  0  0  0  0  0  0
  147.1668  139.4677  153.9755 C   0  0  1  0  0  0  0  0  0  0  0  0
  147.4295  139.6422  152.4580 C   0  0  0  0  0  0  0  0  0  0  0  0
  146.2808  138.2053  154.1858 C   0  0  0  0  0  0  0  0  0  0  0  0
  146.5385  137.1461  153.2137 N   0  0  0  0  0  0  0  0  0  0  0  0
  145.6179  136.2882  152.7502 C   0  0  0  0  0  0  0  0  0  0  0  0
  144.4360  136.3099  153.0954 O   0  0  0  0  0  0  0  0  0  0  0  0
  146.1569  135.4207  151.8758 N   0  0  0  0  0  0  0  0  0  0  0  0
  145.5172  134.3562  151.1878 C   0  0  0  0  0  0  0  0  0  0  0  0
  144.1925  134.2429  151.0360 N   0  0  0  0  0  0  0  0  0  0  0  0
  143.8431  133.0953  150.3197 C   0  0  0  0  0  0  0  0  0  0  0  0
  144.9218  132.3407  149.9312 C   0  0  0  0  0  0  0  0  0  0  0  0
  146.4288  133.0469  150.4507 S   0  0  0  0  0  0  0  0  0  0  0  0
  149.5115  138.7652  154.0822 C   0  0  0  0  0  0  0  0  0  0  0  0
  150.8258  138.7633  154.8857 C   0  0  1  0  0  0  0  0  0  0  0  0
  151.9760  138.1135  154.1094 C   0  0  0  0  0  0  0  0  0  0  0  0
  151.1921  140.1043  155.1832 O   0  0  0  0  0  0  0  0  0  0  0  0
  149.9785  142.7739  156.8020 H   0  0  0  0  0  0  0  0  0  0  0  0
  150.8867  142.7573  155.2910 H   0  0  0  0  0  0  0  0  0  0  0  0
  151.6366  142.1809  156.7777 H   0  0  0  0  0  0  0  0  0  0  0  0
  150.0424  140.2763  156.8773 H   0  0  0  0  0  0  0  0  0  0  0  0
  148.1419  141.3089  155.7425 H   0  0  0  0  0  0  0  0  0  0  0  0
  149.0045  141.3930  154.2208 H   0  0  0  0  0  0  0  0  0  0  0  0
  146.5795  140.3293  154.2963 H   0  0  0  0  0  0  0  0  0  0  0  0
  146.5144  139.5968  151.8688 H   0  0  0  0  0  0  0  0  0  0  0  0
  148.0987  138.8674  152.0825 H   0  0  0  0  0  0  0  0  0  0  0  0
  147.8691  140.6105  152.2228 H   0  0  0  0  0  0  0  0  0  0  0  0
  146.4459  137.7983  155.1838 H   0  0  0  0  0  0  0  0  0  0  0  0
  145.2181  138.4328  154.1199 H   0  0  0  0  0  0  0  0  0  0  0  0
  147.4858  137.0598  152.8757 H   0  0  0  0  0  0  0  0  0  0  0  0
  147.1432  135.5260  151.6895 H   0  0  0  0  0  0  0  0  0  0  0  0
  142.7993  132.8912  150.1317 H   0  0  0  0  0  0  0  0  0  0  0  0
  144.9213  131.4163  149.3731 H   0  0  0  0  0  0  0  0  0  0  0  0
  149.2519  137.7248  153.8951 H   0  0  0  0  0  0  0  0  0  0  0  0
  149.6802  139.2299  153.1096 H   0  0  0  0  0  0  0  0  0  0  0  0
  150.6828  138.2180  155.8203 H   0  0  0  0  0  0  0  0  0  0  0  0
  151.7464  137.0767  153.8627 H   0  0  0  0  0  0  0  0  0  0  0  0
  152.8947  138.1198  154.6961 H   0  0  0  0  0  0  0  0  0  0  0  0
  152.1726  138.6442  153.1773 H   0  0  0  0  0  0  0  0  0  0  0  0
  1  2  1  0  0  0  0
  1 21  1  0  0  0  0
  1 22  1  0  0  0  0
  1 23  1  0  0  0  0
  2 20  1  0  0  0  0
  2  3  1  0  0  0  0
  2 24  1  0  0  0  0
  3  4  1  0  0  0  0
  3 25  1  0  0  0  0
  3 26  1  0  0  0  0
  4  5  1  0  0  0  0
  4 17  1  0  0  0  0
  5  6  1  0  0  0  0
  5  7  1  0  0  0  0
  5 27  1  0  0  0  0
  6 28  1  0  0  0  0
  6 29  1  0  0  0  0
  6 30  1  0  0  0  0
  7  8  1  0  0  0  0
  7 31  1  0  0  0  0
  7 32  1  0  0  0  0
  8  9  1  0  0  0  0
  8 33  1  0  0  0  0
  9 10  2  0  0  0  0
  9 11  1  0  0  0  0
 11 12  1  0  0  0  0
 11 34  1  0  0  0  0
 12 16  1  0  0  0  0
 12 13  2  0  0  0  0
 13 14  1  0  0  0  0
 14 15  2  0  0  0  0
 14 35  1  0  0  0  0
 15 16  1  0  0  0  0
 15 36  1  0  0  0  0
 17 18  1  0  0  0  0
 17 37  1  0  0  0  0
 17 38  1  0  0  0  0
 18 19  1  0  0  0  0
 18 20  1  0  0  0  0
 18 39  1  0  0  0  0
 19 40  1  0  0  0  0
 19 41  1  0  0  0  0
 19 42  1  0  0  0  0
M  END
> <s_m_source_file>
AV-unprocessed.smi

> <i_m_source_file_index>
2032

> <i_lp_mmshare_version>
43012

> <i_f3d_flags>
0

> <s_epik_input>
W0NIM11bQ0BASF0xW0NIMl1OKFtDSDJdW0NASF0oTzEpW0NIM10pW0NASF0oW0NIM10pW0NIMl1bTkhdQyg9TylbTkhdYzJuW2NIXVtjSF1zMg==

> <s_epik_cmdline>
J2VwaWtfcHl0aG9uJywgJy1waCcsICc3LjAnLCAnLXRuJywgJzgnLCAnLW1hJywgJzIwMCcsICctbWV0YWxfYmluZGluZycsICctaW1hZScsICc8aW5maWxlLm1hZT4nLCAnLW9tYWUnLCAnPG91dGZpbGUubWFlPic=

> <r_lp_tautomer_probability>
0.999

> <r_epik_Ionization_Penalty>
0.219202

> <r_epik_Ionization_Penalty_Charging>
0

> <r_epik_Ionization_Penalty_Neutral>
0.219202

> <r_epik_State_Penalty>
0.209349

> <r_epik_Charging_Adjusted_Penalty>
0.209349

> <i_epik_Tot_Q>
0

> <i_epik_Tot_abs_Q>
0

> <r_epik_Metal_State_Penalty>
0.247737

> <b_epik_Metal_Only>
0

> <s_lp_Force_Field>
OPLS_2005

> <r_lp_Energy>
24.906

> <b_lp_Chiralities_Consistent>
1

> <s_lp_Variant>
AV-unprocessed.smi:2032-4

> <Gold.Version>
5.8.1

> <Gold.Id.Protein>
6NUR|6NUR_protein|mol2

> <Gold.PLP.Fitness>
41.0530

> <Gold.PLP.PLP>
-31.4951

> <Gold.PLP.part.hbond>
-3.0000

> <Gold.PLP.part.metal>
0.0000

> <Gold.PLP.part.buried>
-1.1027

> <Gold.PLP.part.nonpolar>
-27.9597

> <Gold.PLP.part.repulsive>
0.4424

> <Gold.PLP.ligand.clash>
0.0000

> <Gold.PLP.ligand.torsion>
1.2348

> <Gold.PLP.Chemscore.Hbond>
3.0000

> <Gold.PLP.Chemscore.CHOScore>
1.0000

> <Gold.PLP.Chemscore.Metal>
0.0000

> <Gold.Chemscore.Hbonds>
donor molecule, donor type, donor heavy atom, donor atom, acceptor molecule, acceptor atom, score
      L1  H     8    33       P1  7948  1.00
      L1  H    11    34       P1  7948  1.00
      P1  H  7989  7998       L1    20  1.00
      L1  C    14    35       P1 10186  1.00

> <Gold.PLP.Chemscore.Internal.Correction>
0.0275

> <Gold.Rescore>
     Score         DG    S(hbond)    S(metal)    S(lipo)     H(rot)  DE(clash)    DE(int)     intcor
     15.84     -19.60       2.38        0.00      87.12       1.57       1.50       2.26       ----

> <Gold.Chemscore.Fitness>
15.8411

> <Gold.Chemscore.DG>
-19.5994

> <Gold.Chemscore.ZeroCoef>
-5.4800

> <Gold.Chemscore.Hbond>
2.3827

> <Gold.Chemscore.Metal>
0.0000

> <Gold.Chemscore.Lipo>
87.1212

> <Gold.Chemscore.Internal_Hbond>
0.0000

> <Gold.Chemscore.DEClash>
1.4986

> <Gold.Chemscore.DEInternal>
2.2597

> <Gold.Chemscore.Rot>
1.5750

> <Gold.Chemscore.Internal.Correction>
   9.000000E+99

> <Gold.Chemscore.Hbonds>
donor molecule, donor type, donor heavy atom, donor atom, acceptor molecule, acceptor atom, score
      L1  H     8    33       P1  7948  0.97
      L1  H    11    34       P1  7948  0.99
      P1  H  7989  7998       L1    20  0.46

> <Gold.Chemscore.Hbond.Weighted>
-7.9582

> <Gold.Chemscore.Metal.Weighted>
-0.0000

> <Gold.Chemscore.Lipo.Weighted>
-10.1932

> <Gold.Chemscore.Internal_Hbond.Weighted>
0.0000

> <Gold.Chemscore.DEClash.Weighted>
1.4986

> <Gold.Chemscore.DEInternal.Weighted>
2.2597

> <Gold.Chemscore.Rot.Weighted>
4.0319

> <Gold.Chemscore.Internal.Correction.Weighted>
   9.000000E+99

> <Gold.Protein.RotatedTorsions>
[ 6907 6896 6895 6894 ] final  129.12 input  -60.11 | X-H torsion
[ 7974 7965 7964 7962 ] final -116.03 input  175.53 | X-H torsion
[ 8008 7997 7996 7995 ] final   43.68 input   59.86 | X-H torsion
[ 10167 10162 10161 10158 ] final -174.59 input  -65.29 | X-H torsion
[ 10718 10713 10712 10709 ] final   54.08 input   66.30 | X-H torsion
[ 10763 10752 10751 10750 ] final  119.21 input  -60.55 | X-H torsion
[ 11005 11000 10999 10996 ] final   -4.17 input  -57.11 | X-H torsion

> <Gold.Protein.ActiveResidues>
 VAL166  LYS551  ARG553  GLY616  TRP617  ASP618  TYR619  PRO620  LYS621  CYS622 
 ASP623  PHE694  ASN695  SER759  ASP760  ASP761  ALA762  ILE779  LEU786  VAL792 
 PHE793  MET794  SER795  GLU796  ALA797  LYS798  CYS799  TRP800  GLU811  SER814 

> <Gold.Protein.RotatedAtoms>
  152.3654  133.6350  159.6046 H   0  0  0  0  0  0  0  0  0  0  0  0  # atno 6907 bound_to 6896
  150.7630  133.9356  159.3449 H   0  0  0  0  0  0  0  0  0  0  0  0  # atno 6908 bound_to 6896
  151.7187  135.0899  160.0331 H   0  0  0  0  0  0  0  0  0  0  0  0  # atno 6909 bound_to 6896
  145.1015  140.8555  143.3923 H   0  0  0  0  0  0  0  0  0  0  0  0  # atno 7974 bound_to 7965
  155.3068  140.3388  155.4245 H   0  0  0  0  0  0  0  0  0  0  0  0  # atno 8008 bound_to 7997
  156.1975  140.1720  156.8006 H   0  0  0  0  0  0  0  0  0  0  0  0  # atno 8009 bound_to 7997
  154.5517  140.0704  156.8662 H   0  0  0  0  0  0  0  0  0  0  0  0  # atno 8010 bound_to 7997
  139.5625  144.1834  152.1262 H   0  0  0  0  0  0  0  0  0  0  0  0  # atno 10167 bound_to 10162
  157.5225  130.8574  149.8577 H   0  0  0  0  0  0  0  0  0  0  0  0  # atno 10718 bound_to 10713
  153.5795  135.3486  155.2869 H   0  0  0  0  0  0  0  0  0  0  0  0  # atno 10763 bound_to 10752
  154.8670  135.4178  154.2636 H   0  0  0  0  0  0  0  0  0  0  0  0  # atno 10764 bound_to 10752
  153.3419  135.7050  153.6930 H   0  0  0  0  0  0  0  0  0  0  0  0  # atno 10765 bound_to 10752
  140.6773  133.9184  155.8532 H   0  0  0  0  0  0  0  0  0  0  0  0  # atno 11005 bound_to 11000
  145.0950  139.2863  143.5715 LP  0  0  0  0  0  0  0  0  0  0  0  0  # atno 17320 bound_to 7965
  146.3529  140.0499  142.8636 LP  0  0  0  0  0  0  0  0  0  0  0  0  # atno 17321 bound_to 7965
  140.1350  144.5253  150.6779 LP  0  0  0  0  0  0  0  0  0  0  0  0  # atno 17342 bound_to 10162
  140.6906  143.2374  151.5140 LP  0  0  0  0  0  0  0  0  0  0  0  0  # atno 17343 bound_to 10162
  156.0363  130.3750  150.1551 LP  0  0  0  0  0  0  0  0  0  0  0  0  # atno 17370 bound_to 10713
  156.9739  130.9843  151.3453 LP  0  0  0  0  0  0  0  0  0  0  0  0  # atno 17371 bound_to 10713
  141.0345  134.0709  157.3975 LP  0  0  0  0  0  0  0  0  0  0  0  0  # atno 17394 bound_to 11000
  139.8962  135.0145  156.7042 LP  0  0  0  0  0  0  0  0  0  0  0  0  # atno 17395 bound_to 11000

$$$$
