AV-unprocessed.smi:1933|AV-procd|sdf|7816|dock1
  -GOLD-   22720 9563D 1   1.00000     0.00000
 Structure written by MMmdl.
 47 49  0  0  0  0  0  0  0  0  1 V2000
  145.0798  135.6255  153.7678 O   0  0  0  0  0  0  0  0  0  0  0  0
  146.1686  135.7543  153.2074 C   0  0  0  0  0  0  0  0  0  0  0  0
  147.1215  136.6003  153.6240 N   0  0  0  0  0  0  0  0  0  0  0  0
  147.0169  137.4984  154.7707 C   0  0  0  0  0  0  0  0  0  0  0  0
  148.2293  137.3468  155.7281 C   0  0  1  0  0  0  0  0  0  0  0  0
  149.2452  138.5246  155.5915 C   0  0  2  0  0  0  0  0  0  0  0  0
  148.7487  139.9167  155.9950 C   0  0  0  0  0  0  0  0  0  0  0  0
  149.1259  140.8006  154.8073 C   0  0  0  0  0  0  0  0  0  0  0  0
  150.2188  140.1255  154.2077 O   0  0  0  0  0  0  0  0  0  0  0  0
  149.9072  138.7419  154.2201 C   0  0  0  0  0  0  0  0  0  0  0  0
  147.8834  136.9691  157.1141 N   0  0  0  0  0  0  0  0  0  0  0  0
  146.8045  137.7751  157.6822 C   0  0  0  0  0  0  0  0  0  0  0  0
  146.3732  137.2584  159.0641 C   0  0  0  0  0  0  0  0  0  0  0  0
  147.5004  137.2426  159.9330 O   0  0  0  0  0  0  0  0  0  0  0  0
  148.5565  136.4228  159.4439 C   0  0  0  0  0  0  0  0  0  0  0  0
  149.0019  136.9083  158.0529 C   0  0  0  0  0  0  0  0  0  0  0  0
  146.5624  135.0838  152.1103 N   0  0  0  0  0  0  0  0  0  0  0  0
  145.8340  134.1234  151.3590 C   0  0  0  0  0  0  0  0  0  0  0  0
  146.6223  133.2716  150.5522 C   0  0  0  0  0  0  0  0  0  0  0  0
  145.9951  132.2851  149.7666 C   0  0  0  0  0  0  0  0  0  0  0  0
  144.5937  132.1758  149.8076 C   0  0  0  0  0  0  0  0  0  0  0  0
  143.8834  133.0631  150.6371 C   0  0  0  0  0  0  0  0  0  0  0  0
  144.4825  134.0090  151.3910 N   0  0  0  0  0  0  0  0  0  0  0  0
  147.9844  136.6355  153.1011 H   0  0  0  0  0  0  0  0  0  0  0  0
  146.9207  138.5359  154.4483 H   0  0  0  0  0  0  0  0  0  0  0  0
  146.0844  137.2483  155.2746 H   0  0  0  0  0  0  0  0  0  0  0  0
  148.7873  136.4935  155.3396 H   0  0  0  0  0  0  0  0  0  0  0  0
  150.0681  138.3020  156.2730 H   0  0  0  0  0  0  0  0  0  0  0  0
  147.6825  139.9786  156.2102 H   0  0  0  0  0  0  0  0  0  0  0  0
  149.2748  140.2486  156.8908 H   0  0  0  0  0  0  0  0  0  0  0  0
  148.3035  140.8608  154.0933 H   0  0  0  0  0  0  0  0  0  0  0  0
  149.3934  141.8143  155.1056 H   0  0  0  0  0  0  0  0  0  0  0  0
  150.8105  138.1446  154.0957 H   0  0  0  0  0  0  0  0  0  0  0  0
  149.2485  138.5120  153.3854 H   0  0  0  0  0  0  0  0  0  0  0  0
  147.1205  138.8127  157.7877 H   0  0  0  0  0  0  0  0  0  0  0  0
  145.9443  137.7731  157.0120 H   0  0  0  0  0  0  0  0  0  0  0  0
  145.6051  137.9049  159.4884 H   0  0  0  0  0  0  0  0  0  0  0  0
  145.9454  136.2575  158.9883 H   0  0  0  0  0  0  0  0  0  0  0  0
  149.3914  136.4611  160.1435 H   0  0  0  0  0  0  0  0  0  0  0  0
  148.2251  135.3840  159.3989 H   0  0  0  0  0  0  0  0  0  0  0  0
  149.7612  136.2190  157.6940 H   0  0  0  0  0  0  0  0  0  0  0  0
  149.4702  137.8885  158.1463 H   0  0  0  0  0  0  0  0  0  0  0  0
  147.4882  135.2909  151.7666 H   0  0  0  0  0  0  0  0  0  0  0  0
  147.6980  133.3695  150.5323 H   0  0  0  0  0  0  0  0  0  0  0  0
  146.5799  131.6245  149.1438 H   0  0  0  0  0  0  0  0  0  0  0  0
  144.0768  131.4320  149.2194 H   0  0  0  0  0  0  0  0  0  0  0  0
  142.8064  133.0124  150.6979 H   0  0  0  0  0  0  0  0  0  0  0  0
  1  2  2  0  0  0  0
  2  3  1  0  0  0  0
  2 17  1  0  0  0  0
  3  4  1  0  0  0  0
  3 24  1  0  0  0  0
  4  5  1  0  0  0  0
  4 25  1  0  0  0  0
  4 26  1  0  0  0  0
  5  6  1  0  0  0  0
  5 11  1  0  0  0  0
  5 27  1  0  0  0  0
  6 10  1  0  0  0  0
  6  7  1  0  0  0  0
  6 28  1  0  0  0  0
  7  8  1  0  0  0  0
  7 29  1  0  0  0  0
  7 30  1  0  0  0  0
  8  9  1  0  0  0  0
  8 31  1  0  0  0  0
  8 32  1  0  0  0  0
  9 10  1  0  0  0  0
 10 33  1  0  0  0  0
 10 34  1  0  0  0  0
 11 16  1  0  0  0  0
 11 12  1  0  0  0  0
 12 13  1  0  0  0  0
 12 35  1  0  0  0  0
 12 36  1  0  0  0  0
 13 14  1  0  0  0  0
 13 37  1  0  0  0  0
 13 38  1  0  0  0  0
 14 15  1  0  0  0  0
 15 16  1  0  0  0  0
 15 39  1  0  0  0  0
 15 40  1  0  0  0  0
 16 41  1  0  0  0  0
 16 42  1  0  0  0  0
 17 18  1  0  0  0  0
 17 43  1  0  0  0  0
 18 23  1  0  0  0  0
 18 19  2  0  0  0  0
 19 20  1  0  0  0  0
 19 44  1  0  0  0  0
 20 21  2  0  0  0  0
 20 45  1  0  0  0  0
 21 22  1  0  0  0  0
 21 46  1  0  0  0  0
 22 23  2  0  0  0  0
 22 47  1  0  0  0  0
M  END
> <s_m_source_file>
AV-unprocessed.smi

> <i_m_source_file_index>
1933

> <i_lp_mmshare_version>
43012

> <i_f3d_flags>
0

> <s_epik_input>
bjFbY0hdW2NIXVtjSF1bY0hdYzFbTkhdQyg9TylbTkhdW0NIMl1bQ0BIXShbQ0BASF0yW0NIMl1bQ0gyXU9bQ0gyXTIpTjNbQ0gyXVtDSDJdT1tDSDJdW0NIMl0z

> <s_epik_cmdline>
J2VwaWtfcHl0aG9uJywgJy1waCcsICc3LjAnLCAnLXRuJywgJzgnLCAnLW1hJywgJzIwMCcsICctbWV0YWxfYmluZGluZycsICctaW1hZScsICc8aW5maWxlLm1hZT4nLCAnLW9tYWUnLCAnPG91dGZpbGUubWFlPic=

> <r_epik_Ionization_Penalty>
0.125062

> <r_epik_Ionization_Penalty_Charging>
0

> <r_epik_Ionization_Penalty_Neutral>
0.125062

> <r_epik_State_Penalty>
0.114484

> <r_epik_Charging_Adjusted_Penalty>
0.114484

> <i_epik_Tot_Q>
0

> <i_epik_Tot_abs_Q>
0

> <r_epik_Metal_State_Penalty>
0.114484

> <b_epik_Metal_Only>
0

> <s_lp_Force_Field>
OPLS_2005

> <r_lp_Energy>
56.3046

> <b_lp_Chiralities_Consistent>
1

> <s_lp_Variant>
AV-unprocessed.smi:1933-2

> <Gold.Version>
5.8.1

> <Gold.Id.Protein>
6NUR|6NUR_protein|mol2

> <Gold.PLP.Fitness>
43.8540

> <Gold.PLP.PLP>
-31.0064

> <Gold.PLP.part.hbond>
-4.0000

> <Gold.PLP.part.metal>
0.0000

> <Gold.PLP.part.buried>
-5.5812

> <Gold.PLP.part.nonpolar>
-22.6712

> <Gold.PLP.part.repulsive>
1.0842

> <Gold.PLP.ligand.clash>
0.0000

> <Gold.PLP.ligand.torsion>
1.1424

> <Gold.PLP.Chemscore.Hbond>
3.8960

> <Gold.PLP.Chemscore.CHOScore>
1.0000

> <Gold.PLP.Chemscore.Metal>
0.0000

> <Gold.Chemscore.Hbonds>
donor molecule, donor type, donor heavy atom, donor atom, acceptor molecule, acceptor atom, score
      L1  H     3    24       P1  7948  1.00
      L1  H    17    43       P1  7948  1.00
      P1  H  6934  6947       L1    14  0.83
      P1  H  7989  7998       L1     9  1.00
      L1  C    22    47       P1 10186  0.94

> <Gold.PLP.Chemscore.Internal.Correction>
0.4444

> <Gold.Rescore>
     Score         DG    S(hbond)    S(metal)    S(lipo)     H(rot)  DE(clash)    DE(int)     intcor
     18.95     -21.34       3.78        0.00      65.09       1.72       0.01       2.38       ----

> <Gold.Chemscore.Fitness>
18.9520

> <Gold.Chemscore.DG>
-21.3364

> <Gold.Chemscore.ZeroCoef>
-5.4800

> <Gold.Chemscore.Hbond>
3.7826

> <Gold.Chemscore.Metal>
0.0000

> <Gold.Chemscore.Lipo>
65.0933

> <Gold.Chemscore.Internal_Hbond>
0.0000

> <Gold.Chemscore.DEClash>
0.0058

> <Gold.Chemscore.DEInternal>
2.3787

> <Gold.Chemscore.Rot>
1.7161

> <Gold.Chemscore.Internal.Correction>
   9.000000E+99

> <Gold.Chemscore.Hbonds>
donor molecule, donor type, donor heavy atom, donor atom, acceptor molecule, acceptor atom, score
      L1  H     3    24       P1  7948  0.97
      L1  H    17    43       P1  7948  0.91
      P1  H  6934  6947       L1    14  0.17
      P1  H  7989  7998       L1     9  0.95

> <Gold.Chemscore.Hbond.Weighted>
-12.6337

> <Gold.Chemscore.Metal.Weighted>
-0.0000

> <Gold.Chemscore.Lipo.Weighted>
-7.6159

> <Gold.Chemscore.Internal_Hbond.Weighted>
0.0000

> <Gold.Chemscore.DEClash.Weighted>
0.0058

> <Gold.Chemscore.DEInternal.Weighted>
2.3787

> <Gold.Chemscore.Rot.Weighted>
4.3932

> <Gold.Chemscore.Internal.Correction.Weighted>
   9.000000E+99

> <Gold.Protein.RotatedTorsions>
[ 6907 6896 6895 6894 ] final   38.60 input  -60.11 | X-H torsion
[ 7974 7965 7964 7962 ] final    0.34 input  175.53 | X-H torsion
[ 8008 7997 7996 7995 ] final  -18.91 input   59.86 | X-H torsion
[ 10167 10162 10161 10158 ] final  -78.78 input  -65.29 | X-H torsion
[ 10718 10713 10712 10709 ] final -153.67 input   66.30 | X-H torsion
[ 10763 10752 10751 10750 ] final -136.48 input  -60.55 | X-H torsion
[ 11005 11000 10999 10996 ] final  -39.11 input  -57.11 | X-H torsion

> <Gold.Protein.ActiveResidues>
 VAL166  LYS551  ARG553  GLY616  TRP617  ASP618  TYR619  PRO620  LYS621  CYS622 
 ASP623  PHE694  ASN695  SER759  ASP760  ASP761  ALA762  ILE779  LEU786  VAL792 
 PHE793  MET794  SER795  GLU796  ALA797  LYS798  CYS799  TRP800  GLU811  SER814 

> <Gold.Protein.RotatedAtoms>
  152.1586  134.8930  160.0542 H   0  0  0  0  0  0  0  0  0  0  0  0  # atno 6907 bound_to 6896
  151.9934  133.3794  159.4161 H   0  0  0  0  0  0  0  0  0  0  0  0  # atno 6908 bound_to 6896
  150.6885  134.3834  159.5088 H   0  0  0  0  0  0  0  0  0  0  0  0  # atno 6909 bound_to 6896
  146.2433  140.1152  142.8342 H   0  0  0  0  0  0  0  0  0  0  0  0  # atno 7974 bound_to 7965
  154.4873  140.2103  155.9627 H   0  0  0  0  0  0  0  0  0  0  0  0  # atno 8008 bound_to 7997
  156.1254  140.3206  155.8239 H   0  0  0  0  0  0  0  0  0  0  0  0  # atno 8009 bound_to 7997
  155.4392  140.0509  157.3002 H   0  0  0  0  0  0  0  0  0  0  0  0  # atno 8010 bound_to 7997
  140.4652  143.2442  151.8289 H   0  0  0  0  0  0  0  0  0  0  0  0  # atno 10167 bound_to 10162
  156.4890  130.8338  151.2562 H   0  0  0  0  0  0  0  0  0  0  0  0  # atno 10718 bound_to 10713
  154.8683  135.3671  154.5068 H   0  0  0  0  0  0  0  0  0  0  0  0  # atno 10763 bound_to 10752
  153.5706  135.7021  153.5511 H   0  0  0  0  0  0  0  0  0  0  0  0  # atno 10764 bound_to 10752
  153.3546  135.4063  155.1635 H   0  0  0  0  0  0  0  0  0  0  0  0  # atno 10765 bound_to 10752
  141.0078  133.6923  156.2143 H   0  0  0  0  0  0  0  0  0  0  0  0  # atno 11005 bound_to 11000
  145.0453  140.8977  143.5028 LP  0  0  0  0  0  0  0  0  0  0  0  0  # atno 17320 bound_to 7965
  145.1240  139.2675  143.5574 LP  0  0  0  0  0  0  0  0  0  0  0  0  # atno 17321 bound_to 7965
  139.4811  144.4960  151.9123 LP  0  0  0  0  0  0  0  0  0  0  0  0  # atno 17342 bound_to 10162
  140.4045  144.2450  150.5891 LP  0  0  0  0  0  0  0  0  0  0  0  0  # atno 17343 bound_to 10162
  157.7476  131.0020  150.2983 LP  0  0  0  0  0  0  0  0  0  0  0  0  # atno 17370 bound_to 10713
  156.3446  130.3821  149.7380 LP  0  0  0  0  0  0  0  0  0  0  0  0  # atno 17371 bound_to 10713
  140.6784  134.4793  157.5588 LP  0  0  0  0  0  0  0  0  0  0  0  0  # atno 17394 bound_to 11000
  139.9073  134.8421  156.1659 LP  0  0  0  0  0  0  0  0  0  0  0  0  # atno 17395 bound_to 11000

$$$$
