AV-unprocessed.smi:1413|AV-procd|sdf|5753|dock1
  -GOLD-   22720 5393D 1   1.00000     0.00000
 Structure written by MMmdl.
 53 55  0  0  0  0  0  0  0  0  1 V2000
  151.3550  144.6796  158.2779 C   0  0  0  0  0  0  0  0  0  0  0  0
  152.1264  143.3559  158.2760 C   0  0  2  0  0  0  0  0  0  0  0  0
  151.3049  142.2084  157.6588 C   0  0  0  0  0  0  0  0  0  0  0  0
  152.0264  140.9442  157.7763 N   0  0  0  0  0  0  0  0  0  0  0  0
  151.5177  139.8754  157.0060 C   0  0  0  0  0  0  0  0  0  0  0  0
  151.2318  138.6310  157.6150 C   0  0  0  0  0  0  0  0  0  0  0  0
  150.7336  137.5781  156.8246 C   0  0  0  0  0  0  0  0  0  0  0  0
  150.5347  137.7838  155.4459 C   0  0  0  0  0  0  0  0  0  0  0  0
  150.0211  136.7017  154.6805 N   0  0  0  0  0  0  0  0  0  0  0  0
  149.7171  135.4552  155.0812 C   0  0  0  0  0  0  0  0  0  0  0  0
  149.8401  135.0231  156.2268 O   0  0  0  0  0  0  0  0  0  0  0  0
  149.2398  134.7263  154.0626 N   0  0  0  0  0  0  0  0  0  0  0  0
  148.7912  133.3388  154.1499 C   0  0  2  0  0  0  0  0  0  0  0  0
  149.9861  132.4361  154.5022 C   0  0  0  0  0  0  0  0  0  0  0  0
  148.1228  132.9381  152.8202 C   0  0  1  0  0  0  0  0  0  0  0  0
  147.4224  131.5772  152.8447 C   0  0  0  0  0  0  0  0  0  0  0  0
  146.3687  131.7484  151.7756 C   0  0  0  0  0  0  0  0  0  0  0  0
  145.9371  133.1918  152.0055 C   0  0  0  0  0  0  0  0  0  0  0  0
  147.0966  133.8710  152.4789 O   0  0  0  0  0  0  0  0  0  0  0  0
  150.8292  139.0673  154.9275 C   0  0  0  0  0  0  0  0  0  0  0  0
  151.3056  140.0796  155.6826 N   0  0  0  0  0  0  0  0  0  0  0  0
  152.4651  140.6574  159.1408 C   0  0  0  0  0  0  0  0  0  0  0  0
  153.2509  141.8500  159.7179 C   0  0  2  0  0  0  0  0  0  0  0  0
  153.6197  141.6367  161.1899 C   0  0  0  0  0  0  0  0  0  0  0  0
  152.4531  143.0267  159.6234 O   0  0  0  0  0  0  0  0  0  0  0  0
  151.0895  144.9802  157.2638 H   0  0  0  0  0  0  0  0  0  0  0  0
  151.9538  145.4788  158.7152 H   0  0  0  0  0  0  0  0  0  0  0  0
  150.4338  144.5991  158.8554 H   0  0  0  0  0  0  0  0  0  0  0  0
  153.0478  143.4940  157.7074 H   0  0  0  0  0  0  0  0  0  0  0  0
  150.3477  142.1126  158.1731 H   0  0  0  0  0  0  0  0  0  0  0  0
  151.0827  142.4507  156.6207 H   0  0  0  0  0  0  0  0  0  0  0  0
  151.3743  138.4759  158.6738 H   0  0  0  0  0  0  0  0  0  0  0  0
  150.5089  136.6227  157.2761 H   0  0  0  0  0  0  0  0  0  0  0  0
  149.8062  136.9191  153.7185 H   0  0  0  0  0  0  0  0  0  0  0  0
  149.1650  135.1679  153.1581 H   0  0  0  0  0  0  0  0  0  0  0  0
  148.0447  133.2517  154.9417 H   0  0  0  0  0  0  0  0  0  0  0  0
  149.6804  131.3959  154.6141 H   0  0  0  0  0  0  0  0  0  0  0  0
  150.4450  132.7399  155.4437 H   0  0  0  0  0  0  0  0  0  0  0  0
  150.7545  132.4760  153.7295 H   0  0  0  0  0  0  0  0  0  0  0  0
  148.8551  132.9467  152.0108 H   0  0  0  0  0  0  0  0  0  0  0  0
  148.0998  130.7461  152.6456 H   0  0  0  0  0  0  0  0  0  0  0  0
  146.9448  131.4054  153.8106 H   0  0  0  0  0  0  0  0  0  0  0  0
  146.8153  131.6397  150.7863 H   0  0  0  0  0  0  0  0  0  0  0  0
  145.5460  131.0383  151.8632 H   0  0  0  0  0  0  0  0  0  0  0  0
  145.5396  133.6578  151.1037 H   0  0  0  0  0  0  0  0  0  0  0  0
  145.1693  133.2398  152.7788 H   0  0  0  0  0  0  0  0  0  0  0  0
  150.6710  139.3200  153.8913 H   0  0  0  0  0  0  0  0  0  0  0  0
  151.5928  140.4460  159.7610 H   0  0  0  0  0  0  0  0  0  0  0  0
  153.0977  139.7688  159.1527 H   0  0  0  0  0  0  0  0  0  0  0  0
  154.1704  141.9945  159.1475 H   0  0  0  0  0  0  0  0  0  0  0  0
  154.2402  140.7489  161.3145 H   0  0  0  0  0  0  0  0  0  0  0  0
  152.7284  141.5115  161.8053 H   0  0  0  0  0  0  0  0  0  0  0  0
  154.1765  142.4891  161.5798 H   0  0  0  0  0  0  0  0  0  0  0  0
  1  2  1  0  0  0  0
  1 26  1  0  0  0  0
  1 27  1  0  0  0  0
  1 28  1  0  0  0  0
  2 25  1  0  0  0  0
  2  3  1  0  0  0  0
  2 29  1  0  0  0  0
  3  4  1  0  0  0  0
  3 30  1  0  0  0  0
  3 31  1  0  0  0  0
  4  5  1  0  0  0  0
  4 22  1  0  0  0  0
  5 21  1  0  0  0  0
  5  6  2  0  0  0  0
  6  7  1  0  0  0  0
  6 32  1  0  0  0  0
  7  8  2  0  0  0  0
  7 33  1  0  0  0  0
  8  9  1  0  0  0  0
  8 20  1  0  0  0  0
  9 10  1  0  0  0  0
  9 34  1  0  0  0  0
 10 11  2  0  0  0  0
 10 12  1  0  0  0  0
 12 13  1  0  0  0  0
 12 35  1  0  0  0  0
 13 14  1  0  0  0  0
 13 15  1  0  0  0  0
 13 36  1  0  0  0  0
 14 37  1  0  0  0  0
 14 38  1  0  0  0  0
 14 39  1  0  0  0  0
 15 19  1  0  0  0  0
 15 16  1  0  0  0  0
 15 40  1  0  0  0  0
 16 17  1  0  0  0  0
 16 41  1  0  0  0  0
 16 42  1  0  0  0  0
 17 18  1  0  0  0  0
 17 43  1  0  0  0  0
 17 44  1  0  0  0  0
 18 19  1  0  0  0  0
 18 45  1  0  0  0  0
 18 46  1  0  0  0  0
 20 21  2  0  0  0  0
 20 47  1  0  0  0  0
 22 23  1  0  0  0  0
 22 48  1  0  0  0  0
 22 49  1  0  0  0  0
 23 24  1  0  0  0  0
 23 25  1  0  0  0  0
 23 50  1  0  0  0  0
 24 51  1  0  0  0  0
 24 52  1  0  0  0  0
 24 53  1  0  0  0  0
M  END
> <s_m_source_file>
AV-unprocessed.smi

> <i_m_source_file_index>
1413

> <i_lp_mmshare_version>
43012

> <i_f3d_flags>
0

> <s_epik_input>
W0NIM11bQ0BASF0xW0NIMl1OKFtDSDJdW0NASF0oTzEpW0NIM10pYzJbY0hdW2NIXWMoW2NIXW4yKVtOSF1DKD1PKVtOSF1bQ0BIXShbQ0gzXSlbQ0BASF0zW0NIMl1bQ0gyXVtDSDJdTzM=

> <s_epik_cmdline>
J2VwaWtfcHl0aG9uJywgJy1waCcsICc3LjAnLCAnLXRuJywgJzgnLCAnLW1hJywgJzIwMCcsICctbWV0YWxfYmluZGluZycsICctaW1hZScsICc8aW5maWxlLm1hZT4nLCAnLW9tYWUnLCAnPG91dGZpbGUubWFlPic=

> <r_lp_tautomer_probability>
1

> <r_epik_Ionization_Penalty>
0.00271172

> <r_epik_Ionization_Penalty_Charging>
0

> <r_epik_Ionization_Penalty_Neutral>
0.00271172

> <r_epik_State_Penalty>
0.00186503

> <r_epik_Charging_Adjusted_Penalty>
0.00186503

> <i_epik_Tot_Q>
0

> <i_epik_Tot_abs_Q>
0

> <r_epik_Metal_State_Penalty>
-0

> <b_epik_Metal_Only>
0

> <s_lp_Force_Field>
OPLS_2005

> <r_lp_Energy>
33.9013

> <b_lp_Chiralities_Consistent>
1

> <s_lp_Variant>
AV-unprocessed.smi:1413-6

> <Gold.Version>
5.8.1

> <Gold.Id.Protein>
6NUR|6NUR_protein|mol2

> <Gold.PLP.Fitness>
48.9449

> <Gold.PLP.PLP>
-43.9049

> <Gold.PLP.part.hbond>
-2.2220

> <Gold.PLP.part.metal>
0.0000

> <Gold.PLP.part.buried>
-7.0655

> <Gold.PLP.part.nonpolar>
-35.5054

> <Gold.PLP.part.repulsive>
0.7697

> <Gold.PLP.ligand.clash>
0.0000

> <Gold.PLP.ligand.torsion>
0.2604

> <Gold.PLP.Chemscore.Hbond>
1.7363

> <Gold.PLP.Chemscore.CHOScore>
0.0000

> <Gold.PLP.Chemscore.Metal>
0.0000

> <Gold.Chemscore.Hbonds>
donor molecule, donor type, donor heavy atom, donor atom, acceptor molecule, acceptor atom, score
      L1  H     9    34       P1  7948  0.74
      L1  H    12    35       P1  7948  0.80

> <Gold.PLP.Chemscore.Internal.Correction>
0.3518

> <Gold.Rescore>
     Score         DG    S(hbond)    S(metal)    S(lipo)     H(rot)  DE(clash)    DE(int)     intcor
     18.51     -20.22       1.56        0.00     111.00       1.35       0.06       1.65       ----

> <Gold.Chemscore.Fitness>
18.5056

> <Gold.Chemscore.DG>
-20.2210

> <Gold.Chemscore.ZeroCoef>
-5.4800

> <Gold.Chemscore.Hbond>
1.5577

> <Gold.Chemscore.Metal>
0.0000

> <Gold.Chemscore.Lipo>
110.9993

> <Gold.Chemscore.Internal_Hbond>
0.0000

> <Gold.Chemscore.DEClash>
0.0643

> <Gold.Chemscore.DEInternal>
1.6512

> <Gold.Chemscore.Rot>
1.3471

> <Gold.Chemscore.Internal.Correction>
   9.000000E+99

> <Gold.Chemscore.Hbonds>
donor molecule, donor type, donor heavy atom, donor atom, acceptor molecule, acceptor atom, score
      L1  H     9    34       P1  7948  0.39
      L1  H    12    35       P1  7948  0.12

> <Gold.Chemscore.Hbond.Weighted>
-5.2026

> <Gold.Chemscore.Metal.Weighted>
-0.0000

> <Gold.Chemscore.Lipo.Weighted>
-12.9869

> <Gold.Chemscore.Internal_Hbond.Weighted>
0.0000

> <Gold.Chemscore.DEClash.Weighted>
0.0643

> <Gold.Chemscore.DEInternal.Weighted>
1.6512

> <Gold.Chemscore.Rot.Weighted>
3.4485

> <Gold.Chemscore.Internal.Correction.Weighted>
   9.000000E+99

> <Gold.Protein.RotatedTorsions>
[ 6907 6896 6895 6894 ] final -154.74 input  -60.11 | X-H torsion
[ 7974 7965 7964 7962 ] final -141.31 input  175.53 | X-H torsion
[ 8008 7997 7996 7995 ] final  105.40 input   59.86 | X-H torsion
[ 10167 10162 10161 10158 ] final   67.65 input  -65.29 | X-H torsion
[ 10718 10713 10712 10709 ] final  171.23 input   66.30 | X-H torsion
[ 10763 10752 10751 10750 ] final   55.25 input  -60.55 | X-H torsion
[ 11005 11000 10999 10996 ] final  145.83 input  -57.11 | X-H torsion

> <Gold.Protein.ActiveResidues>
 VAL166  LYS551  ARG553  GLY616  TRP617  ASP618  TYR619  PRO620  LYS621  CYS622 
 ASP623  PHE694  ASN695  SER759  ASP760  ASP761  ALA762  ILE779  LEU786  VAL792 
 PHE793  MET794  SER795  GLU796  ALA797  LYS798  CYS799  TRP800  GLU811  SER814 

> <Gold.Protein.RotatedAtoms>
  151.2621  133.4297  159.2616 H   0  0  0  0  0  0  0  0  0  0  0  0  # atno 6907 bound_to 6896
  151.0521  134.9680  159.8227 H   0  0  0  0  0  0  0  0  0  0  0  0  # atno 6908 bound_to 6896
  152.5384  134.2575  159.8975 H   0  0  0  0  0  0  0  0  0  0  0  0  # atno 6909 bound_to 6896
  144.8529  140.6095  143.5378 H   0  0  0  0  0  0  0  0  0  0  0  0  # atno 7974 bound_to 7965
  156.1655  140.3131  155.8882 H   0  0  0  0  0  0  0  0  0  0  0  0  # atno 8008 bound_to 7997
  155.3694  140.0481  157.3062 H   0  0  0  0  0  0  0  0  0  0  0  0  # atno 8009 bound_to 7997
  154.5189  140.2191  155.9025 H   0  0  0  0  0  0  0  0  0  0  0  0  # atno 8010 bound_to 7997
  140.0872  144.5020  150.7123 H   0  0  0  0  0  0  0  0  0  0  0  0  # atno 10167 bound_to 10162
  156.9966  131.0164  151.2842 H   0  0  0  0  0  0  0  0  0  0  0  0  # atno 10718 bound_to 10713
  152.9814  135.5717  154.5035 H   0  0  0  0  0  0  0  0  0  0  0  0  # atno 10763 bound_to 10752
  154.4551  135.2779  155.1755 H   0  0  0  0  0  0  0  0  0  0  0  0  # atno 10764 bound_to 10752
  154.3367  135.6238  153.5630 H   0  0  0  0  0  0  0  0  0  0  0  0  # atno 10765 bound_to 10752
  140.0744  134.9133  157.1398 H   0  0  0  0  0  0  0  0  0  0  0  0  # atno 11005 bound_to 11000
  145.4463  139.1529  143.3942 LP  0  0  0  0  0  0  0  0  0  0  0  0  # atno 17320 bound_to 7965
  146.2800  140.4587  142.8780 LP  0  0  0  0  0  0  0  0  0  0  0  0  # atno 17321 bound_to 7965
  140.7047  143.2460  151.4760 LP  0  0  0  0  0  0  0  0  0  0  0  0  # atno 17342 bound_to 10162
  139.5745  144.1850  152.1884 LP  0  0  0  0  0  0  0  0  0  0  0  0  # atno 17343 bound_to 10162
  157.5420  130.8126  149.8040 LP  0  0  0  0  0  0  0  0  0  0  0  0  # atno 17370 bound_to 10713
  156.0187  130.3804  150.2030 LP  0  0  0  0  0  0  0  0  0  0  0  0  # atno 17371 bound_to 10713
  140.3580  134.2525  155.7190 LP  0  0  0  0  0  0  0  0  0  0  0  0  # atno 17394 bound_to 11000
  141.2024  133.7939  157.0394 LP  0  0  0  0  0  0  0  0  0  0  0  0  # atno 17395 bound_to 11000

$$$$
