AV-unprocessed.smi:249|AV-procd|sdf|1917|dock5
  -GOLD-   2262021 13D 1   1.00000     0.00000
 Structure written by MMmdl.
 64 67  0  0  0  0  0  0  0  0  2 V2000
  153.4238  141.8009  161.6142 C   0  0  0  0  0  0  0  0  0  0  0  0
  152.3871  142.7144  160.9393 C   0  0  0  0  0  0  0  0  0  0  0  0
  152.0181  142.2786  159.5609 N   0  3  1  0  0  0  0  0  0  0  0  0
  151.8442  140.7992  159.4764 C   0  0  0  0  0  0  0  0  0  0  0  0
  151.5947  140.3258  158.0381 C   0  0  0  0  0  0  0  0  0  0  0  0
  150.3605  141.0242  157.4506 C   0  0  2  0  0  0  0  0  0  0  0  0
  150.0556  140.5809  156.0833 N   0  0  0  0  0  0  0  0  0  0  0  0
  149.7562  141.5611  155.0414 C   0  0  0  0  0  0  0  0  0  0  0  0
  150.4490  139.3447  155.6655 C   0  0  0  0  0  0  0  0  0  0  0  0
  151.0385  139.2078  154.4469 N   0  0  0  0  0  0  0  0  0  0  0  0
  151.4241  138.0075  154.0057 C   0  0  0  0  0  0  0  0  0  0  0  0
  151.3236  136.8250  154.6129 N   0  0  0  0  0  0  0  0  0  0  0  0
  150.7460  136.9493  155.8409 C   0  0  0  0  0  0  0  0  0  0  0  0
  150.2806  138.1564  156.4382 C   0  0  0  0  0  0  0  0  0  0  0  0
  149.7585  137.8807  157.6978 N   0  0  0  0  0  0  0  0  0  0  0  0
  149.8965  136.5904  157.8315 C   0  0  0  0  0  0  0  0  0  0  0  0
  150.4999  135.9544  156.7711 N   0  0  0  0  0  0  0  0  0  0  0  0
  150.7742  134.5329  156.6539 C   0  0  0  0  0  0  0  0  0  0  0  0
  149.5269  133.6439  156.3862 C   0  0  2  0  0  0  0  0  0  0  0  0
  149.2798  132.7348  157.6148 C   0  0  0  0  0  0  0  0  0  0  0  0
  150.4552  132.0487  157.9943 O   0  0  0  0  0  0  0  0  0  0  0  0
  149.6396  132.8102  155.0740 C   0  0  2  0  0  0  0  0  0  0  0  0
  149.5155  133.6012  153.7697 C   0  0  0  0  0  0  0  0  0  0  0  0
  148.7883  132.6675  152.7984 C   0  0  0  0  0  0  0  0  0  0  0  0
  148.6317  131.4439  153.4979 O   0  0  0  0  0  0  0  0  0  0  0  0
  148.5467  131.7549  154.8758 C   0  0  0  0  0  0  0  0  0  0  0  0
  150.5589  142.5448  157.5402 C   0  0  0  0  0  0  0  0  0  0  0  0
  150.8356  143.0041  158.9887 C   0  0  2  0  0  0  0  0  0  0  0  0
  150.9971  144.5387  158.9949 C   0  0  0  0  0  0  0  0  0  0  0  0
  153.7759  142.2500  162.5432 H   0  0  0  0  0  0  0  0  0  0  0  0
  154.2933  141.6478  160.9740 H   0  0  0  0  0  0  0  0  0  0  0  0
  153.0139  140.8256  161.8743 H   0  0  0  0  0  0  0  0  0  0  0  0
  151.4917  142.7956  161.5572 H   0  0  0  0  0  0  0  0  0  0  0  0
  152.8395  143.7031  160.9170 H   0  0  0  0  0  0  0  0  0  0  0  0
  152.7307  140.2838  159.8414 H   0  0  0  0  0  0  0  0  0  0  0  0
  151.0165  140.4935  160.1186 H   0  0  0  0  0  0  0  0  0  0  0  0
  152.4780  140.5284  157.4318 H   0  0  0  0  0  0  0  0  0  0  0  0
  151.4568  139.2443  158.0300 H   0  0  0  0  0  0  0  0  0  0  0  0
  149.5041  140.7966  158.0868 H   0  0  0  0  0  0  0  0  0  0  0  0
  148.7021  141.5089  154.7687 H   0  0  0  0  0  0  0  0  0  0  0  0
  150.3538  141.3846  154.1462 H   0  0  0  0  0  0  0  0  0  0  0  0
  149.9635  142.5786  155.3704 H   0  0  0  0  0  0  0  0  0  0  0  0
  151.8785  137.9920  153.0260 H   0  0  0  0  0  0  0  0  0  0  0  0
  149.5732  136.0667  158.7195 H   0  0  0  0  0  0  0  0  0  0  0  0
  151.5089  134.3869  155.8609 H   0  0  0  0  0  0  0  0  0  0  0  0
  151.2664  134.2336  157.5797 H   0  0  0  0  0  0  0  0  0  0  0  0
  148.6529  134.2895  156.2912 H   0  0  0  0  0  0  0  0  0  0  0  0
  148.9701  133.3123  158.4849 H   0  0  0  0  0  0  0  0  0  0  0  0
  148.4887  132.0125  157.4106 H   0  0  0  0  0  0  0  0  0  0  0  0
  150.2425  131.1372  158.1259 H   0  0  0  0  0  0  0  0  0  0  0  0
  150.5983  132.2888  155.0671 H   0  0  0  0  0  0  0  0  0  0  0  0
  148.9301  134.5113  153.9037 H   0  0  0  0  0  0  0  0  0  0  0  0
  150.4928  133.8854  153.3806 H   0  0  0  0  0  0  0  0  0  0  0  0
  147.8059  133.0677  152.5437 H   0  0  0  0  0  0  0  0  0  0  0  0
  149.3437  132.5128  151.8729 H   0  0  0  0  0  0  0  0  0  0  0  0
  148.7044  130.8613  155.4802 H   0  0  0  0  0  0  0  0  0  0  0  0
  147.5572  132.1574  155.1003 H   0  0  0  0  0  0  0  0  0  0  0  0
  151.3851  142.8613  156.9024 H   0  0  0  0  0  0  0  0  0  0  0  0
  149.6676  143.0445  157.1581 H   0  0  0  0  0  0  0  0  0  0  0  0
  149.9640  142.7554  159.5969 H   0  0  0  0  0  0  0  0  0  0  0  0
  150.1996  145.0160  158.4244 H   0  0  0  0  0  0  0  0  0  0  0  0
  151.9448  144.8425  158.5491 H   0  0  0  0  0  0  0  0  0  0  0  0
  150.9381  144.9589  159.9982 H   0  0  0  0  0  0  0  0  0  0  0  0
  152.8033  142.5124  158.9701 H   0  0  0  0  0  0  0  0  0  0  0  0
  1  2  1  0  0  0  0
  1 30  1  0  0  0  0
  1 31  1  0  0  0  0
  1 32  1  0  0  0  0
  2  3  1  0  0  0  0
  2 33  1  0  0  0  0
  2 34  1  0  0  0  0
  3 28  1  0  0  0  0
  3  4  1  0  0  0  0
  3 64  1  0  0  0  0
  4  5  1  0  0  0  0
  4 35  1  0  0  0  0
  4 36  1  0  0  0  0
  5  6  1  0  0  0  0
  5 37  1  0  0  0  0
  5 38  1  0  0  0  0
  6  7  1  0  0  0  0
  6 27  1  0  0  0  0
  6 39  1  0  0  0  0
  7  8  1  0  0  0  0
  7  9  1  0  0  0  0
  8 40  1  0  0  0  0
  8 41  1  0  0  0  0
  8 42  1  0  0  0  0
  9 14  1  0  0  0  0
  9 10  2  0  0  0  0
 10 11  1  0  0  0  0
 11 12  2  0  0  0  0
 11 43  1  0  0  0  0
 12 13  1  0  0  0  0
 13 17  1  0  0  0  0
 13 14  2  0  0  0  0
 14 15  1  0  0  0  0
 15 16  2  0  0  0  0
 16 17  1  0  0  0  0
 16 44  1  0  0  0  0
 17 18  1  0  0  0  0
 18 19  1  0  0  0  0
 18 45  1  0  0  0  0
 18 46  1  0  0  0  0
 19 20  1  0  0  0  0
 19 22  1  0  0  0  0
 19 47  1  0  0  0  0
 20 21  1  0  0  0  0
 20 48  1  0  0  0  0
 20 49  1  0  0  0  0
 21 50  1  0  0  0  0
 22 26  1  0  0  0  0
 22 23  1  0  0  0  0
 22 51  1  0  0  0  0
 23 24  1  0  0  0  0
 23 52  1  0  0  0  0
 23 53  1  0  0  0  0
 24 25  1  0  0  0  0
 24 54  1  0  0  0  0
 24 55  1  0  0  0  0
 25 26  1  0  0  0  0
 26 56  1  0  0  0  0
 26 57  1  0  0  0  0
 27 28  1  0  0  0  0
 27 58  1  0  0  0  0
 27 59  1  0  0  0  0
 28 29  1  0  0  0  0
 28 60  1  0  0  0  0
 29 61  1  0  0  0  0
 29 62  1  0  0  0  0
 29 63  1  0  0  0  0
M  CHG  1   3   1
M  END
> <s_m_source_file>
AV-unprocessed.smi

> <i_m_source_file_index>
249

> <i_lp_mmshare_version>
43012

> <i_f3d_flags>
0

> <s_epik_input>
W0NIM11bQ0gyXU4xW0NIMl1bQ0gyXVtDQEhdKFtDSDJdW0NASF0xW0NIM10pTihbQ0gzXSljKG5bY0hdbjIpYyhjMjMpbltjSF1uM1tDSDJdW0NASF0oW0NIMl1bT0hdKVtDQEBIXTRbQ0gyXVtDSDJdT1tDSDJdNA==

> <s_epik_cmdline>
J2VwaWtfcHl0aG9uJywgJy1waCcsICc3LjAnLCAnLXRuJywgJzgnLCAnLW1hJywgJzIwMCcsICctbWV0YWxfYmluZGluZycsICctaW1hZScsICc8aW5maWxlLm1hZT4nLCAnLW9tYWUnLCAnPG91dGZpbGUubWFlPic=

> <r_lp_tautomer_probability>
1

> <r_epik_Ionization_Penalty>
0.00294688

> <r_epik_Ionization_Penalty_Charging>
0.00169971

> <r_epik_Ionization_Penalty_Neutral>
0.00124717

> <r_epik_State_Penalty>
-0

> <r_epik_Charging_Adjusted_Penalty>
0.00169971

> <i_epik_Tot_Q>
1

> <i_epik_Tot_abs_Q>
1

> <r_epik_Metal_State_Penalty>
-0

> <b_epik_Metal_Only>
0

> <s_lp_Force_Field>
OPLS_2005

> <r_lp_Energy>
53.9477

> <b_lp_Chiralities_Consistent>
1

> <s_lp_Variant>
AV-unprocessed.smi:249-20

> <Gold.Version>
5.8.1

> <Gold.Id.Protein>
6NUR|6NUR_protein|mol2

> <Gold.PLP.Fitness>
53.0564

> <Gold.PLP.PLP>
-45.6061

> <Gold.PLP.part.hbond>
-3.0000

> <Gold.PLP.part.metal>
0.0000

> <Gold.PLP.part.buried>
-4.8364

> <Gold.PLP.part.nonpolar>
-38.5903

> <Gold.PLP.part.repulsive>
0.4795

> <Gold.PLP.ligand.clash>
0.0393

> <Gold.PLP.ligand.torsion>
2.2655

> <Gold.PLP.Chemscore.Hbond>
2.9913

> <Gold.PLP.Chemscore.CHOScore>
0.7637

> <Gold.PLP.Chemscore.Metal>
0.0000

> <Gold.Chemscore.Hbonds>
donor molecule, donor type, donor heavy atom, donor atom, acceptor molecule, acceptor atom, score
      P1  H  6896  6908       L1    21  1.00
      P1  H  7989  7998       L1    10  1.00
      P1  H 10752 10763       L1    12  1.00
      L1  C    11    43       P1  7949  0.57

> <Gold.PLP.Chemscore.Internal.Correction>
0.7557

> <Gold.Rescore>
     Score         DG    S(hbond)    S(metal)    S(lipo)     H(rot)  DE(clash)    DE(int)     intcor
     18.03     -20.38       2.70        0.00     108.17       2.65       0.18       2.16       ----

> <Gold.Chemscore.Fitness>
18.0313

> <Gold.Chemscore.DG>
-20.3772

> <Gold.Chemscore.ZeroCoef>
-5.4800

> <Gold.Chemscore.Hbond>
2.7033

> <Gold.Chemscore.Metal>
0.0000

> <Gold.Chemscore.Lipo>
108.1722

> <Gold.Chemscore.Internal_Hbond>
0.0000

> <Gold.Chemscore.DEClash>
0.1824

> <Gold.Chemscore.DEInternal>
2.1636

> <Gold.Chemscore.Rot>
2.6515

> <Gold.Chemscore.Internal.Correction>
   9.000000E+99

> <Gold.Chemscore.Hbonds>
donor molecule, donor type, donor heavy atom, donor atom, acceptor molecule, acceptor atom, score
      P1  H  6896  6908       L1    21  0.46
      P1  H  7989  7998       L1    10  0.91
      P1  H 10752 10763       L1    12  0.84

> <Gold.Chemscore.Hbond.Weighted>
-9.0290

> <Gold.Chemscore.Metal.Weighted>
-0.0000

> <Gold.Chemscore.Lipo.Weighted>
-12.6561

> <Gold.Chemscore.Internal_Hbond.Weighted>
0.0000

> <Gold.Chemscore.DEClash.Weighted>
0.1824

> <Gold.Chemscore.DEInternal.Weighted>
2.1636

> <Gold.Chemscore.Rot.Weighted>
6.7880

> <Gold.Chemscore.Internal.Correction.Weighted>
   9.000000E+99

> <Gold.Protein.RotatedTorsions>
[ 6907 6896 6895 6894 ] final   71.25 input  -60.11 | X-H torsion
[ 7974 7965 7964 7962 ] final   47.86 input  175.53 | X-H torsion
[ 8008 7997 7996 7995 ] final -170.34 input   59.86 | X-H torsion
[ 10167 10162 10161 10158 ] final -101.48 input  -65.29 | X-H torsion
[ 10718 10713 10712 10709 ] final   -6.40 input   66.30 | X-H torsion
[ 10763 10752 10751 10750 ] final   48.45 input  -60.55 | X-H torsion
[ 11005 11000 10999 10996 ] final  123.20 input  -57.11 | X-H torsion

> <Gold.Protein.ActiveResidues>
 VAL166  LYS551  ARG553  GLY616  TRP617  ASP618  TYR619  PRO620  LYS621  CYS622 
 ASP623  PHE694  ASN695  SER759  ASP760  ASP761  ALA762  ILE779  LEU786  VAL792 
 PHE793  MET794  SER795  GLU796  ALA797  LYS798  CYS799  TRP800  GLU811  SER814 

> <Gold.Protein.RotatedAtoms>
  152.4799  134.4748  159.9646 H   0  0  0  0  0  0  0  0  0  0  0  0  # atno 6907 bound_to 6896
  151.4756  133.3552  159.2838 H   0  0  0  0  0  0  0  0  0  0  0  0  # atno 6908 bound_to 6896
  150.8863  134.8287  159.7322 H   0  0  0  0  0  0  0  0  0  0  0  0  # atno 6909 bound_to 6896
  146.0258  139.4705  142.9868 H   0  0  0  0  0  0  0  0  0  0  0  0  # atno 7974 bound_to 7965
  155.9171  140.1067  157.1235 H   0  0  0  0  0  0  0  0  0  0  0  0  # atno 8008 bound_to 7997
  154.4048  140.1263  156.4696 H   0  0  0  0  0  0  0  0  0  0  0  0  # atno 8009 bound_to 7997
  155.7241  140.3469  155.5031 H   0  0  0  0  0  0  0  0  0  0  0  0  # atno 8010 bound_to 7997
  140.2408  143.3540  152.0803 H   0  0  0  0  0  0  0  0  0  0  0  0  # atno 10167 bound_to 10162
  156.7325  130.5184  149.5842 H   0  0  0  0  0  0  0  0  0  0  0  0  # atno 10718 bound_to 10713
  152.9792  135.5944  154.3927 H   0  0  0  0  0  0  0  0  0  0  0  0  # atno 10763 bound_to 10752
  154.3581  135.2767  155.2337 H   0  0  0  0  0  0  0  0  0  0  0  0  # atno 10764 bound_to 10752
  154.4346  135.6028  153.6145 H   0  0  0  0  0  0  0  0  0  0  0  0  # atno 10765 bound_to 10752
  139.9302  134.9641  156.8224 H   0  0  0  0  0  0  0  0  0  0  0  0  # atno 11005 bound_to 11000
  145.7120  141.0103  143.1448 LP  0  0  0  0  0  0  0  0  0  0  0  0  # atno 17320 bound_to 7965
  144.7009  139.8768  143.7444 LP  0  0  0  0  0  0  0  0  0  0  0  0  # atno 17321 bound_to 7965
  139.5078  144.6838  151.5940 LP  0  0  0  0  0  0  0  0  0  0  0  0  # atno 17342 bound_to 10162
  140.6115  143.9428  150.6456 LP  0  0  0  0  0  0  0  0  0  0  0  0  # atno 17343 bound_to 10162
  156.1519  130.6316  151.0607 LP  0  0  0  0  0  0  0  0  0  0  0  0  # atno 17370 bound_to 10713
  157.6853  131.0826  150.7260 LP  0  0  0  0  0  0  0  0  0  0  0  0  # atno 17371 bound_to 10713
  140.6223  133.9982  155.7624 LP  0  0  0  0  0  0  0  0  0  0  0  0  # atno 17394 bound_to 11000
  141.0886  133.9952  157.3274 LP  0  0  0  0  0  0  0  0  0  0  0  0  # atno 17395 bound_to 11000

$$$$
