AV-unprocessed.smi:3112|AV-procd|sdf|11845|dock5
  -GOLD-   2272017223D 1   1.00000     0.00000
 Structure written by MMmdl.
 36 36  0  0  0  0  0  0  0  0  1 V2000
  152.1811  145.0332  159.2525 C   0  0  0  0  0  0  0  0  0  0  0  0
  151.6516  144.3886  160.5406 C   0  0  0  0  0  0  0  0  0  0  0  0
  152.4478  143.1394  160.9680 C   0  0  1  0  0  0  0  0  0  0  0  0
  151.8698  142.5371  162.1089 O   0  0  0  0  0  0  0  0  0  0  0  0
  152.6044  142.0760  159.8645 C   0  0  0  0  0  0  0  0  0  0  0  0
  151.3432  141.3911  159.5667 N   0  0  0  0  0  0  0  0  0  0  0  0
  151.4233  140.3755  158.5124 C   0  0  2  0  0  0  0  0  0  0  0  0
  152.5391  139.3815  158.8866 C   0  0  0  0  0  0  0  0  0  0  0  0
  151.6495  141.0166  157.1099 C   0  0  2  0  0  0  0  0  0  0  0  0
  150.6812  142.1645  156.7686 C   0  0  0  0  0  0  0  0  0  0  0  0
  151.6169  140.0199  156.0460 N   0  0  0  0  0  0  0  0  0  0  0  0
  152.4379  138.9236  155.8783 C   0  0  0  0  0  0  0  0  0  0  0  0
  152.0345  138.2803  154.7435 C   0  0  0  0  0  0  0  0  0  0  0  0
  150.9457  139.0684  154.2773 C   0  0  0  0  0  0  0  0  0  0  0  0
  150.6981  140.1079  155.0571 N   0  0  0  0  0  0  0  0  0  0  0  0
  151.5710  145.8913  158.9700 H   0  0  0  0  0  0  0  0  0  0  0  0
  152.1647  144.3269  158.4221 H   0  0  0  0  0  0  0  0  0  0  0  0
  153.2060  145.3836  159.3754 H   0  0  0  0  0  0  0  0  0  0  0  0
  151.6522  145.1301  161.3403 H   0  0  0  0  0  0  0  0  0  0  0  0
  150.6091  144.1099  160.3833 H   0  0  0  0  0  0  0  0  0  0  0  0
  153.4506  143.4543  161.2586 H   0  0  0  0  0  0  0  0  0  0  0  0
  152.5611  142.1673  162.6360 H   0  0  0  0  0  0  0  0  0  0  0  0
  152.9603  142.5685  158.9589 H   0  0  0  0  0  0  0  0  0  0  0  0
  153.3859  141.3728  160.1446 H   0  0  0  0  0  0  0  0  0  0  0  0
  150.6442  142.0833  159.3176 H   0  0  0  0  0  0  0  0  0  0  0  0
  150.4935  139.8048  158.4906 H   0  0  0  0  0  0  0  0  0  0  0  0
  152.5657  138.5265  158.2109 H   0  0  0  0  0  0  0  0  0  0  0  0
  152.3888  138.9843  159.8911 H   0  0  0  0  0  0  0  0  0  0  0  0
  153.5198  139.8575  158.8618 H   0  0  0  0  0  0  0  0  0  0  0  0
  152.6562  141.4382  157.1009 H   0  0  0  0  0  0  0  0  0  0  0  0
  150.8592  143.0349  157.3991 H   0  0  0  0  0  0  0  0  0  0  0  0
  149.6407  141.8615  156.8884 H   0  0  0  0  0  0  0  0  0  0  0  0
  150.8144  142.4944  155.7377 H   0  0  0  0  0  0  0  0  0  0  0  0
  153.2315  138.6937  156.5741 H   0  0  0  0  0  0  0  0  0  0  0  0
  152.4533  137.3833  154.3120 H   0  0  0  0  0  0  0  0  0  0  0  0
  150.3320  138.9174  153.4016 H   0  0  0  0  0  0  0  0  0  0  0  0
  1  2  1  0  0  0  0
  1 16  1  0  0  0  0
  1 17  1  0  0  0  0
  1 18  1  0  0  0  0
  2  3  1  0  0  0  0
  2 19  1  0  0  0  0
  2 20  1  0  0  0  0
  3  4  1  0  0  0  0
  3  5  1  0  0  0  0
  3 21  1  0  0  0  0
  4 22  1  0  0  0  0
  5  6  1  0  0  0  0
  5 23  1  0  0  0  0
  5 24  1  0  0  0  0
  6  7  1  0  0  0  0
  6 25  1  0  0  0  0
  7  8  1  0  0  0  0
  7  9  1  0  0  0  0
  7 26  1  0  0  0  0
  8 27  1  0  0  0  0
  8 28  1  0  0  0  0
  8 29  1  0  0  0  0
  9 10  1  0  0  0  0
  9 11  1  0  0  0  0
  9 30  1  0  0  0  0
 10 31  1  0  0  0  0
 10 32  1  0  0  0  0
 10 33  1  0  0  0  0
 11 15  1  0  0  0  0
 11 12  1  0  0  0  0
 12 13  2  0  0  0  0
 12 34  1  0  0  0  0
 13 14  1  0  0  0  0
 13 35  1  0  0  0  0
 14 15  2  0  0  0  0
 14 36  1  0  0  0  0
M  END
> <s_m_source_file>
AV-unprocessed.smi

> <i_m_source_file_index>
3112

> <i_lp_mmshare_version>
43012

> <i_f3d_flags>
0

> <s_epik_input>
W0NIM11bQ0gyXVtDQEhdKFtPSF0pW0NIMl1bTkhdW0NASF0oW0NIM10pW0NASF0oW0NIM10pbjFbY0hdW2NIXVtjSF1uMQ==

> <s_epik_cmdline>
J2VwaWtfcHl0aG9uJywgJy1waCcsICc3LjAnLCAnLXRuJywgJzgnLCAnLW1hJywgJzIwMCcsICctbWV0YWxfYmluZGluZycsICctaW1hZScsICc8aW5maWxlLm1hZT4nLCAnLW9tYWUnLCAnPG91dGZpbGUubWFlPic=

> <r_lp_tautomer_probability>
1

> <r_epik_Ionization_Penalty>
2.16876

> <r_epik_Ionization_Penalty_Charging>
0

> <r_epik_Ionization_Penalty_Neutral>
2.16876

> <r_epik_State_Penalty>
2.30854

> <r_epik_Charging_Adjusted_Penalty>
2.30854

> <i_epik_Tot_Q>
0

> <i_epik_Tot_abs_Q>
0

> <r_epik_Metal_State_Penalty>
2.3073

> <b_epik_Metal_Only>
0

> <s_lp_Force_Field>
OPLS_2005

> <r_lp_Energy>
23.3328

> <b_lp_Chiralities_Consistent>
1

> <s_lp_Variant>
AV-unprocessed.smi:3112-10

> <Gold.Version>
5.8.1

> <Gold.Id.Protein>
6NUR|6NUR_protein|mol2

> <Gold.PLP.Fitness>
45.0450

> <Gold.PLP.PLP>
-39.6101

> <Gold.PLP.part.hbond>
-3.6815

> <Gold.PLP.part.metal>
0.0000

> <Gold.PLP.part.buried>
-4.4643

> <Gold.PLP.part.nonpolar>
-31.4437

> <Gold.PLP.part.repulsive>
0.0532

> <Gold.PLP.ligand.clash>
0.0000

> <Gold.PLP.ligand.torsion>
0.2061

> <Gold.PLP.Chemscore.Hbond>
0.8960

> <Gold.PLP.Chemscore.CHOScore>
1.0000

> <Gold.PLP.Chemscore.Metal>
0.0000

> <Gold.Chemscore.Hbonds>
donor molecule, donor type, donor heavy atom, donor atom, acceptor molecule, acceptor atom, score
      P1  H  6933  6945       L1     4  0.94
      L1  C    14    36       P1  7957  0.84

> <Gold.PLP.Chemscore.Internal.Correction>
0.1590

> <Gold.Rescore>
     Score         DG    S(hbond)    S(metal)    S(lipo)     H(rot)  DE(clash)    DE(int)     intcor
     13.22     -13.68       0.90        0.00      95.01       2.31       0.05       0.42       ----

> <Gold.Chemscore.Fitness>
13.2178

> <Gold.Chemscore.DG>
-13.6788

> <Gold.Chemscore.ZeroCoef>
-5.4800

> <Gold.Chemscore.Hbond>
0.8978

> <Gold.Chemscore.Metal>
0.0000

> <Gold.Chemscore.Lipo>
95.0084

> <Gold.Chemscore.Internal_Hbond>
0.0000

> <Gold.Chemscore.DEClash>
0.0451

> <Gold.Chemscore.DEInternal>
0.4160

> <Gold.Chemscore.Rot>
2.3108

> <Gold.Chemscore.Internal.Correction>
   9.000000E+99

> <Gold.Chemscore.Hbonds>
donor molecule, donor type, donor heavy atom, donor atom, acceptor molecule, acceptor atom, score
      P1  H  6933  6945       L1     4  0.87

> <Gold.Chemscore.Hbond.Weighted>
-2.9985

> <Gold.Chemscore.Metal.Weighted>
-0.0000

> <Gold.Chemscore.Lipo.Weighted>
-11.1160

> <Gold.Chemscore.Internal_Hbond.Weighted>
0.0000

> <Gold.Chemscore.DEClash.Weighted>
0.0451

> <Gold.Chemscore.DEInternal.Weighted>
0.4160

> <Gold.Chemscore.Rot.Weighted>
5.9157

> <Gold.Chemscore.Internal.Correction.Weighted>
   9.000000E+99

> <Gold.Protein.RotatedTorsions>
[ 6907 6896 6895 6894 ] final  -26.84 input  -60.11 | X-H torsion
[ 7974 7965 7964 7962 ] final   18.54 input  175.53 | X-H torsion
[ 8008 7997 7996 7995 ] final   74.73 input   59.86 | X-H torsion
[ 10167 10162 10161 10158 ] final   27.23 input  -65.29 | X-H torsion
[ 10718 10713 10712 10709 ] final  -66.00 input   66.30 | X-H torsion
[ 10763 10752 10751 10750 ] final  125.89 input  -60.55 | X-H torsion
[ 11005 11000 10999 10996 ] final  -52.19 input  -57.11 | X-H torsion

> <Gold.Protein.ActiveResidues>
 VAL166  LYS551  ARG553  GLY616  TRP617  ASP618  TYR619  PRO620  LYS621  CYS622 
 ASP623  PHE694  ASN695  SER759  ASP760  ASP761  ALA762  ILE779  LEU786  VAL792 
 PHE793  MET794  SER795  GLU796  ALA797  LYS798  CYS799  TRP800  GLU811  SER814 

> <Gold.Protein.RotatedAtoms>
  151.1552  135.0247  159.8685 H   0  0  0  0  0  0  0  0  0  0  0  0  # atno 6907 bound_to 6896
  152.5452  134.1342  159.8462 H   0  0  0  0  0  0  0  0  0  0  0  0  # atno 6908 bound_to 6896
  151.1432  133.4911  159.2629 H   0  0  0  0  0  0  0  0  0  0  0  0  # atno 6909 bound_to 6896
  146.2181  139.8442  142.8635 H   0  0  0  0  0  0  0  0  0  0  0  0  # atno 7974 bound_to 7965
  155.8026  140.3476  155.5412 H   0  0  0  0  0  0  0  0  0  0  0  0  # atno 8008 bound_to 7997
  155.8522  140.0958  157.1688 H   0  0  0  0  0  0  0  0  0  0  0  0  # atno 8009 bound_to 7997
  154.4008  140.1374  156.3845 H   0  0  0  0  0  0  0  0  0  0  0  0  # atno 8010 bound_to 7997
  140.4956  144.0397  150.6313 H   0  0  0  0  0  0  0  0  0  0  0  0  # atno 10167 bound_to 10162
  156.0637  130.4255  150.1645 H   0  0  0  0  0  0  0  0  0  0  0  0  # atno 10718 bound_to 10713
  153.6845  135.3309  155.3186 H   0  0  0  0  0  0  0  0  0  0  0  0  # atno 10763 bound_to 10752
  154.8457  135.4417  154.1572 H   0  0  0  0  0  0  0  0  0  0  0  0  # atno 10764 bound_to 10752
  153.2597  135.6990  153.7669 H   0  0  0  0  0  0  0  0  0  0  0  0  # atno 10765 bound_to 10752
  141.0911  133.6632  156.3987 H   0  0  0  0  0  0  0  0  0  0  0  0  # atno 11005 bound_to 11000
  145.2868  141.0155  143.3686 LP  0  0  0  0  0  0  0  0  0  0  0  0  # atno 17320 bound_to 7965
  144.9108  139.4531  143.6588 LP  0  0  0  0  0  0  0  0  0  0  0  0  # atno 17321 bound_to 7965
  140.3679  143.2871  152.0311 LP  0  0  0  0  0  0  0  0  0  0  0  0  # atno 17342 bound_to 10162
  139.4860  144.6253  151.7177 LP  0  0  0  0  0  0  0  0  0  0  0  0  # atno 17343 bound_to 10162
  156.9709  130.9834  151.3459 LP  0  0  0  0  0  0  0  0  0  0  0  0  # atno 17370 bound_to 10713
  157.5664  130.8281  149.8333 LP  0  0  0  0  0  0  0  0  0  0  0  0  # atno 17371 bound_to 10713
  140.5250  134.6268  157.5331 LP  0  0  0  0  0  0  0  0  0  0  0  0  # atno 17394 bound_to 11000
  139.9737  134.7250  155.9991 LP  0  0  0  0  0  0  0  0  0  0  0  0  # atno 17395 bound_to 11000

$$$$
