AV-unprocessed.smi:2339|AV-procd|sdf|9340|dock6
  -GOLD-   2272012563D 1   1.00000     0.00000
 Structure written by MMmdl.
 49 52  0  0  0  0  0  0  0  0  1 V2000
  152.3829  132.4231  156.9982 C   0  0  0  0  0  0  0  0  0  0  0  0
  151.6959  131.2451  156.2988 C   0  0  0  0  0  0  0  0  0  0  0  0
  150.6376  131.6912  155.4040 N   0  0  0  0  0  0  0  0  0  0  0  0
  149.8874  130.7836  154.6637 C   0  0  0  0  0  0  0  0  0  0  0  0
  148.9416  131.1364  153.7721 C   0  0  0  0  0  0  0  0  0  0  0  0
  148.6640  132.5681  153.5402 C   0  0  0  0  0  0  0  0  0  0  0  0
  147.8069  132.9248  152.7319 O   0  0  0  0  0  0  0  0  0  0  0  0
  149.4684  133.5390  154.3283 C   0  0  0  0  0  0  0  0  0  0  0  0
  149.1887  134.8974  154.1069 N   0  0  0  0  0  0  0  0  0  0  0  0
  149.1838  135.9294  154.9751 C   0  0  0  0  0  0  0  0  0  0  0  0
  149.4779  135.8611  156.1661 O   0  0  0  0  0  0  0  0  0  0  0  0
  148.8113  137.0974  154.4243 N   0  0  0  0  0  0  0  0  0  0  0  0
  148.6994  138.4010  155.0792 C   0  0  2  0  0  0  0  0  0  0  0  0
  148.2565  139.4934  154.1050 C   0  0  1  0  0  0  0  0  0  0  0  0
  147.0245  140.3113  153.9490 C   0  0  0  0  0  0  0  0  0  0  0  0
  147.7066  141.6934  153.7694 C   0  0  0  0  0  0  0  0  0  0  0  0
  149.1030  141.4925  154.0970 O   0  0  0  0  0  0  0  0  0  0  0  0
  149.0879  140.3978  154.9906 C   0  0  2  0  0  0  0  0  0  0  0  0
  150.0525  139.2084  155.1625 C   0  0  0  0  0  0  0  0  0  0  0  0
  151.1562  138.9911  154.1155 C   0  0  0  0  0  0  0  0  0  0  0  0
  152.1992  138.0748  154.7528 C   0  0  0  0  0  0  0  0  0  0  0  0
  152.1221  138.3539  156.2535 C   0  0  0  0  0  0  0  0  0  0  0  0
  150.8288  139.1474  156.4785 C   0  0  0  0  0  0  0  0  0  0  0  0
  150.3889  133.0463  155.1961 C   0  0  0  0  0  0  0  0  0  0  0  0
  153.1702  132.0715  157.6651 H   0  0  0  0  0  0  0  0  0  0  0  0
  151.6723  132.9962  157.5945 H   0  0  0  0  0  0  0  0  0  0  0  0
  152.8376  133.1000  156.2743 H   0  0  0  0  0  0  0  0  0  0  0  0
  152.4304  130.6692  155.7346 H   0  0  0  0  0  0  0  0  0  0  0  0
  151.2803  130.5643  157.0426 H   0  0  0  0  0  0  0  0  0  0  0  0
  150.1177  129.7471  154.8641 H   0  0  0  0  0  0  0  0  0  0  0  0
  148.3805  130.3953  153.2220 H   0  0  0  0  0  0  0  0  0  0  0  0
  148.9387  135.1208  153.1545 H   0  0  0  0  0  0  0  0  0  0  0  0
  148.5824  137.0793  153.4410 H   0  0  0  0  0  0  0  0  0  0  0  0
  148.1157  138.3933  156.0046 H   0  0  0  0  0  0  0  0  0  0  0  0
  148.7135  139.3357  153.1235 H   0  0  0  0  0  0  0  0  0  0  0  0
  146.4296  140.0216  153.0826 H   0  0  0  0  0  0  0  0  0  0  0  0
  146.3970  140.2779  154.8408 H   0  0  0  0  0  0  0  0  0  0  0  0
  147.6213  142.0605  152.7463 H   0  0  0  0  0  0  0  0  0  0  0  0
  147.2617  142.4352  154.4341 H   0  0  0  0  0  0  0  0  0  0  0  0
  148.5995  140.6712  155.9330 H   0  0  0  0  0  0  0  0  0  0  0  0
  150.7964  138.5668  153.1784 H   0  0  0  0  0  0  0  0  0  0  0  0
  151.6197  139.9470  153.8677 H   0  0  0  0  0  0  0  0  0  0  0  0
  151.9384  137.0335  154.5619 H   0  0  0  0  0  0  0  0  0  0  0  0
  153.1982  138.2400  154.3483 H   0  0  0  0  0  0  0  0  0  0  0  0
  152.1240  137.4231  156.8218 H   0  0  0  0  0  0  0  0  0  0  0  0
  152.9825  138.9374  156.5828 H   0  0  0  0  0  0  0  0  0  0  0  0
  151.0811  140.1554  156.8097 H   0  0  0  0  0  0  0  0  0  0  0  0
  150.2342  138.7049  157.2770 H   0  0  0  0  0  0  0  0  0  0  0  0
  151.0083  133.6732  155.8169 H   0  0  0  0  0  0  0  0  0  0  0  0
  1  2  1  0  0  0  0
  1 25  1  0  0  0  0
  1 26  1  0  0  0  0
  1 27  1  0  0  0  0
  2  3  1  0  0  0  0
  2 28  1  0  0  0  0
  2 29  1  0  0  0  0
  3 24  1  0  0  0  0
  3  4  1  0  0  0  0
  4  5  2  0  0  0  0
  4 30  1  0  0  0  0
  5  6  1  0  0  0  0
  5 31  1  0  0  0  0
  6  7  2  0  0  0  0
  6  8  1  0  0  0  0
  8  9  1  0  0  0  0
  8 24  2  0  0  0  0
  9 10  1  0  0  0  0
  9 32  1  0  0  0  0
 10 11  2  0  0  0  0
 10 12  1  0  0  0  0
 12 13  1  0  0  0  0
 12 33  1  0  0  0  0
 13 19  1  0  0  0  0
 13 14  1  0  0  0  0
 13 34  1  0  0  0  0
 14 18  1  0  0  0  0
 14 15  1  0  0  0  0
 14 35  1  0  0  0  0
 15 16  1  0  0  0  0
 15 36  1  0  0  0  0
 15 37  1  0  0  0  0
 16 17  1  0  0  0  0
 16 38  1  0  0  0  0
 16 39  1  0  0  0  0
 17 18  1  0  0  0  0
 18 19  1  0  0  0  0
 18 40  1  0  0  0  0
 19 23  1  0  0  0  0
 19 20  1  0  0  0  0
 20 21  1  0  0  0  0
 20 41  1  0  0  0  0
 20 42  1  0  0  0  0
 21 22  1  0  0  0  0
 21 43  1  0  0  0  0
 21 44  1  0  0  0  0
 22 23  1  0  0  0  0
 22 45  1  0  0  0  0
 22 46  1  0  0  0  0
 23 47  1  0  0  0  0
 23 48  1  0  0  0  0
 24 49  1  0  0  0  0
M  END
> <s_m_source_file>
AV-unprocessed.smi

> <i_m_source_file_index>
2339

> <i_lp_mmshare_version>
43012

> <i_f3d_flags>
0

> <s_epik_input>
W0NIM11bQ0gyXW4xW2NIXVtjSF1jKD1PKWMoW2NIXTEpW05IXUMoPU8pW05IXVtDQEBIXTJbQ0BASF0oW0NIMl1bQ0gyXU8zKVtDQEBIXTNDMjRbQ0gyXVtDSDJdW0NIMl1bQ0gyXTQ=

> <s_epik_cmdline>
J2VwaWtfcHl0aG9uJywgJy1waCcsICc3LjAnLCAnLXRuJywgJzgnLCAnLW1hJywgJzIwMCcsICctbWV0YWxfYmluZGluZycsICctaW1hZScsICc8aW5maWxlLm1hZT4nLCAnLW9tYWUnLCAnPG91dGZpbGUubWFlPic=

> <r_lp_tautomer_probability>
1

> <r_epik_Ionization_Penalty>
0.00145966

> <r_epik_Ionization_Penalty_Charging>
0.00143969

> <r_epik_Ionization_Penalty_Neutral>
1.99697e-05

> <r_epik_State_Penalty>
0.000961843

> <r_epik_Charging_Adjusted_Penalty>
0.00240153

> <i_epik_Tot_Q>
0

> <i_epik_Tot_abs_Q>
0

> <r_epik_Metal_State_Penalty>
-0

> <b_epik_Metal_Only>
0

> <s_lp_Force_Field>
OPLS_2005

> <r_lp_Energy>
78.6194

> <b_lp_Chiralities_Consistent>
1

> <s_lp_Variant>
AV-unprocessed.smi:2339-5

> <Gold.Version>
5.8.1

> <Gold.Id.Protein>
6NUR|6NUR_protein|mol2

> <Gold.PLP.Fitness>
43.5587

> <Gold.PLP.PLP>
-37.4259

> <Gold.PLP.part.hbond>
-3.5291

> <Gold.PLP.part.metal>
0.0000

> <Gold.PLP.part.buried>
-2.7057

> <Gold.PLP.part.nonpolar>
-30.9074

> <Gold.PLP.part.repulsive>
0.4079

> <Gold.PLP.ligand.clash>
0.0000

> <Gold.PLP.ligand.torsion>
0.4362

> <Gold.PLP.Chemscore.Hbond>
2.2382

> <Gold.PLP.Chemscore.CHOScore>
0.0000

> <Gold.PLP.Chemscore.Metal>
0.0000

> <Gold.Chemscore.Hbonds>
donor molecule, donor type, donor heavy atom, donor atom, acceptor molecule, acceptor atom, score
      L1  H     9    32       P1  7948  0.99
      L1  H    12    33       P1  7948  0.86
      P1  H  8011  8017       L1    17  0.38

> <Gold.PLP.Chemscore.Internal.Correction>
0.2905

> <Gold.Rescore>
     Score         DG    S(hbond)    S(metal)    S(lipo)     H(rot)  DE(clash)    DE(int)     intcor
     17.24     -17.89       1.53        0.00      87.83       1.17       0.13       0.52       ----

> <Gold.Chemscore.Fitness>
17.2390

> <Gold.Chemscore.DG>
-17.8897

> <Gold.Chemscore.ZeroCoef>
-5.4800

> <Gold.Chemscore.Hbond>
1.5331

> <Gold.Chemscore.Metal>
0.0000

> <Gold.Chemscore.Lipo>
87.8345

> <Gold.Chemscore.Internal_Hbond>
0.0000

> <Gold.Chemscore.DEClash>
0.1300

> <Gold.Chemscore.DEInternal>
0.5207

> <Gold.Chemscore.Rot>
1.1670

> <Gold.Chemscore.Internal.Correction>
   9.000000E+99

> <Gold.Chemscore.Hbonds>
donor molecule, donor type, donor heavy atom, donor atom, acceptor molecule, acceptor atom, score
      L1  H     9    32       P1  7948  0.28
      L1  H    12    33       P1  7948  0.85
      P1  H  8011  8017       L1    17  0.04

> <Gold.Chemscore.Hbond.Weighted>
-5.1205

> <Gold.Chemscore.Metal.Weighted>
-0.0000

> <Gold.Chemscore.Lipo.Weighted>
-10.2766

> <Gold.Chemscore.Internal_Hbond.Weighted>
0.0000

> <Gold.Chemscore.DEClash.Weighted>
0.1300

> <Gold.Chemscore.DEInternal.Weighted>
0.5207

> <Gold.Chemscore.Rot.Weighted>
2.9874

> <Gold.Chemscore.Internal.Correction.Weighted>
   9.000000E+99

> <Gold.Protein.RotatedTorsions>
[ 6907 6896 6895 6894 ] final -116.56 input  -60.11 | X-H torsion
[ 7974 7965 7964 7962 ] final -127.56 input  175.53 | X-H torsion
[ 8008 7997 7996 7995 ] final  -78.11 input   59.86 | X-H torsion
[ 10167 10162 10161 10158 ] final -164.64 input  -65.29 | X-H torsion
[ 10718 10713 10712 10709 ] final   31.99 input   66.30 | X-H torsion
[ 10763 10752 10751 10750 ] final -168.16 input  -60.55 | X-H torsion
[ 11005 11000 10999 10996 ] final  179.79 input  -57.11 | X-H torsion

> <Gold.Protein.ActiveResidues>
 VAL166  LYS551  ARG553  GLY616  TRP617  ASP618  TYR619  PRO620  LYS621  CYS622 
 ASP623  PHE694  ASN695  SER759  ASP760  ASP761  ALA762  ILE779  LEU786  VAL792 
 PHE793  MET794  SER795  GLU796  ALA797  LYS798  CYS799  TRP800  GLU811  SER814 

> <Gold.Protein.RotatedAtoms>
  150.8066  133.8500  159.3202 H   0  0  0  0  0  0  0  0  0  0  0  0  # atno 6907 bound_to 6896
  151.6297  135.1022  160.0128 H   0  0  0  0  0  0  0  0  0  0  0  0  # atno 6908 bound_to 6896
  152.4156  133.6993  159.6471 H   0  0  0  0  0  0  0  0  0  0  0  0  # atno 6909 bound_to 6896
  144.9759  140.7592  143.4642 H   0  0  0  0  0  0  0  0  0  0  0  0  # atno 7974 bound_to 7965
  154.5659  140.0699  156.8891 H   0  0  0  0  0  0  0  0  0  0  0  0  # atno 8008 bound_to 7997
  155.2724  140.3366  155.4246 H   0  0  0  0  0  0  0  0  0  0  0  0  # atno 8009 bound_to 7997
  156.2080  140.1748  156.7743 H   0  0  0  0  0  0  0  0  0  0  0  0  # atno 8010 bound_to 7997
  139.6236  144.0575  152.1955 H   0  0  0  0  0  0  0  0  0  0  0  0  # atno 10167 bound_to 10162
  157.2795  130.7248  149.6549 H   0  0  0  0  0  0  0  0  0  0  0  0  # atno 10718 bound_to 10713
  154.6657  135.2931  154.9808 H   0  0  0  0  0  0  0  0  0  0  0  0  # atno 10763 bound_to 10752
  154.0852  135.6598  153.4848 H   0  0  0  0  0  0  0  0  0  0  0  0  # atno 10764 bound_to 10752
  153.0456  135.5207  154.7629 H   0  0  0  0  0  0  0  0  0  0  0  0  # atno 10765 bound_to 10752
  140.4100  134.6700  157.4609 H   0  0  0  0  0  0  0  0  0  0  0  0  # atno 11005 bound_to 11000
  145.2491  139.2039  143.4952 LP  0  0  0  0  0  0  0  0  0  0  0  0  # atno 17320 bound_to 7965
  146.3395  140.2401  142.8595 LP  0  0  0  0  0  0  0  0  0  0  0  0  # atno 17321 bound_to 7965
  140.0223  144.6143  150.7556 LP  0  0  0  0  0  0  0  0  0  0  0  0  # atno 17342 bound_to 10162
  140.7397  143.2795  151.3640 LP  0  0  0  0  0  0  0  0  0  0  0  0  # atno 17343 bound_to 10162
  155.9664  130.4342  150.5040 LP  0  0  0  0  0  0  0  0  0  0  0  0  # atno 17370 bound_to 10713
  157.2981  131.0640  151.2087 LP  0  0  0  0  0  0  0  0  0  0  0  0  # atno 17371 bound_to 10713
  140.0274  134.6456  155.9153 LP  0  0  0  0  0  0  0  0  0  0  0  0  # atno 17394 bound_to 11000
  141.1824  133.6549  156.5077 LP  0  0  0  0  0  0  0  0  0  0  0  0  # atno 17395 bound_to 11000

$$$$
