AV-unprocessed.smi:2604|AV-procd|sdf|10189|dock1
  -GOLD-   2272014203D 1   1.00000     0.00000
 Structure written by MMmdl.
 26 27  0  0  0  0  0  0  0  0  2 V2000
  152.5570  142.7969  159.7979 C   0  0  0  0  0  0  0  0  0  0  0  0
  152.7829  144.1120  159.3461 C   0  0  0  0  0  0  0  0  0  0  0  0
  152.3055  144.5847  158.1747 N   0  0  0  0  0  0  0  0  0  0  0  0
  151.5807  143.7473  157.4026 C   0  0  0  0  0  0  0  0  0  0  0  0
  151.2996  142.4093  157.7555 C   0  0  0  0  0  0  0  0  0  0  0  0
  150.4649  141.5306  156.8381 C   0  0  2  0  0  0  0  0  0  0  0  0
  151.2138  140.2259  156.4825 C   0  0  0  0  0  0  0  0  0  0  0  0
  150.3742  139.3639  155.6258 N   0  3  0  0  0  0  0  0  0  0  0  0
  149.9303  140.0861  154.4175 C   0  0  0  0  0  0  0  0  0  0  0  0
  149.2001  141.3809  154.8175 C   0  0  0  0  0  0  0  0  0  0  0  0
  150.0905  142.2263  155.6066 N   0  0  0  0  0  0  0  0  0  0  0  0
  151.7993  141.9305  158.9869 C   0  0  0  0  0  0  0  0  0  0  0  0
  152.9555  142.4621  160.7442 H   0  0  0  0  0  0  0  0  0  0  0  0
  153.3606  144.8029  159.9421 H   0  0  0  0  0  0  0  0  0  0  0  0
  151.2131  144.1600  156.4745 H   0  0  0  0  0  0  0  0  0  0  0  0
  149.5467  141.2803  157.3722 H   0  0  0  0  0  0  0  0  0  0  0  0
  152.1507  140.4424  155.9671 H   0  0  0  0  0  0  0  0  0  0  0  0
  151.4675  139.6743  157.3883 H   0  0  0  0  0  0  0  0  0  0  0  0
  150.8985  138.5440  155.3558 H   0  0  0  0  0  0  0  0  0  0  0  0
  150.7926  140.3098  153.7876 H   0  0  0  0  0  0  0  0  0  0  0  0
  149.2695  139.4402  153.8387 H   0  0  0  0  0  0  0  0  0  0  0  0
  148.8928  141.9279  153.9259 H   0  0  0  0  0  0  0  0  0  0  0  0
  148.2950  141.1595  155.3850 H   0  0  0  0  0  0  0  0  0  0  0  0
  149.6228  143.0926  155.8359 H   0  0  0  0  0  0  0  0  0  0  0  0
  151.6060  140.9174  159.3084 H   0  0  0  0  0  0  0  0  0  0  0  0
  149.5598  139.0797  156.1508 H   0  0  0  0  0  0  0  0  0  0  0  0
  1 12  1  0  0  0  0
  1  2  2  0  0  0  0
  1 13  1  0  0  0  0
  2  3  1  0  0  0  0
  2 14  1  0  0  0  0
  3  4  2  0  0  0  0
  4  5  1  0  0  0  0
  4 15  1  0  0  0  0
  5  6  1  0  0  0  0
  5 12  2  0  0  0  0
  6 11  1  0  0  0  0
  6  7  1  0  0  0  0
  6 16  1  0  0  0  0
  7  8  1  0  0  0  0
  7 17  1  0  0  0  0
  7 18  1  0  0  0  0
  8  9  1  0  0  0  0
  8 19  1  0  0  0  0
  8 26  1  0  0  0  0
  9 10  1  0  0  0  0
  9 20  1  0  0  0  0
  9 21  1  0  0  0  0
 10 11  1  0  0  0  0
 10 22  1  0  0  0  0
 10 23  1  0  0  0  0
 11 24  1  0  0  0  0
 12 25  1  0  0  0  0
M  CHG  1   8   1
M  END
> <s_m_source_file>
AV-unprocessed.smi

> <i_m_source_file_index>
2604

> <i_lp_mmshare_version>
43012

> <i_f3d_flags>
0

> <s_epik_input>
W2NIXTFbY0hdW2NIXW5bY0hdYzFbQ0BASF0yW0NIMl1bTkhdW0NIMl1bQ0gyXVtOSF0y

> <s_epik_cmdline>
J2VwaWtfcHl0aG9uJywgJy1waCcsICc3LjAnLCAnLXRuJywgJzgnLCAnLW1hJywgJzIwMCcsICctbWV0YWxfYmluZGluZycsICctaW1hZScsICc8aW5maWxlLm1hZT4nLCAnLW9tYWUnLCAnPG91dGZpbGUubWFlPic=

> <r_epik_Ionization_Penalty>
0.0181456

> <r_epik_Ionization_Penalty_Charging>
0.010317

> <r_epik_Ionization_Penalty_Neutral>
0.00782861

> <r_epik_State_Penalty>
0.306622

> <r_epik_Charging_Adjusted_Penalty>
0.316939

> <i_epik_Tot_Q>
1

> <i_epik_Tot_abs_Q>
1

> <r_epik_Metal_State_Penalty>
0.302658

> <b_epik_Metal_Only>
0

> <s_lp_Force_Field>
OPLS_2005

> <r_lp_Energy>
10.6943

> <b_lp_Chiralities_Consistent>
1

> <s_lp_Variant>
AV-unprocessed.smi:2604-1

> <Gold.Version>
5.8.1

> <Gold.Id.Protein>
6NUR|6NUR_protein|mol2

> <Gold.PLP.Fitness>
33.2622

> <Gold.PLP.PLP>
-27.3103

> <Gold.PLP.part.hbond>
-1.0000

> <Gold.PLP.part.metal>
0.0000

> <Gold.PLP.part.buried>
-1.6519

> <Gold.PLP.part.nonpolar>
-23.6538

> <Gold.PLP.part.repulsive>
0.1101

> <Gold.PLP.ligand.clash>
0.0000

> <Gold.PLP.ligand.torsion>
0.0281

> <Gold.PLP.Chemscore.Hbond>
1.0000

> <Gold.PLP.Chemscore.CHOScore>
1.0000

> <Gold.PLP.Chemscore.Metal>
0.0000

> <Gold.Chemscore.Hbonds>
donor molecule, donor type, donor heavy atom, donor atom, acceptor molecule, acceptor atom, score
      L1  H    11    24       P1  8028  1.00
      L1  C     4    15       P1  8028  1.00

> <Gold.PLP.Chemscore.Internal.Correction>
0.0081

> <Gold.Rescore>
     Score         DG    S(hbond)    S(metal)    S(lipo)     H(rot)  DE(clash)    DE(int)     intcor
     15.86     -15.87       1.00        0.00      82.19       1.00       0.00       0.01       ----

> <Gold.Chemscore.Fitness>
15.8594

> <Gold.Chemscore.DG>
-15.8716

> <Gold.Chemscore.ZeroCoef>
-5.4800

> <Gold.Chemscore.Hbond>
0.9986

> <Gold.Chemscore.Metal>
0.0000

> <Gold.Chemscore.Lipo>
82.1916

> <Gold.Chemscore.Internal_Hbond>
0.0000

> <Gold.Chemscore.DEClash>
0.0025

> <Gold.Chemscore.DEInternal>
0.0096

> <Gold.Chemscore.Rot>
1.0000

> <Gold.Chemscore.Internal.Correction>
   9.000000E+99

> <Gold.Chemscore.Hbonds>
donor molecule, donor type, donor heavy atom, donor atom, acceptor molecule, acceptor atom, score
      L1  H    11    24       P1  8028  1.00

> <Gold.Chemscore.Hbond.Weighted>
-3.3352

> <Gold.Chemscore.Metal.Weighted>
-0.0000

> <Gold.Chemscore.Lipo.Weighted>
-9.6164

> <Gold.Chemscore.Internal_Hbond.Weighted>
0.0000

> <Gold.Chemscore.DEClash.Weighted>
0.0025

> <Gold.Chemscore.DEInternal.Weighted>
0.0096

> <Gold.Chemscore.Rot.Weighted>
2.5600

> <Gold.Chemscore.Internal.Correction.Weighted>
   9.000000E+99

> <Gold.Protein.RotatedTorsions>
[ 6907 6896 6895 6894 ] final  132.31 input  -60.11 | X-H torsion
[ 7974 7965 7964 7962 ] final  158.42 input  175.53 | X-H torsion
[ 8008 7997 7996 7995 ] final    3.25 input   59.86 | X-H torsion
[ 10167 10162 10161 10158 ] final   48.33 input  -65.29 | X-H torsion
[ 10718 10713 10712 10709 ] final  -60.53 input   66.30 | X-H torsion
[ 10763 10752 10751 10750 ] final -153.80 input  -60.55 | X-H torsion
[ 11005 11000 10999 10996 ] final  147.52 input  -57.11 | X-H torsion

> <Gold.Protein.ActiveResidues>
 VAL166  LYS551  ARG553  GLY616  TRP617  ASP618  TYR619  PRO620  LYS621  CYS622 
 ASP623  PHE694  ASN695  SER759  ASP760  ASP761  ALA762  ILE779  LEU786  VAL792 
 PHE793  MET794  SER795  GLU796  ALA797  LYS798  CYS799  TRP800  GLU811  SER814 

> <Gold.Protein.RotatedAtoms>
  152.3337  133.5987  159.5827 H   0  0  0  0  0  0  0  0  0  0  0  0  # atno 6907 bound_to 6896
  150.7438  133.9829  159.3591 H   0  0  0  0  0  0  0  0  0  0  0  0  # atno 6908 bound_to 6896
  151.7701  135.0789  160.0409 H   0  0  0  0  0  0  0  0  0  0  0  0  # atno 6909 bound_to 6896
  144.7847  139.7476  143.6246 H   0  0  0  0  0  0  0  0  0  0  0  0  # atno 7974 bound_to 7965
  154.7014  140.2674  155.6716 H   0  0  0  0  0  0  0  0  0  0  0  0  # atno 8008 bound_to 7997
  156.2766  140.2771  156.1550 H   0  0  0  0  0  0  0  0  0  0  0  0  # atno 8009 bound_to 7997
  155.0759  140.0372  157.2614 H   0  0  0  0  0  0  0  0  0  0  0  0  # atno 8010 bound_to 7997
  140.2944  144.3008  150.6233 H   0  0  0  0  0  0  0  0  0  0  0  0  # atno 10167 bound_to 10162
  156.0984  130.4189  150.0867 H   0  0  0  0  0  0  0  0  0  0  0  0  # atno 10718 bound_to 10713
  154.7903  135.3204  154.7793 H   0  0  0  0  0  0  0  0  0  0  0  0  # atno 10763 bound_to 10752
  153.8484  135.6864  153.4799 H   0  0  0  0  0  0  0  0  0  0  0  0  # atno 10764 bound_to 10752
  153.1570  135.4676  154.9658 H   0  0  0  0  0  0  0  0  0  0  0  0  # atno 10765 bound_to 10752
  140.0882  134.9056  157.1609 H   0  0  0  0  0  0  0  0  0  0  0  0  # atno 11005 bound_to 11000
  146.2072  139.5405  142.9704 LP  0  0  0  0  0  0  0  0  0  0  0  0  # atno 17320 bound_to 7965
  145.5955  141.0363  143.2047 LP  0  0  0  0  0  0  0  0  0  0  0  0  # atno 17321 bound_to 7965
  140.5704  143.2181  151.7608 LP  0  0  0  0  0  0  0  0  0  0  0  0  # atno 17342 bound_to 10162
  139.4930  144.4224  151.9963 LP  0  0  0  0  0  0  0  0  0  0  0  0  # atno 17343 bound_to 10162
  156.8860  130.9572  151.3594 LP  0  0  0  0  0  0  0  0  0  0  0  0  # atno 17370 bound_to 10713
  157.6150  130.8611  149.9013 LP  0  0  0  0  0  0  0  0  0  0  0  0  # atno 17371 bound_to 10713
  140.3389  134.2725  155.7215 LP  0  0  0  0  0  0  0  0  0  0  0  0  # atno 17394 bound_to 11000
  141.2069  133.7819  157.0148 LP  0  0  0  0  0  0  0  0  0  0  0  0  # atno 17395 bound_to 11000

$$$$
