AV-unprocessed.smi:2792|AV-procd|sdf|10773|dock9
  -GOLD-   2272015213D 1   1.00000     0.00000
 Structure written by MMmdl.
 44 46  0  0  0  0  0  0  0  0  1 V2000
  148.9527  133.9996  154.5221 C   0  0  0  0  0  0  0  0  0  0  0  0
  150.1742  134.7135  155.1244 C   0  0  0  0  0  0  0  0  0  0  0  0
  150.6190  134.2138  156.5236 C   0  0  2  0  0  0  0  0  0  0  0  0
  150.8888  132.6974  156.5441 C   0  0  0  0  0  0  0  0  0  0  0  0
  149.5607  134.4643  157.4292 O   0  0  0  0  0  0  0  0  0  0  0  0
  151.8775  134.9625  157.0352 C   0  0  0  0  0  0  0  0  0  0  0  0
  151.7177  136.4050  157.1425 N   0  0  0  0  0  0  0  0  0  0  0  0
  151.6690  137.1458  158.3030 C   0  0  0  0  0  0  0  0  0  0  0  0
  151.5218  138.4324  158.1385 N   0  0  0  0  0  0  0  0  0  0  0  0
  151.4512  138.5874  156.7601 C   0  0  0  0  0  0  0  0  0  0  0  0
  151.2976  139.7073  155.9032 C   0  0  0  0  0  0  0  0  0  0  0  0
  151.1843  140.9583  156.4011 N   0  0  0  0  0  0  0  0  0  0  0  0
  150.9421  141.1639  157.8255 C   0  0  0  0  0  0  0  0  0  0  0  0
  151.0728  142.6037  158.2969 C   0  0  0  0  0  0  0  0  0  0  0  0
  152.3262  143.2530  158.2762 C   0  0  0  0  0  0  0  0  0  0  0  0
  152.4400  144.5879  158.7105 C   0  0  0  0  0  0  0  0  0  0  0  0
  151.3020  145.2788  159.1693 C   0  0  0  0  0  0  0  0  0  0  0  0
  150.0503  144.6338  159.1947 C   0  0  0  0  0  0  0  0  0  0  0  0
  149.9363  143.2984  158.7612 C   0  0  0  0  0  0  0  0  0  0  0  0
  151.2591  139.4791  154.5639 N   0  0  0  0  0  0  0  0  0  0  0  0
  151.3738  138.2332  154.0934 C   0  0  0  0  0  0  0  0  0  0  0  0
  151.5290  137.0945  154.7733 N   0  0  0  0  0  0  0  0  0  0  0  0
  151.5651  137.3228  156.1179 C   0  0  0  0  0  0  0  0  0  0  0  0
  148.6641  134.4670  153.5806 H   0  0  0  0  0  0  0  0  0  0  0  0
  148.0913  134.0472  155.1885 H   0  0  0  0  0  0  0  0  0  0  0  0
  149.1611  132.9511  154.3104 H   0  0  0  0  0  0  0  0  0  0  0  0
  151.0080  134.6191  154.4277 H   0  0  0  0  0  0  0  0  0  0  0  0
  149.9434  135.7783  155.1715 H   0  0  0  0  0  0  0  0  0  0  0  0
  151.6549  132.4254  155.8174 H   0  0  0  0  0  0  0  0  0  0  0  0
  149.9938  132.1185  156.3155 H   0  0  0  0  0  0  0  0  0  0  0  0
  151.2364  132.3702  157.5246 H   0  0  0  0  0  0  0  0  0  0  0  0
  148.7483  134.4802  156.9466 H   0  0  0  0  0  0  0  0  0  0  0  0
  152.1753  134.5819  158.0136 H   0  0  0  0  0  0  0  0  0  0  0  0
  152.7192  134.7686  156.3687 H   0  0  0  0  0  0  0  0  0  0  0  0
  151.7562  136.6987  159.2825 H   0  0  0  0  0  0  0  0  0  0  0  0
  151.0371  141.7655  155.8124 H   0  0  0  0  0  0  0  0  0  0  0  0
  149.9562  140.7752  158.0834 H   0  0  0  0  0  0  0  0  0  0  0  0
  151.6612  140.5604  158.3798 H   0  0  0  0  0  0  0  0  0  0  0  0
  153.2035  142.7300  157.9246 H   0  0  0  0  0  0  0  0  0  0  0  0
  153.4001  145.0819  158.6903 H   0  0  0  0  0  0  0  0  0  0  0  0
  151.3888  146.3031  159.5010 H   0  0  0  0  0  0  0  0  0  0  0  0
  149.1769  145.1632  159.5456 H   0  0  0  0  0  0  0  0  0  0  0  0
  148.9724  142.8113  158.7807 H   0  0  0  0  0  0  0  0  0  0  0  0
  151.3356  138.1347  153.0187 H   0  0  0  0  0  0  0  0  0  0  0  0
  1  2  1  0  0  0  0
  1 24  1  0  0  0  0
  1 25  1  0  0  0  0
  1 26  1  0  0  0  0
  2  3  1  0  0  0  0
  2 27  1  0  0  0  0
  2 28  1  0  0  0  0
  3  4  1  0  0  0  0
  3  5  1  0  0  0  0
  3  6  1  0  0  0  0
  4 29  1  0  0  0  0
  4 30  1  0  0  0  0
  4 31  1  0  0  0  0
  5 32  1  0  0  0  0
  6  7  1  0  0  0  0
  6 33  1  0  0  0  0
  6 34  1  0  0  0  0
  7 23  1  0  0  0  0
  7  8  1  0  0  0  0
  8  9  2  0  0  0  0
  8 35  1  0  0  0  0
  9 10  1  0  0  0  0
 10 23  2  0  0  0  0
 10 11  1  0  0  0  0
 11 12  1  0  0  0  0
 11 20  2  0  0  0  0
 12 13  1  0  0  0  0
 12 36  1  0  0  0  0
 13 14  1  0  0  0  0
 13 37  1  0  0  0  0
 13 38  1  0  0  0  0
 14 19  1  0  0  0  0
 14 15  2  0  0  0  0
 15 16  1  0  0  0  0
 15 39  1  0  0  0  0
 16 17  2  0  0  0  0
 16 40  1  0  0  0  0
 17 18  1  0  0  0  0
 17 41  1  0  0  0  0
 18 19  2  0  0  0  0
 18 42  1  0  0  0  0
 19 43  1  0  0  0  0
 20 21  1  0  0  0  0
 21 22  2  0  0  0  0
 21 44  1  0  0  0  0
 22 23  1  0  0  0  0
M  END
> <s_m_source_file>
AV-unprocessed.smi

> <i_m_source_file_index>
2792

> <i_lp_mmshare_version>
43012

> <i_f3d_flags>
0

> <s_epik_input>
W0NIM11bQ0gyXVtDQEBdKFtDSDNdKShbT0hdKVtDSDJdbihbY0hdbjEpYyhjMTIpbltjSF1uYzJbTkhdW0NIMl1jM1tjSF1bY0hdW2NIXVtjSF1bY0hdMw==

> <s_epik_cmdline>
J2VwaWtfcHl0aG9uJywgJy1waCcsICc3LjAnLCAnLXRuJywgJzgnLCAnLW1hJywgJzIwMCcsICctbWV0YWxfYmluZGluZycsICctaW1hZScsICc8aW5maWxlLm1hZT4nLCAnLW9tYWUnLCAnPG91dGZpbGUubWFlPic=

> <r_lp_tautomer_probability>
1

> <r_epik_Ionization_Penalty>
0.00163025

> <r_epik_Ionization_Penalty_Charging>
0

> <r_epik_Ionization_Penalty_Neutral>
0.00163025

> <r_epik_State_Penalty>
-0

> <r_epik_Charging_Adjusted_Penalty>
0

> <i_epik_Tot_Q>
0

> <i_epik_Tot_abs_Q>
0

> <r_epik_Metal_State_Penalty>
-0

> <b_epik_Metal_Only>
0

> <s_lp_Force_Field>
OPLS_2005

> <r_lp_Energy>
12.9035

> <b_lp_Chiralities_Consistent>
1

> <s_lp_Variant>
AV-unprocessed.smi:2792-2

> <Gold.Version>
5.8.1

> <Gold.Id.Protein>
6NUR|6NUR_protein|mol2

> <Gold.PLP.Fitness>
48.1599

> <Gold.PLP.PLP>
-37.2857

> <Gold.PLP.part.hbond>
-3.0000

> <Gold.PLP.part.metal>
0.0000

> <Gold.PLP.part.buried>
-4.1068

> <Gold.PLP.part.nonpolar>
-30.9966

> <Gold.PLP.part.repulsive>
0.3572

> <Gold.PLP.ligand.clash>
0.0000

> <Gold.PLP.ligand.torsion>
0.2090

> <Gold.PLP.Chemscore.Hbond>
2.9120

> <Gold.PLP.Chemscore.CHOScore>
0.8004

> <Gold.PLP.Chemscore.Metal>
0.0000

> <Gold.Chemscore.Hbonds>
donor molecule, donor type, donor heavy atom, donor atom, acceptor molecule, acceptor atom, score
      P1  H  6896  6907       L1     5  0.35
      P1  H  7989  7998       L1    20  1.00
      P1  H 10752 10764       L1    22  0.96
      L1  C    21    44       P1  7949  0.74

> <Gold.PLP.Chemscore.Internal.Correction>
0.1550

> <Gold.Rescore>
     Score         DG    S(hbond)    S(metal)    S(lipo)     H(rot)  DE(clash)    DE(int)     intcor
     15.08     -18.50       2.51        0.00      94.91       2.52       0.46       2.96       ----

> <Gold.Chemscore.Fitness>
15.0827

> <Gold.Chemscore.DG>
-18.5033

> <Gold.Chemscore.ZeroCoef>
-5.4800

> <Gold.Chemscore.Hbond>
2.5099

> <Gold.Chemscore.Metal>
0.0000

> <Gold.Chemscore.Lipo>
94.9080

> <Gold.Chemscore.Internal_Hbond>
0.0000

> <Gold.Chemscore.DEClash>
0.4599

> <Gold.Chemscore.DEInternal>
2.9606

> <Gold.Chemscore.Rot>
2.5250

> <Gold.Chemscore.Internal.Correction>
   9.000000E+99

> <Gold.Chemscore.Hbonds>
donor molecule, donor type, donor heavy atom, donor atom, acceptor molecule, acceptor atom, score
      P1  H  6896  6907       L1     5  0.05
      P1  H  7989  7998       L1    20  0.91
      P1  H 10752 10764       L1    22  0.45

> <Gold.Chemscore.Hbond.Weighted>
-8.3830

> <Gold.Chemscore.Metal.Weighted>
-0.0000

> <Gold.Chemscore.Lipo.Weighted>
-11.1042

> <Gold.Chemscore.Internal_Hbond.Weighted>
0.0000

> <Gold.Chemscore.DEClash.Weighted>
0.4599

> <Gold.Chemscore.DEInternal.Weighted>
2.9606

> <Gold.Chemscore.Rot.Weighted>
6.4639

> <Gold.Chemscore.Internal.Correction.Weighted>
   9.000000E+99

> <Gold.Protein.RotatedTorsions>
[ 6907 6896 6895 6894 ] final -110.30 input  -60.11 | X-H torsion
[ 7974 7965 7964 7962 ] final   88.47 input  175.53 | X-H torsion
[ 8008 7997 7996 7995 ] final   87.79 input   59.86 | X-H torsion
[ 10167 10162 10161 10158 ] final   82.02 input  -65.29 | X-H torsion
[ 10718 10713 10712 10709 ] final  -12.76 input   66.30 | X-H torsion
[ 10763 10752 10751 10750 ] final  -67.23 input  -60.55 | X-H torsion
[ 11005 11000 10999 10996 ] final  -10.17 input  -57.11 | X-H torsion

> <Gold.Protein.ActiveResidues>
 VAL166  LYS551  ARG553  GLY616  TRP617  ASP618  TYR619  PRO620  LYS621  CYS622 
 ASP623  PHE694  ASN695  SER759  ASP760  ASP761  ALA762  ILE779  LEU786  VAL792 
 PHE793  MET794  SER795  GLU796  ALA797  LYS798  CYS799  TRP800  GLU811  SER814 

> <Gold.Protein.RotatedAtoms>
  150.7616  133.9402  159.3453 H   0  0  0  0  0  0  0  0  0  0  0  0  # atno 6907 bound_to 6896
  151.7309  135.0873  160.0309 H   0  0  0  0  0  0  0  0  0  0  0  0  # atno 6908 bound_to 6896
  152.3590  133.6235  159.6036 H   0  0  0  0  0  0  0  0  0  0  0  0  # atno 6909 bound_to 6896
  145.5453  139.2291  143.2543 H   0  0  0  0  0  0  0  0  0  0  0  0  # atno 7974 bound_to 7965
  155.9798  140.3378  155.6652 H   0  0  0  0  0  0  0  0  0  0  0  0  # atno 8008 bound_to 7997
  155.6564  140.0711  157.2587 H   0  0  0  0  0  0  0  0  0  0  0  0  # atno 8009 bound_to 7997
  154.4189  140.1716  156.1716 H   0  0  0  0  0  0  0  0  0  0  0  0  # atno 8010 bound_to 7997
  139.9332  144.6138  150.8324 H   0  0  0  0  0  0  0  0  0  0  0  0  # atno 10167 bound_to 10162
  156.6399  130.4925  149.6098 H   0  0  0  0  0  0  0  0  0  0  0  0  # atno 10718 bound_to 10713
  154.3714  135.6094  153.5742 H   0  0  0  0  0  0  0  0  0  0  0  0  # atno 10763 bound_to 10752
  152.9790  135.5839  154.4517 H   0  0  0  0  0  0  0  0  0  0  0  0  # atno 10764 bound_to 10752
  154.4271  135.2847  155.1914 H   0  0  0  0  0  0  0  0  0  0  0  0  # atno 10765 bound_to 10752
  140.7419  133.8663  155.8974 H   0  0  0  0  0  0  0  0  0  0  0  0  # atno 11005 bound_to 11000
  146.1953  140.6274  142.9127 LP  0  0  0  0  0  0  0  0  0  0  0  0  # atno 17320 bound_to 7965
  144.7556  140.5299  143.6771 LP  0  0  0  0  0  0  0  0  0  0  0  0  # atno 17321 bound_to 7965
  140.7632  143.3216  151.2609 LP  0  0  0  0  0  0  0  0  0  0  0  0  # atno 17342 bound_to 10162
  139.6765  143.9929  152.2784 LP  0  0  0  0  0  0  0  0  0  0  0  0  # atno 17343 bound_to 10162
  156.2167  130.6712  151.1326 LP  0  0  0  0  0  0  0  0  0  0  0  0  # atno 17370 bound_to 10713
  157.7174  131.0702  150.6273 LP  0  0  0  0  0  0  0  0  0  0  0  0  # atno 17371 bound_to 10713
  140.9829  134.1381  157.4478 LP  0  0  0  0  0  0  0  0  0  0  0  0  # atno 17394 bound_to 11000
  139.8804  135.0016  156.6079 LP  0  0  0  0  0  0  0  0  0  0  0  0  # atno 17395 bound_to 11000

$$$$
