AV-unprocessed.smi:2163|AV-procd|sdf|8806|dock4
  -GOLD-   2272011593D 1   1.00000     0.00000
 Structure written by MMmdl.
 44 46  0  0  0  0  0  0  0  0  2 V2000
  150.0324  139.7726  155.3695 C   0  0  0  0  0  0  0  0  0  0  0  0
  150.5447  140.7865  156.3363 C   0  0  0  0  0  0  0  0  0  0  0  0
  150.1685  142.0946  156.4003 N   0  3  0  0  0  0  0  0  0  0  0  0
  150.8578  142.7341  157.4314 C   0  0  0  0  0  0  0  0  0  0  0  0
  150.8102  144.0510  157.8778 C   0  0  0  0  0  0  0  0  0  0  0  0
  151.6455  144.3812  158.9649 C   0  0  0  0  0  0  0  0  0  0  0  0
  152.4851  143.4199  159.5639 C   0  0  0  0  0  0  0  0  0  0  0  0
  152.5263  142.0880  159.1012 C   0  0  0  0  0  0  0  0  0  0  0  0
  151.6969  141.7689  158.0259 C   0  0  0  0  0  0  0  0  0  0  0  0
  151.4701  140.5827  157.3168 N   0  0  0  0  0  0  0  0  0  0  0  0
  152.1947  139.3576  157.6889 C   0  0  0  0  0  0  0  0  0  0  0  0
  151.7730  138.8152  159.0697 C   0  0  2  0  0  0  0  0  0  0  0  0
  152.8767  138.3166  159.7985 O   0  0  0  0  0  0  0  0  0  0  0  0
  150.6813  137.7353  159.0016 C   0  0  0  0  0  0  0  0  0  0  0  0
  150.6295  137.0196  160.2299 O   0  0  0  0  0  0  0  0  0  0  0  0
  149.3932  136.6840  160.7390 C   0  0  0  0  0  0  0  0  0  0  0  0
  148.1742  136.8175  160.0271 C   0  0  0  0  0  0  0  0  0  0  0  0
  146.9539  136.4491  160.6262 C   0  0  0  0  0  0  0  0  0  0  0  0
  146.9319  135.9432  161.9406 C   0  0  0  0  0  0  0  0  0  0  0  0
  145.6187  135.5457  162.5826 C   0  0  0  0  0  0  0  0  0  0  0  0
  145.8164  134.6767  163.7526 C   0  0  0  0  0  0  0  0  0  0  0  0
  145.9721  133.9932  164.6731 N   0  0  0  0  0  0  0  0  0  0  0  0
  148.1391  135.8071  162.6536 C   0  0  0  0  0  0  0  0  0  0  0  0
  149.3587  136.1763  162.0541 C   0  0  0  0  0  0  0  0  0  0  0  0
  149.2911  140.2167  154.7048 H   0  0  0  0  0  0  0  0  0  0  0  0
  149.5665  138.9443  155.9035 H   0  0  0  0  0  0  0  0  0  0  0  0
  150.8508  139.3820  154.7646 H   0  0  0  0  0  0  0  0  0  0  0  0
  150.1668  144.7888  157.4213 H   0  0  0  0  0  0  0  0  0  0  0  0
  151.6412  145.3916  159.3478 H   0  0  0  0  0  0  0  0  0  0  0  0
  153.1100  143.7093  160.3964 H   0  0  0  0  0  0  0  0  0  0  0  0
  153.1711  141.3604  159.5710 H   0  0  0  0  0  0  0  0  0  0  0  0
  151.9850  138.6129  156.9205 H   0  0  0  0  0  0  0  0  0  0  0  0
  153.2671  139.5465  157.6400 H   0  0  0  0  0  0  0  0  0  0  0  0
  151.3782  139.6440  159.6584 H   0  0  0  0  0  0  0  0  0  0  0  0
  153.3658  137.7331  159.2386 H   0  0  0  0  0  0  0  0  0  0  0  0
  149.7153  138.1863  158.7674 H   0  0  0  0  0  0  0  0  0  0  0  0
  150.9274  137.0410  158.1963 H   0  0  0  0  0  0  0  0  0  0  0  0
  148.1470  137.2008  159.0184 H   0  0  0  0  0  0  0  0  0  0  0  0
  146.0330  136.5554  160.0716 H   0  0  0  0  0  0  0  0  0  0  0  0
  145.0737  136.4346  162.9007 H   0  0  0  0  0  0  0  0  0  0  0  0
  144.9927  135.0176  161.8629 H   0  0  0  0  0  0  0  0  0  0  0  0
  148.1328  135.4183  163.6613 H   0  0  0  0  0  0  0  0  0  0  0  0
  150.2786  136.0673  162.6096 H   0  0  0  0  0  0  0  0  0  0  0  0
  149.4870  142.5166  155.7828 H   0  0  0  0  0  0  0  0  0  0  0  0
  1  2  1  0  0  0  0
  1 25  1  0  0  0  0
  1 26  1  0  0  0  0
  1 27  1  0  0  0  0
  2 10  1  0  0  0  0
  2  3  2  0  0  0  0
  3  4  1  0  0  0  0
  3 44  1  0  0  0  0
  4  9  2  0  0  0  0
  4  5  1  0  0  0  0
  5  6  2  0  0  0  0
  5 28  1  0  0  0  0
  6  7  1  0  0  0  0
  6 29  1  0  0  0  0
  7  8  2  0  0  0  0
  7 30  1  0  0  0  0
  8  9  1  0  0  0  0
  8 31  1  0  0  0  0
  9 10  1  0  0  0  0
 10 11  1  0  0  0  0
 11 12  1  0  0  0  0
 11 32  1  0  0  0  0
 11 33  1  0  0  0  0
 12 13  1  0  0  0  0
 12 14  1  0  0  0  0
 12 34  1  0  0  0  0
 13 35  1  0  0  0  0
 14 15  1  0  0  0  0
 14 36  1  0  0  0  0
 14 37  1  0  0  0  0
 15 16  1  0  0  0  0
 16 24  1  0  0  0  0
 16 17  2  0  0  0  0
 17 18  1  0  0  0  0
 17 38  1  0  0  0  0
 18 19  2  0  0  0  0
 18 39  1  0  0  0  0
 19 20  1  0  0  0  0
 19 23  1  0  0  0  0
 20 21  1  0  0  0  0
 20 40  1  0  0  0  0
 20 41  1  0  0  0  0
 21 22  3  0  0  0  0
 23 24  2  0  0  0  0
 23 42  1  0  0  0  0
 24 43  1  0  0  0  0
M  CHG  1   3   1
M  END
> <s_m_source_file>
AV-unprocessed.smi

> <i_m_source_file_index>
2163

> <i_lp_mmshare_version>
43012

> <i_f3d_flags>
0

> <s_epik_input>
W2NIXTFbY0hdW2NIXVtjSF1jKGMxMiluKGMobjIpW0NIM10pW0NIMl1bQ0BIXShbT0hdKVtDSDJdT2MzW2NIXVtjSF1jKFtDSDJdQyNOKVtjSF1bY0hdMw==

> <s_epik_cmdline>
J2VwaWtfcHl0aG9uJywgJy1waCcsICc3LjAnLCAnLXRuJywgJzgnLCAnLW1hJywgJzIwMCcsICctbWV0YWxfYmluZGluZycsICctaW1hZScsICc8aW5maWxlLm1hZT4nLCAnLW9tYWUnLCAnPG91dGZpbGUubWFlPic=

> <r_lp_tautomer_probability>
1

> <r_epik_Ionization_Penalty>
1.03158

> <r_epik_Ionization_Penalty_Charging>
1.03158

> <r_epik_Ionization_Penalty_Neutral>
2.3994e-06

> <r_epik_State_Penalty>
1.08278

> <r_epik_Charging_Adjusted_Penalty>
2.11436

> <i_epik_Tot_Q>
1

> <i_epik_Tot_abs_Q>
1

> <r_epik_Metal_State_Penalty>
5.07177

> <b_epik_Metal_Only>
0

> <s_lp_Force_Field>
OPLS_2005

> <r_lp_Energy>
21.0912

> <b_lp_Chiralities_Consistent>
1

> <s_lp_Variant>
AV-unprocessed.smi:2163-3

> <Gold.Version>
5.8.1

> <Gold.Id.Protein>
6NUR|6NUR_protein|mol2

> <Gold.PLP.Fitness>
50.2958

> <Gold.PLP.PLP>
-44.4328

> <Gold.PLP.part.hbond>
-2.7182

> <Gold.PLP.part.metal>
0.0000

> <Gold.PLP.part.buried>
-6.7110

> <Gold.PLP.part.nonpolar>
-35.8469

> <Gold.PLP.part.repulsive>
0.1360

> <Gold.PLP.ligand.clash>
0.0000

> <Gold.PLP.ligand.torsion>
1.3768

> <Gold.PLP.Chemscore.Hbond>
2.8288

> <Gold.PLP.Chemscore.CHOScore>
0.0000

> <Gold.PLP.Chemscore.Metal>
0.0000

> <Gold.Chemscore.Hbonds>
donor molecule, donor type, donor heavy atom, donor atom, acceptor molecule, acceptor atom, score
      L1  H     3    44       P1  8028  0.40
      P1  H  6896  6908       L1    15  0.58

> <Gold.PLP.Chemscore.Internal.Correction>
0.1304

> <Gold.Rescore>
     Score         DG    S(hbond)    S(metal)    S(lipo)     H(rot)  DE(clash)    DE(int)     intcor
     15.21     -16.45       1.36        0.00     112.00       2.60       0.01       1.24       ----

> <Gold.Chemscore.Fitness>
15.2096

> <Gold.Chemscore.DG>
-16.4541

> <Gold.Chemscore.ZeroCoef>
-5.4800

> <Gold.Chemscore.Hbond>
1.3583

> <Gold.Chemscore.Metal>
0.0000

> <Gold.Chemscore.Lipo>
111.9996

> <Gold.Chemscore.Internal_Hbond>
0.0000

> <Gold.Chemscore.DEClash>
0.0088

> <Gold.Chemscore.DEInternal>
1.2357

> <Gold.Chemscore.Rot>
2.6041

> <Gold.Chemscore.Internal.Correction>
   9.000000E+99

> <Gold.Chemscore.Hbonds>
donor molecule, donor type, donor heavy atom, donor atom, acceptor molecule, acceptor atom, score
      L1  H     3    44       P1  8028  0.20
      P1  H  6896  6908       L1    15  0.02

> <Gold.Chemscore.Hbond.Weighted>
-4.5367

> <Gold.Chemscore.Metal.Weighted>
-0.0000

> <Gold.Chemscore.Lipo.Weighted>
-13.1039

> <Gold.Chemscore.Internal_Hbond.Weighted>
0.0000

> <Gold.Chemscore.DEClash.Weighted>
0.0088

> <Gold.Chemscore.DEInternal.Weighted>
1.2357

> <Gold.Chemscore.Rot.Weighted>
6.6665

> <Gold.Chemscore.Internal.Correction.Weighted>
   9.000000E+99

> <Gold.Protein.RotatedTorsions>
[ 6907 6896 6895 6894 ] final -152.37 input  -60.11 | X-H torsion
[ 7974 7965 7964 7962 ] final -171.78 input  175.53 | X-H torsion
[ 8008 7997 7996 7995 ] final  110.06 input   59.86 | X-H torsion
[ 10167 10162 10161 10158 ] final   -0.17 input  -65.29 | X-H torsion
[ 10718 10713 10712 10709 ] final   -1.18 input   66.30 | X-H torsion
[ 10763 10752 10751 10750 ] final  -63.94 input  -60.55 | X-H torsion
[ 11005 11000 10999 10996 ] final -134.24 input  -57.11 | X-H torsion

> <Gold.Protein.ActiveResidues>
 VAL166  LYS551  ARG553  GLY616  TRP617  ASP618  TYR619  PRO620  LYS621  CYS622 
 ASP623  PHE694  ASN695  SER759  ASP760  ASP761  ALA762  ILE779  LEU786  VAL792 
 PHE793  MET794  SER795  GLU796  ALA797  LYS798  CYS799  TRP800  GLU811  SER814 

> <Gold.Protein.RotatedAtoms>
  151.2268  133.4472  159.2602 H   0  0  0  0  0  0  0  0  0  0  0  0  # atno 6907 bound_to 6896
  151.0832  134.9871  159.8376 H   0  0  0  0  0  0  0  0  0  0  0  0  # atno 6908 bound_to 6896
  152.5426  134.2207  159.8839 H   0  0  0  0  0  0  0  0  0  0  0  0  # atno 6909 bound_to 6896
  144.7153  140.1871  143.6352 H   0  0  0  0  0  0  0  0  0  0  0  0  # atno 7974 bound_to 7965
  156.2025  140.3046  155.9557 H   0  0  0  0  0  0  0  0  0  0  0  0  # atno 8008 bound_to 7997
  155.2919  140.0442  157.3040 H   0  0  0  0  0  0  0  0  0  0  0  0  # atno 8009 bound_to 7997
  154.5590  140.2314  155.8374 H   0  0  0  0  0  0  0  0  0  0  0  0  # atno 8010 bound_to 7997
  140.6756  143.6926  150.8015 H   0  0  0  0  0  0  0  0  0  0  0  0  # atno 10167 bound_to 10162
  156.8094  130.5419  149.5711 H   0  0  0  0  0  0  0  0  0  0  0  0  # atno 10718 bound_to 10713
  154.3226  135.6193  153.5514 H   0  0  0  0  0  0  0  0  0  0  0  0  # atno 10763 bound_to 10752
  152.9818  135.5727  154.5053 H   0  0  0  0  0  0  0  0  0  0  0  0  # atno 10764 bound_to 10752
  154.4724  135.2860  155.1609 H   0  0  0  0  0  0  0  0  0  0  0  0  # atno 10765 bound_to 10752
  140.9008  134.1693  157.4462 H   0  0  0  0  0  0  0  0  0  0  0  0  # atno 11005 bound_to 11000
  145.8802  139.2319  143.1609 LP  0  0  0  0  0  0  0  0  0  0  0  0  # atno 17320 bound_to 7965
  146.0002  140.8527  143.0022 LP  0  0  0  0  0  0  0  0  0  0  0  0  # atno 17321 bound_to 7965
  140.0619  143.5147  152.2623 LP  0  0  0  0  0  0  0  0  0  0  0  0  # atno 17342 bound_to 10162
  139.6046  144.7592  151.3092 LP  0  0  0  0  0  0  0  0  0  0  0  0  # atno 17343 bound_to 10162
  156.1053  130.6000  150.9961 LP  0  0  0  0  0  0  0  0  0  0  0  0  # atno 17370 bound_to 10713
  157.6513  131.0896  150.8044 LP  0  0  0  0  0  0  0  0  0  0  0  0  # atno 17371 bound_to 10713
  139.8742  134.9897  156.5470 LP  0  0  0  0  0  0  0  0  0  0  0  0  # atno 17394 bound_to 11000
  140.8232  133.8337  155.8915 LP  0  0  0  0  0  0  0  0  0  0  0  0  # atno 17395 bound_to 11000

$$$$
