AV-unprocessed.smi:1736|AV-procd|sdf|6991|dock2
  -GOLD-   22720 8203D 1   1.00000     0.00000
 Structure written by MMmdl.
 45 46  0  0  0  0  0  0  0  0  2 V2000
  146.8745  142.3597  156.4650 C   0  0  0  0  0  0  0  0  0  0  0  0
  145.8305  142.2869  155.4485 N   0  0  0  0  0  0  0  0  0  0  0  0
  146.3416  142.3971  154.0830 C   0  0  0  0  0  0  0  0  0  0  0  0
  147.1221  141.1385  153.6533 C   0  0  0  0  0  0  0  0  0  0  0  0
  146.2654  139.9206  153.7495 N   0  3  0  0  0  0  0  0  0  0  0  0
  146.8539  138.6663  153.1476 C   0  0  0  0  0  0  0  0  0  0  0  0
  146.8278  138.7282  151.6002 C   0  0  0  0  0  0  0  0  0  0  0  0
  148.3305  138.4750  153.5866 C   0  0  0  0  0  0  0  0  0  0  0  0
  146.0415  137.4394  153.6686 C   0  0  0  0  0  0  0  0  0  0  0  0
  146.0602  136.2820  152.7734 N   0  0  0  0  0  0  0  0  0  0  0  0
  144.9993  135.5345  152.4363 C   0  0  0  0  0  0  0  0  0  0  0  0
  143.8609  135.7389  152.8576 O   0  0  0  0  0  0  0  0  0  0  0  0
  145.3446  134.5567  151.5831 N   0  0  0  0  0  0  0  0  0  0  0  0
  144.4909  133.5991  150.9798 C   0  0  0  0  0  0  0  0  0  0  0  0
  144.6650  133.0719  149.6715 C   0  0  0  0  0  0  0  0  0  0  0  0
  143.7148  132.1979  149.3719 N   0  0  0  0  0  0  0  0  0  0  0  0
  142.9360  132.1624  150.4767 N   0  0  0  0  0  0  0  0  0  0  0  0
  143.3700  132.9991  151.4812 C   0  0  0  0  0  0  0  0  0  0  0  0
  145.7456  139.8060  155.1435 C   0  0  0  0  0  0  0  0  0  0  0  0
  144.9992  141.0904  155.5638 C   0  0  0  0  0  0  0  0  0  0  0  0
  142.1208  131.5682  150.5298 H   0  0  0  0  0  0  0  0  0  0  0  0
  147.4321  143.2917  156.3669 H   0  0  0  0  0  0  0  0  0  0  0  0
  147.5831  141.5347  156.4006 H   0  0  0  0  0  0  0  0  0  0  0  0
  146.4314  142.3447  157.4614 H   0  0  0  0  0  0  0  0  0  0  0  0
  145.5003  142.5547  153.4065 H   0  0  0  0  0  0  0  0  0  0  0  0
  146.9733  143.2823  154.0009 H   0  0  0  0  0  0  0  0  0  0  0  0
  147.4665  141.2995  152.6346 H   0  0  0  0  0  0  0  0  0  0  0  0
  148.0181  141.0279  154.2638 H   0  0  0  0  0  0  0  0  0  0  0  0
  147.3759  137.8959  151.1586 H   0  0  0  0  0  0  0  0  0  0  0  0
  147.2893  139.6410  151.2239 H   0  0  0  0  0  0  0  0  0  0  0  0
  145.8131  138.6802  151.2048 H   0  0  0  0  0  0  0  0  0  0  0  0
  148.7405  137.5239  153.2474 H   0  0  0  0  0  0  0  0  0  0  0  0
  148.4321  138.5013  154.6722 H   0  0  0  0  0  0  0  0  0  0  0  0
  148.9878  139.2348  153.1636 H   0  0  0  0  0  0  0  0  0  0  0  0
  146.4538  137.1115  154.6236 H   0  0  0  0  0  0  0  0  0  0  0  0
  145.0034  137.6966  153.8733 H   0  0  0  0  0  0  0  0  0  0  0  0
  146.9546  136.0335  152.3761 H   0  0  0  0  0  0  0  0  0  0  0  0
  146.3189  134.4995  151.3246 H   0  0  0  0  0  0  0  0  0  0  0  0
  145.4331  133.2907  148.9442 H   0  0  0  0  0  0  0  0  0  0  0  0
  142.8543  133.0839  152.4262 H   0  0  0  0  0  0  0  0  0  0  0  0
  145.0202  138.9996  155.2290 H   0  0  0  0  0  0  0  0  0  0  0  0
  146.5556  139.5768  155.8360 H   0  0  0  0  0  0  0  0  0  0  0  0
  144.6314  140.9982  156.5865 H   0  0  0  0  0  0  0  0  0  0  0  0
  144.1191  141.2204  154.9327 H   0  0  0  0  0  0  0  0  0  0  0  0
  145.4493  140.1178  153.1882 H   0  0  0  0  0  0  0  0  0  0  0  0
  1  2  1  0  0  0  0
  1 22  1  0  0  0  0
  1 23  1  0  0  0  0
  1 24  1  0  0  0  0
  2 20  1  0  0  0  0
  2  3  1  0  0  0  0
  3  4  1  0  0  0  0
  3 25  1  0  0  0  0
  3 26  1  0  0  0  0
  4  5  1  0  0  0  0
  4 27  1  0  0  0  0
  4 28  1  0  0  0  0
  5  6  1  0  0  0  0
  5 19  1  0  0  0  0
  5 45  1  0  0  0  0
  6  7  1  0  0  0  0
  6  8  1  0  0  0  0
  6  9  1  0  0  0  0
  7 29  1  0  0  0  0
  7 30  1  0  0  0  0
  7 31  1  0  0  0  0
  8 32  1  0  0  0  0
  8 33  1  0  0  0  0
  8 34  1  0  0  0  0
  9 10  1  0  0  0  0
  9 35  1  0  0  0  0
  9 36  1  0  0  0  0
 10 11  1  0  0  0  0
 10 37  1  0  0  0  0
 11 12  2  0  0  0  0
 11 13  1  0  0  0  0
 13 14  1  0  0  0  0
 13 38  1  0  0  0  0
 14 18  2  0  0  0  0
 14 15  1  0  0  0  0
 15 16  2  0  0  0  0
 15 39  1  0  0  0  0
 16 17  1  0  0  0  0
 17 21  1  0  0  0  0
 17 18  1  0  0  0  0
 18 40  1  0  0  0  0
 19 20  1  0  0  0  0
 19 41  1  0  0  0  0
 19 42  1  0  0  0  0
 20 43  1  0  0  0  0
 20 44  1  0  0  0  0
M  CHG  1   5   1
M  END
> <s_m_source_file>
AV-unprocessed.smi

> <i_m_source_file_index>
1736

> <i_lp_mmshare_version>
43012

> <i_f3d_flags>
0

> <s_epik_input>
W0NIM11OMVtDSDJdW0NIMl1OKFtDSDJdW0NIMl0xKUMoW0NIM10pKFtDSDNdKVtDSDJdW05IXUMoPU8pW05IXWMyW2NIXW5bbkhdW2NIXTI=

> <s_epik_cmdline>
J2VwaWtfcHl0aG9uJywgJy1waCcsICc3LjAnLCAnLXRuJywgJzgnLCAnLW1hJywgJzIwMCcsICctbWV0YWxfYmluZGluZycsICctaW1hZScsICc8aW5maWxlLm1hZT4nLCAnLW9tYWUnLCAnPG91dGZpbGUubWFlPic=

> <r_epik_Ionization_Penalty>
0.0906742

> <r_epik_Ionization_Penalty_Charging>
0.0886444

> <r_epik_Ionization_Penalty_Neutral>
0.00202984

> <r_epik_State_Penalty>
1.00524

> <r_epik_Charging_Adjusted_Penalty>
1.09388

> <i_epik_Tot_Q>
1

> <i_epik_Tot_abs_Q>
1

> <r_epik_Metal_State_Penalty>
1.00524

> <b_epik_Metal_Only>
0

> <s_lp_Force_Field>
OPLS_2005

> <r_lp_Energy>
30.5106

> <b_lp_Chiralities_Consistent>
1

> <s_lp_Variant>
AV-unprocessed.smi:1736-2

> <Gold.Version>
5.8.1

> <Gold.Id.Protein>
6NUR|6NUR_protein|mol2

> <Gold.PLP.Fitness>
42.8816

> <Gold.PLP.PLP>
-27.5497

> <Gold.PLP.part.hbond>
-4.5105

> <Gold.PLP.part.metal>
0.0000

> <Gold.PLP.part.buried>
-0.1841

> <Gold.PLP.part.nonpolar>
-23.9430

> <Gold.PLP.part.repulsive>
0.6126

> <Gold.PLP.ligand.clash>
0.0000

> <Gold.PLP.ligand.torsion>
1.3247

> <Gold.PLP.Chemscore.Hbond>
4.2753

> <Gold.PLP.Chemscore.CHOScore>
1.6914

> <Gold.PLP.Chemscore.Metal>
0.0000

> <Gold.Chemscore.Hbonds>
donor molecule, donor type, donor heavy atom, donor atom, acceptor molecule, acceptor atom, score
      L1  H     5    45       P1 10175  2.00
      L1  H    10    37       P1  7948  0.93
      L1  H    17    21       P1 10952  0.98
      P1  H 10785 10796       L1    16  0.37
      L1  C    15    39       P1  7921  0.96
      L1  C    18    40       P1 10957  0.61

> <Gold.PLP.Chemscore.Internal.Correction>
0.0813

> <Gold.Rescore>
     Score         DG    S(hbond)    S(metal)    S(lipo)     H(rot)  DE(clash)    DE(int)     intcor
     15.80     -17.73       2.46        0.00      70.16       1.63       0.72       1.21       ----

> <Gold.Chemscore.Fitness>
15.7955

> <Gold.Chemscore.DG>
-17.7258

> <Gold.Chemscore.ZeroCoef>
-5.4800

> <Gold.Chemscore.Hbond>
2.4556

> <Gold.Chemscore.Metal>
0.0000

> <Gold.Chemscore.Lipo>
70.1581

> <Gold.Chemscore.Internal_Hbond>
0.0000

> <Gold.Chemscore.DEClash>
0.7223

> <Gold.Chemscore.DEInternal>
1.2080

> <Gold.Chemscore.Rot>
1.6267

> <Gold.Chemscore.Internal.Correction>
   9.000000E+99

> <Gold.Chemscore.Hbonds>
donor molecule, donor type, donor heavy atom, donor atom, acceptor molecule, acceptor atom, score
      L1  H     5    45       P1 10175  0.99
      L1  H    10    37       P1  7948  0.88
      L1  H    17    21       P1 10952  0.26
      P1  H 10785 10796       L1    16  0.05

> <Gold.Chemscore.Hbond.Weighted>
-8.2017

> <Gold.Chemscore.Metal.Weighted>
-0.0000

> <Gold.Chemscore.Lipo.Weighted>
-8.2085

> <Gold.Chemscore.Internal_Hbond.Weighted>
0.0000

> <Gold.Chemscore.DEClash.Weighted>
0.7223

> <Gold.Chemscore.DEInternal.Weighted>
1.2080

> <Gold.Chemscore.Rot.Weighted>
4.1645

> <Gold.Chemscore.Internal.Correction.Weighted>
   9.000000E+99

> <Gold.Protein.RotatedTorsions>
[ 6907 6896 6895 6894 ] final  -20.50 input  -60.11 | X-H torsion
[ 7974 7965 7964 7962 ] final  -34.16 input  175.53 | X-H torsion
[ 8008 7997 7996 7995 ] final   -2.54 input   59.86 | X-H torsion
[ 10167 10162 10161 10158 ] final  150.18 input  -65.29 | X-H torsion
[ 10718 10713 10712 10709 ] final  109.15 input   66.30 | X-H torsion
[ 10763 10752 10751 10750 ] final -109.30 input  -60.55 | X-H torsion
[ 11005 11000 10999 10996 ] final  -51.92 input  -57.11 | X-H torsion

> <Gold.Protein.ActiveResidues>
 VAL166  LYS551  ARG553  GLY616  TRP617  ASP618  TYR619  PRO620  LYS621  CYS622 
 ASP623  PHE694  ASN695  SER759  ASP760  ASP761  ALA762  ILE779  LEU786  VAL792 
 PHE793  MET794  SER795  GLU796  ALA797  LYS798  CYS799  TRP800  GLU811  SER814 

> <Gold.Protein.RotatedAtoms>
  151.2472  135.0609  159.9047 H   0  0  0  0  0  0  0  0  0  0  0  0  # atno 6907 bound_to 6896
  152.5385  134.0371  159.8061 H   0  0  0  0  0  0  0  0  0  0  0  0  # atno 6908 bound_to 6896
  151.0573  133.5524  159.2668 H   0  0  0  0  0  0  0  0  0  0  0  0  # atno 6909 bound_to 6896
  146.0852  140.6005  142.8890 H   0  0  0  0  0  0  0  0  0  0  0  0  # atno 7974 bound_to 7965
  154.6347  140.2532  155.7393 H   0  0  0  0  0  0  0  0  0  0  0  0  # atno 8008 bound_to 7997
  156.2498  140.2900  156.0634 H   0  0  0  0  0  0  0  0  0  0  0  0  # atno 8009 bound_to 7997
  155.1690  140.0386  157.2849 H   0  0  0  0  0  0  0  0  0  0  0  0  # atno 8010 bound_to 7997
  139.4853  144.5543  151.7346 H   0  0  0  0  0  0  0  0  0  0  0  0  # atno 10167 bound_to 10162
  157.6554  131.0908  150.6411 H   0  0  0  0  0  0  0  0  0  0  0  0  # atno 10718 bound_to 10713
  154.8185  135.4606  154.0712 H   0  0  0  0  0  0  0  0  0  0  0  0  # atno 10763 bound_to 10752
  153.2085  135.6878  153.8150 H   0  0  0  0  0  0  0  0  0  0  0  0  # atno 10764 bound_to 10752
  153.7610  135.3284  155.3314 H   0  0  0  0  0  0  0  0  0  0  0  0  # atno 10765 bound_to 10752
  141.0897  133.6635  156.3949 H   0  0  0  0  0  0  0  0  0  0  0  0  # atno 11005 bound_to 11000
  144.7320  140.4701  143.6930 LP  0  0  0  0  0  0  0  0  0  0  0  0  # atno 17320 bound_to 7965
  145.6144  139.1517  143.3058 LP  0  0  0  0  0  0  0  0  0  0  0  0  # atno 17321 bound_to 7965
  140.5102  144.1037  150.5993 LP  0  0  0  0  0  0  0  0  0  0  0  0  # atno 17342 bound_to 10162
  140.3960  143.2728  152.0004 LP  0  0  0  0  0  0  0  0  0  0  0  0  # atno 17343 bound_to 10162
  156.6718  130.4542  149.5655 LP  0  0  0  0  0  0  0  0  0  0  0  0  # atno 17370 bound_to 10713
  156.1992  130.6609  151.1148 LP  0  0  0  0  0  0  0  0  0  0  0  0  # atno 17371 bound_to 10713
  140.5281  134.6239  157.5341 LP  0  0  0  0  0  0  0  0  0  0  0  0  # atno 17394 bound_to 11000
  139.9721  134.7276  156.0022 LP  0  0  0  0  0  0  0  0  0  0  0  0  # atno 17395 bound_to 11000

$$$$
