AV-unprocessed.smi:703|AV-procd|sdf|3439|dock3
  -GOLD-   22720 0423D 1   1.00000     0.00000
 Structure written by MMmdl.
 37 38  0  0  0  0  0  0  0  0  3 V2000
  146.2485  133.4389  150.4845 C   0  0  0  0  0  0  0  0  0  0  0  0
  145.9351  134.0813  151.8426 C   0  0  0  0  0  0  0  0  0  0  0  0
  147.1240  134.1315  152.7267 N   0  3  2  0  0  0  0  0  0  0  0  0
  147.9983  132.9363  152.6446 C   0  0  0  0  0  0  0  0  0  0  0  0
  148.2917  132.4946  154.0882 C   0  0  1  0  0  0  0  0  0  0  0  0
  149.6961  131.8847  154.2664 C   0  0  0  0  0  0  0  0  0  0  0  0
  148.0050  133.7558  154.9169 C   0  0  2  0  0  0  0  0  0  0  0  0
  147.6512  133.4225  156.2876 N   0  5  0  0  0  0  0  0  0  0  0  0
  148.3975  134.1699  157.5191 S   0  0  0  0  0  0  0  0  0  0  0  0
  149.3043  133.2654  158.2438 O   0  0  0  0  0  0  0  0  0  0  0  0
  148.9286  135.4905  157.1422 O   0  0  0  0  0  0  0  0  0  0  0  0
  146.9735  134.4754  158.6558 C   0  0  0  0  0  0  0  0  0  0  0  0
  147.4318  135.1784  159.9038 C   0  0  0  0  0  0  0  0  0  0  0  0
  147.2789  134.7656  161.2567 C   0  0  0  0  0  0  0  0  0  0  0  0
  147.8730  135.7692  161.9657 C   0  0  0  0  0  0  0  0  0  0  0  0
  148.3463  136.7267  161.1290 O   0  0  0  0  0  0  0  0  0  0  0  0
  148.0556  136.3432  159.8150 N   0  0  0  0  0  0  0  0  0  0  0  0
  146.8316  134.3762  154.1555 C   0  0  0  0  0  0  0  0  0  0  0  0
  145.3468  133.3657  149.8763 H   0  0  0  0  0  0  0  0  0  0  0  0
  146.6481  132.4318  150.6075 H   0  0  0  0  0  0  0  0  0  0  0  0
  146.9760  134.0237  149.9211 H   0  0  0  0  0  0  0  0  0  0  0  0
  145.5317  135.0857  151.7046 H   0  0  0  0  0  0  0  0  0  0  0  0
  145.1585  133.4949  152.3355 H   0  0  0  0  0  0  0  0  0  0  0  0
  147.5359  132.1233  152.0824 H   0  0  0  0  0  0  0  0  0  0  0  0
  148.9101  133.2165  152.1135 H   0  0  0  0  0  0  0  0  0  0  0  0
  147.5531  131.7335  154.3497 H   0  0  0  0  0  0  0  0  0  0  0  0
  150.4892  132.5861  154.0012 H   0  0  0  0  0  0  0  0  0  0  0  0
  149.8138  131.0085  153.6285 H   0  0  0  0  0  0  0  0  0  0  0  0
  149.8689  131.5579  155.2935 H   0  0  0  0  0  0  0  0  0  0  0  0
  148.8650  134.4244  154.8547 H   0  0  0  0  0  0  0  0  0  0  0  0
  146.2089  135.0398  158.1217 H   0  0  0  0  0  0  0  0  0  0  0  0
  146.5444  133.5069  158.9107 H   0  0  0  0  0  0  0  0  0  0  0  0
  146.8136  133.8714  161.6437 H   0  0  0  0  0  0  0  0  0  0  0  0
  148.0302  135.9404  163.0203 H   0  0  0  0  0  0  0  0  0  0  0  0
  146.7208  135.4418  154.3587 H   0  0  0  0  0  0  0  0  0  0  0  0
  145.8966  133.8817  154.4282 H   0  0  0  0  0  0  0  0  0  0  0  0
  147.6940  134.9066  152.4199 H   0  0  0  0  0  0  0  0  0  0  0  0
  1  2  1  0  0  0  0
  1 19  1  0  0  0  0
  1 20  1  0  0  0  0
  1 21  1  0  0  0  0
  2  3  1  0  0  0  0
  2 22  1  0  0  0  0
  2 23  1  0  0  0  0
  3 18  1  0  0  0  0
  3  4  1  0  0  0  0
  3 37  1  0  0  0  0
  4  5  1  0  0  0  0
  4 24  1  0  0  0  0
  4 25  1  0  0  0  0
  5  6  1  0  0  0  0
  5  7  1  0  0  0  0
  5 26  1  0  0  0  0
  6 27  1  0  0  0  0
  6 28  1  0  0  0  0
  6 29  1  0  0  0  0
  7  8  1  0  0  0  0
  7 18  1  0  0  0  0
  7 30  1  0  0  0  0
  8  9  1  0  0  0  0
  9 10  2  0  0  0  0
  9 11  2  0  0  0  0
  9 12  1  0  0  0  0
 12 13  1  0  0  0  0
 12 31  1  0  0  0  0
 12 32  1  0  0  0  0
 13 17  2  0  0  0  0
 13 14  1  0  0  0  0
 14 15  2  0  0  0  0
 14 33  1  0  0  0  0
 15 16  1  0  0  0  0
 15 34  1  0  0  0  0
 16 17  1  0  0  0  0
 18 35  1  0  0  0  0
 18 36  1  0  0  0  0
M  CHG  1   3   1
M  CHG  1   8  -1
M  END
> <s_m_source_file>
AV-unprocessed.smi

> <i_m_source_file_index>
703

> <i_lp_mmshare_version>
43012

> <i_f3d_flags>
0

> <s_epik_input>
W0NIM11bQ0gyXU4xW0NIMl1bQ0BASF0oW0NIM10pW0NASF0oW0NIMl0xKVtOSF1TKD1PKSg9TylbQ0gyXWMyW2NIXVtjSF1vbjI=

> <s_epik_cmdline>
J2VwaWtfcHl0aG9uJywgJy1waCcsICc3LjAnLCAnLXRuJywgJzgnLCAnLW1hJywgJzIwMCcsICctbWV0YWxfYmluZGluZycsICctaW1hZScsICc8aW5maWxlLm1hZT4nLCAnLW9tYWUnLCAnPG91dGZpbGUubWFlPic=

> <r_epik_Ionization_Penalty>
3.62494

> <r_epik_Ionization_Penalty_Charging>
3.62494

> <r_epik_Ionization_Penalty_Neutral>
2.0321e-10

> <r_epik_State_Penalty>
3.62558

> <r_epik_Charging_Adjusted_Penalty>
7.25052

> <i_epik_Tot_Q>
0

> <i_epik_Tot_abs_Q>
2

> <r_epik_Metal_State_Penalty>
0.530836

> <b_epik_Metal_Only>
1

> <s_lp_Force_Field>
OPLS_2005

> <r_lp_Energy>
15.0444

> <b_lp_Chiralities_Consistent>
1

> <s_lp_Variant>
AV-unprocessed.smi:703-14

> <Gold.Version>
5.8.1

> <Gold.Id.Protein>
6NUR|6NUR_protein|mol2

> <Gold.PLP.Fitness>
38.2945

> <Gold.PLP.PLP>
-24.5962

> <Gold.PLP.part.hbond>
-4.0000

> <Gold.PLP.part.metal>
0.0000

> <Gold.PLP.part.buried>
-2.9672

> <Gold.PLP.part.nonpolar>
-17.4555

> <Gold.PLP.part.repulsive>
0.0000

> <Gold.PLP.ligand.clash>
0.0000

> <Gold.PLP.ligand.torsion>
0.8111

> <Gold.PLP.Chemscore.Hbond>
4.7600

> <Gold.PLP.Chemscore.CHOScore>
0.0000

> <Gold.PLP.Chemscore.Metal>
0.0000

> <Gold.Chemscore.Hbonds>
donor molecule, donor type, donor heavy atom, donor atom, acceptor molecule, acceptor atom, score
      L1  H     3    37       P1  7948  2.00
      P1  H  6896  6907       L1    10  1.00
      P1  H  6931  6943       L1    16  1.00

> <Gold.PLP.Chemscore.Internal.Correction>
1.0404

> <Gold.Rescore>
     Score         DG    S(hbond)    S(metal)    S(lipo)     H(rot)  DE(clash)    DE(int)     intcor
     16.45     -18.20       2.97        0.00      59.79       1.63       0.03       1.73       ----

> <Gold.Chemscore.Fitness>
16.4482

> <Gold.Chemscore.DG>
-18.2050

> <Gold.Chemscore.ZeroCoef>
-5.4800

> <Gold.Chemscore.Hbond>
2.9677

> <Gold.Chemscore.Metal>
0.0000

> <Gold.Chemscore.Lipo>
59.7903

> <Gold.Chemscore.Internal_Hbond>
0.0000

> <Gold.Chemscore.DEClash>
0.0270

> <Gold.Chemscore.DEInternal>
1.7298

> <Gold.Chemscore.Rot>
1.6338

> <Gold.Chemscore.Internal.Correction>
   9.000000E+99

> <Gold.Chemscore.Hbonds>
donor molecule, donor type, donor heavy atom, donor atom, acceptor molecule, acceptor atom, score
      L1  H     3    37       P1  7948  0.93
      P1  H  6896  6907       L1    10  0.97
      P1  H  6931  6943       L1    16  0.94

> <Gold.Chemscore.Hbond.Weighted>
-9.9120

> <Gold.Chemscore.Metal.Weighted>
-0.0000

> <Gold.Chemscore.Lipo.Weighted>
-6.9955

> <Gold.Chemscore.Internal_Hbond.Weighted>
0.0000

> <Gold.Chemscore.DEClash.Weighted>
0.0270

> <Gold.Chemscore.DEInternal.Weighted>
1.7298

> <Gold.Chemscore.Rot.Weighted>
4.1825

> <Gold.Chemscore.Internal.Correction.Weighted>
   9.000000E+99

> <Gold.Protein.RotatedTorsions>
[ 6907 6896 6895 6894 ] final -105.93 input  -60.11 | X-H torsion
[ 7974 7965 7964 7962 ] final  172.41 input  175.53 | X-H torsion
[ 8008 7997 7996 7995 ] final -151.71 input   59.86 | X-H torsion
[ 10167 10162 10161 10158 ] final   -5.98 input  -65.29 | X-H torsion
[ 10718 10713 10712 10709 ] final -164.23 input   66.30 | X-H torsion
[ 10763 10752 10751 10750 ] final  156.23 input  -60.55 | X-H torsion
[ 11005 11000 10999 10996 ] final -166.32 input  -57.11 | X-H torsion

> <Gold.Protein.ActiveResidues>
 VAL166  LYS551  ARG553  GLY616  TRP617  ASP618  TYR619  PRO620  LYS621  CYS622 
 ASP623  PHE694  ASN695  SER759  ASP760  ASP761  ALA762  ILE779  LEU786  VAL792 
 PHE793  MET794  SER795  GLU796  ALA797  LYS798  CYS799  TRP800  GLU811  SER814 

> <Gold.Protein.RotatedAtoms>
  150.7362  134.0053  159.3651 H   0  0  0  0  0  0  0  0  0  0  0  0  # atno 6907 bound_to 6896
  151.8010  135.0707  160.0409 H   0  0  0  0  0  0  0  0  0  0  0  0  # atno 6908 bound_to 6896
  152.3141  133.5747  159.5736 H   0  0  0  0  0  0  0  0  0  0  0  0  # atno 6909 bound_to 6896
  144.7269  139.9494  143.6431 H   0  0  0  0  0  0  0  0  0  0  0  0  # atno 7974 bound_to 7965
  155.6438  140.0704  157.2610 H   0  0  0  0  0  0  0  0  0  0  0  0  # atno 8008 bound_to 7997
  154.4178  140.1745  156.1650 H   0  0  0  0  0  0  0  0  0  0  0  0  # atno 8009 bound_to 7997
  155.9834  140.3351  155.6687 H   0  0  0  0  0  0  0  0  0  0  0  0  # atno 8010 bound_to 7997
  140.6981  143.6246  150.8580 H   0  0  0  0  0  0  0  0  0  0  0  0  # atno 10167 bound_to 10162
  156.6360  130.8949  151.2987 H   0  0  0  0  0  0  0  0  0  0  0  0  # atno 10718 bound_to 10713
  154.1811  135.2799  155.3052 H   0  0  0  0  0  0  0  0  0  0  0  0  # atno 10763 bound_to 10752
  154.6002  135.5532  153.7370 H   0  0  0  0  0  0  0  0  0  0  0  0  # atno 10764 bound_to 10752
  153.0138  135.6390  154.1950 H   0  0  0  0  0  0  0  0  0  0  0  0  # atno 10765 bound_to 10752
  140.5658  134.5287  157.5152 H   0  0  0  0  0  0  0  0  0  0  0  0  # atno 11005 bound_to 11000
  146.0723  139.3712  143.0515 LP  0  0  0  0  0  0  0  0  0  0  0  0  # atno 17320 bound_to 7965
  145.7951  140.9796  143.1028 LP  0  0  0  0  0  0  0  0  0  0  0  0  # atno 17321 bound_to 7965
  139.9966  143.5789  152.2891 LP  0  0  0  0  0  0  0  0  0  0  0  0  # atno 17342 bound_to 10162
  139.6463  144.7658  151.2236 LP  0  0  0  0  0  0  0  0  0  0  0  0  # atno 17343 bound_to 10162
  157.7185  130.9528  150.1348 LP  0  0  0  0  0  0  0  0  0  0  0  0  # atno 17370 bound_to 10713
  156.2197  130.3673  149.8571 LP  0  0  0  0  0  0  0  0  0  0  0  0  # atno 17371 bound_to 10713
  139.9385  134.7830  156.0738 LP  0  0  0  0  0  0  0  0  0  0  0  0  # atno 17394 bound_to 11000
  141.1087  133.6651  156.2925 LP  0  0  0  0  0  0  0  0  0  0  0  0  # atno 17395 bound_to 11000

$$$$
