AV-unprocessed.smi:212|AV-procd|sdf|1626|dock10
  -GOLD-   2262019573D 1   1.00000     0.00000
 Structure written by MMmdl.
 65 68  0  0  0  0  0  0  0  0  2 V2000
  147.3823  131.7701  153.8920 C   0  0  0  0  0  0  0  0  0  0  0  0
  148.0407  133.0568  153.3654 C   0  0  1  0  0  0  0  0  0  0  0  0
  147.5386  133.4322  151.9547 C   0  0  0  0  0  0  0  0  0  0  0  0
  146.1473  133.9528  151.9884 N   0  3  2  0  0  0  0  0  0  0  0  0
  145.5797  134.2075  150.6384 C   0  0  0  0  0  0  0  0  0  0  0  0
  144.9049  132.9518  150.0410 C   0  0  0  0  0  0  0  0  0  0  0  0
  145.9608  132.0346  149.4016 C   0  0  0  0  0  0  0  0  0  0  0  0
  144.0860  132.1734  151.0878 C   0  0  0  0  0  0  0  0  0  0  0  0
  144.0338  133.3532  149.0017 O   0  0  0  0  0  0  0  0  0  0  0  0
  145.9980  135.1032  152.9150 C   0  0  0  0  0  0  0  0  0  0  0  0
  146.4965  134.7433  154.3265 C   0  0  0  0  0  0  0  0  0  0  0  0
  147.8473  134.1799  154.2866 N   0  0  0  0  0  0  0  0  0  0  0  0
  148.9092  135.0150  154.4383 C   0  0  0  0  0  0  0  0  0  0  0  0
  150.1595  134.5029  154.5925 N   0  0  0  0  0  0  0  0  0  0  0  0
  151.2086  135.3151  154.7536 C   0  0  0  0  0  0  0  0  0  0  0  0
  151.2330  136.6485  154.7892 N   0  0  0  0  0  0  0  0  0  0  0  0
  149.9835  137.1692  154.6277 C   0  0  0  0  0  0  0  0  0  0  0  0
  148.7789  136.4328  154.4469 C   0  0  0  0  0  0  0  0  0  0  0  0
  147.7076  137.3077  154.3034 N   0  0  0  0  0  0  0  0  0  0  0  0
  148.2476  138.4923  154.3993 C   0  0  0  0  0  0  0  0  0  0  0  0
  149.6089  138.5002  154.6034 N   0  0  0  0  0  0  0  0  0  0  0  0
  150.4652  139.6643  154.7442 C   0  0  0  0  0  0  0  0  0  0  0  0
  150.0498  140.5798  155.9261 C   0  0  2  0  0  0  0  0  0  0  0  0
  148.7506  141.3593  155.6129 C   0  0  0  0  0  0  0  0  0  0  0  0
  148.8896  142.1365  154.4418 O   0  0  0  0  0  0  0  0  0  0  0  0
  151.1982  141.5191  156.3930 C   0  0  1  0  0  0  0  0  0  0  0  0
  150.7227  142.6899  157.2585 C   0  0  0  0  0  0  0  0  0  0  0  0
  151.5847  142.6069  158.5173 C   0  0  0  0  0  0  0  0  0  0  0  0
  151.9584  141.2410  158.5827 O   0  0  0  0  0  0  0  0  0  0  0  0
  152.2756  140.8463  157.2581 C   0  0  0  0  0  0  0  0  0  0  0  0
  147.5869  130.9295  153.2288 H   0  0  0  0  0  0  0  0  0  0  0  0
  146.2996  131.8657  153.9747 H   0  0  0  0  0  0  0  0  0  0  0  0
  147.7702  131.5104  154.8773 H   0  0  0  0  0  0  0  0  0  0  0  0
  149.1043  132.8393  153.2692 H   0  0  0  0  0  0  0  0  0  0  0  0
  148.1895  134.1952  151.5240 H   0  0  0  0  0  0  0  0  0  0  0  0
  147.5948  132.5633  151.2975 H   0  0  0  0  0  0  0  0  0  0  0  0
  144.8692  135.0351  150.6783 H   0  0  0  0  0  0  0  0  0  0  0  0
  146.3676  134.5388  149.9598 H   0  0  0  0  0  0  0  0  0  0  0  0
  146.6752  131.6781  150.1444 H   0  0  0  0  0  0  0  0  0  0  0  0
  146.5252  132.5549  148.6268 H   0  0  0  0  0  0  0  0  0  0  0  0
  145.5030  131.1581  148.9410 H   0  0  0  0  0  0  0  0  0  0  0  0
  144.7145  131.8544  151.9201 H   0  0  0  0  0  0  0  0  0  0  0  0
  143.6378  131.2786  150.6539 H   0  0  0  0  0  0  0  0  0  0  0  0
  143.2741  132.7740  151.4993 H   0  0  0  0  0  0  0  0  0  0  0  0
  143.2740  133.7646  149.3864 H   0  0  0  0  0  0  0  0  0  0  0  0
  146.5553  135.9550  152.5230 H   0  0  0  0  0  0  0  0  0  0  0  0
  144.9517  135.4062  152.9641 H   0  0  0  0  0  0  0  0  0  0  0  0
  146.4538  135.6146  154.9816 H   0  0  0  0  0  0  0  0  0  0  0  0
  145.8296  134.0062  154.7739 H   0  0  0  0  0  0  0  0  0  0  0  0
  152.1651  134.8273  154.8707 H   0  0  0  0  0  0  0  0  0  0  0  0
  147.6633  139.3985  154.3282 H   0  0  0  0  0  0  0  0  0  0  0  0
  151.4865  139.3035  154.8626 H   0  0  0  0  0  0  0  0  0  0  0  0
  150.4474  140.2167  153.8044 H   0  0  0  0  0  0  0  0  0  0  0  0
  149.8212  139.9266  156.7700 H   0  0  0  0  0  0  0  0  0  0  0  0
  147.9038  140.6828  155.4987 H   0  0  0  0  0  0  0  0  0  0  0  0
  148.5009  142.0453  156.4216 H   0  0  0  0  0  0  0  0  0  0  0  0
  148.5666  143.0070  154.6178 H   0  0  0  0  0  0  0  0  0  0  0  0
  151.6865  141.9364  155.5118 H   0  0  0  0  0  0  0  0  0  0  0  0
  150.8455  143.6499  156.7559 H   0  0  0  0  0  0  0  0  0  0  0  0
  149.6678  142.5996  157.5168 H   0  0  0  0  0  0  0  0  0  0  0  0
  152.4793  143.2231  158.4156 H   0  0  0  0  0  0  0  0  0  0  0  0
  151.0511  142.9219  159.4144 H   0  0  0  0  0  0  0  0  0  0  0  0
  152.3114  139.7615  157.1596 H   0  0  0  0  0  0  0  0  0  0  0  0
  153.2643  141.2315  157.0023 H   0  0  0  0  0  0  0  0  0  0  0  0
  145.5875  133.2088  152.3801 H   0  0  0  0  0  0  0  0  0  0  0  0
  1  2  1  0  0  0  0
  1 31  1  0  0  0  0
  1 32  1  0  0  0  0
  1 33  1  0  0  0  0
  2 12  1  0  0  0  0
  2  3  1  0  0  0  0
  2 34  1  0  0  0  0
  3  4  1  0  0  0  0
  3 35  1  0  0  0  0
  3 36  1  0  0  0  0
  4  5  1  0  0  0  0
  4 10  1  0  0  0  0
  4 65  1  0  0  0  0
  5  6  1  0  0  0  0
  5 37  1  0  0  0  0
  5 38  1  0  0  0  0
  6  7  1  0  0  0  0
  6  8  1  0  0  0  0
  6  9  1  0  0  0  0
  7 39  1  0  0  0  0
  7 40  1  0  0  0  0
  7 41  1  0  0  0  0
  8 42  1  0  0  0  0
  8 43  1  0  0  0  0
  8 44  1  0  0  0  0
  9 45  1  0  0  0  0
 10 11  1  0  0  0  0
 10 46  1  0  0  0  0
 10 47  1  0  0  0  0
 11 12  1  0  0  0  0
 11 48  1  0  0  0  0
 11 49  1  0  0  0  0
 12 13  1  0  0  0  0
 13 18  1  0  0  0  0
 13 14  2  0  0  0  0
 14 15  1  0  0  0  0
 15 16  2  0  0  0  0
 15 50  1  0  0  0  0
 16 17  1  0  0  0  0
 17 21  1  0  0  0  0
 17 18  2  0  0  0  0
 18 19  1  0  0  0  0
 19 20  2  0  0  0  0
 20 21  1  0  0  0  0
 20 51  1  0  0  0  0
 21 22  1  0  0  0  0
 22 23  1  0  0  0  0
 22 52  1  0  0  0  0
 22 53  1  0  0  0  0
 23 24  1  0  0  0  0
 23 26  1  0  0  0  0
 23 54  1  0  0  0  0
 24 25  1  0  0  0  0
 24 55  1  0  0  0  0
 24 56  1  0  0  0  0
 25 57  1  0  0  0  0
 26 30  1  0  0  0  0
 26 27  1  0  0  0  0
 26 58  1  0  0  0  0
 27 28  1  0  0  0  0
 27 59  1  0  0  0  0
 27 60  1  0  0  0  0
 28 29  1  0  0  0  0
 28 61  1  0  0  0  0
 28 62  1  0  0  0  0
 29 30  1  0  0  0  0
 30 63  1  0  0  0  0
 30 64  1  0  0  0  0
M  CHG  1   4   1
M  END
> <s_m_source_file>
AV-unprocessed.smi

> <i_m_source_file_index>
212

> <i_lp_mmshare_version>
43012

> <i_f3d_flags>
0

> <s_epik_input>
W0NIM11bQ0BASF0xW0NIMl1OKFtDSDJdQyhbQ0gzXSkoW0NIM10pW09IXSlbQ0gyXVtDSDJdTjFjKG5bY0hdbjIpYyhjMjMpbltjSF1uM1tDSDJdW0NASF0oW0NIMl1bT0hdKVtDQEBIXTRbQ0gyXVtDSDJdT1tDSDJdNA==

> <s_epik_cmdline>
J2VwaWtfcHl0aG9uJywgJy1waCcsICc3LjAnLCAnLXRuJywgJzgnLCAnLW1hJywgJzIwMCcsICctbWV0YWxfYmluZGluZycsICctaW1hZScsICc8aW5maWxlLm1hZT4nLCAnLW9tYWUnLCAnPG91dGZpbGUubWFlPic=

> <r_lp_tautomer_probability>
1

> <r_epik_Ionization_Penalty>
0.00182193

> <r_epik_Ionization_Penalty_Charging>
0.00173996

> <r_epik_Ionization_Penalty_Neutral>
8.19718e-05

> <r_epik_State_Penalty>
-0

> <r_epik_Charging_Adjusted_Penalty>
0.00173996

> <i_epik_Tot_Q>
1

> <i_epik_Tot_abs_Q>
1

> <r_epik_Metal_State_Penalty>
-0

> <b_epik_Metal_Only>
0

> <s_lp_Force_Field>
OPLS_2005

> <r_lp_Energy>
61.088

> <b_lp_Chiralities_Consistent>
1

> <s_lp_Variant>
AV-unprocessed.smi:212-10

> <Gold.Version>
5.8.1

> <Gold.Id.Protein>
6NUR|6NUR_protein|mol2

> <Gold.PLP.Fitness>
45.3043

> <Gold.PLP.PLP>
-41.2146

> <Gold.PLP.part.hbond>
-4.1847

> <Gold.PLP.part.metal>
0.0000

> <Gold.PLP.part.buried>
-3.8615

> <Gold.PLP.part.nonpolar>
-32.5048

> <Gold.PLP.part.repulsive>
0.3539

> <Gold.PLP.ligand.clash>
0.0000

> <Gold.PLP.ligand.torsion>
1.6555

> <Gold.PLP.Chemscore.Hbond>
2.1030

> <Gold.PLP.Chemscore.CHOScore>
0.0000

> <Gold.PLP.Chemscore.Metal>
0.0000

> <Gold.Chemscore.Hbonds>
donor molecule, donor type, donor heavy atom, donor atom, acceptor molecule, acceptor atom, score
      L1  H     9    45       P1 10186  0.18
      L1  H    25    57       P1  8028  0.93
      P1  H  8011  8017       L1    25  0.10

> <Gold.PLP.Chemscore.Internal.Correction>
1.0919

> <Gold.Rescore>
     Score         DG    S(hbond)    S(metal)    S(lipo)     H(rot)  DE(clash)    DE(int)     intcor
     11.36     -14.97       1.96        0.00      99.63       3.40       0.52       3.08       ----

> <Gold.Chemscore.Fitness>
11.3642

> <Gold.Chemscore.DG>
-14.9664

> <Gold.Chemscore.ZeroCoef>
-5.4800

> <Gold.Chemscore.Hbond>
1.9552

> <Gold.Chemscore.Metal>
0.0000

> <Gold.Chemscore.Lipo>
99.6286

> <Gold.Chemscore.Internal_Hbond>
0.0000

> <Gold.Chemscore.DEClash>
0.5194

> <Gold.Chemscore.DEInternal>
3.0828

> <Gold.Chemscore.Rot>
3.3986

> <Gold.Chemscore.Internal.Correction>
   9.000000E+99

> <Gold.Chemscore.Hbonds>
donor molecule, donor type, donor heavy atom, donor atom, acceptor molecule, acceptor atom, score
      L1  H     9    45       P1 10186  0.19
      L1  H    25    57       P1  8028  0.86
      P1  H  8011  8017       L1    25  0.03

> <Gold.Chemscore.Hbond.Weighted>
-6.5303

> <Gold.Chemscore.Metal.Weighted>
-0.0000

> <Gold.Chemscore.Lipo.Weighted>
-11.6565

> <Gold.Chemscore.Internal_Hbond.Weighted>
0.0000

> <Gold.Chemscore.DEClash.Weighted>
0.5194

> <Gold.Chemscore.DEInternal.Weighted>
3.0828

> <Gold.Chemscore.Rot.Weighted>
8.7005

> <Gold.Chemscore.Internal.Correction.Weighted>
   9.000000E+99

> <Gold.Protein.RotatedTorsions>
[ 6907 6896 6895 6894 ] final  -39.01 input  -60.11 | X-H torsion
[ 7974 7965 7964 7962 ] final  106.28 input  175.53 | X-H torsion
[ 8008 7997 7996 7995 ] final  -34.51 input   59.86 | X-H torsion
[ 10167 10162 10161 10158 ] final  103.80 input  -65.29 | X-H torsion
[ 10718 10713 10712 10709 ] final   11.74 input   66.30 | X-H torsion
[ 10763 10752 10751 10750 ] final  -25.58 input  -60.55 | X-H torsion
[ 11005 11000 10999 10996 ] final  159.08 input  -57.11 | X-H torsion

> <Gold.Protein.ActiveResidues>
 VAL166  LYS551  ARG553  GLY616  TRP617  ASP618  TYR619  PRO620  LYS621  CYS622 
 ASP623  PHE694  ASN695  SER759  ASP760  ASP761  ALA762  ILE779  LEU786  VAL792 
 PHE793  MET794  SER795  GLU796  ALA797  LYS798  CYS799  TRP800  GLU811  SER814 

> <Gold.Protein.RotatedAtoms>
  150.9955  134.9280  159.7923 H   0  0  0  0  0  0  0  0  0  0  0  0  # atno 6907 bound_to 6896
  152.5263  134.3224  159.9163 H   0  0  0  0  0  0  0  0  0  0  0  0  # atno 6908 bound_to 6896
  151.3229  133.3991  159.2690 H   0  0  0  0  0  0  0  0  0  0  0  0  # atno 6909 bound_to 6896
  145.3087  139.2547  143.3774 H   0  0  0  0  0  0  0  0  0  0  0  0  # atno 7974 bound_to 7965
  154.4119  140.1682  156.2061 H   0  0  0  0  0  0  0  0  0  0  0  0  # atno 8008 bound_to 7997
  155.9483  140.3403  155.6363 H   0  0  0  0  0  0  0  0  0  0  0  0  # atno 8009 bound_to 7997
  155.6902  140.0733  157.2442 H   0  0  0  0  0  0  0  0  0  0  0  0  # atno 8010 bound_to 7997
  139.7231  144.7053  151.0840 H   0  0  0  0  0  0  0  0  0  0  0  0  # atno 10167 bound_to 10162
  156.9999  130.6075  149.5695 H   0  0  0  0  0  0  0  0  0  0  0  0  # atno 10718 bound_to 10713
  153.7022  135.6955  153.5060 H   0  0  0  0  0  0  0  0  0  0  0  0  # atno 10763 bound_to 10752
  153.2334  135.4330  155.0619 H   0  0  0  0  0  0  0  0  0  0  0  0  # atno 10764 bound_to 10752
  154.8341  135.3490  154.6561 H   0  0  0  0  0  0  0  0  0  0  0  0  # atno 10765 bound_to 10752
  140.1927  134.8395  157.2930 H   0  0  0  0  0  0  0  0  0  0  0  0  # atno 11005 bound_to 11000
  146.3126  140.3618  142.8665 LP  0  0  0  0  0  0  0  0  0  0  0  0  # atno 17320 bound_to 7965
  144.9033  140.7670  143.5853 LP  0  0  0  0  0  0  0  0  0  0  0  0  # atno 17321 bound_to 7965
  140.7757  143.5140  150.9618 LP  0  0  0  0  0  0  0  0  0  0  0  0  # atno 17342 bound_to 10162
  139.8827  143.7052  152.3155 LP  0  0  0  0  0  0  0  0  0  0  0  0  # atno 17343 bound_to 10162
  156.0175  130.5269  150.8177 LP  0  0  0  0  0  0  0  0  0  0  0  0  # atno 17370 bound_to 10713
  157.5397  131.0940  150.9844 LP  0  0  0  0  0  0  0  0  0  0  0  0  # atno 17371 bound_to 10713
  140.2142  134.4102  155.7598 LP  0  0  0  0  0  0  0  0  0  0  0  0  # atno 17394 bound_to 11000
  141.2226  133.7133  156.8386 LP  0  0  0  0  0  0  0  0  0  0  0  0  # atno 17395 bound_to 11000

$$$$
