AV-unprocessed.smi:240|AV-procd|sdf|1828|dock5
  -GOLD-   2262020433D 1   1.00000     0.00000
 Structure written by MMmdl.
 55 59  0  0  0  0  0  0  0  0  1 V2000
  149.2176  136.7362  163.1410 O   0  0  0  0  0  0  0  0  0  0  0  0
  147.8897  136.7532  162.6598 C   0  0  2  0  0  0  0  0  0  0  0  0
  146.9749  137.5112  163.6201 C   0  0  0  0  0  0  0  0  0  0  0  0
  145.5779  137.0189  163.2500 C   0  0  0  0  0  0  0  0  0  0  0  0
  145.7579  135.5530  162.8321 C   0  0  0  0  0  0  0  0  0  0  0  0
  147.2668  135.3438  162.5777 C   0  0  1  0  0  0  0  0  0  0  0  0
  147.5951  134.4991  161.3045 C   0  0  1  0  0  0  0  0  0  0  0  0
  147.2412  132.9964  161.4614 C   0  0  0  0  0  0  0  0  0  0  0  0
  147.5938  132.2817  160.2842 O   0  0  0  0  0  0  0  0  0  0  0  0
  146.8544  132.7361  159.1594 C   0  0  0  0  0  0  0  0  0  0  0  0
  147.2068  134.2053  158.8951 C   0  0  0  0  0  0  0  0  0  0  0  0
  146.9629  135.0204  160.0817 N   0  0  0  0  0  0  0  0  0  0  0  0
  147.1627  136.3255  159.7797 C   0  0  0  0  0  0  0  0  0  0  0  0
  146.1594  137.2298  159.9374 N   0  0  0  0  0  0  0  0  0  0  0  0
  146.3660  138.5158  159.6385 C   0  0  0  0  0  0  0  0  0  0  0  0
  147.4774  139.0992  159.1837 N   0  0  0  0  0  0  0  0  0  0  0  0
  148.4903  138.1961  159.0429 C   0  0  0  0  0  0  0  0  0  0  0  0
  148.4188  136.8031  159.3216 C   0  0  0  0  0  0  0  0  0  0  0  0
  149.6424  136.2003  159.0617 N   0  0  0  0  0  0  0  0  0  0  0  0
  150.3941  137.1812  158.6421 C   0  0  0  0  0  0  0  0  0  0  0  0
  149.7851  138.4162  158.6055 N   0  0  0  0  0  0  0  0  0  0  0  0
  150.3828  139.6717  158.1764 C   0  0  0  0  0  0  0  0  0  0  0  0
  150.8839  139.6523  156.7134 C   0  0  1  0  0  0  0  0  0  0  0  0
  152.2837  139.4295  156.7118 O   0  0  0  0  0  0  0  0  0  0  0  0
  150.2256  138.5645  155.8746 C   0  0  0  0  0  0  0  0  0  0  0  0
  150.2761  139.1486  154.4694 C   0  0  0  0  0  0  0  0  0  0  0  0
  149.9891  140.5201  154.6844 O   0  0  0  0  0  0  0  0  0  0  0  0
  150.5915  140.9351  155.9072 C   0  0  0  0  0  0  0  0  0  0  0  0
  149.1981  136.5793  164.0727 H   0  0  0  0  0  0  0  0  0  0  0  0
  147.8705  137.2577  161.6955 H   0  0  0  0  0  0  0  0  0  0  0  0
  147.1952  137.2354  164.6526 H   0  0  0  0  0  0  0  0  0  0  0  0
  147.0762  138.5935  163.5339 H   0  0  0  0  0  0  0  0  0  0  0  0
  144.8651  137.1366  164.0666 H   0  0  0  0  0  0  0  0  0  0  0  0
  145.2047  137.5943  162.4017 H   0  0  0  0  0  0  0  0  0  0  0  0
  145.4245  134.8882  163.6300 H   0  0  0  0  0  0  0  0  0  0  0  0
  145.1381  135.3264  161.9660 H   0  0  0  0  0  0  0  0  0  0  0  0
  147.6125  134.8010  163.4577 H   0  0  0  0  0  0  0  0  0  0  0  0
  148.6738  134.5538  161.1496 H   0  0  0  0  0  0  0  0  0  0  0  0
  147.7796  132.5479  162.2945 H   0  0  0  0  0  0  0  0  0  0  0  0
  146.1802  132.8432  161.6560 H   0  0  0  0  0  0  0  0  0  0  0  0
  147.1122  132.1265  158.2935 H   0  0  0  0  0  0  0  0  0  0  0  0
  145.7834  132.6130  159.3304 H   0  0  0  0  0  0  0  0  0  0  0  0
  148.2566  134.2863  158.6082 H   0  0  0  0  0  0  0  0  0  0  0  0
  146.6151  134.5755  158.0562 H   0  0  0  0  0  0  0  0  0  0  0  0
  145.5194  139.1705  159.7834 H   0  0  0  0  0  0  0  0  0  0  0  0
  151.4226  137.0298  158.3476 H   0  0  0  0  0  0  0  0  0  0  0  0
  149.6465  140.4650  158.3130 H   0  0  0  0  0  0  0  0  0  0  0  0
  151.2077  139.9034  158.8512 H   0  0  0  0  0  0  0  0  0  0  0  0
  152.4689  138.6887  157.2688 H   0  0  0  0  0  0  0  0  0  0  0  0
  150.7124  137.5915  155.9537 H   0  0  0  0  0  0  0  0  0  0  0  0
  149.1826  138.4384  156.1686 H   0  0  0  0  0  0  0  0  0  0  0  0
  151.2723  139.0451  154.0372 H   0  0  0  0  0  0  0  0  0  0  0  0
  149.5562  138.6876  153.7931 H   0  0  0  0  0  0  0  0  0  0  0  0
  149.8897  141.5938  156.4175 H   0  0  0  0  0  0  0  0  0  0  0  0
  151.4945  141.5137  155.7061 H   0  0  0  0  0  0  0  0  0  0  0  0
  1  2  1  0  0  0  0
  1 29  1  0  0  0  0
  2  6  1  0  0  0  0
  2  3  1  0  0  0  0
  2 30  1  0  0  0  0
  3  4  1  0  0  0  0
  3 31  1  0  0  0  0
  3 32  1  0  0  0  0
  4  5  1  0  0  0  0
  4 33  1  0  0  0  0
  4 34  1  0  0  0  0
  5  6  1  0  0  0  0
  5 35  1  0  0  0  0
  5 36  1  0  0  0  0
  6  7  1  0  0  0  0
  6 37  1  0  0  0  0
  7 12  1  0  0  0  0
  7  8  1  0  0  0  0
  7 38  1  0  0  0  0
  8  9  1  0  0  0  0
  8 39  1  0  0  0  0
  8 40  1  0  0  0  0
  9 10  1  0  0  0  0
 10 11  1  0  0  0  0
 10 41  1  0  0  0  0
 10 42  1  0  0  0  0
 11 12  1  0  0  0  0
 11 43  1  0  0  0  0
 11 44  1  0  0  0  0
 12 13  1  0  0  0  0
 13 18  1  0  0  0  0
 13 14  2  0  0  0  0
 14 15  1  0  0  0  0
 15 16  2  0  0  0  0
 15 45  1  0  0  0  0
 16 17  1  0  0  0  0
 17 21  1  0  0  0  0
 17 18  2  0  0  0  0
 18 19  1  0  0  0  0
 19 20  2  0  0  0  0
 20 21  1  0  0  0  0
 20 46  1  0  0  0  0
 21 22  1  0  0  0  0
 22 23  1  0  0  0  0
 22 47  1  0  0  0  0
 22 48  1  0  0  0  0
 23 28  1  0  0  0  0
 23 24  1  0  0  0  0
 23 25  1  0  0  0  0
 24 49  1  0  0  0  0
 25 26  1  0  0  0  0
 25 50  1  0  0  0  0
 25 51  1  0  0  0  0
 26 27  1  0  0  0  0
 26 52  1  0  0  0  0
 26 53  1  0  0  0  0
 27 28  1  0  0  0  0
 28 54  1  0  0  0  0
 28 55  1  0  0  0  0
M  END
> <s_m_source_file>
AV-unprocessed.smi

> <i_m_source_file_index>
240

> <i_lp_mmshare_version>
43012

> <i_f3d_flags>
0

> <s_epik_input>
W09IXVtDQEBIXTFbQ0gyXVtDSDJdW0NIMl1bQ0BIXTFbQ0BASF0yW0NIMl1PW0NIMl1bQ0gyXU4yYyhuW2NIXW4zKWMoYzM0KW5bY0hdbjRbQ0gyXVtDQEBdNShbT0hdKVtDSDJdW0NIMl1PW0NIMl01

> <s_epik_cmdline>
J2VwaWtfcHl0aG9uJywgJy1waCcsICc3LjAnLCAnLXRuJywgJzgnLCAnLW1hJywgJzIwMCcsICctbWV0YWxfYmluZGluZycsICctaW1hZScsICc8aW5maWxlLm1hZT4nLCAnLW9tYWUnLCAnPG91dGZpbGUubWFlPic=

> <r_lp_tautomer_probability>
1

> <r_epik_Ionization_Penalty>
0.000130618

> <r_epik_Ionization_Penalty_Charging>
0

> <r_epik_Ionization_Penalty_Neutral>
0.000130618

> <r_epik_State_Penalty>
-0

> <r_epik_Charging_Adjusted_Penalty>
0

> <i_epik_Tot_Q>
0

> <i_epik_Tot_abs_Q>
0

> <r_epik_Metal_State_Penalty>
-0

> <b_epik_Metal_Only>
0

> <s_lp_Force_Field>
OPLS_2005

> <r_lp_Energy>
59.9569

> <b_lp_Chiralities_Consistent>
1

> <s_lp_Variant>
AV-unprocessed.smi:240-5

> <Gold.Version>
5.8.1

> <Gold.Id.Protein>
6NUR|6NUR_protein|mol2

> <Gold.PLP.Fitness>
48.8170

> <Gold.PLP.PLP>
-39.6957

> <Gold.PLP.part.hbond>
-4.9476

> <Gold.PLP.part.metal>
0.0000

> <Gold.PLP.part.buried>
-6.2932

> <Gold.PLP.part.nonpolar>
-29.3037

> <Gold.PLP.part.repulsive>
0.0896

> <Gold.PLP.ligand.clash>
0.0000

> <Gold.PLP.ligand.torsion>
1.0965

> <Gold.PLP.Chemscore.Hbond>
3.7040

> <Gold.PLP.Chemscore.CHOScore>
0.0000

> <Gold.PLP.Chemscore.Metal>
0.0000

> <Gold.Chemscore.Hbonds>
donor molecule, donor type, donor heavy atom, donor atom, acceptor molecule, acceptor atom, score
      P1  H  6896  6907       L1    19  1.00
      P1  H  7989  7998       L1    27  0.22
      P1  H  7997  8009       L1    24  0.54

> <Gold.PLP.Chemscore.Internal.Correction>
0.2023

> <Gold.Rescore>
     Score         DG    S(hbond)    S(metal)    S(lipo)     H(rot)  DE(clash)    DE(int)     intcor
     13.53     -16.67       2.81        0.00      81.22       3.00       0.14       3.01       ----

> <Gold.Chemscore.Fitness>
13.5285

> <Gold.Chemscore.DG>
-16.6699

> <Gold.Chemscore.ZeroCoef>
-5.4800

> <Gold.Chemscore.Hbond>
2.8075

> <Gold.Chemscore.Metal>
0.0000

> <Gold.Chemscore.Lipo>
81.2208

> <Gold.Chemscore.Internal_Hbond>
0.0000

> <Gold.Chemscore.DEClash>
0.1359

> <Gold.Chemscore.DEInternal>
3.0056

> <Gold.Chemscore.Rot>
3.0039

> <Gold.Chemscore.Internal.Correction>
   9.000000E+99

> <Gold.Chemscore.Hbonds>
donor molecule, donor type, donor heavy atom, donor atom, acceptor molecule, acceptor atom, score
      P1  H  6896  6907       L1    19  0.40
      P1  H  7997  8009       L1    24  0.09

> <Gold.Chemscore.Hbond.Weighted>
-9.3770

> <Gold.Chemscore.Metal.Weighted>
-0.0000

> <Gold.Chemscore.Lipo.Weighted>
-9.5028

> <Gold.Chemscore.Internal_Hbond.Weighted>
0.0000

> <Gold.Chemscore.DEClash.Weighted>
0.1359

> <Gold.Chemscore.DEInternal.Weighted>
3.0056

> <Gold.Chemscore.Rot.Weighted>
7.6899

> <Gold.Chemscore.Internal.Correction.Weighted>
   9.000000E+99

> <Gold.Protein.RotatedTorsions>
[ 6907 6896 6895 6894 ] final  -42.88 input  -60.11 | X-H torsion
[ 7974 7965 7964 7962 ] final   76.07 input  175.53 | X-H torsion
[ 8008 7997 7996 7995 ] final -169.36 input   59.86 | X-H torsion
[ 10167 10162 10161 10158 ] final  -35.52 input  -65.29 | X-H torsion
[ 10718 10713 10712 10709 ] final  -52.28 input   66.30 | X-H torsion
[ 10763 10752 10751 10750 ] final -117.83 input  -60.55 | X-H torsion
[ 11005 11000 10999 10996 ] final  -91.50 input  -57.11 | X-H torsion

> <Gold.Protein.ActiveResidues>
 VAL166  LYS551  ARG553  GLY616  TRP617  ASP618  TYR619  PRO620  LYS621  CYS622 
 ASP623  PHE694  ASN695  SER759  ASP760  ASP761  ALA762  ILE779  LEU786  VAL792 
 PHE793  MET794  SER795  GLU796  ALA797  LYS798  CYS799  TRP800  GLU811  SER814 

> <Gold.Protein.RotatedAtoms>
  150.9502  134.8902  159.7666 H   0  0  0  0  0  0  0  0  0  0  0  0  # atno 6907 bound_to 6896
  152.5116  134.3818  159.9363 H   0  0  0  0  0  0  0  0  0  0  0  0  # atno 6908 bound_to 6896
  151.3834  133.3773  159.2747 H   0  0  0  0  0  0  0  0  0  0  0  0  # atno 6909 bound_to 6896
  145.7076  139.2603  143.1669 H   0  0  0  0  0  0  0  0  0  0  0  0  # atno 7974 bound_to 7965
  155.9038  140.1045  157.1330 H   0  0  0  0  0  0  0  0  0  0  0  0  # atno 8008 bound_to 7997
  154.4030  140.1287  156.4535 H   0  0  0  0  0  0  0  0  0  0  0  0  # atno 8009 bound_to 7997
  155.7391  140.3467  155.5098 H   0  0  0  0  0  0  0  0  0  0  0  0  # atno 8010 bound_to 7997
  140.7163  143.3472  151.2232 H   0  0  0  0  0  0  0  0  0  0  0  0  # atno 10167 bound_to 10162
  156.1635  130.4149  149.9756 H   0  0  0  0  0  0  0  0  0  0  0  0  # atno 10718 bound_to 10713
  154.8568  135.4295  154.2042 H   0  0  0  0  0  0  0  0  0  0  0  0  # atno 10763 bound_to 10752
  153.3082  135.6974  153.7146 H   0  0  0  0  0  0  0  0  0  0  0  0  # atno 10764 bound_to 10752
  153.6249  135.3495  155.2997 H   0  0  0  0  0  0  0  0  0  0  0  0  # atno 10765 bound_to 10752
  141.1543  133.7759  156.9888 H   0  0  0  0  0  0  0  0  0  0  0  0  # atno 11005 bound_to 11000
  146.0742  140.7836  142.9673 LP  0  0  0  0  0  0  0  0  0  0  0  0  # atno 17320 bound_to 7965
  144.6951  140.3388  143.7203 LP  0  0  0  0  0  0  0  0  0  0  0  0  # atno 17321 bound_to 7965
  139.6994  143.9558  152.2898 LP  0  0  0  0  0  0  0  0  0  0  0  0  # atno 17342 bound_to 10162
  139.9246  144.6778  150.8425 LP  0  0  0  0  0  0  0  0  0  0  0  0  # atno 17343 bound_to 10162
  156.7578  130.9139  151.3640 LP  0  0  0  0  0  0  0  0  0  0  0  0  # atno 17370 bound_to 10713
  157.6750  130.9086  150.0129 LP  0  0  0  0  0  0  0  0  0  0  0  0  # atno 17371 bound_to 10713
  140.1017  134.9531  157.1933 LP  0  0  0  0  0  0  0  0  0  0  0  0  # atno 17394 bound_to 11000
  140.3310  134.2810  155.7228 LP  0  0  0  0  0  0  0  0  0  0  0  0  # atno 17395 bound_to 11000

$$$$
