AV-unprocessed.smi:2106|AV-procd|sdf|8596|dock1
  -GOLD-   2272011333D 1   1.00000     0.00000
 Structure written by MMmdl.
 48 49  0  0  0  0  0  0  0  0  2 V2000
  151.2845  145.1672  158.8079 C   0  0  0  0  0  0  0  0  0  0  0  0
  151.8695  143.9042  159.3674 C   0  0  0  0  0  0  0  0  0  0  0  0
  152.7109  143.7522  160.5046 C   0  0  0  0  0  0  0  0  0  0  0  0
  152.9499  142.4087  160.5710 C   0  0  0  0  0  0  0  0  0  0  0  0
  153.7644  141.6241  161.5462 C   0  0  0  0  0  0  0  0  0  0  0  0
  152.2703  141.8276  159.5147 N   0  0  0  0  0  0  0  0  0  0  0  0
  152.1835  140.4253  159.1388 C   0  0  0  0  0  0  0  0  0  0  0  0
  152.2651  140.2575  157.6208 C   0  0  0  0  0  0  0  0  0  0  0  0
  153.0759  139.4721  157.1300 O   0  0  0  0  0  0  0  0  0  0  0  0
  151.4179  140.9976  156.8886 N   0  0  0  0  0  0  0  0  0  0  0  0
  151.3064  140.9518  155.4353 C   0  0  0  0  0  0  0  0  0  0  0  0
  150.5405  139.7018  154.9582 C   0  0  0  0  0  0  0  0  0  0  0  0
  149.4639  140.0235  153.9880 N   0  3  1  0  0  0  0  0  0  0  0  0
  148.6013  138.8522  153.7017 C   0  0  0  0  0  0  0  0  0  0  0  0
  147.5324  139.2062  152.6505 C   0  0  1  0  0  0  0  0  0  0  0  0
  146.5689  138.0430  152.3906 C   0  0  0  0  0  0  0  0  0  0  0  0
  146.7709  140.3135  153.1185 O   0  0  0  0  0  0  0  0  0  0  0  0
  147.5634  141.4791  153.3142 C   0  0  1  0  0  0  0  0  0  0  0  0
  146.6328  142.6253  153.7259 C   0  0  0  0  0  0  0  0  0  0  0  0
  148.6333  141.1881  154.3836 C   0  0  0  0  0  0  0  0  0  0  0  0
  151.6092  142.7484  158.7788 N   0  0  0  0  0  0  0  0  0  0  0  0
  151.6190  146.0388  159.3710 H   0  0  0  0  0  0  0  0  0  0  0  0
  150.1953  145.1460  158.8465 H   0  0  0  0  0  0  0  0  0  0  0  0
  151.5800  145.3110  157.7683 H   0  0  0  0  0  0  0  0  0  0  0  0
  153.0827  144.5152  161.1723 H   0  0  0  0  0  0  0  0  0  0  0  0
  154.1921  142.2759  162.3080 H   0  0  0  0  0  0  0  0  0  0  0  0
  154.5855  141.1121  161.0443 H   0  0  0  0  0  0  0  0  0  0  0  0
  153.1541  140.8755  162.0511 H   0  0  0  0  0  0  0  0  0  0  0  0
  152.9862  139.8688  159.6259 H   0  0  0  0  0  0  0  0  0  0  0  0
  151.2451  140.0114  159.5092 H   0  0  0  0  0  0  0  0  0  0  0  0
  150.7831  141.6120  157.3788 H   0  0  0  0  0  0  0  0  0  0  0  0
  150.8281  141.8700  155.0935 H   0  0  0  0  0  0  0  0  0  0  0  0
  152.3143  140.9518  155.0191 H   0  0  0  0  0  0  0  0  0  0  0  0
  151.2549  139.0271  154.4839 H   0  0  0  0  0  0  0  0  0  0  0  0
  150.1144  139.1561  155.8013 H   0  0  0  0  0  0  0  0  0  0  0  0
  149.2124  138.0250  153.3386 H   0  0  0  0  0  0  0  0  0  0  0  0
  148.1255  138.5180  154.6253 H   0  0  0  0  0  0  0  0  0  0  0  0
  148.0157  139.4740  151.7092 H   0  0  0  0  0  0  0  0  0  0  0  0
  147.1017  137.1655  152.0236 H   0  0  0  0  0  0  0  0  0  0  0  0
  145.8232  138.3149  151.6432 H   0  0  0  0  0  0  0  0  0  0  0  0
  146.0394  137.7572  153.3001 H   0  0  0  0  0  0  0  0  0  0  0  0
  148.0470  141.7468  152.3729 H   0  0  0  0  0  0  0  0  0  0  0  0
  147.1914  143.5488  153.8802 H   0  0  0  0  0  0  0  0  0  0  0  0
  146.1064  142.3942  154.6525 H   0  0  0  0  0  0  0  0  0  0  0  0
  145.8844  142.8153  152.9562 H   0  0  0  0  0  0  0  0  0  0  0  0
  148.1587  140.9863  155.3454 H   0  0  0  0  0  0  0  0  0  0  0  0
  149.2548  142.0731  154.5139 H   0  0  0  0  0  0  0  0  0  0  0  0
  149.9175  140.2631  153.1179 H   0  0  0  0  0  0  0  0  0  0  0  0
  1  2  1  0  0  0  0
  1 22  1  0  0  0  0
  1 23  1  0  0  0  0
  1 24  1  0  0  0  0
  2 21  2  0  0  0  0
  2  3  1  0  0  0  0
  3  4  2  0  0  0  0
  3 25  1  0  0  0  0
  4  5  1  0  0  0  0
  4  6  1  0  0  0  0
  5 26  1  0  0  0  0
  5 27  1  0  0  0  0
  5 28  1  0  0  0  0
  6  7  1  0  0  0  0
  6 21  1  0  0  0  0
  7  8  1  0  0  0  0
  7 29  1  0  0  0  0
  7 30  1  0  0  0  0
  8  9  2  0  0  0  0
  8 10  1  0  0  0  0
 10 11  1  0  0  0  0
 10 31  1  0  0  0  0
 11 12  1  0  0  0  0
 11 32  1  0  0  0  0
 11 33  1  0  0  0  0
 12 13  1  0  0  0  0
 12 34  1  0  0  0  0
 12 35  1  0  0  0  0
 13 20  1  0  0  0  0
 13 14  1  0  0  0  0
 13 48  1  0  0  0  0
 14 15  1  0  0  0  0
 14 36  1  0  0  0  0
 14 37  1  0  0  0  0
 15 16  1  0  0  0  0
 15 17  1  0  0  0  0
 15 38  1  0  0  0  0
 16 39  1  0  0  0  0
 16 40  1  0  0  0  0
 16 41  1  0  0  0  0
 17 18  1  0  0  0  0
 18 19  1  0  0  0  0
 18 20  1  0  0  0  0
 18 42  1  0  0  0  0
 19 43  1  0  0  0  0
 19 44  1  0  0  0  0
 19 45  1  0  0  0  0
 20 46  1  0  0  0  0
 20 47  1  0  0  0  0
M  CHG  1  13   1
M  END
> <s_m_source_file>
AV-unprocessed.smi

> <i_m_source_file_index>
2106

> <i_lp_mmshare_version>
43012

> <i_f3d_flags>
0

> <s_epik_input>
W0NIM11jMVtjSF1jKFtDSDNdKW4objEpW0NIMl1DKD1PKVtOSF1bQ0gyXVtDSDJdTjJbQ0gyXVtDQEBIXShbQ0gzXSlPW0NAQEhdKFtDSDNdKVtDSDJdMg==

> <s_epik_cmdline>
J2VwaWtfcHl0aG9uJywgJy1waCcsICc3LjAnLCAnLXRuJywgJzgnLCAnLW1hJywgJzIwMCcsICctbWV0YWxfYmluZGluZycsICctaW1hZScsICc8aW5maWxlLm1hZT4nLCAnLW9tYWUnLCAnPG91dGZpbGUubWFlPic=

> <r_lp_tautomer_probability>
1

> <r_epik_Ionization_Penalty>
0.748586

> <r_epik_Ionization_Penalty_Charging>
0.748396

> <r_epik_Ionization_Penalty_Neutral>
0.000189656

> <r_epik_State_Penalty>
0.775162

> <r_epik_Charging_Adjusted_Penalty>
1.52356

> <i_epik_Tot_Q>
1

> <i_epik_Tot_abs_Q>
1

> <r_epik_Metal_State_Penalty>
0.775295

> <b_epik_Metal_Only>
0

> <s_lp_Force_Field>
OPLS_2005

> <r_lp_Energy>
12.4658

> <b_lp_Chiralities_Consistent>
1

> <s_lp_Variant>
AV-unprocessed.smi:2106-4

> <Gold.Version>
5.8.1

> <Gold.Id.Protein>
6NUR|6NUR_protein|mol2

> <Gold.PLP.Fitness>
47.6514

> <Gold.PLP.PLP>
-44.1238

> <Gold.PLP.part.hbond>
-1.9589

> <Gold.PLP.part.metal>
0.0000

> <Gold.PLP.part.buried>
-4.4994

> <Gold.PLP.part.nonpolar>
-38.0442

> <Gold.PLP.part.repulsive>
1.4976

> <Gold.PLP.ligand.clash>
0.0000

> <Gold.PLP.ligand.torsion>
0.8598

> <Gold.PLP.Chemscore.Hbond>
1.7296

> <Gold.PLP.Chemscore.CHOScore>
0.0000

> <Gold.PLP.Chemscore.Metal>
0.0000

> <Gold.Chemscore.Hbonds>
donor molecule, donor type, donor heavy atom, donor atom, acceptor molecule, acceptor atom, score
      L1  H    13    48       P1  7957  0.78
      P1  H  7997  8010       L1     9  0.98

> <Gold.PLP.Chemscore.Internal.Correction>
0.0584

> <Gold.Rescore>
     Score         DG    S(hbond)    S(metal)    S(lipo)     H(rot)  DE(clash)    DE(int)     intcor
     16.52     -19.58       1.38        0.00     118.84       1.73       0.49       2.57       ----

> <Gold.Chemscore.Fitness>
16.5195

> <Gold.Chemscore.DG>
-19.5759

> <Gold.Chemscore.ZeroCoef>
-5.4800

> <Gold.Chemscore.Hbond>
1.3845

> <Gold.Chemscore.Metal>
0.0000

> <Gold.Chemscore.Lipo>
118.8432

> <Gold.Chemscore.Internal_Hbond>
0.0000

> <Gold.Chemscore.DEClash>
0.4891

> <Gold.Chemscore.DEInternal>
2.5673

> <Gold.Chemscore.Rot>
1.7316

> <Gold.Chemscore.Internal.Correction>
   9.000000E+99

> <Gold.Chemscore.Hbonds>
donor molecule, donor type, donor heavy atom, donor atom, acceptor molecule, acceptor atom, score
      L1  H    13    48       P1  7957  0.75
      P1  H  7997  8010       L1     9  0.85

> <Gold.Chemscore.Hbond.Weighted>
-4.6242

> <Gold.Chemscore.Metal.Weighted>
-0.0000

> <Gold.Chemscore.Lipo.Weighted>
-13.9047

> <Gold.Chemscore.Internal_Hbond.Weighted>
0.0000

> <Gold.Chemscore.DEClash.Weighted>
0.4891

> <Gold.Chemscore.DEInternal.Weighted>
2.5673

> <Gold.Chemscore.Rot.Weighted>
4.4330

> <Gold.Chemscore.Internal.Correction.Weighted>
   9.000000E+99

> <Gold.Protein.RotatedTorsions>
[ 6907 6896 6895 6894 ] final   43.08 input  -60.11 | X-H torsion
[ 7974 7965 7964 7962 ] final  -11.78 input  175.53 | X-H torsion
[ 8008 7997 7996 7995 ] final   50.24 input   59.86 | X-H torsion
[ 10167 10162 10161 10158 ] final -173.33 input  -65.29 | X-H torsion
[ 10718 10713 10712 10709 ] final -129.19 input   66.30 | X-H torsion
[ 10763 10752 10751 10750 ] final  139.01 input  -60.55 | X-H torsion
[ 11005 11000 10999 10996 ] final  -38.75 input  -57.11 | X-H torsion

> <Gold.Protein.ActiveResidues>
 VAL166  LYS551  ARG553  GLY616  TRP617  ASP618  TYR619  PRO620  LYS621  CYS622 
 ASP623  PHE694  ASN695  SER759  ASP760  ASP761  ALA762  ILE779  LEU786  VAL792 
 PHE793  MET794  SER795  GLU796  ALA797  LYS798  CYS799  TRP800  GLU811  SER814 

> <Gold.Protein.RotatedAtoms>
  152.2158  134.8459  160.0491 H   0  0  0  0  0  0  0  0  0  0  0  0  # atno 6907 bound_to 6896
  151.9260  133.3593  159.3922 H   0  0  0  0  0  0  0  0  0  0  0  0  # atno 6908 bound_to 6896
  150.6987  134.4511  159.5380 H   0  0  0  0  0  0  0  0  0  0  0  0  # atno 6909 bound_to 6896
  146.2175  140.2961  142.8372 H   0  0  0  0  0  0  0  0  0  0  0  0  # atno 7974 bound_to 7965
  155.4155  140.3444  155.4267 H   0  0  0  0  0  0  0  0  0  0  0  0  # atno 8008 bound_to 7997
  156.1424  140.1546  156.8932 H   0  0  0  0  0  0  0  0  0  0  0  0  # atno 8009 bound_to 7997
  154.4982  140.0822  156.7722 H   0  0  0  0  0  0  0  0  0  0  0  0  # atno 8010 bound_to 7997
  139.5694  144.1677  152.1362 H   0  0  0  0  0  0  0  0  0  0  0  0  # atno 10167 bound_to 10162
  156.2023  130.6865  151.0553 H   0  0  0  0  0  0  0  0  0  0  0  0  # atno 10718 bound_to 10713
  153.8991  135.3024  155.3448 H   0  0  0  0  0  0  0  0  0  0  0  0  # atno 10763 bound_to 10752
  154.7679  135.4901  153.9593 H   0  0  0  0  0  0  0  0  0  0  0  0  # atno 10764 bound_to 10752
  153.1255  135.6792  153.9365 H   0  0  0  0  0  0  0  0  0  0  0  0  # atno 10765 bound_to 10752
  141.0051  133.6936  156.2095 H   0  0  0  0  0  0  0  0  0  0  0  0  # atno 11005 bound_to 11000
  144.9091  140.7736  143.5818 LP  0  0  0  0  0  0  0  0  0  0  0  0  # atno 17320 bound_to 7965
  145.2891  139.1890  143.4750 LP  0  0  0  0  0  0  0  0  0  0  0  0  # atno 17321 bound_to 7965
  140.1207  144.5376  150.6865 LP  0  0  0  0  0  0  0  0  0  0  0  0  # atno 17342 bound_to 10162
  140.6978  143.2415  151.4950 LP  0  0  0  0  0  0  0  0  0  0  0  0  # atno 17343 bound_to 10162
  157.6993  131.0782  150.6872 LP  0  0  0  0  0  0  0  0  0  0  0  0  # atno 17370 bound_to 10713
  156.6930  130.4600  149.5594 LP  0  0  0  0  0  0  0  0  0  0  0  0  # atno 17371 bound_to 10713
  140.6826  134.4751  157.5589 LP  0  0  0  0  0  0  0  0  0  0  0  0  # atno 17394 bound_to 11000
  139.9059  134.8451  156.1709 LP  0  0  0  0  0  0  0  0  0  0  0  0  # atno 17395 bound_to 11000

$$$$
