AV-unprocessed.smi:2737|AV-procd|sdf|10547|dock8
  -GOLD-   2272014593D 1   1.00000     0.00000
 Structure written by MMmdl.
 43 44  0  0  0  0  0  0  0  0  1 V2000
  151.3240  140.3229  156.5044 C   0  0  0  0  0  0  0  0  0  0  0  0
  150.6858  139.1011  156.1445 O   0  0  0  0  0  0  0  0  0  0  0  0
  151.5187  137.9792  155.8264 C   0  0  0  0  0  0  0  0  0  0  0  0
  152.5716  138.3478  154.7582 C   0  0  0  0  0  0  0  0  0  0  0  0
  152.2145  137.6130  157.1467 C   0  0  0  0  0  0  0  0  0  0  0  0
  150.6296  136.8467  155.3847 C   0  0  0  0  0  0  0  0  0  0  0  0
  151.0173  135.6296  155.0045 N   0  0  0  0  0  0  0  0  0  0  0  0
  149.8200  134.9932  154.8784 C   0  0  0  0  0  0  0  0  0  0  0  0
  149.7003  133.5716  154.4314 C   0  0  0  0  0  0  0  0  0  0  0  0
  148.2425  133.2284  154.1213 C   0  0  0  0  0  0  0  0  0  0  0  0
  147.6887  132.3023  154.7137 O   0  0  0  0  0  0  0  0  0  0  0  0
  147.6338  133.9815  153.1913 N   0  0  0  0  0  0  0  0  0  0  0  0
  146.2592  133.8085  152.7315 C   0  0  0  0  0  0  0  0  0  0  0  0
  146.1164  132.4406  152.0371 C   0  0  0  0  0  0  0  0  0  0  0  0
  144.6942  132.2334  151.4908 C   0  0  0  0  0  0  0  0  0  0  0  0
  144.2897  133.3737  150.5430 C   0  0  0  0  0  0  0  0  0  0  0  0
  144.4281  134.7413  151.2301 C   0  0  0  0  0  0  0  0  0  0  0  0
  145.8495  134.9503  151.7771 C   0  0  0  0  0  0  0  0  0  0  0  0
  148.7480  135.7139  155.1825 N   0  0  0  0  0  0  0  0  0  0  0  0
  149.2884  136.9491  155.5657 O   0  0  0  0  0  0  0  0  0  0  0  0
  150.5718  141.1084  156.5770 H   0  0  0  0  0  0  0  0  0  0  0  0
  152.0617  140.6419  155.7679 H   0  0  0  0  0  0  0  0  0  0  0  0
  151.8086  140.2512  157.4780 H   0  0  0  0  0  0  0  0  0  0  0  0
  153.2700  137.5259  154.5970 H   0  0  0  0  0  0  0  0  0  0  0  0
  153.1550  139.2164  155.0640 H   0  0  0  0  0  0  0  0  0  0  0  0
  152.1176  138.5709  153.7926 H   0  0  0  0  0  0  0  0  0  0  0  0
  152.8563  136.7394  157.0281 H   0  0  0  0  0  0  0  0  0  0  0  0
  151.4866  137.3846  157.9264 H   0  0  0  0  0  0  0  0  0  0  0  0
  152.8355  138.4340  157.5064 H   0  0  0  0  0  0  0  0  0  0  0  0
  150.3124  133.4097  153.5428 H   0  0  0  0  0  0  0  0  0  0  0  0
  150.0871  132.9086  155.2066 H   0  0  0  0  0  0  0  0  0  0  0  0
  148.1684  134.7200  152.7570 H   0  0  0  0  0  0  0  0  0  0  0  0
  145.5954  133.8180  153.5984 H   0  0  0  0  0  0  0  0  0  0  0  0
  146.8320  132.3653  151.2168 H   0  0  0  0  0  0  0  0  0  0  0  0
  146.3617  131.6390  152.7351 H   0  0  0  0  0  0  0  0  0  0  0  0
  144.6314  131.2770  150.9708 H   0  0  0  0  0  0  0  0  0  0  0  0
  143.9886  132.1805  152.3210 H   0  0  0  0  0  0  0  0  0  0  0  0
  144.9169  133.3478  149.6511 H   0  0  0  0  0  0  0  0  0  0  0  0
  143.2635  133.2297  150.2041 H   0  0  0  0  0  0  0  0  0  0  0  0
  144.1794  135.5373  150.5276 H   0  0  0  0  0  0  0  0  0  0  0  0
  143.7089  134.8143  152.0467 H   0  0  0  0  0  0  0  0  0  0  0  0
  145.9025  135.9110  152.2905 H   0  0  0  0  0  0  0  0  0  0  0  0
  146.5524  135.0064  150.9445 H   0  0  0  0  0  0  0  0  0  0  0  0
  1  2  1  0  0  0  0
  1 21  1  0  0  0  0
  1 22  1  0  0  0  0
  1 23  1  0  0  0  0
  2  3  1  0  0  0  0
  3  4  1  0  0  0  0
  3  5  1  0  0  0  0
  3  6  1  0  0  0  0
  4 24  1  0  0  0  0
  4 25  1  0  0  0  0
  4 26  1  0  0  0  0
  5 27  1  0  0  0  0
  5 28  1  0  0  0  0
  5 29  1  0  0  0  0
  6 20  1  0  0  0  0
  6  7  2  0  0  0  0
  7  8  1  0  0  0  0
  8  9  1  0  0  0  0
  8 19  2  0  0  0  0
  9 10  1  0  0  0  0
  9 30  1  0  0  0  0
  9 31  1  0  0  0  0
 10 11  2  0  0  0  0
 10 12  1  0  0  0  0
 12 13  1  0  0  0  0
 12 32  1  0  0  0  0
 13 18  1  0  0  0  0
 13 14  1  0  0  0  0
 13 33  1  0  0  0  0
 14 15  1  0  0  0  0
 14 34  1  0  0  0  0
 14 35  1  0  0  0  0
 15 16  1  0  0  0  0
 15 36  1  0  0  0  0
 15 37  1  0  0  0  0
 16 17  1  0  0  0  0
 16 38  1  0  0  0  0
 16 39  1  0  0  0  0
 17 18  1  0  0  0  0
 17 40  1  0  0  0  0
 17 41  1  0  0  0  0
 18 42  1  0  0  0  0
 18 43  1  0  0  0  0
 19 20  1  0  0  0  0
M  END
> <s_m_source_file>
AV-unprocessed.smi

> <i_m_source_file_index>
2737

> <i_lp_mmshare_version>
43012

> <i_f3d_flags>
0

> <s_epik_input>
W0NIM11PQyhbQ0gzXSkoW0NIM10pYzFuYyhubzEpW0NIMl1DKD1PKVtOSF1bQ0hdMltDSDJdW0NIMl1bQ0gyXVtDSDJdW0NIMl0y

> <s_epik_cmdline>
J2VwaWtfcHl0aG9uJywgJy1waCcsICc3LjAnLCAnLXRuJywgJzgnLCAnLW1hJywgJzIwMCcsICctbWV0YWxfYmluZGluZycsICctaW1hZScsICc8aW5maWxlLm1hZT4nLCAnLW9tYWUnLCAnPG91dGZpbGUubWFlPic=

> <r_lp_tautomer_probability>
1

> <r_epik_Ionization_Penalty>
6.23621e-08

> <r_epik_Ionization_Penalty_Charging>
0

> <r_epik_Ionization_Penalty_Neutral>
6.23621e-08

> <r_epik_State_Penalty>
-0

> <r_epik_Charging_Adjusted_Penalty>
0

> <i_epik_Tot_Q>
0

> <i_epik_Tot_abs_Q>
0

> <r_epik_Metal_State_Penalty>
-0

> <b_epik_Metal_Only>
0

> <s_lp_Force_Field>
OPLS_2005

> <r_lp_Energy>
12.1287

> <b_lp_Chiralities_Consistent>
1

> <s_lp_Variant>
AV-unprocessed.smi:2737-1

> <Gold.Version>
5.8.1

> <Gold.Id.Protein>
6NUR|6NUR_protein|mol2

> <Gold.PLP.Fitness>
37.5330

> <Gold.PLP.PLP>
-32.2304

> <Gold.PLP.part.hbond>
-2.0000

> <Gold.PLP.part.metal>
0.0000

> <Gold.PLP.part.buried>
-5.9184

> <Gold.PLP.part.nonpolar>
-25.5098

> <Gold.PLP.part.repulsive>
0.8700

> <Gold.PLP.ligand.clash>
0.0000

> <Gold.PLP.ligand.torsion>
0.4610

> <Gold.PLP.Chemscore.Hbond>
2.0000

> <Gold.PLP.Chemscore.CHOScore>
0.0000

> <Gold.PLP.Chemscore.Metal>
0.0000

> <Gold.Chemscore.Hbonds>
donor molecule, donor type, donor heavy atom, donor atom, acceptor molecule, acceptor atom, score
      L1  H    12    32       P1  7948  1.00
      P1  H 10752 10764       L1     7  1.00

> <Gold.PLP.Chemscore.Internal.Correction>
0.2246

> <Gold.Rescore>
     Score         DG    S(hbond)    S(metal)    S(lipo)     H(rot)  DE(clash)    DE(int)     intcor
     12.27     -14.56       1.87        0.00      64.93       1.86       0.08       2.20       ----

> <Gold.Chemscore.Fitness>
12.2749

> <Gold.Chemscore.DG>
-14.5577

> <Gold.Chemscore.ZeroCoef>
-5.4800

> <Gold.Chemscore.Hbond>
1.8688

> <Gold.Chemscore.Metal>
0.0000

> <Gold.Chemscore.Lipo>
64.9262

> <Gold.Chemscore.Internal_Hbond>
0.0000

> <Gold.Chemscore.DEClash>
0.0828

> <Gold.Chemscore.DEInternal>
2.2000

> <Gold.Chemscore.Rot>
1.8596

> <Gold.Chemscore.Internal.Correction>
   9.000000E+99

> <Gold.Chemscore.Hbonds>
donor molecule, donor type, donor heavy atom, donor atom, acceptor molecule, acceptor atom, score
      L1  H    12    32       P1  7948  0.60
      P1  H 10752 10764       L1     7  0.81

> <Gold.Chemscore.Hbond.Weighted>
-6.2418

> <Gold.Chemscore.Metal.Weighted>
-0.0000

> <Gold.Chemscore.Lipo.Weighted>
-7.5964

> <Gold.Chemscore.Internal_Hbond.Weighted>
0.0000

> <Gold.Chemscore.DEClash.Weighted>
0.0828

> <Gold.Chemscore.DEInternal.Weighted>
2.2000

> <Gold.Chemscore.Rot.Weighted>
4.7605

> <Gold.Chemscore.Internal.Correction.Weighted>
   9.000000E+99

> <Gold.Protein.RotatedTorsions>
[ 6907 6896 6895 6894 ] final -143.45 input  -60.11 | X-H torsion
[ 7974 7965 7964 7962 ] final   94.18 input  175.53 | X-H torsion
[ 8008 7997 7996 7995 ] final   97.51 input   59.86 | X-H torsion
[ 10167 10162 10161 10158 ] final    8.03 input  -65.29 | X-H torsion
[ 10718 10713 10712 10709 ] final -169.21 input   66.30 | X-H torsion
[ 10763 10752 10751 10750 ] final  -54.26 input  -60.55 | X-H torsion
[ 11005 11000 10999 10996 ] final   65.27 input  -57.11 | X-H torsion

> <Gold.Protein.ActiveResidues>
 VAL166  LYS551  ARG553  GLY616  TRP617  ASP618  TYR619  PRO620  LYS621  CYS622 
 ASP623  PHE694  ASN695  SER759  ASP760  ASP761  ALA762  ILE779  LEU786  VAL792 
 PHE793  MET794  SER795  GLU796  ALA797  LYS798  CYS799  TRP800  GLU811  SER814 

> <Gold.Protein.RotatedAtoms>
  151.1006  133.5246  159.2609 H   0  0  0  0  0  0  0  0  0  0  0  0  # atno 6907 bound_to 6896
  151.2079  135.0468  159.8909 H   0  0  0  0  0  0  0  0  0  0  0  0  # atno 6908 bound_to 6896
  152.5442  134.0826  159.8295 H   0  0  0  0  0  0  0  0  0  0  0  0  # atno 6909 bound_to 6896
  145.4690  139.2283  143.2945 H   0  0  0  0  0  0  0  0  0  0  0  0  # atno 7974 bound_to 7965
  156.0909  140.3257  155.7814 H   0  0  0  0  0  0  0  0  0  0  0  0  # atno 8008 bound_to 7997
  155.4998  140.0568  157.2958 H   0  0  0  0  0  0  0  0  0  0  0  0  # atno 8009 bound_to 7997
  154.4637  140.1979  156.0191 H   0  0  0  0  0  0  0  0  0  0  0  0  # atno 8010 bound_to 7997
  140.6338  143.7934  150.7331 H   0  0  0  0  0  0  0  0  0  0  0  0  # atno 10167 bound_to 10162
  156.7082  130.9223  151.3086 H   0  0  0  0  0  0  0  0  0  0  0  0  # atno 10718 bound_to 10713
  154.1720  135.6457  153.5012 H   0  0  0  0  0  0  0  0  0  0  0  0  # atno 10763 bound_to 10752
  153.0082  135.5385  154.6603 H   0  0  0  0  0  0  0  0  0  0  0  0  # atno 10764 bound_to 10752
  154.5945  135.2937  155.0573 H   0  0  0  0  0  0  0  0  0  0  0  0  # atno 10765 bound_to 10752
  139.9905  134.6599  156.0099 H   0  0  0  0  0  0  0  0  0  0  0  0  # atno 11005 bound_to 11000
  146.2408  140.5466  142.8935 LP  0  0  0  0  0  0  0  0  0  0  0  0  # atno 17320 bound_to 7965
  144.7957  140.6117  143.6512 LP  0  0  0  0  0  0  0  0  0  0  0  0  # atno 17321 bound_to 7965
  140.1551  143.4324  152.2105 LP  0  0  0  0  0  0  0  0  0  0  0  0  # atno 17342 bound_to 10162
  139.5549  144.7366  151.4323 LP  0  0  0  0  0  0  0  0  0  0  0  0  # atno 17343 bound_to 10162
  157.6946  130.9269  150.0609 LP  0  0  0  0  0  0  0  0  0  0  0  0  # atno 17370 bound_to 10713
  156.1680  130.3645  149.9205 LP  0  0  0  0  0  0  0  0  0  0  0  0  # atno 17371 bound_to 10713
  141.1562  133.6542  156.4169 LP  0  0  0  0  0  0  0  0  0  0  0  0  # atno 17394 bound_to 11000
  140.4917  134.6569  157.5213 LP  0  0  0  0  0  0  0  0  0  0  0  0  # atno 17395 bound_to 11000

$$$$
