AV-unprocessed.smi:1408|AV-procd|sdf|5726|dock2
  -GOLD-   22720 5363D 1   1.00000     0.00000
 Structure written by MMmdl.
 41 42  0  0  0  0  0  0  0  0  1 V2000
  147.9915  145.4020  160.4105 C   0  0  0  0  0  0  0  0  0  0  0  0
  146.9248  144.3286  160.5567 C   0  0  0  0  0  0  0  0  0  0  0  0
  146.0237  144.3943  161.6407 C   0  0  0  0  0  0  0  0  0  0  0  0
  145.0385  143.4012  161.7750 C   0  0  0  0  0  0  0  0  0  0  0  0
  144.9958  142.3777  160.8129 C   0  0  0  0  0  0  0  0  0  0  0  0
  145.8525  142.3075  159.7739 N   0  0  0  0  0  0  0  0  0  0  0  0
  146.8099  143.2579  159.6296 C   0  0  0  0  0  0  0  0  0  0  0  0
  147.7486  143.2468  158.5587 N   0  0  0  0  0  0  0  0  0  0  0  0
  148.4669  142.2131  158.0851 C   0  0  0  0  0  0  0  0  0  0  0  0
  148.4192  141.0573  158.5071 O   0  0  0  0  0  0  0  0  0  0  0  0
  149.2608  142.5973  157.0746 N   0  0  0  0  0  0  0  0  0  0  0  0
  150.1825  141.7262  156.3505 C   0  0  0  0  0  0  0  0  0  0  0  0
  149.4007  140.8323  155.3772 C   0  0  0  0  0  0  0  0  0  0  0  0
  150.3356  139.8635  154.6318 C   0  0  0  0  0  0  0  0  0  0  0  0
  151.1592  139.0701  155.5664 N   0  0  0  0  0  0  0  0  0  0  0  0
  150.7297  137.4208  155.9192 S   0  0  0  0  0  0  0  0  0  0  0  0
  150.4804  137.4041  157.7415 C   0  0  0  0  0  0  0  0  0  0  0  0
  149.4357  137.1450  155.2764 O   0  0  0  0  0  0  0  0  0  0  0  0
  151.8933  136.5764  155.6077 O   0  0  0  0  0  0  0  0  0  0  0  0
  151.9034  139.8681  156.5619 C   0  0  0  0  0  0  0  0  0  0  0  0
  150.9814  140.8395  157.3205 C   0  0  0  0  0  0  0  0  0  0  0  0
  147.9288  146.1366  161.2139 H   0  0  0  0  0  0  0  0  0  0  0  0
  147.8743  145.9299  159.4638 H   0  0  0  0  0  0  0  0  0  0  0  0
  148.9868  144.9577  160.4399 H   0  0  0  0  0  0  0  0  0  0  0  0
  146.0843  145.1953  162.3629 H   0  0  0  0  0  0  0  0  0  0  0  0
  144.3345  143.4232  162.5936 H   0  0  0  0  0  0  0  0  0  0  0  0
  144.2545  141.5948  160.8781 H   0  0  0  0  0  0  0  0  0  0  0  0
  147.8945  144.1363  158.1055 H   0  0  0  0  0  0  0  0  0  0  0  0
  149.2348  143.5658  156.7914 H   0  0  0  0  0  0  0  0  0  0  0  0
  150.8756  142.3404  155.7720 H   0  0  0  0  0  0  0  0  0  0  0  0
  148.6386  140.2712  155.9174 H   0  0  0  0  0  0  0  0  0  0  0  0
  148.8675  141.4492  154.6529 H   0  0  0  0  0  0  0  0  0  0  0  0
  149.7599  139.2067  153.9802 H   0  0  0  0  0  0  0  0  0  0  0  0
  151.0035  140.4308  153.9826 H   0  0  0  0  0  0  0  0  0  0  0  0
  150.2065  136.3966  158.0536 H   0  0  0  0  0  0  0  0  0  0  0  0
  149.6784  138.0884  158.0126 H   0  0  0  0  0  0  0  0  0  0  0  0
  151.4021  137.6914  158.2447 H   0  0  0  0  0  0  0  0  0  0  0  0
  152.4228  139.2142  157.2618 H   0  0  0  0  0  0  0  0  0  0  0  0
  152.6761  140.4337  156.0400 H   0  0  0  0  0  0  0  0  0  0  0  0
  151.5828  141.4592  157.9866 H   0  0  0  0  0  0  0  0  0  0  0  0
  150.2987  140.2814  157.9605 H   0  0  0  0  0  0  0  0  0  0  0  0
  1  2  1  0  0  0  0
  1 22  1  0  0  0  0
  1 23  1  0  0  0  0
  1 24  1  0  0  0  0
  2  7  1  0  0  0  0
  2  3  2  0  0  0  0
  3  4  1  0  0  0  0
  3 25  1  0  0  0  0
  4  5  2  0  0  0  0
  4 26  1  0  0  0  0
  5  6  1  0  0  0  0
  5 27  1  0  0  0  0
  6  7  2  0  0  0  0
  7  8  1  0  0  0  0
  8  9  1  0  0  0  0
  8 28  1  0  0  0  0
  9 10  2  0  0  0  0
  9 11  1  0  0  0  0
 11 12  1  0  0  0  0
 11 29  1  0  0  0  0
 12 21  1  0  0  0  0
 12 13  1  0  0  0  0
 12 30  1  0  0  0  0
 13 14  1  0  0  0  0
 13 31  1  0  0  0  0
 13 32  1  0  0  0  0
 14 15  1  0  0  0  0
 14 33  1  0  0  0  0
 14 34  1  0  0  0  0
 15 16  1  0  0  0  0
 15 20  1  0  0  0  0
 16 17  1  0  0  0  0
 16 18  2  0  0  0  0
 16 19  2  0  0  0  0
 17 35  1  0  0  0  0
 17 36  1  0  0  0  0
 17 37  1  0  0  0  0
 20 21  1  0  0  0  0
 20 38  1  0  0  0  0
 20 39  1  0  0  0  0
 21 40  1  0  0  0  0
 21 41  1  0  0  0  0
M  END
> <s_m_source_file>
AV-unprocessed.smi

> <i_m_source_file_index>
1408

> <i_lp_mmshare_version>
43012

> <i_f3d_flags>
0

> <s_epik_input>
W0NIM11jMVtjSF1bY0hdW2NIXW5jMVtOSF1DKD1PKVtOSF1bQ0hdMltDSDJdW0NIMl1OKFMoPU8pKD1PKVtDSDNdKVtDSDJdW0NIMl0y

> <s_epik_cmdline>
J2VwaWtfcHl0aG9uJywgJy1waCcsICc3LjAnLCAnLXRuJywgJzgnLCAnLW1hJywgJzIwMCcsICctbWV0YWxfYmluZGluZycsICctaW1hZScsICc8aW5maWxlLm1hZT4nLCAnLW9tYWUnLCAnPG91dGZpbGUubWFlPic=

> <r_lp_tautomer_probability>
1

> <r_epik_Ionization_Penalty>
5.70787e-05

> <r_epik_Ionization_Penalty_Charging>
0

> <r_epik_Ionization_Penalty_Neutral>
5.70787e-05

> <r_epik_State_Penalty>
-0

> <r_epik_Charging_Adjusted_Penalty>
0

> <i_epik_Tot_Q>
0

> <i_epik_Tot_abs_Q>
0

> <r_epik_Metal_State_Penalty>
-0

> <b_epik_Metal_Only>
0

> <s_lp_Force_Field>
OPLS_2005

> <r_lp_Energy>
5.75517

> <b_lp_Chiralities_Consistent>
1

> <s_lp_Variant>
AV-unprocessed.smi:1408-1

> <Gold.Version>
5.8.1

> <Gold.Id.Protein>
6NUR|6NUR_protein|mol2

> <Gold.PLP.Fitness>
42.8407

> <Gold.PLP.PLP>
-33.5435

> <Gold.PLP.part.hbond>
-5.0000

> <Gold.PLP.part.metal>
0.0000

> <Gold.PLP.part.buried>
-3.6541

> <Gold.PLP.part.nonpolar>
-26.1845

> <Gold.PLP.part.repulsive>
0.3100

> <Gold.PLP.ligand.clash>
0.0000

> <Gold.PLP.ligand.torsion>
1.7030

> <Gold.PLP.Chemscore.Hbond>
3.5500

> <Gold.PLP.Chemscore.CHOScore>
0.0000

> <Gold.PLP.Chemscore.Metal>
0.0000

> <Gold.Chemscore.Hbonds>
donor molecule, donor type, donor heavy atom, donor atom, acceptor molecule, acceptor atom, score
      L1  H     8    28       P1  8029  1.00
      L1  H    11    29       P1  8028  1.00
      P1  H  6934  6946       L1     6  0.55
      P1  H 10752 10765       L1    19  1.00

> <Gold.PLP.Chemscore.Internal.Correction>
2.0531

> <Gold.Rescore>
     Score         DG    S(hbond)    S(metal)    S(lipo)     H(rot)  DE(clash)    DE(int)     intcor
     13.96     -17.60       2.24        0.00      61.53       1.00       0.48       3.16       ----

> <Gold.Chemscore.Fitness>
13.9635

> <Gold.Chemscore.DG>
-17.6036

> <Gold.Chemscore.ZeroCoef>
-5.4800

> <Gold.Chemscore.Hbond>
2.2410

> <Gold.Chemscore.Metal>
0.0000

> <Gold.Chemscore.Lipo>
61.5266

> <Gold.Chemscore.Internal_Hbond>
0.0000

> <Gold.Chemscore.DEClash>
0.4768

> <Gold.Chemscore.DEInternal>
3.1634

> <Gold.Chemscore.Rot>
1.0000

> <Gold.Chemscore.Internal.Correction>
   9.000000E+99

> <Gold.Chemscore.Hbonds>
donor molecule, donor type, donor heavy atom, donor atom, acceptor molecule, acceptor atom, score
      L1  H     8    28       P1  8029  0.25
      L1  H    11    29       P1  8028  0.86
      P1  H  6934  6946       L1     6  0.01
      P1  H 10752 10765       L1    19  0.95

> <Gold.Chemscore.Hbond.Weighted>
-7.4850

> <Gold.Chemscore.Metal.Weighted>
-0.0000

> <Gold.Chemscore.Lipo.Weighted>
-7.1986

> <Gold.Chemscore.Internal_Hbond.Weighted>
0.0000

> <Gold.Chemscore.DEClash.Weighted>
0.4768

> <Gold.Chemscore.DEInternal.Weighted>
3.1634

> <Gold.Chemscore.Rot.Weighted>
2.5600

> <Gold.Chemscore.Internal.Correction.Weighted>
   9.000000E+99

> <Gold.Protein.RotatedTorsions>
[ 6907 6896 6895 6894 ] final -147.46 input  -60.11 | X-H torsion
[ 7974 7965 7964 7962 ] final  -77.08 input  175.53 | X-H torsion
[ 8008 7997 7996 7995 ] final -107.08 input   59.86 | X-H torsion
[ 10167 10162 10161 10158 ] final -118.90 input  -65.29 | X-H torsion
[ 10718 10713 10712 10709 ] final  133.76 input   66.30 | X-H torsion
[ 10763 10752 10751 10750 ] final  177.89 input  -60.55 | X-H torsion
[ 11005 11000 10999 10996 ] final  -67.81 input  -57.11 | X-H torsion

> <Gold.Protein.ActiveResidues>
 VAL166  LYS551  ARG553  GLY616  TRP617  ASP618  TYR619  PRO620  LYS621  CYS622 
 ASP623  PHE694  ASN695  SER759  ASP760  ASP761  ALA762  ILE779  LEU786  VAL792 
 PHE793  MET794  SER795  GLU796  ALA797  LYS798  CYS799  TRP800  GLU811  SER814 

> <Gold.Protein.RotatedAtoms>
  151.1560  133.4876  159.2594 H   0  0  0  0  0  0  0  0  0  0  0  0  # atno 6907 bound_to 6896
  151.1504  135.0224  159.8676 H   0  0  0  0  0  0  0  0  0  0  0  0  # atno 6908 bound_to 6896
  152.5463  134.1444  159.8545 H   0  0  0  0  0  0  0  0  0  0  0  0  # atno 6909 bound_to 6896
  145.6044  140.9401  143.1223 H   0  0  0  0  0  0  0  0  0  0  0  0  # atno 7974 bound_to 7965
  154.9241  140.0406  157.2013 H   0  0  0  0  0  0  0  0  0  0  0  0  # atno 8008 bound_to 7997
  154.8225  140.2886  155.5755 H   0  0  0  0  0  0  0  0  0  0  0  0  # atno 8009 bound_to 7997
  156.2981  140.2516  156.3135 H   0  0  0  0  0  0  0  0  0  0  0  0  # atno 8010 bound_to 7997
  140.0525  143.5046  152.2074 H   0  0  0  0  0  0  0  0  0  0  0  0  # atno 10167 bound_to 10162
  157.4740  131.1082  150.9766 H   0  0  0  0  0  0  0  0  0  0  0  0  # atno 10718 bound_to 10713
  154.5004  135.2783  155.1425 H   0  0  0  0  0  0  0  0  0  0  0  0  # atno 10763 bound_to 10752
  154.3061  135.6238  153.5449 H   0  0  0  0  0  0  0  0  0  0  0  0  # atno 10764 bound_to 10752
  152.9901  135.5708  154.5446 H   0  0  0  0  0  0  0  0  0  0  0  0  # atno 10765 bound_to 10752
  141.1517  133.6727  156.6349 H   0  0  0  0  0  0  0  0  0  0  0  0  # atno 11005 bound_to 11000
  144.7296  139.7766  143.7352 LP  0  0  0  0  0  0  0  0  0  0  0  0  # atno 17320 bound_to 7965
  146.1552  139.4648  143.0023 LP  0  0  0  0  0  0  0  0  0  0  0  0  # atno 17321 bound_to 7965
  139.5944  144.7562  151.3322 LP  0  0  0  0  0  0  0  0  0  0  0  0  # atno 17342 bound_to 10162
  140.7210  143.7136  150.7750 LP  0  0  0  0  0  0  0  0  0  0  0  0  # atno 17343 bound_to 10162
  157.0522  130.5791  149.5372 LP  0  0  0  0  0  0  0  0  0  0  0  0  # atno 17370 bound_to 10713
  156.0087  130.5177  150.7918 LP  0  0  0  0  0  0  0  0  0  0  0  0  # atno 17371 bound_to 10713
  140.3438  134.7827  157.4417 LP  0  0  0  0  0  0  0  0  0  0  0  0  # atno 17394 bound_to 11000
  140.0916  134.5593  155.8438 LP  0  0  0  0  0  0  0  0  0  0  0  0  # atno 17395 bound_to 11000

$$$$
