AV-unprocessed.smi:2251|AV-procd|sdf|9101|dock1
  -GOLD-   2272012303D 1   1.00000     0.00000
 Structure written by MMmdl.
 44 45  0  0  0  0  0  0  0  0  1 V2000
  146.4865  135.2829  161.8537 C   0  0  0  0  0  0  0  0  0  0  0  0
  147.5534  136.0880  161.1199 C   0  0  0  0  0  0  0  0  0  0  0  0
  148.4404  136.6602  161.7527 O   0  0  0  0  0  0  0  0  0  0  0  0
  147.4563  136.1219  159.7819 N   0  0  0  0  0  0  0  0  0  0  0  0
  148.3799  136.8173  158.8885 C   0  0  0  0  0  0  0  0  0  0  0  0
  147.7522  138.0422  158.2122 C   0  0  0  0  0  0  0  0  0  0  0  0
  146.7185  138.5477  158.6523 O   0  0  0  0  0  0  0  0  0  0  0  0
  148.4058  138.5238  157.1464 N   0  0  0  0  0  0  0  0  0  0  0  0
  147.9784  139.6822  156.3681 C   0  0  0  0  0  0  0  0  0  0  0  0
  148.8873  139.9335  155.1307 C   0  0  0  0  0  0  0  0  0  0  0  0
  150.3582  139.7106  155.5490 C   0  0  0  0  0  0  0  0  0  0  0  0
  150.8633  140.3277  156.7190 C   0  0  0  0  0  0  0  0  0  0  0  0
  152.2019  140.1046  157.0958 C   0  0  0  0  0  0  0  0  0  0  0  0
  153.0475  139.3201  156.3981 N   0  0  0  0  0  0  0  0  0  0  0  0
  152.5718  138.7234  155.2863 C   0  0  0  0  0  0  0  0  0  0  0  0
  151.2502  138.8806  154.8239 C   0  0  0  0  0  0  0  0  0  0  0  0
  148.4721  138.9937  153.9550 C   0  0  0  0  0  0  0  0  0  0  0  0
  147.0863  139.2980  153.3575 C   0  0  0  0  0  0  0  0  0  0  0  0
  146.9911  140.7561  152.8947 C   0  0  0  0  0  0  0  0  0  0  0  0
  147.3401  141.7163  154.0373 C   0  0  0  0  0  0  0  0  0  0  0  0
  148.7227  141.4011  154.6385 C   0  0  0  0  0  0  0  0  0  0  0  0
  145.4889  135.6123  161.5622 H   0  0  0  0  0  0  0  0  0  0  0  0
  146.5833  135.4037  162.9332 H   0  0  0  0  0  0  0  0  0  0  0  0
  146.5837  134.2225  161.6189 H   0  0  0  0  0  0  0  0  0  0  0  0
  146.6982  135.6157  159.3476 H   0  0  0  0  0  0  0  0  0  0  0  0
  149.2384  137.1482  159.4730 H   0  0  0  0  0  0  0  0  0  0  0  0
  148.7623  136.1272  158.1341 H   0  0  0  0  0  0  0  0  0  0  0  0
  149.2523  138.0585  156.8518 H   0  0  0  0  0  0  0  0  0  0  0  0
  146.9378  139.5403  156.0791 H   0  0  0  0  0  0  0  0  0  0  0  0
  147.9876  140.5559  157.0213 H   0  0  0  0  0  0  0  0  0  0  0  0
  150.2404  140.9609  157.3324 H   0  0  0  0  0  0  0  0  0  0  0  0
  152.6025  140.5674  157.9856 H   0  0  0  0  0  0  0  0  0  0  0  0
  153.2659  138.0956  154.7474 H   0  0  0  0  0  0  0  0  0  0  0  0
  150.9565  138.3569  153.9279 H   0  0  0  0  0  0  0  0  0  0  0  0
  149.1947  139.0926  153.1436 H   0  0  0  0  0  0  0  0  0  0  0  0
  148.5007  137.9481  154.2633 H   0  0  0  0  0  0  0  0  0  0  0  0
  146.9004  138.6354  152.5118 H   0  0  0  0  0  0  0  0  0  0  0  0
  146.3015  139.0837  154.0827 H   0  0  0  0  0  0  0  0  0  0  0  0
  147.6732  140.9195  152.0592 H   0  0  0  0  0  0  0  0  0  0  0  0
  145.9881  140.9661  152.5223 H   0  0  0  0  0  0  0  0  0  0  0  0
  147.3273  142.7422  153.6680 H   0  0  0  0  0  0  0  0  0  0  0  0
  146.5727  141.6663  154.8096 H   0  0  0  0  0  0  0  0  0  0  0  0
  148.9142  142.1061  155.4472 H   0  0  0  0  0  0  0  0  0  0  0  0
  149.4785  141.6071  153.8789 H   0  0  0  0  0  0  0  0  0  0  0  0
  1  2  1  0  0  0  0
  1 22  1  0  0  0  0
  1 23  1  0  0  0  0
  1 24  1  0  0  0  0
  2  3  2  0  0  0  0
  2  4  1  0  0  0  0
  4  5  1  0  0  0  0
  4 25  1  0  0  0  0
  5  6  1  0  0  0  0
  5 26  1  0  0  0  0
  5 27  1  0  0  0  0
  6  7  2  0  0  0  0
  6  8  1  0  0  0  0
  8  9  1  0  0  0  0
  8 28  1  0  0  0  0
  9 10  1  0  0  0  0
  9 29  1  0  0  0  0
  9 30  1  0  0  0  0
 10 21  1  0  0  0  0
 10 11  1  0  0  0  0
 10 17  1  0  0  0  0
 11 16  1  0  0  0  0
 11 12  2  0  0  0  0
 12 13  1  0  0  0  0
 12 31  1  0  0  0  0
 13 14  2  0  0  0  0
 13 32  1  0  0  0  0
 14 15  1  0  0  0  0
 15 16  2  0  0  0  0
 15 33  1  0  0  0  0
 16 34  1  0  0  0  0
 17 18  1  0  0  0  0
 17 35  1  0  0  0  0
 17 36  1  0  0  0  0
 18 19  1  0  0  0  0
 18 37  1  0  0  0  0
 18 38  1  0  0  0  0
 19 20  1  0  0  0  0
 19 39  1  0  0  0  0
 19 40  1  0  0  0  0
 20 21  1  0  0  0  0
 20 41  1  0  0  0  0
 20 42  1  0  0  0  0
 21 43  1  0  0  0  0
 21 44  1  0  0  0  0
M  END
> <s_m_source_file>
AV-unprocessed.smi

> <i_m_source_file_index>
2251

> <i_lp_mmshare_version>
43012

> <i_f3d_flags>
0

> <s_epik_input>
W0NIM11DKD1PKVtOSF1bQ0gyXUMoPU8pW05IXVtDSDJdQzEoW0NIMl1bQ0gyXVtDSDJdW0NIMl1bQ0gyXTEpYzJbY0hdW2NIXW5bY0hdW2NIXTI=

> <s_epik_cmdline>
J2VwaWtfcHl0aG9uJywgJy1waCcsICc3LjAnLCAnLXRuJywgJzgnLCAnLW1hJywgJzIwMCcsICctbWV0YWxfYmluZGluZycsICctaW1hZScsICc8aW5maWxlLm1hZT4nLCAnLW9tYWUnLCAnPG91dGZpbGUubWFlPic=

> <r_epik_Ionization_Penalty>
0.0619926

> <r_epik_Ionization_Penalty_Charging>
0

> <r_epik_Ionization_Penalty_Neutral>
0.0619926

> <r_epik_State_Penalty>
0.0538453

> <r_epik_Charging_Adjusted_Penalty>
0.0538453

> <i_epik_Tot_Q>
0

> <i_epik_Tot_abs_Q>
0

> <r_epik_Metal_State_Penalty>
0.048714

> <b_epik_Metal_Only>
0

> <s_lp_Force_Field>
OPLS_2005

> <r_lp_Energy>
14.8117

> <b_lp_Chiralities_Consistent>
1

> <s_lp_Variant>
AV-unprocessed.smi:2251-1

> <Gold.Version>
5.8.1

> <Gold.Id.Protein>
6NUR|6NUR_protein|mol2

> <Gold.PLP.Fitness>
38.9273

> <Gold.PLP.PLP>
-34.1708

> <Gold.PLP.part.hbond>
-2.8848

> <Gold.PLP.part.metal>
0.0000

> <Gold.PLP.part.buried>
-3.7904

> <Gold.PLP.part.nonpolar>
-28.7828

> <Gold.PLP.part.repulsive>
0.1646

> <Gold.PLP.ligand.clash>
0.0000

> <Gold.PLP.ligand.torsion>
0.8133

> <Gold.PLP.Chemscore.Hbond>
2.0946

> <Gold.PLP.Chemscore.CHOScore>
0.0000

> <Gold.PLP.Chemscore.Metal>
0.0000

> <Gold.Chemscore.Hbonds>
donor molecule, donor type, donor heavy atom, donor atom, acceptor molecule, acceptor atom, score
      P1  H  6931  6943       L1     3  1.00
      P1  H  6934  6947       L1     7  0.08
      P1  H  7997  8010       L1    14  1.00

> <Gold.PLP.Chemscore.Internal.Correction>
0.0992

> <Gold.Rescore>
     Score         DG    S(hbond)    S(metal)    S(lipo)     H(rot)  DE(clash)    DE(int)     intcor
     15.91     -16.63       1.89        0.00      85.42       2.02       0.20       0.53       ----

> <Gold.Chemscore.Fitness>
15.9114

> <Gold.Chemscore.DG>
-16.6340

> <Gold.Chemscore.ZeroCoef>
-5.4800

> <Gold.Chemscore.Hbond>
1.8925

> <Gold.Chemscore.Metal>
0.0000

> <Gold.Chemscore.Lipo>
85.4210

> <Gold.Chemscore.Internal_Hbond>
0.0000

> <Gold.Chemscore.DEClash>
0.1954

> <Gold.Chemscore.DEInternal>
0.5272

> <Gold.Chemscore.Rot>
2.0160

> <Gold.Chemscore.Internal.Correction>
   9.000000E+99

> <Gold.Chemscore.Hbonds>
donor molecule, donor type, donor heavy atom, donor atom, acceptor molecule, acceptor atom, score
      P1  H  6931  6943       L1     3  1.00
      P1  H  6934  6947       L1     7  0.04
      P1  H  7997  8010       L1    14  0.52

> <Gold.Chemscore.Hbond.Weighted>
-6.3208

> <Gold.Chemscore.Metal.Weighted>
-0.0000

> <Gold.Chemscore.Lipo.Weighted>
-9.9943

> <Gold.Chemscore.Internal_Hbond.Weighted>
0.0000

> <Gold.Chemscore.DEClash.Weighted>
0.1954

> <Gold.Chemscore.DEInternal.Weighted>
0.5272

> <Gold.Chemscore.Rot.Weighted>
5.1610

> <Gold.Chemscore.Internal.Correction.Weighted>
   9.000000E+99

> <Gold.Protein.RotatedTorsions>
[ 6907 6896 6895 6894 ] final -103.40 input  -60.11 | X-H torsion
[ 7974 7965 7964 7962 ] final  118.43 input  175.53 | X-H torsion
[ 8008 7997 7996 7995 ] final   86.59 input   59.86 | X-H torsion
[ 10167 10162 10161 10158 ] final  140.95 input  -65.29 | X-H torsion
[ 10718 10713 10712 10709 ] final  -82.84 input   66.30 | X-H torsion
[ 10763 10752 10751 10750 ] final -137.63 input  -60.55 | X-H torsion
[ 11005 11000 10999 10996 ] final  -93.89 input  -57.11 | X-H torsion

> <Gold.Protein.ActiveResidues>
 VAL166  LYS551  ARG553  GLY616  TRP617  ASP618  TYR619  PRO620  LYS621  CYS622 
 ASP623  PHE694  ASN695  SER759  ASP760  ASP761  ALA762  ILE779  LEU786  VAL792 
 PHE793  MET794  SER795  GLU796  ALA797  LYS798  CYS799  TRP800  GLU811  SER814 

> <Gold.Protein.RotatedAtoms>
  150.7239  134.0435  159.3773 H   0  0  0  0  0  0  0  0  0  0  0  0  # atno 6907 bound_to 6896
  151.8409  135.0588  160.0457 H   0  0  0  0  0  0  0  0  0  0  0  0  # atno 6908 bound_to 6896
  152.2863  133.5482  159.5565 H   0  0  0  0  0  0  0  0  0  0  0  0  # atno 6909 bound_to 6896
  145.1553  139.3186  143.4545 H   0  0  0  0  0  0  0  0  0  0  0  0  # atno 7974 bound_to 7965
  155.9647  140.3390  155.6522 H   0  0  0  0  0  0  0  0  0  0  0  0  # atno 8008 bound_to 7997
  155.6752  140.0731  157.2523 H   0  0  0  0  0  0  0  0  0  0  0  0  # atno 8009 bound_to 7997
  154.4151  140.1684  156.1910 H   0  0  0  0  0  0  0  0  0  0  0  0  # atno 8010 bound_to 7997
  139.5034  144.6202  151.6069 H   0  0  0  0  0  0  0  0  0  0  0  0  # atno 10167 bound_to 10162
  156.0027  130.4646  150.4166 H   0  0  0  0  0  0  0  0  0  0  0  0  # atno 10718 bound_to 10713
  154.8657  135.3636  154.5254 H   0  0  0  0  0  0  0  0  0  0  0  0  # atno 10763 bound_to 10752
  153.5882  135.7016  153.5439 H   0  0  0  0  0  0  0  0  0  0  0  0  # atno 10764 bound_to 10752
  153.3396  135.4101  155.1523 H   0  0  0  0  0  0  0  0  0  0  0  0  # atno 10765 bound_to 10752
  141.1485  133.7918  157.0221 H   0  0  0  0  0  0  0  0  0  0  0  0  # atno 11005 bound_to 11000
  146.3489  140.1643  142.8590 LP  0  0  0  0  0  0  0  0  0  0  0  0  # atno 17320 bound_to 7965
  145.0388  140.8929  143.5065 LP  0  0  0  0  0  0  0  0  0  0  0  0  # atno 17321 bound_to 7965
  140.5902  143.9793  150.6320 LP  0  0  0  0  0  0  0  0  0  0  0  0  # atno 17342 bound_to 10162
  140.2971  143.3285  152.1007 LP  0  0  0  0  0  0  0  0  0  0  0  0  # atno 17343 bound_to 10162
  157.2225  131.0485  151.2538 LP  0  0  0  0  0  0  0  0  0  0  0  0  # atno 17370 bound_to 10713
  157.3787  130.7220  149.6615 LP  0  0  0  0  0  0  0  0  0  0  0  0  # atno 17371 bound_to 10713
  140.0808  134.9649  157.1622 LP  0  0  0  0  0  0  0  0  0  0  0  0  # atno 17394 bound_to 11000
  140.3579  134.2527  155.7190 LP  0  0  0  0  0  0  0  0  0  0  0  0  # atno 17395 bound_to 11000

$$$$
