AV-unprocessed.smi:3350|AV-procd|sdf|12944|dock9
  -GOLD-   2272019383D 1   1.00000     0.00000
 Structure written by MMmdl.
 41 42  0  0  0  0  0  0  0  0  1 V2000
  151.4506  136.7057  156.2783 C   0  0  0  0  0  0  0  0  0  0  0  0
  150.4513  137.4129  155.3529 C   0  0  1  0  0  0  0  0  0  0  0  0
  151.1573  138.4497  154.4522 C   0  0  0  0  0  0  0  0  0  0  0  0
  150.5209  139.7545  154.4904 N   0  0  0  0  0  0  0  0  0  0  0  0
  149.3629  140.1625  153.8621 C   0  0  0  0  0  0  0  0  0  0  0  0
  149.1490  141.4650  154.2103 C   0  0  0  0  0  0  0  0  0  0  0  0
  150.2476  141.7715  155.0611 C   0  0  0  0  0  0  0  0  0  0  0  0
  151.0694  140.7471  155.2234 N   0  0  0  0  0  0  0  0  0  0  0  0
  149.7593  136.4077  154.5467 N   0  0  0  0  0  0  0  0  0  0  0  0
  149.1790  135.2935  155.0162 C   0  0  0  0  0  0  0  0  0  0  0  0
  149.1797  134.9629  156.2019 O   0  0  0  0  0  0  0  0  0  0  0  0
  148.5795  134.6005  154.0358 N   0  0  0  0  0  0  0  0  0  0  0  0
  147.8074  133.3626  154.1671 C   0  0  2  0  0  0  0  0  0  0  0  0
  148.6335  132.2642  154.8638 C   0  0  0  0  0  0  0  0  0  0  0  0
  147.2157  132.9079  152.8142 C   0  0  1  0  0  0  0  0  0  0  0  0
  146.2838  131.6988  152.9017 C   0  0  0  0  0  0  0  0  0  0  0  0
  145.3921  131.8463  151.6789 C   0  0  0  0  0  0  0  0  0  0  0  0
  145.5974  133.2990  151.2403 C   0  0  0  0  0  0  0  0  0  0  0  0
  146.3508  133.9007  152.2839 O   0  0  0  0  0  0  0  0  0  0  0  0
  151.9592  137.4211  156.9249 H   0  0  0  0  0  0  0  0  0  0  0  0
  152.2124  136.1723  155.7086 H   0  0  0  0  0  0  0  0  0  0  0  0
  150.9473  135.9830  156.9215 H   0  0  0  0  0  0  0  0  0  0  0  0
  149.7344  137.9321  155.9920 H   0  0  0  0  0  0  0  0  0  0  0  0
  152.1956  138.5728  154.7638 H   0  0  0  0  0  0  0  0  0  0  0  0
  151.1840  138.1042  153.4176 H   0  0  0  0  0  0  0  0  0  0  0  0
  148.7891  139.4964  153.2351 H   0  0  0  0  0  0  0  0  0  0  0  0
  148.3313  142.1012  153.9064 H   0  0  0  0  0  0  0  0  0  0  0  0
  150.4709  142.7016  155.5624 H   0  0  0  0  0  0  0  0  0  0  0  0
  149.7010  136.5868  153.5551 H   0  0  0  0  0  0  0  0  0  0  0  0
  148.6539  134.9719  153.1003 H   0  0  0  0  0  0  0  0  0  0  0  0
  146.9762  133.6110  154.8278 H   0  0  0  0  0  0  0  0  0  0  0  0
  148.0143  131.4006  155.1063 H   0  0  0  0  0  0  0  0  0  0  0  0
  149.0622  132.6283  155.7981 H   0  0  0  0  0  0  0  0  0  0  0  0
  149.4526  131.9122  154.2363 H   0  0  0  0  0  0  0  0  0  0  0  0
  148.0046  132.7030  152.0886 H   0  0  0  0  0  0  0  0  0  0  0  0
  146.8229  130.7512  152.9197 H   0  0  0  0  0  0  0  0  0  0  0  0
  145.6745  131.7561  153.8048 H   0  0  0  0  0  0  0  0  0  0  0  0
  145.6898  131.1609  150.8847 H   0  0  0  0  0  0  0  0  0  0  0  0
  144.3503  131.6409  151.9274 H   0  0  0  0  0  0  0  0  0  0  0  0
  146.1703  133.3421  150.3130 H   0  0  0  0  0  0  0  0  0  0  0  0
  144.6565  133.8267  151.0836 H   0  0  0  0  0  0  0  0  0  0  0  0
  1  2  1  0  0  0  0
  1 20  1  0  0  0  0
  1 21  1  0  0  0  0
  1 22  1  0  0  0  0
  2  3  1  0  0  0  0
  2  9  1  0  0  0  0
  2 23  1  0  0  0  0
  3  4  1  0  0  0  0
  3 24  1  0  0  0  0
  3 25  1  0  0  0  0
  4  8  1  0  0  0  0
  4  5  1  0  0  0  0
  5  6  2  0  0  0  0
  5 26  1  0  0  0  0
  6  7  1  0  0  0  0
  6 27  1  0  0  0  0
  7  8  2  0  0  0  0
  7 28  1  0  0  0  0
  9 10  1  0  0  0  0
  9 29  1  0  0  0  0
 10 11  2  0  0  0  0
 10 12  1  0  0  0  0
 12 13  1  0  0  0  0
 12 30  1  0  0  0  0
 13 14  1  0  0  0  0
 13 15  1  0  0  0  0
 13 31  1  0  0  0  0
 14 32  1  0  0  0  0
 14 33  1  0  0  0  0
 14 34  1  0  0  0  0
 15 19  1  0  0  0  0
 15 16  1  0  0  0  0
 15 35  1  0  0  0  0
 16 17  1  0  0  0  0
 16 36  1  0  0  0  0
 16 37  1  0  0  0  0
 17 18  1  0  0  0  0
 17 38  1  0  0  0  0
 17 39  1  0  0  0  0
 18 19  1  0  0  0  0
 18 40  1  0  0  0  0
 18 41  1  0  0  0  0
M  END
> <s_m_source_file>
AV-unprocessed.smi

> <i_m_source_file_index>
3350

> <i_lp_mmshare_version>
43012

> <i_f3d_flags>
0

> <s_epik_input>
bjFbY0hdW2NIXVtjSF1uMVtDSDJdW0NAQEhdKFtDSDNdKVtOSF1DKD1PKVtOSF1bQ0BIXShbQ0gzXSlbQ0BASF0yW0NIMl1bQ0gyXVtDSDJdTzI=

> <s_epik_cmdline>
J2VwaWtfcHl0aG9uJywgJy1waCcsICc3LjAnLCAnLXRuJywgJzgnLCAnLW1hJywgJzIwMCcsICctbWV0YWxfYmluZGluZycsICctaW1hZScsICc8aW5maWxlLm1hZT4nLCAnLW9tYWUnLCAnPG91dGZpbGUubWFlPic=

> <r_lp_tautomer_probability>
1

> <r_epik_Ionization_Penalty>
6.42349e-05

> <r_epik_Ionization_Penalty_Charging>
0

> <r_epik_Ionization_Penalty_Neutral>
6.42349e-05

> <r_epik_State_Penalty>
-0

> <r_epik_Charging_Adjusted_Penalty>
0

> <i_epik_Tot_Q>
0

> <i_epik_Tot_abs_Q>
0

> <r_epik_Metal_State_Penalty>
-0

> <b_epik_Metal_Only>
0

> <s_lp_Force_Field>
OPLS_2005

> <r_lp_Energy>
15.9813

> <b_lp_Chiralities_Consistent>
1

> <s_lp_Variant>
AV-unprocessed.smi:3350-6

> <Gold.Version>
5.8.1

> <Gold.Id.Protein>
6NUR|6NUR_protein|mol2

> <Gold.PLP.Fitness>
40.7745

> <Gold.PLP.PLP>
-32.7245

> <Gold.PLP.part.hbond>
-3.0499

> <Gold.PLP.part.metal>
0.0000

> <Gold.PLP.part.buried>
0.2236

> <Gold.PLP.part.nonpolar>
-29.3947

> <Gold.PLP.part.repulsive>
0.2681

> <Gold.PLP.ligand.clash>
0.0000

> <Gold.PLP.ligand.torsion>
1.0492

> <Gold.PLP.Chemscore.Hbond>
1.9500

> <Gold.PLP.Chemscore.CHOScore>
1.4021

> <Gold.PLP.Chemscore.Metal>
0.0000

> <Gold.Chemscore.Hbonds>
donor molecule, donor type, donor heavy atom, donor atom, acceptor molecule, acceptor atom, score
      L1  H     9    29       P1  7948  1.00
      L1  H    12    30       P1  7948  1.00
      L1  C     5    26       P1  7957  0.43
      L1  C     7    28       P1  8028  0.82

> <Gold.PLP.Chemscore.Internal.Correction>
0.0922

> <Gold.Rescore>
     Score         DG    S(hbond)    S(metal)    S(lipo)     H(rot)  DE(clash)    DE(int)     intcor
     12.26     -14.71       1.68        0.00      70.67       1.82       0.08       2.37       ----

> <Gold.Chemscore.Fitness>
12.2597

> <Gold.Chemscore.DG>
-14.7099

> <Gold.Chemscore.ZeroCoef>
-5.4800

> <Gold.Chemscore.Hbond>
1.6825

> <Gold.Chemscore.Metal>
0.0000

> <Gold.Chemscore.Lipo>
70.6740

> <Gold.Chemscore.Internal_Hbond>
0.0000

> <Gold.Chemscore.DEClash>
0.0795

> <Gold.Chemscore.DEInternal>
2.3708

> <Gold.Chemscore.Rot>
1.8197

> <Gold.Chemscore.Internal.Correction>
   9.000000E+99

> <Gold.Chemscore.Hbonds>
donor molecule, donor type, donor heavy atom, donor atom, acceptor molecule, acceptor atom, score
      L1  H     9    29       P1  7948  0.48
      L1  H    12    30       P1  7948  0.49

> <Gold.Chemscore.Hbond.Weighted>
-5.6194

> <Gold.Chemscore.Metal.Weighted>
-0.0000

> <Gold.Chemscore.Lipo.Weighted>
-8.2689

> <Gold.Chemscore.Internal_Hbond.Weighted>
0.0000

> <Gold.Chemscore.DEClash.Weighted>
0.0795

> <Gold.Chemscore.DEInternal.Weighted>
2.3708

> <Gold.Chemscore.Rot.Weighted>
4.6583

> <Gold.Chemscore.Internal.Correction.Weighted>
   9.000000E+99

> <Gold.Protein.RotatedTorsions>
[ 6907 6896 6895 6894 ] final -116.47 input  -60.11 | X-H torsion
[ 7974 7965 7964 7962 ] final   28.88 input  175.53 | X-H torsion
[ 8008 7997 7996 7995 ] final -123.25 input   59.86 | X-H torsion
[ 10167 10162 10161 10158 ] final  -48.28 input  -65.29 | X-H torsion
[ 10718 10713 10712 10709 ] final   96.84 input   66.30 | X-H torsion
[ 10763 10752 10751 10750 ] final -105.03 input  -60.55 | X-H torsion
[ 11005 11000 10999 10996 ] final -128.71 input  -57.11 | X-H torsion

> <Gold.Protein.ActiveResidues>
 VAL166  LYS551  ARG553  GLY616  TRP617  ASP618  TYR619  PRO620  LYS621  CYS622 
 ASP623  PHE694  ASN695  SER759  ASP760  ASP761  ALA762  ILE779  LEU786  VAL792 
 PHE793  MET794  SER795  GLU796  ALA797  LYS798  CYS799  TRP800  GLU811  SER814 

> <Gold.Protein.RotatedAtoms>
  150.8059  133.8512  159.3205 H   0  0  0  0  0  0  0  0  0  0  0  0  # atno 6907 bound_to 6896
  151.6311  135.1021  160.0131 H   0  0  0  0  0  0  0  0  0  0  0  0  # atno 6908 bound_to 6896
  152.4149  133.6982  159.6465 H   0  0  0  0  0  0  0  0  0  0  0  0  # atno 6909 bound_to 6896
  146.1704  139.6997  142.8972 H   0  0  0  0  0  0  0  0  0  0  0  0  # atno 7974 bound_to 7965
  155.1774  140.0409  157.2875 H   0  0  0  0  0  0  0  0  0  0  0  0  # atno 8008 bound_to 7997
  154.6227  140.2505  155.7502 H   0  0  0  0  0  0  0  0  0  0  0  0  # atno 8009 bound_to 7997
  156.2442  140.2891  156.0543 H   0  0  0  0  0  0  0  0  0  0  0  0  # atno 8010 bound_to 7997
  140.6738  143.2747  151.4048 H   0  0  0  0  0  0  0  0  0  0  0  0  # atno 10167 bound_to 10162
  157.6921  131.0591  150.4553 H   0  0  0  0  0  0  0  0  0  0  0  0  # atno 10718 bound_to 10713
  154.7919  135.4764  154.0072 H   0  0  0  0  0  0  0  0  0  0  0  0  # atno 10763 bound_to 10752
  153.1644  135.6814  153.8704 H   0  0  0  0  0  0  0  0  0  0  0  0  # atno 10764 bound_to 10752
  153.8307  135.3192  155.3396 H   0  0  0  0  0  0  0  0  0  0  0  0  # atno 10765 bound_to 10752
  140.9493  134.1088  157.4077 H   0  0  0  0  0  0  0  0  0  0  0  0  # atno 11005 bound_to 11000
  145.4356  141.0418  143.2886 LP  0  0  0  0  0  0  0  0  0  0  0  0  # atno 17320 bound_to 7965
  144.8154  139.5886  143.7011 LP  0  0  0  0  0  0  0  0  0  0  0  0  # atno 17321 bound_to 7965
  139.6019  144.1277  152.2207 LP  0  0  0  0  0  0  0  0  0  0  0  0  # atno 17342 bound_to 10162
  140.0664  144.5815  150.7224 LP  0  0  0  0  0  0  0  0  0  0  0  0  # atno 17343 bound_to 10162
  156.4901  130.4093  149.6411 LP  0  0  0  0  0  0  0  0  0  0  0  0  # atno 17370 bound_to 10713
  156.3425  130.7389  151.2337 LP  0  0  0  0  0  0  0  0  0  0  0  0  # atno 17371 bound_to 10713
  139.8842  135.0061  156.6356 LP  0  0  0  0  0  0  0  0  0  0  0  0  # atno 17394 bound_to 11000
  140.7625  133.8805  155.8429 LP  0  0  0  0  0  0  0  0  0  0  0  0  # atno 17395 bound_to 11000

$$$$
