AV-unprocessed.smi:3200|AV-procd|sdf|12235|dock2
  -GOLD-   2272018 73D 1   1.00000     0.00000
 Structure written by MMmdl.
 38 39  0  0  0  0  0  0  0  0  2 V2000
  153.1484  138.4217  154.3377 C   0  0  0  0  0  0  0  0  0  0  0  0
  152.4023  139.2906  155.2921 C   0  0  0  0  0  0  0  0  0  0  0  0
  152.9084  139.6136  156.4762 N   0  0  0  0  0  0  0  0  0  0  0  0
  151.9155  140.4258  157.0424 O   0  0  0  0  0  0  0  0  0  0  0  0
  150.9162  140.4768  156.1294 C   0  0  0  0  0  0  0  0  0  0  0  0
  149.7162  141.3145  156.4199 C   0  0  0  0  0  0  0  0  0  0  0  0
  149.7375  141.8940  157.8400 C   0  0  0  0  0  0  0  0  0  0  0  0
  150.2565  143.2769  157.8398 N   0  3  0  0  0  0  0  0  0  0  0  0
  150.6449  143.7968  159.1706 C   0  0  2  0  0  0  0  0  0  0  0  0
  150.3365  145.2885  159.3609 C   0  0  0  0  0  0  0  0  0  0  0  0
  151.3312  145.7796  160.4209 C   0  0  0  0  0  0  0  0  0  0  0  0
  152.3169  144.6254  160.6577 C   0  0  0  0  0  0  0  0  0  0  0  0
  152.1535  143.6603  159.4693 C   0  0  0  0  0  0  0  0  0  0  0  0
  152.5320  142.2206  159.8644 C   0  0  0  0  0  0  0  0  0  0  0  0
  153.0442  144.1240  158.2930 C   0  0  0  0  0  0  0  0  0  0  0  0
  151.1735  139.8049  155.0104 N   0  0  0  0  0  0  0  0  0  0  0  0
  154.1236  138.1450  154.7401 H   0  0  0  0  0  0  0  0  0  0  0  0
  153.3016  138.9445  153.3934 H   0  0  0  0  0  0  0  0  0  0  0  0
  152.5854  137.5093  154.1411 H   0  0  0  0  0  0  0  0  0  0  0  0
  149.6697  142.1196  155.6853 H   0  0  0  0  0  0  0  0  0  0  0  0
  148.8237  140.7044  156.2745 H   0  0  0  0  0  0  0  0  0  0  0  0
  148.7306  141.8821  158.2588 H   0  0  0  0  0  0  0  0  0  0  0  0
  150.3633  141.2742  158.4838 H   0  0  0  0  0  0  0  0  0  0  0  0
  151.0754  143.3005  157.2491 H   0  0  0  0  0  0  0  0  0  0  0  0
  150.0933  143.2376  159.9291 H   0  0  0  0  0  0  0  0  0  0  0  0
  150.4981  145.8353  158.4308 H   0  0  0  0  0  0  0  0  0  0  0  0
  149.3020  145.4572  159.6621 H   0  0  0  0  0  0  0  0  0  0  0  0
  151.8538  146.6668  160.0622 H   0  0  0  0  0  0  0  0  0  0  0  0
  150.8258  146.0528  161.3478 H   0  0  0  0  0  0  0  0  0  0  0  0
  153.3422  144.9769  160.7817 H   0  0  0  0  0  0  0  0  0  0  0  0
  152.0433  144.1215  161.5861 H   0  0  0  0  0  0  0  0  0  0  0  0
  153.5811  142.1556  160.1550 H   0  0  0  0  0  0  0  0  0  0  0  0
  152.3762  141.5285  159.0360 H   0  0  0  0  0  0  0  0  0  0  0  0
  151.9367  141.8636  160.7056 H   0  0  0  0  0  0  0  0  0  0  0  0
  154.0978  144.1127  158.5742 H   0  0  0  0  0  0  0  0  0  0  0  0
  152.8070  145.1385  157.9723 H   0  0  0  0  0  0  0  0  0  0  0  0
  152.9395  143.4715  157.4260 H   0  0  0  0  0  0  0  0  0  0  0  0
  149.5584  143.8908  157.4448 H   0  0  0  0  0  0  0  0  0  0  0  0
  1  2  1  0  0  0  0
  1 17  1  0  0  0  0
  1 18  1  0  0  0  0
  1 19  1  0  0  0  0
  2 16  1  0  0  0  0
  2  3  2  0  0  0  0
  3  4  1  0  0  0  0
  4  5  1  0  0  0  0
  5  6  1  0  0  0  0
  5 16  2  0  0  0  0
  6  7  1  0  0  0  0
  6 20  1  0  0  0  0
  6 21  1  0  0  0  0
  7  8  1  0  0  0  0
  7 22  1  0  0  0  0
  7 23  1  0  0  0  0
  8  9  1  0  0  0  0
  8 24  1  0  0  0  0
  8 38  1  0  0  0  0
  9 13  1  0  0  0  0
  9 10  1  0  0  0  0
  9 25  1  0  0  0  0
 10 11  1  0  0  0  0
 10 26  1  0  0  0  0
 10 27  1  0  0  0  0
 11 12  1  0  0  0  0
 11 28  1  0  0  0  0
 11 29  1  0  0  0  0
 12 13  1  0  0  0  0
 12 30  1  0  0  0  0
 12 31  1  0  0  0  0
 13 14  1  0  0  0  0
 13 15  1  0  0  0  0
 14 32  1  0  0  0  0
 14 33  1  0  0  0  0
 14 34  1  0  0  0  0
 15 35  1  0  0  0  0
 15 36  1  0  0  0  0
 15 37  1  0  0  0  0
M  CHG  1   8   1
M  END
> <s_m_source_file>
AV-unprocessed.smi

> <i_m_source_file_index>
3200

> <i_lp_mmshare_version>
43012

> <i_f3d_flags>
0

> <s_epik_input>
W0NIM11jMW5vYyhuMSlbQ0gyXVtDSDJdW05IXVtDQEBIXShDMihbQ0gzXSlbQ0gzXSlbQ0gyXVtDSDJdW0NIMl0y

> <s_epik_cmdline>
J2VwaWtfcHl0aG9uJywgJy1waCcsICc3LjAnLCAnLXRuJywgJzgnLCAnLW1hJywgJzIwMCcsICctbWV0YWxfYmluZGluZycsICctaW1hZScsICc8aW5maWxlLm1hZT4nLCAnLW9tYWUnLCAnPG91dGZpbGUubWFlPic=

> <r_lp_tautomer_probability>
1

> <r_epik_Ionization_Penalty>
0.000953161

> <r_epik_Ionization_Penalty_Charging>
0.000953161

> <r_epik_Ionization_Penalty_Neutral>
4.23223e-13

> <r_epik_State_Penalty>
0.000619331

> <r_epik_Charging_Adjusted_Penalty>
0.00157249

> <i_epik_Tot_Q>
1

> <i_epik_Tot_abs_Q>
1

> <r_epik_Metal_State_Penalty>
-0

> <b_epik_Metal_Only>
0

> <s_lp_Force_Field>
OPLS_2005

> <r_lp_Energy>
25.4915

> <b_lp_Chiralities_Consistent>
1

> <s_lp_Variant>
AV-unprocessed.smi:3200-1

> <Gold.Version>
5.8.1

> <Gold.Id.Protein>
6NUR|6NUR_protein|mol2

> <Gold.PLP.Fitness>
46.7718

> <Gold.PLP.PLP>
-36.3605

> <Gold.PLP.part.hbond>
-3.0000

> <Gold.PLP.part.metal>
0.0000

> <Gold.PLP.part.buried>
-3.2055

> <Gold.PLP.part.nonpolar>
-30.9461

> <Gold.PLP.part.repulsive>
0.0762

> <Gold.PLP.ligand.clash>
0.0000

> <Gold.PLP.ligand.torsion>
0.8305

> <Gold.PLP.Chemscore.Hbond>
4.0000

> <Gold.PLP.Chemscore.CHOScore>
0.0000

> <Gold.PLP.Chemscore.Metal>
0.0000

> <Gold.Chemscore.Hbonds>
donor molecule, donor type, donor heavy atom, donor atom, acceptor molecule, acceptor atom, score
      L1  H     8    38       P1  8028  1.63
      P1  H  7989  7998       L1    16  0.95
      P1  H  7997  8010       L1     3  0.96

> <Gold.PLP.Chemscore.Internal.Correction>
0.0724

> <Gold.Rescore>
     Score         DG    S(hbond)    S(metal)    S(lipo)     H(rot)  DE(clash)    DE(int)     intcor
     16.85     -18.69       1.94        0.00      96.64       1.79       0.74       1.10       ----

> <Gold.Chemscore.Fitness>
16.8505

> <Gold.Chemscore.DG>
-18.6921

> <Gold.Chemscore.ZeroCoef>
-5.4800

> <Gold.Chemscore.Hbond>
1.9402

> <Gold.Chemscore.Metal>
0.0000

> <Gold.Chemscore.Lipo>
96.6431

> <Gold.Chemscore.Internal_Hbond>
0.0000

> <Gold.Chemscore.DEClash>
0.7399

> <Gold.Chemscore.DEInternal>
1.1016

> <Gold.Chemscore.Rot>
1.7872

> <Gold.Chemscore.Internal.Correction>
   9.000000E+99

> <Gold.Chemscore.Hbonds>
donor molecule, donor type, donor heavy atom, donor atom, acceptor molecule, acceptor atom, score
      L1  H     8    38       P1  8028  0.34
      P1  H  7989  7998       L1    16  0.20
      P1  H  7997  8010       L1     3  0.76

> <Gold.Chemscore.Hbond.Weighted>
-6.4802

> <Gold.Chemscore.Metal.Weighted>
-0.0000

> <Gold.Chemscore.Lipo.Weighted>
-11.3072

> <Gold.Chemscore.Internal_Hbond.Weighted>
0.0000

> <Gold.Chemscore.DEClash.Weighted>
0.7399

> <Gold.Chemscore.DEInternal.Weighted>
1.1016

> <Gold.Chemscore.Rot.Weighted>
4.5753

> <Gold.Chemscore.Internal.Correction.Weighted>
   9.000000E+99

> <Gold.Protein.RotatedTorsions>
[ 6907 6896 6895 6894 ] final  138.67 input  -60.11 | X-H torsion
[ 7974 7965 7964 7962 ] final -132.36 input  175.53 | X-H torsion
[ 8008 7997 7996 7995 ] final   74.51 input   59.86 | X-H torsion
[ 10167 10162 10161 10158 ] final  153.05 input  -65.29 | X-H torsion
[ 10718 10713 10712 10709 ] final -149.69 input   66.30 | X-H torsion
[ 10763 10752 10751 10750 ] final  109.82 input  -60.55 | X-H torsion
[ 11005 11000 10999 10996 ] final -179.47 input  -57.11 | X-H torsion

> <Gold.Protein.ActiveResidues>
 VAL166  LYS551  ARG553  GLY616  TRP617  ASP618  TYR619  PRO620  LYS621  CYS622 
 ASP623  PHE694  ASN695  SER759  ASP760  ASP761  ALA762  ILE779  LEU786  VAL792 
 PHE793  MET794  SER795  GLU796  ALA797  LYS798  CYS799  TRP800  GLU811  SER814 

> <Gold.Protein.RotatedAtoms>
  152.2639  133.5321  159.5397 H   0  0  0  0  0  0  0  0  0  0  0  0  # atno 6907 bound_to 6896
  150.7135  134.0792  159.3901 H   0  0  0  0  0  0  0  0  0  0  0  0  # atno 6908 bound_to 6896
  151.8709  135.0490  160.0530 H   0  0  0  0  0  0  0  0  0  0  0  0  # atno 6909 bound_to 6896
  144.9293  140.7109  143.4916 H   0  0  0  0  0  0  0  0  0  0  0  0  # atno 7974 bound_to 7965
  155.7994  140.3477  155.5394 H   0  0  0  0  0  0  0  0  0  0  0  0  # atno 8008 bound_to 7997
  155.8553  140.0962  157.1669 H   0  0  0  0  0  0  0  0  0  0  0  0  # atno 8009 bound_to 7997
  154.4009  140.1369  156.3881 H   0  0  0  0  0  0  0  0  0  0  0  0  # atno 8010 bound_to 7997
  139.4829  144.5306  151.7729 H   0  0  0  0  0  0  0  0  0  0  0  0  # atno 10167 bound_to 10162
  156.4365  130.8101  151.2329 H   0  0  0  0  0  0  0  0  0  0  0  0  # atno 10718 bound_to 10713
  153.4402  135.3768  155.2223 H   0  0  0  0  0  0  0  0  0  0  0  0  # atno 10763 bound_to 10752
  154.8753  135.3861  154.4162 H   0  0  0  0  0  0  0  0  0  0  0  0  # atno 10764 bound_to 10752
  153.4707  135.7087  153.6059 H   0  0  0  0  0  0  0  0  0  0  0  0  # atno 10765 bound_to 10752
  140.4183  134.6629  157.4651 H   0  0  0  0  0  0  0  0  0  0  0  0  # atno 11005 bound_to 11000
  145.3168  139.1801  143.4609 LP  0  0  0  0  0  0  0  0  0  0  0  0  # atno 17320 bound_to 7965
  146.3240  140.3180  142.8631 LP  0  0  0  0  0  0  0  0  0  0  0  0  # atno 17321 bound_to 7965
  140.4832  144.1419  150.5936 LP  0  0  0  0  0  0  0  0  0  0  0  0  # atno 17342 bound_to 10162
  140.4254  143.2592  151.9662 LP  0  0  0  0  0  0  0  0  0  0  0  0  # atno 17343 bound_to 10162
  157.7507  131.0182  150.3616 LP  0  0  0  0  0  0  0  0  0  0  0  0  # atno 17370 bound_to 10713
  156.3964  130.3907  149.6992 LP  0  0  0  0  0  0  0  0  0  0  0  0  # atno 17371 bound_to 10713
  140.0218  134.6536  155.9229 LP  0  0  0  0  0  0  0  0  0  0  0  0  # atno 17394 bound_to 11000
  141.1794  133.6544  156.4958 LP  0  0  0  0  0  0  0  0  0  0  0  0  # atno 17395 bound_to 11000

$$$$
