AV-unprocessed.smi:3133|AV-procd|sdf|11937|dock1
  -GOLD-   2272017323D 1   1.00000     0.00000
 Structure written by MMmdl.
 32 33  0  0  0  0  0  0  0  0  1 V2000
  152.1470  137.4838  158.2641 C   0  0  0  0  0  0  0  0  0  0  0  0
  152.5006  138.1792  159.5949 C   0  0  2  0  0  0  0  0  0  0  0  0
  153.2906  139.4851  159.4008 C   0  0  0  0  0  0  0  0  0  0  0  0
  154.4193  139.4712  158.9083 O   0  0  0  0  0  0  0  0  0  0  0  0
  152.6743  140.6143  159.7864 N   0  0  0  0  0  0  0  0  0  0  0  0
  153.2337  141.9594  159.7008 C   0  0  0  0  0  0  0  0  0  0  0  0
  152.2404  142.9513  159.0731 C   0  0  2  0  0  0  0  0  0  0  0  0
  152.8178  144.3308  158.7485 C   0  0  0  0  0  0  0  0  0  0  0  0
  151.5815  145.1982  158.7981 C   0  0  0  0  0  0  0  0  0  0  0  0
  150.8275  144.5862  159.9739 C   0  0  0  0  0  0  0  0  0  0  0  0
  151.1618  143.2005  159.9718 O   0  0  0  0  0  0  0  0  0  0  0  0
  153.2049  137.2840  160.5056 N   0  0  0  0  0  0  0  0  0  0  0  0
  153.6138  137.4845  161.7603 C   0  0  0  0  0  0  0  0  0  0  0  0
  154.2697  136.4584  162.2841 N   0  0  0  0  0  0  0  0  0  0  0  0
  154.2355  135.6002  161.2219 C   0  0  0  0  0  0  0  0  0  0  0  0
  153.6175  136.0478  160.1291 N   0  0  0  0  0  0  0  0  0  0  0  0
  151.5675  138.1429  157.6166 H   0  0  0  0  0  0  0  0  0  0  0  0
  151.5466  136.5911  158.4407 H   0  0  0  0  0  0  0  0  0  0  0  0
  153.0374  137.1782  157.7129 H   0  0  0  0  0  0  0  0  0  0  0  0
  151.5593  138.4493  160.0762 H   0  0  0  0  0  0  0  0  0  0  0  0
  151.7470  140.5357  160.1777 H   0  0  0  0  0  0  0  0  0  0  0  0
  153.4744  142.2812  160.7141 H   0  0  0  0  0  0  0  0  0  0  0  0
  154.1763  141.9618  159.1509 H   0  0  0  0  0  0  0  0  0  0  0  0
  151.8110  142.5220  158.1665 H   0  0  0  0  0  0  0  0  0  0  0  0
  153.5223  144.6457  159.5196 H   0  0  0  0  0  0  0  0  0  0  0  0
  153.3273  144.3646  157.7853 H   0  0  0  0  0  0  0  0  0  0  0  0
  151.8029  146.2568  158.9365 H   0  0  0  0  0  0  0  0  0  0  0  0
  151.0052  145.0837  157.8790 H   0  0  0  0  0  0  0  0  0  0  0  0
  151.1707  145.0225  160.9128 H   0  0  0  0  0  0  0  0  0  0  0  0
  149.7502  144.7380  159.9032 H   0  0  0  0  0  0  0  0  0  0  0  0
  153.4320  138.4020  162.3005 H   0  0  0  0  0  0  0  0  0  0  0  0
  154.6844  134.6183  161.2537 H   0  0  0  0  0  0  0  0  0  0  0  0
  1  2  1  0  0  0  0
  1 17  1  0  0  0  0
  1 18  1  0  0  0  0
  1 19  1  0  0  0  0
  2  3  1  0  0  0  0
  2 12  1  0  0  0  0
  2 20  1  0  0  0  0
  3  4  2  0  0  0  0
  3  5  1  0  0  0  0
  5  6  1  0  0  0  0
  5 21  1  0  0  0  0
  6  7  1  0  0  0  0
  6 22  1  0  0  0  0
  6 23  1  0  0  0  0
  7 11  1  0  0  0  0
  7  8  1  0  0  0  0
  7 24  1  0  0  0  0
  8  9  1  0  0  0  0
  8 25  1  0  0  0  0
  8 26  1  0  0  0  0
  9 10  1  0  0  0  0
  9 27  1  0  0  0  0
  9 28  1  0  0  0  0
 10 11  1  0  0  0  0
 10 29  1  0  0  0  0
 10 30  1  0  0  0  0
 12 16  1  0  0  0  0
 12 13  1  0  0  0  0
 13 14  2  0  0  0  0
 13 31  1  0  0  0  0
 14 15  1  0  0  0  0
 15 16  2  0  0  0  0
 15 32  1  0  0  0  0
M  END
> <s_m_source_file>
AV-unprocessed.smi

> <i_m_source_file_index>
3133

> <i_lp_mmshare_version>
43012

> <i_f3d_flags>
0

> <s_epik_input>
bjFbY0hdbltjSF1uMVtDQEhdKFtDSDNdKUMoPU8pW05IXVtDSDJdW0NAQEhdMltDSDJdW0NIMl1bQ0gyXU8y

> <s_epik_cmdline>
J2VwaWtfcHl0aG9uJywgJy1waCcsICc3LjAnLCAnLXRuJywgJzgnLCAnLW1hJywgJzIwMCcsICctbWV0YWxfYmluZGluZycsICctaW1hZScsICc8aW5maWxlLm1hZT4nLCAnLW9tYWUnLCAnPG91dGZpbGUubWFlPic=

> <r_lp_tautomer_probability>
1

> <r_epik_Ionization_Penalty>
1.2027e-05

> <r_epik_Ionization_Penalty_Charging>
0

> <r_epik_Ionization_Penalty_Neutral>
1.2027e-05

> <r_epik_State_Penalty>
-0

> <r_epik_Charging_Adjusted_Penalty>
0

> <i_epik_Tot_Q>
0

> <i_epik_Tot_abs_Q>
0

> <r_epik_Metal_State_Penalty>
-0

> <b_epik_Metal_Only>
0

> <s_lp_Force_Field>
OPLS_2005

> <r_lp_Energy>
23.5717

> <b_lp_Chiralities_Consistent>
1

> <s_lp_Variant>
AV-unprocessed.smi:3133-1

> <Gold.Version>
5.8.1

> <Gold.Id.Protein>
6NUR|6NUR_protein|mol2

> <Gold.PLP.Fitness>
39.7240

> <Gold.PLP.PLP>
-33.9262

> <Gold.PLP.part.hbond>
-2.6420

> <Gold.PLP.part.metal>
0.0000

> <Gold.PLP.part.buried>
-5.1492

> <Gold.PLP.part.nonpolar>
-25.9036

> <Gold.PLP.part.repulsive>
0.1780

> <Gold.PLP.ligand.clash>
0.0000

> <Gold.PLP.ligand.torsion>
0.1746

> <Gold.PLP.Chemscore.Hbond>
2.0000

> <Gold.PLP.Chemscore.CHOScore>
0.0000

> <Gold.PLP.Chemscore.Metal>
0.0000

> <Gold.Chemscore.Hbonds>
donor molecule, donor type, donor heavy atom, donor atom, acceptor molecule, acceptor atom, score
      P1  H  6896  6909       L1    16  1.00
      P1  H  7997  8009       L1     4  1.00

> <Gold.PLP.Chemscore.Internal.Correction>
0.1471

> <Gold.Rescore>
     Score         DG    S(hbond)    S(metal)    S(lipo)     H(rot)  DE(clash)    DE(int)     intcor
     14.35     -14.55       1.97        0.00      70.55       2.26       0.01       0.19       ----

> <Gold.Chemscore.Fitness>
14.3481

> <Gold.Chemscore.DG>
-14.5499

> <Gold.Chemscore.ZeroCoef>
-5.4800

> <Gold.Chemscore.Hbond>
1.9733

> <Gold.Chemscore.Metal>
0.0000

> <Gold.Chemscore.Lipo>
70.5464

> <Gold.Chemscore.Internal_Hbond>
0.0000

> <Gold.Chemscore.DEClash>
0.0149

> <Gold.Chemscore.DEInternal>
0.1869

> <Gold.Chemscore.Rot>
2.2558

> <Gold.Chemscore.Internal.Correction>
   9.000000E+99

> <Gold.Chemscore.Hbonds>
donor molecule, donor type, donor heavy atom, donor atom, acceptor molecule, acceptor atom, score
      P1  H  6896  6909       L1    16  0.21
      P1  H  7997  8009       L1     4  0.97

> <Gold.Chemscore.Hbond.Weighted>
-6.5907

> <Gold.Chemscore.Metal.Weighted>
-0.0000

> <Gold.Chemscore.Lipo.Weighted>
-8.2539

> <Gold.Chemscore.Internal_Hbond.Weighted>
0.0000

> <Gold.Chemscore.DEClash.Weighted>
0.0149

> <Gold.Chemscore.DEInternal.Weighted>
0.1869

> <Gold.Chemscore.Rot.Weighted>
5.7747

> <Gold.Chemscore.Internal.Correction.Weighted>
   9.000000E+99

> <Gold.Protein.RotatedTorsions>
[ 6907 6896 6895 6894 ] final  162.44 input  -60.11 | X-H torsion
[ 7974 7965 7964 7962 ] final  130.40 input  175.53 | X-H torsion
[ 8008 7997 7996 7995 ] final  109.69 input   59.86 | X-H torsion
[ 10167 10162 10161 10158 ] final   35.51 input  -65.29 | X-H torsion
[ 10718 10713 10712 10709 ] final -109.25 input   66.30 | X-H torsion
[ 10763 10752 10751 10750 ] final   77.47 input  -60.55 | X-H torsion
[ 11005 11000 10999 10996 ] final   52.09 input  -57.11 | X-H torsion

> <Gold.Protein.ActiveResidues>
 VAL166  LYS551  ARG553  GLY616  TRP617  ASP618  TYR619  PRO620  LYS621  CYS622 
 ASP623  PHE694  ASN695  SER759  ASP760  ASP761  ALA762  ILE779  LEU786  VAL792 
 PHE793  MET794  SER795  GLU796  ALA797  LYS798  CYS799  TRP800  GLU811  SER814 

> <Gold.Protein.RotatedAtoms>
  151.9404  133.3636  159.3962 H   0  0  0  0  0  0  0  0  0  0  0  0  # atno 6907 bound_to 6896
  150.6999  134.4445  159.5317 H   0  0  0  0  0  0  0  0  0  0  0  0  # atno 6908 bound_to 6896
  152.2101  134.8509  160.0549 H   0  0  0  0  0  0  0  0  0  0  0  0  # atno 6909 bound_to 6896
  145.0183  139.4155  143.5210 H   0  0  0  0  0  0  0  0  0  0  0  0  # atno 7974 bound_to 7965
  156.1998  140.3053  155.9502 H   0  0  0  0  0  0  0  0  0  0  0  0  # atno 8008 bound_to 7997
  155.2981  140.0445  157.3044 H   0  0  0  0  0  0  0  0  0  0  0  0  # atno 8009 bound_to 7997
  154.5556  140.2304  155.8425 H   0  0  0  0  0  0  0  0  0  0  0  0  # atno 8010 bound_to 7997
  140.4215  144.1453  150.6148 H   0  0  0  0  0  0  0  0  0  0  0  0  # atno 10167 bound_to 10162
  156.0527  130.5754  150.8074 H   0  0  0  0  0  0  0  0  0  0  0  0  # atno 10718 bound_to 10713
  153.0801  135.4913  154.8485 H   0  0  0  0  0  0  0  0  0  0  0  0  # atno 10763 bound_to 10752
  154.7139  135.3025  154.9156 H   0  0  0  0  0  0  0  0  0  0  0  0  # atno 10764 bound_to 10752
  153.9841  135.6786  153.4804 H   0  0  0  0  0  0  0  0  0  0  0  0  # atno 10765 bound_to 10752
  140.0878  134.5250  155.8881 H   0  0  0  0  0  0  0  0  0  0  0  0  # atno 11005 bound_to 11000
  146.3481  139.9666  142.8711 LP  0  0  0  0  0  0  0  0  0  0  0  0  # atno 17320 bound_to 7965
  145.1930  140.9820  143.4200 LP  0  0  0  0  0  0  0  0  0  0  0  0  # atno 17321 bound_to 7965
  140.4529  143.2479  151.9324 LP  0  0  0  0  0  0  0  0  0  0  0  0  # atno 17342 bound_to 10162
  139.4783  144.5545  151.8335 LP  0  0  0  0  0  0  0  0  0  0  0  0  # atno 17343 bound_to 10162
  157.5469  131.0942  150.9750 LP  0  0  0  0  0  0  0  0  0  0  0  0  # atno 17370 bound_to 10713
  157.0019  130.5603  149.5312 LP  0  0  0  0  0  0  0  0  0  0  0  0  # atno 17371 bound_to 10713
  141.2068  133.6658  156.6266 LP  0  0  0  0  0  0  0  0  0  0  0  0  # atno 17394 bound_to 11000
  140.3395  134.7861  157.4387 LP  0  0  0  0  0  0  0  0  0  0  0  0  # atno 17395 bound_to 11000

$$$$
