AV-unprocessed.smi:1236|AV-procd|sdf|5181|dock4
  -GOLD-   22720 4263D 1   1.00000     0.00000
 Structure written by MMmdl.
 40 41  0  0  0  0  0  0  0  0  2 V2000
  148.9814  139.9925  153.8756 C   0  0  0  0  0  0  0  0  0  0  0  0
  147.9085  140.7956  154.6234 C   0  0  2  0  0  0  0  0  0  0  0  0
  146.8807  141.4062  153.6419 C   0  0  0  0  0  0  0  0  0  0  0  0
  145.5841  141.7365  154.2858 N   0  3  0  0  0  0  0  0  0  0  0  0
  145.4446  141.1647  155.6450 C   0  0  0  0  0  0  0  0  0  0  0  0
  144.0475  141.4744  156.2099 C   0  0  0  0  0  0  0  0  0  0  0  0
  143.8309  142.8804  156.2108 O   0  0  0  0  0  0  0  0  0  0  0  0
  143.8866  143.4300  154.8998 C   0  0  0  0  0  0  0  0  0  0  0  0
  145.2821  143.1882  154.3019 C   0  0  0  0  0  0  0  0  0  0  0  0
  148.5627  141.8298  155.4275 N   0  0  0  0  0  0  0  0  0  0  0  0
  149.5234  141.6266  156.3422 C   0  0  0  0  0  0  0  0  0  0  0  0
  149.9578  140.5113  156.6312 O   0  0  0  0  0  0  0  0  0  0  0  0
  149.9255  142.7844  156.8948 N   0  0  0  0  0  0  0  0  0  0  0  0
  150.8720  142.9748  157.9368 C   0  0  0  0  0  0  0  0  0  0  0  0
  151.0900  144.3203  158.3097 C   0  0  0  0  0  0  0  0  0  0  0  0
  152.0064  144.6147  159.3379 C   0  0  0  0  0  0  0  0  0  0  0  0
  152.6818  143.5541  159.9675 C   0  0  0  0  0  0  0  0  0  0  0  0
  152.4062  142.2434  159.5367 C   0  0  0  0  0  0  0  0  0  0  0  0
  151.5268  141.9589  158.5528 N   0  0  0  0  0  0  0  0  0  0  0  0
  148.5332  139.1821  153.2999 H   0  0  0  0  0  0  0  0  0  0  0  0
  149.6938  139.5455  154.5700 H   0  0  0  0  0  0  0  0  0  0  0  0
  149.5413  140.6222  153.1832 H   0  0  0  0  0  0  0  0  0  0  0  0
  147.4000  140.0964  155.2886 H   0  0  0  0  0  0  0  0  0  0  0  0
  147.3131  142.3164  153.2230 H   0  0  0  0  0  0  0  0  0  0  0  0
  146.7083  140.7377  152.7970 H   0  0  0  0  0  0  0  0  0  0  0  0
  145.5934  140.0847  155.6118 H   0  0  0  0  0  0  0  0  0  0  0  0
  146.2158  141.5769  156.2977 H   0  0  0  0  0  0  0  0  0  0  0  0
  143.2726  140.9759  155.6252 H   0  0  0  0  0  0  0  0  0  0  0  0
  143.9645  141.1035  157.2315 H   0  0  0  0  0  0  0  0  0  0  0  0
  143.1114  142.9875  154.2716 H   0  0  0  0  0  0  0  0  0  0  0  0
  143.6810  144.4989  154.9549 H   0  0  0  0  0  0  0  0  0  0  0  0
  146.0364  143.7159  154.8875 H   0  0  0  0  0  0  0  0  0  0  0  0
  145.3189  143.5964  153.2923 H   0  0  0  0  0  0  0  0  0  0  0  0
  148.2708  142.7813  155.2569 H   0  0  0  0  0  0  0  0  0  0  0  0
  149.4943  143.6262  156.5422 H   0  0  0  0  0  0  0  0  0  0  0  0
  150.5630  145.1237  157.8154 H   0  0  0  0  0  0  0  0  0  0  0  0
  152.1871  145.6365  159.6375 H   0  0  0  0  0  0  0  0  0  0  0  0
  153.3921  143.7403  160.7595 H   0  0  0  0  0  0  0  0  0  0  0  0
  152.9031  141.4009  159.9940 H   0  0  0  0  0  0  0  0  0  0  0  0
  144.8695  141.2980  153.7221 H   0  0  0  0  0  0  0  0  0  0  0  0
  1  2  1  0  0  0  0
  1 20  1  0  0  0  0
  1 21  1  0  0  0  0
  1 22  1  0  0  0  0
  2  3  1  0  0  0  0
  2 10  1  0  0  0  0
  2 23  1  0  0  0  0
  3  4  1  0  0  0  0
  3 24  1  0  0  0  0
  3 25  1  0  0  0  0
  4  9  1  0  0  0  0
  4  5  1  0  0  0  0
  4 40  1  0  0  0  0
  5  6  1  0  0  0  0
  5 26  1  0  0  0  0
  5 27  1  0  0  0  0
  6  7  1  0  0  0  0
  6 28  1  0  0  0  0
  6 29  1  0  0  0  0
  7  8  1  0  0  0  0
  8  9  1  0  0  0  0
  8 30  1  0  0  0  0
  8 31  1  0  0  0  0
  9 32  1  0  0  0  0
  9 33  1  0  0  0  0
 10 11  1  0  0  0  0
 10 34  1  0  0  0  0
 11 12  2  0  0  0  0
 11 13  1  0  0  0  0
 13 14  1  0  0  0  0
 13 35  1  0  0  0  0
 14 19  1  0  0  0  0
 14 15  2  0  0  0  0
 15 16  1  0  0  0  0
 15 36  1  0  0  0  0
 16 17  2  0  0  0  0
 16 37  1  0  0  0  0
 17 18  1  0  0  0  0
 17 38  1  0  0  0  0
 18 19  2  0  0  0  0
 18 39  1  0  0  0  0
M  CHG  1   4   1
M  END
> <s_m_source_file>
AV-unprocessed.smi

> <i_m_source_file_index>
1236

> <i_lp_mmshare_version>
43012

> <i_f3d_flags>
0

> <s_epik_input>
W0NIMl0xW0NIMl1PW0NIMl1bQ0gyXU4xW0NIMl1bQ0BASF0oW0NIM10pW05IXUMoPU8pW05IXWMyW2NIXVtjSF1bY0hdW2NIXW4y

> <s_epik_cmdline>
J2VwaWtfcHl0aG9uJywgJy1waCcsICc3LjAnLCAnLXRuJywgJzgnLCAnLW1hJywgJzIwMCcsICctbWV0YWxfYmluZGluZycsICctaW1hZScsICc8aW5maWxlLm1hZT4nLCAnLW9tYWUnLCAnPG91dGZpbGUubWFlPic=

> <r_epik_Ionization_Penalty>
0.602564

> <r_epik_Ionization_Penalty_Charging>
0.602531

> <r_epik_Ionization_Penalty_Neutral>
3.36306e-05

> <r_epik_State_Penalty>
0.617039

> <r_epik_Charging_Adjusted_Penalty>
1.21957

> <i_epik_Tot_Q>
1

> <i_epik_Tot_abs_Q>
1

> <r_epik_Metal_State_Penalty>
0.617041

> <b_epik_Metal_Only>
0

> <s_lp_Force_Field>
OPLS_2005

> <r_lp_Energy>
24.2739

> <b_lp_Chiralities_Consistent>
1

> <s_lp_Variant>
AV-unprocessed.smi:1236-3

> <Gold.Version>
5.8.1

> <Gold.Id.Protein>
6NUR|6NUR_protein|mol2

> <Gold.PLP.Fitness>
43.6104

> <Gold.PLP.PLP>
-35.9819

> <Gold.PLP.part.hbond>
-2.9906

> <Gold.PLP.part.metal>
0.0000

> <Gold.PLP.part.buried>
-3.7002

> <Gold.PLP.part.nonpolar>
-32.0575

> <Gold.PLP.part.repulsive>
0.2873

> <Gold.PLP.ligand.clash>
2.0621

> <Gold.PLP.ligand.torsion>
0.9251

> <Gold.PLP.Chemscore.Hbond>
3.8406

> <Gold.PLP.Chemscore.CHOScore>
0.0000

> <Gold.PLP.Chemscore.Metal>
0.0000

> <Gold.Chemscore.Hbonds>
donor molecule, donor type, donor heavy atom, donor atom, acceptor molecule, acceptor atom, score
      L1  H     4    40       P1 10175  2.00
      L1  H    10    34       P1  8028  0.77
      L1  H    13    35       P1  8028  0.99

> <Gold.PLP.Chemscore.Internal.Correction>
0.0191

> <Gold.Rescore>
     Score         DG    S(hbond)    S(metal)    S(lipo)     H(rot)  DE(clash)    DE(int)     intcor
     15.94     -18.33       2.22        0.00      80.46       1.56       0.05       2.33       ----

> <Gold.Chemscore.Fitness>
15.9411

> <Gold.Chemscore.DG>
-18.3262

> <Gold.Chemscore.ZeroCoef>
-5.4800

> <Gold.Chemscore.Hbond>
2.2221

> <Gold.Chemscore.Metal>
0.0000

> <Gold.Chemscore.Lipo>
80.4603

> <Gold.Chemscore.Internal_Hbond>
0.0000

> <Gold.Chemscore.DEClash>
0.0502

> <Gold.Chemscore.DEInternal>
2.3349

> <Gold.Chemscore.Rot>
1.5584

> <Gold.Chemscore.Internal.Correction>
   9.000000E+99

> <Gold.Chemscore.Hbonds>
donor molecule, donor type, donor heavy atom, donor atom, acceptor molecule, acceptor atom, score
      L1  H     4    40       P1 10175  0.35
      L1  H    10    34       P1  8028  0.73
      L1  H    13    35       P1  8028  0.92

> <Gold.Chemscore.Hbond.Weighted>
-7.4220

> <Gold.Chemscore.Metal.Weighted>
-0.0000

> <Gold.Chemscore.Lipo.Weighted>
-9.4139

> <Gold.Chemscore.Internal_Hbond.Weighted>
0.0000

> <Gold.Chemscore.DEClash.Weighted>
0.0502

> <Gold.Chemscore.DEInternal.Weighted>
2.3349

> <Gold.Chemscore.Rot.Weighted>
3.9896

> <Gold.Chemscore.Internal.Correction.Weighted>
   9.000000E+99

> <Gold.Protein.RotatedTorsions>
[ 6907 6896 6895 6894 ] final  -55.71 input  -60.11 | X-H torsion
[ 7974 7965 7964 7962 ] final -130.47 input  175.53 | X-H torsion
[ 8008 7997 7996 7995 ] final   83.83 input   59.86 | X-H torsion
[ 10167 10162 10161 10158 ] final   -0.52 input  -65.29 | X-H torsion
[ 10718 10713 10712 10709 ] final  -29.48 input   66.30 | X-H torsion
[ 10763 10752 10751 10750 ] final    5.77 input  -60.55 | X-H torsion
[ 11005 11000 10999 10996 ] final   35.38 input  -57.11 | X-H torsion

> <Gold.Protein.ActiveResidues>
 VAL166  LYS551  ARG553  GLY616  TRP617  ASP618  TYR619  PRO620  LYS621  CYS622 
 ASP623  PHE694  ASN695  SER759  ASP760  ASP761  ALA762  ILE779  LEU786  VAL792 
 PHE793  MET794  SER795  GLU796  ALA797  LYS798  CYS799  TRP800  GLU811  SER814 

> <Gold.Protein.RotatedAtoms>
  150.8229  134.7445  159.6787 H   0  0  0  0  0  0  0  0  0  0  0  0  # atno 6907 bound_to 6896
  152.4342  134.5715  159.9932 H   0  0  0  0  0  0  0  0  0  0  0  0  # atno 6908 bound_to 6896
  151.5894  133.3331  159.3060 H   0  0  0  0  0  0  0  0  0  0  0  0  # atno 6909 bound_to 6896
  144.9472  140.7304  143.4810 H   0  0  0  0  0  0  0  0  0  0  0  0  # atno 7974 bound_to 7965
  155.9291  140.3416  155.6234 H   0  0  0  0  0  0  0  0  0  0  0  0  # atno 8008 bound_to 7997
  155.7179  140.0780  157.2362 H   0  0  0  0  0  0  0  0  0  0  0  0  # atno 8009 bound_to 7997
  154.4082  140.1611  156.2357 H   0  0  0  0  0  0  0  0  0  0  0  0  # atno 8010 bound_to 7997
  140.6771  143.6885  150.8047 H   0  0  0  0  0  0  0  0  0  0  0  0  # atno 10167 bound_to 10162
  156.4119  130.4409  149.7246 H   0  0  0  0  0  0  0  0  0  0  0  0  # atno 10718 bound_to 10713
  153.2555  135.6918  153.7634 H   0  0  0  0  0  0  0  0  0  0  0  0  # atno 10763 bound_to 10752
  153.6712  135.3344  155.3154 H   0  0  0  0  0  0  0  0  0  0  0  0  # atno 10764 bound_to 10752
  154.8410  135.4500  154.1527 H   0  0  0  0  0  0  0  0  0  0  0  0  # atno 10765 bound_to 10752
  140.2432  134.3390  155.7917 H   0  0  0  0  0  0  0  0  0  0  0  0  # atno 11005 bound_to 11000
  145.2900  139.1887  143.4745 LP  0  0  0  0  0  0  0  0  0  0  0  0  # atno 17320 bound_to 7965
  146.3308  140.2875  142.8613 LP  0  0  0  0  0  0  0  0  0  0  0  0  # atno 17321 bound_to 7965
  140.0579  143.5184  152.2642 LP  0  0  0  0  0  0  0  0  0  0  0  0  # atno 17342 bound_to 10162
  139.6069  144.7599  151.3040 LP  0  0  0  0  0  0  0  0  0  0  0  0  # atno 17343 bound_to 10162
  156.4221  130.7774  151.2791 LP  0  0  0  0  0  0  0  0  0  0  0  0  # atno 17370 bound_to 10713
  157.7507  131.0179  150.3606 LP  0  0  0  0  0  0  0  0  0  0  0  0  # atno 17371 bound_to 10713
  141.2208  133.7311  156.8919 LP  0  0  0  0  0  0  0  0  0  0  0  0  # atno 17394 bound_to 11000
  140.1632  134.9151  157.2741 LP  0  0  0  0  0  0  0  0  0  0  0  0  # atno 17395 bound_to 11000

$$$$
