AV-unprocessed.smi:826|AV-procd|sdf|3853|dock7
  -GOLD-   22720 1303D 1   1.00000     0.00000
 Structure written by MMmdl.
 39 40  0  0  0  0  0  0  0  0  1 V2000
  144.0582  143.8575  162.9353 C   0  0  0  0  0  0  0  0  0  0  0  0
  144.7433  143.3071  161.7317 C   0  0  0  0  0  0  0  0  0  0  0  0
  144.8248  141.9936  161.4882 N   0  0  0  0  0  0  0  0  0  0  0  0
  145.5099  141.7179  160.3132 N   0  0  0  0  0  0  0  0  0  0  0  0
  145.9262  142.8362  159.7030 C   0  0  0  0  0  0  0  0  0  0  0  0
  146.6600  142.8454  158.4874 N   0  0  0  0  0  0  0  0  0  0  0  0
  147.3513  141.8387  157.9252 C   0  0  0  0  0  0  0  0  0  0  0  0
  147.4266  140.6916  158.3671 O   0  0  0  0  0  0  0  0  0  0  0  0
  147.9663  142.2386  156.8014 N   0  0  0  0  0  0  0  0  0  0  0  0
  148.8321  141.4001  155.9734 C   0  0  1  0  0  0  0  0  0  0  0  0
  148.4512  141.6226  154.5004 C   0  0  0  0  0  0  0  0  0  0  0  0
  150.3043  141.7990  156.1631 C   0  0  0  0  0  0  0  0  0  0  0  0
  151.1990  141.1882  155.5763 O   0  0  0  0  0  0  0  0  0  0  0  0
  150.5363  142.8293  156.9901 N   0  0  0  0  0  0  0  0  0  0  0  0
  151.8517  143.3901  157.2847 C   0  0  0  0  0  0  0  0  0  0  0  0
  152.5264  142.6267  158.4406 C   0  0  0  0  0  0  0  0  0  0  0  0
  153.0372  143.6924  159.4117 C   0  0  0  0  0  0  0  0  0  0  0  0
  152.0652  144.8549  159.2406 C   0  0  0  0  0  0  0  0  0  0  0  0
  151.7476  144.8586  157.7452 C   0  0  0  0  0  0  0  0  0  0  0  0
  145.5089  144.3314  160.5226 S   0  0  0  0  0  0  0  0  0  0  0  0
  143.0227  143.5173  162.9656 H   0  0  0  0  0  0  0  0  0  0  0  0
  144.0675  144.9473  162.9135 H   0  0  0  0  0  0  0  0  0  0  0  0
  144.5654  143.5219  163.8402 H   0  0  0  0  0  0  0  0  0  0  0  0
  146.6780  143.7287  157.9993 H   0  0  0  0  0  0  0  0  0  0  0  0
  147.8542  143.1990  156.5116 H   0  0  0  0  0  0  0  0  0  0  0  0
  148.6862  140.3494  156.2327 H   0  0  0  0  0  0  0  0  0  0  0  0
  149.0704  141.0180  153.8365 H   0  0  0  0  0  0  0  0  0  0  0  0
  148.5656  142.6663  154.2030 H   0  0  0  0  0  0  0  0  0  0  0  0
  147.4131  141.3413  154.3201 H   0  0  0  0  0  0  0  0  0  0  0  0
  149.7423  143.2731  157.4284 H   0  0  0  0  0  0  0  0  0  0  0  0
  152.4820  143.3312  156.3954 H   0  0  0  0  0  0  0  0  0  0  0  0
  151.8034  141.9943  158.9583 H   0  0  0  0  0  0  0  0  0  0  0  0
  153.3288  141.9764  158.0913 H   0  0  0  0  0  0  0  0  0  0  0  0
  153.0882  143.3340  160.4401 H   0  0  0  0  0  0  0  0  0  0  0  0
  154.0393  144.0076  159.1183 H   0  0  0  0  0  0  0  0  0  0  0  0
  151.1549  144.6596  159.8089 H   0  0  0  0  0  0  0  0  0  0  0  0
  152.4778  145.8032  159.5856 H   0  0  0  0  0  0  0  0  0  0  0  0
  152.4970  145.4521  157.2201 H   0  0  0  0  0  0  0  0  0  0  0  0
  150.7782  145.3142  157.5370 H   0  0  0  0  0  0  0  0  0  0  0  0
  1  2  1  0  0  0  0
  1 21  1  0  0  0  0
  1 22  1  0  0  0  0
  1 23  1  0  0  0  0
  2 20  1  0  0  0  0
  2  3  2  0  0  0  0
  3  4  1  0  0  0  0
  4  5  2  0  0  0  0
  5  6  1  0  0  0  0
  5 20  1  0  0  0  0
  6  7  1  0  0  0  0
  6 24  1  0  0  0  0
  7  8  2  0  0  0  0
  7  9  1  0  0  0  0
  9 10  1  0  0  0  0
  9 25  1  0  0  0  0
 10 11  1  0  0  0  0
 10 12  1  0  0  0  0
 10 26  1  0  0  0  0
 11 27  1  0  0  0  0
 11 28  1  0  0  0  0
 11 29  1  0  0  0  0
 12 13  2  0  0  0  0
 12 14  1  0  0  0  0
 14 15  1  0  0  0  0
 14 30  1  0  0  0  0
 15 19  1  0  0  0  0
 15 16  1  0  0  0  0
 15 31  1  0  0  0  0
 16 17  1  0  0  0  0
 16 32  1  0  0  0  0
 16 33  1  0  0  0  0
 17 18  1  0  0  0  0
 17 34  1  0  0  0  0
 17 35  1  0  0  0  0
 18 19  1  0  0  0  0
 18 36  1  0  0  0  0
 18 37  1  0  0  0  0
 19 38  1  0  0  0  0
 19 39  1  0  0  0  0
M  END
> <s_m_source_file>
AV-unprocessed.smi

> <i_m_source_file_index>
826

> <i_lp_mmshare_version>
43012

> <i_f3d_flags>
0

> <s_epik_input>
W0NIM11jMW5uYyhzMSlbTkhdQyg9TylbTkhdW0NASF0oW0NIM10pQyg9TylbTkhdW0NIXTJbQ0gyXVtDSDJdW0NIMl1bQ0gyXTI=

> <s_epik_cmdline>
J2VwaWtfcHl0aG9uJywgJy1waCcsICc3LjAnLCAnLXRuJywgJzgnLCAnLW1hJywgJzIwMCcsICctbWV0YWxfYmluZGluZycsICctaW1hZScsICc8aW5maWxlLm1hZT4nLCAnLW9tYWUnLCAnPG91dGZpbGUubWFlPic=

> <r_lp_tautomer_probability>
1

> <r_epik_Ionization_Penalty>
0.00368568

> <r_epik_Ionization_Penalty_Charging>
0

> <r_epik_Ionization_Penalty_Neutral>
0.00368568

> <r_epik_State_Penalty>
-0

> <r_epik_Charging_Adjusted_Penalty>
0

> <i_epik_Tot_Q>
0

> <i_epik_Tot_abs_Q>
0

> <r_epik_Metal_State_Penalty>
0.369753

> <b_epik_Metal_Only>
0

> <s_lp_Force_Field>
OPLS_2005

> <r_lp_Energy>
15.8717

> <b_lp_Chiralities_Consistent>
1

> <s_lp_Variant>
AV-unprocessed.smi:826-2

> <Gold.Version>
5.8.1

> <Gold.Id.Protein>
6NUR|6NUR_protein|mol2

> <Gold.PLP.Fitness>
46.8594

> <Gold.PLP.PLP>
-41.3899

> <Gold.PLP.part.hbond>
-5.2060

> <Gold.PLP.part.metal>
0.0000

> <Gold.PLP.part.buried>
-4.6926

> <Gold.PLP.part.nonpolar>
-29.8428

> <Gold.PLP.part.repulsive>
0.1578

> <Gold.PLP.ligand.clash>
0.0000

> <Gold.PLP.ligand.torsion>
0.6269

> <Gold.PLP.Chemscore.Hbond>
2.2392

> <Gold.PLP.Chemscore.CHOScore>
0.0000

> <Gold.PLP.Chemscore.Metal>
0.0000

> <Gold.Chemscore.Hbonds>
donor molecule, donor type, donor heavy atom, donor atom, acceptor molecule, acceptor atom, score
      L1  H     9    25       P1  8028  0.64
      P1  H  6934  6946       L1     4  1.00
      P1  H  7989  7998       L1    13  0.42

> <Gold.PLP.Chemscore.Internal.Correction>
0.0058

> <Gold.Rescore>
     Score         DG    S(hbond)    S(metal)    S(lipo)     H(rot)  DE(clash)    DE(int)     intcor
     14.77     -16.96       1.56        0.00      89.74       1.65       0.14       2.05       ----

> <Gold.Chemscore.Fitness>
14.7729

> <Gold.Chemscore.DG>
-16.9601

> <Gold.Chemscore.ZeroCoef>
-5.4800

> <Gold.Chemscore.Hbond>
1.5551

> <Gold.Chemscore.Metal>
0.0000

> <Gold.Chemscore.Lipo>
89.7380

> <Gold.Chemscore.Internal_Hbond>
0.0000

> <Gold.Chemscore.DEClash>
0.1386

> <Gold.Chemscore.DEInternal>
2.0485

> <Gold.Chemscore.Rot>
1.6458

> <Gold.Chemscore.Internal.Correction>
   9.000000E+99

> <Gold.Chemscore.Hbonds>
donor molecule, donor type, donor heavy atom, donor atom, acceptor molecule, acceptor atom, score
      L1  H     9    25       P1  8028  0.08
      L1  H    14    30       P1  8028  0.01
      P1  H  6934  6946       L1     4  0.36
      P1  H  7989  7998       L1    13  0.42

> <Gold.Chemscore.Hbond.Weighted>
-5.1940

> <Gold.Chemscore.Metal.Weighted>
-0.0000

> <Gold.Chemscore.Lipo.Weighted>
-10.4993

> <Gold.Chemscore.Internal_Hbond.Weighted>
0.0000

> <Gold.Chemscore.DEClash.Weighted>
0.1386

> <Gold.Chemscore.DEInternal.Weighted>
2.0485

> <Gold.Chemscore.Rot.Weighted>
4.2133

> <Gold.Chemscore.Internal.Correction.Weighted>
   9.000000E+99

> <Gold.Protein.RotatedTorsions>
[ 6907 6896 6895 6894 ] final    2.71 input  -60.11 | X-H torsion
[ 7974 7965 7964 7962 ] final -169.70 input  175.53 | X-H torsion
[ 8008 7997 7996 7995 ] final  -20.47 input   59.86 | X-H torsion
[ 10167 10162 10161 10158 ] final   18.19 input  -65.29 | X-H torsion
[ 10718 10713 10712 10709 ] final  -82.42 input   66.30 | X-H torsion
[ 10763 10752 10751 10750 ] final  -88.74 input  -60.55 | X-H torsion
[ 11005 11000 10999 10996 ] final  -72.46 input  -57.11 | X-H torsion

> <Gold.Protein.ActiveResidues>
 VAL166  LYS551  ARG553  GLY616  TRP617  ASP618  TYR619  PRO620  LYS621  CYS622 
 ASP623  PHE694  ASN695  SER759  ASP760  ASP761  ALA762  ILE779  LEU786  VAL792 
 PHE793  MET794  SER795  GLU796  ALA797  LYS798  CYS799  TRP800  GLU811  SER814 

> <Gold.Protein.RotatedAtoms>
  151.6132  135.1038  160.0085 H   0  0  0  0  0  0  0  0  0  0  0  0  # atno 6907 bound_to 6896
  152.4197  133.7092  159.6479 H   0  0  0  0  0  0  0  0  0  0  0  0  # atno 6908 bound_to 6896
  150.8085  133.8393  159.3215 H   0  0  0  0  0  0  0  0  0  0  0  0  # atno 6909 bound_to 6896
  144.7181  140.2182  143.6319 H   0  0  0  0  0  0  0  0  0  0  0  0  # atno 7974 bound_to 7965
  154.4767  140.2061  155.9860 H   0  0  0  0  0  0  0  0  0  0  0  0  # atno 8008 bound_to 7997
  156.1101  140.3230  155.8030 H   0  0  0  0  0  0  0  0  0  0  0  0  # atno 8009 bound_to 7997
  155.4650  140.0527  157.2977 H   0  0  0  0  0  0  0  0  0  0  0  0  # atno 8010 bound_to 7997
  140.5671  143.9230  150.6685 H   0  0  0  0  0  0  0  0  0  0  0  0  # atno 10167 bound_to 10162
  156.0033  130.4634  150.4103 H   0  0  0  0  0  0  0  0  0  0  0  0  # atno 10718 bound_to 10713
  154.6478  135.5366  153.7865 H   0  0  0  0  0  0  0  0  0  0  0  0  # atno 10763 bound_to 10752
  153.0369  135.6475  154.1063 H   0  0  0  0  0  0  0  0  0  0  0  0  # atno 10764 bound_to 10752
  154.0983  135.2935  155.3237 H   0  0  0  0  0  0  0  0  0  0  0  0  # atno 10765 bound_to 10752
  141.1609  133.6847  156.7062 H   0  0  0  0  0  0  0  0  0  0  0  0  # atno 11005 bound_to 11000
  145.8526  139.2183  143.1763 LP  0  0  0  0  0  0  0  0  0  0  0  0  # atno 17320 bound_to 7965
  146.0247  140.8315  142.9906 LP  0  0  0  0  0  0  0  0  0  0  0  0  # atno 17321 bound_to 7965
  140.2696  143.3465  152.1250 LP  0  0  0  0  0  0  0  0  0  0  0  0  # atno 17342 bound_to 10162
  139.5098  144.6874  151.5851 LP  0  0  0  0  0  0  0  0  0  0  0  0  # atno 17343 bound_to 10162
  157.2166  131.0473  151.2570 LP  0  0  0  0  0  0  0  0  0  0  0  0  # atno 17370 bound_to 10713
  157.3839  130.7246  149.6649 LP  0  0  0  0  0  0  0  0  0  0  0  0  # atno 17371 bound_to 10713
  140.2921  134.8232  157.4026 LP  0  0  0  0  0  0  0  0  0  0  0  0  # atno 17394 bound_to 11000
  140.1337  134.5061  155.8085 LP  0  0  0  0  0  0  0  0  0  0  0  0  # atno 17395 bound_to 11000

$$$$
