AV-unprocessed.smi:2668|AV-procd|sdf|10340|dock7
  -GOLD-   2272014363D 1   1.00000     0.00000
 Structure written by MMmdl.
 53 54  0  0  0  0  0  0  0  0  2 V2000
  146.0101  134.5752  152.8844 C   0  0  0  0  0  0  0  0  0  0  0  0
  146.2302  135.7935  152.0660 N   0  3  0  0  0  0  0  0  0  0  0  0
  145.3331  135.7874  150.8839 C   0  0  0  0  0  0  0  0  0  0  0  0
  146.1754  137.0653  152.8541 C   0  0  0  0  0  0  0  0  0  0  0  0
  146.4189  138.3097  151.9744 C   0  0  0  0  0  0  0  0  0  0  0  0
  146.4602  139.6057  152.8015 C   0  0  0  0  0  0  0  0  0  0  0  0
  147.5293  139.5510  153.8098 N   0  0  0  0  0  0  0  0  0  0  0  0
  147.8242  140.8491  154.4765 C   0  0  0  0  0  0  0  0  0  0  0  0
  147.6163  142.0097  153.4699 C   0  0  0  0  0  0  0  0  0  0  0  0
  146.9129  141.0840  155.7043 C   0  0  0  0  0  0  0  0  0  0  0  0
  149.3083  140.9011  154.9417 C   0  0  0  0  0  0  0  0  0  0  0  0
  149.5973  142.0801  155.7539 N   0  0  0  0  0  0  0  0  0  0  0  0
  150.2979  142.0663  156.8947 C   0  0  0  0  0  0  0  0  0  0  0  0
  150.7681  141.0417  157.3885 O   0  0  0  0  0  0  0  0  0  0  0  0
  150.4295  143.3058  157.3977 N   0  0  0  0  0  0  0  0  0  0  0  0
  151.1026  143.7148  158.5806 C   0  0  0  0  0  0  0  0  0  0  0  0
  152.0337  142.9150  159.2868 C   0  0  0  0  0  0  0  0  0  0  0  0
  152.6216  143.4307  160.4581 C   0  0  0  0  0  0  0  0  0  0  0  0
  152.2528  144.7213  160.8841 C   0  0  0  0  0  0  0  0  0  0  0  0
  151.3571  145.4891  160.2291 N   0  0  0  0  0  0  0  0  0  0  0  0
  150.7968  144.9876  159.1078 C   0  0  0  0  0  0  0  0  0  0  0  0
  147.2253  138.4454  154.7311 C   0  0  0  0  0  0  0  0  0  0  0  0
  147.2212  137.0994  153.9882 C   0  0  0  0  0  0  0  0  0  0  0  0
  145.0673  134.6347  153.4297 H   0  0  0  0  0  0  0  0  0  0  0  0
  146.8176  134.4192  153.5986 H   0  0  0  0  0  0  0  0  0  0  0  0
  145.9810  133.6825  152.2587 H   0  0  0  0  0  0  0  0  0  0  0  0
  144.3011  135.9889  151.1739 H   0  0  0  0  0  0  0  0  0  0  0  0
  145.3587  134.8209  150.3796 H   0  0  0  0  0  0  0  0  0  0  0  0
  145.6369  136.5245  150.1416 H   0  0  0  0  0  0  0  0  0  0  0  0
  145.1820  137.1454  153.2990 H   0  0  0  0  0  0  0  0  0  0  0  0
  147.3531  138.2009  151.4212 H   0  0  0  0  0  0  0  0  0  0  0  0
  145.6283  138.4212  151.2333 H   0  0  0  0  0  0  0  0  0  0  0  0
  146.6141  140.4244  152.1024 H   0  0  0  0  0  0  0  0  0  0  0  0
  145.4935  139.7725  153.2779 H   0  0  0  0  0  0  0  0  0  0  0  0
  148.0258  142.9434  153.8576 H   0  0  0  0  0  0  0  0  0  0  0  0
  146.5638  142.2091  153.2701 H   0  0  0  0  0  0  0  0  0  0  0  0
  148.1074  141.8134  152.5160 H   0  0  0  0  0  0  0  0  0  0  0  0
  147.1427  142.0404  156.1752 H   0  0  0  0  0  0  0  0  0  0  0  0
  147.0439  140.3191  156.4693 H   0  0  0  0  0  0  0  0  0  0  0  0
  145.8565  141.1132  155.4378 H   0  0  0  0  0  0  0  0  0  0  0  0
  149.5398  140.0193  155.5410 H   0  0  0  0  0  0  0  0  0  0  0  0
  149.9923  140.8464  154.0941 H   0  0  0  0  0  0  0  0  0  0  0  0
  149.2509  142.9643  155.4113 H   0  0  0  0  0  0  0  0  0  0  0  0
  150.0520  144.0545  156.8356 H   0  0  0  0  0  0  0  0  0  0  0  0
  152.2977  141.9195  158.9657 H   0  0  0  0  0  0  0  0  0  0  0  0
  153.3362  142.8473  161.0197 H   0  0  0  0  0  0  0  0  0  0  0  0
  152.6850  145.1457  161.7782 H   0  0  0  0  0  0  0  0  0  0  0  0
  150.0835  145.6290  158.6109 H   0  0  0  0  0  0  0  0  0  0  0  0
  147.9695  138.3672  155.5199 H   0  0  0  0  0  0  0  0  0  0  0  0
  146.2625  138.6056  155.2172 H   0  0  0  0  0  0  0  0  0  0  0  0
  147.0205  136.3221  154.7247 H   0  0  0  0  0  0  0  0  0  0  0  0
  148.2170  136.9022  153.5880 H   0  0  0  0  0  0  0  0  0  0  0  0
  147.1705  135.7197  151.7041 H   0  0  0  0  0  0  0  0  0  0  0  0
  1  2  1  0  0  0  0
  1 24  1  0  0  0  0
  1 25  1  0  0  0  0
  1 26  1  0  0  0  0
  2  3  1  0  0  0  0
  2  4  1  0  0  0  0
  2 53  1  0  0  0  0
  3 27  1  0  0  0  0
  3 28  1  0  0  0  0
  3 29  1  0  0  0  0
  4 23  1  0  0  0  0
  4  5  1  0  0  0  0
  4 30  1  0  0  0  0
  5  6  1  0  0  0  0
  5 31  1  0  0  0  0
  5 32  1  0  0  0  0
  6  7  1  0  0  0  0
  6 33  1  0  0  0  0
  6 34  1  0  0  0  0
  7  8  1  0  0  0  0
  7 22  1  0  0  0  0
  8  9  1  0  0  0  0
  8 10  1  0  0  0  0
  8 11  1  0  0  0  0
  9 35  1  0  0  0  0
  9 36  1  0  0  0  0
  9 37  1  0  0  0  0
 10 38  1  0  0  0  0
 10 39  1  0  0  0  0
 10 40  1  0  0  0  0
 11 12  1  0  0  0  0
 11 41  1  0  0  0  0
 11 42  1  0  0  0  0
 12 13  1  0  0  0  0
 12 43  1  0  0  0  0
 13 14  2  0  0  0  0
 13 15  1  0  0  0  0
 15 16  1  0  0  0  0
 15 44  1  0  0  0  0
 16 21  1  0  0  0  0
 16 17  2  0  0  0  0
 17 18  1  0  0  0  0
 17 45  1  0  0  0  0
 18 19  2  0  0  0  0
 18 46  1  0  0  0  0
 19 20  1  0  0  0  0
 19 47  1  0  0  0  0
 20 21  2  0  0  0  0
 21 48  1  0  0  0  0
 22 23  1  0  0  0  0
 22 49  1  0  0  0  0
 22 50  1  0  0  0  0
 23 51  1  0  0  0  0
 23 52  1  0  0  0  0
M  CHG  1   2   1
M  END
> <s_m_source_file>
AV-unprocessed.smi

> <i_m_source_file_index>
2668

> <i_lp_mmshare_version>
43012

> <i_f3d_flags>
0

> <s_epik_input>
W0NIM11OKFtDSDNdKVtDSF0xW0NIMl1bQ0gyXU4oW0NIMl1bQ0gyXTEpQyhbQ0gzXSkoW0NIM10pW0NIMl1bTkhdQyg9TylbTkhdYzJbY0hdW2NIXVtjSF1uW2NIXTI=

> <s_epik_cmdline>
J2VwaWtfcHl0aG9uJywgJy1waCcsICc3LjAnLCAnLXRuJywgJzgnLCAnLW1hJywgJzIwMCcsICctbWV0YWxfYmluZGluZycsICctaW1hZScsICc8aW5maWxlLm1hZT4nLCAnLW9tYWUnLCAnPG91dGZpbGUubWFlPic=

> <r_epik_Ionization_Penalty>
0.934314

> <r_epik_Ionization_Penalty_Charging>
0.000670549

> <r_epik_Ionization_Penalty_Neutral>
0.933644

> <r_epik_State_Penalty>
1.01912

> <r_epik_Charging_Adjusted_Penalty>
1.01979

> <i_epik_Tot_Q>
1

> <i_epik_Tot_abs_Q>
1

> <r_epik_Metal_State_Penalty>
1.01854

> <b_epik_Metal_Only>
0

> <s_lp_Force_Field>
OPLS_2005

> <r_lp_Energy>
39.6452

> <b_lp_Chiralities_Consistent>
1

> <s_lp_Variant>
AV-unprocessed.smi:2668-3

> <Gold.Version>
5.8.1

> <Gold.Id.Protein>
6NUR|6NUR_protein|mol2

> <Gold.PLP.Fitness>
48.0145

> <Gold.PLP.PLP>
-34.9880

> <Gold.PLP.part.hbond>
-3.0000

> <Gold.PLP.part.metal>
0.0000

> <Gold.PLP.part.buried>
-1.0752

> <Gold.PLP.part.nonpolar>
-31.8266

> <Gold.PLP.part.repulsive>
0.5745

> <Gold.PLP.ligand.clash>
0.0002

> <Gold.PLP.ligand.torsion>
1.0300

> <Gold.PLP.Chemscore.Hbond>
4.0000

> <Gold.PLP.Chemscore.CHOScore>
0.9988

> <Gold.PLP.Chemscore.Metal>
0.0000

> <Gold.Chemscore.Hbonds>
donor molecule, donor type, donor heavy atom, donor atom, acceptor molecule, acceptor atom, score
      L1  H     2    53       P1  7948  1.95
      L1  H    12    43       P1  8028  1.00
      L1  H    15    44       P1  8028  1.00
      L1  C    21    48       P1  8029  0.92

> <Gold.PLP.Chemscore.Internal.Correction>
0.0903

> <Gold.Rescore>
     Score         DG    S(hbond)    S(metal)    S(lipo)     H(rot)  DE(clash)    DE(int)     intcor
     19.27     -24.23       2.85        0.00     115.01       1.65       2.83       2.13       ----

> <Gold.Chemscore.Fitness>
19.2684

> <Gold.Chemscore.DG>
-24.2322

> <Gold.Chemscore.ZeroCoef>
-5.4800

> <Gold.Chemscore.Hbond>
2.8496

> <Gold.Chemscore.Metal>
0.0000

> <Gold.Chemscore.Lipo>
115.0138

> <Gold.Chemscore.Internal_Hbond>
0.0000

> <Gold.Chemscore.DEClash>
2.8293

> <Gold.Chemscore.DEInternal>
2.1345

> <Gold.Chemscore.Rot>
1.6492

> <Gold.Chemscore.Internal.Correction>
   9.000000E+99

> <Gold.Chemscore.Hbonds>
donor molecule, donor type, donor heavy atom, donor atom, acceptor molecule, acceptor atom, score
      L1  H     2    53       P1  7948  0.93
      L1  H    12    43       P1  8028  0.96
      L1  H    15    44       P1  8028  0.95

> <Gold.Chemscore.Hbond.Weighted>
-9.5176

> <Gold.Chemscore.Metal.Weighted>
-0.0000

> <Gold.Chemscore.Lipo.Weighted>
-13.4566

> <Gold.Chemscore.Internal_Hbond.Weighted>
0.0000

> <Gold.Chemscore.DEClash.Weighted>
2.8293

> <Gold.Chemscore.DEInternal.Weighted>
2.1345

> <Gold.Chemscore.Rot.Weighted>
4.2220

> <Gold.Chemscore.Internal.Correction.Weighted>
   9.000000E+99

> <Gold.Protein.RotatedTorsions>
[ 6907 6896 6895 6894 ] final  176.28 input  -60.11 | X-H torsion
[ 7974 7965 7964 7962 ] final  -51.05 input  175.53 | X-H torsion
[ 8008 7997 7996 7995 ] final  -36.34 input   59.86 | X-H torsion
[ 10167 10162 10161 10158 ] final  132.93 input  -65.29 | X-H torsion
[ 10718 10713 10712 10709 ] final   19.70 input   66.30 | X-H torsion
[ 10763 10752 10751 10750 ] final   87.38 input  -60.55 | X-H torsion
[ 11005 11000 10999 10996 ] final   91.60 input  -57.11 | X-H torsion

> <Gold.Protein.ActiveResidues>
 VAL166  LYS551  ARG553  GLY616  TRP617  ASP618  TYR619  PRO620  LYS621  CYS622 
 ASP623  PHE694  ASN695  SER759  ASP760  ASP761  ALA762  ILE779  LEU786  VAL792 
 PHE793  MET794  SER795  GLU796  ALA797  LYS798  CYS799  TRP800  GLU811  SER814 

> <Gold.Protein.RotatedAtoms>
  151.7226  133.3315  159.3319 H   0  0  0  0  0  0  0  0  0  0  0  0  # atno 6907 bound_to 6896
  150.7646  134.6434  159.6259 H   0  0  0  0  0  0  0  0  0  0  0  0  # atno 6908 bound_to 6896
  152.3642  134.6831  160.0249 H   0  0  0  0  0  0  0  0  0  0  0  0  # atno 6909 bound_to 6896
  145.9232  140.7815  142.9637 H   0  0  0  0  0  0  0  0  0  0  0  0  # atno 7974 bound_to 7965
  154.4075  140.1633  156.2357 H   0  0  0  0  0  0  0  0  0  0  0  0  # atno 8008 bound_to 7997
  155.9244  140.3419  155.6176 H   0  0  0  0  0  0  0  0  0  0  0  0  # atno 8009 bound_to 7997
  155.7183  140.0765  157.2332 H   0  0  0  0  0  0  0  0  0  0  0  0  # atno 8010 bound_to 7997
  139.5318  144.6639  151.4923 H   0  0  0  0  0  0  0  0  0  0  0  0  # atno 10167 bound_to 10162
  157.1141  130.6521  149.5905 H   0  0  0  0  0  0  0  0  0  0  0  0  # atno 10718 bound_to 10713
  153.1663  135.4545  154.9841 H   0  0  0  0  0  0  0  0  0  0  0  0  # atno 10763 bound_to 10752
  154.7934  135.3229  154.7726 H   0  0  0  0  0  0  0  0  0  0  0  0  # atno 10764 bound_to 10752
  153.8209  135.6947  153.4882 H   0  0  0  0  0  0  0  0  0  0  0  0  # atno 10765 bound_to 10752
  139.8836  134.8683  156.3451 H   0  0  0  0  0  0  0  0  0  0  0  0  # atno 11005 bound_to 11000
  144.6755  140.2009  143.7387 LP  0  0  0  0  0  0  0  0  0  0  0  0  # atno 17320 bound_to 7965
  145.8523  139.2181  143.1765 LP  0  0  0  0  0  0  0  0  0  0  0  0  # atno 17321 bound_to 7965
  140.6501  143.8713  150.6777 LP  0  0  0  0  0  0  0  0  0  0  0  0  # atno 17342 bound_to 10162
  140.2075  143.3910  152.1744 LP  0  0  0  0  0  0  0  0  0  0  0  0  # atno 17343 bound_to 10162
  155.9843  130.4868  150.6978 LP  0  0  0  0  0  0  0  0  0  0  0  0  # atno 17370 bound_to 10713
  157.4533  131.0875  151.0822 LP  0  0  0  0  0  0  0  0  0  0  0  0  # atno 17371 bound_to 10713
  140.9632  133.7375  156.0430 LP  0  0  0  0  0  0  0  0  0  0  0  0  # atno 17394 bound_to 11000
  140.7963  134.3560  157.5451 LP  0  0  0  0  0  0  0  0  0  0  0  0  # atno 17395 bound_to 11000

$$$$
