AV-unprocessed.smi:112|AV-procd|sdf|1089|dock6
  -GOLD-   2262018193D 1   1.00000     0.00000
 Structure written by MMmdl.
 54 57  0  0  0  0  0  0  0  0  3 V2000
  151.5398  144.3397  158.4495 C   0  0  0  0  0  0  0  0  0  0  0  0
  151.6651  142.8317  158.6042 C   0  0  0  0  0  0  0  0  0  0  0  0
  150.9426  141.9685  157.8533 C   0  0  0  0  0  0  0  0  0  0  0  0
  151.0369  140.5915  157.9656 N   0  0  0  0  0  0  0  0  0  0  0  0
  150.2226  139.6457  157.1049 C   0  0  2  0  0  0  0  0  0  0  0  0
  151.0244  139.1746  155.8841 C   0  0  0  0  0  0  0  0  0  0  0  0
  149.9495  139.1307  154.8207 C   0  0  2  0  0  0  0  0  0  0  0  0
  150.4881  139.1639  153.5140 O   0  0  0  0  0  0  0  0  0  0  0  0
  149.0733  140.3359  155.1854 C   0  0  2  0  0  0  0  0  0  0  0  0
  149.6165  141.7020  154.7099 C   0  0  0  0  0  0  0  0  0  0  0  0
  148.5426  142.5536  154.3716 O   0  0  0  0  0  0  0  0  0  0  0  0
  149.0823  140.2978  156.6147 O   0  0  0  0  0  0  0  0  0  0  0  0
  151.8944  140.0325  158.9349 C   0  0  0  0  0  0  0  0  0  0  0  0
  151.9766  138.8095  159.0714 O   0  0  0  0  0  0  0  0  0  0  0  0
  152.6594  140.9068  159.7388 N   0  0  0  0  0  0  0  0  0  0  0  0
  153.5819  140.3219  160.7383 C   0  0  0  0  0  0  0  0  0  0  0  0
  154.4941  139.2131  160.1683 C   0  0  0  0  0  0  0  0  0  0  0  0
  155.1205  139.4332  159.1310 O   0  0  0  0  0  0  0  0  0  0  0  0
  154.5656  138.0405  160.8462 N   0  0  0  0  0  0  0  0  0  0  0  0
  153.8186  137.7722  162.0874 C   0  0  0  0  0  0  0  0  0  0  0  0
  154.2042  136.3428  162.5261 C   0  0  0  0  0  0  0  0  0  0  0  0
  155.1596  135.9056  161.4554 C   0  0  0  0  0  0  0  0  0  0  0  0
  155.8133  134.6646  161.3701 C   0  0  0  0  0  0  0  0  0  0  0  0
  156.6888  134.4256  160.2817 C   0  0  0  0  0  0  0  0  0  0  0  0
  157.3950  133.1345  160.1608 N   0  3  0  0  0  0  0  0  0  0  0  0
  158.1341  132.9641  159.1966 O   0  0  0  0  0  0  0  0  0  0  0  0
  157.2118  132.2885  161.0302 O   0  5  0  0  0  0  0  0  0  0  0  0
  156.8777  135.4450  159.3109 C   0  0  0  0  0  0  0  0  0  0  0  0
  156.2118  136.6862  159.4121 C   0  0  0  0  0  0  0  0  0  0  0  0
  155.3455  136.9032  160.5055 C   0  0  0  0  0  0  0  0  0  0  0  0
  152.5996  142.3155  159.6066 C   0  0  0  0  0  0  0  0  0  0  0  0
  153.3078  143.0425  160.3060 O   0  0  0  0  0  0  0  0  0  0  0  0
  150.8120  144.6114  157.6842 H   0  0  0  0  0  0  0  0  0  0  0  0
  152.4987  144.7751  158.1657 H   0  0  0  0  0  0  0  0  0  0  0  0
  151.2213  144.7942  159.3883 H   0  0  0  0  0  0  0  0  0  0  0  0
  150.2610  142.3968  157.1348 H   0  0  0  0  0  0  0  0  0  0  0  0
  149.9136  138.8353  157.7674 H   0  0  0  0  0  0  0  0  0  0  0  0
  151.7905  139.9119  155.6371 H   0  0  0  0  0  0  0  0  0  0  0  0
  151.5006  138.2108  156.0662 H   0  0  0  0  0  0  0  0  0  0  0  0
  149.3678  138.2149  154.9364 H   0  0  0  0  0  0  0  0  0  0  0  0
  149.7940  139.3693  152.9063 H   0  0  0  0  0  0  0  0  0  0  0  0
  148.0604  140.1892  154.8077 H   0  0  0  0  0  0  0  0  0  0  0  0
  150.2540  142.1754  155.4561 H   0  0  0  0  0  0  0  0  0  0  0  0
  150.2177  141.5854  153.8084 H   0  0  0  0  0  0  0  0  0  0  0  0
  148.6036  143.3372  154.8961 H   0  0  0  0  0  0  0  0  0  0  0  0
  154.2099  141.0951  161.1829 H   0  0  0  0  0  0  0  0  0  0  0  0
  153.0139  139.9241  161.5799 H   0  0  0  0  0  0  0  0  0  0  0  0
  154.0813  138.4925  162.8632 H   0  0  0  0  0  0  0  0  0  0  0  0
  152.7440  137.8335  161.9111 H   0  0  0  0  0  0  0  0  0  0  0  0
  154.6939  136.3352  163.5002 H   0  0  0  0  0  0  0  0  0  0  0  0
  153.3385  135.6807  162.5599 H   0  0  0  0  0  0  0  0  0  0  0  0
  155.6421  133.9160  162.1294 H   0  0  0  0  0  0  0  0  0  0  0  0
  157.5399  135.2847  158.4730 H   0  0  0  0  0  0  0  0  0  0  0  0
  156.3835  137.4327  158.6531 H   0  0  0  0  0  0  0  0  0  0  0  0
  1  2  1  0  0  0  0
  1 33  1  0  0  0  0
  1 34  1  0  0  0  0
  1 35  1  0  0  0  0
  2 31  1  0  0  0  0
  2  3  2  0  0  0  0
  3  4  1  0  0  0  0
  3 36  1  0  0  0  0
  4  5  1  0  0  0  0
  4 13  1  0  0  0  0
  5 12  1  0  0  0  0
  5  6  1  0  0  0  0
  5 37  1  0  0  0  0
  6  7  1  0  0  0  0
  6 38  1  0  0  0  0
  6 39  1  0  0  0  0
  7  8  1  0  0  0  0
  7  9  1  0  0  0  0
  7 40  1  0  0  0  0
  8 41  1  0  0  0  0
  9 10  1  0  0  0  0
  9 12  1  0  0  0  0
  9 42  1  0  0  0  0
 10 11  1  0  0  0  0
 10 43  1  0  0  0  0
 10 44  1  0  0  0  0
 11 45  1  0  0  0  0
 13 14  2  0  0  0  0
 13 15  1  0  0  0  0
 15 16  1  0  0  0  0
 15 31  1  0  0  0  0
 16 17  1  0  0  0  0
 16 46  1  0  0  0  0
 16 47  1  0  0  0  0
 17 18  2  0  0  0  0
 17 19  1  0  0  0  0
 19 30  1  0  0  0  0
 19 20  1  0  0  0  0
 20 21  1  0  0  0  0
 20 48  1  0  0  0  0
 20 49  1  0  0  0  0
 21 22  1  0  0  0  0
 21 50  1  0  0  0  0
 21 51  1  0  0  0  0
 22 30  2  0  0  0  0
 22 23  1  0  0  0  0
 23 24  2  0  0  0  0
 23 52  1  0  0  0  0
 24 25  1  0  0  0  0
 24 28  1  0  0  0  0
 25 26  2  0  0  0  0
 25 27  1  0  0  0  0
 28 29  2  0  0  0  0
 28 53  1  0  0  0  0
 29 30  1  0  0  0  0
 29 54  1  0  0  0  0
 31 32  2  0  0  0  0
M  CHG  1  25   1
M  CHG  1  27  -1
M  END
> <s_m_source_file>
AV-unprocessed.smi

> <i_m_source_file_index>
112

> <i_lp_mmshare_version>
43012

> <i_f3d_flags>
0

> <s_epik_input>
W09IXVtDSDJdW0NAQEhdKE8xKVtDQEhdKFtPSF0pW0NIMl1bQ0BIXTFuKFtjSF1jMltDSDNdKWMoPU8pbihjMj1PKVtDSDJdQyg9TylOKFtDSDJdW0NIMl0zKWMoYzM0KVtjSF1bY0hdYyhbY0hdNClbTitdKD1PKVtPLV0=

> <s_epik_cmdline>
J2VwaWtfcHl0aG9uJywgJy1waCcsICc3LjAnLCAnLXRuJywgJzgnLCAnLW1hJywgJzIwMCcsICctbWV0YWxfYmluZGluZycsICctaW1hZScsICc8aW5maWxlLm1hZT4nLCAnLW9tYWUnLCAnPG91dGZpbGUubWFlPic=

> <r_lp_tautomer_probability>
1

> <r_epik_Ionization_Penalty>
2.5696e-07

> <r_epik_Ionization_Penalty_Charging>
1.04886e-08

> <r_epik_Ionization_Penalty_Neutral>
2.46472e-07

> <r_epik_State_Penalty>
-0

> <r_epik_Charging_Adjusted_Penalty>
1.04886e-08

> <i_epik_Tot_Q>
0

> <i_epik_Tot_abs_Q>
2

> <r_epik_Metal_State_Penalty>
-0

> <b_epik_Metal_Only>
0

> <s_epik_Chemistry_Notes>
This compound contains an acetal/aminal-like group ( X-CH(R)-Y where X, Y are N, S, or O) that may be acid/base labile, releasing an aldehyde.

> <s_lp_Force_Field>
OPLS_2005

> <r_lp_Energy>
59.9345

> <b_lp_Chiralities_Consistent>
1

> <s_lp_Variant>
AV-unprocessed.smi:112-7

> <Gold.Version>
5.8.1

> <Gold.Id.Protein>
6NUR|6NUR_protein|mol2

> <Gold.PLP.Fitness>
48.3794

> <Gold.PLP.PLP>
-40.4481

> <Gold.PLP.part.hbond>
-4.9458

> <Gold.PLP.part.metal>
0.0000

> <Gold.PLP.part.buried>
-1.5591

> <Gold.PLP.part.nonpolar>
-33.4863

> <Gold.PLP.part.repulsive>
0.0222

> <Gold.PLP.ligand.clash>
0.0000

> <Gold.PLP.ligand.torsion>
1.3766

> <Gold.PLP.Chemscore.Hbond>
3.5520

> <Gold.PLP.Chemscore.CHOScore>
0.0000

> <Gold.PLP.Chemscore.Metal>
0.0000

> <Gold.Chemscore.Hbonds>
donor molecule, donor type, donor heavy atom, donor atom, acceptor molecule, acceptor atom, score
      L1  H     8    41       P1  7957  0.75
      L1  H    11    45       P1  8028  1.00
      P1  H  7989  7998       L1     8  0.84
      P1  H  7997  8009       L1    18  1.00

> <Gold.PLP.Chemscore.Internal.Correction>
0.0285

> <Gold.Rescore>
     Score         DG    S(hbond)    S(metal)    S(lipo)     H(rot)  DE(clash)    DE(int)     intcor
     12.17     -17.28       2.91        0.00      89.83       3.29       1.30       3.81       ----

> <Gold.Chemscore.Fitness>
12.1662

> <Gold.Chemscore.DG>
-17.2760

> <Gold.Chemscore.ZeroCoef>
-5.4800

> <Gold.Chemscore.Hbond>
2.9078

> <Gold.Chemscore.Metal>
0.0000

> <Gold.Chemscore.Lipo>
89.8329

> <Gold.Chemscore.Internal_Hbond>
0.0000

> <Gold.Chemscore.DEClash>
1.2969

> <Gold.Chemscore.DEInternal>
3.8130

> <Gold.Chemscore.Rot>
3.2916

> <Gold.Chemscore.Internal.Correction>
   9.000000E+99

> <Gold.Chemscore.Hbonds>
donor molecule, donor type, donor heavy atom, donor atom, acceptor molecule, acceptor atom, score
      L1  H     8    41       P1  7957  0.75
      L1  H    11    45       P1  8028  0.97
      P1  H  7989  7998       L1     8  0.14
      P1  H  7997  8009       L1    18  1.00

> <Gold.Chemscore.Hbond.Weighted>
-9.7121

> <Gold.Chemscore.Metal.Weighted>
-0.0000

> <Gold.Chemscore.Lipo.Weighted>
-10.5105

> <Gold.Chemscore.Internal_Hbond.Weighted>
0.0000

> <Gold.Chemscore.DEClash.Weighted>
1.2969

> <Gold.Chemscore.DEInternal.Weighted>
3.8130

> <Gold.Chemscore.Rot.Weighted>
8.4265

> <Gold.Chemscore.Internal.Correction.Weighted>
   9.000000E+99

> <Gold.Protein.RotatedTorsions>
[ 6907 6896 6895 6894 ] final    0.70 input  -60.11 | X-H torsion
[ 7974 7965 7964 7962 ] final  -88.60 input  175.53 | X-H torsion
[ 8008 7997 7996 7995 ] final  102.16 input   59.86 | X-H torsion
[ 10167 10162 10161 10158 ] final -151.70 input  -65.29 | X-H torsion
[ 10718 10713 10712 10709 ] final  -80.37 input   66.30 | X-H torsion
[ 10763 10752 10751 10750 ] final -102.82 input  -60.55 | X-H torsion
[ 11005 11000 10999 10996 ] final  100.80 input  -57.11 | X-H torsion

> <Gold.Protein.ActiveResidues>
 VAL166  LYS551  ARG553  GLY616  TRP617  ASP618  TYR619  PRO620  LYS621  CYS622 
 ASP623  PHE694  ASN695  SER759  ASP760  ASP761  ALA762  ILE779  LEU786  VAL792 
 PHE793  MET794  SER795  GLU796  ALA797  LYS798  CYS799  TRP800  GLU811  SER814 

> <Gold.Protein.RotatedAtoms>
  151.5807  135.1058  160.0016 H   0  0  0  0  0  0  0  0  0  0  0  0  # atno 6907 bound_to 6896
  152.4355  133.7350  159.6619 H   0  0  0  0  0  0  0  0  0  0  0  0  # atno 6908 bound_to 6896
  150.8253  133.8113  159.3144 H   0  0  0  0  0  0  0  0  0  0  0  0  # atno 6909 bound_to 6896
  145.4510  140.9560  143.2022 H   0  0  0  0  0  0  0  0  0  0  0  0  # atno 7974 bound_to 7965
  156.1367  140.3186  155.8432 H   0  0  0  0  0  0  0  0  0  0  0  0  # atno 8008 bound_to 7997
  155.4231  140.0513  157.3041 H   0  0  0  0  0  0  0  0  0  0  0  0  # atno 8009 bound_to 7997
  154.4943  140.2104  155.9494 H   0  0  0  0  0  0  0  0  0  0  0  0  # atno 8010 bound_to 7997
  139.7245  143.8905  152.2514 H   0  0  0  0  0  0  0  0  0  0  0  0  # atno 10167 bound_to 10162
  156.0071  130.4572  150.3790 H   0  0  0  0  0  0  0  0  0  0  0  0  # atno 10718 bound_to 10713
  154.7762  135.4846  153.9749 H   0  0  0  0  0  0  0  0  0  0  0  0  # atno 10763 bound_to 10752
  153.1432  135.6777  153.9002 H   0  0  0  0  0  0  0  0  0  0  0  0  # atno 10764 bound_to 10752
  153.8670  135.3148  155.3419 H   0  0  0  0  0  0  0  0  0  0  0  0  # atno 10765 bound_to 10752
  139.8771  134.9156  156.4810 H   0  0  0  0  0  0  0  0  0  0  0  0  # atno 11005 bound_to 11000
  144.8062  139.6048  143.7050 LP  0  0  0  0  0  0  0  0  0  0  0  0  # atno 17320 bound_to 7965
  146.2504  139.6188  142.9431 LP  0  0  0  0  0  0  0  0  0  0  0  0  # atno 17321 bound_to 7965
  139.8810  144.7017  150.8877 LP  0  0  0  0  0  0  0  0  0  0  0  0  # atno 17342 bound_to 10162
  140.7760  143.3661  151.1737 LP  0  0  0  0  0  0  0  0  0  0  0  0  # atno 17343 bound_to 10162
  157.1871  131.0406  151.2719 LP  0  0  0  0  0  0  0  0  0  0  0  0  # atno 17370 bound_to 10713
  157.4094  130.7377  149.6827 LP  0  0  0  0  0  0  0  0  0  0  0  0  # atno 17371 bound_to 10713
  140.8727  133.7976  155.9381 LP  0  0  0  0  0  0  0  0  0  0  0  0  # atno 17394 bound_to 11000
  140.8936  134.2465  157.5081 LP  0  0  0  0  0  0  0  0  0  0  0  0  # atno 17395 bound_to 11000

$$$$
