AV-unprocessed.smi:1278|AV-procd|sdf|5351|dock9
  -GOLD-   22720 4483D 1   1.00000     0.00000
 Structure written by MMmdl.
 38 39  0  0  0  0  0  0  0  0  3 V2000
  145.0712  132.7140  149.6744 C   0  0  0  0  0  0  0  0  0  0  0  0
  145.9889  133.4150  150.6858 C   0  0  2  0  0  0  0  0  0  0  0  0
  146.4593  132.4455  151.7832 C   0  0  0  0  0  0  0  0  0  0  0  0
  147.3514  133.1784  152.7929 C   0  0  0  0  0  0  0  0  0  0  0  0
  146.6329  134.4085  153.3699 C   0  0  0  0  0  0  0  0  0  0  0  0
  146.1946  135.3286  152.2890 N   0  3  2  0  0  0  0  0  0  0  0  0
  145.6159  136.5852  152.8251 C   0  0  0  0  0  0  0  0  0  0  0  0
  146.2124  137.8377  152.1555 C   0  0  0  0  0  0  0  0  0  0  0  0
  147.5249  138.1549  152.7049 N   0  0  0  0  0  0  0  0  0  0  0  0
  147.8519  139.2905  153.3378 C   0  0  0  0  0  0  0  0  0  0  0  0
  147.0084  140.1793  153.4788 O   0  0  0  0  0  0  0  0  0  0  0  0
  149.1318  139.3220  153.7710 N   0  5  0  0  0  0  0  0  0  0  0  0
  149.5080  140.2280  154.6883 C   0  0  0  0  0  0  0  0  0  0  0  0
  150.7860  140.4366  155.0254 N   0  0  0  0  0  0  0  0  0  0  0  0
  150.9496  141.4277  155.9950 C   0  0  0  0  0  0  0  0  0  0  0  0
  149.7690  141.9913  156.4008 C   0  0  0  0  0  0  0  0  0  0  0  0
  148.4087  141.2931  155.5689 S   0  0  0  0  0  0  0  0  0  0  0  0
  145.3007  134.6423  151.3171 C   0  0  0  0  0  0  0  0  0  0  0  0
  144.1641  132.3424  150.1524 H   0  0  0  0  0  0  0  0  0  0  0  0
  145.5741  131.8653  149.2097 H   0  0  0  0  0  0  0  0  0  0  0  0
  144.7720  133.3954  148.8775 H   0  0  0  0  0  0  0  0  0  0  0  0
  146.8687  133.7645  150.1433 H   0  0  0  0  0  0  0  0  0  0  0  0
  145.5974  132.0185  152.2982 H   0  0  0  0  0  0  0  0  0  0  0  0
  147.0053  131.6101  151.3432 H   0  0  0  0  0  0  0  0  0  0  0  0
  147.6360  132.5011  153.5984 H   0  0  0  0  0  0  0  0  0  0  0  0
  148.2778  133.4885  152.3075 H   0  0  0  0  0  0  0  0  0  0  0  0
  145.7681  134.0994  153.9594 H   0  0  0  0  0  0  0  0  0  0  0  0
  147.3094  134.9299  154.0481 H   0  0  0  0  0  0  0  0  0  0  0  0
  144.5298  136.5592  152.7225 H   0  0  0  0  0  0  0  0  0  0  0  0
  145.8196  136.6502  153.8949 H   0  0  0  0  0  0  0  0  0  0  0  0
  146.3264  137.6679  151.0844 H   0  0  0  0  0  0  0  0  0  0  0  0
  145.5606  138.7049  152.2639 H   0  0  0  0  0  0  0  0  0  0  0  0
  148.2465  137.4554  152.6073 H   0  0  0  0  0  0  0  0  0  0  0  0
  151.9444  141.6677  156.3397 H   0  0  0  0  0  0  0  0  0  0  0  0
  149.6164  142.7710  157.1315 H   0  0  0  0  0  0  0  0  0  0  0  0
  145.0110  135.3312  150.5244 H   0  0  0  0  0  0  0  0  0  0  0  0
  144.3803  134.3417  151.8211 H   0  0  0  0  0  0  0  0  0  0  0  0
  147.0306  135.5925  151.7875 H   0  0  0  0  0  0  0  0  0  0  0  0
  1  2  1  0  0  0  0
  1 19  1  0  0  0  0
  1 20  1  0  0  0  0
  1 21  1  0  0  0  0
  2 18  1  0  0  0  0
  2  3  1  0  0  0  0
  2 22  1  0  0  0  0
  3  4  1  0  0  0  0
  3 23  1  0  0  0  0
  3 24  1  0  0  0  0
  4  5  1  0  0  0  0
  4 25  1  0  0  0  0
  4 26  1  0  0  0  0
  5  6  1  0  0  0  0
  5 27  1  0  0  0  0
  5 28  1  0  0  0  0
  6  7  1  0  0  0  0
  6 18  1  0  0  0  0
  6 38  1  0  0  0  0
  7  8  1  0  0  0  0
  7 29  1  0  0  0  0
  7 30  1  0  0  0  0
  8  9  1  0  0  0  0
  8 31  1  0  0  0  0
  8 32  1  0  0  0  0
  9 10  1  0  0  0  0
  9 33  1  0  0  0  0
 10 11  2  0  0  0  0
 10 12  1  0  0  0  0
 12 13  1  0  0  0  0
 13 17  1  0  0  0  0
 13 14  2  0  0  0  0
 14 15  1  0  0  0  0
 15 16  2  0  0  0  0
 15 34  1  0  0  0  0
 16 17  1  0  0  0  0
 16 35  1  0  0  0  0
 18 36  1  0  0  0  0
 18 37  1  0  0  0  0
M  CHG  1   6   1
M  CHG  1  12  -1
M  END
> <s_m_source_file>
AV-unprocessed.smi

> <i_m_source_file_index>
1278

> <i_lp_mmshare_version>
43012

> <i_f3d_flags>
0

> <s_epik_input>
W0NIM11bQ0BASF0xW0NIMl1bQ0gyXVtDSDJdTihbQ0gyXTEpW0NIMl1bQ0gyXVtOSF1DKD1PKVtOSF1jMm5bY0hdW2NIXXMy

> <s_epik_cmdline>
J2VwaWtfcHl0aG9uJywgJy1waCcsICc3LjAnLCAnLXRuJywgJzgnLCAnLW1hJywgJzIwMCcsICctbWV0YWxfYmluZGluZycsICctaW1hZScsICc8aW5maWxlLm1hZT4nLCAnLW9tYWUnLCAnPG91dGZpbGUubWFlPic=

> <r_lp_tautomer_probability>
0.999

> <r_epik_Ionization_Penalty>
6.22019

> <r_epik_Ionization_Penalty_Charging>
5.38911

> <r_epik_Ionization_Penalty_Neutral>
0.831074

> <r_epik_State_Penalty>
5.38904

> <r_epik_Charging_Adjusted_Penalty>
10.7782

> <i_epik_Tot_Q>
0

> <i_epik_Tot_abs_Q>
2

> <r_epik_Metal_State_Penalty>
1.41502

> <b_epik_Metal_Only>
1

> <s_lp_Force_Field>
OPLS_2005

> <r_lp_Energy>
5.98005

> <b_lp_Chiralities_Consistent>
1

> <s_lp_Variant>
AV-unprocessed.smi:1278-5

> <Gold.Version>
5.8.1

> <Gold.Id.Protein>
6NUR|6NUR_protein|mol2

> <Gold.PLP.Fitness>
38.8770

> <Gold.PLP.PLP>
-27.2276

> <Gold.PLP.part.hbond>
-3.4433

> <Gold.PLP.part.metal>
0.0000

> <Gold.PLP.part.buried>
-0.3209

> <Gold.PLP.part.nonpolar>
-25.0702

> <Gold.PLP.part.repulsive>
2.9103

> <Gold.PLP.ligand.clash>
0.0000

> <Gold.PLP.ligand.torsion>
0.8008

> <Gold.PLP.Chemscore.Hbond>
3.9840

> <Gold.PLP.Chemscore.CHOScore>
0.4212

> <Gold.PLP.Chemscore.Metal>
0.0000

> <Gold.Chemscore.Hbonds>
donor molecule, donor type, donor heavy atom, donor atom, acceptor molecule, acceptor atom, score
      L1  H     6    38       P1  7948  1.98
      L1  H     9    33       P1  7948  1.00
      P1  H  7989  7998       L1    14  1.00
      L1  C    16    35       P1  8028  0.43

> <Gold.PLP.Chemscore.Internal.Correction>
0.0354

> <Gold.Rescore>
     Score         DG    S(hbond)    S(metal)    S(lipo)     H(rot)  DE(clash)    DE(int)     intcor
     15.53     -17.79       2.71        0.00      62.16       1.57       0.02       2.24       ----

> <Gold.Chemscore.Fitness>
15.5348

> <Gold.Chemscore.DG>
-17.7900

> <Gold.Chemscore.ZeroCoef>
-5.4800

> <Gold.Chemscore.Hbond>
2.7095

> <Gold.Chemscore.Metal>
0.0000

> <Gold.Chemscore.Lipo>
62.1640

> <Gold.Chemscore.Internal_Hbond>
0.0000

> <Gold.Chemscore.DEClash>
0.0172

> <Gold.Chemscore.DEInternal>
2.2380

> <Gold.Chemscore.Rot>
1.5676

> <Gold.Chemscore.Internal.Correction>
   9.000000E+99

> <Gold.Chemscore.Hbonds>
donor molecule, donor type, donor heavy atom, donor atom, acceptor molecule, acceptor atom, score
      L1  H     6    38       P1  7948  0.91
      L1  H     9    33       P1  7948  0.95
      P1  H  7989  7998       L1    14  0.42

> <Gold.Chemscore.Hbond.Weighted>
-9.0499

> <Gold.Chemscore.Metal.Weighted>
-0.0000

> <Gold.Chemscore.Lipo.Weighted>
-7.2732

> <Gold.Chemscore.Internal_Hbond.Weighted>
0.0000

> <Gold.Chemscore.DEClash.Weighted>
0.0172

> <Gold.Chemscore.DEInternal.Weighted>
2.2380

> <Gold.Chemscore.Rot.Weighted>
4.0130

> <Gold.Chemscore.Internal.Correction.Weighted>
   9.000000E+99

> <Gold.Protein.RotatedTorsions>
[ 6907 6896 6895 6894 ] final  -50.70 input  -60.11 | X-H torsion
[ 7974 7965 7964 7962 ] final -123.86 input  175.53 | X-H torsion
[ 8008 7997 7996 7995 ] final  137.95 input   59.86 | X-H torsion
[ 10167 10162 10161 10158 ] final  126.80 input  -65.29 | X-H torsion
[ 10718 10713 10712 10709 ] final  -30.57 input   66.30 | X-H torsion
[ 10763 10752 10751 10750 ] final  -43.93 input  -60.55 | X-H torsion
[ 11005 11000 10999 10996 ] final  -59.24 input  -57.11 | X-H torsion

> <Gold.Protein.ActiveResidues>
 VAL166  LYS551  ARG553  GLY616  TRP617  ASP618  TYR619  PRO620  LYS621  CYS622 
 ASP623  PHE694  ASN695  SER759  ASP760  ASP761  ALA762  ILE779  LEU786  VAL792 
 PHE793  MET794  SER795  GLU796  ALA797  LYS798  CYS799  TRP800  GLU811  SER814 

> <Gold.Protein.RotatedAtoms>
  150.8682  134.8050  159.7134 H   0  0  0  0  0  0  0  0  0  0  0  0  # atno 6907 bound_to 6896
  152.4696  134.4989  159.9728 H   0  0  0  0  0  0  0  0  0  0  0  0  # atno 6908 bound_to 6896
  151.5082  133.3452  159.2916 H   0  0  0  0  0  0  0  0  0  0  0  0  # atno 6909 bound_to 6896
  145.0142  140.7932  143.4420 H   0  0  0  0  0  0  0  0  0  0  0  0  # atno 7974 bound_to 7965
  156.3000  140.2406  156.3993 H   0  0  0  0  0  0  0  0  0  0  0  0  # atno 8008 bound_to 7997
  154.8541  140.0423  157.1643 H   0  0  0  0  0  0  0  0  0  0  0  0  # atno 8009 bound_to 7997
  154.8966  140.2971  155.5344 H   0  0  0  0  0  0  0  0  0  0  0  0  # atno 8010 bound_to 7997
  139.5612  144.6882  151.4039 H   0  0  0  0  0  0  0  0  0  0  0  0  # atno 10167 bound_to 10162
  156.3981  130.4385  149.7343 H   0  0  0  0  0  0  0  0  0  0  0  0  # atno 10718 bound_to 10713
  154.0038  135.6690  153.4761 H   0  0  0  0  0  0  0  0  0  0  0  0  # atno 10763 bound_to 10752
  153.0651  135.5006  154.8177 H   0  0  0  0  0  0  0  0  0  0  0  0  # atno 10764 bound_to 10752
  154.7037  135.3083  154.9266 H   0  0  0  0  0  0  0  0  0  0  0  0  # atno 10765 bound_to 10752
  141.1240  133.6615  156.5041 H   0  0  0  0  0  0  0  0  0  0  0  0  # atno 11005 bound_to 11000
  145.1982  139.2265  143.5207 LP  0  0  0  0  0  0  0  0  0  0  0  0  # atno 17320 bound_to 7965
  146.3475  140.1794  142.8589 LP  0  0  0  0  0  0  0  0  0  0  0  0  # atno 17321 bound_to 7965
  140.6891  143.7903  150.7229 LP  0  0  0  0  0  0  0  0  0  0  0  0  # atno 17342 bound_to 10162
  140.1380  143.4466  152.2212 LP  0  0  0  0  0  0  0  0  0  0  0  0  # atno 17343 bound_to 10162
  156.4370  130.7843  151.2863 LP  0  0  0  0  0  0  0  0  0  0  0  0  # atno 17370 bound_to 10713
  157.7502  131.0136  150.3432 LP  0  0  0  0  0  0  0  0  0  0  0  0  # atno 17371 bound_to 10713
  140.4422  134.7005  157.4997 LP  0  0  0  0  0  0  0  0  0  0  0  0  # atno 17394 bound_to 11000
  140.0222  134.6531  155.9224 LP  0  0  0  0  0  0  0  0  0  0  0  0  # atno 17395 bound_to 11000

$$$$
