AV-unprocessed.smi:34|AV-procd|sdf|236|dock7
  -GOLD-   2262015573D 1   1.00000     0.00000
 Structure written by MMmdl.
 54 58  0  0  0  0  0  0  0  0  2 V2000
  151.3023  133.2689  156.5533 O   0  0  0  0  0  0  0  0  0  0  0  0
  150.5946  133.0183  155.5753 C   0  0  0  0  0  0  0  0  0  0  0  0
  149.5226  133.7163  155.1222 N   0  5  0  0  0  0  0  0  0  0  0  0
  149.5974  135.0503  154.9942 C   0  0  0  0  0  0  0  0  0  0  0  0
  150.8019  135.6582  154.8450 N   0  0  0  0  0  0  0  0  0  0  0  0
  150.8777  136.9888  154.7238 C   0  0  0  0  0  0  0  0  0  0  0  0
  149.8914  137.8904  154.7307 N   0  0  0  0  0  0  0  0  0  0  0  0
  148.6739  137.2935  154.8886 C   0  0  0  0  0  0  0  0  0  0  0  0
  148.4514  135.8919  155.0276 C   0  0  0  0  0  0  0  0  0  0  0  0
  147.0988  135.6195  155.1689 N   0  0  0  0  0  0  0  0  0  0  0  0
  146.5711  136.8396  155.1072 C   0  0  0  0  0  0  0  0  0  0  0  0
  147.4165  137.8762  154.9424 N   0  0  0  0  0  0  0  0  0  0  0  0
  147.0538  139.3250  154.8435 C   0  0  1  0  0  0  0  0  0  0  0  0
  147.8373  140.0637  155.7302 O   0  0  0  0  0  0  0  0  0  0  0  0
  148.2591  141.2892  155.1315 C   0  0  1  0  0  0  0  0  0  0  0  0
  149.7920  141.2874  155.0455 C   0  0  0  0  0  0  0  0  0  0  0  0
  150.3306  141.8554  156.2287 O   0  0  0  0  0  0  0  0  0  0  0  0
  151.4785  141.3762  156.7460 C   0  0  0  0  0  0  0  0  0  0  0  0
  152.1205  140.4516  156.2433 O   0  0  0  0  0  0  0  0  0  0  0  0
  151.8916  142.0816  157.9935 C   0  0  0  0  0  0  0  0  0  0  0  0
  151.4696  143.4147  158.2080 C   0  0  0  0  0  0  0  0  0  0  0  0
  151.8431  144.1064  159.3766 C   0  0  0  0  0  0  0  0  0  0  0  0
  152.6444  143.4740  160.3447 C   0  0  0  0  0  0  0  0  0  0  0  0
  153.0712  142.1485  160.1433 C   0  0  0  0  0  0  0  0  0  0  0  0
  152.6976  141.4545  158.9757 C   0  0  0  0  0  0  0  0  0  0  0  0
  147.5736  141.3567  153.7606 C   0  0  2  0  0  0  0  0  0  0  0  0
  146.4324  142.0394  153.8693 F   0  0  0  0  0  0  0  0  0  0  0  0
  147.2587  139.9086  153.4388 C   0  0  1  0  0  0  0  0  0  0  0  0
  148.3013  139.3024  152.6972 O   0  0  0  0  0  0  0  0  0  0  0  0
  150.8643  131.7646  154.7867 C   0  0  0  0  0  0  0  0  0  0  0  0
  152.0333  131.0130  155.0450 C   0  0  0  0  0  0  0  0  0  0  0  0
  152.3164  129.8503  154.3019 C   0  0  0  0  0  0  0  0  0  0  0  0
  151.4381  129.4320  153.2848 C   0  0  0  0  0  0  0  0  0  0  0  0
  150.2782  130.1797  153.0089 C   0  0  0  0  0  0  0  0  0  0  0  0
  149.9942  131.3423  153.7519 C   0  0  0  0  0  0  0  0  0  0  0  0
  151.8735  137.3891  154.6050 H   0  0  0  0  0  0  0  0  0  0  0  0
  145.5042  136.9889  155.1840 H   0  0  0  0  0  0  0  0  0  0  0  0
  146.0135  139.3792  155.1680 H   0  0  0  0  0  0  0  0  0  0  0  0
  147.9381  142.1155  155.7672 H   0  0  0  0  0  0  0  0  0  0  0  0
  150.1533  140.2626  154.9490 H   0  0  0  0  0  0  0  0  0  0  0  0
  150.1323  141.8384  154.1680 H   0  0  0  0  0  0  0  0  0  0  0  0
  150.8549  143.9214  157.4780 H   0  0  0  0  0  0  0  0  0  0  0  0
  151.5141  145.1237  159.5298 H   0  0  0  0  0  0  0  0  0  0  0  0
  152.9309  144.0048  161.2406 H   0  0  0  0  0  0  0  0  0  0  0  0
  153.6867  141.6621  160.8856 H   0  0  0  0  0  0  0  0  0  0  0  0
  153.0415  140.4379  158.8534 H   0  0  0  0  0  0  0  0  0  0  0  0
  148.1670  141.8579  152.9944 H   0  0  0  0  0  0  0  0  0  0  0  0
  146.3373  139.8062  152.8644 H   0  0  0  0  0  0  0  0  0  0  0  0
  148.7376  139.9701  152.1901 H   0  0  0  0  0  0  0  0  0  0  0  0
  152.7188  131.3215  155.8212 H   0  0  0  0  0  0  0  0  0  0  0  0
  153.2091  129.2803  154.5122 H   0  0  0  0  0  0  0  0  0  0  0  0
  151.6557  128.5414  152.7143 H   0  0  0  0  0  0  0  0  0  0  0  0
  149.6063  129.8640  152.2246 H   0  0  0  0  0  0  0  0  0  0  0  0
  149.1041  131.9078  153.5167 H   0  0  0  0  0  0  0  0  0  0  0  0
  1  2  2  0  0  0  0
  2  3  1  0  0  0  0
  2 30  1  0  0  0  0
  3  4  1  0  0  0  0
  4  9  1  0  0  0  0
  4  5  2  0  0  0  0
  5  6  1  0  0  0  0
  6  7  2  0  0  0  0
  6 36  1  0  0  0  0
  7  8  1  0  0  0  0
  8 12  1  0  0  0  0
  8  9  2  0  0  0  0
  9 10  1  0  0  0  0
 10 11  2  0  0  0  0
 11 12  1  0  0  0  0
 11 37  1  0  0  0  0
 12 13  1  0  0  0  0
 13 28  1  0  0  0  0
 13 14  1  0  0  0  0
 13 38  1  0  0  0  0
 14 15  1  0  0  0  0
 15 16  1  0  0  0  0
 15 26  1  0  0  0  0
 15 39  1  0  0  0  0
 16 17  1  0  0  0  0
 16 40  1  0  0  0  0
 16 41  1  0  0  0  0
 17 18  1  0  0  0  0
 18 19  2  0  0  0  0
 18 20  1  0  0  0  0
 20 25  1  0  0  0  0
 20 21  2  0  0  0  0
 21 22  1  0  0  0  0
 21 42  1  0  0  0  0
 22 23  2  0  0  0  0
 22 43  1  0  0  0  0
 23 24  1  0  0  0  0
 23 44  1  0  0  0  0
 24 25  2  0  0  0  0
 24 45  1  0  0  0  0
 25 46  1  0  0  0  0
 26 27  1  0  0  0  0
 26 28  1  0  0  0  0
 26 47  1  0  0  0  0
 28 29  1  0  0  0  0
 28 48  1  0  0  0  0
 29 49  1  0  0  0  0
 30 35  1  0  0  0  0
 30 31  2  0  0  0  0
 31 32  1  0  0  0  0
 31 50  1  0  0  0  0
 32 33  2  0  0  0  0
 32 51  1  0  0  0  0
 33 34  1  0  0  0  0
 33 52  1  0  0  0  0
 34 35  2  0  0  0  0
 34 53  1  0  0  0  0
 35 54  1  0  0  0  0
M  CHG  1   3  -1
M  END
> <s_m_source_file>
AV-unprocessed.smi

> <i_m_source_file_index>
34

> <i_lp_mmshare_version>
43012

> <i_f3d_flags>
0

> <s_epik_input>
W2NIXTFbY0hdW2NIXVtjSF1bY0hdYzFDKD1PKVtOSF1jKG5bY0hdbjIpYyhjMjMpbltjSF1uM1tDQEBIXTRPW0NASF0oW0NAQEhdKEYpW0NASF00W09IXSlbQ0gyXU9DKD1PKWM1W2NIXVtjSF1bY0hdW2NIXVtjSF01

> <s_epik_cmdline>
J2VwaWtfcHl0aG9uJywgJy1waCcsICc3LjAnLCAnLXRuJywgJzgnLCAnLW1hJywgJzIwMCcsICctbWV0YWxfYmluZGluZycsICctaW1hZScsICc8aW5maWxlLm1hZT4nLCAnLW9tYWUnLCAnPG91dGZpbGUubWFlPic=

> <r_lp_tautomer_probability>
1

> <r_epik_Ionization_Penalty>
4.33227

> <r_epik_Ionization_Penalty_Charging>
3.41027

> <r_epik_Ionization_Penalty_Neutral>
0.922001

> <r_epik_State_Penalty>
3.41358

> <r_epik_Charging_Adjusted_Penalty>
6.82385

> <i_epik_Tot_Q>
-1

> <i_epik_Tot_abs_Q>
1

> <r_epik_Metal_State_Penalty>
0.496292

> <b_epik_Metal_Only>
1

> <s_epik_Chemistry_Notes>
This compound has an ester and may undergo hydrolysis at high or low pH. This compound contains an acetal/aminal-like group ( X-CH(R)-Y where X, Y are N, S, or O) that may be acid/base labile, releasing an aldehyde.

> <s_lp_Force_Field>
OPLS_2005

> <r_lp_Energy>
54.5703

> <b_lp_Chiralities_Consistent>
1

> <s_lp_Variant>
AV-unprocessed.smi:34-22

> <Gold.Version>
5.8.1

> <Gold.Id.Protein>
6NUR|6NUR_protein|mol2

> <Gold.PLP.Fitness>
58.9122

> <Gold.PLP.PLP>
-55.1120

> <Gold.PLP.part.hbond>
-2.3448

> <Gold.PLP.part.metal>
0.0000

> <Gold.PLP.part.buried>
-8.2523

> <Gold.PLP.part.nonpolar>
-44.8727

> <Gold.PLP.part.repulsive>
0.4102

> <Gold.PLP.ligand.clash>
0.1272

> <Gold.PLP.ligand.torsion>
1.6087

> <Gold.PLP.Chemscore.Hbond>
2.2443

> <Gold.PLP.Chemscore.CHOScore>
0.0000

> <Gold.PLP.Chemscore.Metal>
0.0000

> <Gold.Chemscore.Hbonds>
donor molecule, donor type, donor heavy atom, donor atom, acceptor molecule, acceptor atom, score
      L1  H    29    49       P1  7957  0.40
      P1  H  7997  8008       L1    19  0.48
      P1  H 10752 10764       L1     5  0.02

> <Gold.PLP.Chemscore.Internal.Correction>
0.4122

> <Gold.Rescore>
     Score         DG    S(hbond)    S(metal)    S(lipo)     H(rot)  DE(clash)    DE(int)     intcor
     18.16     -21.83       2.77        0.00     119.70       2.69       0.12       3.55       ----

> <Gold.Chemscore.Fitness>
18.1572

> <Gold.Chemscore.DG>
-21.8332

> <Gold.Chemscore.ZeroCoef>
-5.4800

> <Gold.Chemscore.Hbond>
2.7684

> <Gold.Chemscore.Metal>
0.0000

> <Gold.Chemscore.Lipo>
119.6953

> <Gold.Chemscore.Internal_Hbond>
0.0000

> <Gold.Chemscore.DEClash>
0.1228

> <Gold.Chemscore.DEInternal>
3.5532

> <Gold.Chemscore.Rot>
2.6944

> <Gold.Chemscore.Internal.Correction>
   9.000000E+99

> <Gold.Chemscore.Hbonds>
donor molecule, donor type, donor heavy atom, donor atom, acceptor molecule, acceptor atom, score
      L1  H    29    49       P1  7957  0.41
      P1  H  7997  8008       L1    19  0.47

> <Gold.Chemscore.Hbond.Weighted>
-9.2464

> <Gold.Chemscore.Metal.Weighted>
-0.0000

> <Gold.Chemscore.Lipo.Weighted>
-14.0044

> <Gold.Chemscore.Internal_Hbond.Weighted>
0.0000

> <Gold.Chemscore.DEClash.Weighted>
0.1228

> <Gold.Chemscore.DEInternal.Weighted>
3.5532

> <Gold.Chemscore.Rot.Weighted>
6.8975

> <Gold.Chemscore.Internal.Correction.Weighted>
   9.000000E+99

> <Gold.Protein.RotatedTorsions>
[ 6907 6896 6895 6894 ] final  -21.41 input  -60.11 | X-H torsion
[ 7974 7965 7964 7962 ] final   81.09 input  175.53 | X-H torsion
[ 8008 7997 7996 7995 ] final  -44.70 input   59.86 | X-H torsion
[ 10167 10162 10161 10158 ] final -173.26 input  -65.29 | X-H torsion
[ 10718 10713 10712 10709 ] final   50.86 input   66.30 | X-H torsion
[ 10763 10752 10751 10750 ] final  -23.95 input  -60.55 | X-H torsion
[ 11005 11000 10999 10996 ] final  -13.87 input  -57.11 | X-H torsion

> <Gold.Protein.ActiveResidues>
 VAL166  LYS551  ARG553  GLY616  TRP617  ASP618  TYR619  PRO620  LYS621  CYS622 
 ASP623  PHE694  ASN695  SER759  ASP760  ASP761  ALA762  ILE779  LEU786  VAL792 
 PHE793  MET794  SER795  GLU796  ALA797  LYS798  CYS799  TRP800  GLU811  SER814 

> <Gold.Protein.RotatedAtoms>
  151.2337  135.0563  159.8997 H   0  0  0  0  0  0  0  0  0  0  0  0  # atno 6907 bound_to 6896
  152.5402  134.0509  159.8120 H   0  0  0  0  0  0  0  0  0  0  0  0  # atno 6908 bound_to 6896
  151.0693  133.5431  159.2660 H   0  0  0  0  0  0  0  0  0  0  0  0  # atno 6909 bound_to 6896
  145.6427  139.2429  143.2021 H   0  0  0  0  0  0  0  0  0  0  0  0  # atno 7974 bound_to 7965
  154.3998  140.1415  156.3727 H   0  0  0  0  0  0  0  0  0  0  0  0  # atno 8008 bound_to 7997
  155.8078  140.3474  155.5419 H   0  0  0  0  0  0  0  0  0  0  0  0  # atno 8009 bound_to 7997
  155.8418  140.0928  157.1720 H   0  0  0  0  0  0  0  0  0  0  0  0  # atno 8010 bound_to 7997
  139.5698  144.1668  152.1367 H   0  0  0  0  0  0  0  0  0  0  0  0  # atno 10167 bound_to 10162
  157.4925  130.8385  149.8219 H   0  0  0  0  0  0  0  0  0  0  0  0  # atno 10718 bound_to 10713
  153.6760  135.6969  153.5132 H   0  0  0  0  0  0  0  0  0  0  0  0  # atno 10763 bound_to 10752
  153.2521  135.4271  155.0807 H   0  0  0  0  0  0  0  0  0  0  0  0  # atno 10764 bound_to 10752
  154.8413  135.3534  154.6304 H   0  0  0  0  0  0  0  0  0  0  0  0  # atno 10765 bound_to 10752
  140.7806  133.8366  155.9288 H   0  0  0  0  0  0  0  0  0  0  0  0  # atno 11005 bound_to 11000
  146.1268  140.7238  142.9431 LP  0  0  0  0  0  0  0  0  0  0  0  0  # atno 17320 bound_to 7965
  144.7151  140.4181  143.7050 LP  0  0  0  0  0  0  0  0  0  0  0  0  # atno 17321 bound_to 7965
  140.1198  144.5383  150.6870 LP  0  0  0  0  0  0  0  0  0  0  0  0  # atno 17342 bound_to 10162
  140.6983  143.2418  151.4939 LP  0  0  0  0  0  0  0  0  0  0  0  0  # atno 17343 bound_to 10162
  156.0181  130.3805  150.2046 LP  0  0  0  0  0  0  0  0  0  0  0  0  # atno 17370 bound_to 10713
  157.0234  130.9986  151.3333 LP  0  0  0  0  0  0  0  0  0  0  0  0  # atno 17371 bound_to 10713
  140.9486  134.1808  157.4745 LP  0  0  0  0  0  0  0  0  0  0  0  0  # atno 17394 bound_to 11000
  139.8743  134.9900  156.5484 LP  0  0  0  0  0  0  0  0  0  0  0  0  # atno 17395 bound_to 11000

$$$$
