AV-unprocessed.smi:1492|AV-procd|sdf|6042|dock8
  -GOLD-   22720 6153D 1   1.00000     0.00000
 Structure written by MMmdl.
 53 54  0  0  0  0  0  0  0  0  2 V2000
  145.4628  133.1240  155.6568 C   0  0  0  0  0  0  0  0  0  0  0  0
  146.9902  133.2891  155.5352 C   0  0  0  0  0  0  0  0  0  0  0  0
  147.5278  134.4670  154.6549 C   0  0  1  0  0  0  0  0  0  0  0  0
  146.8975  135.7898  155.1575 C   0  0  0  0  0  0  0  0  0  0  0  0
  149.0797  134.5655  154.8102 C   0  0  0  0  0  0  0  0  0  0  0  0
  149.5957  135.8882  154.4630 N   0  0  0  0  0  0  0  0  0  0  0  0
  150.7593  136.4215  154.8644 C   0  0  0  0  0  0  0  0  0  0  0  0
  151.4901  135.9030  155.7060 O   0  0  0  0  0  0  0  0  0  0  0  0
  151.1840  137.7298  154.1916 C   0  0  0  0  0  0  0  0  0  0  0  0
  151.0357  138.9960  155.0372 C   0  0  0  0  0  0  0  0  0  0  0  0
  150.0208  139.8833  154.8785 C   0  0  0  0  0  0  0  0  0  0  0  0
  148.9019  139.7333  153.8635 C   0  0  0  0  0  0  0  0  0  0  0  0
  149.9428  141.0268  155.6538 N   0  0  0  0  0  0  0  0  0  0  0  0
  150.9440  141.2485  156.5849 C   0  0  0  0  0  0  0  0  0  0  0  0
  150.7772  142.5356  157.3618 C   0  0  0  0  0  0  0  0  0  0  0  0
  151.9576  140.4671  156.8018 N   0  0  0  0  0  0  0  0  0  0  0  0
  152.0775  139.2885  156.0493 C   0  0  0  0  0  0  0  0  0  0  0  0
  153.0339  138.5342  156.2217 O   0  0  0  0  0  0  0  0  0  0  0  0
  147.1800  134.2218  153.2005 N   0  3  0  0  0  0  0  0  0  0  0  0
  147.4700  132.8599  152.6643 C   0  0  0  0  0  0  0  0  0  0  0  0
  147.2109  132.7949  151.1489 C   0  0  0  0  0  0  0  0  0  0  0  0
  145.8776  133.1868  150.8610 O   0  0  0  0  0  0  0  0  0  0  0  0
  145.6280  134.5221  151.2710 C   0  0  0  0  0  0  0  0  0  0  0  0
  145.8033  134.6296  152.7929 C   0  0  0  0  0  0  0  0  0  0  0  0
  149.1638  141.6547  155.5129 H   0  0  0  0  0  0  0  0  0  0  0  0
  145.2304  132.2418  156.2536 H   0  0  0  0  0  0  0  0  0  0  0  0
  144.9866  132.9827  154.6874 H   0  0  0  0  0  0  0  0  0  0  0  0
  144.9821  133.9658  156.1504 H   0  0  0  0  0  0  0  0  0  0  0  0
  147.4108  133.3602  156.5391 H   0  0  0  0  0  0  0  0  0  0  0  0
  147.3363  132.3395  155.1302 H   0  0  0  0  0  0  0  0  0  0  0  0
  147.1724  135.9958  156.1914 H   0  0  0  0  0  0  0  0  0  0  0  0
  145.8087  135.7655  155.1128 H   0  0  0  0  0  0  0  0  0  0  0  0
  147.2335  136.6538  154.5857 H   0  0  0  0  0  0  0  0  0  0  0  0
  149.3683  134.3757  155.8436 H   0  0  0  0  0  0  0  0  0  0  0  0
  149.5970  133.7835  154.2556 H   0  0  0  0  0  0  0  0  0  0  0  0
  149.0537  136.4187  153.7966 H   0  0  0  0  0  0  0  0  0  0  0  0
  152.2191  137.6123  153.8720 H   0  0  0  0  0  0  0  0  0  0  0  0
  150.6185  137.8513  153.2664 H   0  0  0  0  0  0  0  0  0  0  0  0
  149.3099  139.6407  152.8565 H   0  0  0  0  0  0  0  0  0  0  0  0
  148.2299  140.5925  153.8742 H   0  0  0  0  0  0  0  0  0  0  0  0
  148.3097  138.8440  154.0801 H   0  0  0  0  0  0  0  0  0  0  0  0
  151.6083  142.6851  158.0523 H   0  0  0  0  0  0  0  0  0  0  0  0
  149.8529  142.5135  157.9397 H   0  0  0  0  0  0  0  0  0  0  0  0
  150.7426  143.3877  156.6823 H   0  0  0  0  0  0  0  0  0  0  0  0
  148.5116  132.5810  152.8068 H   0  0  0  0  0  0  0  0  0  0  0  0
  146.8581  132.1169  153.1765 H   0  0  0  0  0  0  0  0  0  0  0  0
  147.9126  133.4299  150.6076 H   0  0  0  0  0  0  0  0  0  0  0  0
  147.3641  131.7780  150.7870 H   0  0  0  0  0  0  0  0  0  0  0  0
  146.2925  135.2122  150.7514 H   0  0  0  0  0  0  0  0  0  0  0  0
  144.6093  134.7909  150.9910 H   0  0  0  0  0  0  0  0  0  0  0  0
  145.0611  133.9944  153.2762 H   0  0  0  0  0  0  0  0  0  0  0  0
  145.5840  135.6557  153.0803 H   0  0  0  0  0  0  0  0  0  0  0  0
  147.8000  134.8345  152.6901 H   0  0  0  0  0  0  0  0  0  0  0  0
  1  2  1  0  0  0  0
  1 26  1  0  0  0  0
  1 27  1  0  0  0  0
  1 28  1  0  0  0  0
  2  3  1  0  0  0  0
  2 29  1  0  0  0  0
  2 30  1  0  0  0  0
  3  4  1  0  0  0  0
  3  5  1  0  0  0  0
  3 19  1  0  0  0  0
  4 31  1  0  0  0  0
  4 32  1  0  0  0  0
  4 33  1  0  0  0  0
  5  6  1  0  0  0  0
  5 34  1  0  0  0  0
  5 35  1  0  0  0  0
  6  7  1  0  0  0  0
  6 36  1  0  0  0  0
  7  8  2  0  0  0  0
  7  9  1  0  0  0  0
  9 37  1  0  0  0  0
  9 38  1  0  0  0  0
  9 10  1  0  0  0  0
 10 17  1  0  0  0  0
 10 11  2  0  0  0  0
 11 12  1  0  0  0  0
 11 13  1  0  0  0  0
 12 39  1  0  0  0  0
 12 40  1  0  0  0  0
 12 41  1  0  0  0  0
 13 25  1  0  0  0  0
 13 14  1  0  0  0  0
 14 15  1  0  0  0  0
 14 16  2  0  0  0  0
 15 42  1  0  0  0  0
 15 43  1  0  0  0  0
 15 44  1  0  0  0  0
 16 17  1  0  0  0  0
 17 18  2  0  0  0  0
 19 24  1  0  0  0  0
 19 20  1  0  0  0  0
 19 53  1  0  0  0  0
 20 21  1  0  0  0  0
 20 45  1  0  0  0  0
 20 46  1  0  0  0  0
 21 22  1  0  0  0  0
 21 47  1  0  0  0  0
 21 48  1  0  0  0  0
 22 23  1  0  0  0  0
 23 24  1  0  0  0  0
 23 49  1  0  0  0  0
 23 50  1  0  0  0  0
 24 51  1  0  0  0  0
 24 52  1  0  0  0  0
M  CHG  1  19   1
M  END
> <s_m_source_file>
AV-unprocessed.smi

> <i_m_source_file_index>
1492

> <i_lp_mmshare_version>
43012

> <i_f3d_flags>
0

> <s_epik_input>
W0NIMl0xW0NIMl1PW0NIMl1bQ0gyXU4xW0NAQF0oW0NIM10pKFtDSDJdW0NIM10pW0NIMl1bTkhdQyg9TylbQ0gyXWMyYyhbQ0gzXSluYyhbQ0gzXSlbbkhdYzI9Tw==

> <s_epik_cmdline>
J2VwaWtfcHl0aG9uJywgJy1waCcsICc3LjAnLCAnLXRuJywgJzgnLCAnLW1hJywgJzIwMCcsICctbWV0YWxfYmluZGluZycsICctaW1hZScsICc8aW5maWxlLm1hZT4nLCAnLW9tYWUnLCAnPG91dGZpbGUubWFlPic=

> <r_lp_tautomer_probability>
0.156392

> <r_epik_Ionization_Penalty>
0.523233

> <r_epik_Ionization_Penalty_Charging>
0.523147

> <r_epik_Ionization_Penalty_Neutral>
8.52784e-05

> <r_epik_State_Penalty>
1.66677

> <r_epik_Charging_Adjusted_Penalty>
2.18991

> <i_epik_Tot_Q>
1

> <i_epik_Tot_abs_Q>
1

> <r_epik_Metal_State_Penalty>
1.84524

> <b_epik_Metal_Only>
0

> <s_lp_Force_Field>
OPLS_2005

> <r_lp_Energy>
37.6543

> <b_lp_Chiralities_Consistent>
1

> <s_lp_Variant>
AV-unprocessed.smi:1492-7

> <Gold.Version>
5.8.1

> <Gold.Id.Protein>
6NUR|6NUR_protein|mol2

> <Gold.PLP.Fitness>
44.8857

> <Gold.PLP.PLP>
-34.8347

> <Gold.PLP.part.hbond>
-4.4167

> <Gold.PLP.part.metal>
0.0000

> <Gold.PLP.part.buried>
0.4437

> <Gold.PLP.part.nonpolar>
-29.1216

> <Gold.PLP.part.repulsive>
0.3689

> <Gold.PLP.ligand.clash>
0.0000

> <Gold.PLP.ligand.torsion>
1.4321

> <Gold.PLP.Chemscore.Hbond>
4.2160

> <Gold.PLP.Chemscore.CHOScore>
0.0000

> <Gold.PLP.Chemscore.Metal>
0.0000

> <Gold.Chemscore.Hbonds>
donor molecule, donor type, donor heavy atom, donor atom, acceptor molecule, acceptor atom, score
      L1  H     6    36       P1  7948  0.56
      L1  H    19    53       P1  7948  2.00
      P1  H  7997  8010       L1    18  0.60
      P1  H 10752 10763       L1     8  1.00

> <Gold.PLP.Chemscore.Internal.Correction>
0.2671

> <Gold.Rescore>
     Score         DG    S(hbond)    S(metal)    S(lipo)     H(rot)  DE(clash)    DE(int)     intcor
     16.08     -17.84       3.08        0.00      65.85       2.19       0.03       1.74       ----

> <Gold.Chemscore.Fitness>
16.0783

> <Gold.Chemscore.DG>
-17.8443

> <Gold.Chemscore.ZeroCoef>
-5.4800

> <Gold.Chemscore.Hbond>
3.0756

> <Gold.Chemscore.Metal>
0.0000

> <Gold.Chemscore.Lipo>
65.8520

> <Gold.Chemscore.Internal_Hbond>
0.0000

> <Gold.Chemscore.DEClash>
0.0291

> <Gold.Chemscore.DEInternal>
1.7368

> <Gold.Chemscore.Rot>
2.1926

> <Gold.Chemscore.Internal.Correction>
   9.000000E+99

> <Gold.Chemscore.Hbonds>
donor molecule, donor type, donor heavy atom, donor atom, acceptor molecule, acceptor atom, score
      L1  H     6    36       P1  7948  0.55
      L1  H    19    53       P1  7948  0.91
      P1  H  7997  8010       L1    18  0.07
      P1  H 10752 10763       L1     8  0.74

> <Gold.Chemscore.Hbond.Weighted>
-10.2726

> <Gold.Chemscore.Metal.Weighted>
-0.0000

> <Gold.Chemscore.Lipo.Weighted>
-7.7047

> <Gold.Chemscore.Internal_Hbond.Weighted>
0.0000

> <Gold.Chemscore.DEClash.Weighted>
0.0291

> <Gold.Chemscore.DEInternal.Weighted>
1.7368

> <Gold.Chemscore.Rot.Weighted>
5.6129

> <Gold.Chemscore.Internal.Correction.Weighted>
   9.000000E+99

> <Gold.Protein.RotatedTorsions>
[ 6907 6896 6895 6894 ] final  159.29 input  -60.11 | X-H torsion
[ 7974 7965 7964 7962 ] final   50.40 input  175.53 | X-H torsion
[ 8008 7997 7996 7995 ] final   57.86 input   59.86 | X-H torsion
[ 10167 10162 10161 10158 ] final  -65.02 input  -65.29 | X-H torsion
[ 10718 10713 10712 10709 ] final   50.18 input   66.30 | X-H torsion
[ 10763 10752 10751 10750 ] final   83.46 input  -60.55 | X-H torsion
[ 11005 11000 10999 10996 ] final  109.83 input  -57.11 | X-H torsion

> <Gold.Protein.ActiveResidues>
 VAL166  LYS551  ARG553  GLY616  TRP617  ASP618  TYR619  PRO620  LYS621  CYS622 
 ASP623  PHE694  ASN695  SER759  ASP760  ASP761  ALA762  ILE779  LEU786  VAL792 
 PHE793  MET794  SER795  GLU796  ALA797  LYS798  CYS799  TRP800  GLU811  SER814 

> <Gold.Protein.RotatedAtoms>
  151.9878  133.3780  159.4132 H   0  0  0  0  0  0  0  0  0  0  0  0  # atno 6907 bound_to 6896
  150.6926  134.3970  159.5111 H   0  0  0  0  0  0  0  0  0  0  0  0  # atno 6908 bound_to 6896
  152.1698  134.8843  160.0586 H   0  0  0  0  0  0  0  0  0  0  0  0  # atno 6909 bound_to 6896
  146.0015  139.4444  143.0012 H   0  0  0  0  0  0  0  0  0  0  0  0  # atno 7974 bound_to 7965
  155.5406  140.3484  155.4446 H   0  0  0  0  0  0  0  0  0  0  0  0  # atno 8008 bound_to 7997
  156.0654  140.1350  156.9918 H   0  0  0  0  0  0  0  0  0  0  0  0  # atno 8009 bound_to 7997
  154.4500  140.0976  156.6564 H   0  0  0  0  0  0  0  0  0  0  0  0  # atno 8010 bound_to 7997
  140.5760  143.2322  151.6442 H   0  0  0  0  0  0  0  0  0  0  0  0  # atno 10167 bound_to 10162
  157.4859  130.8345  149.8146 H   0  0  0  0  0  0  0  0  0  0  0  0  # atno 10718 bound_to 10713
  153.1293  135.4690  154.9322 H   0  0  0  0  0  0  0  0  0  0  0  0  # atno 10763 bound_to 10752
  154.7649  135.3142  154.8308 H   0  0  0  0  0  0  0  0  0  0  0  0  # atno 10764 bound_to 10752
  153.8854  135.6890  153.4818 H   0  0  0  0  0  0  0  0  0  0  0  0  # atno 10765 bound_to 10752
  139.8870  134.9468  156.6186 H   0  0  0  0  0  0  0  0  0  0  0  0  # atno 11005 bound_to 11000
  145.7480  140.9983  143.1265 LP  0  0  0  0  0  0  0  0  0  0  0  0  # atno 17320 bound_to 7965
  144.6921  139.9180  143.7466 LP  0  0  0  0  0  0  0  0  0  0  0  0  # atno 17321 bound_to 7965
  139.5143  144.3416  152.0735 LP  0  0  0  0  0  0  0  0  0  0  0  0  # atno 17342 bound_to 10162
  140.2559  144.4119  150.6204 LP  0  0  0  0  0  0  0  0  0  0  0  0  # atno 17343 bound_to 10162
  156.0147  130.3818  150.2151 LP  0  0  0  0  0  0  0  0  0  0  0  0  # atno 17370 bound_to 10713
  157.0338  131.0015  151.3304 LP  0  0  0  0  0  0  0  0  0  0  0  0  # atno 17371 bound_to 10713
  140.7756  133.8702  155.8527 LP  0  0  0  0  0  0  0  0  0  0  0  0  # atno 17394 bound_to 11000
  140.9804  134.1413  157.4499 LP  0  0  0  0  0  0  0  0  0  0  0  0  # atno 17395 bound_to 11000

$$$$
