AV-unprocessed.smi:3245|AV-procd|sdf|12405|dock9
  -GOLD-   2272018283D 1   1.00000     0.00000
 Structure written by MMmdl.
 35 36  0  0  0  0  0  0  0  0  1 V2000
  151.4236  144.5635  158.8686 C   0  0  0  0  0  0  0  0  0  0  0  0
  151.6781  143.2590  158.0861 C   0  0  1  0  0  0  0  0  0  0  0  0
  151.5415  142.0000  158.9677 C   0  0  0  0  0  0  0  0  0  0  0  0
  152.4605  141.9914  160.0920 N   0  0  0  0  0  0  0  0  0  0  0  0
  152.5043  142.8506  161.1699 C   0  0  0  0  0  0  0  0  0  0  0  0
  153.5327  142.4450  161.9714 C   0  0  0  0  0  0  0  0  0  0  0  0
  154.0616  141.3109  161.2942 C   0  0  0  0  0  0  0  0  0  0  0  0
  153.4153  141.0390  160.1720 N   0  0  0  0  0  0  0  0  0  0  0  0
  150.7236  143.1305  156.9917 N   0  0  0  0  0  0  0  0  0  0  0  0
  151.0752  142.0534  156.0761 C   0  0  0  0  0  0  0  0  0  0  0  0
  150.1752  140.8298  156.3259 C   0  0  0  0  0  0  0  0  0  0  0  0
  150.5123  139.7077  155.4420 N   0  0  0  0  0  0  0  0  0  0  0  0
  151.7124  139.1138  155.3957 C   0  0  0  0  0  0  0  0  0  0  0  0
  152.7164  139.3976  156.0484 O   0  0  0  0  0  0  0  0  0  0  0  0
  151.6527  137.9899  154.3842 C   0  0  0  0  0  0  0  0  0  0  0  0
  150.2760  138.1279  153.9611 N   0  0  0  0  0  0  0  0  0  0  0  0
  149.6453  139.1266  154.5924 C   0  0  0  0  0  0  0  0  0  0  0  0
  148.4701  139.4447  154.4163 O   0  0  0  0  0  0  0  0  0  0  0  0
  152.1275  144.6739  159.6934 H   0  0  0  0  0  0  0  0  0  0  0  0
  150.4174  144.5820  159.2887 H   0  0  0  0  0  0  0  0  0  0  0  0
  151.5382  145.4471  158.2421 H   0  0  0  0  0  0  0  0  0  0  0  0
  152.6886  143.2758  157.6745 H   0  0  0  0  0  0  0  0  0  0  0  0
  150.5255  141.9193  159.3573 H   0  0  0  0  0  0  0  0  0  0  0  0
  151.7207  141.1004  158.3770 H   0  0  0  0  0  0  0  0  0  0  0  0
  151.8102  143.6717  161.2741 H   0  0  0  0  0  0  0  0  0  0  0  0
  153.8567  142.8899  162.9005 H   0  0  0  0  0  0  0  0  0  0  0  0
  154.8896  140.6806  161.5833 H   0  0  0  0  0  0  0  0  0  0  0  0
  149.8053  142.9452  157.3697 H   0  0  0  0  0  0  0  0  0  0  0  0
  150.9934  142.3739  155.0380 H   0  0  0  0  0  0  0  0  0  0  0  0
  152.1165  141.7765  156.2446 H   0  0  0  0  0  0  0  0  0  0  0  0
  150.2924  140.5062  157.3612 H   0  0  0  0  0  0  0  0  0  0  0  0
  149.1235  141.1049  156.2268 H   0  0  0  0  0  0  0  0  0  0  0  0
  152.3461  138.1522  153.5585 H   0  0  0  0  0  0  0  0  0  0  0  0
  151.8364  137.0204  154.8484 H   0  0  0  0  0  0  0  0  0  0  0  0
  149.8498  137.5277  153.2699 H   0  0  0  0  0  0  0  0  0  0  0  0
  1  2  1  0  0  0  0
  1 19  1  0  0  0  0
  1 20  1  0  0  0  0
  1 21  1  0  0  0  0
  2  3  1  0  0  0  0
  2  9  1  0  0  0  0
  2 22  1  0  0  0  0
  3  4  1  0  0  0  0
  3 23  1  0  0  0  0
  3 24  1  0  0  0  0
  4  8  1  0  0  0  0
  4  5  1  0  0  0  0
  5  6  2  0  0  0  0
  5 25  1  0  0  0  0
  6  7  1  0  0  0  0
  6 26  1  0  0  0  0
  7  8  2  0  0  0  0
  7 27  1  0  0  0  0
  9 10  1  0  0  0  0
  9 28  1  0  0  0  0
 10 11  1  0  0  0  0
 10 29  1  0  0  0  0
 10 30  1  0  0  0  0
 11 12  1  0  0  0  0
 11 31  1  0  0  0  0
 11 32  1  0  0  0  0
 12 17  1  0  0  0  0
 12 13  1  0  0  0  0
 13 14  2  0  0  0  0
 13 15  1  0  0  0  0
 15 16  1  0  0  0  0
 15 33  1  0  0  0  0
 15 34  1  0  0  0  0
 16 17  1  0  0  0  0
 16 35  1  0  0  0  0
 17 18  2  0  0  0  0
M  END
> <s_m_source_file>
AV-unprocessed.smi

> <i_m_source_file_index>
3245

> <i_lp_mmshare_version>
43012

> <i_f3d_flags>
0

> <s_epik_input>
bjFbY0hdW2NIXVtjSF1uMVtDSDJdW0NAQEhdKFtDSDNdKVtOSF1bQ0gyXVtDSDJdTjJDKD1PKVtDSDJdW05IXUMyPU8=

> <s_epik_cmdline>
J2VwaWtfcHl0aG9uJywgJy1waCcsICc3LjAnLCAnLXRuJywgJzgnLCAnLW1hJywgJzIwMCcsICctbWV0YWxfYmluZGluZycsICctaW1hZScsICc8aW5maWxlLm1hZT4nLCAnLW9tYWUnLCAnPG91dGZpbGUubWFlPic=

> <r_lp_tautomer_probability>
1

> <r_epik_Ionization_Penalty>
2.14948

> <r_epik_Ionization_Penalty_Charging>
0

> <r_epik_Ionization_Penalty_Neutral>
2.14948

> <r_epik_State_Penalty>
2.28912

> <r_epik_Charging_Adjusted_Penalty>
2.28912

> <i_epik_Tot_Q>
0

> <i_epik_Tot_abs_Q>
0

> <r_epik_Metal_State_Penalty>
2.36471

> <b_epik_Metal_Only>
0

> <s_lp_Force_Field>
OPLS_2005

> <r_lp_Energy>
25.1449

> <b_lp_Chiralities_Consistent>
1

> <s_lp_Variant>
AV-unprocessed.smi:3245-4

> <Gold.Version>
5.8.1

> <Gold.Id.Protein>
6NUR|6NUR_protein|mol2

> <Gold.PLP.Fitness>
47.3341

> <Gold.PLP.PLP>
-42.1037

> <Gold.PLP.part.hbond>
-3.8140

> <Gold.PLP.part.metal>
0.0000

> <Gold.PLP.part.buried>
-7.8037

> <Gold.PLP.part.nonpolar>
-31.2576

> <Gold.PLP.part.repulsive>
0.1945

> <Gold.PLP.ligand.clash>
0.0000

> <Gold.PLP.ligand.torsion>
0.3721

> <Gold.PLP.Chemscore.Hbond>
1.9588

> <Gold.PLP.Chemscore.CHOScore>
0.0000

> <Gold.PLP.Chemscore.Metal>
0.0000

> <Gold.Chemscore.Hbonds>
donor molecule, donor type, donor heavy atom, donor atom, acceptor molecule, acceptor atom, score
      L1  H    16    35       P1  7948  0.89
      P1  H  7997  8009       L1    14  1.00

> <Gold.PLP.Chemscore.Internal.Correction>
0.0983

> <Gold.Rescore>
     Score         DG    S(hbond)    S(metal)    S(lipo)     H(rot)  DE(clash)    DE(int)     intcor
     14.10     -14.55       1.72        0.00      86.72       2.66       0.06       0.38       ----

> <Gold.Chemscore.Fitness>
14.0994

> <Gold.Chemscore.DG>
-14.5458

> <Gold.Chemscore.ZeroCoef>
-5.4800

> <Gold.Chemscore.Hbond>
1.7159

> <Gold.Chemscore.Metal>
0.0000

> <Gold.Chemscore.Lipo>
86.7234

> <Gold.Chemscore.Internal_Hbond>
0.0000

> <Gold.Chemscore.DEClash>
0.0615

> <Gold.Chemscore.DEInternal>
0.3849

> <Gold.Chemscore.Rot>
2.6609

> <Gold.Chemscore.Internal.Correction>
   9.000000E+99

> <Gold.Chemscore.Hbonds>
donor molecule, donor type, donor heavy atom, donor atom, acceptor molecule, acceptor atom, score
      L1  H    16    35       P1  7948  0.48
      P1  H  7997  8009       L1    14  1.00

> <Gold.Chemscore.Hbond.Weighted>
-5.7311

> <Gold.Chemscore.Metal.Weighted>
-0.0000

> <Gold.Chemscore.Lipo.Weighted>
-10.1466

> <Gold.Chemscore.Internal_Hbond.Weighted>
0.0000

> <Gold.Chemscore.DEClash.Weighted>
0.0615

> <Gold.Chemscore.DEInternal.Weighted>
0.3849

> <Gold.Chemscore.Rot.Weighted>
6.8118

> <Gold.Chemscore.Internal.Correction.Weighted>
   9.000000E+99

> <Gold.Protein.RotatedTorsions>
[ 6907 6896 6895 6894 ] final  -72.27 input  -60.11 | X-H torsion
[ 7974 7965 7964 7962 ] final  142.59 input  175.53 | X-H torsion
[ 8008 7997 7996 7995 ] final -172.92 input   59.86 | X-H torsion
[ 10167 10162 10161 10158 ] final   67.96 input  -65.29 | X-H torsion
[ 10718 10713 10712 10709 ] final -133.86 input   66.30 | X-H torsion
[ 10763 10752 10751 10750 ] final -140.94 input  -60.55 | X-H torsion
[ 11005 11000 10999 10996 ] final -108.23 input  -57.11 | X-H torsion

> <Gold.Protein.ActiveResidues>
 VAL166  LYS551  ARG553  GLY616  TRP617  ASP618  TYR619  PRO620  LYS621  CYS622 
 ASP623  PHE694  ASN695  SER759  ASP760  ASP761  ALA762  ILE779  LEU786  VAL792 
 PHE793  MET794  SER795  GLU796  ALA797  LYS798  CYS799  TRP800  GLU811  SER814 

> <Gold.Protein.RotatedAtoms>
  150.7177  134.5187  159.5642 H   0  0  0  0  0  0  0  0  0  0  0  0  # atno 6907 bound_to 6896
  152.2747  134.7891  160.0417 H   0  0  0  0  0  0  0  0  0  0  0  0  # atno 6908 bound_to 6896
  151.8559  133.3413  159.3725 H   0  0  0  0  0  0  0  0  0  0  0  0  # atno 6909 bound_to 6896
  144.8994  139.5444  143.5760 H   0  0  0  0  0  0  0  0  0  0  0  0  # atno 7974 bound_to 7965
  155.9508  140.1126  157.0978 H   0  0  0  0  0  0  0  0  0  0  0  0  # atno 8008 bound_to 7997
  154.4109  140.1201  156.5116 H   0  0  0  0  0  0  0  0  0  0  0  0  # atno 8009 bound_to 7997
  155.6844  140.3473  155.4870 H   0  0  0  0  0  0  0  0  0  0  0  0  # atno 8010 bound_to 7997
  140.0838  144.5048  150.7144 H   0  0  0  0  0  0  0  0  0  0  0  0  # atno 10167 bound_to 10162
  156.2493  130.7143  151.1036 H   0  0  0  0  0  0  0  0  0  0  0  0  # atno 10718 bound_to 10713
  154.8562  135.3539  154.5788 H   0  0  0  0  0  0  0  0  0  0  0  0  # atno 10763 bound_to 10752
  153.6399  135.6999  153.5250 H   0  0  0  0  0  0  0  0  0  0  0  0  # atno 10764 bound_to 10752
  153.2980  135.4215  155.1186 H   0  0  0  0  0  0  0  0  0  0  0  0  # atno 10765 bound_to 10752
  141.0912  133.9051  157.2070 H   0  0  0  0  0  0  0  0  0  0  0  0  # atno 11005 bound_to 11000
  146.3100  139.7712  142.9027 LP  0  0  0  0  0  0  0  0  0  0  0  0  # atno 17320 bound_to 7965
  145.3642  141.0331  143.3267 LP  0  0  0  0  0  0  0  0  0  0  0  0  # atno 17321 bound_to 7965
  140.7064  143.2471  151.4714 LP  0  0  0  0  0  0  0  0  0  0  0  0  # atno 17342 bound_to 10162
  139.5764  144.1810  152.1909 LP  0  0  0  0  0  0  0  0  0  0  0  0  # atno 17343 bound_to 10162
  157.7208  131.0682  150.6143 LP  0  0  0  0  0  0  0  0  0  0  0  0  # atno 17370 bound_to 10713
  156.6222  130.4409  149.5818 LP  0  0  0  0  0  0  0  0  0  0  0  0  # atno 17371 bound_to 10713
  139.9739  135.0120  156.9581 LP  0  0  0  0  0  0  0  0  0  0  0  0  # atno 17394 bound_to 11000
  140.5246  134.0873  155.7300 LP  0  0  0  0  0  0  0  0  0  0  0  0  # atno 17395 bound_to 11000

$$$$
