AV-unprocessed.smi:2100|AV-procd|sdf|8578|dock2
  -GOLD-   2272011303D 1   1.00000     0.00000
 Structure written by MMmdl.
 40 41  0  0  0  0  0  0  0  0  2 V2000
  149.4789  141.0015  155.8382 C   0  0  0  0  0  0  0  0  0  0  0  0
  149.6722  139.8411  154.8454 C   0  0  1  0  0  0  0  0  0  0  0  0
  151.1227  139.3301  154.7882 C   0  0  0  0  0  0  0  0  0  0  0  0
  151.4548  138.5178  155.9745 N   0  0  0  0  0  0  0  0  0  0  0  0
  153.1284  138.1610  156.2670 S   0  0  0  0  0  0  0  0  0  0  0  0
  153.2103  136.7219  156.5655 O   0  0  0  0  0  0  0  0  0  0  0  0
  153.8557  138.6626  155.0893 O   0  0  0  0  0  0  0  0  0  0  0  0
  153.2936  139.0809  157.5895 N   0  5  0  0  0  0  0  0  0  0  0  0
  152.3535  140.1605  157.8361 C   0  0  0  0  0  0  0  0  0  0  0  0
  152.8289  141.0115  159.0366 C   0  0  0  0  0  0  0  0  0  0  0  0
  152.3476  142.4615  159.0336 C   0  0  0  0  0  0  0  0  0  0  0  0
  152.5516  143.2896  160.1616 C   0  0  0  0  0  0  0  0  0  0  0  0
  152.0912  144.6188  160.1168 C   0  0  0  0  0  0  0  0  0  0  0  0
  151.4552  145.0769  158.9473 C   0  0  0  0  0  0  0  0  0  0  0  0
  151.3073  144.1801  157.8706 C   0  0  0  0  0  0  0  0  0  0  0  0
  151.7439  142.9028  157.9029 N   0  0  0  0  0  0  0  0  0  0  0  0
  150.4762  137.4493  156.2214 C   0  0  0  0  0  0  0  0  0  0  0  0
  149.0463  138.0173  156.2689 C   0  0  2  0  0  0  0  0  0  0  0  0
  147.9955  136.9073  156.3797 C   0  0  0  0  0  0  0  0  0  0  0  0
  148.7722  138.7622  155.0873 O   0  0  0  0  0  0  0  0  0  0  0  0
  150.0771  141.8641  155.5432 H   0  0  0  0  0  0  0  0  0  0  0  0
  149.7819  140.7338  156.8501 H   0  0  0  0  0  0  0  0  0  0  0  0
  148.4363  141.3176  155.8708 H   0  0  0  0  0  0  0  0  0  0  0  0
  149.4191  140.2281  153.8578 H   0  0  0  0  0  0  0  0  0  0  0  0
  151.2611  138.7136  153.8994 H   0  0  0  0  0  0  0  0  0  0  0  0
  151.8078  140.1717  154.6891 H   0  0  0  0  0  0  0  0  0  0  0  0
  152.2606  140.8048  156.9616 H   0  0  0  0  0  0  0  0  0  0  0  0
  151.3481  139.7910  158.0404 H   0  0  0  0  0  0  0  0  0  0  0  0
  152.5212  140.5383  159.9703 H   0  0  0  0  0  0  0  0  0  0  0  0
  153.9194  141.0152  159.0563 H   0  0  0  0  0  0  0  0  0  0  0  0
  153.0359  142.9061  161.0478 H   0  0  0  0  0  0  0  0  0  0  0  0
  152.2226  145.2744  160.9648 H   0  0  0  0  0  0  0  0  0  0  0  0
  151.0889  146.0903  158.8776 H   0  0  0  0  0  0  0  0  0  0  0  0
  150.8259  144.4978  156.9578 H   0  0  0  0  0  0  0  0  0  0  0  0
  150.5684  136.6999  155.4343 H   0  0  0  0  0  0  0  0  0  0  0  0
  150.6988  136.9527  157.1657 H   0  0  0  0  0  0  0  0  0  0  0  0
  148.9419  138.6633  157.1407 H   0  0  0  0  0  0  0  0  0  0  0  0
  148.1449  136.3150  157.2827 H   0  0  0  0  0  0  0  0  0  0  0  0
  148.0428  136.2327  155.5245 H   0  0  0  0  0  0  0  0  0  0  0  0
  146.9897  137.3256  156.4194 H   0  0  0  0  0  0  0  0  0  0  0  0
  1  2  1  0  0  0  0
  1 21  1  0  0  0  0
  1 22  1  0  0  0  0
  1 23  1  0  0  0  0
  2 20  1  0  0  0  0
  2  3  1  0  0  0  0
  2 24  1  0  0  0  0
  3  4  1  0  0  0  0
  3 25  1  0  0  0  0
  3 26  1  0  0  0  0
  4  5  1  0  0  0  0
  4 17  1  0  0  0  0
  5  6  2  0  0  0  0
  5  7  2  0  0  0  0
  5  8  1  0  0  0  0
  8  9  1  0  0  0  0
  9 10  1  0  0  0  0
  9 27  1  0  0  0  0
  9 28  1  0  0  0  0
 10 11  1  0  0  0  0
 10 29  1  0  0  0  0
 10 30  1  0  0  0  0
 11 16  1  0  0  0  0
 11 12  2  0  0  0  0
 12 13  1  0  0  0  0
 12 31  1  0  0  0  0
 13 14  2  0  0  0  0
 13 32  1  0  0  0  0
 14 15  1  0  0  0  0
 14 33  1  0  0  0  0
 15 16  2  0  0  0  0
 15 34  1  0  0  0  0
 17 18  1  0  0  0  0
 17 35  1  0  0  0  0
 17 36  1  0  0  0  0
 18 19  1  0  0  0  0
 18 20  1  0  0  0  0
 18 37  1  0  0  0  0
 19 38  1  0  0  0  0
 19 39  1  0  0  0  0
 19 40  1  0  0  0  0
M  CHG  1   8  -1
M  END
> <s_m_source_file>
AV-unprocessed.smi

> <i_m_source_file_index>
2100

> <i_lp_mmshare_version>
43012

> <i_f3d_flags>
0

> <s_epik_input>
W0NIM11bQ0BASF0xW0NIMl1OKFtDSDJdW0NASF0oTzEpW0NIM10pUyg9TykoPU8pW05IXVtDSDJdW0NIMl1jMltjSF1bY0hdW2NIXVtjSF1uMg==

> <s_epik_cmdline>
J2VwaWtfcHl0aG9uJywgJy1waCcsICc3LjAnLCAnLXRuJywgJzgnLCAnLW1hJywgJzIwMCcsICctbWV0YWxfYmluZGluZycsICctaW1hZScsICc8aW5maWxlLm1hZT4nLCAnLW9tYWUnLCAnPG91dGZpbGUubWFlPic=

> <r_epik_Ionization_Penalty>
1.27779

> <r_epik_Ionization_Penalty_Charging>
1.20871

> <r_epik_Ionization_Penalty_Neutral>
0.0690773

> <r_epik_State_Penalty>
1.64557

> <r_epik_Charging_Adjusted_Penalty>
2.85428

> <i_epik_Tot_Q>
-1

> <i_epik_Tot_abs_Q>
1

> <r_epik_Metal_State_Penalty>
0.643506

> <b_epik_Metal_Only>
0

> <s_lp_Force_Field>
OPLS_2005

> <r_lp_Energy>
10.0642

> <b_lp_Chiralities_Consistent>
1

> <s_lp_Variant>
AV-unprocessed.smi:2100-6

> <Gold.Version>
5.8.1

> <Gold.Id.Protein>
6NUR|6NUR_protein|mol2

> <Gold.PLP.Fitness>
46.6008

> <Gold.PLP.PLP>
-34.6858

> <Gold.PLP.part.hbond>
-3.0000

> <Gold.PLP.part.metal>
0.0000

> <Gold.PLP.part.buried>
-3.0074

> <Gold.PLP.part.nonpolar>
-28.8526

> <Gold.PLP.part.repulsive>
0.1320

> <Gold.PLP.ligand.clash>
0.0000

> <Gold.PLP.ligand.torsion>
1.1885

> <Gold.PLP.Chemscore.Hbond>
3.2480

> <Gold.PLP.Chemscore.CHOScore>
1.0000

> <Gold.PLP.Chemscore.Metal>
0.0000

> <Gold.Chemscore.Hbonds>
donor molecule, donor type, donor heavy atom, donor atom, acceptor molecule, acceptor atom, score
      P1  H  7997  8009       L1     8  1.86
      P1  H  7997  8010       L1     7  0.51
      P1  H 10752 10764       L1     6  0.90
      L1  C    15    34       P1  8028  1.00

> <Gold.PLP.Chemscore.Internal.Correction>
1.5480

> <Gold.Rescore>
     Score         DG    S(hbond)    S(metal)    S(lipo)     H(rot)  DE(clash)    DE(int)     intcor
     16.85     -18.04       1.48        0.00      97.42       1.47       0.01       1.18       ----

> <Gold.Chemscore.Fitness>
16.8493

> <Gold.Chemscore.DG>
-18.0356

> <Gold.Chemscore.ZeroCoef>
-5.4800

> <Gold.Chemscore.Hbond>
1.4756

> <Gold.Chemscore.Metal>
0.0000

> <Gold.Chemscore.Lipo>
97.4203

> <Gold.Chemscore.Internal_Hbond>
0.0000

> <Gold.Chemscore.DEClash>
0.0111

> <Gold.Chemscore.DEInternal>
1.1752

> <Gold.Chemscore.Rot>
1.4731

> <Gold.Chemscore.Internal.Correction>
   9.000000E+99

> <Gold.Chemscore.Hbonds>
donor molecule, donor type, donor heavy atom, donor atom, acceptor molecule, acceptor atom, score
      P1  H  7997  8009       L1     8  0.07
      P1  H  7997  8010       L1     7  0.42
      P1  H 10752 10764       L1     6  0.88

> <Gold.Chemscore.Hbond.Weighted>
-4.9286

> <Gold.Chemscore.Metal.Weighted>
-0.0000

> <Gold.Chemscore.Lipo.Weighted>
-11.3982

> <Gold.Chemscore.Internal_Hbond.Weighted>
0.0000

> <Gold.Chemscore.DEClash.Weighted>
0.0111

> <Gold.Chemscore.DEInternal.Weighted>
1.1752

> <Gold.Chemscore.Rot.Weighted>
3.7712

> <Gold.Chemscore.Internal.Correction.Weighted>
   9.000000E+99

> <Gold.Protein.RotatedTorsions>
[ 6907 6896 6895 6894 ] final   40.03 input  -60.11 | X-H torsion
[ 7974 7965 7964 7962 ] final  152.48 input  175.53 | X-H torsion
[ 8008 7997 7996 7995 ] final  140.34 input   59.86 | X-H torsion
[ 10167 10162 10161 10158 ] final  140.77 input  -65.29 | X-H torsion
[ 10718 10713 10712 10709 ] final -115.44 input   66.30 | X-H torsion
[ 10763 10752 10751 10750 ] final   -5.06 input  -60.55 | X-H torsion
[ 11005 11000 10999 10996 ] final  -26.78 input  -57.11 | X-H torsion

> <Gold.Protein.ActiveResidues>
 VAL166  LYS551  ARG553  GLY616  TRP617  ASP618  TYR619  PRO620  LYS621  CYS622 
 ASP623  PHE694  ASN695  SER759  ASP760  ASP761  ALA762  ILE779  LEU786  VAL792 
 PHE793  MET794  SER795  GLU796  ALA797  LYS798  CYS799  TRP800  GLU811  SER814 

> <Gold.Protein.RotatedAtoms>
  152.1773  134.8784  160.0529 H   0  0  0  0  0  0  0  0  0  0  0  0  # atno 6907 bound_to 6896
  151.9721  133.3724  159.4083 H   0  0  0  0  0  0  0  0  0  0  0  0  # atno 6908 bound_to 6896
  150.6911  134.4052  159.5180 H   0  0  0  0  0  0  0  0  0  0  0  0  # atno 6909 bound_to 6896
  144.8219  139.6674  143.6096 H   0  0  0  0  0  0  0  0  0  0  0  0  # atno 7974 bound_to 7965
  156.2980  140.2344  156.4385 H   0  0  0  0  0  0  0  0  0  0  0  0  # atno 8008 bound_to 7997
  154.8207  140.0438  157.1429 H   0  0  0  0  0  0  0  0  0  0  0  0  # atno 8009 bound_to 7997
  154.9318  140.3017  155.5167 H   0  0  0  0  0  0  0  0  0  0  0  0  # atno 8010 bound_to 7997
  139.5039  144.6213  151.6044 H   0  0  0  0  0  0  0  0  0  0  0  0  # atno 10167 bound_to 10162
  156.0896  130.6081  150.8906 H   0  0  0  0  0  0  0  0  0  0  0  0  # atno 10718 bound_to 10713
  153.3934  135.7002  153.6478 H   0  0  0  0  0  0  0  0  0  0  0  0  # atno 10763 bound_to 10752
  153.5041  135.3646  155.2555 H   0  0  0  0  0  0  0  0  0  0  0  0  # atno 10764 bound_to 10752
  154.8704  135.4119  154.3255 H   0  0  0  0  0  0  0  0  0  0  0  0  # atno 10765 bound_to 10752
  140.9060  133.7492  156.0607 H   0  0  0  0  0  0  0  0  0  0  0  0  # atno 11005 bound_to 11000
  146.2525  139.6230  142.9417 LP  0  0  0  0  0  0  0  0  0  0  0  0  # atno 17320 bound_to 7965
  145.5085  141.0436  143.2501 LP  0  0  0  0  0  0  0  0  0  0  0  0  # atno 17321 bound_to 7965
  140.5916  143.9769  150.6328 LP  0  0  0  0  0  0  0  0  0  0  0  0  # atno 17342 bound_to 10162
  140.2952  143.3297  152.1025 LP  0  0  0  0  0  0  0  0  0  0  0  0  # atno 17343 bound_to 10162
  157.6041  131.0940  150.8910 LP  0  0  0  0  0  0  0  0  0  0  0  0  # atno 17370 bound_to 10713
  156.9061  130.5264  149.5281 LP  0  0  0  0  0  0  0  0  0  0  0  0  # atno 17371 bound_to 10713
  140.8170  134.3333  157.5394 LP  0  0  0  0  0  0  0  0  0  0  0  0  # atno 17394 bound_to 11000
  139.8749  134.9287  156.3458 LP  0  0  0  0  0  0  0  0  0  0  0  0  # atno 17395 bound_to 11000

$$$$
