AV-unprocessed.smi:1480|AV-procd|sdf|5986|dock6
  -GOLD-   22720 6 83D 1   1.00000     0.00000
 Structure written by MMmdl.
 37 38  0  0  0  0  0  0  0  0  1 V2000
  143.5334  132.7647  148.7711 C   0  0  0  0  0  0  0  0  0  0  0  0
  144.5088  132.8452  149.8598 N   0  0  0  0  0  0  0  0  0  0  0  0
  145.2695  131.6119  150.1064 C   0  0  0  0  0  0  0  0  0  0  0  0
  145.9634  131.5812  151.4742 C   0  0  0  0  0  0  0  0  0  0  0  0
  146.7157  132.8966  151.7130 C   0  0  2  0  0  0  0  0  0  0  0  0
  147.4660  132.8606  153.0525 C   0  0  0  0  0  0  0  0  0  0  0  0
  147.0177  133.4780  154.0186 O   0  0  0  0  0  0  0  0  0  0  0  0
  148.5945  132.1275  153.0709 N   0  0  0  0  0  0  0  0  0  0  0  0
  149.4983  131.9181  154.1447 C   0  0  0  0  0  0  0  0  0  0  0  0
  149.9995  132.9179  155.0317 C   0  0  0  0  0  0  0  0  0  0  0  0
  150.8226  132.2141  155.8637 C   0  0  0  0  0  0  0  0  0  0  0  0
  150.7844  130.8925  155.4666 N   0  0  0  0  0  0  0  0  0  0  0  0
  151.4909  129.7599  156.0384 C   0  0  0  0  0  0  0  0  0  0  0  0
  152.2019  128.9481  154.9547 C   0  0  0  0  0  0  0  0  0  0  0  0
  151.4340  128.3243  154.0575 N   0  0  0  0  0  0  0  0  0  0  0  0
  153.4291  128.8856  154.9277 O   0  0  0  0  0  0  0  0  0  0  0  0
  149.9674  130.7096  154.4055 N   0  0  0  0  0  0  0  0  0  0  0  0
  145.7235  134.0766  151.6678 C   0  0  0  0  0  0  0  0  0  0  0  0
  144.7210  134.0191  150.5028 C   0  0  0  0  0  0  0  0  0  0  0  0
  144.1148  135.0504  150.2110 O   0  0  0  0  0  0  0  0  0  0  0  0
  143.7919  133.4602  147.9714 H   0  0  0  0  0  0  0  0  0  0  0  0
  142.5345  133.0148  149.1313 H   0  0  0  0  0  0  0  0  0  0  0  0
  143.4851  131.7680  148.3313 H   0  0  0  0  0  0  0  0  0  0  0  0
  144.6154  130.7427  150.0230 H   0  0  0  0  0  0  0  0  0  0  0  0
  146.0162  131.5162  149.3169 H   0  0  0  0  0  0  0  0  0  0  0  0
  145.2160  131.4266  152.2545 H   0  0  0  0  0  0  0  0  0  0  0  0
  146.6447  130.7304  151.5219 H   0  0  0  0  0  0  0  0  0  0  0  0
  147.4434  133.0262  150.9093 H   0  0  0  0  0  0  0  0  0  0  0  0
  148.8391  131.6662  152.2068 H   0  0  0  0  0  0  0  0  0  0  0  0
  149.8017  133.9783  155.0673 H   0  0  0  0  0  0  0  0  0  0  0  0
  151.4262  132.5393  156.6984 H   0  0  0  0  0  0  0  0  0  0  0  0
  152.2094  130.1102  156.7815 H   0  0  0  0  0  0  0  0  0  0  0  0
  150.7715  129.1287  156.5617 H   0  0  0  0  0  0  0  0  0  0  0  0
  151.8598  127.7816  153.3199 H   0  0  0  0  0  0  0  0  0  0  0  0
  150.4290  128.4033  154.1169 H   0  0  0  0  0  0  0  0  0  0  0  0
  145.1375  134.1188  152.5872 H   0  0  0  0  0  0  0  0  0  0  0  0
  146.2737  135.0169  151.6112 H   0  0  0  0  0  0  0  0  0  0  0  0
  1  2  1  0  0  0  0
  1 21  1  0  0  0  0
  1 22  1  0  0  0  0
  1 23  1  0  0  0  0
  2 19  1  0  0  0  0
  2  3  1  0  0  0  0
  3  4  1  0  0  0  0
  3 24  1  0  0  0  0
  3 25  1  0  0  0  0
  4  5  1  0  0  0  0
  4 26  1  0  0  0  0
  4 27  1  0  0  0  0
  5  6  1  0  0  0  0
  5 18  1  0  0  0  0
  5 28  1  0  0  0  0
  6  7  2  0  0  0  0
  6  8  1  0  0  0  0
  8  9  1  0  0  0  0
  8 29  1  0  0  0  0
  9 17  2  0  0  0  0
  9 10  1  0  0  0  0
 10 11  2  0  0  0  0
 10 30  1  0  0  0  0
 11 12  1  0  0  0  0
 11 31  1  0  0  0  0
 12 13  1  0  0  0  0
 12 17  1  0  0  0  0
 13 14  1  0  0  0  0
 13 32  1  0  0  0  0
 13 33  1  0  0  0  0
 14 15  1  0  0  0  0
 14 16  2  0  0  0  0
 15 34  1  0  0  0  0
 15 35  1  0  0  0  0
 18 19  1  0  0  0  0
 18 36  1  0  0  0  0
 18 37  1  0  0  0  0
 19 20  2  0  0  0  0
M  END
> <s_m_source_file>
AV-unprocessed.smi

> <i_m_source_file_index>
1480

> <i_lp_mmshare_version>
43012

> <i_f3d_flags>
0

> <s_epik_input>
W0NIM11OMVtDSDJdW0NIMl1bQ0BIXShbQ0gyXUMxPU8pQyg9TylbTkhdYzJbY0hdW2NIXW4objIpW0NIMl1DKD1PKVtOSDJd

> <s_epik_cmdline>
J2VwaWtfcHl0aG9uJywgJy1waCcsICc3LjAnLCAnLXRuJywgJzgnLCAnLW1hJywgJzIwMCcsICctbWV0YWxfYmluZGluZycsICctaW1hZScsICc8aW5maWxlLm1hZT4nLCAnLW9tYWUnLCAnPG91dGZpbGUubWFlPic=

> <r_lp_tautomer_probability>
1

> <r_epik_Ionization_Penalty>
3.93272e-06

> <r_epik_Ionization_Penalty_Charging>
0

> <r_epik_Ionization_Penalty_Neutral>
3.93272e-06

> <r_epik_State_Penalty>
-0

> <r_epik_Charging_Adjusted_Penalty>
0

> <i_epik_Tot_Q>
0

> <i_epik_Tot_abs_Q>
0

> <r_epik_Metal_State_Penalty>
-0

> <b_epik_Metal_Only>
0

> <s_lp_Force_Field>
OPLS_2005

> <r_lp_Energy>
16.8293

> <b_lp_Chiralities_Consistent>
1

> <s_lp_Variant>
AV-unprocessed.smi:1480-2

> <Gold.Version>
5.8.1

> <Gold.Id.Protein>
6NUR|6NUR_protein|mol2

> <Gold.PLP.Fitness>
39.4161

> <Gold.PLP.PLP>
-35.8967

> <Gold.PLP.part.hbond>
-1.7868

> <Gold.PLP.part.metal>
0.0000

> <Gold.PLP.part.buried>
-5.9673

> <Gold.PLP.part.nonpolar>
-30.4919

> <Gold.PLP.part.repulsive>
0.5340

> <Gold.PLP.ligand.clash>
0.0000

> <Gold.PLP.ligand.torsion>
0.9537

> <Gold.PLP.Chemscore.Hbond>
1.8065

> <Gold.PLP.Chemscore.CHOScore>
0.0000

> <Gold.PLP.Chemscore.Metal>
0.0000

> <Gold.Chemscore.Hbonds>
donor molecule, donor type, donor heavy atom, donor atom, acceptor molecule, acceptor atom, score
      L1  H     8    29       P1 10747  0.89
      L1  H    15    34       P1 10737  0.86

> <Gold.PLP.Chemscore.Internal.Correction>
0.0072

> <Gold.Rescore>
     Score         DG    S(hbond)    S(metal)    S(lipo)     H(rot)  DE(clash)    DE(int)     intcor
     10.98     -13.71       1.86        0.00      61.58       2.03       0.37       2.36       ----

> <Gold.Chemscore.Fitness>
10.9798

> <Gold.Chemscore.DG>
-13.7087

> <Gold.Chemscore.ZeroCoef>
-5.4800

> <Gold.Chemscore.Hbond>
1.8601

> <Gold.Chemscore.Metal>
0.0000

> <Gold.Chemscore.Lipo>
61.5782

> <Gold.Chemscore.Internal_Hbond>
0.0000

> <Gold.Chemscore.DEClash>
0.3661

> <Gold.Chemscore.DEInternal>
2.3628

> <Gold.Chemscore.Rot>
2.0269

> <Gold.Chemscore.Internal.Correction>
   9.000000E+99

> <Gold.Chemscore.Hbonds>
donor molecule, donor type, donor heavy atom, donor atom, acceptor molecule, acceptor atom, score
      L1  H     8    29       P1 10747  0.75
      L1  H    15    34       P1 10737  0.83

> <Gold.Chemscore.Hbond.Weighted>
-6.2128

> <Gold.Chemscore.Metal.Weighted>
-0.0000

> <Gold.Chemscore.Lipo.Weighted>
-7.2046

> <Gold.Chemscore.Internal_Hbond.Weighted>
0.0000

> <Gold.Chemscore.DEClash.Weighted>
0.3661

> <Gold.Chemscore.DEInternal.Weighted>
2.3628

> <Gold.Chemscore.Rot.Weighted>
5.1888

> <Gold.Chemscore.Internal.Correction.Weighted>
   9.000000E+99

> <Gold.Protein.RotatedTorsions>
[ 6907 6896 6895 6894 ] final   37.35 input  -60.11 | X-H torsion
[ 7974 7965 7964 7962 ] final   58.90 input  175.53 | X-H torsion
[ 8008 7997 7996 7995 ] final   54.27 input   59.86 | X-H torsion
[ 10167 10162 10161 10158 ] final   -5.04 input  -65.29 | X-H torsion
[ 10718 10713 10712 10709 ] final -164.84 input   66.30 | X-H torsion
[ 10763 10752 10751 10750 ] final  146.91 input  -60.55 | X-H torsion
[ 11005 11000 10999 10996 ] final -136.78 input  -57.11 | X-H torsion

> <Gold.Protein.ActiveResidues>
 VAL166  LYS551  ARG553  GLY616  TRP617  ASP618  TYR619  PRO620  LYS621  CYS622 
 ASP623  PHE694  ASN695  SER759  ASP760  ASP761  ALA762  ILE779  LEU786  VAL792 
 PHE793  MET794  SER795  GLU796  ALA797  LYS798  CYS799  TRP800  GLU811  SER814 

> <Gold.Protein.RotatedAtoms>
  152.1420  134.9055  160.0552 H   0  0  0  0  0  0  0  0  0  0  0  0  # atno 6907 bound_to 6896
  152.0119  133.3860  159.4231 H   0  0  0  0  0  0  0  0  0  0  0  0  # atno 6908 bound_to 6896
  150.6866  134.3642  159.5007 H   0  0  0  0  0  0  0  0  0  0  0  0  # atno 6909 bound_to 6896
  145.9131  139.3669  143.0523 H   0  0  0  0  0  0  0  0  0  0  0  0  # atno 7974 bound_to 7965
  155.4819  140.3468  155.4341 H   0  0  0  0  0  0  0  0  0  0  0  0  # atno 8008 bound_to 7997
  156.1033  140.1441  156.9466 H   0  0  0  0  0  0  0  0  0  0  0  0  # atno 8009 bound_to 7997
  154.4708  140.0901  156.7117 H   0  0  0  0  0  0  0  0  0  0  0  0  # atno 8010 bound_to 7997
  140.6949  143.6354  150.8485 H   0  0  0  0  0  0  0  0  0  0  0  0  # atno 10167 bound_to 10162
  156.6449  130.8984  151.3003 H   0  0  0  0  0  0  0  0  0  0  0  0  # atno 10718 bound_to 10713
  154.0297  135.2899  155.3370 H   0  0  0  0  0  0  0  0  0  0  0  0  # atno 10763 bound_to 10752
  154.6996  135.5194  153.8510 H   0  0  0  0  0  0  0  0  0  0  0  0  # atno 10764 bound_to 10752
  153.0645  135.6626  154.0511 H   0  0  0  0  0  0  0  0  0  0  0  0  # atno 10765 bound_to 10752
  140.8773  134.1976  157.4614 H   0  0  0  0  0  0  0  0  0  0  0  0  # atno 11005 bound_to 11000
  145.8646  140.9455  143.0682 LP  0  0  0  0  0  0  0  0  0  0  0  0  # atno 17320 bound_to 7965
  144.6745  140.0575  143.7477 LP  0  0  0  0  0  0  0  0  0  0  0  0  # atno 17321 bound_to 7965
  140.0070  143.5683  152.2853 LP  0  0  0  0  0  0  0  0  0  0  0  0  # atno 17342 bound_to 10162
  139.6393  144.7653  151.2373 LP  0  0  0  0  0  0  0  0  0  0  0  0  # atno 17343 bound_to 10162
  157.7159  130.9497  150.1255 LP  0  0  0  0  0  0  0  0  0  0  0  0  # atno 17370 bound_to 10713
  156.2130  130.3668  149.8647 LP  0  0  0  0  0  0  0  0  0  0  0  0  # atno 17371 bound_to 10713
  139.8716  134.9801  156.5064 LP  0  0  0  0  0  0  0  0  0  0  0  0  # atno 17394 bound_to 11000
  140.8503  133.8137  155.9162 LP  0  0  0  0  0  0  0  0  0  0  0  0  # atno 17395 bound_to 11000

$$$$
