AV-unprocessed.smi:199|AV-procd|sdf|1563|dock3
  -GOLD-   2262019433D 1   1.00000     0.00000
 Structure written by MMmdl.
 51 55  0  0  0  0  0  0  0  0  1 V2000
  147.1991  132.9235  161.8953 C   0  0  0  0  0  0  0  0  0  0  0  0
  146.6941  134.3286  162.2587 C   0  0  1  0  0  0  0  0  0  0  0  0
  147.4097  134.7601  163.4137 O   0  0  0  0  0  0  0  0  0  0  0  0
  147.5406  136.1700  163.3722 C   0  0  0  0  0  0  0  0  0  0  0  0
  147.8258  136.4273  161.9010 C   0  0  0  0  0  0  0  0  0  0  0  0
  146.8979  135.4434  161.1935 C   0  0  2  0  0  0  0  0  0  0  0  0
  145.6484  136.0866  161.0019 O   0  0  0  0  0  0  0  0  0  0  0  0
  147.4177  134.9866  159.8045 C   0  0  0  0  0  0  0  0  0  0  0  0
  147.5847  136.0824  158.8614 N   0  0  0  0  0  0  0  0  0  0  0  0
  146.6174  136.6193  158.0441 C   0  0  0  0  0  0  0  0  0  0  0  0
  147.0156  137.6025  157.2855 N   0  0  0  0  0  0  0  0  0  0  0  0
  148.3611  137.7616  157.5987 C   0  0  0  0  0  0  0  0  0  0  0  0
  149.3971  138.6389  157.1592 C   0  0  0  0  0  0  0  0  0  0  0  0
  149.2403  139.6179  156.2252 N   0  0  0  0  0  0  0  0  0  0  0  0
  150.2847  140.5942  155.9595 C   0  0  1  0  0  0  0  0  0  0  0  0
  151.3414  139.7977  155.1682 C   0  0  0  0  0  0  0  0  0  0  0  0
  150.4532  138.8321  154.3658 C   0  0  0  0  0  0  0  0  0  0  0  0
  149.0435  139.2663  154.8238 C   0  0  2  0  0  0  0  0  0  0  0  0
  148.7089  140.6242  154.1686 C   0  0  1  0  0  0  0  0  0  0  0  0
  147.2053  140.9721  154.1252 C   0  0  0  0  0  0  0  0  0  0  0  0
  146.4833  140.1706  153.2116 O   0  0  0  0  0  0  0  0  0  0  0  0
  149.5736  141.5797  155.0146 C   0  0  0  0  0  0  0  0  0  0  0  0
  150.6322  138.4568  157.6982 N   0  0  0  0  0  0  0  0  0  0  0  0
  150.8439  137.5072  158.6124 C   0  0  0  0  0  0  0  0  0  0  0  0
  149.9757  136.6338  159.1218 N   0  0  0  0  0  0  0  0  0  0  0  0
  148.7354  136.7985  158.5810 C   0  0  0  0  0  0  0  0  0  0  0  0
  146.6799  132.5264  161.0231 H   0  0  0  0  0  0  0  0  0  0  0  0
  147.0280  132.2299  162.7188 H   0  0  0  0  0  0  0  0  0  0  0  0
  148.2690  132.9236  161.6867 H   0  0  0  0  0  0  0  0  0  0  0  0
  145.6403  134.2532  162.5338 H   0  0  0  0  0  0  0  0  0  0  0  0
  146.6057  136.6398  163.6813 H   0  0  0  0  0  0  0  0  0  0  0  0
  148.3399  136.5205  164.0255 H   0  0  0  0  0  0  0  0  0  0  0  0
  147.6765  137.4672  161.6067 H   0  0  0  0  0  0  0  0  0  0  0  0
  148.8667  136.1709  161.7019 H   0  0  0  0  0  0  0  0  0  0  0  0
  145.1075  135.9214  161.7588 H   0  0  0  0  0  0  0  0  0  0  0  0
  148.3802  134.4839  159.9020 H   0  0  0  0  0  0  0  0  0  0  0  0
  146.7342  134.2611  159.3615 H   0  0  0  0  0  0  0  0  0  0  0  0
  145.5989  136.2596  158.0320 H   0  0  0  0  0  0  0  0  0  0  0  0
  150.6901  141.1041  156.8310 H   0  0  0  0  0  0  0  0  0  0  0  0
  151.9579  140.4351  154.5335 H   0  0  0  0  0  0  0  0  0  0  0  0
  152.0014  139.2464  155.8393 H   0  0  0  0  0  0  0  0  0  0  0  0
  150.5974  138.9166  153.2882 H   0  0  0  0  0  0  0  0  0  0  0  0
  150.6571  137.7990  154.6503 H   0  0  0  0  0  0  0  0  0  0  0  0
  148.2795  138.5110  154.6363 H   0  0  0  0  0  0  0  0  0  0  0  0
  149.0639  140.6288  153.1370 H   0  0  0  0  0  0  0  0  0  0  0  0
  146.7653  140.8521  155.1156 H   0  0  0  0  0  0  0  0  0  0  0  0
  147.0737  142.0175  153.8450 H   0  0  0  0  0  0  0  0  0  0  0  0
  145.5704  140.4111  153.2556 H   0  0  0  0  0  0  0  0  0  0  0  0
  148.9597  142.2785  155.5841 H   0  0  0  0  0  0  0  0  0  0  0  0
  150.2713  142.1629  154.4128 H   0  0  0  0  0  0  0  0  0  0  0  0
  151.8533  137.4376  158.9897 H   0  0  0  0  0  0  0  0  0  0  0  0
  1  2  1  0  0  0  0
  1 27  1  0  0  0  0
  1 28  1  0  0  0  0
  1 29  1  0  0  0  0
  2  6  1  0  0  0  0
  2  3  1  0  0  0  0
  2 30  1  0  0  0  0
  3  4  1  0  0  0  0
  4  5  1  0  0  0  0
  4 31  1  0  0  0  0
  4 32  1  0  0  0  0
  5  6  1  0  0  0  0
  5 33  1  0  0  0  0
  5 34  1  0  0  0  0
  6  7  1  0  0  0  0
  6  8  1  0  0  0  0
  7 35  1  0  0  0  0
  8  9  1  0  0  0  0
  8 36  1  0  0  0  0
  8 37  1  0  0  0  0
  9 26  1  0  0  0  0
  9 10  1  0  0  0  0
 10 11  2  0  0  0  0
 10 38  1  0  0  0  0
 11 12  1  0  0  0  0
 12 26  2  0  0  0  0
 12 13  1  0  0  0  0
 13 14  1  0  0  0  0
 13 23  2  0  0  0  0
 14 18  1  0  0  0  0
 14 15  1  0  0  0  0
 15 22  1  0  0  0  0
 15 16  1  0  0  0  0
 15 39  1  0  0  0  0
 16 17  1  0  0  0  0
 16 40  1  0  0  0  0
 16 41  1  0  0  0  0
 17 18  1  0  0  0  0
 17 42  1  0  0  0  0
 17 43  1  0  0  0  0
 18 19  1  0  0  0  0
 18 44  1  0  0  0  0
 19 20  1  0  0  0  0
 19 22  1  0  0  0  0
 19 45  1  0  0  0  0
 20 21  1  0  0  0  0
 20 46  1  0  0  0  0
 20 47  1  0  0  0  0
 21 48  1  0  0  0  0
 22 49  1  0  0  0  0
 22 50  1  0  0  0  0
 23 24  1  0  0  0  0
 24 25  2  0  0  0  0
 24 51  1  0  0  0  0
 25 26  1  0  0  0  0
M  END
> <s_m_source_file>
AV-unprocessed.smi

> <i_m_source_file_index>
199

> <i_lp_mmshare_version>
43012

> <i_f3d_flags>
0

> <s_epik_input>
W0NIMl0xW0NIMl1PW0NAQEhdKFtDSDNdKVtDQEBdMShbT0hdKVtDSDJdbihbY0hdbjIpYyhjMjMpbltjSF1uYzNOKFtDQEBIXTQ1KVtDQEhdKFtDSDJdW0NIMl00KVtDQEhdKFtDSDJdNSlbQ0gyXVtPSF0=

> <s_epik_cmdline>
J2VwaWtfcHl0aG9uJywgJy1waCcsICc3LjAnLCAnLXRuJywgJzgnLCAnLW1hJywgJzIwMCcsICctbWV0YWxfYmluZGluZycsICctaW1hZScsICc8aW5maWxlLm1hZT4nLCAnLW9tYWUnLCAnPG91dGZpbGUubWFlPic=

> <r_lp_tautomer_probability>
1

> <r_epik_Ionization_Penalty>
0.00583903

> <r_epik_Ionization_Penalty_Charging>
0

> <r_epik_Ionization_Penalty_Neutral>
0.00583903

> <r_epik_State_Penalty>
-0

> <r_epik_Charging_Adjusted_Penalty>
0

> <i_epik_Tot_Q>
0

> <i_epik_Tot_abs_Q>
0

> <r_epik_Metal_State_Penalty>
-0

> <b_epik_Metal_Only>
0

> <s_lp_Force_Field>
OPLS_2005

> <r_lp_Energy>
85.2134

> <b_lp_Chiralities_Consistent>
1

> <s_lp_Variant>
AV-unprocessed.smi:199-4

> <Gold.Version>
5.8.1

> <Gold.Id.Protein>
6NUR|6NUR_protein|mol2

> <Gold.PLP.Fitness>
46.0384

> <Gold.PLP.PLP>
-41.2126

> <Gold.PLP.part.hbond>
-3.5633

> <Gold.PLP.part.metal>
0.0000

> <Gold.PLP.part.buried>
-3.2594

> <Gold.PLP.part.nonpolar>
-35.2458

> <Gold.PLP.part.repulsive>
0.0260

> <Gold.PLP.ligand.clash>
0.0000

> <Gold.PLP.ligand.torsion>
0.5977

> <Gold.PLP.Chemscore.Hbond>
1.9920

> <Gold.PLP.Chemscore.CHOScore>
0.0000

> <Gold.PLP.Chemscore.Metal>
0.0000

> <Gold.Chemscore.Hbonds>
donor molecule, donor type, donor heavy atom, donor atom, acceptor molecule, acceptor atom, score
      L1  H    21    48       P1 10175  0.98
      P1  H  6896  6909       L1    25  0.98

> <Gold.PLP.Chemscore.Internal.Correction>
0.0452

> <Gold.Rescore>
     Score         DG    S(hbond)    S(metal)    S(lipo)     H(rot)  DE(clash)    DE(int)     intcor
     12.34     -15.32       1.90        0.00      97.15       3.07       1.26       1.73       ----

> <Gold.Chemscore.Fitness>
12.3384

> <Gold.Chemscore.DG>
-15.3223

> <Gold.Chemscore.ZeroCoef>
-5.4800

> <Gold.Chemscore.Hbond>
1.8989

> <Gold.Chemscore.Metal>
0.0000

> <Gold.Chemscore.Lipo>
97.1510

> <Gold.Chemscore.Internal_Hbond>
0.0000

> <Gold.Chemscore.DEClash>
1.2582

> <Gold.Chemscore.DEInternal>
1.7257

> <Gold.Chemscore.Rot>
3.0729

> <Gold.Chemscore.Internal.Correction>
   9.000000E+99

> <Gold.Chemscore.Hbonds>
donor molecule, donor type, donor heavy atom, donor atom, acceptor molecule, acceptor atom, score
      L1  H    21    48       P1 10175  0.85
      P1  H  6896  6909       L1    25  0.78

> <Gold.Chemscore.Hbond.Weighted>
-6.3423

> <Gold.Chemscore.Metal.Weighted>
-0.0000

> <Gold.Chemscore.Lipo.Weighted>
-11.3667

> <Gold.Chemscore.Internal_Hbond.Weighted>
0.0000

> <Gold.Chemscore.DEClash.Weighted>
1.2582

> <Gold.Chemscore.DEInternal.Weighted>
1.7257

> <Gold.Chemscore.Rot.Weighted>
7.8667

> <Gold.Chemscore.Internal.Correction.Weighted>
   9.000000E+99

> <Gold.Protein.RotatedTorsions>
[ 6907 6896 6895 6894 ] final   71.67 input  -60.11 | X-H torsion
[ 7974 7965 7964 7962 ] final  130.45 input  175.53 | X-H torsion
[ 8008 7997 7996 7995 ] final   72.39 input   59.86 | X-H torsion
[ 10167 10162 10161 10158 ] final -119.90 input  -65.29 | X-H torsion
[ 10718 10713 10712 10709 ] final -126.13 input   66.30 | X-H torsion
[ 10763 10752 10751 10750 ] final   52.70 input  -60.55 | X-H torsion
[ 11005 11000 10999 10996 ] final -107.03 input  -57.11 | X-H torsion

> <Gold.Protein.ActiveResidues>
 VAL166  LYS551  ARG553  GLY616  TRP617  ASP618  TYR619  PRO620  LYS621  CYS622 
 ASP623  PHE694  ASN695  SER759  ASP760  ASP761  ALA762  ILE779  LEU786  VAL792 
 PHE793  MET794  SER795  GLU796  ALA797  LYS798  CYS799  TRP800  GLU811  SER814 

> <Gold.Protein.RotatedAtoms>
  152.4823  134.4686  159.9627 H   0  0  0  0  0  0  0  0  0  0  0  0  # atno 6907 bound_to 6896
  151.4689  133.3568  159.2828 H   0  0  0  0  0  0  0  0  0  0  0  0  # atno 6908 bound_to 6896
  150.8906  134.8334  159.7351 H   0  0  0  0  0  0  0  0  0  0  0  0  # atno 6909 bound_to 6896
  145.0178  139.4160  143.5212 H   0  0  0  0  0  0  0  0  0  0  0  0  # atno 7974 bound_to 7965
  155.7682  140.3485  155.5233 H   0  0  0  0  0  0  0  0  0  0  0  0  # atno 8008 bound_to 7997
  155.8848  140.1008  157.1481 H   0  0  0  0  0  0  0  0  0  0  0  0  # atno 8009 bound_to 7997
  154.4028  140.1315  156.4229 H   0  0  0  0  0  0  0  0  0  0  0  0  # atno 8010 bound_to 7997
  140.0416  143.5148  152.2127 H   0  0  0  0  0  0  0  0  0  0  0  0  # atno 10167 bound_to 10162
  156.1738  130.6685  151.0215 H   0  0  0  0  0  0  0  0  0  0  0  0  # atno 10718 bound_to 10713
  152.9790  135.5804  154.4621 H   0  0  0  0  0  0  0  0  0  0  0  0  # atno 10763 bound_to 10752
  154.4196  135.2771  155.1986 H   0  0  0  0  0  0  0  0  0  0  0  0  # atno 10764 bound_to 10752
  154.3741  135.6161  153.5809 H   0  0  0  0  0  0  0  0  0  0  0  0  # atno 10765 bound_to 10752
  141.0975  133.8945  157.1927 H   0  0  0  0  0  0  0  0  0  0  0  0  # atno 11005 bound_to 11000
  146.3480  139.9659  142.8712 LP  0  0  0  0  0  0  0  0  0  0  0  0  # atno 17320 bound_to 7965
  145.1936  140.9823  143.4196 LP  0  0  0  0  0  0  0  0  0  0  0  0  # atno 17321 bound_to 7965
  139.6010  144.7582  151.3172 LP  0  0  0  0  0  0  0  0  0  0  0  0  # atno 17342 bound_to 10162
  140.7257  143.7009  150.7846 LP  0  0  0  0  0  0  0  0  0  0  0  0  # atno 17343 bound_to 10162
  157.6821  131.0835  150.7342 LP  0  0  0  0  0  0  0  0  0  0  0  0  # atno 17370 bound_to 10713
  156.7400  130.4736  149.5480 LP  0  0  0  0  0  0  0  0  0  0  0  0  # atno 17371 bound_to 10713
  139.9816  135.0096  156.9762 LP  0  0  0  0  0  0  0  0  0  0  0  0  # atno 17394 bound_to 11000
  140.5104  134.1007  155.7269 LP  0  0  0  0  0  0  0  0  0  0  0  0  # atno 17395 bound_to 11000

$$$$
