AV-unprocessed.smi:697|AV-procd|sdf|3390|dock5
  -GOLD-   22720 0373D 1   1.00000     0.00000
 Structure written by MMmdl.
 44 45  0  0  0  0  0  0  0  0  1 V2000
  152.4887  143.8476  161.9199 C   0  0  0  0  0  0  0  0  0  0  0  0
  151.1953  143.9425  161.3358 O   0  0  0  0  0  0  0  0  0  0  0  0
  151.0900  144.6080  160.0694 C   0  0  2  0  0  0  0  0  0  0  0  0
  151.8832  145.9205  160.0851 C   0  0  0  0  0  0  0  0  0  0  0  0
  149.6259  144.6164  159.5885 C   0  0  0  0  0  0  0  0  0  0  0  0
  149.8706  143.2054  159.0572 C   0  0  1  0  0  0  0  0  0  0  0  0
  149.1999  142.9526  157.7859 N   0  0  0  0  0  0  0  0  0  0  0  0
  148.8698  141.7344  157.3362 C   0  0  0  0  0  0  0  0  0  0  0  0
  149.0807  140.7010  157.9708 O   0  0  0  0  0  0  0  0  0  0  0  0
  148.3192  141.8059  156.1106 N   0  0  0  0  0  0  0  0  0  0  0  0
  147.8398  140.7665  155.2964 C   0  0  0  0  0  0  0  0  0  0  0  0
  146.7394  140.0167  155.5669 C   0  0  0  0  0  0  0  0  0  0  0  0
  146.2918  138.9559  154.6797 C   0  0  0  0  0  0  0  0  0  0  0  0
  145.0289  138.1580  154.9661 C   0  0  0  0  0  0  0  0  0  0  0  0
  144.6223  137.4889  153.8863 F   0  0  0  0  0  0  0  0  0  0  0  0
  145.2613  137.2762  155.9375 F   0  0  0  0  0  0  0  0  0  0  0  0
  144.0375  138.9575  155.3602 F   0  0  0  0  0  0  0  0  0  0  0  0
  147.0080  138.7723  153.5551 C   0  0  0  0  0  0  0  0  0  0  0  0
  148.1388  139.5402  153.2688 N   0  0  0  0  0  0  0  0  0  0  0  0
  148.6049  140.5317  154.0607 C   0  0  0  0  0  0  0  0  0  0  0  0
  149.6053  141.1696  153.7339 O   0  0  0  0  0  0  0  0  0  0  0  0
  151.3741  143.5650  158.9391 C   0  0  0  0  0  0  0  0  0  0  0  0
  151.8438  144.1440  157.5907 C   0  0  0  0  0  0  0  0  0  0  0  0
  152.3594  142.4391  159.2723 C   0  0  0  0  0  0  0  0  0  0  0  0
  148.6274  139.3347  152.4091 H   0  0  0  0  0  0  0  0  0  0  0  0
  152.3923  143.4566  162.9327 H   0  0  0  0  0  0  0  0  0  0  0  0
  152.9873  144.8140  161.9855 H   0  0  0  0  0  0  0  0  0  0  0  0
  153.1295  143.1581  161.3705 H   0  0  0  0  0  0  0  0  0  0  0  0
  151.9046  146.3933  159.1039 H   0  0  0  0  0  0  0  0  0  0  0  0
  152.9163  145.7545  160.3911 H   0  0  0  0  0  0  0  0  0  0  0  0
  151.4456  146.6530  160.7628 H   0  0  0  0  0  0  0  0  0  0  0  0
  148.8651  144.6763  160.3660 H   0  0  0  0  0  0  0  0  0  0  0  0
  149.4422  145.3536  158.8050 H   0  0  0  0  0  0  0  0  0  0  0  0
  149.6727  142.4495  159.8208 H   0  0  0  0  0  0  0  0  0  0  0  0
  148.9971  143.7527  157.2048 H   0  0  0  0  0  0  0  0  0  0  0  0
  148.2877  142.7211  155.6852 H   0  0  0  0  0  0  0  0  0  0  0  0
  146.1512  140.1979  156.4520 H   0  0  0  0  0  0  0  0  0  0  0  0
  146.7737  138.0395  152.7969 H   0  0  0  0  0  0  0  0  0  0  0  0
  151.8465  143.3865  156.8060 H   0  0  0  0  0  0  0  0  0  0  0  0
  152.8577  144.5397  157.6583 H   0  0  0  0  0  0  0  0  0  0  0  0
  151.2046  144.9567  157.2452 H   0  0  0  0  0  0  0  0  0  0  0  0
  152.4323  141.7169  158.4584 H   0  0  0  0  0  0  0  0  0  0  0  0
  152.0572  141.8796  160.1576 H   0  0  0  0  0  0  0  0  0  0  0  0
  153.3603  142.8281  159.4600 H   0  0  0  0  0  0  0  0  0  0  0  0
  1  2  1  0  0  0  0
  1 26  1  0  0  0  0
  1 27  1  0  0  0  0
  1 28  1  0  0  0  0
  2  3  1  0  0  0  0
  3 22  1  0  0  0  0
  3  4  1  0  0  0  0
  3  5  1  0  0  0  0
  4 29  1  0  0  0  0
  4 30  1  0  0  0  0
  4 31  1  0  0  0  0
  5  6  1  0  0  0  0
  5 32  1  0  0  0  0
  5 33  1  0  0  0  0
  6  7  1  0  0  0  0
  6 22  1  0  0  0  0
  6 34  1  0  0  0  0
  7  8  1  0  0  0  0
  7 35  1  0  0  0  0
  8  9  2  0  0  0  0
  8 10  1  0  0  0  0
 10 11  1  0  0  0  0
 10 36  1  0  0  0  0
 11 20  1  0  0  0  0
 11 12  2  0  0  0  0
 12 13  1  0  0  0  0
 12 37  1  0  0  0  0
 13 14  1  0  0  0  0
 13 18  2  0  0  0  0
 14 15  1  0  0  0  0
 14 16  1  0  0  0  0
 14 17  1  0  0  0  0
 18 19  1  0  0  0  0
 18 38  1  0  0  0  0
 19 25  1  0  0  0  0
 19 20  1  0  0  0  0
 20 21  2  0  0  0  0
 22 23  1  0  0  0  0
 22 24  1  0  0  0  0
 23 39  1  0  0  0  0
 23 40  1  0  0  0  0
 23 41  1  0  0  0  0
 24 42  1  0  0  0  0
 24 43  1  0  0  0  0
 24 44  1  0  0  0  0
M  END
> <s_m_source_file>
AV-unprocessed.smi

> <i_m_source_file_index>
697

> <i_lp_mmshare_version>
43012

> <i_f3d_flags>
0

> <s_epik_input>
W0NIM11PW0NAQF0xKFtDSDNdKVtDSDJdW0NASF0oQzEoW0NIM10pW0NIM10pW05IXUMoPU8pW05IXWMyW2NIXWMoQyhGKShGKUYpW2NIXVtuSF1jMj1P

> <s_epik_cmdline>
J2VwaWtfcHl0aG9uJywgJy1waCcsICc3LjAnLCAnLXRuJywgJzgnLCAnLW1hJywgJzIwMCcsICctbWV0YWxfYmluZGluZycsICctaW1hZScsICc8aW5maWxlLm1hZT4nLCAnLW9tYWUnLCAnPG91dGZpbGUubWFlPic=

> <r_lp_tautomer_probability>
1

> <r_epik_Ionization_Penalty>
0.0036482

> <r_epik_Ionization_Penalty_Charging>
0.00362828

> <r_epik_Ionization_Penalty_Neutral>
1.99208e-05

> <r_epik_State_Penalty>
-0

> <r_epik_Charging_Adjusted_Penalty>
0.00362828

> <i_epik_Tot_Q>
0

> <i_epik_Tot_abs_Q>
0

> <r_epik_Metal_State_Penalty>
0.369362

> <b_epik_Metal_Only>
0

> <s_lp_Force_Field>
OPLS_2005

> <r_lp_Energy>
34.8139

> <b_lp_Chiralities_Consistent>
1

> <s_lp_Variant>
AV-unprocessed.smi:697-2

> <Gold.Version>
5.8.1

> <Gold.Id.Protein>
6NUR|6NUR_protein|mol2

> <Gold.PLP.Fitness>
44.1942

> <Gold.PLP.PLP>
-35.6271

> <Gold.PLP.part.hbond>
-5.8734

> <Gold.PLP.part.metal>
0.0000

> <Gold.PLP.part.buried>
-2.2882

> <Gold.PLP.part.nonpolar>
-28.8991

> <Gold.PLP.part.repulsive>
2.6514

> <Gold.PLP.ligand.clash>
0.7568

> <Gold.PLP.ligand.torsion>
1.6207

> <Gold.PLP.Chemscore.Hbond>
4.0541

> <Gold.PLP.Chemscore.CHOScore>
0.0000

> <Gold.PLP.Chemscore.Metal>
0.0000

> <Gold.Chemscore.Hbonds>
donor molecule, donor type, donor heavy atom, donor atom, acceptor molecule, acceptor atom, score
      L1  H     7    35       P1  8028  1.00
      L1  H    10    36       P1  8028  0.89
      L1  H    19    25       P1  7957  0.88
      P1  H  7989  7998       L1    21  0.27
      P1  H  8011  8017       L1    21  0.91

> <Gold.PLP.Chemscore.Internal.Correction>
0.4029

> <Gold.Rescore>
     Score         DG    S(hbond)    S(metal)    S(lipo)     H(rot)  DE(clash)    DE(int)     intcor
     21.48     -25.19       3.56        0.00      95.53       1.31       2.41       1.30       ----

> <Gold.Chemscore.Fitness>
21.4764

> <Gold.Chemscore.DG>
-25.1928

> <Gold.Chemscore.ZeroCoef>
-5.4800

> <Gold.Chemscore.Hbond>
3.5568

> <Gold.Chemscore.Metal>
0.0000

> <Gold.Chemscore.Lipo>
95.5312

> <Gold.Chemscore.Internal_Hbond>
0.0000

> <Gold.Chemscore.DEClash>
2.4122

> <Gold.Chemscore.DEInternal>
1.3043

> <Gold.Chemscore.Rot>
1.3062

> <Gold.Chemscore.Internal.Correction>
   9.000000E+99

> <Gold.Chemscore.Hbonds>
donor molecule, donor type, donor heavy atom, donor atom, acceptor molecule, acceptor atom, score
      L1  H     7    35       P1  8028  0.25
      L1  H    10    36       P1  8028  0.81
      L1  H    19    25       P1  7957  0.87
      P1  H  7989  7998       L1    21  0.26
      P1  H  8011  8017       L1    21  0.88

> <Gold.Chemscore.Hbond.Weighted>
-11.8797

> <Gold.Chemscore.Metal.Weighted>
-0.0000

> <Gold.Chemscore.Lipo.Weighted>
-11.1772

> <Gold.Chemscore.Internal_Hbond.Weighted>
0.0000

> <Gold.Chemscore.DEClash.Weighted>
2.4122

> <Gold.Chemscore.DEInternal.Weighted>
1.3043

> <Gold.Chemscore.Rot.Weighted>
3.3440

> <Gold.Chemscore.Internal.Correction.Weighted>
   9.000000E+99

> <Gold.Protein.RotatedTorsions>
[ 6907 6896 6895 6894 ] final   62.68 input  -60.11 | X-H torsion
[ 7974 7965 7964 7962 ] final  -78.98 input  175.53 | X-H torsion
[ 8008 7997 7996 7995 ] final -133.37 input   59.86 | X-H torsion
[ 10167 10162 10161 10158 ] final  -49.08 input  -65.29 | X-H torsion
[ 10718 10713 10712 10709 ] final  -78.81 input   66.30 | X-H torsion
[ 10763 10752 10751 10750 ] final  -50.28 input  -60.55 | X-H torsion
[ 11005 11000 10999 10996 ] final -100.25 input  -57.11 | X-H torsion

> <Gold.Protein.ActiveResidues>
 VAL166  LYS551  ARG553  GLY616  TRP617  ASP618  TYR619  PRO620  LYS621  CYS622 
 ASP623  PHE694  ASN695  SER759  ASP760  ASP761  ALA762  ILE779  LEU786  VAL792 
 PHE793  MET794  SER795  GLU796  ALA797  LYS798  CYS799  TRP800  GLU811  SER814 

> <Gold.Protein.RotatedAtoms>
  152.4192  134.5986  159.9993 H   0  0  0  0  0  0  0  0  0  0  0  0  # atno 6907 bound_to 6896
  151.6140  133.3339  159.3081 H   0  0  0  0  0  0  0  0  0  0  0  0  # atno 6908 bound_to 6896
  150.8080  134.7256  159.6728 H   0  0  0  0  0  0  0  0  0  0  0  0  # atno 6909 bound_to 6896
  145.5793  140.9451  143.1353 H   0  0  0  0  0  0  0  0  0  0  0  0  # atno 7974 bound_to 7965
  155.3443  140.0474  157.3045 H   0  0  0  0  0  0  0  0  0  0  0  0  # atno 8008 bound_to 7997
  154.5260  140.2241  155.8853 H   0  0  0  0  0  0  0  0  0  0  0  0  # atno 8009 bound_to 7997
  156.1740  140.3089  155.9031 H   0  0  0  0  0  0  0  0  0  0  0  0  # atno 8010 bound_to 7997
  140.6701  143.2712  151.4164 H   0  0  0  0  0  0  0  0  0  0  0  0  # atno 10167 bound_to 10162
  156.0108  130.4528  150.3552 H   0  0  0  0  0  0  0  0  0  0  0  0  # atno 10718 bound_to 10713
  154.1078  135.6553  153.4879 H   0  0  0  0  0  0  0  0  0  0  0  0  # atno 10763 bound_to 10752
  153.0266  135.5240  154.7222 H   0  0  0  0  0  0  0  0  0  0  0  0  # atno 10764 bound_to 10752
  154.6393  135.2986  155.0092 H   0  0  0  0  0  0  0  0  0  0  0  0  # atno 10765 bound_to 10752
  141.1278  133.8385  157.1078 H   0  0  0  0  0  0  0  0  0  0  0  0  # atno 11005 bound_to 11000
  144.7401  139.7472  143.7314 LP  0  0  0  0  0  0  0  0  0  0  0  0  # atno 17320 bound_to 7965
  146.1728  139.4886  142.9916 LP  0  0  0  0  0  0  0  0  0  0  0  0  # atno 17321 bound_to 7965
  139.5966  144.1384  152.2151 LP  0  0  0  0  0  0  0  0  0  0  0  0  # atno 17342 bound_to 10162
  140.0755  144.5744  150.7160 LP  0  0  0  0  0  0  0  0  0  0  0  0  # atno 17343 bound_to 10162
  157.1643  131.0353  151.2826 LP  0  0  0  0  0  0  0  0  0  0  0  0  # atno 17370 bound_to 10713
  157.4284  130.7476  149.6970 LP  0  0  0  0  0  0  0  0  0  0  0  0  # atno 17371 bound_to 10713
  140.0293  134.9909  157.0749 LP  0  0  0  0  0  0  0  0  0  0  0  0  # atno 17394 bound_to 11000
  140.4311  134.1780  155.7168 LP  0  0  0  0  0  0  0  0  0  0  0  0  # atno 17395 bound_to 11000

$$$$
