AV-unprocessed.smi:3069|AV-procd|sdf|11710|dock8
  -GOLD-   2272017113D 1   1.00000     0.00000
 Structure written by MMmdl.
 39 40  0  0  0  0  0  0  0  0  1 V2000
  154.2184  138.7916  155.0042 N   0  0  0  0  0  0  0  0  0  0  0  0
  153.0675  138.8855  155.0798 C   0  0  0  0  0  0  0  0  0  0  0  0
  151.6177  139.0022  155.1729 C   0  0  0  0  0  0  0  0  0  0  0  0
  150.9931  139.6515  154.1635 N   0  0  0  0  0  0  0  0  0  0  0  0
  149.6476  139.7429  154.2271 C   0  0  0  0  0  0  0  0  0  0  0  0
  148.9192  139.1854  155.2960 C   0  0  0  0  0  0  0  0  0  0  0  0
  149.5332  138.5354  156.3073 N   0  0  0  0  0  0  0  0  0  0  0  0
  150.8848  138.4394  156.2553 C   0  0  0  0  0  0  0  0  0  0  0  0
  151.5326  137.7587  157.3006 N   0  0  0  0  0  0  0  0  0  0  0  0
  151.9193  138.5172  158.4855 C   0  0  0  0  0  0  0  0  0  0  0  0
  152.7277  139.7731  158.1262 C   0  0  0  0  0  0  0  0  0  0  0  0
  151.8634  140.8969  158.2182 O   0  0  0  0  0  0  0  0  0  0  0  0
  152.5093  142.1638  158.1981 C   0  0  0  0  0  0  0  0  0  0  0  0
  153.3275  142.2572  159.5001 C   0  0  0  0  0  0  0  0  0  0  0  0
  152.5099  142.5624  160.7666 C   0  0  0  0  0  0  0  0  0  0  0  0
  152.3504  144.0694  161.0261 C   0  0  0  0  0  0  0  0  0  0  0  0
  151.4118  144.7939  160.0502 C   0  0  0  0  0  0  0  0  0  0  0  0
  151.7981  144.6601  158.5665 C   0  0  0  0  0  0  0  0  0  0  0  0
  151.4564  143.2785  157.9845 C   0  0  0  0  0  0  0  0  0  0  0  0
  149.1500  140.2617  153.4211 H   0  0  0  0  0  0  0  0  0  0  0  0
  147.8428  139.2612  155.3402 H   0  0  0  0  0  0  0  0  0  0  0  0
  151.1826  136.8308  157.4929 H   0  0  0  0  0  0  0  0  0  0  0  0
  151.0102  138.8067  159.0128 H   0  0  0  0  0  0  0  0  0  0  0  0
  152.4832  137.8831  159.1701 H   0  0  0  0  0  0  0  0  0  0  0  0
  153.5620  139.8971  158.8173 H   0  0  0  0  0  0  0  0  0  0  0  0
  153.1527  139.6688  157.1281 H   0  0  0  0  0  0  0  0  0  0  0  0
  153.2230  142.1816  157.3725 H   0  0  0  0  0  0  0  0  0  0  0  0
  153.8535  141.3117  159.6384 H   0  0  0  0  0  0  0  0  0  0  0  0
  154.1150  143.0033  159.3870 H   0  0  0  0  0  0  0  0  0  0  0  0
  151.5405  142.0637  160.7364 H   0  0  0  0  0  0  0  0  0  0  0  0
  153.0377  142.1350  161.6198 H   0  0  0  0  0  0  0  0  0  0  0  0
  151.9652  144.2094  162.0366 H   0  0  0  0  0  0  0  0  0  0  0  0
  153.3299  144.5488  161.0159 H   0  0  0  0  0  0  0  0  0  0  0  0
  150.3885  144.4468  160.1987 H   0  0  0  0  0  0  0  0  0  0  0  0
  151.4033  145.8521  160.3130 H   0  0  0  0  0  0  0  0  0  0  0  0
  151.2261  145.4049  158.0120 H   0  0  0  0  0  0  0  0  0  0  0  0
  152.8468  144.9106  158.4034 H   0  0  0  0  0  0  0  0  0  0  0  0
  151.2906  143.3895  156.9127 H   0  0  0  0  0  0  0  0  0  0  0  0
  150.4962  142.9578  158.3891 H   0  0  0  0  0  0  0  0  0  0  0  0
  1  2  3  0  0  0  0
  2  3  1  0  0  0  0
  3  8  1  0  0  0  0
  3  4  2  0  0  0  0
  4  5  1  0  0  0  0
  5  6  2  0  0  0  0
  5 20  1  0  0  0  0
  6  7  1  0  0  0  0
  6 21  1  0  0  0  0
  7  8  2  0  0  0  0
  8  9  1  0  0  0  0
  9 10  1  0  0  0  0
  9 22  1  0  0  0  0
 10 11  1  0  0  0  0
 10 23  1  0  0  0  0
 10 24  1  0  0  0  0
 11 12  1  0  0  0  0
 11 25  1  0  0  0  0
 11 26  1  0  0  0  0
 12 13  1  0  0  0  0
 13 19  1  0  0  0  0
 13 14  1  0  0  0  0
 13 27  1  0  0  0  0
 14 15  1  0  0  0  0
 14 28  1  0  0  0  0
 14 29  1  0  0  0  0
 15 16  1  0  0  0  0
 15 30  1  0  0  0  0
 15 31  1  0  0  0  0
 16 17  1  0  0  0  0
 16 32  1  0  0  0  0
 16 33  1  0  0  0  0
 17 18  1  0  0  0  0
 17 34  1  0  0  0  0
 17 35  1  0  0  0  0
 18 19  1  0  0  0  0
 18 36  1  0  0  0  0
 18 37  1  0  0  0  0
 19 38  1  0  0  0  0
 19 39  1  0  0  0  0
M  END
> <s_m_source_file>
AV-unprocessed.smi

> <i_m_source_file_index>
3069

> <i_lp_mmshare_version>
43012

> <i_f3d_flags>
0

> <s_epik_input>
TiNDYzFuW2NIXVtjSF1uYzFbTkhdW0NIMl1bQ0gyXU9bQ0hdMltDSDJdW0NIMl1bQ0gyXVtDSDJdW0NIMl1bQ0gyXTI=

> <s_epik_cmdline>
J2VwaWtfcHl0aG9uJywgJy1waCcsICc3LjAnLCAnLXRuJywgJzgnLCAnLW1hJywgJzIwMCcsICctbWV0YWxfYmluZGluZycsICctaW1hZScsICc8aW5maWxlLm1hZT4nLCAnLW9tYWUnLCAnPG91dGZpbGUubWFlPic=

> <r_lp_tautomer_probability>
1

> <r_epik_Ionization_Penalty>
5.57718e-05

> <r_epik_Ionization_Penalty_Charging>
0

> <r_epik_Ionization_Penalty_Neutral>
5.57718e-05

> <r_epik_State_Penalty>
-0

> <r_epik_Charging_Adjusted_Penalty>
0

> <i_epik_Tot_Q>
0

> <i_epik_Tot_abs_Q>
0

> <r_epik_Metal_State_Penalty>
-0

> <b_epik_Metal_Only>
0

> <s_lp_Force_Field>
OPLS_2005

> <r_lp_Energy>
28.0763

> <b_lp_Chiralities_Consistent>
1

> <s_lp_Variant>
AV-unprocessed.smi:3069-1

> <Gold.Version>
5.8.1

> <Gold.Id.Protein>
6NUR|6NUR_protein|mol2

> <Gold.PLP.Fitness>
45.9469

> <Gold.PLP.PLP>
-39.7355

> <Gold.PLP.part.hbond>
-2.0000

> <Gold.PLP.part.metal>
0.0000

> <Gold.PLP.part.buried>
-6.0452

> <Gold.PLP.part.nonpolar>
-31.6596

> <Gold.PLP.part.repulsive>
0.1227

> <Gold.PLP.ligand.clash>
0.0000

> <Gold.PLP.ligand.torsion>
0.7798

> <Gold.PLP.Chemscore.Hbond>
1.8960

> <Gold.PLP.Chemscore.CHOScore>
0.6860

> <Gold.PLP.Chemscore.Metal>
0.0000

> <Gold.Chemscore.Hbonds>
donor molecule, donor type, donor heavy atom, donor atom, acceptor molecule, acceptor atom, score
      P1  H  7989  7998       L1     4  0.98
      P1  H  7997  8010       L1     1  0.48
      L1  C     5    20       P1  7957  0.93

> <Gold.PLP.Chemscore.Internal.Correction>
0.0249

> <Gold.Rescore>
     Score         DG    S(hbond)    S(metal)    S(lipo)     H(rot)  DE(clash)    DE(int)     intcor
     17.44     -18.30       1.78        0.00     103.26       2.04       0.07       0.80       ----

> <Gold.Chemscore.Fitness>
17.4355

> <Gold.Chemscore.DG>
-18.3037

> <Gold.Chemscore.ZeroCoef>
-5.4800

> <Gold.Chemscore.Hbond>
1.7826

> <Gold.Chemscore.Metal>
0.0000

> <Gold.Chemscore.Lipo>
103.2613

> <Gold.Chemscore.Internal_Hbond>
0.0000

> <Gold.Chemscore.DEClash>
0.0701

> <Gold.Chemscore.DEInternal>
0.7980

> <Gold.Chemscore.Rot>
2.0359

> <Gold.Chemscore.Internal.Correction>
   9.000000E+99

> <Gold.Chemscore.Hbonds>
donor molecule, donor type, donor heavy atom, donor atom, acceptor molecule, acceptor atom, score
      P1  H  7989  7998       L1     4  0.78
      P1  H  7997  8010       L1     1  0.06

> <Gold.Chemscore.Hbond.Weighted>
-5.9540

> <Gold.Chemscore.Metal.Weighted>
-0.0000

> <Gold.Chemscore.Lipo.Weighted>
-12.0816

> <Gold.Chemscore.Internal_Hbond.Weighted>
0.0000

> <Gold.Chemscore.DEClash.Weighted>
0.0701

> <Gold.Chemscore.DEInternal.Weighted>
0.7980

> <Gold.Chemscore.Rot.Weighted>
5.2119

> <Gold.Chemscore.Internal.Correction.Weighted>
   9.000000E+99

> <Gold.Protein.RotatedTorsions>
[ 6907 6896 6895 6894 ] final  -73.28 input  -60.11 | X-H torsion
[ 7974 7965 7964 7962 ] final -173.26 input  175.53 | X-H torsion
[ 8008 7997 7996 7995 ] final  107.62 input   59.86 | X-H torsion
[ 10167 10162 10161 10158 ] final   80.35 input  -65.29 | X-H torsion
[ 10718 10713 10712 10709 ] final -164.46 input   66.30 | X-H torsion
[ 10763 10752 10751 10750 ] final  168.35 input  -60.55 | X-H torsion
[ 11005 11000 10999 10996 ] final -124.51 input  -57.11 | X-H torsion

> <Gold.Protein.ActiveResidues>
 VAL166  LYS551  ARG553  GLY616  TRP617  ASP618  TYR619  PRO620  LYS621  CYS622 
 ASP623  PHE694  ASN695  SER759  ASP760  ASP761  ALA762  ILE779  LEU786  VAL792 
 PHE793  MET794  SER795  GLU796  ALA797  LYS798  CYS799  TRP800  GLU811  SER814 

> <Gold.Protein.RotatedAtoms>
  150.7136  134.5039  159.5574 H   0  0  0  0  0  0  0  0  0  0  0  0  # atno 6907 bound_to 6896
  152.2630  134.8010  160.0436 H   0  0  0  0  0  0  0  0  0  0  0  0  # atno 6908 bound_to 6896
  151.8717  133.3442  159.3774 H   0  0  0  0  0  0  0  0  0  0  0  0  # atno 6909 bound_to 6896
  144.7139  140.1649  143.6373 H   0  0  0  0  0  0  0  0  0  0  0  0  # atno 7974 bound_to 7965
  156.1838  140.3091  155.9200 H   0  0  0  0  0  0  0  0  0  0  0  0  # atno 8008 bound_to 7997
  155.3325  140.0461  157.3060 H   0  0  0  0  0  0  0  0  0  0  0  0  # atno 8009 bound_to 7997
  154.5373  140.2250  155.8711 H   0  0  0  0  0  0  0  0  0  0  0  0  # atno 8010 bound_to 7997
  139.9507  144.6028  150.8163 H   0  0  0  0  0  0  0  0  0  0  0  0  # atno 10167 bound_to 10162
  156.6394  130.8962  151.2993 H   0  0  0  0  0  0  0  0  0  0  0  0  # atno 10718 bound_to 10713
  154.3673  135.2753  155.2286 H   0  0  0  0  0  0  0  0  0  0  0  0  # atno 10763 bound_to 10752
  154.4448  135.5945  153.6156 H   0  0  0  0  0  0  0  0  0  0  0  0  # atno 10764 bound_to 10752
  152.9840  135.6027  154.3900 H   0  0  0  0  0  0  0  0  0  0  0  0  # atno 10765 bound_to 10752
  140.9835  134.0640  157.3738 H   0  0  0  0  0  0  0  0  0  0  0  0  # atno 11005 bound_to 11000
  145.8997  139.2423  143.1501 LP  0  0  0  0  0  0  0  0  0  0  0  0  # atno 17320 bound_to 7965
  145.9823  140.8672  143.0108 LP  0  0  0  0  0  0  0  0  0  0  0  0  # atno 17321 bound_to 7965
  140.7583  143.3105  151.2856 LP  0  0  0  0  0  0  0  0  0  0  0  0  # atno 17342 bound_to 10162
  139.6631  144.0154  152.2705 LP  0  0  0  0  0  0  0  0  0  0  0  0  # atno 17343 bound_to 10162
  157.7175  130.9516  150.1312 LP  0  0  0  0  0  0  0  0  0  0  0  0  # atno 17370 bound_to 10713
  156.2171  130.3671  149.8600 LP  0  0  0  0  0  0  0  0  0  0  0  0  # atno 17371 bound_to 10713
  139.8960  135.0144  156.7031 LP  0  0  0  0  0  0  0  0  0  0  0  0  # atno 17394 bound_to 11000
  140.7150  133.9190  155.8109 LP  0  0  0  0  0  0  0  0  0  0  0  0  # atno 17395 bound_to 11000

$$$$
