AV-unprocessed.smi:2424|AV-procd|sdf|9573|dock8
  -GOLD-   2272013203D 1   1.00000     0.00000
 Structure written by MMmdl.
 49 50  0  0  0  0  0  0  0  0  2 V2000
  147.7107  140.5829  153.5938 C   0  0  0  0  0  0  0  0  0  0  0  0
  148.1991  139.1877  154.0180 C   0  0  0  0  0  0  0  0  0  0  0  0
  149.1905  139.1667  155.2118 C   0  0  0  0  0  0  0  0  0  0  0  0
  148.4051  139.4146  156.5203 C   0  0  0  0  0  0  0  0  0  0  0  0
  147.6591  140.7564  156.5929 C   0  0  0  0  0  0  0  0  0  0  0  0
  150.1807  137.9727  155.2716 C   0  0  1  0  0  0  0  0  0  0  0  0
  149.7297  136.7767  154.5646 N   0  0  0  0  0  0  0  0  0  0  0  0
  149.9144  135.5168  154.9803 C   0  0  0  0  0  0  0  0  0  0  0  0
  150.5055  135.2278  156.0201 O   0  0  0  0  0  0  0  0  0  0  0  0
  149.3683  134.6452  154.1143 N   0  0  0  0  0  0  0  0  0  0  0  0
  149.3360  133.2463  154.1821 C   0  0  0  0  0  0  0  0  0  0  0  0
  148.4187  132.5345  153.4361 C   0  0  0  0  0  0  0  0  0  0  0  0
  148.2348  131.1981  153.3690 N   0  5  0  0  0  0  0  0  0  0  0  0
  149.0425  130.3995  154.1241 C   0  0  0  0  0  0  0  0  0  0  0  0
  148.9342  129.1738  154.1133 O   0  0  0  0  0  0  0  0  0  0  0  0
  150.0721  131.0296  154.9748 C   0  0  0  0  0  0  0  0  0  0  0  0
  150.9691  130.1382  155.8169 C   0  0  0  0  0  0  0  0  0  0  0  0
  150.1962  132.3804  154.9887 C   0  0  0  0  0  0  0  0  0  0  0  0
  151.1916  138.7839  154.4569 C   0  0  2  0  0  0  0  0  0  0  0  0
  152.6846  138.5978  154.6977 C   0  0  0  0  0  0  0  0  0  0  0  0
  150.4696  140.0302  154.9939 C   0  0  2  0  0  0  0  0  0  0  0  0
  151.0840  140.4802  156.1961 O   0  0  0  0  0  0  0  0  0  0  0  0
  150.5349  141.6949  156.6785 C   0  0  0  0  0  0  0  0  0  0  0  0
  147.1245  140.5179  152.6772 H   0  0  0  0  0  0  0  0  0  0  0  0
  148.5414  141.2617  153.4026 H   0  0  0  0  0  0  0  0  0  0  0  0
  147.0701  141.0366  154.3492 H   0  0  0  0  0  0  0  0  0  0  0  0
  147.3338  138.5567  154.2193 H   0  0  0  0  0  0  0  0  0  0  0  0
  148.6640  138.7355  153.1422 H   0  0  0  0  0  0  0  0  0  0  0  0
  147.6535  138.6353  156.6475 H   0  0  0  0  0  0  0  0  0  0  0  0
  149.0521  139.3169  157.3908 H   0  0  0  0  0  0  0  0  0  0  0  0
  147.0652  140.8119  157.5054 H   0  0  0  0  0  0  0  0  0  0  0  0
  146.9758  140.8787  155.7530 H   0  0  0  0  0  0  0  0  0  0  0  0
  148.3410  141.6057  156.6029 H   0  0  0  0  0  0  0  0  0  0  0  0
  150.5463  137.7917  156.2854 H   0  0  0  0  0  0  0  0  0  0  0  0
  149.2335  136.9206  153.6975 H   0  0  0  0  0  0  0  0  0  0  0  0
  148.9165  135.0397  153.3022 H   0  0  0  0  0  0  0  0  0  0  0  0
  147.7292  133.1273  152.7968 H   0  0  0  0  0  0  0  0  0  0  0  0
  151.6843  130.7250  156.3937 H   0  0  0  0  0  0  0  0  0  0  0  0
  151.5308  129.4532  155.1812 H   0  0  0  0  0  0  0  0  0  0  0  0
  150.3738  129.5506  156.5164 H   0  0  0  0  0  0  0  0  0  0  0  0
  150.9586  132.8029  155.6223 H   0  0  0  0  0  0  0  0  0  0  0  0
  150.9749  138.6905  153.3911 H   0  0  0  0  0  0  0  0  0  0  0  0
  152.9252  138.6101  155.7609 H   0  0  0  0  0  0  0  0  0  0  0  0
  153.2624  139.3881  154.2189 H   0  0  0  0  0  0  0  0  0  0  0  0
  153.0300  137.6448  154.2965 H   0  0  0  0  0  0  0  0  0  0  0  0
  150.3848  140.8092  154.2345 H   0  0  0  0  0  0  0  0  0  0  0  0
  151.0142  141.9634  157.6196 H   0  0  0  0  0  0  0  0  0  0  0  0
  149.4634  141.6101  156.8584 H   0  0  0  0  0  0  0  0  0  0  0  0
  150.7049  142.5075  155.9713 H   0  0  0  0  0  0  0  0  0  0  0  0
  1  2  1  0  0  0  0
  1 24  1  0  0  0  0
  1 25  1  0  0  0  0
  1 26  1  0  0  0  0
  2  3  1  0  0  0  0
  2 27  1  0  0  0  0
  2 28  1  0  0  0  0
  3 21  1  0  0  0  0
  3  4  1  0  0  0  0
  3  6  1  0  0  0  0
  4  5  1  0  0  0  0
  4 29  1  0  0  0  0
  4 30  1  0  0  0  0
  5 31  1  0  0  0  0
  5 32  1  0  0  0  0
  5 33  1  0  0  0  0
  6  7  1  0  0  0  0
  6 19  1  0  0  0  0
  6 34  1  0  0  0  0
  7  8  1  0  0  0  0
  7 35  1  0  0  0  0
  8  9  2  0  0  0  0
  8 10  1  0  0  0  0
 10 11  1  0  0  0  0
 10 36  1  0  0  0  0
 11 18  1  0  0  0  0
 11 12  2  0  0  0  0
 12 13  1  0  0  0  0
 12 37  1  0  0  0  0
 13 14  1  0  0  0  0
 14 15  2  0  0  0  0
 14 16  1  0  0  0  0
 16 17  1  0  0  0  0
 16 18  2  0  0  0  0
 17 38  1  0  0  0  0
 17 39  1  0  0  0  0
 17 40  1  0  0  0  0
 18 41  1  0  0  0  0
 19 20  1  0  0  0  0
 19 21  1  0  0  0  0
 19 42  1  0  0  0  0
 20 43  1  0  0  0  0
 20 44  1  0  0  0  0
 20 45  1  0  0  0  0
 21 22  1  0  0  0  0
 21 46  1  0  0  0  0
 22 23  1  0  0  0  0
 23 47  1  0  0  0  0
 23 48  1  0  0  0  0
 23 49  1  0  0  0  0
M  CHG  1  13  -1
M  END
> <s_m_source_file>
AV-unprocessed.smi

> <i_m_source_file_index>
2424

> <i_lp_mmshare_version>
43012

> <i_f3d_flags>
0

> <s_epik_input>
W0NIM11PW0NAQEhdMVtDQEhdKFtDSDNdKVtDQEBIXShDMShbQ0gyXVtDSDNdKVtDSDJdW0NIM10pW05IXUMoPU8pW05IXWMyW2NIXVtuSF1jKD1PKWMoW0NIM10pW2NIXTI=

> <s_epik_cmdline>
J2VwaWtfcHl0aG9uJywgJy1waCcsICc3LjAnLCAnLXRuJywgJzgnLCAnLW1hJywgJzIwMCcsICctbWV0YWxfYmluZGluZycsICctaW1hZScsICc8aW5maWxlLm1hZT4nLCAnLW9tYWUnLCAnPG91dGZpbGUubWFlPic=

> <r_lp_tautomer_probability>
1

> <r_epik_Ionization_Penalty>
7.6122

> <r_epik_Ionization_Penalty_Charging>
1.53843

> <r_epik_Ionization_Penalty_Neutral>
6.07377

> <r_epik_State_Penalty>
6.07371

> <r_epik_Charging_Adjusted_Penalty>
7.61214

> <i_epik_Tot_Q>
-1

> <i_epik_Tot_abs_Q>
1

> <r_epik_Metal_State_Penalty>
2.02136

> <b_epik_Metal_Only>
1

> <s_lp_Force_Field>
OPLS_2005

> <r_lp_Energy>
41.9258

> <b_lp_Chiralities_Consistent>
1

> <s_lp_Variant>
AV-unprocessed.smi:2424-15

> <Gold.Version>
5.8.1

> <Gold.Id.Protein>
6NUR|6NUR_protein|mol2

> <Gold.PLP.Fitness>
41.3007

> <Gold.PLP.PLP>
-36.4205

> <Gold.PLP.part.hbond>
-2.0000

> <Gold.PLP.part.metal>
0.0000

> <Gold.PLP.part.buried>
-3.3649

> <Gold.PLP.part.nonpolar>
-31.7267

> <Gold.PLP.part.repulsive>
0.2840

> <Gold.PLP.ligand.clash>
0.0000

> <Gold.PLP.ligand.torsion>
0.6910

> <Gold.PLP.Chemscore.Hbond>
1.8560

> <Gold.PLP.Chemscore.CHOScore>
0.0000

> <Gold.PLP.Chemscore.Metal>
0.0000

> <Gold.Chemscore.Hbonds>
donor molecule, donor type, donor heavy atom, donor atom, acceptor molecule, acceptor atom, score
      L1  H     7    35       P1  7948  0.88
      L1  H    10    36       P1  7948  0.98

> <Gold.PLP.Chemscore.Internal.Correction>
0.6943

> <Gold.Rescore>
     Score         DG    S(hbond)    S(metal)    S(lipo)     H(rot)  DE(clash)    DE(int)     intcor
     13.99     -16.12       1.50        0.00      81.33       1.52       0.09       2.04       ----

> <Gold.Chemscore.Fitness>
13.9935

> <Gold.Chemscore.DG>
-16.1188

> <Gold.Chemscore.ZeroCoef>
-5.4800

> <Gold.Chemscore.Hbond>
1.5016

> <Gold.Chemscore.Metal>
0.0000

> <Gold.Chemscore.Lipo>
81.3307

> <Gold.Chemscore.Internal_Hbond>
0.0000

> <Gold.Chemscore.DEClash>
0.0901

> <Gold.Chemscore.DEInternal>
2.0352

> <Gold.Chemscore.Rot>
1.5204

> <Gold.Chemscore.Internal.Correction>
   9.000000E+99

> <Gold.Chemscore.Hbonds>
donor molecule, donor type, donor heavy atom, donor atom, acceptor molecule, acceptor atom, score
      L1  H     7    35       P1  7948  0.84
      L1  H    10    36       P1  7948  0.32

> <Gold.Chemscore.Hbond.Weighted>
-5.0153

> <Gold.Chemscore.Metal.Weighted>
-0.0000

> <Gold.Chemscore.Lipo.Weighted>
-9.5157

> <Gold.Chemscore.Internal_Hbond.Weighted>
0.0000

> <Gold.Chemscore.DEClash.Weighted>
0.0901

> <Gold.Chemscore.DEInternal.Weighted>
2.0352

> <Gold.Chemscore.Rot.Weighted>
3.8922

> <Gold.Chemscore.Internal.Correction.Weighted>
   9.000000E+99

> <Gold.Protein.RotatedTorsions>
[ 6907 6896 6895 6894 ] final   81.50 input  -60.11 | X-H torsion
[ 7974 7965 7964 7962 ] final  109.93 input  175.53 | X-H torsion
[ 8008 7997 7996 7995 ] final -178.85 input   59.86 | X-H torsion
[ 10167 10162 10161 10158 ] final -150.11 input  -65.29 | X-H torsion
[ 10718 10713 10712 10709 ] final -177.74 input   66.30 | X-H torsion
[ 10763 10752 10751 10750 ] final  -43.02 input  -60.55 | X-H torsion
[ 11005 11000 10999 10996 ] final  -16.25 input  -57.11 | X-H torsion

> <Gold.Protein.ActiveResidues>
 VAL166  LYS551  ARG553  GLY616  TRP617  ASP618  TYR619  PRO620  LYS621  CYS622 
 ASP623  PHE694  ASN695  SER759  ASP760  ASP761  ALA762  ILE779  LEU786  VAL792 
 PHE793  MET794  SER795  GLU796  ALA797  LYS798  CYS799  TRP800  GLU811  SER814 

> <Gold.Protein.RotatedAtoms>
  152.5270  134.3194  159.9142 H   0  0  0  0  0  0  0  0  0  0  0  0  # atno 6907 bound_to 6896
  151.3143  133.4061  159.2657 H   0  0  0  0  0  0  0  0  0  0  0  0  # atno 6908 bound_to 6896
  151.0012  134.9340  159.8012 H   0  0  0  0  0  0  0  0  0  0  0  0  # atno 6909 bound_to 6896
  145.2615  139.2700  143.4014 H   0  0  0  0  0  0  0  0  0  0  0  0  # atno 7974 bound_to 7965
  156.0236  140.1266  157.0331 H   0  0  0  0  0  0  0  0  0  0  0  0  # atno 8008 bound_to 7997
  154.4321  140.1063  156.6069 H   0  0  0  0  0  0  0  0  0  0  0  0  # atno 8009 bound_to 7997
  155.5908  140.3469  155.4568 H   0  0  0  0  0  0  0  0  0  0  0  0  # atno 8010 bound_to 7997
  139.7383  143.8701  152.2555 H   0  0  0  0  0  0  0  0  0  0  0  0  # atno 10167 bound_to 10162
  156.8339  130.9663  151.3104 H   0  0  0  0  0  0  0  0  0  0  0  0  # atno 10718 bound_to 10713
  153.9886  135.6708  153.4753 H   0  0  0  0  0  0  0  0  0  0  0  0  # atno 10763 bound_to 10752
  153.0715  135.4971  154.8311 H   0  0  0  0  0  0  0  0  0  0  0  0  # atno 10764 bound_to 10752
  154.7122  135.3100  154.9141 H   0  0  0  0  0  0  0  0  0  0  0  0  # atno 10765 bound_to 10752
  140.8049  133.8185  155.9506 H   0  0  0  0  0  0  0  0  0  0  0  0  # atno 11005 bound_to 11000
  146.3274  140.3033  142.8622 LP  0  0  0  0  0  0  0  0  0  0  0  0  # atno 17320 bound_to 7965
  144.9414  140.8082  143.5628 LP  0  0  0  0  0  0  0  0  0  0  0  0  # atno 17321 bound_to 7965
  139.8644  144.7100  150.9061 LP  0  0  0  0  0  0  0  0  0  0  0  0  # atno 17342 bound_to 10162
  140.7782  143.3790  151.1511 LP  0  0  0  0  0  0  0  0  0  0  0  0  # atno 17343 bound_to 10162
  157.6392  130.8791  149.9416 LP  0  0  0  0  0  0  0  0  0  0  0  0  # atno 17370 bound_to 10713
  156.0919  130.3662  150.0380 LP  0  0  0  0  0  0  0  0  0  0  0  0  # atno 17371 bound_to 10713
  140.9257  134.2086  157.4897 LP  0  0  0  0  0  0  0  0  0  0  0  0  # atno 17394 bound_to 11000
  139.8718  134.9811  156.5103 LP  0  0  0  0  0  0  0  0  0  0  0  0  # atno 17395 bound_to 11000

$$$$
