AV-unprocessed.smi:3112|AV-procd|sdf|11840|dock5
  -GOLD-   2272017213D 1   1.00000     0.00000
 Structure written by MMmdl.
 37 37  0  0  0  0  0  0  0  0  2 V2000
  147.1634  140.4590  152.7904 C   0  0  0  0  0  0  0  0  0  0  0  0
  147.4542  140.6083  154.2899 C   0  0  0  0  0  0  0  0  0  0  0  0
  148.7473  141.3878  154.5898 C   0  0  2  0  0  0  0  0  0  0  0  0
  149.7747  140.9190  153.7379 O   0  0  0  0  0  0  0  0  0  0  0  0
  149.2031  141.2064  156.0463 C   0  0  0  0  0  0  0  0  0  0  0  0
  150.1765  142.2481  156.4354 N   0  3  0  0  0  0  0  0  0  0  0  0
  150.4676  142.3230  157.8865 C   0  0  2  0  0  0  0  0  0  0  0  0
  149.3350  143.1068  158.5698 C   0  0  0  0  0  0  0  0  0  0  0  0
  151.8650  142.9529  158.1308 C   0  0  1  0  0  0  0  0  0  0  0  0
  151.9572  144.4253  157.6869 C   0  0  0  0  0  0  0  0  0  0  0  0
  152.2614  142.8296  159.5296 N   0  0  0  0  0  0  0  0  0  0  0  0
  153.3013  142.1046  160.0785 C   0  0  0  0  0  0  0  0  0  0  0  0
  153.2978  142.3387  161.4236 C   0  0  0  0  0  0  0  0  0  0  0  0
  152.2113  143.2379  161.6077 C   0  0  0  0  0  0  0  0  0  0  0  0
  151.6008  143.5369  160.4731 N   0  0  0  0  0  0  0  0  0  0  0  0
  146.2247  139.9282  152.6303 H   0  0  0  0  0  0  0  0  0  0  0  0
  147.9495  139.8980  152.2848 H   0  0  0  0  0  0  0  0  0  0  0  0
  147.0805  141.4321  152.3058 H   0  0  0  0  0  0  0  0  0  0  0  0
  146.6109  141.1254  154.7493 H   0  0  0  0  0  0  0  0  0  0  0  0
  147.4947  139.6226  154.7555 H   0  0  0  0  0  0  0  0  0  0  0  0
  148.5823  142.4476  154.3898 H   0  0  0  0  0  0  0  0  0  0  0  0
  149.4354  140.2089  153.2140 H   0  0  0  0  0  0  0  0  0  0  0  0
  148.3450  141.2783  156.7161 H   0  0  0  0  0  0  0  0  0  0  0  0
  149.6348  140.2146  156.1868 H   0  0  0  0  0  0  0  0  0  0  0  0
  151.0438  142.0700  155.9474 H   0  0  0  0  0  0  0  0  0  0  0  0
  150.4620  141.3139  158.3028 H   0  0  0  0  0  0  0  0  0  0  0  0
  149.4272  143.0865  159.6553 H   0  0  0  0  0  0  0  0  0  0  0  0
  148.3619  142.6779  158.3273 H   0  0  0  0  0  0  0  0  0  0  0  0
  149.3251  144.1502  158.2527 H   0  0  0  0  0  0  0  0  0  0  0  0
  152.5945  142.3977  157.5374 H   0  0  0  0  0  0  0  0  0  0  0  0
  151.8531  144.5271  156.6070 H   0  0  0  0  0  0  0  0  0  0  0  0
  152.9244  144.8535  157.9524 H   0  0  0  0  0  0  0  0  0  0  0  0
  151.1840  145.0355  158.1544 H   0  0  0  0  0  0  0  0  0  0  0  0
  153.9525  141.4902  159.4742 H   0  0  0  0  0  0  0  0  0  0  0  0
  153.9704  141.9315  162.1639 H   0  0  0  0  0  0  0  0  0  0  0  0
  151.8542  143.6842  162.5243 H   0  0  0  0  0  0  0  0  0  0  0  0
  149.8181  143.1421  156.1322 H   0  0  0  0  0  0  0  0  0  0  0  0
  1  2  1  0  0  0  0
  1 16  1  0  0  0  0
  1 17  1  0  0  0  0
  1 18  1  0  0  0  0
  2  3  1  0  0  0  0
  2 19  1  0  0  0  0
  2 20  1  0  0  0  0
  3  4  1  0  0  0  0
  3  5  1  0  0  0  0
  3 21  1  0  0  0  0
  4 22  1  0  0  0  0
  5  6  1  0  0  0  0
  5 23  1  0  0  0  0
  5 24  1  0  0  0  0
  6  7  1  0  0  0  0
  6 25  1  0  0  0  0
  6 37  1  0  0  0  0
  7  8  1  0  0  0  0
  7  9  1  0  0  0  0
  7 26  1  0  0  0  0
  8 27  1  0  0  0  0
  8 28  1  0  0  0  0
  8 29  1  0  0  0  0
  9 10  1  0  0  0  0
  9 11  1  0  0  0  0
  9 30  1  0  0  0  0
 10 31  1  0  0  0  0
 10 32  1  0  0  0  0
 10 33  1  0  0  0  0
 11 15  1  0  0  0  0
 11 12  1  0  0  0  0
 12 13  2  0  0  0  0
 12 34  1  0  0  0  0
 13 14  1  0  0  0  0
 13 35  1  0  0  0  0
 14 15  2  0  0  0  0
 14 36  1  0  0  0  0
M  CHG  1   6   1
M  END
> <s_m_source_file>
AV-unprocessed.smi

> <i_m_source_file_index>
3112

> <i_lp_mmshare_version>
43012

> <i_f3d_flags>
0

> <s_epik_input>
W0NIM11bQ0gyXVtDQEhdKFtPSF0pW0NIMl1bTkhdW0NASF0oW0NIM10pW0NASF0oW0NIM10pbjFbY0hdW2NIXVtjSF1uMQ==

> <s_epik_cmdline>
J2VwaWtfcHl0aG9uJywgJy1waCcsICc3LjAnLCAnLXRuJywgJzgnLCAnLW1hJywgJzIwMCcsICctbWV0YWxfYmluZGluZycsICctaW1hZScsICc8aW5maWxlLm1hZT4nLCAnLW9tYWUnLCAnPG91dGZpbGUubWFlPic=

> <r_lp_tautomer_probability>
1

> <r_epik_Ionization_Penalty>
0.0154842

> <r_epik_Ionization_Penalty_Charging>
0.0154724

> <r_epik_Ionization_Penalty_Neutral>
1.17979e-05

> <r_epik_State_Penalty>
0.0121607

> <r_epik_Charging_Adjusted_Penalty>
0.0276331

> <i_epik_Tot_Q>
1

> <i_epik_Tot_abs_Q>
1

> <r_epik_Metal_State_Penalty>
0.0121863

> <b_epik_Metal_Only>
0

> <s_lp_Force_Field>
OPLS_2005

> <r_lp_Energy>
12.9231

> <b_lp_Chiralities_Consistent>
1

> <s_lp_Variant>
AV-unprocessed.smi:3112-5

> <Gold.Version>
5.8.1

> <Gold.Id.Protein>
6NUR|6NUR_protein|mol2

> <Gold.PLP.Fitness>
49.0912

> <Gold.PLP.PLP>
-38.7860

> <Gold.PLP.part.hbond>
-4.0000

> <Gold.PLP.part.metal>
0.0000

> <Gold.PLP.part.buried>
-3.4945

> <Gold.PLP.part.nonpolar>
-30.7938

> <Gold.PLP.part.repulsive>
0.1524

> <Gold.PLP.ligand.clash>
0.0000

> <Gold.PLP.ligand.torsion>
0.6171

> <Gold.PLP.Chemscore.Hbond>
3.8016

> <Gold.PLP.Chemscore.CHOScore>
0.0000

> <Gold.PLP.Chemscore.Metal>
0.0000

> <Gold.Chemscore.Hbonds>
donor molecule, donor type, donor heavy atom, donor atom, acceptor molecule, acceptor atom, score
      L1  H     4    22       P1  7957  0.47
      L1  H     6    37       P1  8028  2.00
      P1  H  7989  7998       L1     4  0.40
      P1  H  8011  8017       L1     4  0.94

> <Gold.PLP.Chemscore.Internal.Correction>
0.1345

> <Gold.Rescore>
     Score         DG    S(hbond)    S(metal)    S(lipo)     H(rot)  DE(clash)    DE(int)     intcor
     16.76     -17.59       2.12        0.00      95.70       2.41       0.15       0.68       ----

> <Gold.Chemscore.Fitness>
16.7612

> <Gold.Chemscore.DG>
-17.5917

> <Gold.Chemscore.ZeroCoef>
-5.4800

> <Gold.Chemscore.Hbond>
2.1203

> <Gold.Chemscore.Metal>
0.0000

> <Gold.Chemscore.Lipo>
95.6971

> <Gold.Chemscore.Internal_Hbond>
0.0000

> <Gold.Chemscore.DEClash>
0.1484

> <Gold.Chemscore.DEInternal>
0.6820

> <Gold.Chemscore.Rot>
2.4089

> <Gold.Chemscore.Internal.Correction>
   9.000000E+99

> <Gold.Chemscore.Hbonds>
donor molecule, donor type, donor heavy atom, donor atom, acceptor molecule, acceptor atom, score
      L1  H     4    22       P1  7957  0.44
      L1  H     6    37       P1  8028  1.00
      P1  H  7989  7998       L1     4  0.20
      P1  H  8011  8017       L1     4  0.06

> <Gold.Chemscore.Hbond.Weighted>
-7.0818

> <Gold.Chemscore.Metal.Weighted>
-0.0000

> <Gold.Chemscore.Lipo.Weighted>
-11.1966

> <Gold.Chemscore.Internal_Hbond.Weighted>
0.0000

> <Gold.Chemscore.DEClash.Weighted>
0.1484

> <Gold.Chemscore.DEInternal.Weighted>
0.6820

> <Gold.Chemscore.Rot.Weighted>
6.1667

> <Gold.Chemscore.Internal.Correction.Weighted>
   9.000000E+99

> <Gold.Protein.RotatedTorsions>
[ 6907 6896 6895 6894 ] final   17.98 input  -60.11 | X-H torsion
[ 7974 7965 7964 7962 ] final  109.76 input  175.53 | X-H torsion
[ 8008 7997 7996 7995 ] final  -94.93 input   59.86 | X-H torsion
[ 10167 10162 10161 10158 ] final   55.09 input  -65.29 | X-H torsion
[ 10718 10713 10712 10709 ] final   21.04 input   66.30 | X-H torsion
[ 10763 10752 10751 10750 ] final  149.83 input  -60.55 | X-H torsion
[ 11005 11000 10999 10996 ] final  112.26 input  -57.11 | X-H torsion

> <Gold.Protein.ActiveResidues>
 VAL166  LYS551  ARG553  GLY616  TRP617  ASP618  TYR619  PRO620  LYS621  CYS622 
 ASP623  PHE694  ASN695  SER759  ASP760  ASP761  ALA762  ILE779  LEU786  VAL792 
 PHE793  MET794  SER795  GLU796  ALA797  LYS798  CYS799  TRP800  GLU811  SER814 

> <Gold.Protein.RotatedAtoms>
  151.8581  135.0534  160.0466 H   0  0  0  0  0  0  0  0  0  0  0  0  # atno 6907 bound_to 6896
  152.2684  133.5355  159.5432 H   0  0  0  0  0  0  0  0  0  0  0  0  # atno 6908 bound_to 6896
  150.7142  134.0648  159.3886 H   0  0  0  0  0  0  0  0  0  0  0  0  # atno 6909 bound_to 6896
  145.2636  139.2693  143.4004 H   0  0  0  0  0  0  0  0  0  0  0  0  # atno 7974 bound_to 7965
  154.7547  140.0485  157.0923 H   0  0  0  0  0  0  0  0  0  0  0  0  # atno 8008 bound_to 7997
  155.0012  140.3125  155.4847 H   0  0  0  0  0  0  0  0  0  0  0  0  # atno 8009 bound_to 7997
  156.2892  140.2201  156.5122 H   0  0  0  0  0  0  0  0  0  0  0  0  # atno 8010 bound_to 7997
  140.2232  144.3767  150.6443 H   0  0  0  0  0  0  0  0  0  0  0  0  # atno 10167 bound_to 10162
  157.1329  130.6599  149.5957 H   0  0  0  0  0  0  0  0  0  0  0  0  # atno 10718 bound_to 10713
  154.0776  135.2862  155.3296 H   0  0  0  0  0  0  0  0  0  0  0  0  # atno 10763 bound_to 10752
  154.6705  135.5301  153.8136 H   0  0  0  0  0  0  0  0  0  0  0  0  # atno 10764 bound_to 10752
  153.0461  135.6556  154.0953 H   0  0  0  0  0  0  0  0  0  0  0  0  # atno 10765 bound_to 10752
  139.8923  134.9526  156.6558 H   0  0  0  0  0  0  0  0  0  0  0  0  # atno 11005 bound_to 11000
  146.3268  140.3060  142.8623 LP  0  0  0  0  0  0  0  0  0  0  0  0  # atno 17320 bound_to 7965
  144.9396  140.8064  143.5638 LP  0  0  0  0  0  0  0  0  0  0  0  0  # atno 17321 bound_to 7965
  140.6240  143.2179  151.6635 LP  0  0  0  0  0  0  0  0  0  0  0  0  # atno 17342 bound_to 10162
  139.5137  144.3436  152.0718 LP  0  0  0  0  0  0  0  0  0  0  0  0  # atno 17343 bound_to 10162
  155.9804  130.4804  150.6770 LP  0  0  0  0  0  0  0  0  0  0  0  0  # atno 17370 bound_to 10713
  157.4376  131.0857  151.0976 LP  0  0  0  0  0  0  0  0  0  0  0  0  # atno 17371 bound_to 10713
  140.7485  133.8917  155.8329 LP  0  0  0  0  0  0  0  0  0  0  0  0  # atno 17394 bound_to 11000
  141.0020  134.1137  157.4308 LP  0  0  0  0  0  0  0  0  0  0  0  0  # atno 17395 bound_to 11000

$$$$
