AV-unprocessed.smi:493|AV-procd|sdf|2712|dock3
  -GOLD-   2262023153D 1   1.00000     0.00000
 Structure written by MMmdl.
 46 47  0  0  0  0  0  0  0  0  1 V2000
  145.0671  135.2682  153.3315 C   0  0  0  0  0  0  0  0  0  0  0  0
  145.5014  134.6731  151.9804 C   0  0  0  0  0  0  0  0  0  0  0  0
  144.5490  133.5157  151.6134 C   0  0  0  0  0  0  0  0  0  0  0  0
  145.4500  135.7799  150.9060 C   0  0  0  0  0  0  0  0  0  0  0  0
  146.8737  134.1812  152.1524 N   0  0  0  0  0  0  0  0  0  0  0  0
  147.3342  133.2782  153.0363 C   0  0  0  0  0  0  0  0  0  0  0  0
  146.6294  132.7243  153.8805 O   0  0  0  0  0  0  0  0  0  0  0  0
  148.8373  132.9758  152.9545 C   0  0  0  0  0  0  0  0  0  0  0  0
  149.5657  133.3182  154.1873 N   0  0  0  0  0  0  0  0  0  0  0  0
  149.9123  134.6706  154.3722 C   0  0  0  0  0  0  0  0  0  0  0  0
  150.5529  135.0919  155.4750 C   0  0  0  0  0  0  0  0  0  0  0  0
  151.1071  136.8099  155.6169 S   0  0  0  0  0  0  0  0  0  0  0  0
  151.4990  137.0229  157.0186 O   0  0  0  0  0  0  0  0  0  0  0  0
  152.0764  137.0595  154.5382 O   0  0  0  0  0  0  0  0  0  0  0  0
  149.7248  137.8057  155.3051 N   0  0  0  0  0  0  0  0  0  0  0  0
  149.2247  138.6508  156.3978 C   0  0  0  0  0  0  0  0  0  0  0  0
  149.1725  140.0697  155.8331 C   0  0  0  0  0  0  0  0  0  0  0  0
  148.8977  139.8405  154.3549 C   0  0  0  0  0  0  0  0  0  0  0  0
  149.6870  138.5682  154.0478 C   0  0  0  0  0  0  0  0  0  0  0  0
  150.9460  134.1104  156.4588 C   0  0  0  0  0  0  0  0  0  0  0  0
  150.6319  132.8117  156.2822 C   0  0  0  0  0  0  0  0  0  0  0  0
  149.8917  132.3519  155.1010 C   0  0  0  0  0  0  0  0  0  0  0  0
  149.5860  131.1699  154.9411 O   0  0  0  0  0  0  0  0  0  0  0  0
  144.0507  135.6609  153.2837 H   0  0  0  0  0  0  0  0  0  0  0  0
  145.7203  136.0876  153.6347 H   0  0  0  0  0  0  0  0  0  0  0  0
  145.0915  134.5186  154.1236 H   0  0  0  0  0  0  0  0  0  0  0  0
  144.6019  132.7098  152.3462 H   0  0  0  0  0  0  0  0  0  0  0  0
  144.7779  133.0892  150.6369 H   0  0  0  0  0  0  0  0  0  0  0  0
  143.5139  133.8565  151.5764 H   0  0  0  0  0  0  0  0  0  0  0  0
  144.4534  136.2179  150.8417 H   0  0  0  0  0  0  0  0  0  0  0  0
  145.6945  135.4000  149.9140 H   0  0  0  0  0  0  0  0  0  0  0  0
  146.1486  136.5867  151.1314 H   0  0  0  0  0  0  0  0  0  0  0  0
  147.5537  134.5701  151.5155 H   0  0  0  0  0  0  0  0  0  0  0  0
  148.9838  131.9209  152.7146 H   0  0  0  0  0  0  0  0  0  0  0  0
  149.2461  133.5212  152.1030 H   0  0  0  0  0  0  0  0  0  0  0  0
  149.6295  135.3323  153.5664 H   0  0  0  0  0  0  0  0  0  0  0  0
  148.2284  138.3072  156.6778 H   0  0  0  0  0  0  0  0  0  0  0  0
  149.8650  138.5882  157.2787 H   0  0  0  0  0  0  0  0  0  0  0  0
  148.4165  140.6904  156.3150 H   0  0  0  0  0  0  0  0  0  0  0  0
  150.1411  140.5555  155.9596 H   0  0  0  0  0  0  0  0  0  0  0  0
  147.8324  139.6646  154.1990 H   0  0  0  0  0  0  0  0  0  0  0  0
  149.1957  140.6840  153.7317 H   0  0  0  0  0  0  0  0  0  0  0  0
  150.7033  138.8232  153.7452 H   0  0  0  0  0  0  0  0  0  0  0  0
  149.2328  137.9808  153.2495 H   0  0  0  0  0  0  0  0  0  0  0  0
  151.4899  134.4156  157.3405 H   0  0  0  0  0  0  0  0  0  0  0  0
  150.9303  132.0899  157.0282 H   0  0  0  0  0  0  0  0  0  0  0  0
  1  2  1  0  0  0  0
  1 24  1  0  0  0  0
  1 25  1  0  0  0  0
  1 26  1  0  0  0  0
  2  3  1  0  0  0  0
  2  4  1  0  0  0  0
  2  5  1  0  0  0  0
  3 27  1  0  0  0  0
  3 28  1  0  0  0  0
  3 29  1  0  0  0  0
  4 30  1  0  0  0  0
  4 31  1  0  0  0  0
  4 32  1  0  0  0  0
  5  6  1  0  0  0  0
  5 33  1  0  0  0  0
  6  7  2  0  0  0  0
  6  8  1  0  0  0  0
  8  9  1  0  0  0  0
  8 34  1  0  0  0  0
  8 35  1  0  0  0  0
  9 22  1  0  0  0  0
  9 10  1  0  0  0  0
 10 11  2  0  0  0  0
 10 36  1  0  0  0  0
 11 12  1  0  0  0  0
 11 20  1  0  0  0  0
 12 13  2  0  0  0  0
 12 14  2  0  0  0  0
 12 15  1  0  0  0  0
 15 19  1  0  0  0  0
 15 16  1  0  0  0  0
 16 17  1  0  0  0  0
 16 37  1  0  0  0  0
 16 38  1  0  0  0  0
 17 18  1  0  0  0  0
 17 39  1  0  0  0  0
 17 40  1  0  0  0  0
 18 19  1  0  0  0  0
 18 41  1  0  0  0  0
 18 42  1  0  0  0  0
 19 43  1  0  0  0  0
 19 44  1  0  0  0  0
 20 21  2  0  0  0  0
 20 45  1  0  0  0  0
 21 22  1  0  0  0  0
 21 46  1  0  0  0  0
 22 23  2  0  0  0  0
M  END
> <s_m_source_file>
AV-unprocessed.smi

> <i_m_source_file_index>
493

> <i_lp_mmshare_version>
43012

> <i_f3d_flags>
0

> <s_epik_input>
W0NIM11DKFtDSDNdKShbQ0gzXSlbTkhdQyg9TylbQ0gyXW4xW2NIXWMoW2NIXVtjSF1jMT1PKVMoPU8pKD1PKU4yW0NIMl1bQ0gyXVtDSDJdW0NIMl0y

> <s_epik_cmdline>
J2VwaWtfcHl0aG9uJywgJy1waCcsICc3LjAnLCAnLXRuJywgJzgnLCAnLW1hJywgJzIwMCcsICctbWV0YWxfYmluZGluZycsICctaW1hZScsICc8aW5maWxlLm1hZT4nLCAnLW9tYWUnLCAnPG91dGZpbGUubWFlPic=

> <r_lp_tautomer_probability>
1

> <r_epik_Ionization_Penalty>
3.47616e-08

> <r_epik_Ionization_Penalty_Charging>
1.01201e-08

> <r_epik_Ionization_Penalty_Neutral>
2.46415e-08

> <r_epik_State_Penalty>
-0

> <r_epik_Charging_Adjusted_Penalty>
1.01201e-08

> <i_epik_Tot_Q>
0

> <i_epik_Tot_abs_Q>
0

> <r_epik_Metal_State_Penalty>
-0

> <b_epik_Metal_Only>
0

> <s_lp_Force_Field>
OPLS_2005

> <r_lp_Energy>
19.4052

> <b_lp_Chiralities_Consistent>
1

> <s_lp_Variant>
AV-unprocessed.smi:493-1

> <Gold.Version>
5.8.1

> <Gold.Id.Protein>
6NUR|6NUR_protein|mol2

> <Gold.PLP.Fitness>
38.5644

> <Gold.PLP.PLP>
-32.6853

> <Gold.PLP.part.hbond>
-2.0000

> <Gold.PLP.part.metal>
0.0000

> <Gold.PLP.part.buried>
-3.5916

> <Gold.PLP.part.nonpolar>
-27.5734

> <Gold.PLP.part.repulsive>
0.3256

> <Gold.PLP.ligand.clash>
0.0000

> <Gold.PLP.ligand.torsion>
1.6301

> <Gold.PLP.Chemscore.Hbond>
1.5200

> <Gold.PLP.Chemscore.CHOScore>
0.7032

> <Gold.PLP.Chemscore.Metal>
0.0000

> <Gold.Chemscore.Hbonds>
donor molecule, donor type, donor heavy atom, donor atom, acceptor molecule, acceptor atom, score
      L1  H     5    33       P1  7948  0.44
      P1  H 10752 10764       L1    14  0.94
      L1  C    10    36       P1  7948  0.58

> <Gold.PLP.Chemscore.Internal.Correction>
2.4696

> <Gold.Rescore>
     Score         DG    S(hbond)    S(metal)    S(lipo)     H(rot)  DE(clash)    DE(int)     intcor
     11.88     -14.40       1.76        0.00      61.62       1.62       0.17       2.34       ----

> <Gold.Chemscore.Fitness>
11.8838

> <Gold.Chemscore.DG>
-14.4013

> <Gold.Chemscore.ZeroCoef>
-5.4800

> <Gold.Chemscore.Hbond>
1.7560

> <Gold.Chemscore.Metal>
0.0000

> <Gold.Chemscore.Lipo>
61.6155

> <Gold.Chemscore.Internal_Hbond>
0.0000

> <Gold.Chemscore.DEClash>
0.1731

> <Gold.Chemscore.DEInternal>
2.3444

> <Gold.Chemscore.Rot>
1.6222

> <Gold.Chemscore.Internal.Correction>
   9.000000E+99

> <Gold.Chemscore.Hbonds>
donor molecule, donor type, donor heavy atom, donor atom, acceptor molecule, acceptor atom, score
      L1  H     5    33       P1  7948  0.11
      P1  H 10752 10764       L1    14  0.55

> <Gold.Chemscore.Hbond.Weighted>
-5.8651

> <Gold.Chemscore.Metal.Weighted>
-0.0000

> <Gold.Chemscore.Lipo.Weighted>
-7.2090

> <Gold.Chemscore.Internal_Hbond.Weighted>
0.0000

> <Gold.Chemscore.DEClash.Weighted>
0.1731

> <Gold.Chemscore.DEInternal.Weighted>
2.3444

> <Gold.Chemscore.Rot.Weighted>
4.1528

> <Gold.Chemscore.Internal.Correction.Weighted>
   9.000000E+99

> <Gold.Protein.RotatedTorsions>
[ 6907 6896 6895 6894 ] final -114.27 input  -60.11 | X-H torsion
[ 7974 7965 7964 7962 ] final -148.74 input  175.53 | X-H torsion
[ 8008 7997 7996 7995 ] final   40.22 input   59.86 | X-H torsion
[ 10167 10162 10161 10158 ] final -158.15 input  -65.29 | X-H torsion
[ 10718 10713 10712 10709 ] final  -43.00 input   66.30 | X-H torsion
[ 10763 10752 10751 10750 ] final  -75.50 input  -60.55 | X-H torsion
[ 11005 11000 10999 10996 ] final  -12.58 input  -57.11 | X-H torsion

> <Gold.Protein.ActiveResidues>
 VAL166  LYS551  ARG553  GLY616  TRP617  ASP618  TYR619  PRO620  LYS621  CYS622 
 ASP623  PHE694  ASN695  SER759  ASP760  ASP761  ALA762  ILE779  LEU786  VAL792 
 PHE793  MET794  SER795  GLU796  ALA797  LYS798  CYS799  TRP800  GLU811  SER814 

> <Gold.Protein.RotatedAtoms>
  150.7890  133.8825  159.3289 H   0  0  0  0  0  0  0  0  0  0  0  0  # atno 6907 bound_to 6896
  151.6668  135.0980  160.0199 H   0  0  0  0  0  0  0  0  0  0  0  0  # atno 6908 bound_to 6896
  152.3960  133.6709  159.6312 H   0  0  0  0  0  0  0  0  0  0  0  0  # atno 6909 bound_to 6896
  144.8010  140.5156  143.5707 H   0  0  0  0  0  0  0  0  0  0  0  0  # atno 7974 bound_to 7965
  155.2495  140.3351  155.4283 H   0  0  0  0  0  0  0  0  0  0  0  0  # atno 8008 bound_to 7997
  156.2221  140.1813  156.7494 H   0  0  0  0  0  0  0  0  0  0  0  0  # atno 8009 bound_to 7997
  154.5842  140.0648  156.9132 H   0  0  0  0  0  0  0  0  0  0  0  0  # atno 8010 bound_to 7997
  139.6715  143.9737  152.2286 H   0  0  0  0  0  0  0  0  0  0  0  0  # atno 10167 bound_to 10162
  156.2536  130.4190  149.8621 H   0  0  0  0  0  0  0  0  0  0  0  0  # atno 10718 bound_to 10713
  154.4874  135.5829  153.6434 H   0  0  0  0  0  0  0  0  0  0  0  0  # atno 10763 bound_to 10752
  152.9857  135.6104  154.3168 H   0  0  0  0  0  0  0  0  0  0  0  0  # atno 10764 bound_to 10752
  154.3065  135.2846  155.2566 H   0  0  0  0  0  0  0  0  0  0  0  0  # atno 10765 bound_to 10752
  140.7672  133.8467  155.9176 H   0  0  0  0  0  0  0  0  0  0  0  0  # atno 11005 bound_to 11000
  145.5553  139.1478  143.3371 LP  0  0  0  0  0  0  0  0  0  0  0  0  # atno 17320 bound_to 7965
  146.2291  140.5690  142.8983 LP  0  0  0  0  0  0  0  0  0  0  0  0  # atno 17321 bound_to 7965
  139.9503  144.6625  150.8179 LP  0  0  0  0  0  0  0  0  0  0  0  0  # atno 17342 bound_to 10162
  140.7620  143.3187  151.2673 LP  0  0  0  0  0  0  0  0  0  0  0  0  # atno 17343 bound_to 10162
  156.6161  130.8607  151.3465 LP  0  0  0  0  0  0  0  0  0  0  0  0  # atno 17370 bound_to 10713
  157.7224  130.9576  150.1493 LP  0  0  0  0  0  0  0  0  0  0  0  0  # atno 17371 bound_to 10713
  140.9607  134.1659  157.4656 LP  0  0  0  0  0  0  0  0  0  0  0  0  # atno 17394 bound_to 11000
  139.8761  134.9944  156.5690 LP  0  0  0  0  0  0  0  0  0  0  0  0  # atno 17395 bound_to 11000

$$$$
