AV-unprocessed.smi:657|AV-procd|sdf|3226|dock3
  -GOLD-   22720 0163D 1   1.00000     0.00000
 Structure written by MMmdl.
 46 47  0  0  0  0  0  0  0  0  3 V2000
  152.7571  144.6454  158.0501 C   0  0  0  0  0  0  0  0  0  0  0  0
  151.6176  144.0531  158.9022 C   0  0  0  0  0  0  0  0  0  0  0  0
  150.8190  145.1500  159.6271 C   0  0  0  0  0  0  0  0  0  0  0  0
  152.0703  142.9839  159.8559 N   0  3  2  0  0  0  0  0  0  0  0  0
  152.8200  143.5255  161.0280 C   0  0  0  0  0  0  0  0  0  0  0  0
  153.1082  142.4480  162.0803 C   0  0  0  0  0  0  0  0  0  0  0  0
  153.9176  141.3100  161.4594 C   0  0  0  0  0  0  0  0  0  0  0  0
  153.1365  140.7293  160.2794 C   0  0  0  0  0  0  0  0  0  0  0  0
  152.7680  141.8079  159.2273 C   0  0  1  0  0  0  0  0  0  0  0  0
  151.9669  141.1307  158.0938 C   0  0  0  0  0  0  0  0  0  0  0  0
  150.8906  141.6379  157.7632 O   0  0  0  0  0  0  0  0  0  0  0  0
  152.6009  140.0200  157.6198 N   0  5  0  0  0  0  0  0  0  0  0  0
  151.9266  138.9499  156.8908 C   0  0  0  0  0  0  0  0  0  0  0  0
  151.8881  139.2899  155.3884 C   0  0  0  0  0  0  0  0  0  0  0  0
  150.4846  139.4759  154.8660 C   0  0  0  0  0  0  0  0  0  0  0  0
  149.6988  140.6657  154.8666 C   0  0  0  0  0  0  0  0  0  0  0  0
  148.5044  140.4965  154.3232 N   0  0  0  0  0  0  0  0  0  0  0  0
  148.4853  139.2001  153.9523 N   0  0  0  0  0  0  0  0  0  0  0  0
  147.3060  138.6592  153.3113 C   0  0  0  0  0  0  0  0  0  0  0  0
  149.6664  138.5611  154.2616 C   0  0  0  0  0  0  0  0  0  0  0  0
  152.3566  145.3186  157.2917 H   0  0  0  0  0  0  0  0  0  0  0  0
  153.3142  143.8685  157.5266 H   0  0  0  0  0  0  0  0  0  0  0  0
  153.4612  145.2230  158.6489 H   0  0  0  0  0  0  0  0  0  0  0  0
  150.9034  143.6284  158.1997 H   0  0  0  0  0  0  0  0  0  0  0  0
  150.3564  145.8275  158.9087 H   0  0  0  0  0  0  0  0  0  0  0  0
  151.4439  145.7568  160.2815 H   0  0  0  0  0  0  0  0  0  0  0  0
  150.0186  144.7181  160.2290 H   0  0  0  0  0  0  0  0  0  0  0  0
  153.7667  143.9542  160.6980 H   0  0  0  0  0  0  0  0  0  0  0  0
  152.2586  144.3285  161.5029 H   0  0  0  0  0  0  0  0  0  0  0  0
  153.6584  142.8824  162.9158 H   0  0  0  0  0  0  0  0  0  0  0  0
  152.1718  142.0646  162.4876 H   0  0  0  0  0  0  0  0  0  0  0  0
  154.8881  141.6769  161.1228 H   0  0  0  0  0  0  0  0  0  0  0  0
  154.1123  140.5351  162.2013 H   0  0  0  0  0  0  0  0  0  0  0  0
  153.7235  139.9366  159.8129 H   0  0  0  0  0  0  0  0  0  0  0  0
  152.2347  140.2508  160.6650 H   0  0  0  0  0  0  0  0  0  0  0  0
  153.6987  142.1787  158.7953 H   0  0  0  0  0  0  0  0  0  0  0  0
  152.4312  137.9909  157.0186 H   0  0  0  0  0  0  0  0  0  0  0  0
  150.9079  138.8043  157.2515 H   0  0  0  0  0  0  0  0  0  0  0  0
  152.4754  140.1916  155.2099 H   0  0  0  0  0  0  0  0  0  0  0  0
  152.3926  138.4993  154.8311 H   0  0  0  0  0  0  0  0  0  0  0  0
  149.9616  141.6417  155.2474 H   0  0  0  0  0  0  0  0  0  0  0  0
  147.4432  137.5965  153.1098 H   0  0  0  0  0  0  0  0  0  0  0  0
  147.1270  139.1788  152.3696 H   0  0  0  0  0  0  0  0  0  0  0  0
  146.4405  138.7873  153.9620 H   0  0  0  0  0  0  0  0  0  0  0  0
  149.8270  137.5178  154.0325 H   0  0  0  0  0  0  0  0  0  0  0  0
  151.2166  142.5878  160.2236 H   0  0  0  0  0  0  0  0  0  0  0  0
  1  2  1  0  0  0  0
  1 21  1  0  0  0  0
  1 22  1  0  0  0  0
  1 23  1  0  0  0  0
  2  3  1  0  0  0  0
  2  4  1  0  0  0  0
  2 24  1  0  0  0  0
  3 25  1  0  0  0  0
  3 26  1  0  0  0  0
  3 27  1  0  0  0  0
  4  9  1  0  0  0  0
  4  5  1  0  0  0  0
  4 46  1  0  0  0  0
  5  6  1  0  0  0  0
  5 28  1  0  0  0  0
  5 29  1  0  0  0  0
  6  7  1  0  0  0  0
  6 30  1  0  0  0  0
  6 31  1  0  0  0  0
  7  8  1  0  0  0  0
  7 32  1  0  0  0  0
  7 33  1  0  0  0  0
  8  9  1  0  0  0  0
  8 34  1  0  0  0  0
  8 35  1  0  0  0  0
  9 10  1  0  0  0  0
  9 36  1  0  0  0  0
 10 11  2  0  0  0  0
 10 12  1  0  0  0  0
 12 13  1  0  0  0  0
 13 14  1  0  0  0  0
 13 37  1  0  0  0  0
 13 38  1  0  0  0  0
 14 15  1  0  0  0  0
 14 39  1  0  0  0  0
 14 40  1  0  0  0  0
 15 20  2  0  0  0  0
 15 16  1  0  0  0  0
 16 17  2  0  0  0  0
 16 41  1  0  0  0  0
 17 18  1  0  0  0  0
 18 19  1  0  0  0  0
 18 20  1  0  0  0  0
 19 42  1  0  0  0  0
 19 43  1  0  0  0  0
 19 44  1  0  0  0  0
 20 45  1  0  0  0  0
M  CHG  1   4   1
M  CHG  1  12  -1
M  END
> <s_m_source_file>
AV-unprocessed.smi

> <i_m_source_file_index>
657

> <i_lp_mmshare_version>
43012

> <i_f3d_flags>
0

> <s_epik_input>
W0NIM11bQ0hdKFtDSDNdKU4xW0NIMl1bQ0gyXVtDSDJdW0NIMl1bQ0BIXTFDKD1PKVtOSF1bQ0gyXVtDSDJdYzJbY0hdbm4oW0NIM10pW2NIXTI=

> <s_epik_cmdline>
J2VwaWtfcHl0aG9uJywgJy1waCcsICc3LjAnLCAnLXRuJywgJzgnLCAnLW1hJywgJzIwMCcsICctbWV0YWxfYmluZGluZycsICctaW1hZScsICc8aW5maWxlLm1hZT4nLCAnLW9tYWUnLCAnPG91dGZpbGUubWFlPic=

> <r_lp_tautomer_probability>
1

> <r_epik_Ionization_Penalty>
6.1622

> <r_epik_Ionization_Penalty_Charging>
6.16146

> <r_epik_Ionization_Penalty_Neutral>
0.00073675

> <r_epik_State_Penalty>
6.18018

> <r_epik_Charging_Adjusted_Penalty>
12.3416

> <i_epik_Tot_Q>
0

> <i_epik_Tot_abs_Q>
2

> <r_epik_Metal_State_Penalty>
2.12232

> <b_epik_Metal_Only>
1

> <s_lp_Force_Field>
OPLS_2005

> <r_lp_Energy>
11.2403

> <b_lp_Chiralities_Consistent>
1

> <s_lp_Variant>
AV-unprocessed.smi:657-7

> <Gold.Version>
5.8.1

> <Gold.Id.Protein>
6NUR|6NUR_protein|mol2

> <Gold.PLP.Fitness>
54.8516

> <Gold.PLP.PLP>
-47.8114

> <Gold.PLP.part.hbond>
-1.0000

> <Gold.PLP.part.metal>
0.0000

> <Gold.PLP.part.buried>
-3.1289

> <Gold.PLP.part.nonpolar>
-42.7666

> <Gold.PLP.part.repulsive>
0.2294

> <Gold.PLP.ligand.clash>
0.0000

> <Gold.PLP.ligand.torsion>
1.1654

> <Gold.PLP.Chemscore.Hbond>
2.0000

> <Gold.PLP.Chemscore.CHOScore>
1.0000

> <Gold.PLP.Chemscore.Metal>
0.0000

> <Gold.Chemscore.Hbonds>
donor molecule, donor type, donor heavy atom, donor atom, acceptor molecule, acceptor atom, score
      P1  H  7997  8008       L1    12  2.00
      L1  C    20    45       P1  7948  0.68

> <Gold.PLP.Chemscore.Internal.Correction>
0.3710

> <Gold.Rescore>
     Score         DG    S(hbond)    S(metal)    S(lipo)     H(rot)  DE(clash)    DE(int)     intcor
     16.35     -19.14       0.84        0.00     127.26       1.57       0.22       2.57       ----

> <Gold.Chemscore.Fitness>
16.3482

> <Gold.Chemscore.DG>
-19.1404

> <Gold.Chemscore.ZeroCoef>
-5.4800

> <Gold.Chemscore.Hbond>
0.8384

> <Gold.Chemscore.Metal>
0.0000

> <Gold.Chemscore.Lipo>
127.2620

> <Gold.Chemscore.Internal_Hbond>
0.0000

> <Gold.Chemscore.DEClash>
0.2222

> <Gold.Chemscore.DEInternal>
2.5701

> <Gold.Chemscore.Rot>
1.5741

> <Gold.Chemscore.Internal.Correction>
   9.000000E+99

> <Gold.Chemscore.Hbonds>
donor molecule, donor type, donor heavy atom, donor atom, acceptor molecule, acceptor atom, score
      P1  H  7997  8008       L1    12  0.27

> <Gold.Chemscore.Hbond.Weighted>
-2.8004

> <Gold.Chemscore.Metal.Weighted>
-0.0000

> <Gold.Chemscore.Lipo.Weighted>
-14.8896

> <Gold.Chemscore.Internal_Hbond.Weighted>
0.0000

> <Gold.Chemscore.DEClash.Weighted>
0.2222

> <Gold.Chemscore.DEInternal.Weighted>
2.5701

> <Gold.Chemscore.Rot.Weighted>
4.0297

> <Gold.Chemscore.Internal.Correction.Weighted>
   9.000000E+99

> <Gold.Protein.RotatedTorsions>
[ 6907 6896 6895 6894 ] final   45.33 input  -60.11 | X-H torsion
[ 7974 7965 7964 7962 ] final  168.80 input  175.53 | X-H torsion
[ 8008 7997 7996 7995 ] final  -58.76 input   59.86 | X-H torsion
[ 10167 10162 10161 10158 ] final   88.36 input  -65.29 | X-H torsion
[ 10718 10713 10712 10709 ] final  -76.61 input   66.30 | X-H torsion
[ 10763 10752 10751 10750 ] final  -43.39 input  -60.55 | X-H torsion
[ 11005 11000 10999 10996 ] final  166.24 input  -57.11 | X-H torsion

> <Gold.Protein.ActiveResidues>
 VAL166  LYS551  ARG553  GLY616  TRP617  ASP618  TYR619  PRO620  LYS621  CYS622 
 ASP623  PHE694  ASN695  SER759  ASP760  ASP761  ALA762  ILE779  LEU786  VAL792 
 PHE793  MET794  SER795  GLU796  ALA797  LYS798  CYS799  TRP800  GLU811  SER814 

> <Gold.Protein.RotatedAtoms>
  152.2433  134.8207  160.0456 H   0  0  0  0  0  0  0  0  0  0  0  0  # atno 6907 bound_to 6896
  151.8913  133.3512  159.3807 H   0  0  0  0  0  0  0  0  0  0  0  0  # atno 6908 bound_to 6896
  150.7060  134.4847  159.5531 H   0  0  0  0  0  0  0  0  0  0  0  0  # atno 6909 bound_to 6896
  144.7376  139.8961  143.6406 H   0  0  0  0  0  0  0  0  0  0  0  0  # atno 7974 bound_to 7965
  154.4323  140.1077  156.6009 H   0  0  0  0  0  0  0  0  0  0  0  0  # atno 8008 bound_to 7997
  155.5912  140.3492  155.4548 H   0  0  0  0  0  0  0  0  0  0  0  0  # atno 8009 bound_to 7997
  156.0245  140.1247  157.0313 H   0  0  0  0  0  0  0  0  0  0  0  0  # atno 8010 bound_to 7997
  139.8681  144.6508  150.8981 H   0  0  0  0  0  0  0  0  0  0  0  0  # atno 10167 bound_to 10162
  156.0170  130.4470  150.3219 H   0  0  0  0  0  0  0  0  0  0  0  0  # atno 10718 bound_to 10713
  153.9947  135.6701  153.4756 H   0  0  0  0  0  0  0  0  0  0  0  0  # atno 10763 bound_to 10752
  153.0689  135.4985  154.8257 H   0  0  0  0  0  0  0  0  0  0  0  0  # atno 10764 bound_to 10752
  154.7088  135.3093  154.9192 H   0  0  0  0  0  0  0  0  0  0  0  0  # atno 10765 bound_to 10752
  140.2644  134.7876  157.3619 H   0  0  0  0  0  0  0  0  0  0  0  0  # atno 11005 bound_to 11000
  146.1106  139.4111  143.0290 LP  0  0  0  0  0  0  0  0  0  0  0  0  # atno 17320 bound_to 7965
  145.7448  140.9995  143.1282 LP  0  0  0  0  0  0  0  0  0  0  0  0  # atno 17321 bound_to 7965
  140.7765  143.3687  151.1690 LP  0  0  0  0  0  0  0  0  0  0  0  0  # atno 17342 bound_to 10162
  139.7310  143.9072  152.3019 LP  0  0  0  0  0  0  0  0  0  0  0  0  # atno 17343 bound_to 10162
  157.1319  131.0274  151.2965 LP  0  0  0  0  0  0  0  0  0  0  0  0  # atno 17370 bound_to 10713
  157.4543  130.7616  149.7179 LP  0  0  0  0  0  0  0  0  0  0  0  0  # atno 17371 bound_to 10713
  140.1433  134.4943  155.8015 LP  0  0  0  0  0  0  0  0  0  0  0  0  # atno 17394 bound_to 11000
  141.2186  133.6834  156.7249 LP  0  0  0  0  0  0  0  0  0  0  0  0  # atno 17395 bound_to 11000

$$$$
