AV-unprocessed.smi:3155|AV-procd|sdf|12026|dock6
  -GOLD-   2272017443D 1   1.00000     0.00000
 Structure written by MMmdl.
 38 39  0  0  0  0  0  0  0  0  2 V2000
  154.3593  144.7704  165.1523 C   0  0  0  0  0  0  0  0  0  0  0  0
  155.3543  143.5932  165.1583 C   0  0  1  0  0  0  0  0  0  0  0  0
  155.2461  142.7401  166.4393 C   0  0  0  0  0  0  0  0  0  0  0  0
  155.8763  143.3606  167.5908 N   0  0  0  0  0  0  0  0  0  0  0  0
  155.5461  144.5437  168.2182 C   0  0  0  0  0  0  0  0  0  0  0  0
  156.4166  144.7085  169.2571 C   0  0  0  0  0  0  0  0  0  0  0  0
  157.2483  143.5561  169.1884 C   0  0  0  0  0  0  0  0  0  0  0  0
  156.9200  142.7498  168.1917 N   0  0  0  0  0  0  0  0  0  0  0  0
  155.1613  142.7242  163.9762 N   0  3  0  0  0  0  0  0  0  0  0  0
  153.7536  142.4629  163.6020 C   0  0  0  0  0  0  0  0  0  0  0  0
  153.5963  142.1459  162.1081 C   0  0  0  0  0  0  0  0  0  0  0  0
  154.1842  141.1769  161.6251 O   0  0  0  0  0  0  0  0  0  0  0  0
  152.8100  142.9519  161.3653 N   0  0  0  0  0  0  0  0  0  0  0  0
  152.1095  144.1168  161.9029 C   0  0  0  0  0  0  0  0  0  0  0  0
  151.5681  144.8716  160.6887 C   0  0  0  0  0  0  0  0  0  0  0  0
  151.4260  143.7989  159.6178 C   0  0  0  0  0  0  0  0  0  0  0  0
  152.5385  142.7993  159.9361 C   0  0  0  0  0  0  0  0  0  0  0  0
  154.5174  145.4306  166.0054 H   0  0  0  0  0  0  0  0  0  0  0  0
  153.3288  144.4167  165.1945 H   0  0  0  0  0  0  0  0  0  0  0  0
  154.4641  145.3854  164.2590 H   0  0  0  0  0  0  0  0  0  0  0  0
  156.3675  143.9955  165.1114 H   0  0  0  0  0  0  0  0  0  0  0  0
  154.1989  142.5512  166.6804 H   0  0  0  0  0  0  0  0  0  0  0  0
  155.7110  141.7651  166.2855 H   0  0  0  0  0  0  0  0  0  0  0  0
  154.7309  145.1643  167.8763 H   0  0  0  0  0  0  0  0  0  0  0  0
  156.4528  145.5265  169.9613 H   0  0  0  0  0  0  0  0  0  0  0  0
  158.0737  143.2826  169.8294 H   0  0  0  0  0  0  0  0  0  0  0  0
  155.5943  143.1805  163.1856 H   0  0  0  0  0  0  0  0  0  0  0  0
  153.3676  141.6265  164.1843 H   0  0  0  0  0  0  0  0  0  0  0  0
  153.1532  143.3416  163.8408 H   0  0  0  0  0  0  0  0  0  0  0  0
  151.2905  143.7756  162.5379 H   0  0  0  0  0  0  0  0  0  0  0  0
  152.7634  144.7506  162.5040 H   0  0  0  0  0  0  0  0  0  0  0  0
  150.6314  145.3899  160.8960 H   0  0  0  0  0  0  0  0  0  0  0  0
  152.2969  145.6160  160.3655 H   0  0  0  0  0  0  0  0  0  0  0  0
  150.4557  143.3105  159.7192 H   0  0  0  0  0  0  0  0  0  0  0  0
  151.4933  144.1991  158.6056 H   0  0  0  0  0  0  0  0  0  0  0  0
  153.4403  143.0424  159.3724 H   0  0  0  0  0  0  0  0  0  0  0  0
  152.2350  141.7846  159.6759 H   0  0  0  0  0  0  0  0  0  0  0  0
  155.6331  141.8444  164.1299 H   0  0  0  0  0  0  0  0  0  0  0  0
  1  2  1  0  0  0  0
  1 18  1  0  0  0  0
  1 19  1  0  0  0  0
  1 20  1  0  0  0  0
  2  3  1  0  0  0  0
  2  9  1  0  0  0  0
  2 21  1  0  0  0  0
  3  4  1  0  0  0  0
  3 22  1  0  0  0  0
  3 23  1  0  0  0  0
  4  8  1  0  0  0  0
  4  5  1  0  0  0  0
  5  6  2  0  0  0  0
  5 24  1  0  0  0  0
  6  7  1  0  0  0  0
  6 25  1  0  0  0  0
  7  8  2  0  0  0  0
  7 26  1  0  0  0  0
  9 10  1  0  0  0  0
  9 27  1  0  0  0  0
  9 38  1  0  0  0  0
 10 11  1  0  0  0  0
 10 28  1  0  0  0  0
 10 29  1  0  0  0  0
 11 12  2  0  0  0  0
 11 13  1  0  0  0  0
 13 17  1  0  0  0  0
 13 14  1  0  0  0  0
 14 15  1  0  0  0  0
 14 30  1  0  0  0  0
 14 31  1  0  0  0  0
 15 16  1  0  0  0  0
 15 32  1  0  0  0  0
 15 33  1  0  0  0  0
 16 17  1  0  0  0  0
 16 34  1  0  0  0  0
 16 35  1  0  0  0  0
 17 36  1  0  0  0  0
 17 37  1  0  0  0  0
M  CHG  1   9   1
M  END
> <s_m_source_file>
AV-unprocessed.smi

> <i_m_source_file_index>
3155

> <i_lp_mmshare_version>
43012

> <i_f3d_flags>
0

> <s_epik_input>
bjFbY0hdW2NIXVtjSF1uMVtDSDJdW0NAQEhdKFtDSDNdKVtOSF1bQ0gyXUMoPU8pTjJbQ0gyXVtDSDJdW0NIMl1bQ0gyXTI=

> <s_epik_cmdline>
J2VwaWtfcHl0aG9uJywgJy1waCcsICc3LjAnLCAnLXRuJywgJzgnLCAnLW1hJywgJzIwMCcsICctbWV0YWxfYmluZGluZycsICctaW1hZScsICc8aW5maWxlLm1hZT4nLCAnLW9tYWUnLCAnPG91dGZpbGUubWFlPic=

> <r_lp_tautomer_probability>
1

> <r_epik_Ionization_Penalty>
0.120138

> <r_epik_Ionization_Penalty_Charging>
0.120135

> <r_epik_Ionization_Penalty_Neutral>
3.43791e-06

> <r_epik_State_Penalty>
0.109683

> <r_epik_Charging_Adjusted_Penalty>
0.229818

> <i_epik_Tot_Q>
1

> <i_epik_Tot_abs_Q>
1

> <r_epik_Metal_State_Penalty>
0.109693

> <b_epik_Metal_Only>
0

> <s_lp_Force_Field>
OPLS_2005

> <r_lp_Energy>
27.7776

> <b_lp_Chiralities_Consistent>
1

> <s_lp_Variant>
AV-unprocessed.smi:3155-2

> <Gold.Version>
5.8.1

> <Gold.Id.Protein>
6NUR|6NUR_protein|mol2

> <Gold.PLP.Fitness>
44.5189

> <Gold.PLP.PLP>
-45.5736

> <Gold.PLP.part.hbond>
-0.9076

> <Gold.PLP.part.metal>
0.0000

> <Gold.PLP.part.buried>
-5.2918

> <Gold.PLP.part.nonpolar>
-39.0193

> <Gold.PLP.part.repulsive>
0.0418

> <Gold.PLP.ligand.clash>
0.0000

> <Gold.PLP.ligand.torsion>
0.5417

> <Gold.PLP.Chemscore.Hbond>
0.0000

> <Gold.PLP.Chemscore.CHOScore>
0.0000

> <Gold.PLP.Chemscore.Metal>
0.0000

> <Gold.PLP.Chemscore.Internal.Correction>
0.0288

> <Gold.Rescore>
     Score         DG    S(hbond)    S(metal)    S(lipo)     H(rot)  DE(clash)    DE(int)     intcor
     10.86     -12.98       0.00        0.00     104.25       1.84       1.58       0.53       ----

> <Gold.Chemscore.Fitness>
10.8649

> <Gold.Chemscore.DG>
-12.9753

> <Gold.Chemscore.ZeroCoef>
-5.4800

> <Gold.Chemscore.Hbond>
0.0000

> <Gold.Chemscore.Metal>
0.0000

> <Gold.Chemscore.Lipo>
104.2472

> <Gold.Chemscore.Internal_Hbond>
0.0000

> <Gold.Chemscore.DEClash>
1.5778

> <Gold.Chemscore.DEInternal>
0.5325

> <Gold.Chemscore.Rot>
1.8366

> <Gold.Chemscore.Internal.Correction>
   9.000000E+99

> <Gold.Chemscore.Hbond.Weighted>
-0.0000

> <Gold.Chemscore.Metal.Weighted>
-0.0000

> <Gold.Chemscore.Lipo.Weighted>
-12.1969

> <Gold.Chemscore.Internal_Hbond.Weighted>
0.0000

> <Gold.Chemscore.DEClash.Weighted>
1.5778

> <Gold.Chemscore.DEInternal.Weighted>
0.5325

> <Gold.Chemscore.Rot.Weighted>
4.7017

> <Gold.Chemscore.Internal.Correction.Weighted>
   9.000000E+99

> <Gold.Protein.RotatedTorsions>
[ 6907 6896 6895 6894 ] final  -75.27 input  -60.11 | X-H torsion
[ 7974 7965 7964 7962 ] final -149.74 input  175.53 | X-H torsion
[ 8008 7997 7996 7995 ] final   45.13 input   59.86 | X-H torsion
[ 10167 10162 10161 10158 ] final   51.05 input  -65.29 | X-H torsion
[ 10718 10713 10712 10709 ] final  -37.44 input   66.30 | X-H torsion
[ 10763 10752 10751 10750 ] final  -55.69 input  -60.55 | X-H torsion
[ 11005 11000 10999 10996 ] final  111.48 input  -57.11 | X-H torsion

> <Gold.Protein.ActiveResidues>
 VAL166  LYS551  ARG553  GLY616  TRP617  ASP618  TYR619  PRO620  LYS621  CYS622 
 ASP623  PHE694  ASN695  SER759  ASP760  ASP761  ALA762  ILE779  LEU786  VAL792 
 PHE793  MET794  SER795  GLU796  ALA797  LYS798  CYS799  TRP800  GLU811  SER814 

> <Gold.Protein.RotatedAtoms>
  150.7065  134.4746  159.5441 H   0  0  0  0  0  0  0  0  0  0  0  0  # atno 6907 bound_to 6896
  152.2396  134.8239  160.0471 H   0  0  0  0  0  0  0  0  0  0  0  0  # atno 6908 bound_to 6896
  151.9026  133.3506  159.3872 H   0  0  0  0  0  0  0  0  0  0  0  0  # atno 6909 bound_to 6896
  144.7949  140.5024  143.5747 H   0  0  0  0  0  0  0  0  0  0  0  0  # atno 7974 bound_to 7965
  155.3308  140.3402  155.4239 H   0  0  0  0  0  0  0  0  0  0  0  0  # atno 8008 bound_to 7997
  156.1862  140.1681  156.8217 H   0  0  0  0  0  0  0  0  0  0  0  0  # atno 8009 bound_to 7997
  154.5389  140.0729  156.8459 H   0  0  0  0  0  0  0  0  0  0  0  0  # atno 8010 bound_to 7997
  140.2660  144.3319  150.6304 H   0  0  0  0  0  0  0  0  0  0  0  0  # atno 10167 bound_to 10162
  156.3152  130.4258  149.8012 H   0  0  0  0  0  0  0  0  0  0  0  0  # atno 10718 bound_to 10713
  154.1948  135.6421  153.5070 H   0  0  0  0  0  0  0  0  0  0  0  0  # atno 10763 bound_to 10752
  153.0026  135.5437  154.6377 H   0  0  0  0  0  0  0  0  0  0  0  0  # atno 10764 bound_to 10752
  154.5775  135.2922  155.0739 H   0  0  0  0  0  0  0  0  0  0  0  0  # atno 10765 bound_to 10752
  139.8904  134.9509  156.6438 H   0  0  0  0  0  0  0  0  0  0  0  0  # atno 11005 bound_to 11000
  145.5699  139.1483  143.3294 LP  0  0  0  0  0  0  0  0  0  0  0  0  # atno 17320 bound_to 7965
  146.2214  140.5833  142.9015 LP  0  0  0  0  0  0  0  0  0  0  0  0  # atno 17321 bound_to 7965
  140.5928  143.2167  151.7221 LP  0  0  0  0  0  0  0  0  0  0  0  0  # atno 17342 bound_to 10162
  139.5003  144.3913  152.0277 LP  0  0  0  0  0  0  0  0  0  0  0  0  # atno 17343 bound_to 10162
  156.5341  130.8270  151.3247 LP  0  0  0  0  0  0  0  0  0  0  0  0  # atno 17370 bound_to 10713
  157.7400  130.9842  150.2348 LP  0  0  0  0  0  0  0  0  0  0  0  0  # atno 17371 bound_to 10713
  140.7573  133.8847  155.8391 LP  0  0  0  0  0  0  0  0  0  0  0  0  # atno 17394 bound_to 11000
  140.9951  134.1226  157.4371 LP  0  0  0  0  0  0  0  0  0  0  0  0  # atno 17395 bound_to 11000

$$$$
