AV-unprocessed.smi:1571|AV-procd|sdf|6326|dock3
  -GOLD-   22720 6533D 1   1.00000     0.00000
 Structure written by MMmdl.
 37 38  0  0  0  0  0  0  0  0  1 V2000
  145.7860  132.0759  152.3692 C   0  0  0  0  0  0  0  0  0  0  0  0
  147.1287  132.0499  153.0415 C   0  0  0  0  0  0  0  0  0  0  0  0
  147.7995  130.9118  153.0932 N   0  0  0  0  0  0  0  0  0  0  0  0
  148.9869  131.1970  153.7733 O   0  0  0  0  0  0  0  0  0  0  0  0
  148.9856  132.5119  154.1078 C   0  0  0  0  0  0  0  0  0  0  0  0
  150.1791  133.0073  154.8523 C   0  0  0  0  0  0  0  0  0  0  0  0
  147.8371  133.1145  153.6714 C   0  0  0  0  0  0  0  0  0  0  0  0
  147.4144  134.5562  153.8226 C   0  0  0  0  0  0  0  0  0  0  0  0
  148.2192  135.2784  154.9107 C   0  0  0  0  0  0  0  0  0  0  0  0
  147.9659  135.1181  156.1057 O   0  0  0  0  0  0  0  0  0  0  0  0
  149.2013  136.0775  154.4656 N   0  0  0  0  0  0  0  0  0  0  0  0
  150.1165  136.8624  155.2905 C   0  0  0  0  0  0  0  0  0  0  0  0
  149.3100  137.8829  156.1168 C   0  0  0  0  0  0  0  0  0  0  0  0
  150.1837  138.6890  157.0883 C   0  0  0  0  0  0  0  0  0  0  0  0
  151.4745  139.6302  156.1750 S   0  0  0  0  0  0  0  0  0  0  0  0
  150.7949  140.5491  155.2489 O   0  0  0  0  0  0  0  0  0  0  0  0
  152.4636  140.1431  157.1347 O   0  0  0  0  0  0  0  0  0  0  0  0
  152.2444  138.2884  155.1788 C   0  0  0  0  0  0  0  0  0  0  0  0
  151.1777  137.5198  154.3868 C   0  0  0  0  0  0  0  0  0  0  0  0
  145.3264  133.0622  152.4274 H   0  0  0  0  0  0  0  0  0  0  0  0
  145.1013  131.3674  152.8357 H   0  0  0  0  0  0  0  0  0  0  0  0
  145.8708  131.8122  151.3147 H   0  0  0  0  0  0  0  0  0  0  0  0
  150.0812  134.0652  155.0952 H   0  0  0  0  0  0  0  0  0  0  0  0
  151.0845  132.8794  154.2589 H   0  0  0  0  0  0  0  0  0  0  0  0
  150.3049  132.4593  155.7860 H   0  0  0  0  0  0  0  0  0  0  0  0
  147.5419  135.0997  152.8860 H   0  0  0  0  0  0  0  0  0  0  0  0
  146.3547  134.6301  154.0683 H   0  0  0  0  0  0  0  0  0  0  0  0
  149.3301  136.1437  153.4661 H   0  0  0  0  0  0  0  0  0  0  0  0
  150.6362  136.2052  155.9900 H   0  0  0  0  0  0  0  0  0  0  0  0
  148.7807  138.5654  155.4506 H   0  0  0  0  0  0  0  0  0  0  0  0
  148.5428  137.3604  156.6895 H   0  0  0  0  0  0  0  0  0  0  0  0
  149.5835  139.3983  157.6580 H   0  0  0  0  0  0  0  0  0  0  0  0
  150.6811  138.0297  157.7996 H   0  0  0  0  0  0  0  0  0  0  0  0
  152.9791  138.7382  154.5108 H   0  0  0  0  0  0  0  0  0  0  0  0
  152.7779  137.6224  155.8572 H   0  0  0  0  0  0  0  0  0  0  0  0
  151.6719  136.7521  153.7904 H   0  0  0  0  0  0  0  0  0  0  0  0
  150.6953  138.1930  153.6768 H   0  0  0  0  0  0  0  0  0  0  0  0
  1  2  1  0  0  0  0
  1 20  1  0  0  0  0
  1 21  1  0  0  0  0
  1 22  1  0  0  0  0
  2  7  1  0  0  0  0
  2  3  2  0  0  0  0
  3  4  1  0  0  0  0
  4  5  1  0  0  0  0
  5  6  1  0  0  0  0
  5  7  2  0  0  0  0
  6 23  1  0  0  0  0
  6 24  1  0  0  0  0
  6 25  1  0  0  0  0
  7  8  1  0  0  0  0
  8  9  1  0  0  0  0
  8 26  1  0  0  0  0
  8 27  1  0  0  0  0
  9 10  2  0  0  0  0
  9 11  1  0  0  0  0
 11 12  1  0  0  0  0
 11 28  1  0  0  0  0
 12 19  1  0  0  0  0
 12 13  1  0  0  0  0
 12 29  1  0  0  0  0
 13 14  1  0  0  0  0
 13 30  1  0  0  0  0
 13 31  1  0  0  0  0
 14 15  1  0  0  0  0
 14 32  1  0  0  0  0
 14 33  1  0  0  0  0
 15 16  2  0  0  0  0
 15 17  2  0  0  0  0
 15 18  1  0  0  0  0
 18 19  1  0  0  0  0
 18 34  1  0  0  0  0
 18 35  1  0  0  0  0
 19 36  1  0  0  0  0
 19 37  1  0  0  0  0
M  END
> <s_m_source_file>
AV-unprocessed.smi

> <i_m_source_file_index>
1571

> <i_lp_mmshare_version>
43012

> <i_f3d_flags>
0

> <s_epik_input>
W0NIM11jMW5vYyhbQ0gzXSljMVtDSDJdQyg9TylbTkhdW0NIXShbQ0gyXVtDSDJdMilbQ0gyXVtDSDJdUzIoPU8pPU8=

> <s_epik_cmdline>
J2VwaWtfcHl0aG9uJywgJy1waCcsICc3LjAnLCAnLXRuJywgJzgnLCAnLW1hJywgJzIwMCcsICctbWV0YWxfYmluZGluZycsICctaW1hZScsICc8aW5maWxlLm1hZT4nLCAnLW9tYWUnLCAnPG91dGZpbGUubWFlPic=

> <r_lp_tautomer_probability>
1

> <r_epik_Ionization_Penalty>
4.0065e-08

> <r_epik_Ionization_Penalty_Charging>
0

> <r_epik_Ionization_Penalty_Neutral>
4.0065e-08

> <r_epik_State_Penalty>
-0

> <r_epik_Charging_Adjusted_Penalty>
0

> <i_epik_Tot_Q>
0

> <i_epik_Tot_abs_Q>
0

> <r_epik_Metal_State_Penalty>
-0

> <b_epik_Metal_Only>
0

> <s_lp_Force_Field>
OPLS_2005

> <r_lp_Energy>
-11.0004

> <b_lp_Chiralities_Consistent>
1

> <s_lp_Variant>
AV-unprocessed.smi:1571-1

> <Gold.Version>
5.8.1

> <Gold.Id.Protein>
6NUR|6NUR_protein|mol2

> <Gold.PLP.Fitness>
32.2223

> <Gold.PLP.PLP>
-24.2872

> <Gold.PLP.part.hbond>
-3.0000

> <Gold.PLP.part.metal>
0.0000

> <Gold.PLP.part.buried>
-1.9696

> <Gold.PLP.part.nonpolar>
-18.9811

> <Gold.PLP.part.repulsive>
0.2612

> <Gold.PLP.ligand.clash>
0.0000

> <Gold.PLP.ligand.torsion>
0.5022

> <Gold.PLP.Chemscore.Hbond>
2.9760

> <Gold.PLP.Chemscore.CHOScore>
0.0000

> <Gold.PLP.Chemscore.Metal>
0.0000

> <Gold.Chemscore.Hbonds>
donor molecule, donor type, donor heavy atom, donor atom, acceptor molecule, acceptor atom, score
      L1  H    11    28       P1  7948  1.00
      P1  H  7989  7998       L1    16  0.96
      P1  H  7997  8009       L1    17  1.00

> <Gold.PLP.Chemscore.Internal.Correction>
0.0114

> <Gold.Rescore>
     Score         DG    S(hbond)    S(metal)    S(lipo)     H(rot)  DE(clash)    DE(int)     intcor
     15.95     -17.56       2.90        0.00      52.30       1.46       0.01       1.60       ----

> <Gold.Chemscore.Fitness>
15.9467

> <Gold.Chemscore.DG>
-17.5617

> <Gold.Chemscore.ZeroCoef>
-5.4800

> <Gold.Chemscore.Hbond>
2.9043

> <Gold.Chemscore.Metal>
0.0000

> <Gold.Chemscore.Lipo>
52.2993

> <Gold.Chemscore.Internal_Hbond>
0.0000

> <Gold.Chemscore.DEClash>
0.0112

> <Gold.Chemscore.DEInternal>
1.6037

> <Gold.Chemscore.Rot>
1.4601

> <Gold.Chemscore.Internal.Correction>
   9.000000E+99

> <Gold.Chemscore.Hbonds>
donor molecule, donor type, donor heavy atom, donor atom, acceptor molecule, acceptor atom, score
      L1  H    11    28       P1  7948  0.74
      P1  H  7989  7998       L1    16  0.87
      P1  H  7997  8009       L1    17  0.90

> <Gold.Chemscore.Hbond.Weighted>
-9.7005

> <Gold.Chemscore.Metal.Weighted>
-0.0000

> <Gold.Chemscore.Lipo.Weighted>
-6.1190

> <Gold.Chemscore.Internal_Hbond.Weighted>
0.0000

> <Gold.Chemscore.DEClash.Weighted>
0.0112

> <Gold.Chemscore.DEInternal.Weighted>
1.6037

> <Gold.Chemscore.Rot.Weighted>
3.7379

> <Gold.Chemscore.Internal.Correction.Weighted>
   9.000000E+99

> <Gold.Protein.RotatedTorsions>
[ 6907 6896 6895 6894 ] final    3.16 input  -60.11 | X-H torsion
[ 7974 7965 7964 7962 ] final   -3.43 input  175.53 | X-H torsion
[ 8008 7997 7996 7995 ] final -175.33 input   59.86 | X-H torsion
[ 10167 10162 10161 10158 ] final   -4.99 input  -65.29 | X-H torsion
[ 10718 10713 10712 10709 ] final    8.34 input   66.30 | X-H torsion
[ 10763 10752 10751 10750 ] final   68.04 input  -60.55 | X-H torsion
[ 11005 11000 10999 10996 ] final  175.93 input  -57.11 | X-H torsion

> <Gold.Protein.ActiveResidues>
 VAL166  LYS551  ARG553  GLY616  TRP617  ASP618  TYR619  PRO620  LYS621  CYS622 
 ASP623  PHE694  ASN695  SER759  ASP760  ASP761  ALA762  ILE779  LEU786  VAL792 
 PHE793  MET794  SER795  GLU796  ALA797  LYS798  CYS799  TRP800  GLU811  SER814 

> <Gold.Protein.RotatedAtoms>
  151.6205  135.1032  160.0100 H   0  0  0  0  0  0  0  0  0  0  0  0  # atno 6907 bound_to 6896
  152.4160  133.7035  159.6448 H   0  0  0  0  0  0  0  0  0  0  0  0  # atno 6908 bound_to 6896
  150.8048  133.8456  159.3232 H   0  0  0  0  0  0  0  0  0  0  0  0  # atno 6909 bound_to 6896
  146.2389  140.1720  142.8332 H   0  0  0  0  0  0  0  0  0  0  0  0  # atno 7974 bound_to 7965
  155.9813  140.1182  157.0724 H   0  0  0  0  0  0  0  0  0  0  0  0  # atno 8008 bound_to 7997
  154.4183  140.1144  156.5507 H   0  0  0  0  0  0  0  0  0  0  0  0  # atno 8009 bound_to 7997
  155.6467  140.3473  155.4736 H   0  0  0  0  0  0  0  0  0  0  0  0  # atno 8010 bound_to 7997
  140.6947  143.6360  150.8479 H   0  0  0  0  0  0  0  0  0  0  0  0  # atno 10167 bound_to 10162
  156.9502  130.5894  149.5656 H   0  0  0  0  0  0  0  0  0  0  0  0  # atno 10718 bound_to 10713
  153.0216  135.5262  154.7073 H   0  0  0  0  0  0  0  0  0  0  0  0  # atno 10763 bound_to 10752
  154.6165  135.2884  155.0376 H   0  0  0  0  0  0  0  0  0  0  0  0  # atno 10764 bound_to 10752
  154.1378  135.6583  153.4988 H   0  0  0  0  0  0  0  0  0  0  0  0  # atno 10765 bound_to 10752
  140.3675  134.7059  157.4371 H   0  0  0  0  0  0  0  0  0  0  0  0  # atno 11005 bound_to 11000
  145.0004  140.8626  143.5285 LP  0  0  0  0  0  0  0  0  0  0  0  0  # atno 17320 bound_to 7965
  145.1738  139.2389  143.5328 LP  0  0  0  0  0  0  0  0  0  0  0  0  # atno 17321 bound_to 7965
  140.0077  143.5676  152.2851 LP  0  0  0  0  0  0  0  0  0  0  0  0  # atno 17342 bound_to 10162
  139.6389  144.7653  151.2381 LP  0  0  0  0  0  0  0  0  0  0  0  0  # atno 17343 bound_to 10162
  156.0366  130.5453  150.8669 LP  0  0  0  0  0  0  0  0  0  0  0  0  # atno 17370 bound_to 10713
  157.5727  131.0946  150.9393 LP  0  0  0  0  0  0  0  0  0  0  0  0  # atno 17371 bound_to 10713
  140.0577  134.6039  155.8785 LP  0  0  0  0  0  0  0  0  0  0  0  0  # atno 17394 bound_to 11000
  141.1965  133.6592  156.5694 LP  0  0  0  0  0  0  0  0  0  0  0  0  # atno 17395 bound_to 11000

$$$$
