AV-unprocessed.smi:213|AV-procd|sdf|1643|dock8
  -GOLD-   2262020 13D 1   1.00000     0.00000
 Structure written by MMmdl.
 58 61  0  0  0  0  0  0  0  0  1 V2000
  149.0180  133.9687  154.1641 C   0  0  0  0  0  0  0  0  0  0  0  0
  150.0687  134.4227  155.1937 C   0  0  2  0  0  0  0  0  0  0  0  0
  150.3647  133.3327  156.2490 C   0  0  0  0  0  0  0  0  0  0  0  0
  150.9619  132.0992  155.7344 N   0  0  0  0  0  0  0  0  0  0  0  0
  149.9358  131.2002  155.2169 C   0  0  0  0  0  0  0  0  0  0  0  0
  150.5369  129.8964  154.6643 C   0  0  0  0  0  0  0  0  0  0  0  0
  151.2974  129.2553  155.6828 O   0  0  0  0  0  0  0  0  0  0  0  0
  152.3420  130.0802  156.1877 C   0  0  0  0  0  0  0  0  0  0  0  0
  151.7504  131.3889  156.7402 C   0  0  0  0  0  0  0  0  0  0  0  0
  149.6660  135.6774  155.8359 N   0  0  0  0  0  0  0  0  0  0  0  0
  148.4553  135.7485  156.6520 C   0  0  0  0  0  0  0  0  0  0  0  0
  150.3854  136.8195  155.6600 C   0  0  0  0  0  0  0  0  0  0  0  0
  151.2795  136.8558  154.6358 N   0  0  0  0  0  0  0  0  0  0  0  0
  152.0121  137.9490  154.4074 C   0  0  0  0  0  0  0  0  0  0  0  0
  152.0157  139.1036  155.0738 N   0  0  0  0  0  0  0  0  0  0  0  0
  151.1333  139.0752  156.1119 C   0  0  0  0  0  0  0  0  0  0  0  0
  150.2863  137.9878  156.4758 C   0  0  0  0  0  0  0  0  0  0  0  0
  149.5462  138.3371  157.6017 N   0  0  0  0  0  0  0  0  0  0  0  0
  149.9214  139.5558  157.8757 C   0  0  0  0  0  0  0  0  0  0  0  0
  150.8778  140.0738  157.0343 N   0  0  0  0  0  0  0  0  0  0  0  0
  151.4860  141.3894  157.1124 C   0  0  0  0  0  0  0  0  0  0  0  0
  152.1090  141.6886  158.4929 C   0  0  1  0  0  0  0  0  0  0  0  0
  153.2670  140.8870  158.6129 O   0  0  0  0  0  0  0  0  0  0  0  0
  152.4940  143.1686  158.7119 C   0  0  2  0  0  0  0  0  0  0  0  0
  152.4848  143.6173  160.1740 C   0  0  0  0  0  0  0  0  0  0  0  0
  152.3295  145.1254  160.0777 C   0  0  0  0  0  0  0  0  0  0  0  0
  151.7429  145.3454  158.6810 C   0  0  0  0  0  0  0  0  0  0  0  0
  151.5223  144.0430  158.1572 O   0  0  0  0  0  0  0  0  0  0  0  0
  149.3625  133.0948  153.6111 H   0  0  0  0  0  0  0  0  0  0  0  0
  148.8145  134.7541  153.4360 H   0  0  0  0  0  0  0  0  0  0  0  0
  148.0731  133.7046  154.6393 H   0  0  0  0  0  0  0  0  0  0  0  0
  151.0015  134.6038  154.6670 H   0  0  0  0  0  0  0  0  0  0  0  0
  151.0145  133.7489  157.0205 H   0  0  0  0  0  0  0  0  0  0  0  0
  149.4302  133.0834  156.7531 H   0  0  0  0  0  0  0  0  0  0  0  0
  149.2215  130.9603  156.0062 H   0  0  0  0  0  0  0  0  0  0  0  0
  149.3716  131.6975  154.4271 H   0  0  0  0  0  0  0  0  0  0  0  0
  149.7457  129.2239  154.3328 H   0  0  0  0  0  0  0  0  0  0  0  0
  151.1703  130.0988  153.7991 H   0  0  0  0  0  0  0  0  0  0  0  0
  152.8728  129.5426  156.9734 H   0  0  0  0  0  0  0  0  0  0  0  0
  153.0648  130.2878  155.3970 H   0  0  0  0  0  0  0  0  0  0  0  0
  152.5704  132.0126  157.0931 H   0  0  0  0  0  0  0  0  0  0  0  0
  151.1288  131.1662  157.6086 H   0  0  0  0  0  0  0  0  0  0  0  0
  147.8847  136.6490  156.4220 H   0  0  0  0  0  0  0  0  0  0  0  0
  148.7115  135.7629  157.7117 H   0  0  0  0  0  0  0  0  0  0  0  0
  147.8038  134.8932  156.4763 H   0  0  0  0  0  0  0  0  0  0  0  0
  152.6935  137.8893  153.5717 H   0  0  0  0  0  0  0  0  0  0  0  0
  149.5177  140.1075  158.7122 H   0  0  0  0  0  0  0  0  0  0  0  0
  152.2457  141.4567  156.3325 H   0  0  0  0  0  0  0  0  0  0  0  0
  150.7257  142.1340  156.8718 H   0  0  0  0  0  0  0  0  0  0  0  0
  151.4171  141.3795  159.2773 H   0  0  0  0  0  0  0  0  0  0  0  0
  153.6667  141.0602  159.4514 H   0  0  0  0  0  0  0  0  0  0  0  0
  153.4667  143.3820  158.2639 H   0  0  0  0  0  0  0  0  0  0  0  0
  151.6221  143.1932  160.6903 H   0  0  0  0  0  0  0  0  0  0  0  0
  153.3824  143.3188  160.7163 H   0  0  0  0  0  0  0  0  0  0  0  0
  151.6794  145.5101  160.8638 H   0  0  0  0  0  0  0  0  0  0  0  0
  153.2955  145.6241  160.1642 H   0  0  0  0  0  0  0  0  0  0  0  0
  150.8124  145.9128  158.7031 H   0  0  0  0  0  0  0  0  0  0  0  0
  152.4514  145.8767  158.0444 H   0  0  0  0  0  0  0  0  0  0  0  0
  1  2  1  0  0  0  0
  1 29  1  0  0  0  0
  1 30  1  0  0  0  0
  1 31  1  0  0  0  0
  2  3  1  0  0  0  0
  2 10  1  0  0  0  0
  2 32  1  0  0  0  0
  3  4  1  0  0  0  0
  3 33  1  0  0  0  0
  3 34  1  0  0  0  0
  4  9  1  0  0  0  0
  4  5  1  0  0  0  0
  5  6  1  0  0  0  0
  5 35  1  0  0  0  0
  5 36  1  0  0  0  0
  6  7  1  0  0  0  0
  6 37  1  0  0  0  0
  6 38  1  0  0  0  0
  7  8  1  0  0  0  0
  8  9  1  0  0  0  0
  8 39  1  0  0  0  0
  8 40  1  0  0  0  0
  9 41  1  0  0  0  0
  9 42  1  0  0  0  0
 10 11  1  0  0  0  0
 10 12  1  0  0  0  0
 11 43  1  0  0  0  0
 11 44  1  0  0  0  0
 11 45  1  0  0  0  0
 12 17  1  0  0  0  0
 12 13  2  0  0  0  0
 13 14  1  0  0  0  0
 14 15  2  0  0  0  0
 14 46  1  0  0  0  0
 15 16  1  0  0  0  0
 16 20  1  0  0  0  0
 16 17  2  0  0  0  0
 17 18  1  0  0  0  0
 18 19  2  0  0  0  0
 19 20  1  0  0  0  0
 19 47  1  0  0  0  0
 20 21  1  0  0  0  0
 21 22  1  0  0  0  0
 21 48  1  0  0  0  0
 21 49  1  0  0  0  0
 22 23  1  0  0  0  0
 22 24  1  0  0  0  0
 22 50  1  0  0  0  0
 23 51  1  0  0  0  0
 24 28  1  0  0  0  0
 24 25  1  0  0  0  0
 24 52  1  0  0  0  0
 25 26  1  0  0  0  0
 25 53  1  0  0  0  0
 25 54  1  0  0  0  0
 26 27  1  0  0  0  0
 26 55  1  0  0  0  0
 26 56  1  0  0  0  0
 27 28  1  0  0  0  0
 27 57  1  0  0  0  0
 27 58  1  0  0  0  0
M  END
> <s_m_source_file>
AV-unprocessed.smi

> <i_m_source_file_index>
213

> <i_lp_mmshare_version>
43012

> <i_f3d_flags>
0

> <s_epik_input>
W0NIMl0xW0NIMl1PW0NIMl1bQ0gyXU4xW0NIMl1bQ0BASF0oW0NIM10pTihbQ0gzXSljKG5bY0hdbjIpYyhjMjMpbltjSF1uM1tDSDJdW0NASF0oW09IXSlbQ0BASF00W0NIMl1bQ0gyXVtDSDJdTzQ=

> <s_epik_cmdline>
J2VwaWtfcHl0aG9uJywgJy1waCcsICc3LjAnLCAnLXRuJywgJzgnLCAnLW1hJywgJzIwMCcsICctbWV0YWxfYmluZGluZycsICctaW1hZScsICc8aW5maWxlLm1hZT4nLCAnLW9tYWUnLCAnPG91dGZpbGUubWFlPic=

> <r_lp_tautomer_probability>
1

> <r_epik_Ionization_Penalty>
0.423322

> <r_epik_Ionization_Penalty_Charging>
0

> <r_epik_Ionization_Penalty_Neutral>
0.423322

> <r_epik_State_Penalty>
0.569486

> <r_epik_Charging_Adjusted_Penalty>
0.569486

> <i_epik_Tot_Q>
0

> <i_epik_Tot_abs_Q>
0

> <r_epik_Metal_State_Penalty>
0.568671

> <b_epik_Metal_Only>
0

> <s_lp_Force_Field>
OPLS_2005

> <r_lp_Energy>
51.7694

> <b_lp_Chiralities_Consistent>
1

> <s_lp_Variant>
AV-unprocessed.smi:213-11

> <Gold.Version>
5.8.1

> <Gold.Id.Protein>
6NUR|6NUR_protein|mol2

> <Gold.PLP.Fitness>
47.4453

> <Gold.PLP.PLP>
-45.1004

> <Gold.PLP.part.hbond>
-2.3402

> <Gold.PLP.part.metal>
0.0000

> <Gold.PLP.part.buried>
-4.6036

> <Gold.PLP.part.nonpolar>
-36.1787

> <Gold.PLP.part.repulsive>
0.3632

> <Gold.PLP.ligand.clash>
0.0000

> <Gold.PLP.ligand.torsion>
1.0615

> <Gold.PLP.Chemscore.Hbond>
1.3719

> <Gold.PLP.Chemscore.CHOScore>
0.0000

> <Gold.PLP.Chemscore.Metal>
0.0000

> <Gold.Chemscore.Hbonds>
donor molecule, donor type, donor heavy atom, donor atom, acceptor molecule, acceptor atom, score
      P1  H  7989  7998       L1    15  0.11
      P1  H  7997  8009       L1    23  0.33
      P1  H 10752 10763       L1    13  0.56

> <Gold.PLP.Chemscore.Internal.Correction>
0.3520

> <Gold.Rescore>
     Score         DG    S(hbond)    S(metal)    S(lipo)     H(rot)  DE(clash)    DE(int)     intcor
     10.09     -12.42       0.52        0.00     104.27       2.74       0.15       2.18       ----

> <Gold.Chemscore.Fitness>
10.0900

> <Gold.Chemscore.DG>
-12.4227

> <Gold.Chemscore.ZeroCoef>
-5.4800

> <Gold.Chemscore.Hbond>
0.5244

> <Gold.Chemscore.Metal>
0.0000

> <Gold.Chemscore.Lipo>
104.2721

> <Gold.Chemscore.Internal_Hbond>
0.0000

> <Gold.Chemscore.DEClash>
0.1484

> <Gold.Chemscore.DEInternal>
2.1843

> <Gold.Chemscore.Rot>
2.7378

> <Gold.Chemscore.Internal.Correction>
   9.000000E+99

> <Gold.Chemscore.Hbonds>
donor molecule, donor type, donor heavy atom, donor atom, acceptor molecule, acceptor atom, score
      P1  H  7989  7998       L1    15  0.08
      P1  H  7997  8009       L1    23  0.31
      P1  H 10752 10763       L1    13  0.04

> <Gold.Chemscore.Hbond.Weighted>
-1.7515

> <Gold.Chemscore.Metal.Weighted>
-0.0000

> <Gold.Chemscore.Lipo.Weighted>
-12.1998

> <Gold.Chemscore.Internal_Hbond.Weighted>
0.0000

> <Gold.Chemscore.DEClash.Weighted>
0.1484

> <Gold.Chemscore.DEInternal.Weighted>
2.1843

> <Gold.Chemscore.Rot.Weighted>
7.0087

> <Gold.Chemscore.Internal.Correction.Weighted>
   9.000000E+99

> <Gold.Protein.RotatedTorsions>
[ 6907 6896 6895 6894 ] final   82.81 input  -60.11 | X-H torsion
[ 7974 7965 7964 7962 ] final  -69.13 input  175.53 | X-H torsion
[ 8008 7997 7996 7995 ] final  155.46 input   59.86 | X-H torsion
[ 10167 10162 10161 10158 ] final   92.86 input  -65.29 | X-H torsion
[ 10718 10713 10712 10709 ] final  -48.93 input   66.30 | X-H torsion
[ 10763 10752 10751 10750 ] final   48.06 input  -60.55 | X-H torsion
[ 11005 11000 10999 10996 ] final  -97.40 input  -57.11 | X-H torsion

> <Gold.Protein.ActiveResidues>
 VAL166  LYS551  ARG553  GLY616  TRP617  ASP618  TYR619  PRO620  LYS621  CYS622 
 ASP623  PHE694  ASN695  SER759  ASP760  ASP761  ALA762  ILE779  LEU786  VAL792 
 PHE793  MET794  SER795  GLU796  ALA797  LYS798  CYS799  TRP800  GLU811  SER814 

> <Gold.Protein.RotatedAtoms>
  152.5310  134.2993  159.9072 H   0  0  0  0  0  0  0  0  0  0  0  0  # atno 6907 bound_to 6896
  151.2943  133.4144  159.2643 H   0  0  0  0  0  0  0  0  0  0  0  0  # atno 6908 bound_to 6896
  151.0173  134.9459  159.8097 H   0  0  0  0  0  0  0  0  0  0  0  0  # atno 6909 bound_to 6896
  145.7077  140.9091  143.0697 H   0  0  0  0  0  0  0  0  0  0  0  0  # atno 7974 bound_to 7965
  156.2477  140.1939  156.6804 H   0  0  0  0  0  0  0  0  0  0  0  0  # atno 8008 bound_to 7997
  154.6326  140.0594  156.9776 H   0  0  0  0  0  0  0  0  0  0  0  0  # atno 8009 bound_to 7997
  155.1687  140.3266  155.4399 H   0  0  0  0  0  0  0  0  0  0  0  0  # atno 8010 bound_to 7997
  139.8235  144.6720  150.9488 H   0  0  0  0  0  0  0  0  0  0  0  0  # atno 10167 bound_to 10162
  156.1941  130.4154  149.9330 H   0  0  0  0  0  0  0  0  0  0  0  0  # atno 10718 bound_to 10713
  152.9795  135.5956  154.3863 H   0  0  0  0  0  0  0  0  0  0  0  0  # atno 10763 bound_to 10752
  154.3523  135.2767  155.2367 H   0  0  0  0  0  0  0  0  0  0  0  0  # atno 10764 bound_to 10752
  154.4401  135.6015  153.6179 H   0  0  0  0  0  0  0  0  0  0  0  0  # atno 10765 bound_to 10752
  141.1380  133.8168  157.0700 H   0  0  0  0  0  0  0  0  0  0  0  0  # atno 11005 bound_to 11000
  144.6950  139.9032  143.7459 LP  0  0  0  0  0  0  0  0  0  0  0  0  # atno 17320 bound_to 7965
  146.0741  139.3729  143.0505 LP  0  0  0  0  0  0  0  0  0  0  0  0  # atno 17321 bound_to 7965
  140.7812  143.4068  151.1057 LP  0  0  0  0  0  0  0  0  0  0  0  0  # atno 17342 bound_to 10162
  139.7727  143.8470  152.3123 LP  0  0  0  0  0  0  0  0  0  0  0  0  # atno 17343 bound_to 10162
  156.7061  130.8952  151.3604 LP  0  0  0  0  0  0  0  0  0  0  0  0  # atno 17370 bound_to 10713
  157.6947  130.9270  150.0611 LP  0  0  0  0  0  0  0  0  0  0  0  0  # atno 17371 bound_to 10713
  140.0517  134.9802  157.1148 LP  0  0  0  0  0  0  0  0  0  0  0  0  # atno 17394 bound_to 11000
  140.3980  134.2113  155.7164 LP  0  0  0  0  0  0  0  0  0  0  0  0  # atno 17395 bound_to 11000

$$$$
