AV-unprocessed.smi:2285|AV-procd|sdf|9203|dock3
  -GOLD-   2272012423D 1   1.00000     0.00000
 Structure written by MMmdl.
 36 37  0  0  0  0  0  0  0  0  1 V2000
  153.5849  142.5300  159.7262 C   0  0  0  0  0  0  0  0  0  0  0  0
  152.0963  142.8565  159.9094 C   0  0  0  0  0  0  0  0  0  0  0  0
  151.7132  144.2603  159.4455 C   0  0  0  0  0  0  0  0  0  0  0  0
  152.0096  144.4976  157.9650 C   0  0  0  0  0  0  0  0  0  0  0  0
  151.0884  143.8874  157.0122 N   0  0  0  0  0  0  0  0  0  0  0  0
  151.0324  142.5787  156.7271 C   0  0  0  0  0  0  0  0  0  0  0  0
  151.7560  141.7398  157.2667 O   0  0  0  0  0  0  0  0  0  0  0  0
  150.0974  142.3319  155.7881 N   0  0  0  0  0  0  0  0  0  0  0  0
  149.7437  141.1000  155.2223 C   0  0  0  0  0  0  0  0  0  0  0  0
  150.4125  139.9996  155.4278 N   0  0  0  0  0  0  0  0  0  0  0  0
  150.0308  138.7892  154.8492 C   0  0  0  0  0  0  0  0  0  0  0  0
  148.9502  138.7164  154.0517 C   0  0  0  0  0  0  0  0  0  0  0  0
  148.1809  139.8573  153.7829 N   0  0  0  0  0  0  0  0  0  0  0  0
  147.0144  139.7222  152.9098 C   0  0  0  0  0  0  0  0  0  0  0  0
  148.5046  141.0637  154.3227 C   0  0  0  0  0  0  0  0  0  0  0  0
  147.8567  142.0924  154.1189 O   0  0  0  0  0  0  0  0  0  0  0  0
  150.5074  144.9355  160.0657 C   0  0  0  0  0  0  0  0  0  0  0  0
  151.8964  145.4143  160.4080 C   0  0  0  0  0  0  0  0  0  0  0  0
  153.8172  141.5489  160.1407 H   0  0  0  0  0  0  0  0  0  0  0  0
  154.2139  143.2617  160.2339 H   0  0  0  0  0  0  0  0  0  0  0  0
  153.8670  142.5144  158.6736 H   0  0  0  0  0  0  0  0  0  0  0  0
  151.4822  142.1181  159.3935 H   0  0  0  0  0  0  0  0  0  0  0  0
  151.8482  142.7594  160.9670 H   0  0  0  0  0  0  0  0  0  0  0  0
  152.0623  145.5710  157.7742 H   0  0  0  0  0  0  0  0  0  0  0  0
  153.0074  144.1169  157.7475 H   0  0  0  0  0  0  0  0  0  0  0  0
  150.4591  144.5096  156.5263 H   0  0  0  0  0  0  0  0  0  0  0  0
  149.5972  143.1400  155.4481 H   0  0  0  0  0  0  0  0  0  0  0  0
  150.6429  137.9283  155.0750 H   0  0  0  0  0  0  0  0  0  0  0  0
  148.6154  137.8027  153.5825 H   0  0  0  0  0  0  0  0  0  0  0  0
  147.0880  140.4041  152.0611 H   0  0  0  0  0  0  0  0  0  0  0  0
  146.1001  139.9564  153.4569 H   0  0  0  0  0  0  0  0  0  0  0  0
  146.9085  138.7137  152.5086 H   0  0  0  0  0  0  0  0  0  0  0  0
  149.8993  145.5773  159.4312 H   0  0  0  0  0  0  0  0  0  0  0  0
  149.9597  144.3927  160.8334 H   0  0  0  0  0  0  0  0  0  0  0  0
  152.2719  145.1902  161.4046 H   0  0  0  0  0  0  0  0  0  0  0  0
  152.2115  146.3720  159.9985 H   0  0  0  0  0  0  0  0  0  0  0  0
  1  2  1  0  0  0  0
  1 19  1  0  0  0  0
  1 20  1  0  0  0  0
  1 21  1  0  0  0  0
  2  3  1  0  0  0  0
  2 22  1  0  0  0  0
  2 23  1  0  0  0  0
  3 18  1  0  0  0  0
  3  4  1  0  0  0  0
  3 17  1  0  0  0  0
  4  5  1  0  0  0  0
  4 24  1  0  0  0  0
  4 25  1  0  0  0  0
  5  6  1  0  0  0  0
  5 26  1  0  0  0  0
  6  7  2  0  0  0  0
  6  8  1  0  0  0  0
  8  9  1  0  0  0  0
  8 27  1  0  0  0  0
  9 15  1  0  0  0  0
  9 10  2  0  0  0  0
 10 11  1  0  0  0  0
 11 12  2  0  0  0  0
 11 28  1  0  0  0  0
 12 13  1  0  0  0  0
 12 29  1  0  0  0  0
 13 14  1  0  0  0  0
 13 15  1  0  0  0  0
 14 30  1  0  0  0  0
 14 31  1  0  0  0  0
 14 32  1  0  0  0  0
 15 16  2  0  0  0  0
 17 18  1  0  0  0  0
 17 33  1  0  0  0  0
 17 34  1  0  0  0  0
 18 35  1  0  0  0  0
 18 36  1  0  0  0  0
M  END
> <s_m_source_file>
AV-unprocessed.smi

> <i_m_source_file_index>
2285

> <i_lp_mmshare_version>
43012

> <i_f3d_flags>
0

> <s_epik_input>
W0NIM11bQ0gyXUMxKFtDSDJdW0NIMl0xKVtDSDJdW05IXUMoPU8pW05IXWMybltjSF1bY0hdbihbQ0gzXSljMj1P

> <s_epik_cmdline>
J2VwaWtfcHl0aG9uJywgJy1waCcsICc3LjAnLCAnLXRuJywgJzgnLCAnLW1hJywgJzIwMCcsICctbWV0YWxfYmluZGluZycsICctaW1hZScsICc8aW5maWxlLm1hZT4nLCAnLW9tYWUnLCAnPG91dGZpbGUubWFlPic=

> <r_lp_tautomer_probability>
1

> <r_epik_Ionization_Penalty>
0.000603256

> <r_epik_Ionization_Penalty_Charging>
1.64466e-07

> <r_epik_Ionization_Penalty_Neutral>
0.000603092

> <r_epik_State_Penalty>
-0

> <r_epik_Charging_Adjusted_Penalty>
1.64466e-07

> <i_epik_Tot_Q>
0

> <i_epik_Tot_abs_Q>
0

> <r_epik_Metal_State_Penalty>
-0

> <b_epik_Metal_Only>
0

> <s_lp_Force_Field>
OPLS_2005

> <r_lp_Energy>
32.2968

> <b_lp_Chiralities_Consistent>
1

> <s_lp_Variant>
AV-unprocessed.smi:2285-1

> <Gold.Version>
5.8.1

> <Gold.Id.Protein>
6NUR|6NUR_protein|mol2

> <Gold.PLP.Fitness>
49.6506

> <Gold.PLP.PLP>
-41.0054

> <Gold.PLP.part.hbond>
-2.2242

> <Gold.PLP.part.metal>
0.0000

> <Gold.PLP.part.buried>
-3.0954

> <Gold.PLP.part.nonpolar>
-37.0357

> <Gold.PLP.part.repulsive>
0.3845

> <Gold.PLP.ligand.clash>
0.0000

> <Gold.PLP.ligand.torsion>
0.7553

> <Gold.PLP.Chemscore.Hbond>
1.9920

> <Gold.PLP.Chemscore.CHOScore>
1.0000

> <Gold.PLP.Chemscore.Metal>
0.0000

> <Gold.Chemscore.Hbonds>
donor molecule, donor type, donor heavy atom, donor atom, acceptor molecule, acceptor atom, score
      L1  H     5    26       P1  8028  0.99
      L1  H     8    27       P1  8028  1.00
      L1  C    12    29       P1  7948  1.00

> <Gold.PLP.Chemscore.Internal.Correction>
1.1799

> <Gold.Rescore>
     Score         DG    S(hbond)    S(metal)    S(lipo)     H(rot)  DE(clash)    DE(int)     intcor
     15.87     -18.14       1.94        0.00      85.43       1.49       0.13       2.14       ----

> <Gold.Chemscore.Fitness>
15.8656

> <Gold.Chemscore.DG>
-18.1356

> <Gold.Chemscore.ZeroCoef>
-5.4800

> <Gold.Chemscore.Hbond>
1.9355

> <Gold.Chemscore.Metal>
0.0000

> <Gold.Chemscore.Lipo>
85.4303

> <Gold.Chemscore.Internal_Hbond>
0.0000

> <Gold.Chemscore.DEClash>
0.1336

> <Gold.Chemscore.DEInternal>
2.1364

> <Gold.Chemscore.Rot>
1.4861

> <Gold.Chemscore.Internal.Correction>
   9.000000E+99

> <Gold.Chemscore.Hbonds>
donor molecule, donor type, donor heavy atom, donor atom, acceptor molecule, acceptor atom, score
      L1  H     5    26       P1  8028  0.92
      L1  H     8    27       P1  8028  0.97

> <Gold.Chemscore.Hbond.Weighted>
-6.4647

> <Gold.Chemscore.Metal.Weighted>
-0.0000

> <Gold.Chemscore.Lipo.Weighted>
-9.9953

> <Gold.Chemscore.Internal_Hbond.Weighted>
0.0000

> <Gold.Chemscore.DEClash.Weighted>
0.1336

> <Gold.Chemscore.DEInternal.Weighted>
2.1364

> <Gold.Chemscore.Rot.Weighted>
3.8044

> <Gold.Chemscore.Internal.Correction.Weighted>
   9.000000E+99

> <Gold.Protein.RotatedTorsions>
[ 6907 6896 6895 6894 ] final  153.53 input  -60.11 | X-H torsion
[ 7974 7965 7964 7962 ] final   73.09 input  175.53 | X-H torsion
[ 8008 7997 7996 7995 ] final -114.02 input   59.86 | X-H torsion
[ 10167 10162 10161 10158 ] final   -3.67 input  -65.29 | X-H torsion
[ 10718 10713 10712 10709 ] final  -65.78 input   66.30 | X-H torsion
[ 10763 10752 10751 10750 ] final -101.72 input  -60.55 | X-H torsion
[ 11005 11000 10999 10996 ] final -153.13 input  -57.11 | X-H torsion

> <Gold.Protein.ActiveResidues>
 VAL166  LYS551  ARG553  GLY616  TRP617  ASP618  TYR619  PRO620  LYS621  CYS622 
 ASP623  PHE694  ASN695  SER759  ASP760  ASP761  ALA762  ILE779  LEU786  VAL792 
 PHE793  MET794  SER795  GLU796  ALA797  LYS798  CYS799  TRP800  GLU811  SER814 

> <Gold.Protein.RotatedAtoms>
  152.0714  133.4108  159.4460 H   0  0  0  0  0  0  0  0  0  0  0  0  # atno 6907 bound_to 6896
  150.6863  134.3087  159.4746 H   0  0  0  0  0  0  0  0  0  0  0  0  # atno 6908 bound_to 6896
  152.0919  134.9401  160.0622 H   0  0  0  0  0  0  0  0  0  0  0  0  # atno 6909 bound_to 6896
  145.7453  139.2737  143.1463 H   0  0  0  0  0  0  0  0  0  0  0  0  # atno 7974 bound_to 7965
  155.0299  140.0393  157.2470 H   0  0  0  0  0  0  0  0  0  0  0  0  # atno 8008 bound_to 7997
  154.7306  140.2730  155.6436 H   0  0  0  0  0  0  0  0  0  0  0  0  # atno 8009 bound_to 7997
  156.2840  140.2685  156.2005 H   0  0  0  0  0  0  0  0  0  0  0  0  # atno 8010 bound_to 7997
  140.6899  143.6513  150.8347 H   0  0  0  0  0  0  0  0  0  0  0  0  # atno 10167 bound_to 10162
  156.0649  130.4252  150.1614 H   0  0  0  0  0  0  0  0  0  0  0  0  # atno 10718 bound_to 10713
  154.7679  135.4887  153.9591 H   0  0  0  0  0  0  0  0  0  0  0  0  # atno 10763 bound_to 10752
  153.1331  135.6757  153.9153 H   0  0  0  0  0  0  0  0  0  0  0  0  # atno 10764 bound_to 10752
  153.8851  135.3127  155.3425 H   0  0  0  0  0  0  0  0  0  0  0  0  # atno 10765 bound_to 10752
  140.7114  134.3828  157.5197 H   0  0  0  0  0  0  0  0  0  0  0  0  # atno 11005 bound_to 11000
  146.0409  140.8166  142.9829 LP  0  0  0  0  0  0  0  0  0  0  0  0  # atno 17320 bound_to 7965
  144.6861  140.2909  143.7278 LP  0  0  0  0  0  0  0  0  0  0  0  0  # atno 17321 bound_to 7965
  140.0225  143.5528  152.2794 LP  0  0  0  0  0  0  0  0  0  0  0  0  # atno 17342 bound_to 10162
  139.6291  144.7641  151.2574 LP  0  0  0  0  0  0  0  0  0  0  0  0  # atno 17343 bound_to 10162
  156.9676  130.9824  151.3466 LP  0  0  0  0  0  0  0  0  0  0  0  0  # atno 17370 bound_to 10713
  157.5684  130.8294  149.8359 LP  0  0  0  0  0  0  0  0  0  0  0  0  # atno 17371 bound_to 10713
  139.8870  134.8893  156.2550 LP  0  0  0  0  0  0  0  0  0  0  0  0  # atno 17394 bound_to 11000
  141.0081  133.7112  156.1067 LP  0  0  0  0  0  0  0  0  0  0  0  0  # atno 17395 bound_to 11000

$$$$
