AV-unprocessed.smi:2789|AV-procd|sdf|10762|dock5
  -GOLD-   2272015193D 1   1.00000     0.00000
 Structure written by MMmdl.
 35 36  0  0  0  0  0  0  0  0  1 V2000
  152.5790  138.6265  154.7355 C   0  0  0  0  0  0  0  0  0  0  0  0
  151.5347  139.5447  154.4542 O   0  0  0  0  0  0  0  0  0  0  0  0
  150.6991  139.8224  155.5698 C   0  0  2  0  0  0  0  0  0  0  0  0
  149.8596  138.6051  155.9805 C   0  0  0  0  0  0  0  0  0  0  0  0
  148.5809  139.2020  156.5564 C   0  0  0  0  0  0  0  0  0  0  0  0
  148.3022  140.4057  155.6578 C   0  0  0  0  0  0  0  0  0  0  0  0
  149.6825  140.9279  155.2108 C   0  0  1  0  0  0  0  0  0  0  0  0
  150.0187  142.1774  155.8892 N   0  0  0  0  0  0  0  0  0  0  0  0
  150.4509  142.2755  157.1543 C   0  0  0  0  0  0  0  0  0  0  0  0
  150.6231  141.3025  157.8888 O   0  0  0  0  0  0  0  0  0  0  0  0
  150.6680  143.5581  157.4936 N   0  0  0  0  0  0  0  0  0  0  0  0
  151.1009  144.0619  158.6800 C   0  0  0  0  0  0  0  0  0  0  0  0
  150.6498  145.1563  159.3666 C   0  0  0  0  0  0  0  0  0  0  0  0
  151.4908  145.1670  160.5160 C   0  0  0  0  0  0  0  0  0  0  0  0
  152.3701  144.1732  160.5265 N   0  0  0  0  0  0  0  0  0  0  0  0
  152.1328  143.4854  159.3881 N   0  0  0  0  0  0  0  0  0  0  0  0
  152.9250  142.3135  159.0695 C   0  0  0  0  0  0  0  0  0  0  0  0
  153.1873  138.4833  153.8424 H   0  0  0  0  0  0  0  0  0  0  0  0
  152.1898  137.6522  155.0324 H   0  0  0  0  0  0  0  0  0  0  0  0
  153.2299  138.9997  155.5270 H   0  0  0  0  0  0  0  0  0  0  0  0
  151.3038  140.1419  156.4214 H   0  0  0  0  0  0  0  0  0  0  0  0
  149.6132  138.0093  155.1004 H   0  0  0  0  0  0  0  0  0  0  0  0
  150.3756  137.9561  156.6884 H   0  0  0  0  0  0  0  0  0  0  0  0
  147.7547  138.4908  156.5746 H   0  0  0  0  0  0  0  0  0  0  0  0
  148.7581  139.5375  157.5792 H   0  0  0  0  0  0  0  0  0  0  0  0
  147.7447  140.0754  154.7802 H   0  0  0  0  0  0  0  0  0  0  0  0
  147.6908  141.1576  156.1585 H   0  0  0  0  0  0  0  0  0  0  0  0
  149.6732  141.0895  154.1308 H   0  0  0  0  0  0  0  0  0  0  0  0
  149.9057  143.0270  155.3562 H   0  0  0  0  0  0  0  0  0  0  0  0
  150.4896  144.2439  156.7748 H   0  0  0  0  0  0  0  0  0  0  0  0
  149.8584  145.8440  159.1098 H   0  0  0  0  0  0  0  0  0  0  0  0
  151.4892  145.8652  161.3401 H   0  0  0  0  0  0  0  0  0  0  0  0
  152.2846  141.4315  159.0587 H   0  0  0  0  0  0  0  0  0  0  0  0
  153.7137  142.1694  159.8090 H   0  0  0  0  0  0  0  0  0  0  0  0
  153.3817  142.4355  158.0869 H   0  0  0  0  0  0  0  0  0  0  0  0
  1  2  1  0  0  0  0
  1 18  1  0  0  0  0
  1 19  1  0  0  0  0
  1 20  1  0  0  0  0
  2  3  1  0  0  0  0
  3  7  1  0  0  0  0
  3  4  1  0  0  0  0
  3 21  1  0  0  0  0
  4  5  1  0  0  0  0
  4 22  1  0  0  0  0
  4 23  1  0  0  0  0
  5  6  1  0  0  0  0
  5 24  1  0  0  0  0
  5 25  1  0  0  0  0
  6  7  1  0  0  0  0
  6 26  1  0  0  0  0
  6 27  1  0  0  0  0
  7  8  1  0  0  0  0
  7 28  1  0  0  0  0
  8  9  1  0  0  0  0
  8 29  1  0  0  0  0
  9 10  2  0  0  0  0
  9 11  1  0  0  0  0
 11 12  1  0  0  0  0
 11 30  1  0  0  0  0
 12 16  1  0  0  0  0
 12 13  2  0  0  0  0
 13 14  1  0  0  0  0
 13 31  1  0  0  0  0
 14 15  2  0  0  0  0
 14 32  1  0  0  0  0
 15 16  1  0  0  0  0
 16 17  1  0  0  0  0
 17 33  1  0  0  0  0
 17 34  1  0  0  0  0
 17 35  1  0  0  0  0
M  END
> <s_m_source_file>
AV-unprocessed.smi

> <i_m_source_file_index>
2789

> <i_lp_mmshare_version>
43012

> <i_f3d_flags>
0

> <s_epik_input>
W0NIM11PW0NAQEhdMVtDSDJdW0NIMl1bQ0gyXVtDQEhdMVtOSF1DKD1PKVtOSF1jMltjSF1bY0hdbm4yW0NIM10=

> <s_epik_cmdline>
J2VwaWtfcHl0aG9uJywgJy1waCcsICc3LjAnLCAnLXRuJywgJzgnLCAnLW1hJywgJzIwMCcsICctbWV0YWxfYmluZGluZycsICctaW1hZScsICc8aW5maWxlLm1hZT4nLCAnLW9tYWUnLCAnPG91dGZpbGUubWFlPic=

> <r_lp_tautomer_probability>
1

> <r_epik_Ionization_Penalty>
4.40608e-05

> <r_epik_Ionization_Penalty_Charging>
0

> <r_epik_Ionization_Penalty_Neutral>
4.40608e-05

> <r_epik_State_Penalty>
-0

> <r_epik_Charging_Adjusted_Penalty>
0

> <i_epik_Tot_Q>
0

> <i_epik_Tot_abs_Q>
0

> <r_epik_Metal_State_Penalty>
-0

> <b_epik_Metal_Only>
0

> <s_lp_Force_Field>
OPLS_2005

> <r_lp_Energy>
20.8704

> <b_lp_Chiralities_Consistent>
1

> <s_lp_Variant>
AV-unprocessed.smi:2789-1

> <Gold.Version>
5.8.1

> <Gold.Id.Protein>
6NUR|6NUR_protein|mol2

> <Gold.PLP.Fitness>
38.4171

> <Gold.PLP.PLP>
-32.4582

> <Gold.PLP.part.hbond>
-3.0000

> <Gold.PLP.part.metal>
0.0000

> <Gold.PLP.part.buried>
-4.3164

> <Gold.PLP.part.nonpolar>
-26.1368

> <Gold.PLP.part.repulsive>
0.3320

> <Gold.PLP.ligand.clash>
0.0000

> <Gold.PLP.ligand.torsion>
0.6261

> <Gold.PLP.Chemscore.Hbond>
2.4018

> <Gold.PLP.Chemscore.CHOScore>
0.0000

> <Gold.PLP.Chemscore.Metal>
0.0000

> <Gold.Chemscore.Hbonds>
donor molecule, donor type, donor heavy atom, donor atom, acceptor molecule, acceptor atom, score
      L1  H     8    29       P1  8028  0.69
      L1  H    11    30       P1  8028  0.70
      P1  H  7989  7998       L1     2  1.00

> <Gold.PLP.Chemscore.Internal.Correction>
0.0056

> <Gold.Rescore>
     Score         DG    S(hbond)    S(metal)    S(lipo)     H(rot)  DE(clash)    DE(int)     intcor
     14.29     -17.85       2.61        0.00      59.03       1.27       0.31       3.25       ----

> <Gold.Chemscore.Fitness>
14.2946

> <Gold.Chemscore.DG>
-17.8549

> <Gold.Chemscore.ZeroCoef>
-5.4800

> <Gold.Chemscore.Hbond>
2.6116

> <Gold.Chemscore.Metal>
0.0000

> <Gold.Chemscore.Lipo>
59.0316

> <Gold.Chemscore.Internal_Hbond>
0.0000

> <Gold.Chemscore.DEClash>
0.3094

> <Gold.Chemscore.DEInternal>
3.2509

> <Gold.Chemscore.Rot>
1.2712

> <Gold.Chemscore.Internal.Correction>
   9.000000E+99

> <Gold.Chemscore.Hbonds>
donor molecule, donor type, donor heavy atom, donor atom, acceptor molecule, acceptor atom, score
      L1  H     8    29       P1  8028  0.66
      L1  H    11    30       P1  8028  0.67
      P1  H  7989  7998       L1     2  0.77

> <Gold.Chemscore.Hbond.Weighted>
-8.7226

> <Gold.Chemscore.Metal.Weighted>
-0.0000

> <Gold.Chemscore.Lipo.Weighted>
-6.9067

> <Gold.Chemscore.Internal_Hbond.Weighted>
0.0000

> <Gold.Chemscore.DEClash.Weighted>
0.3094

> <Gold.Chemscore.DEInternal.Weighted>
3.2509

> <Gold.Chemscore.Rot.Weighted>
3.2544

> <Gold.Chemscore.Internal.Correction.Weighted>
   9.000000E+99

> <Gold.Protein.RotatedTorsions>
[ 6907 6896 6895 6894 ] final  175.49 input  -60.11 | X-H torsion
[ 7974 7965 7964 7962 ] final   98.98 input  175.53 | X-H torsion
[ 8008 7997 7996 7995 ] final   -3.92 input   59.86 | X-H torsion
[ 10167 10162 10161 10158 ] final   -9.66 input  -65.29 | X-H torsion
[ 10718 10713 10712 10709 ] final   31.60 input   66.30 | X-H torsion
[ 10763 10752 10751 10750 ] final   12.43 input  -60.55 | X-H torsion
[ 11005 11000 10999 10996 ] final  103.82 input  -57.11 | X-H torsion

> <Gold.Protein.ActiveResidues>
 VAL166  LYS551  ARG553  GLY616  TRP617  ASP618  TYR619  PRO620  LYS621  CYS622 
 ASP623  PHE694  ASN695  SER759  ASP760  ASP761  ALA762  ILE779  LEU786  VAL792 
 PHE793  MET794  SER795  GLU796  ALA797  LYS798  CYS799  TRP800  GLU811  SER814 

> <Gold.Protein.RotatedAtoms>
  151.7354  133.3319  159.3351 H   0  0  0  0  0  0  0  0  0  0  0  0  # atno 6907 bound_to 6896
  150.7595  134.6326  159.6204 H   0  0  0  0  0  0  0  0  0  0  0  0  # atno 6908 bound_to 6896
  152.3565  134.6935  160.0272 H   0  0  0  0  0  0  0  0  0  0  0  0  # atno 6909 bound_to 6896
  145.4050  139.2342  143.3279 H   0  0  0  0  0  0  0  0  0  0  0  0  # atno 7974 bound_to 7965
  154.6198  140.2497  155.7564 H   0  0  0  0  0  0  0  0  0  0  0  0  # atno 8008 bound_to 7997
  156.2420  140.2929  156.0419 H   0  0  0  0  0  0  0  0  0  0  0  0  # atno 8009 bound_to 7997
  155.1916  140.0391  157.2891 H   0  0  0  0  0  0  0  0  0  0  0  0  # atno 8010 bound_to 7997
  140.7093  143.5833  150.8969 H   0  0  0  0  0  0  0  0  0  0  0  0  # atno 10167 bound_to 10162
  157.2745  130.7224  149.6522 H   0  0  0  0  0  0  0  0  0  0  0  0  # atno 10718 bound_to 10713
  153.1823  135.6829  153.8461 H   0  0  0  0  0  0  0  0  0  0  0  0  # atno 10763 bound_to 10752
  153.7789  135.3185  155.3364 H   0  0  0  0  0  0  0  0  0  0  0  0  # atno 10764 bound_to 10752
  154.8067  135.4744  154.0507 H   0  0  0  0  0  0  0  0  0  0  0  0  # atno 10765 bound_to 10752
  139.8786  134.9277  156.5267 H   0  0  0  0  0  0  0  0  0  0  0  0  # atno 11005 bound_to 11000
  146.2733  140.4753  142.8805 LP  0  0  0  0  0  0  0  0  0  0  0  0  # atno 17320 bound_to 7965
  144.8348  140.6764  143.6267 LP  0  0  0  0  0  0  0  0  0  0  0  0  # atno 17321 bound_to 7965
  139.9559  143.6219  152.3016 LP  0  0  0  0  0  0  0  0  0  0  0  0  # atno 17342 bound_to 10162
  139.6754  144.7659  151.1706 LP  0  0  0  0  0  0  0  0  0  0  0  0  # atno 17343 bound_to 10162
  155.9663  130.4357  150.5103 LP  0  0  0  0  0  0  0  0  0  0  0  0  # atno 17370 bound_to 10713
  157.3034  131.0649  151.2052 LP  0  0  0  0  0  0  0  0  0  0  0  0  # atno 17371 bound_to 10713
  140.8410  133.8205  155.9075 LP  0  0  0  0  0  0  0  0  0  0  0  0  # atno 17394 bound_to 11000
  140.9237  134.2110  157.4910 LP  0  0  0  0  0  0  0  0  0  0  0  0  # atno 17395 bound_to 11000

$$$$
