AV-unprocessed.smi:1930|AV-procd|sdf|7810|dock7
  -GOLD-   22720 9553D 1   1.00000     0.00000
 Structure written by MMmdl.
 42 43  0  0  0  0  0  0  0  0  2 V2000
  156.4589  135.5893  165.3632 C   0  0  0  0  0  0  0  0  0  0  0  0
  154.8306  135.2127  164.5952 S   0  0  0  0  0  0  0  0  0  0  0  0
  155.0595  134.3361  163.4364 O   0  0  0  0  0  0  0  0  0  0  0  0
  153.9063  134.7900  165.6585 O   0  0  0  0  0  0  0  0  0  0  0  0
  154.2888  136.7542  163.9993 N   0  0  0  0  0  0  0  0  0  0  0  0
  154.1373  136.9539  162.5397 C   0  0  0  0  0  0  0  0  0  0  0  0
  155.2848  137.8051  161.9616 C   0  0  0  0  0  0  0  0  0  0  0  0
  155.3674  139.0636  162.7151 N   0  0  0  0  0  0  0  0  0  0  0  0
  154.9601  140.2875  162.2971 C   0  0  0  0  0  0  0  0  0  0  0  0
  154.9626  141.2833  163.0216 O   0  0  0  0  0  0  0  0  0  0  0  0
  154.5958  140.3462  161.0051 N   0  0  0  0  0  0  0  0  0  0  0  0
  154.1505  141.5478  160.3049 C   0  0  0  0  0  0  0  0  0  0  0  0
  152.6331  141.5619  160.0304 C   0  0  0  0  0  0  0  0  0  0  0  0
  152.1528  142.8203  159.3282 C   0  0  0  0  0  0  0  0  0  0  0  0
  152.4402  144.0957  159.8626 C   0  0  0  0  0  0  0  0  0  0  0  0
  151.9769  145.2468  159.1923 C   0  0  0  0  0  0  0  0  0  0  0  0
  151.2362  145.0966  158.0020 C   0  0  0  0  0  0  0  0  0  0  0  0
  150.9810  143.8603  157.5201 N   0  3  0  0  0  0  0  0  0  0  0  0
  151.4080  142.7338  158.1315 C   0  0  0  0  0  0  0  0  0  0  0  0
  155.7325  138.7910  164.1067 C   0  0  0  0  0  0  0  0  0  0  0  0
  154.6028  137.9791  164.7700 C   0  0  0  0  0  0  0  0  0  0  0  0
  156.8808  134.6718  165.7727 H   0  0  0  0  0  0  0  0  0  0  0  0
  156.3297  136.3107  166.1683 H   0  0  0  0  0  0  0  0  0  0  0  0
  157.1384  135.9872  164.6111 H   0  0  0  0  0  0  0  0  0  0  0  0
  154.0836  135.9939  162.0271 H   0  0  0  0  0  0  0  0  0  0  0  0
  153.1848  137.4530  162.3582 H   0  0  0  0  0  0  0  0  0  0  0  0
  156.2326  137.2736  162.0478 H   0  0  0  0  0  0  0  0  0  0  0  0
  155.1337  137.9416  160.8910 H   0  0  0  0  0  0  0  0  0  0  0  0
  154.6252  139.4915  160.4685 H   0  0  0  0  0  0  0  0  0  0  0  0
  154.4124  142.4010  160.9314 H   0  0  0  0  0  0  0  0  0  0  0  0
  154.7068  141.6685  159.3739 H   0  0  0  0  0  0  0  0  0  0  0  0
  152.3624  140.6954  159.4261 H   0  0  0  0  0  0  0  0  0  0  0  0
  152.0881  141.4520  160.9689 H   0  0  0  0  0  0  0  0  0  0  0  0
  153.0079  144.1915  160.7767 H   0  0  0  0  0  0  0  0  0  0  0  0
  152.1876  146.2307  159.5854 H   0  0  0  0  0  0  0  0  0  0  0  0
  150.8436  145.9211  157.4248 H   0  0  0  0  0  0  0  0  0  0  0  0
  151.1385  141.8042  157.6509 H   0  0  0  0  0  0  0  0  0  0  0  0
  156.6710  138.2375  164.1340 H   0  0  0  0  0  0  0  0  0  0  0  0
  155.9166  139.7023  164.6775 H   0  0  0  0  0  0  0  0  0  0  0  0
  153.7003  138.5889  164.8276 H   0  0  0  0  0  0  0  0  0  0  0  0
  154.8694  137.7273  165.7960 H   0  0  0  0  0  0  0  0  0  0  0  0
  150.4451  143.7740  156.6562 H   0  0  0  0  0  0  0  0  0  0  0  0
  1  2  1  0  0  0  0
  1 22  1  0  0  0  0
  1 23  1  0  0  0  0
  1 24  1  0  0  0  0
  2  3  2  0  0  0  0
  2  4  2  0  0  0  0
  2  5  1  0  0  0  0
  5 21  1  0  0  0  0
  5  6  1  0  0  0  0
  6  7  1  0  0  0  0
  6 25  1  0  0  0  0
  6 26  1  0  0  0  0
  7  8  1  0  0  0  0
  7 27  1  0  0  0  0
  7 28  1  0  0  0  0
  8  9  1  0  0  0  0
  8 20  1  0  0  0  0
  9 10  2  0  0  0  0
  9 11  1  0  0  0  0
 11 12  1  0  0  0  0
 11 29  1  0  0  0  0
 12 13  1  0  0  0  0
 12 30  1  0  0  0  0
 12 31  1  0  0  0  0
 13 14  1  0  0  0  0
 13 32  1  0  0  0  0
 13 33  1  0  0  0  0
 14 19  1  0  0  0  0
 14 15  2  0  0  0  0
 15 16  1  0  0  0  0
 15 34  1  0  0  0  0
 16 17  2  0  0  0  0
 16 35  1  0  0  0  0
 17 18  1  0  0  0  0
 17 36  1  0  0  0  0
 18 19  2  0  0  0  0
 18 42  1  0  0  0  0
 19 37  1  0  0  0  0
 20 21  1  0  0  0  0
 20 38  1  0  0  0  0
 20 39  1  0  0  0  0
 21 40  1  0  0  0  0
 21 41  1  0  0  0  0
M  CHG  1  18   1
M  END
> <s_m_source_file>
AV-unprocessed.smi

> <i_m_source_file_index>
1930

> <i_lp_mmshare_version>
43012

> <i_f3d_flags>
0

> <s_epik_input>
W0NIM11TKD1PKSg9TylOMVtDSDJdW0NIMl1OKFtDSDJdW0NIMl0xKUMoPU8pW05IXVtDSDJdW0NIMl1jMltjSF1bY0hdW2NIXW5bY0hdMg==

> <s_epik_cmdline>
J2VwaWtfcHl0aG9uJywgJy1waCcsICc3LjAnLCAnLXRuJywgJzgnLCAnLW1hJywgJzIwMCcsICctbWV0YWxfYmluZGluZycsICctaW1hZScsICc8aW5maWxlLm1hZT4nLCAnLW9tYWUnLCAnPG91dGZpbGUubWFlPic=

> <r_epik_Ionization_Penalty>
2.21237

> <r_epik_Ionization_Penalty_Charging>
2.21233

> <r_epik_Ionization_Penalty_Neutral>
3.86464e-05

> <r_epik_State_Penalty>
2.35665

> <r_epik_Charging_Adjusted_Penalty>
4.56898

> <i_epik_Tot_Q>
1

> <i_epik_Tot_abs_Q>
1

> <r_epik_Metal_State_Penalty>
2.37073

> <b_epik_Metal_Only>
0

> <s_lp_Force_Field>
OPLS_2005

> <r_lp_Energy>
33.224

> <b_lp_Chiralities_Consistent>
1

> <s_lp_Variant>
AV-unprocessed.smi:1930-2

> <Gold.Version>
5.8.1

> <Gold.Id.Protein>
6NUR|6NUR_protein|mol2

> <Gold.PLP.Fitness>
49.3848

> <Gold.PLP.PLP>
-43.7748

> <Gold.PLP.part.hbond>
-2.0000

> <Gold.PLP.part.metal>
0.0000

> <Gold.PLP.part.buried>
-6.5082

> <Gold.PLP.part.nonpolar>
-34.9082

> <Gold.PLP.part.repulsive>
0.1491

> <Gold.PLP.ligand.clash>
0.0000

> <Gold.PLP.ligand.torsion>
1.2407

> <Gold.PLP.Chemscore.Hbond>
2.0000

> <Gold.PLP.Chemscore.CHOScore>
0.0000

> <Gold.PLP.Chemscore.Metal>
0.0000

> <Gold.Chemscore.Hbonds>
donor molecule, donor type, donor heavy atom, donor atom, acceptor molecule, acceptor atom, score
      L1  H    18    42       P1  8028  1.40

> <Gold.PLP.Chemscore.Internal.Correction>
2.0913

> <Gold.Rescore>
     Score         DG    S(hbond)    S(metal)    S(lipo)     H(rot)  DE(clash)    DE(int)     intcor
     15.31     -16.71       0.94        0.00     101.36       1.47       0.14       1.26       ----

> <Gold.Chemscore.Fitness>
15.3128

> <Gold.Chemscore.DG>
-16.7089

> <Gold.Chemscore.ZeroCoef>
-5.4800

> <Gold.Chemscore.Hbond>
0.9390

> <Gold.Chemscore.Metal>
0.0000

> <Gold.Chemscore.Lipo>
101.3628

> <Gold.Chemscore.Internal_Hbond>
0.0000

> <Gold.Chemscore.DEClash>
0.1378

> <Gold.Chemscore.DEInternal>
1.2584

> <Gold.Chemscore.Rot>
1.4714

> <Gold.Chemscore.Internal.Correction>
   9.000000E+99

> <Gold.Chemscore.Hbonds>
donor molecule, donor type, donor heavy atom, donor atom, acceptor molecule, acceptor atom, score
      L1  H    18    42       P1  8028  0.69

> <Gold.Chemscore.Hbond.Weighted>
-3.1362

> <Gold.Chemscore.Metal.Weighted>
-0.0000

> <Gold.Chemscore.Lipo.Weighted>
-11.8595

> <Gold.Chemscore.Internal_Hbond.Weighted>
0.0000

> <Gold.Chemscore.DEClash.Weighted>
0.1378

> <Gold.Chemscore.DEInternal.Weighted>
1.2584

> <Gold.Chemscore.Rot.Weighted>
3.7667

> <Gold.Chemscore.Internal.Correction.Weighted>
   9.000000E+99

> <Gold.Protein.RotatedTorsions>
[ 6907 6896 6895 6894 ] final   56.30 input  -60.11 | X-H torsion
[ 7974 7965 7964 7962 ] final    7.62 input  175.53 | X-H torsion
[ 8008 7997 7996 7995 ] final -105.97 input   59.86 | X-H torsion
[ 10167 10162 10161 10158 ] final   88.58 input  -65.29 | X-H torsion
[ 10718 10713 10712 10709 ] final   10.50 input   66.30 | X-H torsion
[ 10763 10752 10751 10750 ] final  163.63 input  -60.55 | X-H torsion
[ 11005 11000 10999 10996 ] final  125.57 input  -57.11 | X-H torsion

> <Gold.Protein.ActiveResidues>
 VAL166  LYS551  ARG553  GLY616  TRP617  ASP618  TYR619  PRO620  LYS621  CYS622 
 ASP623  PHE694  ASN695  SER759  ASP760  ASP761  ALA762  ILE779  LEU786  VAL792 
 PHE793  MET794  SER795  GLU796  ALA797  LYS798  CYS799  TRP800  GLU811  SER814 

> <Gold.Protein.RotatedAtoms>
  152.3623  134.6854  160.0202 H   0  0  0  0  0  0  0  0  0  0  0  0  # atno 6907 bound_to 6896
  151.7174  133.3308  159.3314 H   0  0  0  0  0  0  0  0  0  0  0  0  # atno 6908 bound_to 6896
  150.7613  134.6413  159.6283 H   0  0  0  0  0  0  0  0  0  0  0  0  # atno 6909 bound_to 6896
  146.2425  140.0055  142.8411 H   0  0  0  0  0  0  0  0  0  0  0  0  # atno 7974 bound_to 7965
  154.9076  140.0411  157.1928 H   0  0  0  0  0  0  0  0  0  0  0  0  # atno 8008 bound_to 7997
  154.8381  140.2910  155.5656 H   0  0  0  0  0  0  0  0  0  0  0  0  # atno 8009 bound_to 7997
  156.2990  140.2488  156.3318 H   0  0  0  0  0  0  0  0  0  0  0  0  # atno 8010 bound_to 7997
  139.8658  144.6519  150.9006 H   0  0  0  0  0  0  0  0  0  0  0  0  # atno 10167 bound_to 10162
  156.9818  130.6008  149.5677 H   0  0  0  0  0  0  0  0  0  0  0  0  # atno 10718 bound_to 10713
  154.2967  135.2760  155.2630 H   0  0  0  0  0  0  0  0  0  0  0  0  # atno 10763 bound_to 10752
  154.5085  135.5789  153.6589 H   0  0  0  0  0  0  0  0  0  0  0  0  # atno 10764 bound_to 10752
  152.9906  135.6175  154.3135 H   0  0  0  0  0  0  0  0  0  0  0  0  # atno 10765 bound_to 10752
  139.9413  134.9635  156.8578 H   0  0  0  0  0  0  0  0  0  0  0  0  # atno 11005 bound_to 11000
  145.1375  140.9553  143.4508 LP  0  0  0  0  0  0  0  0  0  0  0  0  # atno 17320 bound_to 7965
  145.0327  139.3327  143.6016 LP  0  0  0  0  0  0  0  0  0  0  0  0  # atno 17321 bound_to 7965
  140.7768  143.3705  151.1658 LP  0  0  0  0  0  0  0  0  0  0  0  0  # atno 17342 bound_to 10162
  139.7330  143.9042  152.3026 LP  0  0  0  0  0  0  0  0  0  0  0  0  # atno 17343 bound_to 10162
  156.0241  130.5335  150.8358 LP  0  0  0  0  0  0  0  0  0  0  0  0  # atno 17370 bound_to 10713
  157.5521  131.0944  150.9681 LP  0  0  0  0  0  0  0  0  0  0  0  0  # atno 17371 bound_to 10713
  140.5945  134.0230  155.7512 LP  0  0  0  0  0  0  0  0  0  0  0  0  # atno 17394 bound_to 11000
  141.1048  133.9711  157.3016 LP  0  0  0  0  0  0  0  0  0  0  0  0  # atno 17395 bound_to 11000

$$$$
