AV-unprocessed.smi:1390|AV-procd|sdf|5657|dock5
  -GOLD-   22720 5283D 1   1.00000     0.00000
 Structure written by MMmdl.
 44 45  0  0  0  0  0  0  0  0  1 V2000
  151.7761  145.3284  159.2048 C   0  0  0  0  0  0  0  0  0  0  0  0
  151.8590  143.8151  159.4290 C   0  0  1  0  0  0  0  0  0  0  0  0
  151.8470  143.0338  158.1017 C   0  0  0  0  0  0  0  0  0  0  0  0
  152.0351  141.6041  158.3438 N   0  0  0  0  0  0  0  0  0  0  0  0
  151.7946  140.7154  157.2722 C   0  0  0  0  0  0  0  0  0  0  0  0
  150.7615  140.9811  156.3407 C   0  0  0  0  0  0  0  0  0  0  0  0
  150.5373  140.0761  155.2854 C   0  0  0  0  0  0  0  0  0  0  0  0
  151.3538  138.9333  155.1822 C   0  0  0  0  0  0  0  0  0  0  0  0
  151.1438  137.9223  154.0729 C   0  0  0  0  0  0  0  0  0  0  0  0
  150.3487  136.7898  154.5273 N   0  0  0  0  0  0  0  0  0  0  0  0
  150.7641  135.8496  155.3896 C   0  0  0  0  0  0  0  0  0  0  0  0
  151.8985  135.8191  155.8657 O   0  0  0  0  0  0  0  0  0  0  0  0
  149.7516  134.7672  155.7632 C   0  0  0  0  0  0  0  0  0  0  0  0
  150.0740  133.5669  155.0770 O   0  0  0  0  0  0  0  0  0  0  0  0
  149.6307  133.5658  153.7297 C   0  0  0  0  0  0  0  0  0  0  0  0
  148.3104  132.7921  153.6278 C   0  0  0  0  0  0  0  0  0  0  0  0
  148.5255  131.5129  153.9316 F   0  0  0  0  0  0  0  0  0  0  0  0
  147.4167  133.2912  154.4813 F   0  0  0  0  0  0  0  0  0  0  0  0
  147.8304  132.8612  152.3862 F   0  0  0  0  0  0  0  0  0  0  0  0
  152.3626  138.7513  156.1486 C   0  0  0  0  0  0  0  0  0  0  0  0
  152.5799  139.6147  157.1626 N   0  0  0  0  0  0  0  0  0  0  0  0
  153.2065  141.3089  159.1653 C   0  0  0  0  0  0  0  0  0  0  0  0
  153.1841  142.1494  160.4533 C   0  0  0  0  0  0  0  0  0  0  0  0
  153.0677  143.5302  160.1272 O   0  0  0  0  0  0  0  0  0  0  0  0
  150.8601  145.5969  158.6777 H   0  0  0  0  0  0  0  0  0  0  0  0
  152.6193  145.6866  158.6137 H   0  0  0  0  0  0  0  0  0  0  0  0
  151.7826  145.8642  160.1544 H   0  0  0  0  0  0  0  0  0  0  0  0
  151.0104  143.5082  160.0433 H   0  0  0  0  0  0  0  0  0  0  0  0
  150.8988  143.2073  157.5911 H   0  0  0  0  0  0  0  0  0  0  0  0
  152.6419  143.3931  157.4460 H   0  0  0  0  0  0  0  0  0  0  0  0
  150.1501  141.8679  156.4139 H   0  0  0  0  0  0  0  0  0  0  0  0
  149.7521  140.2591  154.5666 H   0  0  0  0  0  0  0  0  0  0  0  0
  150.6328  138.4042  153.2385 H   0  0  0  0  0  0  0  0  0  0  0  0
  152.1148  137.5908  153.7003 H   0  0  0  0  0  0  0  0  0  0  0  0
  149.3998  136.7307  154.1865 H   0  0  0  0  0  0  0  0  0  0  0  0
  149.7804  134.6117  156.8425 H   0  0  0  0  0  0  0  0  0  0  0  0
  148.7459  135.0972  155.4972 H   0  0  0  0  0  0  0  0  0  0  0  0
  149.4881  134.5906  153.3833 H   0  0  0  0  0  0  0  0  0  0  0  0
  150.3839  133.1053  153.0886 H   0  0  0  0  0  0  0  0  0  0  0  0
  153.0109  137.8881  156.1136 H   0  0  0  0  0  0  0  0  0  0  0  0
  153.2595  140.2550  159.4343 H   0  0  0  0  0  0  0  0  0  0  0  0
  154.1044  141.5344  158.5889 H   0  0  0  0  0  0  0  0  0  0  0  0
  152.3600  141.8466  161.1012 H   0  0  0  0  0  0  0  0  0  0  0  0
  154.1040  141.9951  161.0171 H   0  0  0  0  0  0  0  0  0  0  0  0
  1  2  1  0  0  0  0
  1 25  1  0  0  0  0
  1 26  1  0  0  0  0
  1 27  1  0  0  0  0
  2 24  1  0  0  0  0
  2  3  1  0  0  0  0
  2 28  1  0  0  0  0
  3  4  1  0  0  0  0
  3 29  1  0  0  0  0
  3 30  1  0  0  0  0
  4  5  1  0  0  0  0
  4 22  1  0  0  0  0
  5 21  1  0  0  0  0
  5  6  2  0  0  0  0
  6  7  1  0  0  0  0
  6 31  1  0  0  0  0
  7  8  2  0  0  0  0
  7 32  1  0  0  0  0
  8  9  1  0  0  0  0
  8 20  1  0  0  0  0
  9 10  1  0  0  0  0
  9 33  1  0  0  0  0
  9 34  1  0  0  0  0
 10 11  1  0  0  0  0
 10 35  1  0  0  0  0
 11 12  2  0  0  0  0
 11 13  1  0  0  0  0
 13 14  1  0  0  0  0
 13 36  1  0  0  0  0
 13 37  1  0  0  0  0
 14 15  1  0  0  0  0
 15 16  1  0  0  0  0
 15 38  1  0  0  0  0
 15 39  1  0  0  0  0
 16 17  1  0  0  0  0
 16 18  1  0  0  0  0
 16 19  1  0  0  0  0
 20 21  2  0  0  0  0
 20 40  1  0  0  0  0
 22 23  1  0  0  0  0
 22 41  1  0  0  0  0
 22 42  1  0  0  0  0
 23 24  1  0  0  0  0
 23 43  1  0  0  0  0
 23 44  1  0  0  0  0
M  END
> <s_m_source_file>
AV-unprocessed.smi

> <i_m_source_file_index>
1390

> <i_lp_mmshare_version>
43012

> <i_f3d_flags>
0

> <s_epik_input>
W0NIM11bQ0BASF0xW0NIMl1OKFtDSDJdW0NIMl1PMSljMltjSF1bY0hdYyhbY0hdbjIpW0NIMl1bTkhdQyg9TylbQ0gyXU9bQ0gyXUMoRikoRilG

> <s_epik_cmdline>
J2VwaWtfcHl0aG9uJywgJy1waCcsICc3LjAnLCAnLXRuJywgJzgnLCAnLW1hJywgJzIwMCcsICctbWV0YWxfYmluZGluZycsICctaW1hZScsICc8aW5maWxlLm1hZT4nLCAnLW9tYWUnLCAnPG91dGZpbGUubWFlPic=

> <r_lp_tautomer_probability>
1

> <r_epik_Ionization_Penalty>
0.00481831

> <r_epik_Ionization_Penalty_Charging>
0

> <r_epik_Ionization_Penalty_Neutral>
0.00481831

> <r_epik_State_Penalty>
0.00349373

> <r_epik_Charging_Adjusted_Penalty>
0.00349373

> <i_epik_Tot_Q>
0

> <i_epik_Tot_abs_Q>
0

> <r_epik_Metal_State_Penalty>
-0

> <b_epik_Metal_Only>
0

> <s_lp_Force_Field>
OPLS_2005

> <r_lp_Energy>
17.1102

> <b_lp_Chiralities_Consistent>
1

> <s_lp_Variant>
AV-unprocessed.smi:1390-2

> <Gold.Version>
5.8.1

> <Gold.Id.Protein>
6NUR|6NUR_protein|mol2

> <Gold.PLP.Fitness>
51.6445

> <Gold.PLP.PLP>
-48.6572

> <Gold.PLP.part.hbond>
-3.3050

> <Gold.PLP.part.metal>
0.0000

> <Gold.PLP.part.buried>
-4.0817

> <Gold.PLP.part.nonpolar>
-41.7083

> <Gold.PLP.part.repulsive>
0.1544

> <Gold.PLP.ligand.clash>
0.0000

> <Gold.PLP.ligand.torsion>
1.3301

> <Gold.PLP.Chemscore.Hbond>
1.7531

> <Gold.PLP.Chemscore.CHOScore>
0.0000

> <Gold.PLP.Chemscore.Metal>
0.0000

> <Gold.Chemscore.Hbonds>
donor molecule, donor type, donor heavy atom, donor atom, acceptor molecule, acceptor atom, score
      L1  H    10    35       P1  7948  0.03
      P1  H  7997  8010       L1    21  1.00
      P1  H 10752 10763       L1    12  0.64

> <Gold.PLP.Chemscore.Internal.Correction>
0.3882

> <Gold.Rescore>
     Score         DG    S(hbond)    S(metal)    S(lipo)     H(rot)  DE(clash)    DE(int)     intcor
     13.39     -16.34       1.42        0.00     108.53       2.57       0.12       2.82       ----

> <Gold.Chemscore.Fitness>
13.3945

> <Gold.Chemscore.DG>
-16.3423

> <Gold.Chemscore.ZeroCoef>
-5.4800

> <Gold.Chemscore.Hbond>
1.4170

> <Gold.Chemscore.Metal>
0.0000

> <Gold.Chemscore.Lipo>
108.5272

> <Gold.Chemscore.Internal_Hbond>
0.0000

> <Gold.Chemscore.DEClash>
0.1228

> <Gold.Chemscore.DEInternal>
2.8250

> <Gold.Chemscore.Rot>
2.5657

> <Gold.Chemscore.Internal.Correction>
   9.000000E+99

> <Gold.Chemscore.Hbonds>
donor molecule, donor type, donor heavy atom, donor atom, acceptor molecule, acceptor atom, score
      L1  H    10    35       P1  7948  0.05
      P1  H  7997  8010       L1    21  0.21
      P1  H 10752 10763       L1    12  0.29

> <Gold.Chemscore.Hbond.Weighted>
-4.7328

> <Gold.Chemscore.Metal.Weighted>
-0.0000

> <Gold.Chemscore.Lipo.Weighted>
-12.6977

> <Gold.Chemscore.Internal_Hbond.Weighted>
0.0000

> <Gold.Chemscore.DEClash.Weighted>
0.1228

> <Gold.Chemscore.DEInternal.Weighted>
2.8250

> <Gold.Chemscore.Rot.Weighted>
6.5682

> <Gold.Chemscore.Internal.Correction.Weighted>
   9.000000E+99

> <Gold.Protein.RotatedTorsions>
[ 6907 6896 6895 6894 ] final  -50.61 input  -60.11 | X-H torsion
[ 7974 7965 7964 7962 ] final  143.55 input  175.53 | X-H torsion
[ 8008 7997 7996 7995 ] final   46.94 input   59.86 | X-H torsion
[ 10167 10162 10161 10158 ] final   38.15 input  -65.29 | X-H torsion
[ 10718 10713 10712 10709 ] final  100.30 input   66.30 | X-H torsion
[ 10763 10752 10751 10750 ] final   51.12 input  -60.55 | X-H torsion
[ 11005 11000 10999 10996 ] final  136.11 input  -57.11 | X-H torsion

> <Gold.Protein.ActiveResidues>
 VAL166  LYS551  ARG553  GLY616  TRP617  ASP618  TYR619  PRO620  LYS621  CYS622 
 ASP623  PHE694  ASN695  SER759  ASP760  ASP761  ALA762  ILE779  LEU786  VAL792 
 PHE793  MET794  SER795  GLU796  ALA797  LYS798  CYS799  TRP800  GLU811  SER814 

> <Gold.Protein.RotatedAtoms>
  150.8690  134.8060  159.7140 H   0  0  0  0  0  0  0  0  0  0  0  0  # atno 6907 bound_to 6896
  152.4701  134.4977  159.9725 H   0  0  0  0  0  0  0  0  0  0  0  0  # atno 6908 bound_to 6896
  151.5068  133.3454  159.2914 H   0  0  0  0  0  0  0  0  0  0  0  0  # atno 6909 bound_to 6896
  144.8911  139.5557  143.5798 H   0  0  0  0  0  0  0  0  0  0  0  0  # atno 7974 bound_to 7965
  155.3607  140.3418  155.4241 H   0  0  0  0  0  0  0  0  0  0  0  0  # atno 8008 bound_to 7997
  156.1715  140.1633  156.8474 H   0  0  0  0  0  0  0  0  0  0  0  0  # atno 8009 bound_to 7997
  154.5238  140.0761  156.8203 H   0  0  0  0  0  0  0  0  0  0  0  0  # atno 8010 bound_to 7997
  140.3964  144.1783  150.6132 H   0  0  0  0  0  0  0  0  0  0  0  0  # atno 10167 bound_to 10162
  157.6857  131.0694  150.5079 H   0  0  0  0  0  0  0  0  0  0  0  0  # atno 10718 bound_to 10713
  152.9785  135.5856  154.4363 H   0  0  0  0  0  0  0  0  0  0  0  0  # atno 10763 bound_to 10752
  154.3970  135.2768  155.2122 H   0  0  0  0  0  0  0  0  0  0  0  0  # atno 10764 bound_to 10752
  154.3970  135.6112  153.5929 H   0  0  0  0  0  0  0  0  0  0  0  0  # atno 10765 bound_to 10752
  140.0024  134.9473  157.0101 H   0  0  0  0  0  0  0  0  0  0  0  0  # atno 11005 bound_to 11000
  146.3054  139.7563  142.9060 LP  0  0  0  0  0  0  0  0  0  0  0  0  # atno 17320 bound_to 7965
  145.3781  141.0354  143.3193 LP  0  0  0  0  0  0  0  0  0  0  0  0  # atno 17321 bound_to 7965
  140.4786  143.2387  151.8987 LP  0  0  0  0  0  0  0  0  0  0  0  0  # atno 17342 bound_to 10162
  139.4786  144.5293  151.8689 LP  0  0  0  0  0  0  0  0  0  0  0  0  # atno 17343 bound_to 10162
  156.5397  130.4205  149.6160 LP  0  0  0  0  0  0  0  0  0  0  0  0  # atno 17370 bound_to 10713
  156.2996  130.7169  151.2038 LP  0  0  0  0  0  0  0  0  0  0  0  0  # atno 17371 bound_to 10713
  140.4704  134.1393  155.7202 LP  0  0  0  0  0  0  0  0  0  0  0  0  # atno 17394 bound_to 11000
  141.1652  133.8717  157.1736 LP  0  0  0  0  0  0  0  0  0  0  0  0  # atno 17395 bound_to 11000

$$$$
