AV-unprocessed.smi:3329|AV-procd|sdf|12796|dock10
  -GOLD-   2272019153D 1   1.00000     0.00000
 Structure written by MMmdl.
 42 43  0  0  0  0  0  0  0  0  2 V2000
  153.0752  142.5433  162.9129 C   0  0  0  0  0  0  0  0  0  0  0  0
  152.8481  142.9227  161.4778 C   0  0  0  0  0  0  0  0  0  0  0  0
  153.0188  142.1077  160.3229 C   0  0  0  0  0  0  0  0  0  0  0  0
  152.7344  142.7448  159.1987 N   0  0  0  0  0  0  0  0  0  0  0  0
  152.3689  143.9830  159.5935 N   0  0  0  0  0  0  0  0  0  0  0  0
  151.9940  144.9797  158.6046 C   0  0  0  0  0  0  0  0  0  0  0  0
  151.7772  144.3781  157.2053 C   0  0  0  0  0  0  0  0  0  0  0  0
  150.6836  143.3868  157.2104 N   0  3  0  0  0  0  0  0  0  0  0  0
  151.1187  142.0008  156.9463 C   0  0  0  0  0  0  0  0  0  0  0  0
  150.2260  141.3077  155.9160 C   0  0  0  0  0  0  0  0  0  0  0  0
  150.7185  140.5642  155.0677 O   0  0  0  0  0  0  0  0  0  0  0  0
  148.9103  141.5657  156.0122 N   0  0  0  0  0  0  0  0  0  0  0  0
  147.8147  141.0490  155.1799 C   0  0  2  0  0  0  0  0  0  0  0  0
  147.9802  141.7096  153.8013 C   0  0  0  0  0  0  0  0  0  0  0  0
  146.4939  141.4428  155.7088 C   0  0  0  0  0  0  0  0  0  0  0  0
  145.4581  141.7527  156.1219 N   0  0  0  0  0  0  0  0  0  0  0  0
  147.8015  139.5301  154.9901 C   0  0  0  0  0  0  0  0  0  0  0  0
  148.7910  138.7713  154.1330 C   0  0  0  0  0  0  0  0  0  0  0  0
  147.3447  138.8800  153.7035 C   0  0  0  0  0  0  0  0  0  0  0  0
  152.4403  144.1211  160.9638 C   0  0  0  0  0  0  0  0  0  0  0  0
  154.1338  142.5680  163.1716 H   0  0  0  0  0  0  0  0  0  0  0  0
  152.7157  141.5360  163.1248 H   0  0  0  0  0  0  0  0  0  0  0  0
  152.5606  143.2176  163.5976 H   0  0  0  0  0  0  0  0  0  0  0  0
  153.3398  141.0778  160.2689 H   0  0  0  0  0  0  0  0  0  0  0  0
  151.0872  145.4837  158.9420 H   0  0  0  0  0  0  0  0  0  0  0  0
  152.7790  145.7361  158.5695 H   0  0  0  0  0  0  0  0  0  0  0  0
  151.5340  145.1716  156.4980 H   0  0  0  0  0  0  0  0  0  0  0  0
  152.6946  143.9080  156.8485 H   0  0  0  0  0  0  0  0  0  0  0  0
  150.2376  143.4097  158.1167 H   0  0  0  0  0  0  0  0  0  0  0  0
  152.1457  142.0044  156.5791 H   0  0  0  0  0  0  0  0  0  0  0  0
  151.1034  141.4350  157.8791 H   0  0  0  0  0  0  0  0  0  0  0  0
  148.6270  142.1929  156.7511 H   0  0  0  0  0  0  0  0  0  0  0  0
  147.1835  141.4096  153.1194 H   0  0  0  0  0  0  0  0  0  0  0  0
  148.9292  141.4345  153.3386 H   0  0  0  0  0  0  0  0  0  0  0  0
  147.9506  142.7977  153.8758 H   0  0  0  0  0  0  0  0  0  0  0  0
  147.5095  139.0056  155.8987 H   0  0  0  0  0  0  0  0  0  0  0  0
  149.5226  139.3222  153.5492 H   0  0  0  0  0  0  0  0  0  0  0  0
  149.1314  137.8059  154.5017 H   0  0  0  0  0  0  0  0  0  0  0  0
  146.7274  137.9877  153.7861 H   0  0  0  0  0  0  0  0  0  0  0  0
  147.1229  139.5192  152.8517 H   0  0  0  0  0  0  0  0  0  0  0  0
  152.1945  145.0504  161.4566 H   0  0  0  0  0  0  0  0  0  0  0  0
  150.0018  143.6473  156.5118 H   0  0  0  0  0  0  0  0  0  0  0  0
  1  2  1  0  0  0  0
  1 21  1  0  0  0  0
  1 22  1  0  0  0  0
  1 23  1  0  0  0  0
  2 20  2  0  0  0  0
  2  3  1  0  0  0  0
  3  4  2  0  0  0  0
  3 24  1  0  0  0  0
  4  5  1  0  0  0  0
  5  6  1  0  0  0  0
  5 20  1  0  0  0  0
  6  7  1  0  0  0  0
  6 25  1  0  0  0  0
  6 26  1  0  0  0  0
  7  8  1  0  0  0  0
  7 27  1  0  0  0  0
  7 28  1  0  0  0  0
  8  9  1  0  0  0  0
  8 29  1  0  0  0  0
  8 42  1  0  0  0  0
  9 10  1  0  0  0  0
  9 30  1  0  0  0  0
  9 31  1  0  0  0  0
 10 11  2  0  0  0  0
 10 12  1  0  0  0  0
 12 13  1  0  0  0  0
 12 32  1  0  0  0  0
 13 14  1  0  0  0  0
 13 15  1  0  0  0  0
 13 17  1  0  0  0  0
 14 33  1  0  0  0  0
 14 34  1  0  0  0  0
 14 35  1  0  0  0  0
 15 16  3  0  0  0  0
 17 19  1  0  0  0  0
 17 18  1  0  0  0  0
 17 36  1  0  0  0  0
 18 19  1  0  0  0  0
 18 37  1  0  0  0  0
 18 38  1  0  0  0  0
 19 39  1  0  0  0  0
 19 40  1  0  0  0  0
 20 41  1  0  0  0  0
M  CHG  1   8   1
M  END
> <s_m_source_file>
AV-unprocessed.smi

> <i_m_source_file_index>
3329

> <i_lp_mmshare_version>
43012

> <i_f3d_flags>
0

> <s_epik_input>
W0NIM11jMVtjSF1ubihbY0hdMSlbQ0gyXVtDSDJdW05IXVtDSDJdQyg9TylbTkhdW0NAQF0oW0NIM10pKEMjTilbQ0hdMltDSDJdW0NIMl0y

> <s_epik_cmdline>
J2VwaWtfcHl0aG9uJywgJy1waCcsICc3LjAnLCAnLXRuJywgJzgnLCAnLW1hJywgJzIwMCcsICctbWV0YWxfYmluZGluZycsICctaW1hZScsICc8aW5maWxlLm1hZT4nLCAnLW9tYWUnLCAnPG91dGZpbGUubWFlPic=

> <r_lp_tautomer_probability>
1

> <r_epik_Ionization_Penalty>
0.350291

> <r_epik_Ionization_Penalty_Charging>
0.350239

> <r_epik_Ionization_Penalty_Neutral>
5.12768e-05

> <r_epik_State_Penalty>
0.347656

> <r_epik_Charging_Adjusted_Penalty>
0.697895

> <i_epik_Tot_Q>
1

> <i_epik_Tot_abs_Q>
1

> <r_epik_Metal_State_Penalty>
0.371739

> <b_epik_Metal_Only>
0

> <s_lp_Force_Field>
OPLS_2005

> <r_lp_Energy>
13.221

> <b_lp_Chiralities_Consistent>
1

> <s_lp_Variant>
AV-unprocessed.smi:3329-2

> <Gold.Version>
5.8.1

> <Gold.Id.Protein>
6NUR|6NUR_protein|mol2

> <Gold.PLP.Fitness>
51.6295

> <Gold.PLP.PLP>
-45.1721

> <Gold.PLP.part.hbond>
-2.6104

> <Gold.PLP.part.metal>
0.0000

> <Gold.PLP.part.buried>
-6.3785

> <Gold.PLP.part.nonpolar>
-35.0538

> <Gold.PLP.part.repulsive>
0.1918

> <Gold.PLP.ligand.clash>
0.0000

> <Gold.PLP.ligand.torsion>
2.0086

> <Gold.PLP.Chemscore.Hbond>
2.9760

> <Gold.PLP.Chemscore.CHOScore>
0.0000

> <Gold.PLP.Chemscore.Metal>
0.0000

> <Gold.Chemscore.Hbonds>
donor molecule, donor type, donor heavy atom, donor atom, acceptor molecule, acceptor atom, score
      L1  H     8    42       P1  8028  2.00
      P1  H  7989  7998       L1    11  0.98

> <Gold.PLP.Chemscore.Internal.Correction>
1.5466

> <Gold.Rescore>
     Score         DG    S(hbond)    S(metal)    S(lipo)     H(rot)  DE(clash)    DE(int)     intcor
     13.90     -18.31       1.90        0.00     107.86       2.40       0.06       4.36       ----

> <Gold.Chemscore.Fitness>
13.8968

> <Gold.Chemscore.DG>
-18.3106

> <Gold.Chemscore.ZeroCoef>
-5.4800

> <Gold.Chemscore.Hbond>
1.9007

> <Gold.Chemscore.Metal>
0.0000

> <Gold.Chemscore.Lipo>
107.8553

> <Gold.Chemscore.Internal_Hbond>
0.0000

> <Gold.Chemscore.DEClash>
0.0568

> <Gold.Chemscore.DEInternal>
4.3571

> <Gold.Chemscore.Rot>
2.3972

> <Gold.Chemscore.Internal.Correction>
   9.000000E+99

> <Gold.Chemscore.Hbonds>
donor molecule, donor type, donor heavy atom, donor atom, acceptor molecule, acceptor atom, score
      L1  H     8    42       P1  8028  0.98
      P1  H  7989  7998       L1    11  0.93

> <Gold.Chemscore.Hbond.Weighted>
-6.3484

> <Gold.Chemscore.Metal.Weighted>
-0.0000

> <Gold.Chemscore.Lipo.Weighted>
-12.6191

> <Gold.Chemscore.Internal_Hbond.Weighted>
0.0000

> <Gold.Chemscore.DEClash.Weighted>
0.0568

> <Gold.Chemscore.DEInternal.Weighted>
4.3571

> <Gold.Chemscore.Rot.Weighted>
6.1369

> <Gold.Chemscore.Internal.Correction.Weighted>
   9.000000E+99

> <Gold.Protein.RotatedTorsions>
[ 6907 6896 6895 6894 ] final  179.20 input  -60.11 | X-H torsion
[ 7974 7965 7964 7962 ] final -145.36 input  175.53 | X-H torsion
[ 8008 7997 7996 7995 ] final  104.59 input   59.86 | X-H torsion
[ 10167 10162 10161 10158 ] final   51.27 input  -65.29 | X-H torsion
[ 10718 10713 10712 10709 ] final  -78.37 input   66.30 | X-H torsion
[ 10763 10752 10751 10750 ] final   59.91 input  -60.55 | X-H torsion
[ 11005 11000 10999 10996 ] final  137.23 input  -57.11 | X-H torsion

> <Gold.Protein.ActiveResidues>
 VAL166  LYS551  ARG553  GLY616  TRP617  ASP618  TYR619  PRO620  LYS621  CYS622 
 ASP623  PHE694  ASN695  SER759  ASP760  ASP761  ALA762  ILE779  LEU786  VAL792 
 PHE793  MET794  SER795  GLU796  ALA797  LYS798  CYS799  TRP800  GLU811  SER814 

> <Gold.Protein.RotatedAtoms>
  151.6755  133.3313  159.3206 H   0  0  0  0  0  0  0  0  0  0  0  0  # atno 6907 bound_to 6896
  150.7847  134.6825  159.6461 H   0  0  0  0  0  0  0  0  0  0  0  0  # atno 6908 bound_to 6896
  152.3914  134.6439  160.0158 H   0  0  0  0  0  0  0  0  0  0  0  0  # atno 6909 bound_to 6896
  144.8233  140.5593  143.5564 H   0  0  0  0  0  0  0  0  0  0  0  0  # atno 7974 bound_to 7965
  156.1586  140.3145  155.8768 H   0  0  0  0  0  0  0  0  0  0  0  0  # atno 8008 bound_to 7997
  155.3828  140.0489  157.3060 H   0  0  0  0  0  0  0  0  0  0  0  0  # atno 8009 bound_to 7997
  154.5125  140.2169  155.9140 H   0  0  0  0  0  0  0  0  0  0  0  0  # atno 8010 bound_to 7997
  140.2637  144.3344  150.6310 H   0  0  0  0  0  0  0  0  0  0  0  0  # atno 10167 bound_to 10162
  156.0119  130.4516  150.3486 H   0  0  0  0  0  0  0  0  0  0  0  0  # atno 10718 bound_to 10713
  152.9907  135.5555  154.5790 H   0  0  0  0  0  0  0  0  0  0  0  0  # atno 10763 bound_to 10752
  154.5175  135.2806  155.1293 H   0  0  0  0  0  0  0  0  0  0  0  0  # atno 10764 bound_to 10752
  154.2660  135.6372  153.5345 H   0  0  0  0  0  0  0  0  0  0  0  0  # atno 10765 bound_to 10752
  140.0100  134.9443  157.0257 H   0  0  0  0  0  0  0  0  0  0  0  0  # atno 11005 bound_to 11000
  145.5057  139.1481  143.3633 LP  0  0  0  0  0  0  0  0  0  0  0  0  # atno 17320 bound_to 7965
  146.2538  140.5197  142.8882 LP  0  0  0  0  0  0  0  0  0  0  0  0  # atno 17321 bound_to 7965
  140.5946  143.2167  151.7189 LP  0  0  0  0  0  0  0  0  0  0  0  0  # atno 17342 bound_to 10162
  139.5009  144.3887  152.0302 LP  0  0  0  0  0  0  0  0  0  0  0  0  # atno 17343 bound_to 10162
  157.1579  131.0337  151.2854 LP  0  0  0  0  0  0  0  0  0  0  0  0  # atno 17370 bound_to 10713
  157.4336  130.7504  149.7010 LP  0  0  0  0  0  0  0  0  0  0  0  0  # atno 17371 bound_to 10713
  140.4572  134.1521  155.7187 LP  0  0  0  0  0  0  0  0  0  0  0  0  # atno 17394 bound_to 11000
  141.1704  133.8620  157.1588 LP  0  0  0  0  0  0  0  0  0  0  0  0  # atno 17395 bound_to 11000

$$$$
