AV-unprocessed.smi:3254|AV-procd|sdf|12454|dock2
  -GOLD-   2272018353D 1   1.00000     0.00000
 Structure written by MMmdl.
 37 38  0  0  0  0  0  0  0  0  2 V2000
  149.0026  135.7321  156.2317 C   0  0  0  0  0  0  0  0  0  0  0  0
  150.3378  134.9870  156.3674 C   0  0  0  0  0  0  0  0  0  0  0  0
  150.2748  133.6530  155.7755 N   0  0  0  0  0  0  0  0  0  0  0  0
  149.9065  133.4772  154.3804 C   0  0  0  0  0  0  0  0  0  0  0  0
  149.7664  131.9531  154.1735 C   0  0  2  0  0  0  0  0  0  0  0  0
  148.3095  131.5282  153.9314 C   0  0  0  0  0  0  0  0  0  0  0  0
  147.4480  131.7493  154.7835 O   0  0  0  0  0  0  0  0  0  0  0  0
  148.0468  130.9230  152.7628 N   0  0  0  0  0  0  0  0  0  0  0  0
  146.7324  130.4482  152.3480 C   0  0  0  0  0  0  0  0  0  0  0  0
  145.6328  131.4742  152.6695 C   0  0  0  0  0  0  0  0  0  0  0  0
  144.9951  131.9815  151.4541 N   0  0  0  0  0  0  0  0  0  0  0  0
  145.5038  131.9607  150.1809 C   0  0  0  0  0  0  0  0  0  0  0  0
  144.5612  132.5449  149.3745 C   0  0  0  0  0  0  0  0  0  0  0  0
  143.5188  132.8979  150.1893 N   0  3  0  0  0  0  0  0  0  0  0  0
  143.7848  132.5547  151.4540 C   0  0  0  0  0  0  0  0  0  0  0  0
  150.3349  131.3178  155.4583 C   0  0  0  0  0  0  0  0  0  0  0  0
  150.5348  132.4969  156.3955 C   0  0  0  0  0  0  0  0  0  0  0  0
  150.8825  132.3640  157.5678 O   0  0  0  0  0  0  0  0  0  0  0  0
  149.0601  136.7159  156.6974 H   0  0  0  0  0  0  0  0  0  0  0  0
  148.1948  135.1824  156.7156 H   0  0  0  0  0  0  0  0  0  0  0  0
  148.7306  135.8775  155.1859 H   0  0  0  0  0  0  0  0  0  0  0  0
  151.1348  135.5591  155.8901 H   0  0  0  0  0  0  0  0  0  0  0  0
  150.6069  134.9065  157.4212 H   0  0  0  0  0  0  0  0  0  0  0  0
  148.9896  134.0248  154.1544 H   0  0  0  0  0  0  0  0  0  0  0  0
  150.6956  133.8831  153.7461 H   0  0  0  0  0  0  0  0  0  0  0  0
  150.3718  131.6487  153.3178 H   0  0  0  0  0  0  0  0  0  0  0  0
  148.8120  130.7773  152.1200 H   0  0  0  0  0  0  0  0  0  0  0  0
  146.7627  130.2581  151.2747 H   0  0  0  0  0  0  0  0  0  0  0  0
  146.5162  129.4912  152.8266 H   0  0  0  0  0  0  0  0  0  0  0  0
  144.8518  131.0303  153.2882 H   0  0  0  0  0  0  0  0  0  0  0  0
  146.0407  132.3200  153.2252 H   0  0  0  0  0  0  0  0  0  0  0  0
  146.4734  131.5430  149.9500 H   0  0  0  0  0  0  0  0  0  0  0  0
  144.5548  132.7316  148.3103 H   0  0  0  0  0  0  0  0  0  0  0  0
  143.1472  132.7111  152.3058 H   0  0  0  0  0  0  0  0  0  0  0  0
  149.6745  130.5774  155.9130 H   0  0  0  0  0  0  0  0  0  0  0  0
  151.2959  130.8389  155.2684 H   0  0  0  0  0  0  0  0  0  0  0  0
  142.6683  133.3531  149.8816 H   0  0  0  0  0  0  0  0  0  0  0  0
  1  2  1  0  0  0  0
  1 19  1  0  0  0  0
  1 20  1  0  0  0  0
  1 21  1  0  0  0  0
  2  3  1  0  0  0  0
  2 22  1  0  0  0  0
  2 23  1  0  0  0  0
  3 17  1  0  0  0  0
  3  4  1  0  0  0  0
  4  5  1  0  0  0  0
  4 24  1  0  0  0  0
  4 25  1  0  0  0  0
  5  6  1  0  0  0  0
  5 16  1  0  0  0  0
  5 26  1  0  0  0  0
  6  7  2  0  0  0  0
  6  8  1  0  0  0  0
  8  9  1  0  0  0  0
  8 27  1  0  0  0  0
  9 10  1  0  0  0  0
  9 28  1  0  0  0  0
  9 29  1  0  0  0  0
 10 11  1  0  0  0  0
 10 30  1  0  0  0  0
 10 31  1  0  0  0  0
 11 15  1  0  0  0  0
 11 12  1  0  0  0  0
 12 13  2  0  0  0  0
 12 32  1  0  0  0  0
 13 14  1  0  0  0  0
 13 33  1  0  0  0  0
 14 15  2  0  0  0  0
 14 37  1  0  0  0  0
 15 34  1  0  0  0  0
 16 17  1  0  0  0  0
 16 35  1  0  0  0  0
 16 36  1  0  0  0  0
 17 18  2  0  0  0  0
M  CHG  1  14   1
M  END
> <s_m_source_file>
AV-unprocessed.smi

> <i_m_source_file_index>
3254

> <i_lp_mmshare_version>
43012

> <i_f3d_flags>
0

> <s_epik_input>
W0NIM11bQ0gyXU4xW0NIMl1bQ0BIXShbQ0gyXUMxPU8pQyg9TylbTkhdW0NIMl1bQ0gyXW4yW2NIXVtjSF1uW2NIXTI=

> <s_epik_cmdline>
J2VwaWtfcHl0aG9uJywgJy1waCcsICc3LjAnLCAnLXRuJywgJzgnLCAnLW1hJywgJzIwMCcsICctbWV0YWxfYmluZGluZycsICctaW1hZScsICc8aW5maWxlLm1hZT4nLCAnLW9tYWUnLCAnPG91dGZpbGUubWFlPic=

> <r_lp_tautomer_probability>
1

> <r_epik_Ionization_Penalty>
0.274742

> <r_epik_Ionization_Penalty_Charging>
0

> <r_epik_Ionization_Penalty_Neutral>
0.274742

> <r_epik_State_Penalty>
0.267046

> <r_epik_Charging_Adjusted_Penalty>
0.267046

> <i_epik_Tot_Q>
1

> <i_epik_Tot_abs_Q>
1

> <r_epik_Metal_State_Penalty>
0.550456

> <b_epik_Metal_Only>
0

> <s_lp_Force_Field>
OPLS_2005

> <r_lp_Energy>
15.3275

> <b_lp_Chiralities_Consistent>
1

> <s_lp_Variant>
AV-unprocessed.smi:3254-2

> <Gold.Version>
5.8.1

> <Gold.Id.Protein>
6NUR|6NUR_protein|mol2

> <Gold.PLP.Fitness>
45.4747

> <Gold.PLP.PLP>
-32.5762

> <Gold.PLP.part.hbond>
-3.0000

> <Gold.PLP.part.metal>
0.0000

> <Gold.PLP.part.buried>
-5.2630

> <Gold.PLP.part.nonpolar>
-23.9739

> <Gold.PLP.part.repulsive>
0.0841

> <Gold.PLP.ligand.clash>
0.0000

> <Gold.PLP.ligand.torsion>
0.7856

> <Gold.PLP.Chemscore.Hbond>
3.7040

> <Gold.PLP.Chemscore.CHOScore>
1.1094

> <Gold.PLP.Chemscore.Metal>
0.0000

> <Gold.Chemscore.Hbonds>
donor molecule, donor type, donor heavy atom, donor atom, acceptor molecule, acceptor atom, score
      L1  H     8    27       P1 10747  0.72
      L1  H    14    37       P1 10186  2.00
      P1  H  6896  6909       L1    18  1.00
      L1  C    12    32       P1 10747  0.82
      L1  C    15    34       P1 10957  0.40

> <Gold.PLP.Chemscore.Internal.Correction>
0.0295

> <Gold.Rescore>
     Score         DG    S(hbond)    S(metal)    S(lipo)     H(rot)  DE(clash)    DE(int)     intcor
     13.48     -15.44       2.72        0.00      57.34       2.28       0.00       1.95       ----

> <Gold.Chemscore.Fitness>
13.4841

> <Gold.Chemscore.DG>
-15.4367

> <Gold.Chemscore.ZeroCoef>
-5.4800

> <Gold.Chemscore.Hbond>
2.7182

> <Gold.Chemscore.Metal>
0.0000

> <Gold.Chemscore.Lipo>
57.3398

> <Gold.Chemscore.Internal_Hbond>
0.0000

> <Gold.Chemscore.DEClash>
0.0000

> <Gold.Chemscore.DEInternal>
1.9526

> <Gold.Chemscore.Rot>
2.2776

> <Gold.Chemscore.Internal.Correction>
   9.000000E+99

> <Gold.Chemscore.Hbonds>
donor molecule, donor type, donor heavy atom, donor atom, acceptor molecule, acceptor atom, score
      L1  H     8    27       P1 10747  0.43
      L1  H    14    37       P1 10186  0.96
      P1  H  6896  6909       L1    18  0.95

> <Gold.Chemscore.Hbond.Weighted>
-9.0787

> <Gold.Chemscore.Metal.Weighted>
-0.0000

> <Gold.Chemscore.Lipo.Weighted>
-6.7088

> <Gold.Chemscore.Internal_Hbond.Weighted>
0.0000

> <Gold.Chemscore.DEClash.Weighted>
0.0000

> <Gold.Chemscore.DEInternal.Weighted>
1.9526

> <Gold.Chemscore.Rot.Weighted>
5.8307

> <Gold.Chemscore.Internal.Correction.Weighted>
   9.000000E+99

> <Gold.Protein.RotatedTorsions>
[ 6907 6896 6895 6894 ] final  -48.44 input  -60.11 | X-H torsion
[ 7974 7965 7964 7962 ] final   67.98 input  175.53 | X-H torsion
[ 8008 7997 7996 7995 ] final  -13.19 input   59.86 | X-H torsion
[ 10167 10162 10161 10158 ] final  176.82 input  -65.29 | X-H torsion
[ 10718 10713 10712 10709 ] final  160.84 input   66.30 | X-H torsion
[ 10763 10752 10751 10750 ] final   79.24 input  -60.55 | X-H torsion
[ 11005 11000 10999 10996 ] final  -73.14 input  -57.11 | X-H torsion

> <Gold.Protein.ActiveResidues>
 VAL166  LYS551  ARG553  GLY616  TRP617  ASP618  TYR619  PRO620  LYS621  CYS622 
 ASP623  PHE694  ASN695  SER759  ASP760  ASP761  ALA762  ILE779  LEU786  VAL792 
 PHE793  MET794  SER795  GLU796  ALA797  LYS798  CYS799  TRP800  GLU811  SER814 

> <Gold.Protein.RotatedAtoms>
  150.8906  134.8309  159.7290 H   0  0  0  0  0  0  0  0  0  0  0  0  # atno 6907 bound_to 6896
  152.4834  134.4654  159.9628 H   0  0  0  0  0  0  0  0  0  0  0  0  # atno 6908 bound_to 6896
  151.4718  133.3528  159.2860 H   0  0  0  0  0  0  0  0  0  0  0  0  # atno 6909 bound_to 6896
  145.8081  139.3017  143.1115 H   0  0  0  0  0  0  0  0  0  0  0  0  # atno 7974 bound_to 7965
  154.5313  140.2256  155.8799 H   0  0  0  0  0  0  0  0  0  0  0  0  # atno 8008 bound_to 7997
  156.1767  140.3109  155.9035 H   0  0  0  0  0  0  0  0  0  0  0  0  # atno 8009 bound_to 7997
  155.3445  140.0452  157.3036 H   0  0  0  0  0  0  0  0  0  0  0  0  # atno 8010 bound_to 7997
  139.5229  144.2871  152.0496 H   0  0  0  0  0  0  0  0  0  0  0  0  # atno 10167 bound_to 10162
  157.1448  131.0549  151.2309 H   0  0  0  0  0  0  0  0  0  0  0  0  # atno 10718 bound_to 10713
  153.0937  135.4847  154.8738 H   0  0  0  0  0  0  0  0  0  0  0  0  # atno 10763 bound_to 10752
  154.7299  135.3058  154.8910 H   0  0  0  0  0  0  0  0  0  0  0  0  # atno 10764 bound_to 10752
  153.9549  135.6819  153.4797 H   0  0  0  0  0  0  0  0  0  0  0  0  # atno 10765 bound_to 10752
  141.1618  133.6869  156.7167 H   0  0  0  0  0  0  0  0  0  0  0  0  # atno 11005 bound_to 11000
  145.9807  140.8685  143.0116 LP  0  0  0  0  0  0  0  0  0  0  0  0  # atno 17320 bound_to 7965
  144.6760  140.2076  143.7380 LP  0  0  0  0  0  0  0  0  0  0  0  0  # atno 17321 bound_to 7965
  140.2324  144.4355  150.6294 LP  0  0  0  0  0  0  0  0  0  0  0  0  # atno 17342 bound_to 10162
  140.6346  143.2193  151.6422 LP  0  0  0  0  0  0  0  0  0  0  0  0  # atno 17343 bound_to 10162
  157.4274  130.7471  149.6962 LP  0  0  0  0  0  0  0  0  0  0  0  0  # atno 17370 bound_to 10713
  155.9781  130.4054  150.3666 LP  0  0  0  0  0  0  0  0  0  0  0  0  # atno 17371 bound_to 10713
  140.2847  134.8289  157.3964 LP  0  0  0  0  0  0  0  0  0  0  0  0  # atno 17394 bound_to 11000
  140.1401  134.4983  155.8038 LP  0  0  0  0  0  0  0  0  0  0  0  0  # atno 17395 bound_to 11000

$$$$
