AV-unprocessed.smi:1407|AV-procd|sdf|5725|dock10
  -GOLD-   22720 5363D 1   1.00000     0.00000
 Structure written by MMmdl.
 50 51  0  0  0  0  0  0  0  0  2 V2000
  149.9186  134.9048  154.7282 C   0  0  0  0  0  0  0  0  0  0  0  0
  149.2924  136.2544  154.7430 N   0  3  0  0  0  0  0  0  0  0  0  0
  147.8829  136.1513  155.2141 C   0  0  0  0  0  0  0  0  0  0  0  0
  150.1224  137.3608  155.3592 C   0  0  0  0  0  0  0  0  0  0  0  0
  150.4407  136.9604  156.8392 C   0  0  0  0  0  0  0  0  0  0  0  0
  149.3098  137.1565  157.7443 N   0  0  0  0  0  0  0  0  0  0  0  0
  148.7798  136.2527  158.5845 C   0  0  0  0  0  0  0  0  0  0  0  0
  149.2192  135.1099  158.6986 O   0  0  0  0  0  0  0  0  0  0  0  0
  147.5548  136.6713  159.4158 C   0  0  0  0  0  0  0  0  0  0  0  0
  147.2544  135.7864  160.5563 N   0  0  0  0  0  0  0  0  0  0  0  0
  146.9934  134.4335  160.2601 C   0  0  0  0  0  0  0  0  0  0  0  0
  146.6855  133.5437  161.2168 C   0  0  0  0  0  0  0  0  0  0  0  0
  146.6294  134.0042  162.5839 C   0  0  0  0  0  0  0  0  0  0  0  0
  146.8753  135.2964  162.8781 C   0  0  0  0  0  0  0  0  0  0  0  0
  147.2012  136.2747  161.8341 C   0  0  0  0  0  0  0  0  0  0  0  0
  147.4015  137.4618  162.0901 O   0  0  0  0  0  0  0  0  0  0  0  0
  151.4675  137.4997  154.5679 C   0  0  0  0  0  0  0  0  0  0  0  0
  152.0837  138.8947  154.3469 C   0  0  0  0  0  0  0  0  0  0  0  0
  152.2157  139.7941  155.5818 C   0  0  0  0  0  0  0  0  0  0  0  0
  150.9598  140.6409  155.8195 C   0  0  0  0  0  0  0  0  0  0  0  0
  149.7331  139.8491  156.2857 C   0  0  0  0  0  0  0  0  0  0  0  0
  149.2894  138.6938  155.3563 C   0  0  0  0  0  0  0  0  0  0  0  0
  150.1817  134.5723  155.7324 H   0  0  0  0  0  0  0  0  0  0  0  0
  150.8122  134.8691  154.1066 H   0  0  0  0  0  0  0  0  0  0  0  0
  149.2331  134.1684  154.3066 H   0  0  0  0  0  0  0  0  0  0  0  0
  147.8171  135.7360  156.2194 H   0  0  0  0  0  0  0  0  0  0  0  0
  147.3243  135.4855  154.5556 H   0  0  0  0  0  0  0  0  0  0  0  0
  147.3497  137.0985  155.2084 H   0  0  0  0  0  0  0  0  0  0  0  0
  150.8146  135.9417  156.9258 H   0  0  0  0  0  0  0  0  0  0  0  0
  151.2619  137.5569  157.2296 H   0  0  0  0  0  0  0  0  0  0  0  0
  148.8829  138.0720  157.7260 H   0  0  0  0  0  0  0  0  0  0  0  0
  147.7219  137.6883  159.7742 H   0  0  0  0  0  0  0  0  0  0  0  0
  146.6944  136.7483  158.7488 H   0  0  0  0  0  0  0  0  0  0  0  0
  147.0518  134.1732  159.2130 H   0  0  0  0  0  0  0  0  0  0  0  0
  146.4846  132.5114  160.9705 H   0  0  0  0  0  0  0  0  0  0  0  0
  146.3916  133.3086  163.3755 H   0  0  0  0  0  0  0  0  0  0  0  0
  146.8305  135.6222  163.9071 H   0  0  0  0  0  0  0  0  0  0  0  0
  152.2205  136.8577  155.0272 H   0  0  0  0  0  0  0  0  0  0  0  0
  151.3506  137.0993  153.5618 H   0  0  0  0  0  0  0  0  0  0  0  0
  153.0807  138.7441  153.9309 H   0  0  0  0  0  0  0  0  0  0  0  0
  151.5329  139.4211  153.5665 H   0  0  0  0  0  0  0  0  0  0  0  0
  152.4944  139.2234  156.4665 H   0  0  0  0  0  0  0  0  0  0  0  0
  153.0436  140.4827  155.4078 H   0  0  0  0  0  0  0  0  0  0  0  0
  151.1849  141.3999  156.5695 H   0  0  0  0  0  0  0  0  0  0  0  0
  150.7141  141.1912  154.9104 H   0  0  0  0  0  0  0  0  0  0  0  0
  149.8742  139.5158  157.3120 H   0  0  0  0  0  0  0  0  0  0  0  0
  148.9043  140.5553  156.3483 H   0  0  0  0  0  0  0  0  0  0  0  0
  149.2039  139.0861  154.3424 H   0  0  0  0  0  0  0  0  0  0  0  0
  148.2688  138.4542  155.6590 H   0  0  0  0  0  0  0  0  0  0  0  0
  149.2181  136.5121  153.7690 H   0  0  0  0  0  0  0  0  0  0  0  0
  1  2  1  0  0  0  0
  1 23  1  0  0  0  0
  1 24  1  0  0  0  0
  1 25  1  0  0  0  0
  2  3  1  0  0  0  0
  2  4  1  0  0  0  0
  2 50  1  0  0  0  0
  3 26  1  0  0  0  0
  3 27  1  0  0  0  0
  3 28  1  0  0  0  0
  4 22  1  0  0  0  0
  4  5  1  0  0  0  0
  4 17  1  0  0  0  0
  5  6  1  0  0  0  0
  5 29  1  0  0  0  0
  5 30  1  0  0  0  0
  6  7  1  0  0  0  0
  6 31  1  0  0  0  0
  7  8  2  0  0  0  0
  7  9  1  0  0  0  0
  9 10  1  0  0  0  0
  9 32  1  0  0  0  0
  9 33  1  0  0  0  0
 10 15  1  0  0  0  0
 10 11  1  0  0  0  0
 11 12  2  0  0  0  0
 11 34  1  0  0  0  0
 12 13  1  0  0  0  0
 12 35  1  0  0  0  0
 13 14  2  0  0  0  0
 13 36  1  0  0  0  0
 14 15  1  0  0  0  0
 14 37  1  0  0  0  0
 15 16  2  0  0  0  0
 17 18  1  0  0  0  0
 17 38  1  0  0  0  0
 17 39  1  0  0  0  0
 18 19  1  0  0  0  0
 18 40  1  0  0  0  0
 18 41  1  0  0  0  0
 19 20  1  0  0  0  0
 19 42  1  0  0  0  0
 19 43  1  0  0  0  0
 20 21  1  0  0  0  0
 20 44  1  0  0  0  0
 20 45  1  0  0  0  0
 21 22  1  0  0  0  0
 21 46  1  0  0  0  0
 21 47  1  0  0  0  0
 22 48  1  0  0  0  0
 22 49  1  0  0  0  0
M  CHG  1   2   1
M  END
> <s_m_source_file>
AV-unprocessed.smi

> <i_m_source_file_index>
1407

> <i_lp_mmshare_version>
43012

> <i_f3d_flags>
0

> <s_epik_input>
W0NIMl0xW0NIMl1bQ0gyXVtDSDJdW0NIMl1bQ0gyXUMxKE4oW0NIM10pW0NIM10pW0NIMl1bTkhdQyg9TylbQ0gyXW4yW2NIXVtjSF1bY0hdW2NIXWMyPU8=

> <s_epik_cmdline>
J2VwaWtfcHl0aG9uJywgJy1waCcsICc3LjAnLCAnLXRuJywgJzgnLCAnLW1hJywgJzIwMCcsICctbWV0YWxfYmluZGluZycsICctaW1hZScsICc8aW5maWxlLm1hZT4nLCAnLW9tYWUnLCAnPG91dGZpbGUubWFlPic=

> <r_lp_tautomer_probability>
1

> <r_epik_Ionization_Penalty>
0.00225809

> <r_epik_Ionization_Penalty_Charging>
0.00225802

> <r_epik_Ionization_Penalty_Neutral>
7.38919e-08

> <r_epik_State_Penalty>
0.00155497

> <r_epik_Charging_Adjusted_Penalty>
0.00381299

> <i_epik_Tot_Q>
1

> <i_epik_Tot_abs_Q>
1

> <r_epik_Metal_State_Penalty>
-0

> <b_epik_Metal_Only>
0

> <s_lp_Force_Field>
OPLS_2005

> <r_lp_Energy>
50.9808

> <b_lp_Chiralities_Consistent>
1

> <s_lp_Variant>
AV-unprocessed.smi:1407-1

> <Gold.Version>
5.8.1

> <Gold.Id.Protein>
6NUR|6NUR_protein|mol2

> <Gold.PLP.Fitness>
49.4573

> <Gold.PLP.PLP>
-36.9301

> <Gold.PLP.part.hbond>
-4.0000

> <Gold.PLP.part.metal>
0.0000

> <Gold.PLP.part.buried>
-1.3337

> <Gold.PLP.part.nonpolar>
-30.4205

> <Gold.PLP.part.repulsive>
0.0780

> <Gold.PLP.ligand.clash>
0.0000

> <Gold.PLP.ligand.torsion>
0.5680

> <Gold.PLP.Chemscore.Hbond>
4.5076

> <Gold.PLP.Chemscore.CHOScore>
0.0000

> <Gold.PLP.Chemscore.Metal>
0.0000

> <Gold.Chemscore.Hbonds>
donor molecule, donor type, donor heavy atom, donor atom, acceptor molecule, acceptor atom, score
      L1  H     2    50       P1  7948  2.00
      P1  H  6896  6907       L1     8  1.00
      P1  H  6931  6943       L1    16  0.75
      P1  H  6934  6947       L1    16  0.61

> <Gold.PLP.Chemscore.Internal.Correction>
0.1403

> <Gold.Rescore>
     Score         DG    S(hbond)    S(metal)    S(lipo)     H(rot)  DE(clash)    DE(int)     intcor
     17.51     -21.48       3.23        0.00      84.26       1.81       0.55       3.42       ----

> <Gold.Chemscore.Fitness>
17.5102

> <Gold.Chemscore.DG>
-21.4758

> <Gold.Chemscore.ZeroCoef>
-5.4800

> <Gold.Chemscore.Hbond>
3.2284

> <Gold.Chemscore.Metal>
0.0000

> <Gold.Chemscore.Lipo>
84.2558

> <Gold.Chemscore.Internal_Hbond>
0.0000

> <Gold.Chemscore.DEClash>
0.5500

> <Gold.Chemscore.DEInternal>
3.4156

> <Gold.Chemscore.Rot>
1.8145

> <Gold.Chemscore.Internal.Correction>
   9.000000E+99

> <Gold.Chemscore.Hbonds>
donor molecule, donor type, donor heavy atom, donor atom, acceptor molecule, acceptor atom, score
      L1  H     2    50       P1  7948  0.95
      P1  H  6896  6907       L1     8  0.96
      P1  H  6931  6943       L1    16  0.75
      P1  H  6934  6947       L1    16  0.60

> <Gold.Chemscore.Hbond.Weighted>
-10.7830

> <Gold.Chemscore.Metal.Weighted>
-0.0000

> <Gold.Chemscore.Lipo.Weighted>
-9.8579

> <Gold.Chemscore.Internal_Hbond.Weighted>
0.0000

> <Gold.Chemscore.DEClash.Weighted>
0.5500

> <Gold.Chemscore.DEInternal.Weighted>
3.4156

> <Gold.Chemscore.Rot.Weighted>
4.6451

> <Gold.Chemscore.Internal.Correction.Weighted>
   9.000000E+99

> <Gold.Protein.RotatedTorsions>
[ 6907 6896 6895 6894 ] final  -58.33 input  -60.11 | X-H torsion
[ 7974 7965 7964 7962 ] final  176.18 input  175.53 | X-H torsion
[ 8008 7997 7996 7995 ] final  -53.93 input   59.86 | X-H torsion
[ 10167 10162 10161 10158 ] final  171.76 input  -65.29 | X-H torsion
[ 10718 10713 10712 10709 ] final   34.19 input   66.30 | X-H torsion
[ 10763 10752 10751 10750 ] final  170.52 input  -60.55 | X-H torsion
[ 11005 11000 10999 10996 ] final  -31.96 input  -57.11 | X-H torsion

> <Gold.Protein.ActiveResidues>
 VAL166  LYS551  ARG553  GLY616  TRP617  ASP618  TYR619  PRO620  LYS621  CYS622 
 ASP623  PHE694  ASN695  SER759  ASP760  ASP761  ALA762  ILE779  LEU786  VAL792 
 PHE793  MET794  SER795  GLU796  ALA797  LYS798  CYS799  TRP800  GLU811  SER814 

> <Gold.Protein.RotatedAtoms>
  150.8015  134.7113  159.6604 H   0  0  0  0  0  0  0  0  0  0  0  0  # atno 6907 bound_to 6896
  152.4133  134.6083  160.0028 H   0  0  0  0  0  0  0  0  0  0  0  0  # atno 6908 bound_to 6896
  151.6320  133.3294  159.3147 H   0  0  0  0  0  0  0  0  0  0  0  0  # atno 6909 bound_to 6896
  144.7188  140.0058  143.6440 H   0  0  0  0  0  0  0  0  0  0  0  0  # atno 7974 bound_to 7965
  154.4147  140.1188  156.5233 H   0  0  0  0  0  0  0  0  0  0  0  0  # atno 8008 bound_to 7997
  155.6681  140.3496  155.4788 H   0  0  0  0  0  0  0  0  0  0  0  0  # atno 8009 bound_to 7997
  155.9656  140.1131  157.0847 H   0  0  0  0  0  0  0  0  0  0  0  0  # atno 8010 bound_to 7997
  139.5056  144.3450  151.9980 H   0  0  0  0  0  0  0  0  0  0  0  0  # atno 10167 bound_to 10162
  157.3073  130.7381  149.6703 H   0  0  0  0  0  0  0  0  0  0  0  0  # atno 10718 bound_to 10713
  154.3987  135.2755  155.2110 H   0  0  0  0  0  0  0  0  0  0  0  0  # atno 10763 bound_to 10752
  154.4145  135.6014  153.5976 H   0  0  0  0  0  0  0  0  0  0  0  0  # atno 10764 bound_to 10752
  152.9831  135.5957  154.4252 H   0  0  0  0  0  0  0  0  0  0  0  0  # atno 10765 bound_to 10752
  140.9512  133.7220  156.1223 H   0  0  0  0  0  0  0  0  0  0  0  0  # atno 11005 bound_to 11000
  146.0298  139.3325  143.0762 LP  0  0  0  0  0  0  0  0  0  0  0  0  # atno 17320 bound_to 7965
  145.8466  140.9552  143.0771 LP  0  0  0  0  0  0  0  0  0  0  0  0  # atno 17321 bound_to 7965
  140.2887  144.3778  150.6095 LP  0  0  0  0  0  0  0  0  0  0  0  0  # atno 17342 bound_to 10162
  140.5963  143.2167  151.7158 LP  0  0  0  0  0  0  0  0  0  0  0  0  # atno 17343 bound_to 10162
  155.9675  130.4262  150.4688 LP  0  0  0  0  0  0  0  0  0  0  0  0  # atno 17370 bound_to 10713
  157.2680  131.0581  151.2278 LP  0  0  0  0  0  0  0  0  0  0  0  0  # atno 17371 bound_to 10713
  140.7600  134.3950  157.5527 LP  0  0  0  0  0  0  0  0  0  0  0  0  # atno 17394 bound_to 11000
  139.8848  134.8955  156.2682 LP  0  0  0  0  0  0  0  0  0  0  0  0  # atno 17395 bound_to 11000

$$$$
