AV-unprocessed.smi:1608|AV-procd|sdf|6467|dock2
  -GOLD-   22720 7123D 1   1.00000     0.00000
 Structure written by MMmdl.
 42 43  0  0  0  0  0  0  0  0  1 V2000
  145.9320  131.2148  151.1146 C   0  0  0  0  0  0  0  0  0  0  0  0
  145.4236  132.5759  150.9234 N   0  0  0  0  0  0  0  0  0  0  0  0
  146.1579  133.6363  151.4893 C   0  0  0  0  0  0  0  0  0  0  0  0
  145.7720  134.9261  151.3700 C   0  0  0  0  0  0  0  0  0  0  0  0
  146.4576  136.0319  151.8952 N   0  0  0  0  0  0  0  0  0  0  0  0
  145.9995  137.0180  152.6895 C   0  0  0  0  0  0  0  0  0  0  0  0
  144.8388  137.1511  153.0771 O   0  0  0  0  0  0  0  0  0  0  0  0
  146.9811  137.8766  153.0018 N   0  0  0  0  0  0  0  0  0  0  0  0
  146.8224  139.0795  153.8136 C   0  0  2  0  0  0  0  0  0  0  0  0
  146.9891  140.3385  152.9477 C   0  0  0  0  0  0  0  0  0  0  0  0
  146.8705  141.5896  153.8248 C   0  0  0  0  0  0  0  0  0  0  0  0
  147.8821  141.5574  154.9839 C   0  0  0  0  0  0  0  0  0  0  0  0
  147.7765  140.3089  155.7667 N   0  0  0  0  0  0  0  0  0  0  0  0
  146.9433  140.3066  157.2950 S   0  0  0  0  0  0  0  0  0  0  0  0
  147.3151  141.9582  158.0155 C   0  0  0  0  0  0  0  0  0  0  0  0
  145.4998  140.2418  157.0194 O   0  0  0  0  0  0  0  0  0  0  0  0
  147.5692  139.2832  158.1465 O   0  0  0  0  0  0  0  0  0  0  0  0
  147.8477  139.0706  154.9646 C   0  0  0  0  0  0  0  0  0  0  0  0
  144.5628  135.1794  150.6157 C   0  0  0  0  0  0  0  0  0  0  0  0
  143.8566  134.1713  150.0681 C   0  0  0  0  0  0  0  0  0  0  0  0
  144.2799  132.7759  150.2066 C   0  0  0  0  0  0  0  0  0  0  0  0
  143.6469  131.8445  149.7085 O   0  0  0  0  0  0  0  0  0  0  0  0
  146.8076  131.1766  151.7635 H   0  0  0  0  0  0  0  0  0  0  0  0
  146.2156  130.7773  150.1564 H   0  0  0  0  0  0  0  0  0  0  0  0
  145.1699  130.5780  151.5667 H   0  0  0  0  0  0  0  0  0  0  0  0
  147.0485  133.3154  152.0055 H   0  0  0  0  0  0  0  0  0  0  0  0
  147.4280  136.0930  151.6242 H   0  0  0  0  0  0  0  0  0  0  0  0
  147.9055  137.6932  152.6398 H   0  0  0  0  0  0  0  0  0  0  0  0
  145.8215  139.0832  154.2451 H   0  0  0  0  0  0  0  0  0  0  0  0
  147.9604  140.3276  152.4512 H   0  0  0  0  0  0  0  0  0  0  0  0
  146.2341  140.3651  152.1612 H   0  0  0  0  0  0  0  0  0  0  0  0
  147.0338  142.4814  153.2191 H   0  0  0  0  0  0  0  0  0  0  0  0
  145.8562  141.6688  154.2138 H   0  0  0  0  0  0  0  0  0  0  0  0
  148.8946  141.6269  154.5849 H   0  0  0  0  0  0  0  0  0  0  0  0
  147.7473  142.4246  155.6295 H   0  0  0  0  0  0  0  0  0  0  0  0
  146.8459  142.0318  158.9962 H   0  0  0  0  0  0  0  0  0  0  0  0
  146.9136  142.7421  157.3759 H   0  0  0  0  0  0  0  0  0  0  0  0
  148.3906  142.0819  158.1284 H   0  0  0  0  0  0  0  0  0  0  0  0
  147.6958  138.2006  155.6034 H   0  0  0  0  0  0  0  0  0  0  0  0
  148.8575  138.9831  154.5615 H   0  0  0  0  0  0  0  0  0  0  0  0
  144.2135  136.1940  150.4897 H   0  0  0  0  0  0  0  0  0  0  0  0
  142.9569  134.3949  149.5138 H   0  0  0  0  0  0  0  0  0  0  0  0
  1  2  1  0  0  0  0
  1 23  1  0  0  0  0
  1 24  1  0  0  0  0
  1 25  1  0  0  0  0
  2 21  1  0  0  0  0
  2  3  1  0  0  0  0
  3  4  2  0  0  0  0
  3 26  1  0  0  0  0
  4  5  1  0  0  0  0
  4 19  1  0  0  0  0
  5  6  1  0  0  0  0
  5 27  1  0  0  0  0
  6  7  2  0  0  0  0
  6  8  1  0  0  0  0
  8  9  1  0  0  0  0
  8 28  1  0  0  0  0
  9 18  1  0  0  0  0
  9 10  1  0  0  0  0
  9 29  1  0  0  0  0
 10 11  1  0  0  0  0
 10 30  1  0  0  0  0
 10 31  1  0  0  0  0
 11 12  1  0  0  0  0
 11 32  1  0  0  0  0
 11 33  1  0  0  0  0
 12 13  1  0  0  0  0
 12 34  1  0  0  0  0
 12 35  1  0  0  0  0
 13 14  1  0  0  0  0
 13 18  1  0  0  0  0
 14 15  1  0  0  0  0
 14 16  2  0  0  0  0
 14 17  2  0  0  0  0
 15 36  1  0  0  0  0
 15 37  1  0  0  0  0
 15 38  1  0  0  0  0
 18 39  1  0  0  0  0
 18 40  1  0  0  0  0
 19 20  2  0  0  0  0
 19 41  1  0  0  0  0
 20 21  1  0  0  0  0
 20 42  1  0  0  0  0
 21 22  2  0  0  0  0
M  END
> <s_m_source_file>
AV-unprocessed.smi

> <i_m_source_file_index>
1608

> <i_lp_mmshare_version>
43012

> <i_f3d_flags>
0

> <s_epik_input>
Tz1jMVtjSF1bY0hdYyhbY0hdbjFbQ0gzXSlbTkhdQyg9TylbTkhdW0NAQEhdMltDSDJdW0NIMl1bQ0gyXU4oW0NIMl0yKVMoPU8pKD1PKVtDSDNd

> <s_epik_cmdline>
J2VwaWtfcHl0aG9uJywgJy1waCcsICc3LjAnLCAnLXRuJywgJzgnLCAnLW1hJywgJzIwMCcsICctbWV0YWxfYmluZGluZycsICctaW1hZScsICc8aW5maWxlLm1hZT4nLCAnLW9tYWUnLCAnPG91dGZpbGUubWFlPic=

> <r_lp_tautomer_probability>
1

> <r_epik_Ionization_Penalty>
2.44111e-05

> <r_epik_Ionization_Penalty_Charging>
5.7429e-06

> <r_epik_Ionization_Penalty_Neutral>
1.86682e-05

> <r_epik_State_Penalty>
-0

> <r_epik_Charging_Adjusted_Penalty>
5.7429e-06

> <i_epik_Tot_Q>
0

> <i_epik_Tot_abs_Q>
0

> <r_epik_Metal_State_Penalty>
-0

> <b_epik_Metal_Only>
0

> <s_lp_Force_Field>
OPLS_2005

> <r_lp_Energy>
12.0986

> <b_lp_Chiralities_Consistent>
1

> <s_lp_Variant>
AV-unprocessed.smi:1608-1

> <Gold.Version>
5.8.1

> <Gold.Id.Protein>
6NUR|6NUR_protein|mol2

> <Gold.PLP.Fitness>
38.9544

> <Gold.PLP.PLP>
-32.2429

> <Gold.PLP.part.hbond>
-3.9355

> <Gold.PLP.part.metal>
0.0000

> <Gold.PLP.part.buried>
-3.6359

> <Gold.PLP.part.nonpolar>
-25.5749

> <Gold.PLP.part.repulsive>
0.5096

> <Gold.PLP.ligand.clash>
0.0000

> <Gold.PLP.ligand.torsion>
1.7515

> <Gold.PLP.Chemscore.Hbond>
2.7188

> <Gold.PLP.Chemscore.CHOScore>
0.0000

> <Gold.PLP.Chemscore.Metal>
0.0000

> <Gold.Chemscore.Hbonds>
donor molecule, donor type, donor heavy atom, donor atom, acceptor molecule, acceptor atom, score
      L1  H     5    27       P1  7948  0.96
      L1  H     8    28       P1  7948  0.82
      P1  H 10785 10796       L1    22  0.94

> <Gold.PLP.Chemscore.Internal.Correction>
2.0583

> <Gold.Rescore>
     Score         DG    S(hbond)    S(metal)    S(lipo)     H(rot)  DE(clash)    DE(int)     intcor
     17.05     -19.27       2.74        0.00      61.57       1.00       0.45       1.76       ----

> <Gold.Chemscore.Fitness>
17.0503

> <Gold.Chemscore.DG>
-19.2671

> <Gold.Chemscore.ZeroCoef>
-5.4800

> <Gold.Chemscore.Hbond>
2.7376

> <Gold.Chemscore.Metal>
0.0000

> <Gold.Chemscore.Lipo>
61.5677

> <Gold.Chemscore.Internal_Hbond>
0.0000

> <Gold.Chemscore.DEClash>
0.4519

> <Gold.Chemscore.DEInternal>
1.7650

> <Gold.Chemscore.Rot>
1.0000

> <Gold.Chemscore.Internal.Correction>
   9.000000E+99

> <Gold.Chemscore.Hbonds>
donor molecule, donor type, donor heavy atom, donor atom, acceptor molecule, acceptor atom, score
      L1  H     5    27       P1  7948  0.90
      L1  H     8    28       P1  7948  0.81
      P1  H 10785 10796       L1    22  0.87

> <Gold.Chemscore.Hbond.Weighted>
-9.1437

> <Gold.Chemscore.Metal.Weighted>
-0.0000

> <Gold.Chemscore.Lipo.Weighted>
-7.2034

> <Gold.Chemscore.Internal_Hbond.Weighted>
0.0000

> <Gold.Chemscore.DEClash.Weighted>
0.4519

> <Gold.Chemscore.DEInternal.Weighted>
1.7650

> <Gold.Chemscore.Rot.Weighted>
2.5600

> <Gold.Chemscore.Internal.Correction.Weighted>
   9.000000E+99

> <Gold.Protein.RotatedTorsions>
[ 6907 6896 6895 6894 ] final   68.96 input  -60.11 | X-H torsion
[ 7974 7965 7964 7962 ] final   77.31 input  175.53 | X-H torsion
[ 8008 7997 7996 7995 ] final   12.71 input   59.86 | X-H torsion
[ 10167 10162 10161 10158 ] final  -43.58 input  -65.29 | X-H torsion
[ 10718 10713 10712 10709 ] final  -49.50 input   66.30 | X-H torsion
[ 10763 10752 10751 10750 ] final   33.10 input  -60.55 | X-H torsion
[ 11005 11000 10999 10996 ] final  -51.46 input  -57.11 | X-H torsion

> <Gold.Protein.ActiveResidues>
 VAL166  LYS551  ARG553  GLY616  TRP617  ASP618  TYR619  PRO620  LYS621  CYS622 
 ASP623  PHE694  ASN695  SER759  ASP760  ASP761  ALA762  ILE779  LEU786  VAL792 
 PHE793  MET794  SER795  GLU796  ALA797  LYS798  CYS799  TRP800  GLU811  SER814 

> <Gold.Protein.RotatedAtoms>
  152.4655  134.5086  159.9746 H   0  0  0  0  0  0  0  0  0  0  0  0  # atno 6907 bound_to 6896
  151.5125  133.3476  159.2895 H   0  0  0  0  0  0  0  0  0  0  0  0  # atno 6908 bound_to 6896
  150.8637  134.8023  159.7164 H   0  0  0  0  0  0  0  0  0  0  0  0  # atno 6909 bound_to 6896
  145.6917  139.2554  143.1756 H   0  0  0  0  0  0  0  0  0  0  0  0  # atno 7974 bound_to 7965
  154.8243  140.2889  155.5765 H   0  0  0  0  0  0  0  0  0  0  0  0  # atno 8008 bound_to 7997
  156.3000  140.2544  156.3087 H   0  0  0  0  0  0  0  0  0  0  0  0  # atno 8009 bound_to 7997
  154.9303  140.0383  157.2034 H   0  0  0  0  0  0  0  0  0  0  0  0  # atno 8010 bound_to 7997
  140.6929  143.2975  151.3372 H   0  0  0  0  0  0  0  0  0  0  0  0  # atno 10167 bound_to 10162
  156.1888  130.4152  149.9401 H   0  0  0  0  0  0  0  0  0  0  0  0  # atno 10718 bound_to 10713
  153.0229  135.6396  154.1458 H   0  0  0  0  0  0  0  0  0  0  0  0  # atno 10763 bound_to 10752
  154.1190  135.2848  155.3214 H   0  0  0  0  0  0  0  0  0  0  0  0  # atno 10764 bound_to 10752
  154.6277  135.5503  153.7707 H   0  0  0  0  0  0  0  0  0  0  0  0  # atno 10765 bound_to 10752
  141.0872  133.6640  156.3881 H   0  0  0  0  0  0  0  0  0  0  0  0  # atno 11005 bound_to 11000
  146.0876  140.7693  142.9611 LP  0  0  0  0  0  0  0  0  0  0  0  0  # atno 17320 bound_to 7965
  144.6994  140.3586  143.7168 LP  0  0  0  0  0  0  0  0  0  0  0  0  # atno 17321 bound_to 7965
  139.6350  144.0647  152.2508 LP  0  0  0  0  0  0  0  0  0  0  0  0  # atno 17342 bound_to 10162
  140.0134  144.6207  150.7628 LP  0  0  0  0  0  0  0  0  0  0  0  0  # atno 17343 bound_to 10162
  156.7148  130.8984  151.3613 LP  0  0  0  0  0  0  0  0  0  0  0  0  # atno 17370 bound_to 10713
  157.6916  130.9239  150.0529 LP  0  0  0  0  0  0  0  0  0  0  0  0  # atno 17371 bound_to 10713
  140.5335  134.6189  157.5357 LP  0  0  0  0  0  0  0  0  0  0  0  0  # atno 17394 bound_to 11000
  139.9692  134.7321  156.0076 LP  0  0  0  0  0  0  0  0  0  0  0  0  # atno 17395 bound_to 11000

$$$$
