AV-unprocessed.smi:406|AV-procd|sdf|2500|dock5
  -GOLD-   2262022443D 1   1.00000     0.00000
 Structure written by MMmdl.
 34 35  0  0  0  0  0  0  0  0  2 V2000
  152.0785  144.9366  160.1461 C   0  0  0  0  0  0  0  0  0  0  0  0
  151.1196  144.8266  158.9560 C   0  0  0  0  0  0  0  0  0  0  0  0
  151.6519  143.8918  157.8585 C   0  0  0  0  0  0  0  0  0  0  0  0
  150.6203  142.9791  157.3830 N   0  0  0  0  0  0  0  0  0  0  0  0
  150.6288  141.6448  157.5371 C   0  0  0  0  0  0  0  0  0  0  0  0
  151.5457  141.0326  158.0848 O   0  0  0  0  0  0  0  0  0  0  0  0
  149.4228  140.8805  156.9826 C   0  0  0  0  0  0  0  0  0  0  0  0
  149.4205  139.4691  157.4946 C   0  0  0  0  0  0  0  0  0  0  0  0
  150.3516  138.4952  157.2415 C   0  0  0  0  0  0  0  0  0  0  0  0
  149.9880  137.0220  158.0935 S   0  0  0  0  0  0  0  0  0  0  0  0
  148.5606  137.7891  158.7909 C   0  0  0  0  0  0  0  0  0  0  0  0
  147.7202  137.1973  159.6587 N   0  5  0  0  0  0  0  0  0  0  0  0
  147.9005  135.9340  160.1366 C   0  0  0  0  0  0  0  0  0  0  0  0
  148.1962  134.9547  159.4539 O   0  0  0  0  0  0  0  0  0  0  0  0
  147.6669  135.7652  161.6122 C   0  0  0  0  0  0  0  0  0  0  0  0
  146.6428  134.7421  162.0634 C   0  0  0  0  0  0  0  0  0  0  0  0
  146.3276  136.2109  162.1676 C   0  0  0  0  0  0  0  0  0  0  0  0
  148.3953  139.0381  158.3410 N   0  0  0  0  0  0  0  0  0  0  0  0
  151.6763  145.6032  160.9090 H   0  0  0  0  0  0  0  0  0  0  0  0
  153.0463  145.3313  159.8355 H   0  0  0  0  0  0  0  0  0  0  0  0
  152.2453  143.9633  160.6082 H   0  0  0  0  0  0  0  0  0  0  0  0
  150.1515  144.4667  159.3066 H   0  0  0  0  0  0  0  0  0  0  0  0
  150.9480  145.8219  158.5440 H   0  0  0  0  0  0  0  0  0  0  0  0
  152.0554  144.4683  157.0242 H   0  0  0  0  0  0  0  0  0  0  0  0
  152.4751  143.2920  158.2483 H   0  0  0  0  0  0  0  0  0  0  0  0
  149.8211  143.3936  156.9240 H   0  0  0  0  0  0  0  0  0  0  0  0
  148.5091  141.4018  157.2705 H   0  0  0  0  0  0  0  0  0  0  0  0
  149.4547  140.8915  155.8925 H   0  0  0  0  0  0  0  0  0  0  0  0
  151.2334  138.5592  156.6220 H   0  0  0  0  0  0  0  0  0  0  0  0
  148.5258  135.9510  162.2548 H   0  0  0  0  0  0  0  0  0  0  0  0
  146.1181  134.1713  161.2994 H   0  0  0  0  0  0  0  0  0  0  0  0
  146.8690  134.1938  162.9756 H   0  0  0  0  0  0  0  0  0  0  0  0
  146.3303  136.6648  163.1563 H   0  0  0  0  0  0  0  0  0  0  0  0
  145.5810  136.6069  161.4814 H   0  0  0  0  0  0  0  0  0  0  0  0
  1  2  1  0  0  0  0
  1 19  1  0  0  0  0
  1 20  1  0  0  0  0
  1 21  1  0  0  0  0
  2  3  1  0  0  0  0
  2 22  1  0  0  0  0
  2 23  1  0  0  0  0
  3  4  1  0  0  0  0
  3 24  1  0  0  0  0
  3 25  1  0  0  0  0
  4  5  1  0  0  0  0
  4 26  1  0  0  0  0
  5  6  2  0  0  0  0
  5  7  1  0  0  0  0
  7  8  1  0  0  0  0
  7 27  1  0  0  0  0
  7 28  1  0  0  0  0
  8 18  1  0  0  0  0
  8  9  2  0  0  0  0
  9 10  1  0  0  0  0
  9 29  1  0  0  0  0
 10 11  1  0  0  0  0
 11 12  1  0  0  0  0
 11 18  2  0  0  0  0
 12 13  1  0  0  0  0
 13 14  2  0  0  0  0
 13 15  1  0  0  0  0
 15 17  1  0  0  0  0
 15 16  1  0  0  0  0
 15 30  1  0  0  0  0
 16 17  1  0  0  0  0
 16 31  1  0  0  0  0
 16 32  1  0  0  0  0
 17 33  1  0  0  0  0
 17 34  1  0  0  0  0
M  CHG  1  12  -1
M  END
> <s_m_source_file>
AV-unprocessed.smi

> <i_m_source_file_index>
406

> <i_lp_mmshare_version>
43012

> <i_f3d_flags>
0

> <s_epik_input>
W0NIM11bQ0gyXVtDSDJdW05IXUMoPU8pW0NIMl1jMVtjSF1zYyhuMSlbTkhdQyg9TylbQ0hdMltDSDJdW0NIMl0y

> <s_epik_cmdline>
J2VwaWtfcHl0aG9uJywgJy1waCcsICc3LjAnLCAnLXRuJywgJzgnLCAnLW1hJywgJzIwMCcsICctbWV0YWxfYmluZGluZycsICctaW1hZScsICc8aW5maWxlLm1hZT4nLCAnLW9tYWUnLCAnPG91dGZpbGUubWFlPic=

> <r_lp_tautomer_probability>
1

> <r_epik_Ionization_Penalty>
5.51776

> <r_epik_Ionization_Penalty_Charging>
5.00105

> <r_epik_Ionization_Penalty_Neutral>
0.516708

> <r_epik_State_Penalty>
5.00092

> <r_epik_Charging_Adjusted_Penalty>
10.002

> <i_epik_Tot_Q>
-1

> <i_epik_Tot_abs_Q>
1

> <r_epik_Metal_State_Penalty>
1.12078

> <b_epik_Metal_Only>
1

> <s_lp_Force_Field>
OPLS_2005

> <r_lp_Energy>
6.22345

> <b_lp_Chiralities_Consistent>
1

> <s_lp_Variant>
AV-unprocessed.smi:406-2

> <Gold.Version>
5.8.1

> <Gold.Id.Protein>
6NUR|6NUR_protein|mol2

> <Gold.PLP.Fitness>
42.4706

> <Gold.PLP.PLP>
-36.0850

> <Gold.PLP.part.hbond>
-4.4604

> <Gold.PLP.part.metal>
0.0000

> <Gold.PLP.part.buried>
-5.4387

> <Gold.PLP.part.nonpolar>
-28.2207

> <Gold.PLP.part.repulsive>
0.0053

> <Gold.PLP.ligand.clash>
0.0000

> <Gold.PLP.ligand.torsion>
0.9245

> <Gold.PLP.Chemscore.Hbond>
2.6900

> <Gold.PLP.Chemscore.CHOScore>
0.0000

> <Gold.PLP.Chemscore.Metal>
0.0000

> <Gold.Chemscore.Hbonds>
donor molecule, donor type, donor heavy atom, donor atom, acceptor molecule, acceptor atom, score
      L1  H     4    26       P1  8028  0.96
      P1  H  6934  6947       L1    12  0.55

> <Gold.PLP.Chemscore.Internal.Correction>
0.1647

> <Gold.Rescore>
     Score         DG    S(hbond)    S(metal)    S(lipo)     H(rot)  DE(clash)    DE(int)     intcor
     13.54     -16.93       2.13        0.00      77.47       1.85       0.09       3.30       ----

> <Gold.Chemscore.Fitness>
13.5408

> <Gold.Chemscore.DG>
-16.9281

> <Gold.Chemscore.ZeroCoef>
-5.4800

> <Gold.Chemscore.Hbond>
2.1300

> <Gold.Chemscore.Metal>
0.0000

> <Gold.Chemscore.Lipo>
77.4729

> <Gold.Chemscore.Internal_Hbond>
0.0000

> <Gold.Chemscore.DEClash>
0.0882

> <Gold.Chemscore.DEInternal>
3.2991

> <Gold.Chemscore.Rot>
1.8478

> <Gold.Chemscore.Internal.Correction>
   9.000000E+99

> <Gold.Chemscore.Hbonds>
donor molecule, donor type, donor heavy atom, donor atom, acceptor molecule, acceptor atom, score
      L1  H     4    26       P1  8028  0.87
      P1  H  6896  6909       L1    14  0.01
      P1  H  6934  6947       L1    12  0.05

> <Gold.Chemscore.Hbond.Weighted>
-7.1143

> <Gold.Chemscore.Metal.Weighted>
-0.0000

> <Gold.Chemscore.Lipo.Weighted>
-9.0643

> <Gold.Chemscore.Internal_Hbond.Weighted>
0.0000

> <Gold.Chemscore.DEClash.Weighted>
0.0882

> <Gold.Chemscore.DEInternal.Weighted>
3.2991

> <Gold.Chemscore.Rot.Weighted>
4.7305

> <Gold.Chemscore.Internal.Correction.Weighted>
   9.000000E+99

> <Gold.Protein.RotatedTorsions>
[ 6907 6896 6895 6894 ] final   49.64 input  -60.11 | X-H torsion
[ 7974 7965 7964 7962 ] final -175.60 input  175.53 | X-H torsion
[ 8008 7997 7996 7995 ] final  -24.80 input   59.86 | X-H torsion
[ 10167 10162 10161 10158 ] final    1.38 input  -65.29 | X-H torsion
[ 10718 10713 10712 10709 ] final   64.68 input   66.30 | X-H torsion
[ 10763 10752 10751 10750 ] final    2.46 input  -60.55 | X-H torsion
[ 11005 11000 10999 10996 ] final   32.56 input  -57.11 | X-H torsion

> <Gold.Protein.ActiveResidues>
 VAL166  LYS551  ARG553  GLY616  TRP617  ASP618  TYR619  PRO620  LYS621  CYS622 
 ASP623  PHE694  ASN695  SER759  ASP760  ASP761  ALA762  ILE779  LEU786  VAL792 
 PHE793  MET794  SER795  GLU796  ALA797  LYS798  CYS799  TRP800  GLU811  SER814 

> <Gold.Protein.RotatedAtoms>
  152.2930  134.7700  160.0373 H   0  0  0  0  0  0  0  0  0  0  0  0  # atno 6907 bound_to 6896
  151.8239  133.3393  159.3601 H   0  0  0  0  0  0  0  0  0  0  0  0  # atno 6908 bound_to 6896
  150.7238  134.5476  159.5823 H   0  0  0  0  0  0  0  0  0  0  0  0  # atno 6909 bound_to 6896
  144.7128  140.1296  143.6399 H   0  0  0  0  0  0  0  0  0  0  0  0  # atno 7974 bound_to 7965
  154.4509  140.1943  156.0521 H   0  0  0  0  0  0  0  0  0  0  0  0  # atno 8008 bound_to 7997
  156.0646  140.3292  155.7475 H   0  0  0  0  0  0  0  0  0  0  0  0  # atno 8009 bound_to 7997
  155.5358  140.0582  157.2870 H   0  0  0  0  0  0  0  0  0  0  0  0  # atno 8010 bound_to 7997
  140.6685  143.7113  150.7875 H   0  0  0  0  0  0  0  0  0  0  0  0  # atno 10167 bound_to 10162
  157.6056  130.9173  149.9877 H   0  0  0  0  0  0  0  0  0  0  0  0  # atno 10718 bound_to 10713
  153.2953  135.6951  153.7254 H   0  0  0  0  0  0  0  0  0  0  0  0  # atno 10763 bound_to 10752
  153.6189  135.3431  155.3005 H   0  0  0  0  0  0  0  0  0  0  0  0  # atno 10764 bound_to 10752
  154.8535  135.4381  154.2048 H   0  0  0  0  0  0  0  0  0  0  0  0  # atno 10765 bound_to 10752
  140.2722  134.3069  155.7824 H   0  0  0  0  0  0  0  0  0  0  0  0  # atno 11005 bound_to 11000
  145.9298  139.2599  143.1331 LP  0  0  0  0  0  0  0  0  0  0  0  0  # atno 17320 bound_to 7965
  145.9534  140.8891  143.0247 LP  0  0  0  0  0  0  0  0  0  0  0  0  # atno 17321 bound_to 7965
  140.0794  143.4983  152.2538 LP  0  0  0  0  0  0  0  0  0  0  0  0  # atno 17342 bound_to 10162
  139.5944  144.7561  151.3323 LP  0  0  0  0  0  0  0  0  0  0  0  0  # atno 17343 bound_to 10162
  156.1141  130.3648  149.9998 LP  0  0  0  0  0  0  0  0  0  0  0  0  # atno 17370 bound_to 10713
  156.8091  130.9318  151.3644 LP  0  0  0  0  0  0  0  0  0  0  0  0  # atno 17371 bound_to 10713
  141.2175  133.7474  156.9352 LP  0  0  0  0  0  0  0  0  0  0  0  0  # atno 17394 bound_to 11000
  140.1362  134.9323  157.2405 LP  0  0  0  0  0  0  0  0  0  0  0  0  # atno 17395 bound_to 11000

$$$$
