AV-unprocessed.smi:2448|AV-procd|sdf|9656|dock8
  -GOLD-   2272013293D 1   1.00000     0.00000
 Structure written by MMmdl.
 38 39  0  0  0  0  0  0  0  0  2 V2000
  149.9365  142.7950  158.7815 O   0  0  0  0  0  0  0  0  0  0  0  0
  151.1669  142.8440  158.0797 C   0  0  2  0  0  0  0  0  0  0  0  0
  151.0809  141.8738  156.8851 C   0  0  0  0  0  0  0  0  0  0  0  0
  149.8970  142.1465  156.0395 N   0  3  0  0  0  0  0  0  0  0  0  0
  148.8975  141.0537  155.9768 C   0  0  2  0  0  0  0  0  0  0  0  0
  149.0805  140.2091  154.6953 C   0  0  0  0  0  0  0  0  0  0  0  0
  150.1538  139.1429  154.8184 C   0  0  0  0  0  0  0  0  0  0  0  0
  151.5136  139.4986  154.9365 C   0  0  0  0  0  0  0  0  0  0  0  0
  152.4673  138.4700  155.0741 C   0  0  0  0  0  0  0  0  0  0  0  0
  152.1445  137.1594  155.0996 N   0  0  0  0  0  0  0  0  0  0  0  0
  150.8418  136.8256  154.9778 C   0  0  0  0  0  0  0  0  0  0  0  0
  149.8103  137.7755  154.8365 C   0  0  0  0  0  0  0  0  0  0  0  0
  147.4771  141.6439  156.0683 C   0  0  0  0  0  0  0  0  0  0  0  0
  146.5902  140.6583  156.2077 F   0  0  0  0  0  0  0  0  0  0  0  0
  147.3752  142.4653  157.1136 F   0  0  0  0  0  0  0  0  0  0  0  0
  147.1845  142.3170  154.9559 F   0  0  0  0  0  0  0  0  0  0  0  0
  152.2863  142.4563  159.0599 C   0  0  0  0  0  0  0  0  0  0  0  0
  152.5034  143.6342  160.0155 C   0  0  0  0  0  0  0  0  0  0  0  0
  152.1938  145.1562  159.0859 S   0  0  0  0  0  0  0  0  0  0  0  0
  151.4694  144.2955  157.6656 C   0  0  0  0  0  0  0  0  0  0  0  0
  149.8880  141.9774  159.2537 H   0  0  0  0  0  0  0  0  0  0  0  0
  151.9856  141.9570  156.2830 H   0  0  0  0  0  0  0  0  0  0  0  0
  151.0354  140.8430  157.2397 H   0  0  0  0  0  0  0  0  0  0  0  0
  149.4411  142.9642  156.4197 H   0  0  0  0  0  0  0  0  0  0  0  0
  149.0298  140.4048  156.8446 H   0  0  0  0  0  0  0  0  0  0  0  0
  148.1442  139.7102  154.4431 H   0  0  0  0  0  0  0  0  0  0  0  0
  149.3132  140.8564  153.8488 H   0  0  0  0  0  0  0  0  0  0  0  0
  151.8244  140.5331  154.9284 H   0  0  0  0  0  0  0  0  0  0  0  0
  153.5163  138.7074  155.1721 H   0  0  0  0  0  0  0  0  0  0  0  0
  150.6135  135.7703  154.9983 H   0  0  0  0  0  0  0  0  0  0  0  0
  148.7815  137.4579  154.7482 H   0  0  0  0  0  0  0  0  0  0  0  0
  152.0672  141.5339  159.5994 H   0  0  0  0  0  0  0  0  0  0  0  0
  153.2092  142.2843  158.5039 H   0  0  0  0  0  0  0  0  0  0  0  0
  151.7894  143.5877  160.8381 H   0  0  0  0  0  0  0  0  0  0  0  0
  153.5049  143.6348  160.4462 H   0  0  0  0  0  0  0  0  0  0  0  0
  152.2161  144.3092  156.8715 H   0  0  0  0  0  0  0  0  0  0  0  0
  150.5900  144.8228  157.2945 H   0  0  0  0  0  0  0  0  0  0  0  0
  150.1995  142.3618  155.1003 H   0  0  0  0  0  0  0  0  0  0  0  0
  1  2  1  0  0  0  0
  1 21  1  0  0  0  0
  2 20  1  0  0  0  0
  2  3  1  0  0  0  0
  2 17  1  0  0  0  0
  3  4  1  0  0  0  0
  3 22  1  0  0  0  0
  3 23  1  0  0  0  0
  4  5  1  0  0  0  0
  4 24  1  0  0  0  0
  4 38  1  0  0  0  0
  5  6  1  0  0  0  0
  5 13  1  0  0  0  0
  5 25  1  0  0  0  0
  6  7  1  0  0  0  0
  6 26  1  0  0  0  0
  6 27  1  0  0  0  0
  7 12  1  0  0  0  0
  7  8  2  0  0  0  0
  8  9  1  0  0  0  0
  8 28  1  0  0  0  0
  9 10  2  0  0  0  0
  9 29  1  0  0  0  0
 10 11  1  0  0  0  0
 11 12  2  0  0  0  0
 11 30  1  0  0  0  0
 12 31  1  0  0  0  0
 13 14  1  0  0  0  0
 13 15  1  0  0  0  0
 13 16  1  0  0  0  0
 17 18  1  0  0  0  0
 17 32  1  0  0  0  0
 17 33  1  0  0  0  0
 18 19  1  0  0  0  0
 18 34  1  0  0  0  0
 18 35  1  0  0  0  0
 19 20  1  0  0  0  0
 20 36  1  0  0  0  0
 20 37  1  0  0  0  0
M  CHG  1   4   1
M  END
> <s_m_source_file>
AV-unprocessed.smi

> <i_m_source_file_index>
2448

> <i_lp_mmshare_version>
43012

> <i_f3d_flags>
0

> <s_epik_input>
W0NIMl0xU1tDSDJdW0NIMl1bQ0BAXTEoW09IXSlbQ0gyXVtOSF1bQ0BASF0oQyhGKShGKUYpW0NIMl1jMltjSF1bY0hdbltjSF1bY0hdMg==

> <s_epik_cmdline>
J2VwaWtfcHl0aG9uJywgJy1waCcsICc3LjAnLCAnLXRuJywgJzgnLCAnLW1hJywgJzIwMCcsICctbWV0YWxfYmluZGluZycsICctaW1hZScsICc8aW5maWxlLm1hZT4nLCAnLW9tYWUnLCAnPG91dGZpbGUubWFlPic=

> <r_epik_Ionization_Penalty>
1.19945

> <r_epik_Ionization_Penalty_Charging>
1.19892

> <r_epik_Ionization_Penalty_Neutral>
0.000532129

> <r_epik_State_Penalty>
0.752927

> <r_epik_Charging_Adjusted_Penalty>
1.95185

> <i_epik_Tot_Q>
1

> <i_epik_Tot_abs_Q>
1

> <r_epik_Metal_State_Penalty>
0.804507

> <b_epik_Metal_Only>
0

> <s_lp_Force_Field>
OPLS_2005

> <r_lp_Energy>
23.2993

> <b_lp_Chiralities_Consistent>
1

> <s_lp_Variant>
AV-unprocessed.smi:2448-6

> <Gold.Version>
5.8.1

> <Gold.Id.Protein>
6NUR|6NUR_protein|mol2

> <Gold.PLP.Fitness>
45.6457

> <Gold.PLP.PLP>
-41.5111

> <Gold.PLP.part.hbond>
-2.2380

> <Gold.PLP.part.metal>
0.0000

> <Gold.PLP.part.buried>
-0.9961

> <Gold.PLP.part.nonpolar>
-38.8580

> <Gold.PLP.part.repulsive>
0.2163

> <Gold.PLP.ligand.clash>
0.0000

> <Gold.PLP.ligand.torsion>
1.3996

> <Gold.PLP.Chemscore.Hbond>
2.1280

> <Gold.PLP.Chemscore.CHOScore>
0.0000

> <Gold.PLP.Chemscore.Metal>
0.0000

> <Gold.Chemscore.Hbonds>
donor molecule, donor type, donor heavy atom, donor atom, acceptor molecule, acceptor atom, score
      L1  H     4    24       P1  8028  1.38
      P1  H 10752 10763       L1    10  0.83

> <Gold.PLP.Chemscore.Internal.Correction>
0.5499

> <Gold.Rescore>
     Score         DG    S(hbond)    S(metal)    S(lipo)     H(rot)  DE(clash)    DE(int)     intcor
     15.82     -17.38       1.41        0.00     113.51       2.39       0.11       1.44       ----

> <Gold.Chemscore.Fitness>
15.8229

> <Gold.Chemscore.DG>
-17.3752

> <Gold.Chemscore.ZeroCoef>
-5.4800

> <Gold.Chemscore.Hbond>
1.4144

> <Gold.Chemscore.Metal>
0.0000

> <Gold.Chemscore.Lipo>
113.5119

> <Gold.Chemscore.Internal_Hbond>
0.0000

> <Gold.Chemscore.DEClash>
0.1086

> <Gold.Chemscore.DEInternal>
1.4438

> <Gold.Chemscore.Rot>
2.3866

> <Gold.Chemscore.Internal.Correction>
   9.000000E+99

> <Gold.Chemscore.Hbonds>
donor molecule, donor type, donor heavy atom, donor atom, acceptor molecule, acceptor atom, score
      L1  H     4    24       P1  8028  0.66
      P1  H 10752 10763       L1    10  0.24

> <Gold.Chemscore.Hbond.Weighted>
-4.7240

> <Gold.Chemscore.Metal.Weighted>
-0.0000

> <Gold.Chemscore.Lipo.Weighted>
-13.2809

> <Gold.Chemscore.Internal_Hbond.Weighted>
0.0000

> <Gold.Chemscore.DEClash.Weighted>
0.1086

> <Gold.Chemscore.DEInternal.Weighted>
1.4438

> <Gold.Chemscore.Rot.Weighted>
6.1096

> <Gold.Chemscore.Internal.Correction.Weighted>
   9.000000E+99

> <Gold.Protein.RotatedTorsions>
[ 6907 6896 6895 6894 ] final    0.88 input  -60.11 | X-H torsion
[ 7974 7965 7964 7962 ] final  -39.04 input  175.53 | X-H torsion
[ 8008 7997 7996 7995 ] final   62.49 input   59.86 | X-H torsion
[ 10167 10162 10161 10158 ] final  152.53 input  -65.29 | X-H torsion
[ 10718 10713 10712 10709 ] final   24.43 input   66.30 | X-H torsion
[ 10763 10752 10751 10750 ] final   53.11 input  -60.55 | X-H torsion
[ 11005 11000 10999 10996 ] final -148.35 input  -57.11 | X-H torsion

> <Gold.Protein.ActiveResidues>
 VAL166  LYS551  ARG553  GLY616  TRP617  ASP618  TYR619  PRO620  LYS621  CYS622 
 ASP623  PHE694  ASN695  SER759  ASP760  ASP761  ALA762  ILE779  LEU786  VAL792 
 PHE793  MET794  SER795  GLU796  ALA797  LYS798  CYS799  TRP800  GLU811  SER814 

> <Gold.Protein.RotatedAtoms>
  151.5836  135.1057  160.0022 H   0  0  0  0  0  0  0  0  0  0  0  0  # atno 6907 bound_to 6896
  152.4342  133.7326  159.6607 H   0  0  0  0  0  0  0  0  0  0  0  0  # atno 6908 bound_to 6896
  150.8237  133.8138  159.3151 H   0  0  0  0  0  0  0  0  0  0  0  0  # atno 6909 bound_to 6896
  146.0432  140.6581  142.9077 H   0  0  0  0  0  0  0  0  0  0  0  0  # atno 7974 bound_to 7965
  155.6152  140.3495  155.4634 H   0  0  0  0  0  0  0  0  0  0  0  0  # atno 8008 bound_to 7997
  156.0123  140.1236  157.0465 H   0  0  0  0  0  0  0  0  0  0  0  0  # atno 8009 bound_to 7997
  154.4285  140.1079  156.5833 H   0  0  0  0  0  0  0  0  0  0  0  0  # atno 8010 bound_to 7997
  139.4832  144.5350  151.7660 H   0  0  0  0  0  0  0  0  0  0  0  0  # atno 10167 bound_to 10162
  157.1797  130.6797  149.6108 H   0  0  0  0  0  0  0  0  0  0  0  0  # atno 10718 bound_to 10713
  152.9793  135.5790  154.4688 H   0  0  0  0  0  0  0  0  0  0  0  0  # atno 10763 bound_to 10752
  154.4254  135.2772  155.1950 H   0  0  0  0  0  0  0  0  0  0  0  0  # atno 10764 bound_to 10752
  154.3681  135.6174  153.5779 H   0  0  0  0  0  0  0  0  0  0  0  0  # atno 10765 bound_to 10752
  140.7621  134.3286  157.5098 H   0  0  0  0  0  0  0  0  0  0  0  0  # atno 11005 bound_to 11000
  144.7085  140.3946  143.7099 LP  0  0  0  0  0  0  0  0  0  0  0  0  # atno 17320 bound_to 7965
  145.6849  139.1626  143.2679 LP  0  0  0  0  0  0  0  0  0  0  0  0  # atno 17321 bound_to 7965
  140.4882  144.1350  150.5945 LP  0  0  0  0  0  0  0  0  0  0  0  0  # atno 17342 bound_to 10162
  140.4201  143.2615  151.9725 LP  0  0  0  0  0  0  0  0  0  0  0  0  # atno 17343 bound_to 10162
  155.9726  130.4651  150.6241 LP  0  0  0  0  0  0  0  0  0  0  0  0  # atno 17370 bound_to 10713
  157.3964  131.0803  151.1348 LP  0  0  0  0  0  0  0  0  0  0  0  0  # atno 17371 bound_to 10713
  139.8769  134.9209  156.3261 LP  0  0  0  0  0  0  0  0  0  0  0  0  # atno 17394 bound_to 11000
  140.9653  133.7362  156.0458 LP  0  0  0  0  0  0  0  0  0  0  0  0  # atno 17395 bound_to 11000

$$$$
