AV-unprocessed.smi:855|AV-procd|sdf|3956|dock8
  -GOLD-   22720 1423D 1   1.00000     0.00000
 Structure written by MMmdl.
 36 37  0  0  0  0  0  0  0  0  2 V2000
  151.6164  141.7159  157.4433 C   0  0  0  0  0  0  0  0  0  0  0  0
  151.3482  140.7634  156.3288 C   0  0  0  0  0  0  0  0  0  0  0  0
  150.2330  140.4897  155.5877 C   0  0  0  0  0  0  0  0  0  0  0  0
  150.6812  139.4775  154.6979 C   0  0  0  0  0  0  0  0  0  0  0  0
  149.8041  138.9105  153.7383 N   0  0  0  0  0  0  0  0  0  0  0  0
  148.5524  139.3009  153.4427 C   0  0  0  0  0  0  0  0  0  0  0  0
  147.9575  140.2412  153.9705 O   0  0  0  0  0  0  0  0  0  0  0  0
  148.0113  138.5309  152.4874 N   0  0  0  0  0  0  0  0  0  0  0  0
  146.6725  138.7060  151.9362 C   0  0  0  0  0  0  0  0  0  0  0  0
  145.6690  137.7097  152.5471 C   0  0  0  0  0  0  0  0  0  0  0  0
  145.9506  136.3167  152.1300 N   0  3  0  0  0  0  0  0  0  0  0  0
  145.3491  135.2646  152.9854 C   0  0  0  0  0  0  0  0  0  0  0  0
  144.7945  134.1863  152.0445 C   0  0  0  0  0  0  0  0  0  0  0  0
  145.4173  134.5006  150.6882 C   0  0  0  0  0  0  0  0  0  0  0  0
  145.5791  136.0163  150.7327 C   0  0  0  0  0  0  0  0  0  0  0  0
  151.9537  139.1600  154.8808 N   0  0  0  0  0  0  0  0  0  0  0  0
  152.3874  139.9818  155.9278 O   0  0  0  0  0  0  0  0  0  0  0  0
  150.9046  142.5415  157.4285 H   0  0  0  0  0  0  0  0  0  0  0  0
  152.6196  142.1351  157.3644 H   0  0  0  0  0  0  0  0  0  0  0  0
  151.5336  141.2145  158.4075 H   0  0  0  0  0  0  0  0  0  0  0  0
  149.2567  140.9437  155.6706 H   0  0  0  0  0  0  0  0  0  0  0  0
  150.1689  138.1221  153.2246 H   0  0  0  0  0  0  0  0  0  0  0  0
  148.5691  137.7806  152.1059 H   0  0  0  0  0  0  0  0  0  0  0  0
  146.3376  139.7324  152.0962 H   0  0  0  0  0  0  0  0  0  0  0  0
  146.7392  138.5669  150.8573 H   0  0  0  0  0  0  0  0  0  0  0  0
  145.6704  137.7784  153.6360 H   0  0  0  0  0  0  0  0  0  0  0  0
  144.6606  137.9661  152.2188 H   0  0  0  0  0  0  0  0  0  0  0  0
  146.1216  134.8582  153.6386 H   0  0  0  0  0  0  0  0  0  0  0  0
  144.5528  135.6574  153.6197 H   0  0  0  0  0  0  0  0  0  0  0  0
  145.0189  133.1747  152.3845 H   0  0  0  0  0  0  0  0  0  0  0  0
  143.7096  134.2806  151.9786 H   0  0  0  0  0  0  0  0  0  0  0  0
  146.3955  134.0242  150.6084 H   0  0  0  0  0  0  0  0  0  0  0  0
  144.8061  134.1622  149.8508 H   0  0  0  0  0  0  0  0  0  0  0  0
  144.6275  136.4939  150.4921 H   0  0  0  0  0  0  0  0  0  0  0  0
  146.3286  136.3802  150.0290 H   0  0  0  0  0  0  0  0  0  0  0  0
  146.9510  136.1866  152.1811 H   0  0  0  0  0  0  0  0  0  0  0  0
  1  2  1  0  0  0  0
  1 18  1  0  0  0  0
  1 19  1  0  0  0  0
  1 20  1  0  0  0  0
  2 17  1  0  0  0  0
  2  3  2  0  0  0  0
  3  4  1  0  0  0  0
  3 21  1  0  0  0  0
  4  5  1  0  0  0  0
  4 16  2  0  0  0  0
  5  6  1  0  0  0  0
  5 22  1  0  0  0  0
  6  7  2  0  0  0  0
  6  8  1  0  0  0  0
  8  9  1  0  0  0  0
  8 23  1  0  0  0  0
  9 10  1  0  0  0  0
  9 24  1  0  0  0  0
  9 25  1  0  0  0  0
 10 11  1  0  0  0  0
 10 26  1  0  0  0  0
 10 27  1  0  0  0  0
 11 15  1  0  0  0  0
 11 12  1  0  0  0  0
 11 36  1  0  0  0  0
 12 13  1  0  0  0  0
 12 28  1  0  0  0  0
 12 29  1  0  0  0  0
 13 14  1  0  0  0  0
 13 30  1  0  0  0  0
 13 31  1  0  0  0  0
 14 15  1  0  0  0  0
 14 32  1  0  0  0  0
 14 33  1  0  0  0  0
 15 34  1  0  0  0  0
 15 35  1  0  0  0  0
 16 17  1  0  0  0  0
M  CHG  1  11   1
M  END
> <s_m_source_file>
AV-unprocessed.smi

> <i_m_source_file_index>
855

> <i_lp_mmshare_version>
43012

> <i_f3d_flags>
0

> <s_epik_input>
W0NIM11jMVtjSF1jKG5vMSlbTkhdQyg9TylbTkhdW0NIMl1bQ0gyXU4yW0NIMl1bQ0gyXVtDSDJdW0NIMl0y

> <s_epik_cmdline>
J2VwaWtfcHl0aG9uJywgJy1waCcsICc3LjAnLCAnLXRuJywgJzgnLCAnLW1hJywgJzIwMCcsICctbWV0YWxfYmluZGluZycsICctaW1hZScsICc8aW5maWxlLm1hZT4nLCAnLW9tYWUnLCAnPG91dGZpbGUubWFlPic=

> <r_epik_Ionization_Penalty>
0.00243703

> <r_epik_Ionization_Penalty_Charging>
0.00240122

> <r_epik_Ionization_Penalty_Neutral>
3.58091e-05

> <r_epik_State_Penalty>
0.00166069

> <r_epik_Charging_Adjusted_Penalty>
0.00406191

> <i_epik_Tot_Q>
1

> <i_epik_Tot_abs_Q>
1

> <r_epik_Metal_State_Penalty>
0.021664

> <b_epik_Metal_Only>
0

> <s_lp_Force_Field>
OPLS_2005

> <r_lp_Energy>
23.058

> <b_lp_Chiralities_Consistent>
1

> <s_lp_Variant>
AV-unprocessed.smi:855-1

> <Gold.Version>
5.8.1

> <Gold.Id.Protein>
6NUR|6NUR_protein|mol2

> <Gold.PLP.Fitness>
40.8287

> <Gold.PLP.PLP>
-29.4187

> <Gold.PLP.part.hbond>
-5.6074

> <Gold.PLP.part.metal>
0.0000

> <Gold.PLP.part.buried>
-0.3725

> <Gold.PLP.part.nonpolar>
-23.2656

> <Gold.PLP.part.repulsive>
0.3499

> <Gold.PLP.ligand.clash>
0.0000

> <Gold.PLP.ligand.torsion>
0.2997

> <Gold.PLP.Chemscore.Hbond>
4.0000

> <Gold.PLP.Chemscore.CHOScore>
0.0000

> <Gold.PLP.Chemscore.Metal>
0.0000

> <Gold.Chemscore.Hbonds>
donor molecule, donor type, donor heavy atom, donor atom, acceptor molecule, acceptor atom, score
      L1  H     8    23       P1  7948  1.00
      L1  H    11    36       P1  7948  2.00
      P1  H  7997  8008       L1    17  1.00

> <Gold.PLP.Chemscore.Internal.Correction>
0.0094

> <Gold.Rescore>
     Score         DG    S(hbond)    S(metal)    S(lipo)     H(rot)  DE(clash)    DE(int)     intcor
     14.49     -16.93       2.78        0.00      53.62       1.60       0.75       1.68       ----

> <Gold.Chemscore.Fitness>
14.4943

> <Gold.Chemscore.DG>
-16.9295

> <Gold.Chemscore.ZeroCoef>
-5.4800

> <Gold.Chemscore.Hbond>
2.7777

> <Gold.Chemscore.Metal>
0.0000

> <Gold.Chemscore.Lipo>
53.6151

> <Gold.Chemscore.Internal_Hbond>
0.0000

> <Gold.Chemscore.DEClash>
0.7530

> <Gold.Chemscore.DEInternal>
1.6822

> <Gold.Chemscore.Rot>
1.6019

> <Gold.Chemscore.Internal.Correction>
   9.000000E+99

> <Gold.Chemscore.Hbonds>
donor molecule, donor type, donor heavy atom, donor atom, acceptor molecule, acceptor atom, score
      L1  H     8    23       P1  7948  0.96
      L1  H    11    36       P1  7948  0.95
      P1  H  7997  8008       L1    17  0.93

> <Gold.Chemscore.Hbond.Weighted>
-9.2775

> <Gold.Chemscore.Metal.Weighted>
-0.0000

> <Gold.Chemscore.Lipo.Weighted>
-6.2730

> <Gold.Chemscore.Internal_Hbond.Weighted>
0.0000

> <Gold.Chemscore.DEClash.Weighted>
0.7530

> <Gold.Chemscore.DEInternal.Weighted>
1.6822

> <Gold.Chemscore.Rot.Weighted>
4.1009

> <Gold.Chemscore.Internal.Correction.Weighted>
   9.000000E+99

> <Gold.Protein.RotatedTorsions>
[ 6907 6896 6895 6894 ] final   94.55 input  -60.11 | X-H torsion
[ 7974 7965 7964 7962 ] final   -2.58 input  175.53 | X-H torsion
[ 8008 7997 7996 7995 ] final  -35.00 input   59.86 | X-H torsion
[ 10167 10162 10161 10158 ] final -119.70 input  -65.29 | X-H torsion
[ 10718 10713 10712 10709 ] final -103.90 input   66.30 | X-H torsion
[ 10763 10752 10751 10750 ] final -123.92 input  -60.55 | X-H torsion
[ 11005 11000 10999 10996 ] final   29.60 input  -57.11 | X-H torsion

> <Gold.Protein.ActiveResidues>
 VAL166  LYS551  ARG553  GLY616  TRP617  ASP618  TYR619  PRO620  LYS621  CYS622 
 ASP623  PHE694  ASN695  SER759  ASP760  ASP761  ALA762  ILE779  LEU786  VAL792 
 PHE793  MET794  SER795  GLU796  ALA797  LYS798  CYS799  TRP800  GLU811  SER814 

> <Gold.Protein.RotatedAtoms>
  152.5449  134.1176  159.8384 H   0  0  0  0  0  0  0  0  0  0  0  0  # atno 6907 bound_to 6896
  151.1236  133.5079  159.2608 H   0  0  0  0  0  0  0  0  0  0  0  0  # atno 6908 bound_to 6896
  151.1752  135.0346  159.8823 H   0  0  0  0  0  0  0  0  0  0  0  0  # atno 6909 bound_to 6896
  146.2402  140.1592  142.8333 H   0  0  0  0  0  0  0  0  0  0  0  0  # atno 7974 bound_to 7965
  154.4106  140.1669  156.2141 H   0  0  0  0  0  0  0  0  0  0  0  0  # atno 8008 bound_to 7997
  155.9419  140.3407  155.6311 H   0  0  0  0  0  0  0  0  0  0  0  0  # atno 8009 bound_to 7997
  155.6978  140.0741  157.2413 H   0  0  0  0  0  0  0  0  0  0  0  0  # atno 8010 bound_to 7997
  140.0438  143.5127  152.2117 H   0  0  0  0  0  0  0  0  0  0  0  0  # atno 10167 bound_to 10162
  156.0283  130.5489  150.7319 H   0  0  0  0  0  0  0  0  0  0  0  0  # atno 10718 bound_to 10713
  154.8715  135.4081  154.3021 H   0  0  0  0  0  0  0  0  0  0  0  0  # atno 10763 bound_to 10752
  153.3879  135.7014  153.6522 H   0  0  0  0  0  0  0  0  0  0  0  0  # atno 10764 bound_to 10752
  153.5317  135.3666  155.2650 H   0  0  0  0  0  0  0  0  0  0  0  0  # atno 10765 bound_to 10752
  140.3032  134.2732  155.7749 H   0  0  0  0  0  0  0  0  0  0  0  0  # atno 11005 bound_to 11000
  145.0103  140.8708  143.5228 LP  0  0  0  0  0  0  0  0  0  0  0  0  # atno 17320 bound_to 7965
  145.1625  139.2450  143.5384 LP  0  0  0  0  0  0  0  0  0  0  0  0  # atno 17321 bound_to 7965
  139.5997  144.7578  151.3202 LP  0  0  0  0  0  0  0  0  0  0  0  0  # atno 17342 bound_to 10162
  140.7248  143.7035  150.7826 LP  0  0  0  0  0  0  0  0  0  0  0  0  # atno 17343 bound_to 10162
  157.4909  131.0911  151.0428 LP  0  0  0  0  0  0  0  0  0  0  0  0  # atno 17370 bound_to 10713
  157.0835  130.5912  149.5425 LP  0  0  0  0  0  0  0  0  0  0  0  0  # atno 17371 bound_to 10713
  141.2123  133.7660  156.9798 LP  0  0  0  0  0  0  0  0  0  0  0  0  # atno 17394 bound_to 11000
  140.1090  134.9488  157.2037 LP  0  0  0  0  0  0  0  0  0  0  0  0  # atno 17395 bound_to 11000

$$$$
