AV-unprocessed.smi:1669|AV-procd|sdf|6688|dock7
  -GOLD-   22720 7413D 1   1.00000     0.00000
 Structure written by MMmdl.
 47 49  0  0  0  0  0  0  0  0  1 V2000
  149.9173  135.8252  157.2305 C   0  0  0  0  0  0  0  0  0  0  0  0
  149.5631  136.1202  158.6161 N   0  0  0  0  0  0  0  0  0  0  0  0
  148.2205  135.6155  158.9262 C   0  0  0  0  0  0  0  0  0  0  0  0
  147.9260  135.5144  160.4132 C   0  0  0  0  0  0  0  0  0  0  0  0
  147.8665  136.6799  161.2066 C   0  0  0  0  0  0  0  0  0  0  0  0
  147.5915  136.5846  162.5848 C   0  0  0  0  0  0  0  0  0  0  0  0
  147.3732  135.3243  163.1740 C   0  0  0  0  0  0  0  0  0  0  0  0
  147.4288  134.1594  162.3847 C   0  0  0  0  0  0  0  0  0  0  0  0
  147.7031  134.2540  161.0064 C   0  0  0  0  0  0  0  0  0  0  0  0
  149.6716  137.5597  158.8597 C   0  0  0  0  0  0  0  0  0  0  0  0
  151.1122  138.1025  159.0004 C   0  0  1  0  0  0  0  0  0  0  0  0
  151.8921  137.1176  159.6449 O   0  0  0  0  0  0  0  0  0  0  0  0
  151.7848  138.4201  157.6497 C   0  0  0  0  0  0  0  0  0  0  0  0
  151.5815  139.8000  157.2261 N   0  0  0  0  0  0  0  0  0  0  0  0
  151.1352  140.2513  156.0259 C   0  0  0  0  0  0  0  0  0  0  0  0
  150.7661  139.3067  154.9162 C   0  0  0  0  0  0  0  0  0  0  0  0
  150.3812  139.9510  153.7185 O   0  0  0  0  0  0  0  0  0  0  0  0
  151.0582  141.5787  155.9029 N   0  0  0  0  0  0  0  0  0  0  0  0
  151.4820  142.0276  157.1374 C   0  0  0  0  0  0  0  0  0  0  0  0
  151.6262  143.3419  157.6364 C   0  0  0  0  0  0  0  0  0  0  0  0
  152.0859  143.5597  158.9517 C   0  0  0  0  0  0  0  0  0  0  0  0
  152.4070  142.4687  159.7849 C   0  0  0  0  0  0  0  0  0  0  0  0
  152.2716  141.1513  159.3067 C   0  0  0  0  0  0  0  0  0  0  0  0
  151.8127  140.9391  157.9924 C   0  0  0  0  0  0  0  0  0  0  0  0
  150.9216  136.1833  157.0024 H   0  0  0  0  0  0  0  0  0  0  0  0
  149.2225  136.3003  156.5364 H   0  0  0  0  0  0  0  0  0  0  0  0
  149.9089  134.7521  157.0387 H   0  0  0  0  0  0  0  0  0  0  0  0
  147.4567  136.2701  158.5104 H   0  0  0  0  0  0  0  0  0  0  0  0
  148.0707  134.6421  158.4559 H   0  0  0  0  0  0  0  0  0  0  0  0
  148.0337  137.6489  160.7595 H   0  0  0  0  0  0  0  0  0  0  0  0
  147.5479  137.4781  163.1900 H   0  0  0  0  0  0  0  0  0  0  0  0
  147.1632  135.2511  164.2309 H   0  0  0  0  0  0  0  0  0  0  0  0
  147.2612  133.1927  162.8367 H   0  0  0  0  0  0  0  0  0  0  0  0
  147.7443  133.3559  160.4075 H   0  0  0  0  0  0  0  0  0  0  0  0
  149.1862  138.1093  158.0514 H   0  0  0  0  0  0  0  0  0  0  0  0
  149.0950  137.7953  159.7542 H   0  0  0  0  0  0  0  0  0  0  0  0
  151.1397  138.9971  159.6181 H   0  0  0  0  0  0  0  0  0  0  0  0
  152.6990  137.0163  159.1631 H   0  0  0  0  0  0  0  0  0  0  0  0
  152.8556  138.2220  157.6998 H   0  0  0  0  0  0  0  0  0  0  0  0
  151.3970  137.7586  156.8742 H   0  0  0  0  0  0  0  0  0  0  0  0
  151.6153  138.6588  154.7006 H   0  0  0  0  0  0  0  0  0  0  0  0
  149.9393  138.6727  155.2359 H   0  0  0  0  0  0  0  0  0  0  0  0
  150.6637  139.4225  152.9881 H   0  0  0  0  0  0  0  0  0  0  0  0
  151.3827  144.1838  157.0054 H   0  0  0  0  0  0  0  0  0  0  0  0
  152.1931  144.5685  159.3228 H   0  0  0  0  0  0  0  0  0  0  0  0
  152.7586  142.6438  160.7911 H   0  0  0  0  0  0  0  0  0  0  0  0
  152.5213  140.3150  159.9426 H   0  0  0  0  0  0  0  0  0  0  0  0
  1  2  1  0  0  0  0
  1 25  1  0  0  0  0
  1 26  1  0  0  0  0
  1 27  1  0  0  0  0
  2  3  1  0  0  0  0
  2 10  1  0  0  0  0
  3  4  1  0  0  0  0
  3 28  1  0  0  0  0
  3 29  1  0  0  0  0
  4  9  1  0  0  0  0
  4  5  2  0  0  0  0
  5  6  1  0  0  0  0
  5 30  1  0  0  0  0
  6  7  2  0  0  0  0
  6 31  1  0  0  0  0
  7  8  1  0  0  0  0
  7 32  1  0  0  0  0
  8  9  2  0  0  0  0
  8 33  1  0  0  0  0
  9 34  1  0  0  0  0
 10 11  1  0  0  0  0
 10 35  1  0  0  0  0
 10 36  1  0  0  0  0
 11 12  1  0  0  0  0
 11 13  1  0  0  0  0
 11 37  1  0  0  0  0
 12 38  1  0  0  0  0
 13 14  1  0  0  0  0
 13 39  1  0  0  0  0
 13 40  1  0  0  0  0
 14 24  1  0  0  0  0
 14 15  1  0  0  0  0
 15 16  1  0  0  0  0
 15 18  2  0  0  0  0
 16 17  1  0  0  0  0
 16 41  1  0  0  0  0
 16 42  1  0  0  0  0
 17 43  1  0  0  0  0
 18 19  1  0  0  0  0
 19 24  2  0  0  0  0
 19 20  1  0  0  0  0
 20 21  2  0  0  0  0
 20 44  1  0  0  0  0
 21 22  1  0  0  0  0
 21 45  1  0  0  0  0
 22 23  2  0  0  0  0
 22 46  1  0  0  0  0
 23 24  1  0  0  0  0
 23 47  1  0  0  0  0
M  END
> <s_m_source_file>
AV-unprocessed.smi

> <i_m_source_file_index>
1669

> <i_lp_mmshare_version>
43012

> <i_f3d_flags>
0

> <s_epik_input>
W2NIXTFbY0hdW2NIXVtjSF1bY0hdYzFbQ0gyXU4oW0NIM10pW0NIMl1bQ0BIXShbT0hdKVtDSDJdbihjKG4yKVtDSDJdW09IXSljKGMyMylbY0hdW2NIXVtjSF1bY0hdMw==

> <s_epik_cmdline>
J2VwaWtfcHl0aG9uJywgJy1waCcsICc3LjAnLCAnLXRuJywgJzgnLCAnLW1hJywgJzIwMCcsICctbWV0YWxfYmluZGluZycsICctaW1hZScsICc8aW5maWxlLm1hZT4nLCAnLW9tYWUnLCAnPG91dGZpbGUubWFlPic=

> <r_epik_Ionization_Penalty>
1.56301

> <r_epik_Ionization_Penalty_Charging>
0

> <r_epik_Ionization_Penalty_Neutral>
1.56301

> <r_epik_State_Penalty>
1.64771

> <r_epik_Charging_Adjusted_Penalty>
1.64771

> <i_epik_Tot_Q>
0

> <i_epik_Tot_abs_Q>
0

> <r_epik_Metal_State_Penalty>
1.61258

> <b_epik_Metal_Only>
0

> <s_lp_Force_Field>
OPLS_2005

> <r_lp_Energy>
25.3744

> <b_lp_Chiralities_Consistent>
1

> <s_lp_Variant>
AV-unprocessed.smi:1669-6

> <Gold.Version>
5.8.1

> <Gold.Id.Protein>
6NUR|6NUR_protein|mol2

> <Gold.PLP.Fitness>
55.3081

> <Gold.PLP.PLP>
-51.0728

> <Gold.PLP.part.hbond>
-3.2088

> <Gold.PLP.part.metal>
0.0000

> <Gold.PLP.part.buried>
-6.5472

> <Gold.PLP.part.nonpolar>
-41.5064

> <Gold.PLP.part.repulsive>
0.0870

> <Gold.PLP.ligand.clash>
0.0000

> <Gold.PLP.ligand.torsion>
1.0384

> <Gold.PLP.Chemscore.Hbond>
2.0000

> <Gold.PLP.Chemscore.CHOScore>
0.0000

> <Gold.PLP.Chemscore.Metal>
0.0000

> <Gold.Chemscore.Hbonds>
donor molecule, donor type, donor heavy atom, donor atom, acceptor molecule, acceptor atom, score
      L1  H    17    43       P1  7957  0.14
      P1  H  6896  6908       L1    12  0.83
      P1  H  7989  7998       L1    17  0.36

> <Gold.PLP.Chemscore.Internal.Correction>
0.3121

> <Gold.Rescore>
     Score         DG    S(hbond)    S(metal)    S(lipo)     H(rot)  DE(clash)    DE(int)     intcor
     16.75     -18.14       1.68        0.00     127.32       3.06       0.01       1.38       ----

> <Gold.Chemscore.Fitness>
16.7494

> <Gold.Chemscore.DG>
-18.1362

> <Gold.Chemscore.ZeroCoef>
-5.4800

> <Gold.Chemscore.Hbond>
1.6755

> <Gold.Chemscore.Metal>
0.0000

> <Gold.Chemscore.Lipo>
127.3154

> <Gold.Chemscore.Internal_Hbond>
0.0000

> <Gold.Chemscore.DEClash>
0.0086

> <Gold.Chemscore.DEInternal>
1.3783

> <Gold.Chemscore.Rot>
3.0609

> <Gold.Chemscore.Internal.Correction>
   9.000000E+99

> <Gold.Chemscore.Hbonds>
donor molecule, donor type, donor heavy atom, donor atom, acceptor molecule, acceptor atom, score
      L1  H    17    43       P1  7957  0.09
      P1  H  6896  6908       L1    12  0.27

> <Gold.Chemscore.Hbond.Weighted>
-5.5962

> <Gold.Chemscore.Metal.Weighted>
-0.0000

> <Gold.Chemscore.Lipo.Weighted>
-14.8959

> <Gold.Chemscore.Internal_Hbond.Weighted>
0.0000

> <Gold.Chemscore.DEClash.Weighted>
0.0086

> <Gold.Chemscore.DEInternal.Weighted>
1.3783

> <Gold.Chemscore.Rot.Weighted>
7.8358

> <Gold.Chemscore.Internal.Correction.Weighted>
   9.000000E+99

> <Gold.Protein.RotatedTorsions>
[ 6907 6896 6895 6894 ] final -138.62 input  -60.11 | X-H torsion
[ 7974 7965 7964 7962 ] final   37.03 input  175.53 | X-H torsion
[ 8008 7997 7996 7995 ] final    3.66 input   59.86 | X-H torsion
[ 10167 10162 10161 10158 ] final   77.13 input  -65.29 | X-H torsion
[ 10718 10713 10712 10709 ] final   26.70 input   66.30 | X-H torsion
[ 10763 10752 10751 10750 ] final -146.61 input  -60.55 | X-H torsion
[ 11005 11000 10999 10996 ] final  -75.13 input  -57.11 | X-H torsion

> <Gold.Protein.ActiveResidues>
 VAL166  LYS551  ARG553  GLY616  TRP617  ASP618  TYR619  PRO620  LYS621  CYS622 
 ASP623  PHE694  ASN695  SER759  ASP760  ASP761  ALA762  ILE779  LEU786  VAL792 
 PHE793  MET794  SER795  GLU796  ALA797  LYS798  CYS799  TRP800  GLU811  SER814 

> <Gold.Protein.RotatedAtoms>
  151.0374  133.5736  159.2654 H   0  0  0  0  0  0  0  0  0  0  0  0  # atno 6907 bound_to 6896
  151.2796  135.0709  159.9174 H   0  0  0  0  0  0  0  0  0  0  0  0  # atno 6908 bound_to 6896
  152.5357  134.0090  159.7984 H   0  0  0  0  0  0  0  0  0  0  0  0  # atno 6909 bound_to 6896
  146.1167  139.5944  142.9316 H   0  0  0  0  0  0  0  0  0  0  0  0  # atno 7974 bound_to 7965
  154.7064  140.2683  155.6670 H   0  0  0  0  0  0  0  0  0  0  0  0  # atno 8008 bound_to 7997
  156.2781  140.2762  156.1616 H   0  0  0  0  0  0  0  0  0  0  0  0  # atno 8009 bound_to 7997
  155.0694  140.0372  157.2593 H   0  0  0  0  0  0  0  0  0  0  0  0  # atno 8010 bound_to 7997
  139.9848  144.5800  150.7869 H   0  0  0  0  0  0  0  0  0  0  0  0  # atno 10167 bound_to 10162
  157.2104  130.6931  149.6226 H   0  0  0  0  0  0  0  0  0  0  0  0  # atno 10718 bound_to 10713
  154.8327  135.3382  154.6689 H   0  0  0  0  0  0  0  0  0  0  0  0  # atno 10763 bound_to 10752
  153.7307  135.6952  153.4994 H   0  0  0  0  0  0  0  0  0  0  0  0  # atno 10764 bound_to 10752
  153.2314  135.4415  155.0551 H   0  0  0  0  0  0  0  0  0  0  0  0  # atno 10765 bound_to 10752
  141.1642  133.6936  156.7470 H   0  0  0  0  0  0  0  0  0  0  0  0  # atno 11005 bound_to 11000
  145.5551  141.0410  143.2257 LP  0  0  0  0  0  0  0  0  0  0  0  0  # atno 17320 bound_to 7965
  144.7560  139.7074  143.7254 LP  0  0  0  0  0  0  0  0  0  0  0  0  # atno 17321 bound_to 7965
  140.7476  143.2909  151.3334 LP  0  0  0  0  0  0  0  0  0  0  0  0  # atno 17342 bound_to 10162
  139.6383  144.0588  152.2534 LP  0  0  0  0  0  0  0  0  0  0  0  0  # atno 17343 bound_to 10162
  155.9691  130.4553  150.5883 LP  0  0  0  0  0  0  0  0  0  0  0  0  # atno 17370 bound_to 10713
  157.3678  131.0760  151.1583 LP  0  0  0  0  0  0  0  0  0  0  0  0  # atno 17371 bound_to 10713
  140.2632  134.8450  157.3778 LP  0  0  0  0  0  0  0  0  0  0  0  0  # atno 17394 bound_to 11000
  140.1591  134.4751  155.7907 LP  0  0  0  0  0  0  0  0  0  0  0  0  # atno 17395 bound_to 11000

$$$$
