AV-unprocessed.smi:2943|AV-procd|sdf|11270|dock7
  -GOLD-   2272016163D 1   1.00000     0.00000
 Structure written by MMmdl.
 37 39  0  0  0  0  0  0  0  0  2 V2000
  150.6809  137.7138  154.4035 C   0  0  0  0  0  0  0  0  0  0  0  0
  150.4211  139.1432  154.7778 C   0  0  0  0  0  0  0  0  0  0  0  0
  151.2360  139.9479  155.5423 C   0  0  0  0  0  0  0  0  0  0  0  0
  152.5554  139.6053  156.1639 C   0  0  0  0  0  0  0  0  0  0  0  0
  150.6531  141.2086  155.6913 N   0  0  0  0  0  0  0  0  0  0  0  0
  151.2053  142.3263  156.4441 C   0  0  0  0  0  0  0  0  0  0  0  0
  151.2658  142.0321  157.9517 C   0  0  2  0  0  0  0  0  0  0  0  0
  151.2659  143.2831  158.8271 C   0  0  0  0  0  0  0  0  0  0  0  0
  151.9037  142.7628  160.0947 C   0  0  0  0  0  0  0  0  0  0  0  0
  152.9644  141.8125  159.5454 C   0  0  0  0  0  0  0  0  0  0  0  0
  152.4650  141.3418  158.2955 O   0  0  0  0  0  0  0  0  0  0  0  0
  149.4569  141.2247  154.9925 C   0  0  0  0  0  0  0  0  0  0  0  0
  148.5704  142.2481  154.8561 N   0  3  0  0  0  0  0  0  0  0  0  0
  147.4794  142.0176  154.1181 C   0  0  0  0  0  0  0  0  0  0  0  0
  147.2403  140.8382  153.5266 N   0  0  0  0  0  0  0  0  0  0  0  0
  148.1010  139.7970  153.6430 C   0  0  0  0  0  0  0  0  0  0  0  0
  147.7622  138.6167  152.9853 N   0  0  0  0  0  0  0  0  0  0  0  0
  149.2877  139.9464  154.4072 C   0  0  0  0  0  0  0  0  0  0  0  0
  151.2303  137.1873  155.1841 H   0  0  0  0  0  0  0  0  0  0  0  0
  151.2643  137.6485  153.4851 H   0  0  0  0  0  0  0  0  0  0  0  0
  149.7530  137.1646  154.2472 H   0  0  0  0  0  0  0  0  0  0  0  0
  152.9763  138.6975  155.7323 H   0  0  0  0  0  0  0  0  0  0  0  0
  152.4479  139.4470  157.2372 H   0  0  0  0  0  0  0  0  0  0  0  0
  153.2842  140.4009  156.0095 H   0  0  0  0  0  0  0  0  0  0  0  0
  152.2036  142.5435  156.0623 H   0  0  0  0  0  0  0  0  0  0  0  0
  150.6089  143.2186  156.2536 H   0  0  0  0  0  0  0  0  0  0  0  0
  150.4285  141.3966  158.2437 H   0  0  0  0  0  0  0  0  0  0  0  0
  151.8902  144.0631  158.3888 H   0  0  0  0  0  0  0  0  0  0  0  0
  150.2675  143.6917  158.9861 H   0  0  0  0  0  0  0  0  0  0  0  0
  152.3200  143.5512  160.7225 H   0  0  0  0  0  0  0  0  0  0  0  0
  151.1701  142.2090  160.6823 H   0  0  0  0  0  0  0  0  0  0  0  0
  153.8979  142.3464  159.3643 H   0  0  0  0  0  0  0  0  0  0  0  0
  153.1729  140.9873  160.2269 H   0  0  0  0  0  0  0  0  0  0  0  0
  146.7813  142.8347  154.0106 H   0  0  0  0  0  0  0  0  0  0  0  0
  146.9126  138.5383  152.4448 H   0  0  0  0  0  0  0  0  0  0  0  0
  148.3464  137.7948  153.0434 H   0  0  0  0  0  0  0  0  0  0  0  0
  148.7444  143.1518  155.2959 H   0  0  0  0  0  0  0  0  0  0  0  0
  1  2  1  0  0  0  0
  1 19  1  0  0  0  0
  1 20  1  0  0  0  0
  1 21  1  0  0  0  0
  2 18  1  0  0  0  0
  2  3  2  0  0  0  0
  3  4  1  0  0  0  0
  3  5  1  0  0  0  0
  4 22  1  0  0  0  0
  4 23  1  0  0  0  0
  4 24  1  0  0  0  0
  5  6  1  0  0  0  0
  5 12  1  0  0  0  0
  6  7  1  0  0  0  0
  6 25  1  0  0  0  0
  6 26  1  0  0  0  0
  7 11  1  0  0  0  0
  7  8  1  0  0  0  0
  7 27  1  0  0  0  0
  8  9  1  0  0  0  0
  8 28  1  0  0  0  0
  8 29  1  0  0  0  0
  9 10  1  0  0  0  0
  9 30  1  0  0  0  0
  9 31  1  0  0  0  0
 10 11  1  0  0  0  0
 10 32  1  0  0  0  0
 10 33  1  0  0  0  0
 12 18  1  0  0  0  0
 12 13  2  0  0  0  0
 13 14  1  0  0  0  0
 13 37  1  0  0  0  0
 14 15  2  0  0  0  0
 14 34  1  0  0  0  0
 15 16  1  0  0  0  0
 16 17  1  0  0  0  0
 16 18  2  0  0  0  0
 17 35  1  0  0  0  0
 17 36  1  0  0  0  0
M  CHG  1  13   1
M  END
> <s_m_source_file>
AV-unprocessed.smi

> <i_m_source_file_index>
2943

> <i_lp_mmshare_version>
43012

> <i_f3d_flags>
0

> <s_epik_input>
bjFbY0hdbmMoW05IMl0pYyhjMTIpYyhbQ0gzXSljKFtDSDNdKW4yW0NIMl1bQ0BASF0zW0NIMl1bQ0gyXVtDSDJdTzM=

> <s_epik_cmdline>
J2VwaWtfcHl0aG9uJywgJy1waCcsICc3LjAnLCAnLXRuJywgJzgnLCAnLW1hJywgJzIwMCcsICctbWV0YWxfYmluZGluZycsICctaW1hZScsICc8aW5maWxlLm1hZT4nLCAnLW9tYWUnLCAnPG91dGZpbGUubWFlPic=

> <r_epik_Ionization_Penalty>
2.35523

> <r_epik_Ionization_Penalty_Charging>
2.35518

> <r_epik_Ionization_Penalty_Neutral>
5.21205e-05

> <r_epik_State_Penalty>
2.50981

> <r_epik_Charging_Adjusted_Penalty>
4.86499

> <i_epik_Tot_Q>
1

> <i_epik_Tot_abs_Q>
1

> <r_epik_Metal_State_Penalty>
2.52087

> <b_epik_Metal_Only>
0

> <s_lp_Force_Field>
OPLS_2005

> <r_lp_Energy>
21.0086

> <b_lp_Chiralities_Consistent>
1

> <s_lp_Variant>
AV-unprocessed.smi:2943-3

> <Gold.Version>
5.8.1

> <Gold.Id.Protein>
6NUR|6NUR_protein|mol2

> <Gold.PLP.Fitness>
44.5918

> <Gold.PLP.PLP>
-36.8753

> <Gold.PLP.part.hbond>
-3.0000

> <Gold.PLP.part.metal>
0.0000

> <Gold.PLP.part.buried>
0.6732

> <Gold.PLP.part.nonpolar>
-33.5877

> <Gold.PLP.part.repulsive>
0.4144

> <Gold.PLP.ligand.clash>
0.0000

> <Gold.PLP.ligand.torsion>
0.3080

> <Gold.PLP.Chemscore.Hbond>
2.7771

> <Gold.PLP.Chemscore.CHOScore>
0.0000

> <Gold.PLP.Chemscore.Metal>
0.0000

> <Gold.Chemscore.Hbonds>
donor molecule, donor type, donor heavy atom, donor atom, acceptor molecule, acceptor atom, score
      L1  H    13    37       P1  8028  2.00
      L1  H    17    36       P1  7948  0.76

> <Gold.PLP.Chemscore.Internal.Correction>
0.0011

> <Gold.Rescore>
     Score         DG    S(hbond)    S(metal)    S(lipo)     H(rot)  DE(clash)    DE(int)     intcor
     13.34     -17.84       1.81        0.00      81.93       1.27       2.77       1.73       ----

> <Gold.Chemscore.Fitness>
13.3428

> <Gold.Chemscore.DG>
-17.8441

> <Gold.Chemscore.ZeroCoef>
-5.4800

> <Gold.Chemscore.Hbond>
1.8072

> <Gold.Chemscore.Metal>
0.0000

> <Gold.Chemscore.Lipo>
81.9275

> <Gold.Chemscore.Internal_Hbond>
0.0000

> <Gold.Chemscore.DEClash>
2.7690

> <Gold.Chemscore.DEInternal>
1.7323

> <Gold.Chemscore.Rot>
1.2725

> <Gold.Chemscore.Internal.Correction>
   9.000000E+99

> <Gold.Chemscore.Hbonds>
donor molecule, donor type, donor heavy atom, donor atom, acceptor molecule, acceptor atom, score
      L1  H    13    37       P1  8028  0.99
      L1  H    17    36       P1  7948  0.72

> <Gold.Chemscore.Hbond.Weighted>
-6.0362

> <Gold.Chemscore.Metal.Weighted>
-0.0000

> <Gold.Chemscore.Lipo.Weighted>
-9.5855

> <Gold.Chemscore.Internal_Hbond.Weighted>
0.0000

> <Gold.Chemscore.DEClash.Weighted>
2.7690

> <Gold.Chemscore.DEInternal.Weighted>
1.7323

> <Gold.Chemscore.Rot.Weighted>
3.2576

> <Gold.Chemscore.Internal.Correction.Weighted>
   9.000000E+99

> <Gold.Protein.RotatedTorsions>
[ 6907 6896 6895 6894 ] final  161.19 input  -60.11 | X-H torsion
[ 7974 7965 7964 7962 ] final  -74.72 input  175.53 | X-H torsion
[ 8008 7997 7996 7995 ] final  165.65 input   59.86 | X-H torsion
[ 10167 10162 10161 10158 ] final -144.93 input  -65.29 | X-H torsion
[ 10718 10713 10712 10709 ] final  -40.24 input   66.30 | X-H torsion
[ 10763 10752 10751 10750 ] final  153.09 input  -60.55 | X-H torsion
[ 11005 11000 10999 10996 ] final  138.11 input  -57.11 | X-H torsion

> <Gold.Protein.ActiveResidues>
 VAL166  LYS551  ARG553  GLY616  TRP617  ASP618  TYR619  PRO620  LYS621  CYS622 
 ASP623  PHE694  ASN695  SER759  ASP760  ASP761  ALA762  ILE779  LEU786  VAL792 
 PHE793  MET794  SER795  GLU796  ALA797  LYS798  CYS799  TRP800  GLU811  SER814 

> <Gold.Protein.RotatedAtoms>
  151.9593  133.3690  159.4029 H   0  0  0  0  0  0  0  0  0  0  0  0  # atno 6907 bound_to 6896
  150.6967  134.4257  159.5234 H   0  0  0  0  0  0  0  0  0  0  0  0  # atno 6908 bound_to 6896
  152.1943  134.8644  160.0565 H   0  0  0  0  0  0  0  0  0  0  0  0  # atno 6909 bound_to 6896
  145.6354  140.9326  143.1064 H   0  0  0  0  0  0  0  0  0  0  0  0  # atno 7974 bound_to 7965
  156.1783  140.1664  156.8322 H   0  0  0  0  0  0  0  0  0  0  0  0  # atno 8008 bound_to 7997
  154.5331  140.0752  156.8414 H   0  0  0  0  0  0  0  0  0  0  0  0  # atno 8009 bound_to 7997
  155.3366  140.3382  155.4241 H   0  0  0  0  0  0  0  0  0  0  0  0  # atno 8010 bound_to 7997
  139.7853  143.8043  152.2644 H   0  0  0  0  0  0  0  0  0  0  0  0  # atno 10167 bound_to 10162
  156.2836  130.4220  149.8311 H   0  0  0  0  0  0  0  0  0  0  0  0  # atno 10718 bound_to 10713
  154.1305  135.2827  155.3186 H   0  0  0  0  0  0  0  0  0  0  0  0  # atno 10763 bound_to 10752
  154.6359  135.5419  153.7736 H   0  0  0  0  0  0  0  0  0  0  0  0  # atno 10764 bound_to 10752
  153.0283  135.6474  154.1456 H   0  0  0  0  0  0  0  0  0  0  0  0  # atno 10765 bound_to 10752
  140.0160  134.9418  157.0378 H   0  0  0  0  0  0  0  0  0  0  0  0  # atno 11005 bound_to 11000
  144.7177  139.8137  143.7393 LP  0  0  0  0  0  0  0  0  0  0  0  0  # atno 17320 bound_to 7965
  146.1323  139.4361  143.0161 LP  0  0  0  0  0  0  0  0  0  0  0  0  # atno 17321 bound_to 7965
  139.8118  144.7333  150.9687 LP  0  0  0  0  0  0  0  0  0  0  0  0  # atno 17342 bound_to 10162
  140.7819  143.4243  151.0792 LP  0  0  0  0  0  0  0  0  0  0  0  0  # atno 17343 bound_to 10162
  156.5750  130.8441  151.3367 LP  0  0  0  0  0  0  0  0  0  0  0  0  # atno 17370 bound_to 10713
  157.7322  130.9711  150.1915 LP  0  0  0  0  0  0  0  0  0  0  0  0  # atno 17371 bound_to 10713
  140.4469  134.1622  155.7178 LP  0  0  0  0  0  0  0  0  0  0  0  0  # atno 17394 bound_to 11000
  141.1743  133.8545  157.1471 LP  0  0  0  0  0  0  0  0  0  0  0  0  # atno 17395 bound_to 11000

$$$$
