AV-unprocessed.smi:2446|AV-procd|sdf|9642|dock6
  -GOLD-   2272013273D 1   1.00000     0.00000
 Structure written by MMmdl.
 39 40  0  0  0  0  0  0  0  0  1 V2000
  146.8895  142.7258  153.7892 C   0  0  0  0  0  0  0  0  0  0  0  0
  147.5223  141.3452  153.7482 C   0  0  0  0  0  0  0  0  0  0  0  0
  146.9789  140.3461  152.9123 C   0  0  0  0  0  0  0  0  0  0  0  0
  147.4790  139.0967  152.8205 N   0  0  0  0  0  0  0  0  0  0  0  0
  148.5537  138.7927  153.5765 C   0  0  0  0  0  0  0  0  0  0  0  0
  149.1764  139.7107  154.4442 C   0  0  0  0  0  0  0  0  0  0  0  0
  148.6603  141.0266  154.5286 C   0  0  0  0  0  0  0  0  0  0  0  0
  149.1987  142.0289  155.3833 N   0  0  0  0  0  0  0  0  0  0  0  0
  150.2775  141.9776  156.1894 C   0  0  0  0  0  0  0  0  0  0  0  0
  150.9954  140.9920  156.3426 O   0  0  0  0  0  0  0  0  0  0  0  0
  150.5391  143.1322  156.8303 N   0  0  0  0  0  0  0  0  0  0  0  0
  151.6225  143.4262  157.7717 C   0  0  1  0  0  0  0  0  0  0  0  0
  151.1972  144.5787  158.6989 C   0  0  0  0  0  0  0  0  0  0  0  0
  152.2813  144.8834  159.7438 C   0  0  0  0  0  0  0  0  0  0  0  0
  152.6426  143.6297  160.5558 C   0  0  0  0  0  0  0  0  0  0  0  0
  153.0827  142.4677  159.6407 C   0  0  1  0  0  0  0  0  0  0  0  0
  153.4678  141.2087  160.4446 C   0  0  0  0  0  0  0  0  0  0  0  0
  154.2027  140.3784  159.7040 F   0  0  0  0  0  0  0  0  0  0  0  0
  154.1665  141.5549  161.5261 F   0  0  0  0  0  0  0  0  0  0  0  0
  152.3689  140.5701  160.8466 F   0  0  0  0  0  0  0  0  0  0  0  0
  151.9852  142.1725  158.5965 C   0  0  0  0  0  0  0  0  0  0  0  0
  146.0142  142.7798  153.1412 H   0  0  0  0  0  0  0  0  0  0  0  0
  147.6021  143.4812  153.4567 H   0  0  0  0  0  0  0  0  0  0  0  0
  146.5735  142.9709  154.8036 H   0  0  0  0  0  0  0  0  0  0  0  0
  146.1146  140.5527  152.2982 H   0  0  0  0  0  0  0  0  0  0  0  0
  148.9270  137.7826  153.4926 H   0  0  0  0  0  0  0  0  0  0  0  0
  150.0212  139.3833  155.0296 H   0  0  0  0  0  0  0  0  0  0  0  0
  148.7506  142.9308  155.3163 H   0  0  0  0  0  0  0  0  0  0  0  0
  149.9057  143.8965  156.6447 H   0  0  0  0  0  0  0  0  0  0  0  0
  152.5040  143.7578  157.2196 H   0  0  0  0  0  0  0  0  0  0  0  0
  150.9924  145.4749  158.1117 H   0  0  0  0  0  0  0  0  0  0  0  0
  150.2667  144.3229  159.2080 H   0  0  0  0  0  0  0  0  0  0  0  0
  153.1727  145.2658  159.2451 H   0  0  0  0  0  0  0  0  0  0  0  0
  151.9391  145.6731  160.4132 H   0  0  0  0  0  0  0  0  0  0  0  0
  153.4370  143.8738  161.2615 H   0  0  0  0  0  0  0  0  0  0  0  0
  151.7828  143.3249  161.1538 H   0  0  0  0  0  0  0  0  0  0  0  0
  153.9738  142.7914  159.1003 H   0  0  0  0  0  0  0  0  0  0  0  0
  151.0937  141.7949  159.0994 H   0  0  0  0  0  0  0  0  0  0  0  0
  152.3192  141.3755  157.9323 H   0  0  0  0  0  0  0  0  0  0  0  0
  1  2  1  0  0  0  0
  1 22  1  0  0  0  0
  1 23  1  0  0  0  0
  1 24  1  0  0  0  0
  2  7  1  0  0  0  0
  2  3  2  0  0  0  0
  3  4  1  0  0  0  0
  3 25  1  0  0  0  0
  4  5  2  0  0  0  0
  5  6  1  0  0  0  0
  5 26  1  0  0  0  0
  6  7  2  0  0  0  0
  6 27  1  0  0  0  0
  7  8  1  0  0  0  0
  8  9  1  0  0  0  0
  8 28  1  0  0  0  0
  9 10  2  0  0  0  0
  9 11  1  0  0  0  0
 11 12  1  0  0  0  0
 11 29  1  0  0  0  0
 12 21  1  0  0  0  0
 12 13  1  0  0  0  0
 12 30  1  0  0  0  0
 13 14  1  0  0  0  0
 13 31  1  0  0  0  0
 13 32  1  0  0  0  0
 14 15  1  0  0  0  0
 14 33  1  0  0  0  0
 14 34  1  0  0  0  0
 15 16  1  0  0  0  0
 15 35  1  0  0  0  0
 15 36  1  0  0  0  0
 16 17  1  0  0  0  0
 16 21  1  0  0  0  0
 16 37  1  0  0  0  0
 17 18  1  0  0  0  0
 17 19  1  0  0  0  0
 17 20  1  0  0  0  0
 21 38  1  0  0  0  0
 21 39  1  0  0  0  0
M  END
> <s_m_source_file>
AV-unprocessed.smi

> <i_m_source_file_index>
2446

> <i_lp_mmshare_version>
43012

> <i_f3d_flags>
0

> <s_epik_input>
W0NIM11jMVtjSF1uW2NIXVtjSF1jMVtOSF1DKD1PKVtOSF1bQ0BASF0yW0NIMl1bQ0gyXVtDSDJdW0NAQEhdKEMoRikoRilGKVtDSDJdMg==

> <s_epik_cmdline>
J2VwaWtfcHl0aG9uJywgJy1waCcsICc3LjAnLCAnLXRuJywgJzgnLCAnLW1hJywgJzIwMCcsICctbWV0YWxfYmluZGluZycsICctaW1hZScsICc8aW5maWxlLm1hZT4nLCAnLW9tYWUnLCAnPG91dGZpbGUubWFlPic=

> <r_epik_Ionization_Penalty>
0.20168

> <r_epik_Ionization_Penalty_Charging>
0

> <r_epik_Ionization_Penalty_Neutral>
0.20168

> <r_epik_State_Penalty>
0.191514

> <r_epik_Charging_Adjusted_Penalty>
0.191514

> <i_epik_Tot_Q>
0

> <i_epik_Tot_abs_Q>
0

> <r_epik_Metal_State_Penalty>
0.142371

> <b_epik_Metal_Only>
0

> <s_lp_Force_Field>
OPLS_2005

> <r_lp_Energy>
26.2068

> <b_lp_Chiralities_Consistent>
1

> <s_lp_Variant>
AV-unprocessed.smi:2446-2

> <Gold.Version>
5.8.1

> <Gold.Id.Protein>
6NUR|6NUR_protein|mol2

> <Gold.PLP.Fitness>
50.4555

> <Gold.PLP.PLP>
-40.9177

> <Gold.PLP.part.hbond>
-2.0000

> <Gold.PLP.part.metal>
0.0000

> <Gold.PLP.part.buried>
-1.1036

> <Gold.PLP.part.nonpolar>
-38.9284

> <Gold.PLP.part.repulsive>
1.5999

> <Gold.PLP.ligand.clash>
0.7231

> <Gold.PLP.ligand.torsion>
0.7465

> <Gold.PLP.Chemscore.Hbond>
1.9120

> <Gold.PLP.Chemscore.CHOScore>
2.0000

> <Gold.PLP.Chemscore.Metal>
0.0000

> <Gold.Chemscore.Hbonds>
donor molecule, donor type, donor heavy atom, donor atom, acceptor molecule, acceptor atom, score
      L1  H     8    28       P1  8028  0.94
      L1  H    11    29       P1  8028  1.00
      L1  C     3    25       P1 10175  1.00
      L1  C     5    26       P1  7948  1.00

> <Gold.PLP.Chemscore.Internal.Correction>
0.0179

> <Gold.Rescore>
     Score         DG    S(hbond)    S(metal)    S(lipo)     H(rot)  DE(clash)    DE(int)     intcor
     17.49     -21.88       1.60        0.00     116.24       1.00       1.24       3.15       ----

> <Gold.Chemscore.Fitness>
17.4908

> <Gold.Chemscore.DG>
-21.8783

> <Gold.Chemscore.ZeroCoef>
-5.4800

> <Gold.Chemscore.Hbond>
1.6041

> <Gold.Chemscore.Metal>
0.0000

> <Gold.Chemscore.Lipo>
116.2434

> <Gold.Chemscore.Internal_Hbond>
0.0000

> <Gold.Chemscore.DEClash>
1.2367

> <Gold.Chemscore.DEInternal>
3.1508

> <Gold.Chemscore.Rot>
1.0000

> <Gold.Chemscore.Internal.Correction>
   9.000000E+99

> <Gold.Chemscore.Hbonds>
donor molecule, donor type, donor heavy atom, donor atom, acceptor molecule, acceptor atom, score
      L1  H     8    28       P1  8028  0.91
      L1  H    11    29       P1  8028  0.96

> <Gold.Chemscore.Hbond.Weighted>
-5.3578

> <Gold.Chemscore.Metal.Weighted>
-0.0000

> <Gold.Chemscore.Lipo.Weighted>
-13.6005

> <Gold.Chemscore.Internal_Hbond.Weighted>
0.0000

> <Gold.Chemscore.DEClash.Weighted>
1.2367

> <Gold.Chemscore.DEInternal.Weighted>
3.1508

> <Gold.Chemscore.Rot.Weighted>
2.5600

> <Gold.Chemscore.Internal.Correction.Weighted>
   9.000000E+99

> <Gold.Protein.RotatedTorsions>
[ 6907 6896 6895 6894 ] final   90.31 input  -60.11 | X-H torsion
[ 7974 7965 7964 7962 ] final   -3.54 input  175.53 | X-H torsion
[ 8008 7997 7996 7995 ] final  148.24 input   59.86 | X-H torsion
[ 10167 10162 10161 10158 ] final  -98.55 input  -65.29 | X-H torsion
[ 10718 10713 10712 10709 ] final   13.21 input   66.30 | X-H torsion
[ 10763 10752 10751 10750 ] final -140.30 input  -60.55 | X-H torsion
[ 11005 11000 10999 10996 ] final -122.90 input  -57.11 | X-H torsion

> <Gold.Protein.ActiveResidues>
 VAL166  LYS551  ARG553  GLY616  TRP617  ASP618  TYR619  PRO620  LYS621  CYS622 
 ASP623  PHE694  ASN695  SER759  ASP760  ASP761  ALA762  ILE779  LEU786  VAL792 
 PHE793  MET794  SER795  GLU796  ALA797  LYS798  CYS799  TRP800  GLU811  SER814 

> <Gold.Protein.RotatedAtoms>
  152.5443  134.1831  159.8643 H   0  0  0  0  0  0  0  0  0  0  0  0  # atno 6907 bound_to 6896
  151.1832  133.4705  159.2602 H   0  0  0  0  0  0  0  0  0  0  0  0  # atno 6908 bound_to 6896
  151.1157  135.0063  159.8570 H   0  0  0  0  0  0  0  0  0  0  0  0  # atno 6909 bound_to 6896
  146.2388  140.1736  142.8332 H   0  0  0  0  0  0  0  0  0  0  0  0  # atno 7974 bound_to 7965
  156.2798  140.2134  156.5666 H   0  0  0  0  0  0  0  0  0  0  0  0  # atno 8008 bound_to 7997
  154.7169  140.0507  157.0626 H   0  0  0  0  0  0  0  0  0  0  0  0  # atno 8009 bound_to 7997
  155.0530  140.3158  155.4689 H   0  0  0  0  0  0  0  0  0  0  0  0  # atno 8010 bound_to 7997
  140.2718  143.3339  152.0527 H   0  0  0  0  0  0  0  0  0  0  0  0  # atno 10167 bound_to 10162
  157.0214  130.6156  149.5721 H   0  0  0  0  0  0  0  0  0  0  0  0  # atno 10718 bound_to 10713
  154.8583  135.3557  154.5686 H   0  0  0  0  0  0  0  0  0  0  0  0  # atno 10763 bound_to 10752
  153.6299  135.7002  153.5284 H   0  0  0  0  0  0  0  0  0  0  0  0  # atno 10764 bound_to 10752
  153.3058  135.4193  155.1252 H   0  0  0  0  0  0  0  0  0  0  0  0  # atno 10765 bound_to 10752
  140.9960  134.0471  157.3597 H   0  0  0  0  0  0  0  0  0  0  0  0  # atno 11005 bound_to 11000
  144.9991  140.8616  143.5292 LP  0  0  0  0  0  0  0  0  0  0  0  0  # atno 17320 bound_to 7965
  145.1753  139.2381  143.5321 LP  0  0  0  0  0  0  0  0  0  0  0  0  # atno 17321 bound_to 7965
  139.4987  144.6651  151.6374 LP  0  0  0  0  0  0  0  0  0  0  0  0  # atno 17342 bound_to 10162
  140.5884  143.9824  150.6309 LP  0  0  0  0  0  0  0  0  0  0  0  0  # atno 17343 bound_to 10162
  156.0101  130.5191  150.7960 LP  0  0  0  0  0  0  0  0  0  0  0  0  # atno 17370 bound_to 10713
  157.5247  131.0933  151.0034 LP  0  0  0  0  0  0  0  0  0  0  0  0  # atno 17371 bound_to 10713
  139.9015  135.0166  156.7289 LP  0  0  0  0  0  0  0  0  0  0  0  0  # atno 17394 bound_to 11000
  140.6965  133.9344  155.7998 LP  0  0  0  0  0  0  0  0  0  0  0  0  # atno 17395 bound_to 11000

$$$$
