AV-unprocessed.smi:2883|AV-procd|sdf|11077|dock9
  -GOLD-   2272015553D 1   1.00000     0.00000
 Structure written by MMmdl.
 40 42  0  0  0  0  0  0  0  0  2 V2000
  153.1066  144.4223  158.6090 C   0  0  0  0  0  0  0  0  0  0  0  0
  152.2145  143.4976  159.4699 C   0  0  0  0  0  0  0  0  0  0  0  0
  153.1352  142.8942  160.5549 C   0  0  0  0  0  0  0  0  0  0  0  0
  151.1003  144.3232  160.1387 C   0  0  0  0  0  0  0  0  0  0  0  0
  151.5853  142.3918  158.6107 C   0  0  0  0  0  0  0  0  0  0  0  0
  151.7971  141.1040  158.9370 N   0  3  0  0  0  0  0  0  0  0  0  0
  151.1650  140.1165  158.2574 C   0  0  0  0  0  0  0  0  0  0  0  0
  150.2573  140.4280  157.2291 C   0  0  0  0  0  0  0  0  0  0  0  0
  150.0418  141.7904  156.9651 C   0  0  0  0  0  0  0  0  0  0  0  0
  149.1354  142.1673  155.9647 N   0  0  0  0  0  0  0  0  0  0  0  0
  148.2779  141.1781  155.3178 C   0  0  2  0  0  0  0  0  0  0  0  0
  148.2731  141.2930  153.7915 C   0  0  0  0  0  0  0  0  0  0  0  0
  146.7712  141.3887  153.4877 C   0  0  2  0  0  0  0  0  0  0  0  0
  146.2126  142.7725  153.8430 C   0  0  0  0  0  0  0  0  0  0  0  0
  146.2100  142.7229  155.3697 C   0  0  0  0  0  0  0  0  0  0  0  0
  146.7773  141.3194  155.6446 C   0  0  1  0  0  0  0  0  0  0  0  0
  146.2301  140.6130  154.5444 O   0  0  0  0  0  0  0  0  0  0  0  0
  150.6912  142.7401  157.6724 N   0  0  0  0  0  0  0  0  0  0  0  0
  153.5925  145.1848  159.2190 H   0  0  0  0  0  0  0  0  0  0  0  0
  152.5333  144.9486  157.8448 H   0  0  0  0  0  0  0  0  0  0  0  0
  153.8918  143.8591  158.1027 H   0  0  0  0  0  0  0  0  0  0  0  0
  153.9217  142.2812  160.1128 H   0  0  0  0  0  0  0  0  0  0  0  0
  152.5836  142.2701  161.2587 H   0  0  0  0  0  0  0  0  0  0  0  0
  153.6211  143.6752  161.1412 H   0  0  0  0  0  0  0  0  0  0  0  0
  151.5123  145.1192  160.7600 H   0  0  0  0  0  0  0  0  0  0  0  0
  150.4729  143.6994  160.7767 H   0  0  0  0  0  0  0  0  0  0  0  0
  150.4520  144.7890  159.3953 H   0  0  0  0  0  0  0  0  0  0  0  0
  151.4003  139.1083  158.5652 H   0  0  0  0  0  0  0  0  0  0  0  0
  149.7446  139.6524  156.6787 H   0  0  0  0  0  0  0  0  0  0  0  0
  148.9118  143.1445  155.8432 H   0  0  0  0  0  0  0  0  0  0  0  0
  148.6153  140.1757  155.5868 H   0  0  0  0  0  0  0  0  0  0  0  0
  148.8215  142.1563  153.4115 H   0  0  0  0  0  0  0  0  0  0  0  0
  148.7046  140.3966  153.3447 H   0  0  0  0  0  0  0  0  0  0  0  0
  146.4979  141.0448  152.4899 H   0  0  0  0  0  0  0  0  0  0  0  0
  146.8244  143.5829  153.4452 H   0  0  0  0  0  0  0  0  0  0  0  0
  145.1975  142.8913  153.4624 H   0  0  0  0  0  0  0  0  0  0  0  0
  146.7986  143.5209  155.8233 H   0  0  0  0  0  0  0  0  0  0  0  0
  145.1902  142.8031  155.7476 H   0  0  0  0  0  0  0  0  0  0  0  0
  146.4938  140.9127  156.6158 H   0  0  0  0  0  0  0  0  0  0  0  0
  152.4389  140.8617  159.6922 H   0  0  0  0  0  0  0  0  0  0  0  0
  1  2  1  0  0  0  0
  1 19  1  0  0  0  0
  1 20  1  0  0  0  0
  1 21  1  0  0  0  0
  2  3  1  0  0  0  0
  2  4  1  0  0  0  0
  2  5  1  0  0  0  0
  3 22  1  0  0  0  0
  3 23  1  0  0  0  0
  3 24  1  0  0  0  0
  4 25  1  0  0  0  0
  4 26  1  0  0  0  0
  4 27  1  0  0  0  0
  5 18  1  0  0  0  0
  5  6  2  0  0  0  0
  6  7  1  0  0  0  0
  6 40  1  0  0  0  0
  7  8  2  0  0  0  0
  7 28  1  0  0  0  0
  8  9  1  0  0  0  0
  8 29  1  0  0  0  0
  9 10  1  0  0  0  0
  9 18  2  0  0  0  0
 10 11  1  0  0  0  0
 10 30  1  0  0  0  0
 11 16  1  0  0  0  0
 11 12  1  0  0  0  0
 11 31  1  0  0  0  0
 12 13  1  0  0  0  0
 12 32  1  0  0  0  0
 12 33  1  0  0  0  0
 13 17  1  0  0  0  0
 13 14  1  0  0  0  0
 13 34  1  0  0  0  0
 14 15  1  0  0  0  0
 14 35  1  0  0  0  0
 14 36  1  0  0  0  0
 15 16  1  0  0  0  0
 15 37  1  0  0  0  0
 15 38  1  0  0  0  0
 16 17  1  0  0  0  0
 16 39  1  0  0  0  0
M  CHG  1   6   1
M  END
> <s_m_source_file>
AV-unprocessed.smi

> <i_m_source_file_index>
2883

> <i_lp_mmshare_version>
43012

> <i_f3d_flags>
0

> <s_epik_input>
W0NIM11DKFtDSDNdKShbQ0gzXSljMW5bY0hdW2NIXWMobjEpW05IXVtDQEhdKFtDSDJdW0NAQEhdMjMpW0NAQEhdKE8zKVtDSDJdW0NIMl0y

> <s_epik_cmdline>
J2VwaWtfcHl0aG9uJywgJy1waCcsICc3LjAnLCAnLXRuJywgJzgnLCAnLW1hJywgJzIwMCcsICctbWV0YWxfYmluZGluZycsICctaW1hZScsICc8aW5maWxlLm1hZT4nLCAnLW9tYWUnLCAnPG91dGZpbGUubWFlPic=

> <r_lp_tautomer_probability>
0.999336

> <r_epik_Ionization_Penalty>
0.371831

> <r_epik_Ionization_Penalty_Charging>
0.371821

> <r_epik_Ionization_Penalty_Neutral>
1.06897e-05

> <r_epik_State_Penalty>
0.369311

> <r_epik_Charging_Adjusted_Penalty>
0.741132

> <i_epik_Tot_Q>
1

> <i_epik_Tot_abs_Q>
1

> <r_epik_Metal_State_Penalty>
0.621338

> <b_epik_Metal_Only>
0

> <s_lp_Force_Field>
OPLS_2005

> <r_lp_Energy>
39.227

> <b_lp_Chiralities_Consistent>
1

> <s_lp_Variant>
AV-unprocessed.smi:2883-3

> <Gold.Version>
5.8.1

> <Gold.Id.Protein>
6NUR|6NUR_protein|mol2

> <Gold.PLP.Fitness>
38.4820

> <Gold.PLP.PLP>
-35.7105

> <Gold.PLP.part.hbond>
-1.0000

> <Gold.PLP.part.metal>
0.0000

> <Gold.PLP.part.buried>
-5.3904

> <Gold.PLP.part.nonpolar>
-28.5748

> <Gold.PLP.part.repulsive>
0.4834

> <Gold.PLP.ligand.clash>
0.0000

> <Gold.PLP.ligand.torsion>
0.1862

> <Gold.PLP.Chemscore.Hbond>
1.0000

> <Gold.PLP.Chemscore.CHOScore>
0.0000

> <Gold.PLP.Chemscore.Metal>
0.0000

> <Gold.Chemscore.Hbonds>
donor molecule, donor type, donor heavy atom, donor atom, acceptor molecule, acceptor atom, score
      L1  H    10    30       P1  8028  1.00

> <Gold.PLP.Chemscore.Internal.Correction>
0.1438

> <Gold.Rescore>
     Score         DG    S(hbond)    S(metal)    S(lipo)     H(rot)  DE(clash)    DE(int)     intcor
     16.73     -16.98       0.99        0.00      95.40       1.16       0.08       0.18       ----

> <Gold.Chemscore.Fitness>
16.7309

> <Gold.Chemscore.DG>
-16.9840

> <Gold.Chemscore.ZeroCoef>
-5.4800

> <Gold.Chemscore.Hbond>
0.9937

> <Gold.Chemscore.Metal>
0.0000

> <Gold.Chemscore.Lipo>
95.3957

> <Gold.Chemscore.Internal_Hbond>
0.0000

> <Gold.Chemscore.DEClash>
0.0779

> <Gold.Chemscore.DEInternal>
0.1751

> <Gold.Chemscore.Rot>
1.1626

> <Gold.Chemscore.Internal.Correction>
   9.000000E+99

> <Gold.Chemscore.Hbonds>
donor molecule, donor type, donor heavy atom, donor atom, acceptor molecule, acceptor atom, score
      L1  H    10    30       P1  8028  0.98

> <Gold.Chemscore.Hbond.Weighted>
-3.3190

> <Gold.Chemscore.Metal.Weighted>
-0.0000

> <Gold.Chemscore.Lipo.Weighted>
-11.1613

> <Gold.Chemscore.Internal_Hbond.Weighted>
0.0000

> <Gold.Chemscore.DEClash.Weighted>
0.0779

> <Gold.Chemscore.DEInternal.Weighted>
0.1751

> <Gold.Chemscore.Rot.Weighted>
2.9763

> <Gold.Chemscore.Internal.Correction.Weighted>
   9.000000E+99

> <Gold.Protein.RotatedTorsions>
[ 6907 6896 6895 6894 ] final  -86.24 input  -60.11 | X-H torsion
[ 7974 7965 7964 7962 ] final  137.37 input  175.53 | X-H torsion
[ 8008 7997 7996 7995 ] final   21.53 input   59.86 | X-H torsion
[ 10167 10162 10161 10158 ] final   40.40 input  -65.29 | X-H torsion
[ 10718 10713 10712 10709 ] final  -13.46 input   66.30 | X-H torsion
[ 10763 10752 10751 10750 ] final  -84.34 input  -60.55 | X-H torsion
[ 11005 11000 10999 10996 ] final   62.74 input  -57.11 | X-H torsion

> <Gold.Protein.ActiveResidues>
 VAL166  LYS551  ARG553  GLY616  TRP617  ASP618  TYR619  PRO620  LYS621  CYS622 
 ASP623  PHE694  ASN695  SER759  ASP760  ASP761  ALA762  ILE779  LEU786  VAL792 
 PHE793  MET794  SER795  GLU796  ALA797  LYS798  CYS799  TRP800  GLU811  SER814 

> <Gold.Protein.RotatedAtoms>
  150.6867  134.3080  159.4734 H   0  0  0  0  0  0  0  0  0  0  0  0  # atno 6907 bound_to 6896
  152.0969  134.9366  160.0580 H   0  0  0  0  0  0  0  0  0  0  0  0  # atno 6908 bound_to 6896
  152.0660  133.4049  159.4475 H   0  0  0  0  0  0  0  0  0  0  0  0  # atno 6909 bound_to 6896
  144.9474  139.4858  143.5542 H   0  0  0  0  0  0  0  0  0  0  0  0  # atno 7974 bound_to 7965
  154.9519  140.3067  155.5071 H   0  0  0  0  0  0  0  0  0  0  0  0  # atno 8008 bound_to 7997
  156.2986  140.2317  156.4535 H   0  0  0  0  0  0  0  0  0  0  0  0  # atno 8009 bound_to 7997
  154.8046  140.0432  157.1287 H   0  0  0  0  0  0  0  0  0  0  0  0  # atno 8010 bound_to 7997
  140.3746  144.2060  150.6132 H   0  0  0  0  0  0  0  0  0  0  0  0  # atno 10167 bound_to 10162
  156.6299  130.4899  149.6133 H   0  0  0  0  0  0  0  0  0  0  0  0  # atno 10718 bound_to 10713
  154.5984  135.5524  153.7349 H   0  0  0  0  0  0  0  0  0  0  0  0  # atno 10763 bound_to 10752
  153.0144  135.6360  154.1750 H   0  0  0  0  0  0  0  0  0  0  0  0  # atno 10764 bound_to 10752
  154.1690  135.2893  155.3066 H   0  0  0  0  0  0  0  0  0  0  0  0  # atno 10765 bound_to 10752
  140.0072  134.6352  155.9837 H   0  0  0  0  0  0  0  0  0  0  0  0  # atno 11005 bound_to 11000
  146.3308  139.8536  142.8868 LP  0  0  0  0  0  0  0  0  0  0  0  0  # atno 17320 bound_to 7965
  145.2896  141.0163  143.3670 LP  0  0  0  0  0  0  0  0  0  0  0  0  # atno 17321 bound_to 7965
  140.4999  143.2321  151.8694 LP  0  0  0  0  0  0  0  0  0  0  0  0  # atno 17342 bound_to 10162
  139.4800  144.5071  151.8982 LP  0  0  0  0  0  0  0  0  0  0  0  0  # atno 17343 bound_to 10162
  156.2243  130.6756  151.1400 LP  0  0  0  0  0  0  0  0  0  0  0  0  # atno 17370 bound_to 10713
  157.7203  131.0685  150.6163 LP  0  0  0  0  0  0  0  0  0  0  0  0  # atno 17371 bound_to 10713
  141.1685  133.6537  156.4565 LP  0  0  0  0  0  0  0  0  0  0  0  0  # atno 17394 bound_to 11000
  140.4620  134.6832  157.5090 LP  0  0  0  0  0  0  0  0  0  0  0  0  # atno 17395 bound_to 11000

$$$$
