AV-unprocessed.smi:500|AV-procd|sdf|2735|dock7
  -GOLD-   2262023193D 1   1.00000     0.00000
 Structure written by MMmdl.
 45 47  0  0  0  0  0  0  0  0  1 V2000
  146.2850  142.8090  153.9200 C   0  0  0  0  0  0  0  0  0  0  0  0
  146.6510  141.9300  155.1180 C   0  0  0  0  0  0  0  0  0  0  0  0
  148.0354  141.6216  155.0525 O   0  0  0  0  0  0  0  0  0  0  0  0
  148.5763  141.1313  156.2705 C   0  0  0  0  0  0  0  0  0  0  0  0
  150.0373  140.6830  156.0975 C   0  0  0  0  0  0  0  0  0  0  0  0
  150.7327  140.6296  157.3735 N   0  0  0  0  0  0  0  0  0  0  0  0
  150.9297  139.5576  158.1839 C   0  0  0  0  0  0  0  0  0  0  0  0
  150.4154  138.1814  157.8380 C   0  0  1  0  0  0  0  0  0  0  0  0
  151.5558  137.2114  157.5026 C   0  0  0  0  0  0  0  0  0  0  0  0
  149.6389  137.6704  158.9664 N   0  0  0  0  0  0  0  0  0  0  0  0
  149.2220  136.4025  159.1145 C   0  0  0  0  0  0  0  0  0  0  0  0
  149.4877  135.5022  158.3183 O   0  0  0  0  0  0  0  0  0  0  0  0
  148.4139  136.1301  160.3177 C   0  0  0  0  0  0  0  0  0  0  0  0
  147.9185  134.9598  160.8306 C   0  0  0  0  0  0  0  0  0  0  0  0
  147.2275  135.2999  162.0265 C   0  0  0  0  0  0  0  0  0  0  0  0
  147.3545  136.6525  162.1620 C   0  0  0  0  0  0  0  0  0  0  0  0
  148.0775  137.1719  161.1329 O   0  0  0  0  0  0  0  0  0  0  0  0
  151.6340  139.7999  159.2936 N   0  0  0  0  0  0  0  0  0  0  0  0
  151.8884  141.1537  159.2085 C   0  0  0  0  0  0  0  0  0  0  0  0
  152.5822  142.0147  160.0884 C   0  0  0  0  0  0  0  0  0  0  0  0
  152.7147  143.3862  159.7880 C   0  0  0  0  0  0  0  0  0  0  0  0
  152.1575  143.9148  158.6056 C   0  0  0  0  0  0  0  0  0  0  0  0
  151.4645  143.0733  157.7141 C   0  0  0  0  0  0  0  0  0  0  0  0
  151.3349  141.7049  158.0190 C   0  0  0  0  0  0  0  0  0  0  0  0
  145.2274  143.0730  153.9394 H   0  0  0  0  0  0  0  0  0  0  0  0
  146.4835  142.2926  152.9804 H   0  0  0  0  0  0  0  0  0  0  0  0
  146.8613  143.7347  153.9232 H   0  0  0  0  0  0  0  0  0  0  0  0
  146.4279  142.4589  156.0458 H   0  0  0  0  0  0  0  0  0  0  0  0
  146.0479  141.0221  155.1035 H   0  0  0  0  0  0  0  0  0  0  0  0
  148.5395  141.9452  156.9952 H   0  0  0  0  0  0  0  0  0  0  0  0
  147.9562  140.3315  156.6764 H   0  0  0  0  0  0  0  0  0  0  0  0
  150.1098  139.7103  155.6131 H   0  0  0  0  0  0  0  0  0  0  0  0
  150.5621  141.3808  155.4447 H   0  0  0  0  0  0  0  0  0  0  0  0
  149.7555  138.2368  156.9723 H   0  0  0  0  0  0  0  0  0  0  0  0
  152.1337  137.5701  156.6506 H   0  0  0  0  0  0  0  0  0  0  0  0
  151.1696  136.2242  157.2471 H   0  0  0  0  0  0  0  0  0  0  0  0
  152.2406  137.0954  158.3435 H   0  0  0  0  0  0  0  0  0  0  0  0
  149.3685  138.3410  159.6712 H   0  0  0  0  0  0  0  0  0  0  0  0
  148.0392  133.9765  160.4004 H   0  0  0  0  0  0  0  0  0  0  0  0
  146.7065  134.6388  162.7030 H   0  0  0  0  0  0  0  0  0  0  0  0
  147.0134  137.3692  162.8945 H   0  0  0  0  0  0  0  0  0  0  0  0
  153.0113  141.6197  160.9973 H   0  0  0  0  0  0  0  0  0  0  0  0
  153.2454  144.0358  160.4684 H   0  0  0  0  0  0  0  0  0  0  0  0
  152.2623  144.9668  158.3837 H   0  0  0  0  0  0  0  0  0  0  0  0
  151.0357  143.4755  156.8083 H   0  0  0  0  0  0  0  0  0  0  0  0
  1  2  1  0  0  0  0
  1 25  1  0  0  0  0
  1 26  1  0  0  0  0
  1 27  1  0  0  0  0
  2  3  1  0  0  0  0
  2 28  1  0  0  0  0
  2 29  1  0  0  0  0
  3  4  1  0  0  0  0
  4  5  1  0  0  0  0
  4 30  1  0  0  0  0
  4 31  1  0  0  0  0
  5  6  1  0  0  0  0
  5 32  1  0  0  0  0
  5 33  1  0  0  0  0
  6 24  1  0  0  0  0
  6  7  1  0  0  0  0
  7  8  1  0  0  0  0
  7 18  2  0  0  0  0
  8  9  1  0  0  0  0
  8 10  1  0  0  0  0
  8 34  1  0  0  0  0
  9 35  1  0  0  0  0
  9 36  1  0  0  0  0
  9 37  1  0  0  0  0
 10 11  1  0  0  0  0
 10 38  1  0  0  0  0
 11 12  2  0  0  0  0
 11 13  1  0  0  0  0
 13 17  1  0  0  0  0
 13 14  2  0  0  0  0
 14 15  1  0  0  0  0
 14 39  1  0  0  0  0
 15 16  2  0  0  0  0
 15 40  1  0  0  0  0
 16 17  1  0  0  0  0
 16 41  1  0  0  0  0
 18 19  1  0  0  0  0
 19 24  2  0  0  0  0
 19 20  1  0  0  0  0
 20 21  2  0  0  0  0
 20 42  1  0  0  0  0
 21 22  1  0  0  0  0
 21 43  1  0  0  0  0
 22 23  2  0  0  0  0
 22 44  1  0  0  0  0
 23 24  1  0  0  0  0
 23 45  1  0  0  0  0
M  END
> <s_m_source_file>
AV-unprocessed.smi

> <i_m_source_file_index>
500

> <i_lp_mmshare_version>
43012

> <i_f3d_flags>
0

> <s_epik_input>
W0NIM11bQ0gyXU9bQ0gyXVtDSDJdbihjKGMxMilbY0hdW2NIXVtjSF1bY0hdMiljKG4xKVtDQEhdKFtDSDNdKVtOSF1DKD1PKWMzW2NIXVtjSF1bY0hdbzM=

> <s_epik_cmdline>
J2VwaWtfcHl0aG9uJywgJy1waCcsICc3LjAnLCAnLXRuJywgJzgnLCAnLW1hJywgJzIwMCcsICctbWV0YWxfYmluZGluZycsICctaW1hZScsICc8aW5maWxlLm1hZT4nLCAnLW9tYWUnLCAnPG91dGZpbGUubWFlPic=

> <r_epik_Ionization_Penalty>
0.109801

> <r_epik_Ionization_Penalty_Charging>
0

> <r_epik_Ionization_Penalty_Neutral>
0.109801

> <r_epik_State_Penalty>
0.0995533

> <r_epik_Charging_Adjusted_Penalty>
0.0995533

> <i_epik_Tot_Q>
0

> <i_epik_Tot_abs_Q>
0

> <r_epik_Metal_State_Penalty>
0.0918163

> <b_epik_Metal_Only>
0

> <s_lp_Force_Field>
OPLS_2005

> <r_lp_Energy>
7.77682

> <b_lp_Chiralities_Consistent>
1

> <s_lp_Variant>
AV-unprocessed.smi:500-2

> <Gold.Version>
5.8.1

> <Gold.Id.Protein>
6NUR|6NUR_protein|mol2

> <Gold.PLP.Fitness>
53.0445

> <Gold.PLP.PLP>
-46.4969

> <Gold.PLP.part.hbond>
-3.0000

> <Gold.PLP.part.metal>
0.0000

> <Gold.PLP.part.buried>
-6.5663

> <Gold.PLP.part.nonpolar>
-38.5030

> <Gold.PLP.part.repulsive>
0.3382

> <Gold.PLP.ligand.clash>
0.0000

> <Gold.PLP.ligand.torsion>
0.7908

> <Gold.PLP.Chemscore.Hbond>
2.6880

> <Gold.PLP.Chemscore.CHOScore>
0.0000

> <Gold.PLP.Chemscore.Metal>
0.0000

> <Gold.Chemscore.Hbonds>
donor molecule, donor type, donor heavy atom, donor atom, acceptor molecule, acceptor atom, score
      P1  H  6896  6909       L1    12  1.00
      P1  H  6931  6943       L1    17  1.00
      P1  H  6934  6947       L1    17  0.64

> <Gold.PLP.Chemscore.Internal.Correction>
0.0652

> <Gold.Rescore>
     Score         DG    S(hbond)    S(metal)    S(lipo)     H(rot)  DE(clash)    DE(int)     intcor
     18.29     -20.75       1.98        0.00     115.89       1.92       0.07       2.40       ----

> <Gold.Chemscore.Fitness>
18.2863

> <Gold.Chemscore.DG>
-20.7532

> <Gold.Chemscore.ZeroCoef>
-5.4800

> <Gold.Chemscore.Hbond>
1.9816

> <Gold.Chemscore.Metal>
0.0000

> <Gold.Chemscore.Lipo>
115.8862

> <Gold.Chemscore.Internal_Hbond>
0.0000

> <Gold.Chemscore.DEClash>
0.0653

> <Gold.Chemscore.DEInternal>
2.4016

> <Gold.Chemscore.Rot>
1.9156

> <Gold.Chemscore.Internal.Correction>
   9.000000E+99

> <Gold.Chemscore.Hbonds>
donor molecule, donor type, donor heavy atom, donor atom, acceptor molecule, acceptor atom, score
      P1  H  6896  6909       L1    12  0.24
      P1  H  6931  6943       L1    17  0.33
      P1  H  6934  6947       L1    17  0.18

> <Gold.Chemscore.Hbond.Weighted>
-6.6186

> <Gold.Chemscore.Metal.Weighted>
-0.0000

> <Gold.Chemscore.Lipo.Weighted>
-13.5587

> <Gold.Chemscore.Internal_Hbond.Weighted>
0.0000

> <Gold.Chemscore.DEClash.Weighted>
0.0653

> <Gold.Chemscore.DEInternal.Weighted>
2.4016

> <Gold.Chemscore.Rot.Weighted>
4.9041

> <Gold.Chemscore.Internal.Correction.Weighted>
   9.000000E+99

> <Gold.Protein.RotatedTorsions>
[ 6907 6896 6895 6894 ] final   35.12 input  -60.11 | X-H torsion
[ 7974 7965 7964 7962 ] final  -81.30 input  175.53 | X-H torsion
[ 8008 7997 7996 7995 ] final -150.10 input   59.86 | X-H torsion
[ 10167 10162 10161 10158 ] final   83.71 input  -65.29 | X-H torsion
[ 10718 10713 10712 10709 ] final   71.26 input   66.30 | X-H torsion
[ 10763 10752 10751 10750 ] final -132.62 input  -60.55 | X-H torsion
[ 11005 11000 10999 10996 ] final  -79.82 input  -57.11 | X-H torsion

> <Gold.Protein.ActiveResidues>
 VAL166  LYS551  ARG553  GLY616  TRP617  ASP618  TYR619  PRO620  LYS621  CYS622 
 ASP623  PHE694  ASN695  SER759  ASP760  ASP761  ALA762  ILE779  LEU786  VAL792 
 PHE793  MET794  SER795  GLU796  ALA797  LYS798  CYS799  TRP800  GLU811  SER814 

> <Gold.Protein.RotatedAtoms>
  152.1118  134.9269  160.0566 H   0  0  0  0  0  0  0  0  0  0  0  0  # atno 6907 bound_to 6896
  152.0443  133.3986  159.4358 H   0  0  0  0  0  0  0  0  0  0  0  0  # atno 6908 bound_to 6896
  150.6844  134.3300  159.4866 H   0  0  0  0  0  0  0  0  0  0  0  0  # atno 6909 bound_to 6896
  145.5485  140.9500  143.1512 H   0  0  0  0  0  0  0  0  0  0  0  0  # atno 7974 bound_to 7965
  155.6182  140.0678  157.2686 H   0  0  0  0  0  0  0  0  0  0  0  0  # atno 8008 bound_to 7997
  154.4236  140.1789  156.1392 H   0  0  0  0  0  0  0  0  0  0  0  0  # atno 8009 bound_to 7997
  156.0031  140.3334  155.6868 H   0  0  0  0  0  0  0  0  0  0  0  0  # atno 8010 bound_to 7997
  139.9156  144.6245  150.8492 H   0  0  0  0  0  0  0  0  0  0  0  0  # atno 10167 bound_to 10162
  157.6443  130.9519  150.0765 H   0  0  0  0  0  0  0  0  0  0  0  0  # atno 10718 bound_to 10713
  154.8741  135.3792  154.4439 H   0  0  0  0  0  0  0  0  0  0  0  0  # atno 10763 bound_to 10752
  153.5121  135.7029  153.5780 H   0  0  0  0  0  0  0  0  0  0  0  0  # atno 10764 bound_to 10752
  153.4065  135.3935  155.1988 H   0  0  0  0  0  0  0  0  0  0  0  0  # atno 10765 bound_to 10752
  141.1667  133.7122  156.8179 H   0  0  0  0  0  0  0  0  0  0  0  0  # atno 11005 bound_to 11000
  144.7541  139.7119  143.7261 LP  0  0  0  0  0  0  0  0  0  0  0  0  # atno 17320 bound_to 7965
  146.1933  139.5185  142.9791 LP  0  0  0  0  0  0  0  0  0  0  0  0  # atno 17321 bound_to 7965
  140.7675  143.3334  151.2362 LP  0  0  0  0  0  0  0  0  0  0  0  0  # atno 17342 bound_to 10162
  139.6905  143.9700  152.2857 LP  0  0  0  0  0  0  0  0  0  0  0  0  # atno 17343 bound_to 10162
  156.1754  130.3648  149.9108 LP  0  0  0  0  0  0  0  0  0  0  0  0  # atno 17370 bound_to 10713
  156.7073  130.8956  151.3606 LP  0  0  0  0  0  0  0  0  0  0  0  0  # atno 17371 bound_to 10713
  140.2140  134.8806  157.3305 LP  0  0  0  0  0  0  0  0  0  0  0  0  # atno 17394 bound_to 11000
  140.2057  134.4200  155.7639 LP  0  0  0  0  0  0  0  0  0  0  0  0  # atno 17395 bound_to 11000

$$$$
