AV-unprocessed.smi:1228|AV-procd|sdf|5149|dock4
  -GOLD-   22720 4223D 1   1.00000     0.00000
 Structure written by MMmdl.
 43 45  0  0  0  0  0  0  0  0  1 V2000
  143.1335  143.7823  162.2011 C   0  0  0  0  0  0  0  0  0  0  0  0
  144.1127  144.3827  161.2361 C   0  0  0  0  0  0  0  0  0  0  0  0
  145.5189  144.1622  161.1613 C   0  0  0  0  0  0  0  0  0  0  0  0
  145.8925  144.9540  160.1098 C   0  0  0  0  0  0  0  0  0  0  0  0
  147.1292  145.1412  159.5768 N   0  0  0  0  0  0  0  0  0  0  0  0
  148.2902  144.5564  159.9203 C   0  0  0  0  0  0  0  0  0  0  0  0
  148.4331  143.7210  160.8134 O   0  0  0  0  0  0  0  0  0  0  0  0
  149.2992  145.0023  159.1581 N   0  0  0  0  0  0  0  0  0  0  0  0
  150.6901  144.5720  159.2665 C   0  0  0  0  0  0  0  0  0  0  0  0
  150.9026  143.2157  158.5708 C   0  0  0  0  0  0  0  0  0  0  0  0
  152.3252  142.6837  158.8178 C   0  0  0  0  0  0  0  0  0  0  0  0
  152.5752  142.5519  160.2536 N   0  0  0  0  0  0  0  0  0  0  0  0
  153.9090  142.0077  160.4493 C   0  0  0  0  0  0  0  0  0  0  0  0
  154.1033  140.5290  160.2034 C   0  0  0  0  0  0  0  0  0  0  0  0
  154.1175  141.0668  161.6139 C   0  0  0  0  0  0  0  0  0  0  0  0
  152.5016  143.8655  160.8934 C   0  0  0  0  0  0  0  0  0  0  0  0
  151.0845  144.4473  160.7465 C   0  0  0  0  0  0  0  0  0  0  0  0
  144.7762  145.5894  159.6129 N   0  0  0  0  0  0  0  0  0  0  0  0
  144.6615  146.5205  158.5073 C   0  0  0  0  0  0  0  0  0  0  0  0
  143.6774  145.2323  160.3123 N   0  0  0  0  0  0  0  0  0  0  0  0
  143.6252  143.0826  162.8771 H   0  0  0  0  0  0  0  0  0  0  0  0
  142.3473  143.2387  161.6766 H   0  0  0  0  0  0  0  0  0  0  0  0
  142.6589  144.5526  162.8092 H   0  0  0  0  0  0  0  0  0  0  0  0
  146.1293  143.5252  161.7835 H   0  0  0  0  0  0  0  0  0  0  0  0
  147.1750  145.8109  158.8231 H   0  0  0  0  0  0  0  0  0  0  0  0
  149.0921  145.6902  158.4489 H   0  0  0  0  0  0  0  0  0  0  0  0
  151.3379  145.3178  158.8012 H   0  0  0  0  0  0  0  0  0  0  0  0
  150.1761  142.4890  158.9377 H   0  0  0  0  0  0  0  0  0  0  0  0
  150.7298  143.3112  157.4983 H   0  0  0  0  0  0  0  0  0  0  0  0
  152.4360  141.7104  158.3382 H   0  0  0  0  0  0  0  0  0  0  0  0
  153.0628  143.3493  158.3662 H   0  0  0  0  0  0  0  0  0  0  0  0
  154.7650  142.6338  160.2020 H   0  0  0  0  0  0  0  0  0  0  0  0
  153.2374  139.9440  159.8989 H   0  0  0  0  0  0  0  0  0  0  0  0
  155.0524  140.2132  159.7753 H   0  0  0  0  0  0  0  0  0  0  0  0
  155.0765  141.1084  162.1264 H   0  0  0  0  0  0  0  0  0  0  0  0
  153.2611  140.8383  162.2458 H   0  0  0  0  0  0  0  0  0  0  0  0
  152.7469  143.7696  161.9518 H   0  0  0  0  0  0  0  0  0  0  0  0
  153.2370  144.5416  160.4543 H   0  0  0  0  0  0  0  0  0  0  0  0
  151.0352  145.4236  161.2299 H   0  0  0  0  0  0  0  0  0  0  0  0
  150.3748  143.8054  161.2711 H   0  0  0  0  0  0  0  0  0  0  0  0
  145.3765  147.3338  158.6360 H   0  0  0  0  0  0  0  0  0  0  0  0
  143.6556  146.9403  158.4615 H   0  0  0  0  0  0  0  0  0  0  0  0
  144.8731  146.0036  157.5710 H   0  0  0  0  0  0  0  0  0  0  0  0
  1  2  1  0  0  0  0
  1 21  1  0  0  0  0
  1 22  1  0  0  0  0
  1 23  1  0  0  0  0
  2 20  2  0  0  0  0
  2  3  1  0  0  0  0
  3  4  2  0  0  0  0
  3 24  1  0  0  0  0
  4  5  1  0  0  0  0
  4 18  1  0  0  0  0
  5  6  1  0  0  0  0
  5 25  1  0  0  0  0
  6  7  2  0  0  0  0
  6  8  1  0  0  0  0
  8  9  1  0  0  0  0
  8 26  1  0  0  0  0
  9 17  1  0  0  0  0
  9 10  1  0  0  0  0
  9 27  1  0  0  0  0
 10 11  1  0  0  0  0
 10 28  1  0  0  0  0
 10 29  1  0  0  0  0
 11 12  1  0  0  0  0
 11 30  1  0  0  0  0
 11 31  1  0  0  0  0
 12 13  1  0  0  0  0
 12 16  1  0  0  0  0
 13 15  1  0  0  0  0
 13 14  1  0  0  0  0
 13 32  1  0  0  0  0
 14 15  1  0  0  0  0
 14 33  1  0  0  0  0
 14 34  1  0  0  0  0
 15 35  1  0  0  0  0
 15 36  1  0  0  0  0
 16 17  1  0  0  0  0
 16 37  1  0  0  0  0
 16 38  1  0  0  0  0
 17 39  1  0  0  0  0
 17 40  1  0  0  0  0
 18 19  1  0  0  0  0
 18 20  1  0  0  0  0
 19 41  1  0  0  0  0
 19 42  1  0  0  0  0
 19 43  1  0  0  0  0
M  END
> <s_m_source_file>
AV-unprocessed.smi

> <i_m_source_file_index>
1228

> <i_lp_mmshare_version>
43012

> <i_f3d_flags>
0

> <s_epik_input>
W0NIM11jMVtjSF1jKG4objEpW0NIM10pW05IXUMoPU8pW05IXVtDSF0yW0NIMl1bQ0gyXU4oW0NIMl1bQ0gyXTIpW0NIXTNbQ0gyXVtDSDJdMw==

> <s_epik_cmdline>
J2VwaWtfcHl0aG9uJywgJy1waCcsICc3LjAnLCAnLXRuJywgJzgnLCAnLW1hJywgJzIwMCcsICctbWV0YWxfYmluZGluZycsICctaW1hZScsICc8aW5maWxlLm1hZT4nLCAnLW9tYWUnLCAnPG91dGZpbGUubWFlPic=

> <r_lp_tautomer_probability>
1

> <r_epik_Ionization_Penalty>
1.01084

> <r_epik_Ionization_Penalty_Charging>
0

> <r_epik_Ionization_Penalty_Neutral>
1.01084

> <r_epik_State_Penalty>
1.06014

> <r_epik_Charging_Adjusted_Penalty>
1.06014

> <i_epik_Tot_Q>
0

> <i_epik_Tot_abs_Q>
0

> <r_epik_Metal_State_Penalty>
1.06013

> <b_epik_Metal_Only>
0

> <s_lp_Force_Field>
OPLS_2005

> <r_lp_Energy>
22.8061

> <b_lp_Chiralities_Consistent>
1

> <s_lp_Variant>
AV-unprocessed.smi:1228-3

> <Gold.Version>
5.8.1

> <Gold.Id.Protein>
6NUR|6NUR_protein|mol2

> <Gold.PLP.Fitness>
44.3457

> <Gold.PLP.PLP>
-37.5140

> <Gold.PLP.part.hbond>
-2.6141

> <Gold.PLP.part.metal>
0.0000

> <Gold.PLP.part.buried>
-4.9975

> <Gold.PLP.part.nonpolar>
-30.6811

> <Gold.PLP.part.repulsive>
0.5607

> <Gold.PLP.ligand.clash>
0.0037

> <Gold.PLP.ligand.torsion>
0.8722

> <Gold.PLP.Chemscore.Hbond>
2.4707

> <Gold.PLP.Chemscore.CHOScore>
0.0000

> <Gold.PLP.Chemscore.Metal>
0.0000

> <Gold.Chemscore.Hbonds>
donor molecule, donor type, donor heavy atom, donor atom, acceptor molecule, acceptor atom, score
      L1  H     5    25       P1  8029  0.80
      L1  H     8    26       P1  8029  0.77
      P1  H  6933  6944       L1     7  0.89

> <Gold.PLP.Chemscore.Internal.Correction>
1.1678

> <Gold.Rescore>
     Score         DG    S(hbond)    S(metal)    S(lipo)     H(rot)  DE(clash)    DE(int)     intcor
     19.72     -23.38       2.57        0.00     105.86       1.19       0.15       3.51       ----

> <Gold.Chemscore.Fitness>
19.7156

> <Gold.Chemscore.DG>
-23.3813

> <Gold.Chemscore.ZeroCoef>
-5.4800

> <Gold.Chemscore.Hbond>
2.5673

> <Gold.Chemscore.Metal>
0.0000

> <Gold.Chemscore.Lipo>
105.8561

> <Gold.Chemscore.Internal_Hbond>
0.0000

> <Gold.Chemscore.DEClash>
0.1509

> <Gold.Chemscore.DEInternal>
3.5148

> <Gold.Chemscore.Rot>
1.1948

> <Gold.Chemscore.Internal.Correction>
   9.000000E+99

> <Gold.Chemscore.Hbonds>
donor molecule, donor type, donor heavy atom, donor atom, acceptor molecule, acceptor atom, score
      L1  H     5    25       P1  8029  0.80
      L1  H     8    26       P1  8029  0.76
      P1  H  6933  6944       L1     7  0.82

> <Gold.Chemscore.Hbond.Weighted>
-8.5748

> <Gold.Chemscore.Metal.Weighted>
-0.0000

> <Gold.Chemscore.Lipo.Weighted>
-12.3852

> <Gold.Chemscore.Internal_Hbond.Weighted>
0.0000

> <Gold.Chemscore.DEClash.Weighted>
0.1509

> <Gold.Chemscore.DEInternal.Weighted>
3.5148

> <Gold.Chemscore.Rot.Weighted>
3.0587

> <Gold.Chemscore.Internal.Correction.Weighted>
   9.000000E+99

> <Gold.Protein.RotatedTorsions>
[ 6907 6896 6895 6894 ] final -159.97 input  -60.11 | X-H torsion
[ 7974 7965 7964 7962 ] final -147.27 input  175.53 | X-H torsion
[ 8008 7997 7996 7995 ] final   37.45 input   59.86 | X-H torsion
[ 10167 10162 10161 10158 ] final -126.55 input  -65.29 | X-H torsion
[ 10718 10713 10712 10709 ] final -144.29 input   66.30 | X-H torsion
[ 10763 10752 10751 10750 ] final  -42.55 input  -60.55 | X-H torsion
[ 11005 11000 10999 10996 ] final  -10.58 input  -57.11 | X-H torsion

> <Gold.Protein.ActiveResidues>
 VAL166  LYS551  ARG553  GLY616  TRP617  ASP618  TYR619  PRO620  LYS621  CYS622 
 ASP623  PHE694  ASN695  SER759  ASP760  ASP761  ALA762  ILE779  LEU786  VAL792 
 PHE793  MET794  SER795  GLU796  ALA797  LYS798  CYS799  TRP800  GLU811  SER814 

> <Gold.Protein.RotatedAtoms>
  151.3419  133.3959  159.2671 H   0  0  0  0  0  0  0  0  0  0  0  0  # atno 6907 bound_to 6896
  150.9871  134.9215  159.7888 H   0  0  0  0  0  0  0  0  0  0  0  0  # atno 6908 bound_to 6896
  152.5236  134.3383  159.9260 H   0  0  0  0  0  0  0  0  0  0  0  0  # atno 6909 bound_to 6896
  144.8104  140.5348  143.5646 H   0  0  0  0  0  0  0  0  0  0  0  0  # atno 7974 bound_to 7965
  155.2040  140.3318  155.4339 H   0  0  0  0  0  0  0  0  0  0  0  0  # atno 8008 bound_to 7997
  156.2396  140.1889  156.7075 H   0  0  0  0  0  0  0  0  0  0  0  0  # atno 8009 bound_to 7997
  154.6122  140.0607  156.9494 H   0  0  0  0  0  0  0  0  0  0  0  0  # atno 8010 bound_to 7997
  139.9702  143.5853  152.2415 H   0  0  0  0  0  0  0  0  0  0  0  0  # atno 10167 bound_to 10162
  156.3683  130.7775  151.1952 H   0  0  0  0  0  0  0  0  0  0  0  0  # atno 10718 bound_to 10713
  153.9810  135.6717  153.4750 H   0  0  0  0  0  0  0  0  0  0  0  0  # atno 10763 bound_to 10752
  153.0749  135.4954  154.8379 H   0  0  0  0  0  0  0  0  0  0  0  0  # atno 10764 bound_to 10752
  154.7165  135.3108  154.9077 H   0  0  0  0  0  0  0  0  0  0  0  0  # atno 10765 bound_to 10752
  140.7463  133.8629  155.9008 H   0  0  0  0  0  0  0  0  0  0  0  0  # atno 11005 bound_to 11000
  145.5337  139.1475  143.3485 LP  0  0  0  0  0  0  0  0  0  0  0  0  # atno 17320 bound_to 7965
  146.2402  140.5478  142.8937 LP  0  0  0  0  0  0  0  0  0  0  0  0  # atno 17321 bound_to 7965
  139.6487  144.7659  151.2192 LP  0  0  0  0  0  0  0  0  0  0  0  0  # atno 17342 bound_to 10162
  140.7524  143.6197  150.8525 LP  0  0  0  0  0  0  0  0  0  0  0  0  # atno 17343 bound_to 10162
  157.7481  131.0379  150.4480 LP  0  0  0  0  0  0  0  0  0  0  0  0  # atno 17370 bound_to 10713
  156.4703  130.4051  149.6522 LP  0  0  0  0  0  0  0  0  0  0  0  0  # atno 17371 bound_to 10713
  140.9792  134.1429  157.4510 LP  0  0  0  0  0  0  0  0  0  0  0  0  # atno 17394 bound_to 11000
  139.8796  135.0004  156.6012 LP  0  0  0  0  0  0  0  0  0  0  0  0  # atno 17395 bound_to 11000

$$$$
