AV-unprocessed.smi:1600|AV-procd|sdf|6429|dock7
  -GOLD-   22720 7 73D 1   1.00000     0.00000
 Structure written by MMmdl.
 46 47  0  0  0  0  0  0  0  0  2 V2000
  150.7233  142.2105  156.3533 C   0  0  0  0  0  0  0  0  0  0  0  0
  150.4349  140.9675  155.5641 C   0  0  0  0  0  0  0  0  0  0  0  0
  149.1927  140.5547  155.0003 C   0  0  0  0  0  0  0  0  0  0  0  0
  149.5136  139.3669  154.4018 C   0  0  0  0  0  0  0  0  0  0  0  0
  148.7123  138.5155  153.7074 N   0  0  0  0  0  0  0  0  0  0  0  0
  147.3719  138.4137  153.7350 C   0  0  0  0  0  0  0  0  0  0  0  0
  146.6166  139.0962  154.4275 O   0  0  0  0  0  0  0  0  0  0  0  0
  146.9402  137.4586  152.8988 N   0  0  0  0  0  0  0  0  0  0  0  0
  145.5399  137.1136  152.6753 C   0  0  0  0  0  0  0  0  0  0  0  0
  145.3504  136.2100  151.4416 C   0  0  2  0  0  0  0  0  0  0  0  0
  143.9943  135.5108  151.3588 C   0  0  0  0  0  0  0  0  0  0  0  0
  144.2540  134.2547  150.5155 C   0  0  0  0  0  0  0  0  0  0  0  0
  145.7267  134.0906  150.4141 N   0  3  2  0  0  0  0  0  0  0  0  0
  146.2166  132.6856  150.4998 C   0  0  0  0  0  0  0  0  0  0  0  0
  145.7896  131.8558  149.2736 C   0  0  0  0  0  0  0  0  0  0  0  0
  145.7132  132.0001  151.7845 C   0  0  0  0  0  0  0  0  0  0  0  0
  146.3256  135.0369  151.3803 C   0  0  0  0  0  0  0  0  0  0  0  0
  150.8511  139.1113  154.6090 N   0  0  0  0  0  0  0  0  0  0  0  0
  151.6527  137.9832  154.1762 C   0  0  0  0  0  0  0  0  0  0  0  0
  151.4167  140.1040  155.3291 N   0  0  0  0  0  0  0  0  0  0  0  0
  149.8355  142.8372  156.4399 H   0  0  0  0  0  0  0  0  0  0  0  0
  151.5038  142.8054  155.8783 H   0  0  0  0  0  0  0  0  0  0  0  0
  151.0561  141.9662  157.3625 H   0  0  0  0  0  0  0  0  0  0  0  0
  148.2400  141.0605  155.0416 H   0  0  0  0  0  0  0  0  0  0  0  0
  149.1942  137.8910  153.0777 H   0  0  0  0  0  0  0  0  0  0  0  0
  147.6274  136.9451  152.3663 H   0  0  0  0  0  0  0  0  0  0  0  0
  145.1342  136.6281  153.5645 H   0  0  0  0  0  0  0  0  0  0  0  0
  144.9805  138.0412  152.5510 H   0  0  0  0  0  0  0  0  0  0  0  0
  145.4852  136.8029  150.5351 H   0  0  0  0  0  0  0  0  0  0  0  0
  143.6628  135.2168  152.3559 H   0  0  0  0  0  0  0  0  0  0  0  0
  143.2219  136.1498  150.9293 H   0  0  0  0  0  0  0  0  0  0  0  0
  143.7789  133.3925  150.9859 H   0  0  0  0  0  0  0  0  0  0  0  0
  143.8379  134.3575  149.5129 H   0  0  0  0  0  0  0  0  0  0  0  0
  147.3073  132.7081  150.5275 H   0  0  0  0  0  0  0  0  0  0  0  0
  146.1130  130.8191  149.3730 H   0  0  0  0  0  0  0  0  0  0  0  0
  146.2287  132.2333  148.3499 H   0  0  0  0  0  0  0  0  0  0  0  0
  144.7055  131.8525  149.1538 H   0  0  0  0  0  0  0  0  0  0  0  0
  146.0581  130.9669  151.8361 H   0  0  0  0  0  0  0  0  0  0  0  0
  144.6234  131.9853  151.8242 H   0  0  0  0  0  0  0  0  0  0  0  0
  146.0718  132.4979  152.6853 H   0  0  0  0  0  0  0  0  0  0  0  0
  147.3234  135.3525  151.0735 H   0  0  0  0  0  0  0  0  0  0  0  0
  146.4035  134.5613  152.3598 H   0  0  0  0  0  0  0  0  0  0  0  0
  151.4823  137.7957  153.1157 H   0  0  0  0  0  0  0  0  0  0  0  0
  151.3737  137.0966  154.7464 H   0  0  0  0  0  0  0  0  0  0  0  0
  152.7138  138.1854  154.3298 H   0  0  0  0  0  0  0  0  0  0  0  0
  145.9816  134.4369  149.5000 H   0  0  0  0  0  0  0  0  0  0  0  0
  1  2  1  0  0  0  0
  1 21  1  0  0  0  0
  1 22  1  0  0  0  0
  1 23  1  0  0  0  0
  2 20  2  0  0  0  0
  2  3  1  0  0  0  0
  3  4  2  0  0  0  0
  3 24  1  0  0  0  0
  4  5  1  0  0  0  0
  4 18  1  0  0  0  0
  5  6  1  0  0  0  0
  5 25  1  0  0  0  0
  6  7  2  0  0  0  0
  6  8  1  0  0  0  0
  8  9  1  0  0  0  0
  8 26  1  0  0  0  0
  9 10  1  0  0  0  0
  9 27  1  0  0  0  0
  9 28  1  0  0  0  0
 10 17  1  0  0  0  0
 10 11  1  0  0  0  0
 10 29  1  0  0  0  0
 11 12  1  0  0  0  0
 11 30  1  0  0  0  0
 11 31  1  0  0  0  0
 12 13  1  0  0  0  0
 12 32  1  0  0  0  0
 12 33  1  0  0  0  0
 13 14  1  0  0  0  0
 13 17  1  0  0  0  0
 13 46  1  0  0  0  0
 14 15  1  0  0  0  0
 14 16  1  0  0  0  0
 14 34  1  0  0  0  0
 15 35  1  0  0  0  0
 15 36  1  0  0  0  0
 15 37  1  0  0  0  0
 16 38  1  0  0  0  0
 16 39  1  0  0  0  0
 16 40  1  0  0  0  0
 17 41  1  0  0  0  0
 17 42  1  0  0  0  0
 18 19  1  0  0  0  0
 18 20  1  0  0  0  0
 19 43  1  0  0  0  0
 19 44  1  0  0  0  0
 19 45  1  0  0  0  0
M  CHG  1  13   1
M  END
> <s_m_source_file>
AV-unprocessed.smi

> <i_m_source_file_index>
1600

> <i_lp_mmshare_version>
43012

> <i_f3d_flags>
0

> <s_epik_input>
W0NIM11jMVtjSF1jKG4objEpW0NIM10pW05IXUMoPU8pW05IXVtDSDJdW0NAQEhdMltDSDJdW0NIMl1OKFtDSDJdMilbQ0hdKFtDSDNdKVtDSDNd

> <s_epik_cmdline>
J2VwaWtfcHl0aG9uJywgJy1waCcsICc3LjAnLCAnLXRuJywgJzgnLCAnLW1hJywgJzIwMCcsICctbWV0YWxfYmluZGluZycsICctaW1hZScsICc8aW5maWxlLm1hZT4nLCAnLW9tYWUnLCAnPG91dGZpbGUubWFlPic=

> <r_lp_tautomer_probability>
1

> <r_epik_Ionization_Penalty>
0.000297652

> <r_epik_Ionization_Penalty_Charging>
0.000213653

> <r_epik_Ionization_Penalty_Neutral>
8.3999e-05

> <r_epik_State_Penalty>
-0

> <r_epik_Charging_Adjusted_Penalty>
0.000213653

> <i_epik_Tot_Q>
1

> <i_epik_Tot_abs_Q>
1

> <r_epik_Metal_State_Penalty>
-0

> <b_epik_Metal_Only>
0

> <s_lp_Force_Field>
OPLS_2005

> <r_lp_Energy>
32.0246

> <b_lp_Chiralities_Consistent>
1

> <s_lp_Variant>
AV-unprocessed.smi:1600-3

> <Gold.Version>
5.8.1

> <Gold.Id.Protein>
6NUR|6NUR_protein|mol2

> <Gold.PLP.Fitness>
46.4647

> <Gold.PLP.PLP>
-38.2639

> <Gold.PLP.part.hbond>
-4.7589

> <Gold.PLP.part.metal>
0.0000

> <Gold.PLP.part.buried>
-3.3062

> <Gold.PLP.part.nonpolar>
-32.4514

> <Gold.PLP.part.repulsive>
0.2863

> <Gold.PLP.ligand.clash>
0.0000

> <Gold.PLP.ligand.torsion>
0.3563

> <Gold.PLP.Chemscore.Hbond>
2.9620

> <Gold.PLP.Chemscore.CHOScore>
0.0000

> <Gold.PLP.Chemscore.Metal>
0.0000

> <Gold.Chemscore.Hbonds>
donor molecule, donor type, donor heavy atom, donor atom, acceptor molecule, acceptor atom, score
      L1  H     5    25       P1  7948  0.89
      L1  H     8    26       P1  7948  1.00
      L1  H    13    46       P1  7921  1.00
      P1  H  7989  7998       L1    20  0.03

> <Gold.PLP.Chemscore.Internal.Correction>
0.0274

> <Gold.Rescore>
     Score         DG    S(hbond)    S(metal)    S(lipo)     H(rot)  DE(clash)    DE(int)     intcor
     20.15     -21.58       2.85        0.00      87.76       1.44       0.29       1.14       ----

> <Gold.Chemscore.Fitness>
20.1534

> <Gold.Chemscore.DG>
-21.5847

> <Gold.Chemscore.ZeroCoef>
-5.4800

> <Gold.Chemscore.Hbond>
2.8490

> <Gold.Chemscore.Metal>
0.0000

> <Gold.Chemscore.Lipo>
87.7579

> <Gold.Chemscore.Internal_Hbond>
0.0000

> <Gold.Chemscore.DEClash>
0.2871

> <Gold.Chemscore.DEInternal>
1.1442

> <Gold.Chemscore.Rot>
1.4369

> <Gold.Chemscore.Internal.Correction>
   9.000000E+99

> <Gold.Chemscore.Hbonds>
donor molecule, donor type, donor heavy atom, donor atom, acceptor molecule, acceptor atom, score
      L1  H     5    25       P1  7948  0.79
      L1  H     8    26       P1  7948  0.97
      L1  H    13    46       P1  7921  0.50

> <Gold.Chemscore.Hbond.Weighted>
-9.5155

> <Gold.Chemscore.Metal.Weighted>
-0.0000

> <Gold.Chemscore.Lipo.Weighted>
-10.2677

> <Gold.Chemscore.Internal_Hbond.Weighted>
0.0000

> <Gold.Chemscore.DEClash.Weighted>
0.2871

> <Gold.Chemscore.DEInternal.Weighted>
1.1442

> <Gold.Chemscore.Rot.Weighted>
3.6785

> <Gold.Chemscore.Internal.Correction.Weighted>
   9.000000E+99

> <Gold.Protein.RotatedTorsions>
[ 6907 6896 6895 6894 ] final  -83.67 input  -60.11 | X-H torsion
[ 7974 7965 7964 7962 ] final  -29.58 input  175.53 | X-H torsion
[ 8008 7997 7996 7995 ] final -151.42 input   59.86 | X-H torsion
[ 10167 10162 10161 10158 ] final  -91.28 input  -65.29 | X-H torsion
[ 10718 10713 10712 10709 ] final -110.54 input   66.30 | X-H torsion
[ 10763 10752 10751 10750 ] final  -64.82 input  -60.55 | X-H torsion
[ 11005 11000 10999 10996 ] final  138.13 input  -57.11 | X-H torsion

> <Gold.Protein.ActiveResidues>
 VAL166  LYS551  ARG553  GLY616  TRP617  ASP618  TYR619  PRO620  LYS621  CYS622 
 ASP623  PHE694  ASN695  SER759  ASP760  ASP761  ALA762  ILE779  LEU786  VAL792 
 PHE793  MET794  SER795  GLU796  ALA797  LYS798  CYS799  TRP800  GLU811  SER814 

> <Gold.Protein.RotatedAtoms>
  150.6883  134.3477  159.4895 H   0  0  0  0  0  0  0  0  0  0  0  0  # atno 6907 bound_to 6896
  152.1322  134.9123  160.0567 H   0  0  0  0  0  0  0  0  0  0  0  0  # atno 6908 bound_to 6896
  152.0289  133.3894  159.4326 H   0  0  0  0  0  0  0  0  0  0  0  0  # atno 6909 bound_to 6896
  146.1206  140.5431  142.8737 H   0  0  0  0  0  0  0  0  0  0  0  0  # atno 7974 bound_to 7965
  155.6391  140.0699  157.2624 H   0  0  0  0  0  0  0  0  0  0  0  0  # atno 8008 bound_to 7997
  154.4188  140.1753  156.1603 H   0  0  0  0  0  0  0  0  0  0  0  0  # atno 8009 bound_to 7997
  155.9870  140.3348  155.6720 H   0  0  0  0  0  0  0  0  0  0  0  0  # atno 8010 bound_to 7997
  140.3465  143.2914  151.9776 H   0  0  0  0  0  0  0  0  0  0  0  0  # atno 10167 bound_to 10162
  156.0597  130.5821  150.8251 H   0  0  0  0  0  0  0  0  0  0  0  0  # atno 10718 bound_to 10713
  154.3358  135.6167  153.5573 H   0  0  0  0  0  0  0  0  0  0  0  0  # atno 10763 bound_to 10752
  152.9808  135.5758  154.4909 H   0  0  0  0  0  0  0  0  0  0  0  0  # atno 10764 bound_to 10752
  154.4604  135.2855  155.1694 H   0  0  0  0  0  0  0  0  0  0  0  0  # atno 10765 bound_to 10752
  140.0162  134.9417  157.0381 H   0  0  0  0  0  0  0  0  0  0  0  0  # atno 11005 bound_to 11000
  144.7593  140.5384  143.6746 LP  0  0  0  0  0  0  0  0  0  0  0  0  # atno 17320 bound_to 7965
  145.5475  139.1476  143.3413 LP  0  0  0  0  0  0  0  0  0  0  0  0  # atno 17321 bound_to 7965
  139.4832  144.6113  151.7429 LP  0  0  0  0  0  0  0  0  0  0  0  0  # atno 17342 bound_to 10162
  140.5260  144.0805  150.6038 LP  0  0  0  0  0  0  0  0  0  0  0  0  # atno 17343 bound_to 10162
  157.5595  131.0945  150.9580 LP  0  0  0  0  0  0  0  0  0  0  0  0  # atno 17370 bound_to 10713
  156.9820  130.5531  149.5297 LP  0  0  0  0  0  0  0  0  0  0  0  0  # atno 17371 bound_to 10713
  140.4467  134.1625  155.7178 LP  0  0  0  0  0  0  0  0  0  0  0  0  # atno 17394 bound_to 11000
  141.1744  133.8543  157.1468 LP  0  0  0  0  0  0  0  0  0  0  0  0  # atno 17395 bound_to 11000

$$$$
