AV-unprocessed.smi:1340|AV-procd|sdf|5503|dock5
  -GOLD-   22720 5 83D 1   1.00000     0.00000
 Structure written by MMmdl.
 40 41  0  0  0  0  0  0  0  0  1 V2000
  151.8539  145.3186  159.9738 C   0  0  0  0  0  0  0  0  0  0  0  0
  151.8678  144.0223  159.1566 C   0  0  0  0  0  0  0  0  0  0  0  0
  153.0790  143.1284  159.4818 C   0  0  0  0  0  0  0  0  0  0  0  0
  152.8972  142.2712  160.7505 C   0  0  2  0  0  0  0  0  0  0  0  0
  152.6126  143.1349  161.9885 C   0  0  0  0  0  0  0  0  0  0  0  0
  154.0912  141.4617  160.9713 N   0  0  0  0  0  0  0  0  0  0  0  0
  154.5426  140.4816  160.1726 C   0  0  0  0  0  0  0  0  0  0  0  0
  153.9283  140.0645  159.1910 O   0  0  0  0  0  0  0  0  0  0  0  0
  155.9125  139.8980  160.5293 C   0  0  0  0  0  0  0  0  0  0  0  0
  155.9457  139.5285  161.9858 C   0  0  0  0  0  0  0  0  0  0  0  0
  156.2386  138.2968  162.5189 C   0  0  0  0  0  0  0  0  0  0  0  0
  156.2324  138.3208  164.2618 S   0  0  0  0  0  0  0  0  0  0  0  0
  155.8203  140.0368  164.2033 C   0  0  0  0  0  0  0  0  0  0  0  0
  155.6612  140.9115  165.3182 N   0  0  0  0  0  0  0  0  0  0  0  0
  155.9040  140.4620  166.6856 C   0  0  0  0  0  0  0  0  0  0  0  0
  155.5522  141.6769  167.5380 C   0  0  0  0  0  0  0  0  0  0  0  0
  155.1779  142.6504  166.5391 N   0  0  0  0  0  0  0  0  0  0  0  0
  155.2469  142.1935  165.2868 C   0  0  0  0  0  0  0  0  0  0  0  0
  154.9729  142.8647  164.2938 O   0  0  0  0  0  0  0  0  0  0  0  0
  155.6807  140.5001  162.9576 N   0  0  0  0  0  0  0  0  0  0  0  0
  150.9892  145.9304  159.7151 H   0  0  0  0  0  0  0  0  0  0  0  0
  152.7482  145.9130  159.7849 H   0  0  0  0  0  0  0  0  0  0  0  0
  151.8076  145.1104  161.0429 H   0  0  0  0  0  0  0  0  0  0  0  0
  150.9459  143.4697  159.3410 H   0  0  0  0  0  0  0  0  0  0  0  0
  151.8622  144.2806  158.0982 H   0  0  0  0  0  0  0  0  0  0  0  0
  153.2865  142.4783  158.6305 H   0  0  0  0  0  0  0  0  0  0  0  0
  153.9600  143.7601  159.6016 H   0  0  0  0  0  0  0  0  0  0  0  0
  152.0402  141.6142  160.5895 H   0  0  0  0  0  0  0  0  0  0  0  0
  151.7149  143.7371  161.8476 H   0  0  0  0  0  0  0  0  0  0  0  0
  153.4397  143.8139  162.1982 H   0  0  0  0  0  0  0  0  0  0  0  0
  152.4561  142.5162  162.8730 H   0  0  0  0  0  0  0  0  0  0  0  0
  154.6707  141.7234  161.7560 H   0  0  0  0  0  0  0  0  0  0  0  0
  156.1079  139.0274  159.9018 H   0  0  0  0  0  0  0  0  0  0  0  0
  156.6898  140.6276  160.2982 H   0  0  0  0  0  0  0  0  0  0  0  0
  156.4762  137.3837  161.9932 H   0  0  0  0  0  0  0  0  0  0  0  0
  155.2738  139.6063  166.9318 H   0  0  0  0  0  0  0  0  0  0  0  0
  156.9484  140.1738  166.8146 H   0  0  0  0  0  0  0  0  0  0  0  0
  154.7168  141.4774  168.2104 H   0  0  0  0  0  0  0  0  0  0  0  0
  156.4035  142.0302  168.1211 H   0  0  0  0  0  0  0  0  0  0  0  0
  154.8930  143.5891  166.7791 H   0  0  0  0  0  0  0  0  0  0  0  0
  1  2  1  0  0  0  0
  1 21  1  0  0  0  0
  1 22  1  0  0  0  0
  1 23  1  0  0  0  0
  2  3  1  0  0  0  0
  2 24  1  0  0  0  0
  2 25  1  0  0  0  0
  3  4  1  0  0  0  0
  3 26  1  0  0  0  0
  3 27  1  0  0  0  0
  4  5  1  0  0  0  0
  4  6  1  0  0  0  0
  4 28  1  0  0  0  0
  5 29  1  0  0  0  0
  5 30  1  0  0  0  0
  5 31  1  0  0  0  0
  6  7  1  0  0  0  0
  6 32  1  0  0  0  0
  7  8  2  0  0  0  0
  7  9  1  0  0  0  0
  9 10  1  0  0  0  0
  9 33  1  0  0  0  0
  9 34  1  0  0  0  0
 10 20  1  0  0  0  0
 10 11  2  0  0  0  0
 11 12  1  0  0  0  0
 11 35  1  0  0  0  0
 12 13  1  0  0  0  0
 13 14  1  0  0  0  0
 13 20  2  0  0  0  0
 14 18  1  0  0  0  0
 14 15  1  0  0  0  0
 15 16  1  0  0  0  0
 15 36  1  0  0  0  0
 15 37  1  0  0  0  0
 16 17  1  0  0  0  0
 16 38  1  0  0  0  0
 16 39  1  0  0  0  0
 17 18  1  0  0  0  0
 17 40  1  0  0  0  0
 18 19  2  0  0  0  0
M  END
> <s_m_source_file>
AV-unprocessed.smi

> <i_m_source_file_index>
1340

> <i_lp_mmshare_version>
43012

> <i_f3d_flags>
0

> <s_epik_input>
W0NIM11bQ0gyXVtDSDJdW0NASF0oW0NIM10pW05IXUMoPU8pW0NIMl1jMVtjSF1zYyhuMSlOMltDSDJdW0NIMl1bTkhdQzI9Tw==

> <s_epik_cmdline>
J2VwaWtfcHl0aG9uJywgJy1waCcsICc3LjAnLCAnLXRuJywgJzgnLCAnLW1hJywgJzIwMCcsICctbWV0YWxfYmluZGluZycsICctaW1hZScsICc8aW5maWxlLm1hZT4nLCAnLW9tYWUnLCAnPG91dGZpbGUubWFlPic=

> <r_lp_tautomer_probability>
1

> <r_epik_Ionization_Penalty>
0.00012151

> <r_epik_Ionization_Penalty_Charging>
0

> <r_epik_Ionization_Penalty_Neutral>
0.00012151

> <r_epik_State_Penalty>
-0

> <r_epik_Charging_Adjusted_Penalty>
0

> <i_epik_Tot_Q>
0

> <i_epik_Tot_abs_Q>
0

> <r_epik_Metal_State_Penalty>
-0

> <b_epik_Metal_Only>
0

> <s_lp_Force_Field>
OPLS_2005

> <r_lp_Energy>
29.8855

> <b_lp_Chiralities_Consistent>
1

> <s_lp_Variant>
AV-unprocessed.smi:1340-1

> <Gold.Version>
5.8.1

> <Gold.Id.Protein>
6NUR|6NUR_protein|mol2

> <Gold.PLP.Fitness>
47.0256

> <Gold.PLP.PLP>
-44.7391

> <Gold.PLP.part.hbond>
-3.3523

> <Gold.PLP.part.metal>
0.0000

> <Gold.PLP.part.buried>
-5.6171

> <Gold.PLP.part.nonpolar>
-35.1137

> <Gold.PLP.part.repulsive>
0.1072

> <Gold.PLP.ligand.clash>
0.0000

> <Gold.PLP.ligand.torsion>
0.2739

> <Gold.PLP.Chemscore.Hbond>
0.9357

> <Gold.PLP.Chemscore.CHOScore>
0.0000

> <Gold.PLP.Chemscore.Metal>
0.0000

> <Gold.Chemscore.Hbonds>
donor molecule, donor type, donor heavy atom, donor atom, acceptor molecule, acceptor atom, score
      P1  H  7997  8008       L1     8  0.68

> <Gold.PLP.Chemscore.Internal.Correction>
0.0270

> <Gold.Rescore>
     Score         DG    S(hbond)    S(metal)    S(lipo)     H(rot)  DE(clash)    DE(int)     intcor
      9.68     -14.04       0.89        0.00      89.85       1.92       1.15       3.21       ----

> <Gold.Chemscore.Fitness>
9.6826

> <Gold.Chemscore.DG>
-14.0408

> <Gold.Chemscore.ZeroCoef>
-5.4800

> <Gold.Chemscore.Hbond>
0.8856

> <Gold.Chemscore.Metal>
0.0000

> <Gold.Chemscore.Lipo>
89.8464

> <Gold.Chemscore.Internal_Hbond>
0.0000

> <Gold.Chemscore.DEClash>
1.1472

> <Gold.Chemscore.DEInternal>
3.2110

> <Gold.Chemscore.Rot>
1.9176

> <Gold.Chemscore.Internal.Correction>
   9.000000E+99

> <Gold.Chemscore.Hbonds>
donor molecule, donor type, donor heavy atom, donor atom, acceptor molecule, acceptor atom, score
      P1  H  7997  8008       L1     8  0.62

> <Gold.Chemscore.Hbond.Weighted>
-2.9579

> <Gold.Chemscore.Metal.Weighted>
-0.0000

> <Gold.Chemscore.Lipo.Weighted>
-10.5120

> <Gold.Chemscore.Internal_Hbond.Weighted>
0.0000

> <Gold.Chemscore.DEClash.Weighted>
1.1472

> <Gold.Chemscore.DEInternal.Weighted>
3.2110

> <Gold.Chemscore.Rot.Weighted>
4.9091

> <Gold.Chemscore.Internal.Correction.Weighted>
   9.000000E+99

> <Gold.Protein.RotatedTorsions>
[ 6907 6896 6895 6894 ] final   31.59 input  -60.11 | X-H torsion
[ 7974 7965 7964 7962 ] final  169.32 input  175.53 | X-H torsion
[ 8008 7997 7996 7995 ] final -110.22 input   59.86 | X-H torsion
[ 10167 10162 10161 10158 ] final  158.47 input  -65.29 | X-H torsion
[ 10718 10713 10712 10709 ] final  -63.08 input   66.30 | X-H torsion
[ 10763 10752 10751 10750 ] final  -44.97 input  -60.55 | X-H torsion
[ 11005 11000 10999 10996 ] final   67.37 input  -57.11 | X-H torsion

> <Gold.Protein.ActiveResidues>
 VAL166  LYS551  ARG553  GLY616  TRP617  ASP618  TYR619  PRO620  LYS621  CYS622 
 ASP623  PHE694  ASN695  SER759  ASP760  ASP761  ALA762  ILE779  LEU786  VAL792 
 PHE793  MET794  SER795  GLU796  ALA797  LYS798  CYS799  TRP800  GLU811  SER814 

> <Gold.Protein.RotatedAtoms>
  152.0624  134.9586  160.0574 H   0  0  0  0  0  0  0  0  0  0  0  0  # atno 6907 bound_to 6896
  152.0944  133.4212  159.4566 H   0  0  0  0  0  0  0  0  0  0  0  0  # atno 6908 bound_to 6896
  150.6837  134.2754  159.4648 H   0  0  0  0  0  0  0  0  0  0  0  0  # atno 6909 bound_to 6896
  144.7359  139.9037  143.6411 H   0  0  0  0  0  0  0  0  0  0  0  0  # atno 7974 bound_to 7965
  154.9712  140.0397  157.2235 H   0  0  0  0  0  0  0  0  0  0  0  0  # atno 8008 bound_to 7997
  154.7799  140.2817  155.6049 H   0  0  0  0  0  0  0  0  0  0  0  0  # atno 8009 bound_to 7997
  156.2934  140.2593  156.2622 H   0  0  0  0  0  0  0  0  0  0  0  0  # atno 8010 bound_to 7997
  139.4827  144.4821  151.8429 H   0  0  0  0  0  0  0  0  0  0  0  0  # atno 10167 bound_to 10162
  156.0813  130.4216  150.1227 H   0  0  0  0  0  0  0  0  0  0  0  0  # atno 10718 bound_to 10713
  154.0209  135.6669  153.4772 H   0  0  0  0  0  0  0  0  0  0  0  0  # atno 10763 bound_to 10752
  153.0581  135.5044  154.8024 H   0  0  0  0  0  0  0  0  0  0  0  0  # atno 10764 bound_to 10752
  154.6938  135.3066  154.9406 H   0  0  0  0  0  0  0  0  0  0  0  0  # atno 10765 bound_to 10752
  139.9775  134.6798  156.0326 H   0  0  0  0  0  0  0  0  0  0  0  0  # atno 11005 bound_to 11000
  146.1052  139.4051  143.0322 LP  0  0  0  0  0  0  0  0  0  0  0  0  # atno 17320 bound_to 7965
  145.7521  140.9968  143.1245 LP  0  0  0  0  0  0  0  0  0  0  0  0  # atno 17321 bound_to 7965
  140.4298  144.2131  150.5888 LP  0  0  0  0  0  0  0  0  0  0  0  0  # atno 17342 bound_to 10162
  140.4791  143.2385  151.8981 LP  0  0  0  0  0  0  0  0  0  0  0  0  # atno 17343 bound_to 10162
  156.9257  130.9697  151.3541 LP  0  0  0  0  0  0  0  0  0  0  0  0  # atno 17370 bound_to 10713
  157.5931  130.8458  149.8689 LP  0  0  0  0  0  0  0  0  0  0  0  0  # atno 17371 bound_to 10713
  141.1451  133.6557  156.3842 LP  0  0  0  0  0  0  0  0  0  0  0  0  # atno 17394 bound_to 11000
  140.5165  134.6345  157.5303 LP  0  0  0  0  0  0  0  0  0  0  0  0  # atno 17395 bound_to 11000

$$$$
