AV-unprocessed.smi:104|AV-procd|sdf|1004|dock4
  -GOLD-   2262017593D 1   1.00000     0.00000
 Structure written by MMmdl.
 47 49  0  0  0  0  0  0  0  0  1 V2000
  146.8255  134.9221  162.4670 C   0  0  0  0  0  0  0  0  0  0  0  0
  147.6310  135.9383  161.6685 C   0  0  0  0  0  0  0  0  0  0  0  0
  148.3815  136.7437  162.2201 O   0  0  0  0  0  0  0  0  0  0  0  0
  147.4142  135.8369  160.3501 O   0  0  0  0  0  0  0  0  0  0  0  0
  148.1227  136.6760  159.4536 C   0  0  0  0  0  0  0  0  0  0  0  0
  147.3867  136.6994  158.1108 C   0  0  1  0  0  0  0  0  0  0  0  0
  146.1224  137.3301  158.2540 O   0  0  0  0  0  0  0  0  0  0  0  0
  145.6560  137.7038  156.9982 C   0  0  2  0  0  0  0  0  0  0  0  0
  144.8103  136.6030  156.4124 N   0  0  0  0  0  0  0  0  0  0  0  0
  144.3698  135.3969  156.9334 C   0  0  0  0  0  0  0  0  0  0  0  0
  144.7576  134.7667  158.6911 Br  0  0  0  0  0  0  0  0  0  0  0  0
  143.6207  134.6584  156.1626 N   0  0  0  0  0  0  0  0  0  0  0  0
  143.4830  135.4345  155.0220 C   0  0  0  0  0  0  0  0  0  0  0  0
  142.7959  135.2680  153.7933 C   0  0  0  0  0  0  0  0  0  0  0  0
  142.0850  134.1717  153.4963 N   0  0  0  0  0  0  0  0  0  0  0  0
  142.8555  136.2636  152.8783 N   0  0  0  0  0  0  0  0  0  0  0  0
  143.5518  137.3707  153.1544 C   0  0  0  0  0  0  0  0  0  0  0  0
  144.2463  137.6668  154.2560 N   0  0  0  0  0  0  0  0  0  0  0  0
  144.1962  136.6576  155.1750 C   0  0  0  0  0  0  0  0  0  0  0  0
  146.9067  137.9348  156.1284 C   0  0  1  0  0  0  0  0  0  0  0  0
  146.9748  139.2988  155.7331 O   0  0  0  0  0  0  0  0  0  0  0  0
  147.9088  139.7101  154.8576 C   0  0  0  0  0  0  0  0  0  0  0  0
  147.8389  141.2080  154.5897 C   0  0  0  0  0  0  0  0  0  0  0  0
  148.7525  139.0015  154.3085 O   0  0  0  0  0  0  0  0  0  0  0  0
  148.0609  137.5726  157.0579 C   0  0  2  0  0  0  0  0  0  0  0  0
  149.0520  136.8249  156.3654 O   0  0  0  0  0  0  0  0  0  0  0  0
  148.7128  135.7256  155.6710 C   0  0  0  0  0  0  0  0  0  0  0  0
  149.9243  135.0065  155.0931 C   0  0  0  0  0  0  0  0  0  0  0  0
  147.5702  135.3038  155.4919 O   0  0  0  0  0  0  0  0  0  0  0  0
  145.7614  135.1492  162.4012 H   0  0  0  0  0  0  0  0  0  0  0  0
  147.1192  134.9397  163.5169 H   0  0  0  0  0  0  0  0  0  0  0  0
  146.9899  133.9168  162.0789 H   0  0  0  0  0  0  0  0  0  0  0  0
  148.2166  137.6858  159.8555 H   0  0  0  0  0  0  0  0  0  0  0  0
  149.1295  136.2778  159.3201 H   0  0  0  0  0  0  0  0  0  0  0  0
  147.2497  135.6871  157.7247 H   0  0  0  0  0  0  0  0  0  0  0  0
  144.9791  138.5566  157.0599 H   0  0  0  0  0  0  0  0  0  0  0  0
  142.0222  133.4168  154.1641 H   0  0  0  0  0  0  0  0  0  0  0  0
  141.6156  134.1013  152.6051 H   0  0  0  0  0  0  0  0  0  0  0  0
  143.5552  138.1261  152.3825 H   0  0  0  0  0  0  0  0  0  0  0  0
  146.8785  137.2512  155.2788 H   0  0  0  0  0  0  0  0  0  0  0  0
  148.6910  141.7111  155.0464 H   0  0  0  0  0  0  0  0  0  0  0  0
  146.9242  141.6359  155.0004 H   0  0  0  0  0  0  0  0  0  0  0  0
  147.8576  141.4000  153.5169 H   0  0  0  0  0  0  0  0  0  0  0  0
  148.4651  138.4662  157.5374 H   0  0  0  0  0  0  0  0  0  0  0  0
  150.2661  135.5111  154.1895 H   0  0  0  0  0  0  0  0  0  0  0  0
  149.6721  133.9766  154.8401 H   0  0  0  0  0  0  0  0  0  0  0  0
  150.7415  134.9932  155.8146 H   0  0  0  0  0  0  0  0  0  0  0  0
  1  2  1  0  0  0  0
  1 30  1  0  0  0  0
  1 31  1  0  0  0  0
  1 32  1  0  0  0  0
  2  3  2  0  0  0  0
  2  4  1  0  0  0  0
  4  5  1  0  0  0  0
  5  6  1  0  0  0  0
  5 33  1  0  0  0  0
  5 34  1  0  0  0  0
  6 25  1  0  0  0  0
  6  7  1  0  0  0  0
  6 35  1  0  0  0  0
  7  8  1  0  0  0  0
  8  9  1  0  0  0  0
  8 20  1  0  0  0  0
  8 36  1  0  0  0  0
  9 19  1  0  0  0  0
  9 10  1  0  0  0  0
 10 11  1  0  0  0  0
 10 12  2  0  0  0  0
 12 13  1  0  0  0  0
 13 19  2  0  0  0  0
 13 14  1  0  0  0  0
 14 15  1  0  0  0  0
 14 16  2  0  0  0  0
 15 37  1  0  0  0  0
 15 38  1  0  0  0  0
 16 17  1  0  0  0  0
 17 18  2  0  0  0  0
 17 39  1  0  0  0  0
 18 19  1  0  0  0  0
 20 21  1  0  0  0  0
 20 25  1  0  0  0  0
 20 40  1  0  0  0  0
 21 22  1  0  0  0  0
 22 23  1  0  0  0  0
 22 24  2  0  0  0  0
 23 41  1  0  0  0  0
 23 42  1  0  0  0  0
 23 43  1  0  0  0  0
 25 26  1  0  0  0  0
 25 44  1  0  0  0  0
 26 27  1  0  0  0  0
 27 28  1  0  0  0  0
 27 29  2  0  0  0  0
 28 45  1  0  0  0  0
 28 46  1  0  0  0  0
 28 47  1  0  0  0  0
M  END
> <s_m_source_file>
AV-unprocessed.smi

> <i_m_source_file_index>
104

> <i_lp_mmshare_version>
43012

> <i_f3d_flags>
0

> <s_epik_input>
W0NIM11DKD1PKU9bQ0gyXVtDQEBIXTFPW0NASF0oW0NAQEhdKE9DKD1PKVtDSDNdKVtDQEhdMU9DKD1PKVtDSDNdKW4oYyhCciluMiljKGMyMyluW2NIXW5jM1tOSDJd

> <s_epik_cmdline>
J2VwaWtfcHl0aG9uJywgJy1waCcsICc3LjAnLCAnLXRuJywgJzgnLCAnLW1hJywgJzIwMCcsICctbWV0YWxfYmluZGluZycsICctaW1hZScsICc8aW5maWxlLm1hZT4nLCAnLW9tYWUnLCAnPG91dGZpbGUubWFlPic=

> <r_lp_tautomer_probability>
1

> <r_epik_Ionization_Penalty>
7.36622e-05

> <r_epik_Ionization_Penalty_Charging>
0

> <r_epik_Ionization_Penalty_Neutral>
7.36622e-05

> <r_epik_State_Penalty>
-0

> <r_epik_Charging_Adjusted_Penalty>
0

> <i_epik_Tot_Q>
0

> <i_epik_Tot_abs_Q>
0

> <r_epik_Metal_State_Penalty>
-0

> <b_epik_Metal_Only>
0

> <s_epik_Chemistry_Notes>
This compound has an ester and may undergo hydrolysis at high or low pH. This compound contains an acetal/aminal-like group ( X-CH(R)-Y where X, Y are N, S, or O) that may be acid/base labile, releasing an aldehyde.

> <s_lp_Force_Field>
OPLS_2005

> <r_lp_Energy>
12.8289

> <b_lp_Chiralities_Consistent>
1

> <s_lp_Variant>
AV-unprocessed.smi:104-12

> <Gold.Version>
5.8.1

> <Gold.Id.Protein>
6NUR|6NUR_protein|mol2

> <Gold.PLP.Fitness>
35.4669

> <Gold.PLP.PLP>
-24.0705

> <Gold.PLP.part.hbond>
-2.0000

> <Gold.PLP.part.metal>
0.0000

> <Gold.PLP.part.buried>
-6.4816

> <Gold.PLP.part.nonpolar>
-16.6174

> <Gold.PLP.part.repulsive>
0.6952

> <Gold.PLP.ligand.clash>
0.0000

> <Gold.PLP.ligand.torsion>
0.2053

> <Gold.PLP.Chemscore.Hbond>
1.9920

> <Gold.PLP.Chemscore.CHOScore>
1.8883

> <Gold.PLP.Chemscore.Metal>
0.0000

> <Gold.Chemscore.Hbonds>
donor molecule, donor type, donor heavy atom, donor atom, acceptor molecule, acceptor atom, score
      L1  H    15    37       P1 10957  0.99
      P1  H  6931  6943       L1     3  1.00
      L1  C    17    39       P1 10171  0.79
      L1  C    17    39       P1 10175  1.00

> <Gold.PLP.Chemscore.Internal.Correction>
0.1661

> <Gold.Rescore>
     Score         DG    S(hbond)    S(metal)    S(lipo)     H(rot)  DE(clash)    DE(int)     intcor
      0.57      -4.62       2.00        0.00      29.92       4.31       0.00       4.05       ----

> <Gold.Chemscore.Fitness>
0.5713

> <Gold.Chemscore.DG>
-4.6226

> <Gold.Chemscore.ZeroCoef>
-5.4800

> <Gold.Chemscore.Hbond>
1.9964

> <Gold.Chemscore.Metal>
0.0000

> <Gold.Chemscore.Lipo>
29.9193

> <Gold.Chemscore.Internal_Hbond>
0.0000

> <Gold.Chemscore.DEClash>
0.0000

> <Gold.Chemscore.DEInternal>
4.0513

> <Gold.Chemscore.Rot>
4.3070

> <Gold.Chemscore.Internal.Correction>
   9.000000E+99

> <Gold.Chemscore.Hbonds>
donor molecule, donor type, donor heavy atom, donor atom, acceptor molecule, acceptor atom, score
      L1  H    15    37       P1 10957  0.94
      P1  H  6931  6943       L1     3  1.00

> <Gold.Chemscore.Hbond.Weighted>
-6.6679

> <Gold.Chemscore.Metal.Weighted>
-0.0000

> <Gold.Chemscore.Lipo.Weighted>
-3.5006

> <Gold.Chemscore.Internal_Hbond.Weighted>
0.0000

> <Gold.Chemscore.DEClash.Weighted>
0.0000

> <Gold.Chemscore.DEInternal.Weighted>
4.0513

> <Gold.Chemscore.Rot.Weighted>
11.0259

> <Gold.Chemscore.Internal.Correction.Weighted>
   9.000000E+99

> <Gold.Protein.RotatedTorsions>
[ 6907 6896 6895 6894 ] final -102.94 input  -60.11 | X-H torsion
[ 7974 7965 7964 7962 ] final  157.53 input  175.53 | X-H torsion
[ 8008 7997 7996 7995 ] final   -7.58 input   59.86 | X-H torsion
[ 10167 10162 10161 10158 ] final -134.89 input  -65.29 | X-H torsion
[ 10718 10713 10712 10709 ] final  115.01 input   66.30 | X-H torsion
[ 10763 10752 10751 10750 ] final   47.47 input  -60.55 | X-H torsion
[ 11005 11000 10999 10996 ] final   58.66 input  -57.11 | X-H torsion

> <Gold.Protein.ActiveResidues>
 VAL166  LYS551  ARG553  GLY616  TRP617  ASP618  TYR619  PRO620  LYS621  CYS622 
 ASP623  PHE694  ASN695  SER759  ASP760  ASP761  ALA762  ILE779  LEU786  VAL792 
 PHE793  MET794  SER795  GLU796  ALA797  LYS798  CYS799  TRP800  GLU811  SER814 

> <Gold.Protein.RotatedAtoms>
  150.7218  134.0505  159.3796 H   0  0  0  0  0  0  0  0  0  0  0  0  # atno 6907 bound_to 6896
  151.8481  135.0565  160.0465 H   0  0  0  0  0  0  0  0  0  0  0  0  # atno 6908 bound_to 6896
  152.2811  133.5435  159.5535 H   0  0  0  0  0  0  0  0  0  0  0  0  # atno 6909 bound_to 6896
  144.7898  139.7353  143.6226 H   0  0  0  0  0  0  0  0  0  0  0  0  # atno 7974 bound_to 7965
  154.5824  140.2403  155.8035 H   0  0  0  0  0  0  0  0  0  0  0  0  # atno 8008 bound_to 7997
  156.2189  140.3004  155.9860 H   0  0  0  0  0  0  0  0  0  0  0  0  # atno 8009 bound_to 7997
  155.2518  140.0411  157.2978 H   0  0  0  0  0  0  0  0  0  0  0  0  # atno 8010 bound_to 7997
  139.8834  143.6811  152.2623 H   0  0  0  0  0  0  0  0  0  0  0  0  # atno 10167 bound_to 10162
  157.6247  131.1006  150.7268 H   0  0  0  0  0  0  0  0  0  0  0  0  # atno 10718 bound_to 10713
  152.9800  135.5975  154.3768 H   0  0  0  0  0  0  0  0  0  0  0  0  # atno 10763 bound_to 10752
  154.3436  135.2767  155.2411 H   0  0  0  0  0  0  0  0  0  0  0  0  # atno 10764 bound_to 10752
  154.4482  135.5996  153.6229 H   0  0  0  0  0  0  0  0  0  0  0  0  # atno 10765 bound_to 10752
  140.0361  134.5942  155.9443 H   0  0  0  0  0  0  0  0  0  0  0  0  # atno 11005 bound_to 11000
  146.2145  139.5525  142.9659 LP  0  0  0  0  0  0  0  0  0  0  0  0  # atno 17320 bound_to 7965
  145.5824  141.0380  143.2114 LP  0  0  0  0  0  0  0  0  0  0  0  0  # atno 17321 bound_to 7965
  139.7175  144.7609  151.1010 LP  0  0  0  0  0  0  0  0  0  0  0  0  # atno 17342 bound_to 10162
  140.7740  143.5250  150.9490 LP  0  0  0  0  0  0  0  0  0  0  0  0  # atno 17343 bound_to 10162
  156.7619  130.4801  149.5435 LP  0  0  0  0  0  0  0  0  0  0  0  0  # atno 17370 bound_to 10713
  156.1413  130.6246  151.0470 LP  0  0  0  0  0  0  0  0  0  0  0  0  # atno 17371 bound_to 10713
  141.1858  133.6556  156.5212 LP  0  0  0  0  0  0  0  0  0  0  0  0  # atno 17394 bound_to 11000
  140.4146  134.7242  157.4855 LP  0  0  0  0  0  0  0  0  0  0  0  0  # atno 17395 bound_to 11000

$$$$
