AV-unprocessed.smi:1776|AV-procd|sdf|7175|dock10
  -GOLD-   22720 8413D 1   1.00000     0.00000
 Structure written by MMmdl.
 30 31  0  0  0  0  0  0  0  0  2 V2000
  154.2643  141.5318  162.6229 O   0  0  0  0  0  0  0  0  0  0  0  0
  154.3853  140.5153  161.9394 C   0  0  0  0  0  0  0  0  0  0  0  0
  153.8799  140.3461  160.7008 N   0  0  0  0  0  0  0  0  0  0  0  0
  153.1212  141.2171  159.8981 C   0  0  0  0  0  0  0  0  0  0  0  0
  152.6821  142.4517  160.2717 C   0  0  0  0  0  0  0  0  0  0  0  0
  151.8921  143.3001  159.3880 C   0  0  0  0  0  0  0  0  0  0  0  0
  151.4670  144.7156  159.7369 C   0  0  0  0  0  0  0  0  0  0  0  0
  150.1476  144.8645  159.6165 F   0  0  0  0  0  0  0  0  0  0  0  0
  151.8033  144.9928  160.9958 F   0  0  0  0  0  0  0  0  0  0  0  0
  152.0647  145.6035  158.9421 F   0  0  0  0  0  0  0  0  0  0  0  0
  151.6690  142.7123  158.1581 C   0  0  0  0  0  0  0  0  0  0  0  0
  152.0464  141.4926  157.7174 N   0  5  0  0  0  0  0  0  0  0  0  0
  152.7820  140.7064  158.5530 C   0  0  0  0  0  0  0  0  0  0  0  0
  153.1644  139.5866  158.2110 O   0  0  0  0  0  0  0  0  0  0  0  0
  155.1529  139.3067  162.4960 C   0  0  2  0  0  0  0  0  0  0  0  0
  154.3416  137.9905  162.4447 C   0  0  0  0  0  0  0  0  0  0  0  0
  155.1119  136.9400  163.0150 O   0  0  0  0  0  0  0  0  0  0  0  0
  155.4465  137.2188  164.3673 C   0  0  0  0  0  0  0  0  0  0  0  0
  156.2641  138.5192  164.4208 C   0  0  0  0  0  0  0  0  0  0  0  0
  155.4956  139.5716  163.8544 O   0  0  0  0  0  0  0  0  0  0  0  0
  154.0870  139.4607  160.2612 H   0  0  0  0  0  0  0  0  0  0  0  0
  152.8949  142.8493  161.2490 H   0  0  0  0  0  0  0  0  0  0  0  0
  151.1056  143.3150  157.4143 H   0  0  0  0  0  0  0  0  0  0  0  0
  156.0664  139.1978  161.9085 H   0  0  0  0  0  0  0  0  0  0  0  0
  153.3935  138.0876  162.9770 H   0  0  0  0  0  0  0  0  0  0  0  0
  154.1066  137.7222  161.4142 H   0  0  0  0  0  0  0  0  0  0  0  0
  154.5420  137.3025  164.9717 H   0  0  0  0  0  0  0  0  0  0  0  0
  156.0269  136.3886  164.7697 H   0  0  0  0  0  0  0  0  0  0  0  0
  156.5078  138.7723  165.4526 H   0  0  0  0  0  0  0  0  0  0  0  0
  157.2078  138.4095  163.8840 H   0  0  0  0  0  0  0  0  0  0  0  0
  1  2  2  0  0  0  0
  2  3  1  0  0  0  0
  2 15  1  0  0  0  0
  3  4  1  0  0  0  0
  3 21  1  0  0  0  0
  4 13  1  0  0  0  0
  4  5  2  0  0  0  0
  5  6  1  0  0  0  0
  5 22  1  0  0  0  0
  6  7  1  0  0  0  0
  6 11  2  0  0  0  0
  7  8  1  0  0  0  0
  7  9  1  0  0  0  0
  7 10  1  0  0  0  0
 11 12  1  0  0  0  0
 11 23  1  0  0  0  0
 12 13  1  0  0  0  0
 13 14  2  0  0  0  0
 15 20  1  0  0  0  0
 15 16  1  0  0  0  0
 15 24  1  0  0  0  0
 16 17  1  0  0  0  0
 16 25  1  0  0  0  0
 16 26  1  0  0  0  0
 17 18  1  0  0  0  0
 18 19  1  0  0  0  0
 18 27  1  0  0  0  0
 18 28  1  0  0  0  0
 19 20  1  0  0  0  0
 19 29  1  0  0  0  0
 19 30  1  0  0  0  0
M  CHG  1  12  -1
M  END
> <s_m_source_file>
AV-unprocessed.smi

> <i_m_source_file_index>
1776

> <i_lp_mmshare_version>
43012

> <i_f3d_flags>
0

> <s_epik_input>
TzFbQ0gyXVtDSDJdT1tDSDJdW0NASF0xQyg9TylbTkhdYzJbY0hdYyhDKEYpKEYpRilbY0hdW25IXWMyPU8=

> <s_epik_cmdline>
J2VwaWtfcHl0aG9uJywgJy1waCcsICc3LjAnLCAnLXRuJywgJzgnLCAnLW1hJywgJzIwMCcsICctbWV0YWxfYmluZGluZycsICctaW1hZScsICc8aW5maWxlLm1hZT4nLCAnLW9tYWUnLCAnPG91dGZpbGUubWFlPic=

> <r_epik_Ionization_Penalty>
2.46925

> <r_epik_Ionization_Penalty_Charging>
0.0509887

> <r_epik_Ionization_Penalty_Neutral>
2.41826

> <r_epik_State_Penalty>
2.57741

> <r_epik_Charging_Adjusted_Penalty>
2.6284

> <i_epik_Tot_Q>
-1

> <i_epik_Tot_abs_Q>
1

> <r_epik_Metal_State_Penalty>
0.510263

> <b_epik_Metal_Only>
0

> <s_lp_Force_Field>
OPLS_2005

> <r_lp_Energy>
25.1464

> <b_lp_Chiralities_Consistent>
1

> <s_lp_Variant>
AV-unprocessed.smi:1776-3

> <Gold.Version>
5.8.1

> <Gold.Id.Protein>
6NUR|6NUR_protein|mol2

> <Gold.PLP.Fitness>
40.6868

> <Gold.PLP.PLP>
-38.2231

> <Gold.PLP.part.hbond>
-2.0000

> <Gold.PLP.part.metal>
0.0000

> <Gold.PLP.part.buried>
-3.5432

> <Gold.PLP.part.nonpolar>
-31.7709

> <Gold.PLP.part.repulsive>
0.0489

> <Gold.PLP.ligand.clash>
0.0000

> <Gold.PLP.ligand.torsion>
0.1429

> <Gold.PLP.Chemscore.Hbond>
0.9000

> <Gold.PLP.Chemscore.CHOScore>
0.0000

> <Gold.PLP.Chemscore.Metal>
0.0000

> <Gold.Chemscore.Hbonds>
donor molecule, donor type, donor heavy atom, donor atom, acceptor molecule, acceptor atom, score
      P1  H  7997  8009       L1    14  1.00

> <Gold.PLP.Chemscore.Internal.Correction>
0.0496

> <Gold.Rescore>
     Score         DG    S(hbond)    S(metal)    S(lipo)     H(rot)  DE(clash)    DE(int)     intcor
     12.49     -14.42       0.88        0.00      73.05       1.00       0.80       1.13       ----

> <Gold.Chemscore.Fitness>
12.4930

> <Gold.Chemscore.DG>
-14.4196

> <Gold.Chemscore.ZeroCoef>
-5.4800

> <Gold.Chemscore.Hbond>
0.8839

> <Gold.Chemscore.Metal>
0.0000

> <Gold.Chemscore.Lipo>
73.0548

> <Gold.Chemscore.Internal_Hbond>
0.0000

> <Gold.Chemscore.DEClash>
0.7959

> <Gold.Chemscore.DEInternal>
1.1307

> <Gold.Chemscore.Rot>
1.0000

> <Gold.Chemscore.Internal.Correction>
   9.000000E+99

> <Gold.Chemscore.Hbonds>
donor molecule, donor type, donor heavy atom, donor atom, acceptor molecule, acceptor atom, score
      P1  H  7997  8009       L1    14  0.30

> <Gold.Chemscore.Hbond.Weighted>
-2.9522

> <Gold.Chemscore.Metal.Weighted>
-0.0000

> <Gold.Chemscore.Lipo.Weighted>
-8.5474

> <Gold.Chemscore.Internal_Hbond.Weighted>
0.0000

> <Gold.Chemscore.DEClash.Weighted>
0.7959

> <Gold.Chemscore.DEInternal.Weighted>
1.1307

> <Gold.Chemscore.Rot.Weighted>
2.5600

> <Gold.Chemscore.Internal.Correction.Weighted>
   9.000000E+99

> <Gold.Protein.RotatedTorsions>
[ 6907 6896 6895 6894 ] final -150.33 input  -60.11 | X-H torsion
[ 7974 7965 7964 7962 ] final   51.31 input  175.53 | X-H torsion
[ 8008 7997 7996 7995 ] final  149.54 input   59.86 | X-H torsion
[ 10167 10162 10161 10158 ] final  110.66 input  -65.29 | X-H torsion
[ 10718 10713 10712 10709 ] final -145.37 input   66.30 | X-H torsion
[ 10763 10752 10751 10750 ] final   20.82 input  -60.55 | X-H torsion
[ 11005 11000 10999 10996 ] final   12.18 input  -57.11 | X-H torsion

> <Gold.Protein.ActiveResidues>
 VAL166  LYS551  ARG553  GLY616  TRP617  ASP618  TYR619  PRO620  LYS621  CYS622 
 ASP623  PHE694  ASN695  SER759  ASP760  ASP761  ALA762  ILE779  LEU786  VAL792 
 PHE793  MET794  SER795  GLU796  ALA797  LYS798  CYS799  TRP800  GLU811  SER814 

> <Gold.Protein.RotatedAtoms>
  151.1971  133.4633  159.2595 H   0  0  0  0  0  0  0  0  0  0  0  0  # atno 6907 bound_to 6896
  151.1106  135.0024  159.8502 H   0  0  0  0  0  0  0  0  0  0  0  0  # atno 6908 bound_to 6896
  152.5450  134.1890  159.8719 H   0  0  0  0  0  0  0  0  0  0  0  0  # atno 6909 bound_to 6896
  145.9926  139.4354  143.0064 H   0  0  0  0  0  0  0  0  0  0  0  0  # atno 7974 bound_to 7965
  156.2751  140.2099  156.5874 H   0  0  0  0  0  0  0  0  0  0  0  0  # atno 8008 bound_to 7997
  154.7009  140.0521  157.0481 H   0  0  0  0  0  0  0  0  0  0  0  0  # atno 8009 bound_to 7997
  155.0736  140.3179  155.4626 H   0  0  0  0  0  0  0  0  0  0  0  0  # atno 8010 bound_to 7997
  139.6671  144.7127  151.1756 H   0  0  0  0  0  0  0  0  0  0  0  0  # atno 10167 bound_to 10162
  156.3816  130.7840  151.2033 H   0  0  0  0  0  0  0  0  0  0  0  0  # atno 10718 bound_to 10713
  153.1046  135.6681  153.9610 H   0  0  0  0  0  0  0  0  0  0  0  0  # atno 10763 bound_to 10752
  153.9171  135.3018  155.3449 H   0  0  0  0  0  0  0  0  0  0  0  0  # atno 10764 bound_to 10752
  154.7467  135.5054  153.9292 H   0  0  0  0  0  0  0  0  0  0  0  0  # atno 10765 bound_to 10752
  140.4949  134.0804  155.7780 H   0  0  0  0  0  0  0  0  0  0  0  0  # atno 11005 bound_to 11000
  145.7608  140.9936  143.1201 LP  0  0  0  0  0  0  0  0  0  0  0  0  # atno 17320 bound_to 7965
  144.6893  139.9327  143.7472 LP  0  0  0  0  0  0  0  0  0  0  0  0  # atno 17321 bound_to 7965
  140.7604  143.5902  150.8804 LP  0  0  0  0  0  0  0  0  0  0  0  0  # atno 17342 bound_to 10162
  139.9564  143.6213  152.3015 LP  0  0  0  0  0  0  0  0  0  0  0  0  # atno 17343 bound_to 10162
  157.7493  131.0342  150.4307 LP  0  0  0  0  0  0  0  0  0  0  0  0  # atno 17370 bound_to 10713
  156.4552  130.4020  149.6610 LP  0  0  0  0  0  0  0  0  0  0  0  0  # atno 17371 bound_to 10713
  141.1465  133.9045  157.2202 LP  0  0  0  0  0  0  0  0  0  0  0  0  # atno 17394 bound_to 11000
  139.9747  135.0117  156.9602 LP  0  0  0  0  0  0  0  0  0  0  0  0  # atno 17395 bound_to 11000

$$$$
