AV-unprocessed.smi:2559|AV-procd|sdf|10034|dock3
  -GOLD-   2272014 73D 1   1.00000     0.00000
 Structure written by MMmdl.
 44 46  0  0  0  0  0  0  0  0  1 V2000
  153.9380  137.3396  157.6823 C   0  0  0  0  0  0  0  0  0  0  0  0
  152.5735  137.6920  157.2841 N   0  0  0  0  0  0  0  0  0  0  0  0
  151.7483  136.7366  156.7494 C   0  0  0  0  0  0  0  0  0  0  0  0
  152.1118  135.5728  156.5798 O   0  0  0  0  0  0  0  0  0  0  0  0
  150.4810  137.1150  156.4022 N   0  0  0  0  0  0  0  0  0  0  0  0
  149.9266  138.3460  156.5189 C   0  0  0  0  0  0  0  0  0  0  0  0
  148.7674  138.5934  156.1956 O   0  0  0  0  0  0  0  0  0  0  0  0
  150.8511  139.3466  157.0742 C   0  0  0  0  0  0  0  0  0  0  0  0
  152.1175  139.0311  157.4491 C   0  0  0  0  0  0  0  0  0  0  0  0
  152.7683  140.1376  157.9709 N   0  0  0  0  0  0  0  0  0  0  0  0
  151.8536  141.1051  157.8674 C   0  0  0  0  0  0  0  0  0  0  0  0
  152.0811  142.4151  158.2929 N   0  0  0  0  0  0  0  0  0  0  0  0
  151.5735  143.6285  157.6507 C   0  0  0  0  0  0  0  0  0  0  0  0
  150.9175  144.5784  158.6680 C   0  0  0  0  0  0  0  0  0  0  0  0
  151.9178  144.9569  159.7685 C   0  0  0  0  0  0  0  0  0  0  0  0
  152.5390  143.6895  160.3718 C   0  0  0  0  0  0  0  0  0  0  0  0
  153.1082  142.7805  159.2676 C   0  0  0  0  0  0  0  0  0  0  0  0
  150.6585  140.7031  157.3530 N   0  0  0  0  0  0  0  0  0  0  0  0
  149.4339  141.4859  157.1840 C   0  0  0  0  0  0  0  0  0  0  0  0
  149.1964  141.8902  155.7138 C   0  0  2  0  0  0  0  0  0  0  0  0
  147.8716  142.3421  155.5107 O   0  0  0  0  0  0  0  0  0  0  0  0
  149.5220  140.7779  154.6995 C   0  0  0  0  0  0  0  0  0  0  0  0
  149.2176  141.1688  153.3758 O   0  0  0  0  0  0  0  0  0  0  0  0
  149.8891  136.3931  156.0176 H   0  0  0  0  0  0  0  0  0  0  0  0
  153.9300  136.5166  158.3988 H   0  0  0  0  0  0  0  0  0  0  0  0
  154.4665  138.1697  158.1505 H   0  0  0  0  0  0  0  0  0  0  0  0
  154.5194  137.0287  156.8132 H   0  0  0  0  0  0  0  0  0  0  0  0
  152.4051  144.1362  157.1599 H   0  0  0  0  0  0  0  0  0  0  0  0
  150.8771  143.3752  156.8523 H   0  0  0  0  0  0  0  0  0  0  0  0
  150.5587  145.4764  158.1647 H   0  0  0  0  0  0  0  0  0  0  0  0
  150.0439  144.1019  159.1128 H   0  0  0  0  0  0  0  0  0  0  0  0
  152.7049  145.5828  159.3461 H   0  0  0  0  0  0  0  0  0  0  0  0
  151.4282  145.5482  160.5429 H   0  0  0  0  0  0  0  0  0  0  0  0
  153.3251  143.9585  161.0780 H   0  0  0  0  0  0  0  0  0  0  0  0
  151.7840  143.1452  160.9405 H   0  0  0  0  0  0  0  0  0  0  0  0
  153.5203  141.8774  159.7189 H   0  0  0  0  0  0  0  0  0  0  0  0
  153.9336  143.2758  158.7546 H   0  0  0  0  0  0  0  0  0  0  0  0
  148.5848  140.9183  157.5527 H   0  0  0  0  0  0  0  0  0  0  0  0
  149.4691  142.3632  157.8257 H   0  0  0  0  0  0  0  0  0  0  0  0
  149.8415  142.7380  155.4829 H   0  0  0  0  0  0  0  0  0  0  0  0
  147.8765  143.2866  155.4898 H   0  0  0  0  0  0  0  0  0  0  0  0
  150.5731  140.4939  154.7613 H   0  0  0  0  0  0  0  0  0  0  0  0
  148.9402  139.8848  154.9287 H   0  0  0  0  0  0  0  0  0  0  0  0
  149.3427  140.4250  152.8064 H   0  0  0  0  0  0  0  0  0  0  0  0
  1  2  1  0  0  0  0
  1 25  1  0  0  0  0
  1 26  1  0  0  0  0
  1 27  1  0  0  0  0
  2  9  1  0  0  0  0
  2  3  1  0  0  0  0
  3  4  2  0  0  0  0
  3  5  1  0  0  0  0
  5 24  1  0  0  0  0
  5  6  1  0  0  0  0
  6  7  2  0  0  0  0
  6  8  1  0  0  0  0
  8 18  1  0  0  0  0
  8  9  2  0  0  0  0
  9 10  1  0  0  0  0
 10 11  2  0  0  0  0
 11 12  1  0  0  0  0
 11 18  1  0  0  0  0
 12 17  1  0  0  0  0
 12 13  1  0  0  0  0
 13 14  1  0  0  0  0
 13 28  1  0  0  0  0
 13 29  1  0  0  0  0
 14 15  1  0  0  0  0
 14 30  1  0  0  0  0
 14 31  1  0  0  0  0
 15 16  1  0  0  0  0
 15 32  1  0  0  0  0
 15 33  1  0  0  0  0
 16 17  1  0  0  0  0
 16 34  1  0  0  0  0
 16 35  1  0  0  0  0
 17 36  1  0  0  0  0
 17 37  1  0  0  0  0
 18 19  1  0  0  0  0
 19 20  1  0  0  0  0
 19 38  1  0  0  0  0
 19 39  1  0  0  0  0
 20 21  1  0  0  0  0
 20 22  1  0  0  0  0
 20 40  1  0  0  0  0
 21 41  1  0  0  0  0
 22 23  1  0  0  0  0
 22 42  1  0  0  0  0
 22 43  1  0  0  0  0
 23 44  1  0  0  0  0
M  END
> <s_m_source_file>
AV-unprocessed.smi

> <i_m_source_file_index>
2559

> <i_lp_mmshare_version>
43012

> <i_f3d_flags>
0

> <s_epik_input>
Tz1jMVtuSF1jKD1PKW4oW0NIM10pYyhjMTIpbmMobjJbQ0gyXVtDQEhdKFtPSF0pW0NIMl1bT0hdKU4zW0NIMl1bQ0gyXVtDSDJdW0NIMl1bQ0gyXTM=

> <s_epik_cmdline>
J2VwaWtfcHl0aG9uJywgJy1waCcsICc3LjAnLCAnLXRuJywgJzgnLCAnLW1hJywgJzIwMCcsICctbWV0YWxfYmluZGluZycsICctaW1hZScsICc8aW5maWxlLm1hZT4nLCAnLW9tYWUnLCAnPG91dGZpbGUubWFlPic=

> <r_lp_tautomer_probability>
1

> <r_epik_Ionization_Penalty>
0.0023969

> <r_epik_Ionization_Penalty_Charging>
9.35512e-05

> <r_epik_Ionization_Penalty_Neutral>
0.00230335

> <r_epik_State_Penalty>
-0

> <r_epik_Charging_Adjusted_Penalty>
9.35512e-05

> <i_epik_Tot_Q>
0

> <i_epik_Tot_abs_Q>
0

> <r_epik_Metal_State_Penalty>
0.0757518

> <b_epik_Metal_Only>
0

> <s_lp_Force_Field>
OPLS_2005

> <r_lp_Energy>
44.2112

> <b_lp_Chiralities_Consistent>
1

> <s_lp_Variant>
AV-unprocessed.smi:2559-1

> <Gold.Version>
5.8.1

> <Gold.Id.Protein>
6NUR|6NUR_protein|mol2

> <Gold.PLP.Fitness>
52.1658

> <Gold.PLP.PLP>
-38.9882

> <Gold.PLP.part.hbond>
-5.7875

> <Gold.PLP.part.metal>
0.0000

> <Gold.PLP.part.buried>
-3.5062

> <Gold.PLP.part.nonpolar>
-29.2925

> <Gold.PLP.part.repulsive>
0.0499

> <Gold.PLP.ligand.clash>
0.0000

> <Gold.PLP.ligand.torsion>
0.7666

> <Gold.PLP.Chemscore.Hbond>
4.7280

> <Gold.PLP.Chemscore.CHOScore>
0.0000

> <Gold.PLP.Chemscore.Metal>
0.0000

> <Gold.Chemscore.Hbonds>
donor molecule, donor type, donor heavy atom, donor atom, acceptor molecule, acceptor atom, score
      L1  H    21    41       P1  8028  0.93
      L1  H    23    44       P1  7957  0.82
      P1  H  7997  8009       L1    10  0.99
      P1  H  8011  8017       L1    23  0.95
      P1  H 10752 10765       L1     4  1.00

> <Gold.PLP.Chemscore.Internal.Correction>
0.5268

> <Gold.Rescore>
     Score         DG    S(hbond)    S(metal)    S(lipo)     H(rot)  DE(clash)    DE(int)     intcor
     15.05     -18.93       3.26        0.00      86.90       2.97       0.97       2.91       ----

> <Gold.Chemscore.Fitness>
15.0453

> <Gold.Chemscore.DG>
-18.9266

> <Gold.Chemscore.ZeroCoef>
-5.4800

> <Gold.Chemscore.Hbond>
3.2571

> <Gold.Chemscore.Metal>
0.0000

> <Gold.Chemscore.Lipo>
86.8994

> <Gold.Chemscore.Internal_Hbond>
0.0000

> <Gold.Chemscore.DEClash>
0.9692

> <Gold.Chemscore.DEInternal>
2.9120

> <Gold.Chemscore.Rot>
2.9685

> <Gold.Chemscore.Internal.Correction>
   9.000000E+99

> <Gold.Chemscore.Hbonds>
donor molecule, donor type, donor heavy atom, donor atom, acceptor molecule, acceptor atom, score
      L1  H    21    41       P1  8028  0.45
      L1  H    23    44       P1  7957  0.80
      P1  H  7997  8009       L1    10  0.27
      P1  H  8011  8017       L1    23  0.21
      P1  H 10752 10765       L1     4  0.78

> <Gold.Chemscore.Hbond.Weighted>
-10.8787

> <Gold.Chemscore.Metal.Weighted>
-0.0000

> <Gold.Chemscore.Lipo.Weighted>
-10.1672

> <Gold.Chemscore.Internal_Hbond.Weighted>
0.0000

> <Gold.Chemscore.DEClash.Weighted>
0.9692

> <Gold.Chemscore.DEInternal.Weighted>
2.9120

> <Gold.Chemscore.Rot.Weighted>
7.5994

> <Gold.Chemscore.Internal.Correction.Weighted>
   9.000000E+99

> <Gold.Protein.RotatedTorsions>
[ 6907 6896 6895 6894 ] final   98.11 input  -60.11 | X-H torsion
[ 7974 7965 7964 7962 ] final  114.36 input  175.53 | X-H torsion
[ 8008 7997 7996 7995 ] final  160.14 input   59.86 | X-H torsion
[ 10167 10162 10161 10158 ] final  170.90 input  -65.29 | X-H torsion
[ 10718 10713 10712 10709 ] final   74.36 input   66.30 | X-H torsion
[ 10763 10752 10751 10750 ] final -144.09 input  -60.55 | X-H torsion
[ 11005 11000 10999 10996 ] final -127.96 input  -57.11 | X-H torsion

> <Gold.Protein.ActiveResidues>
 VAL166  LYS551  ARG553  GLY616  TRP617  ASP618  TYR619  PRO620  LYS621  CYS622 
 ASP623  PHE694  ASN695  SER759  ASP760  ASP761  ALA762  ILE779  LEU786  VAL792 
 PHE793  MET794  SER795  GLU796  ALA797  LYS798  CYS799  TRP800  GLU811  SER814 

> <Gold.Protein.RotatedAtoms>
  152.5414  134.0631  159.8160 H   0  0  0  0  0  0  0  0  0  0  0  0  # atno 6907 bound_to 6896
  151.0756  133.5423  159.2631 H   0  0  0  0  0  0  0  0  0  0  0  0  # atno 6908 bound_to 6896
  151.2270  135.0548  159.9026 H   0  0  0  0  0  0  0  0  0  0  0  0  # atno 6909 bound_to 6896
  145.2054  139.2932  143.4296 H   0  0  0  0  0  0  0  0  0  0  0  0  # atno 7974 bound_to 7965
  156.2192  140.1812  156.7517 H   0  0  0  0  0  0  0  0  0  0  0  0  # atno 8008 bound_to 7997
  154.5838  140.0662  156.9171 H   0  0  0  0  0  0  0  0  0  0  0  0  # atno 8009 bound_to 7997
  155.2455  140.3325  155.4290 H   0  0  0  0  0  0  0  0  0  0  0  0  # atno 8010 bound_to 7997
  139.5031  144.3545  151.9889 H   0  0  0  0  0  0  0  0  0  0  0  0  # atno 10167 bound_to 10162
  157.6588  130.9674  150.1199 H   0  0  0  0  0  0  0  0  0  0  0  0  # atno 10718 bound_to 10713
  154.8443  135.3450  154.6291 H   0  0  0  0  0  0  0  0  0  0  0  0  # atno 10763 bound_to 10752
  153.6900  135.6975  153.5097 H   0  0  0  0  0  0  0  0  0  0  0  0  # atno 10764 bound_to 10752
  153.2602  135.4325  155.0842 H   0  0  0  0  0  0  0  0  0  0  0  0  # atno 10765 bound_to 10752
  140.9556  134.1006  157.4019 H   0  0  0  0  0  0  0  0  0  0  0  0  # atno 11005 bound_to 11000
  146.3409  140.2312  142.8593 LP  0  0  0  0  0  0  0  0  0  0  0  0  # atno 17320 bound_to 7965
  144.9907  140.8544  143.5341 LP  0  0  0  0  0  0  0  0  0  0  0  0  # atno 17321 bound_to 7965
  140.2981  144.3677  150.6068 LP  0  0  0  0  0  0  0  0  0  0  0  0  # atno 17342 bound_to 10162
  140.5894  143.2168  151.7281 LP  0  0  0  0  0  0  0  0  0  0  0  0  # atno 17343 bound_to 10162
  156.2073  130.3664  149.8713 LP  0  0  0  0  0  0  0  0  0  0  0  0  # atno 17370 bound_to 10713
  156.6601  130.8778  151.3546 LP  0  0  0  0  0  0  0  0  0  0  0  0  # atno 17371 bound_to 10713
  139.8861  135.0078  156.6478 LP  0  0  0  0  0  0  0  0  0  0  0  0  # atno 17394 bound_to 11000
  140.7540  133.8873  155.8368 LP  0  0  0  0  0  0  0  0  0  0  0  0  # atno 17395 bound_to 11000

$$$$
