AV-unprocessed.smi:262|AV-procd|sdf|2000|dock2
  -GOLD-   2262021193D 1   1.00000     0.00000
 Structure written by MMmdl.
 60 64  0  0  0  0  0  0  0  0  2 V2000
  146.1633  136.0031  160.2294 O   0  0  0  0  0  0  0  0  0  0  0  0
  147.4610  135.5258  160.5413 C   0  0  0  0  0  0  0  0  0  0  0  0
  148.3096  135.5758  159.2465 C   0  0  0  0  0  0  0  0  0  0  0  0
  148.3629  136.8901  158.6235 N   0  0  0  0  0  0  0  0  0  0  0  0
  149.4529  137.7284  158.5666 C   0  0  0  0  0  0  0  0  0  0  0  0
  149.2513  138.8613  157.9511 N   0  0  0  0  0  0  0  0  0  0  0  0
  147.9258  138.7949  157.5380 C   0  0  0  0  0  0  0  0  0  0  0  0
  147.0633  139.6761  156.8245 C   0  0  0  0  0  0  0  0  0  0  0  0
  147.4689  140.8846  156.3510 N   0  0  0  0  0  0  0  0  0  0  0  0
  147.3410  142.0131  157.2687 C   0  0  0  0  0  0  0  0  0  0  0  0
  148.6245  142.1883  158.0993 C   0  0  0  0  0  0  0  0  0  0  0  0
  149.8204  142.3082  157.2256 N   0  3  0  0  0  0  0  0  0  0  0  0
  151.0596  142.5644  158.0030 C   0  0  0  0  0  0  0  0  0  0  0  0
  150.8816  143.6743  159.0570 C   0  0  1  0  0  0  0  0  0  0  0  0
  151.9581  143.7019  160.1253 C   0  0  0  0  0  0  0  0  0  0  0  0
  151.8336  145.1215  160.6715 C   0  0  0  0  0  0  0  0  0  0  0  0
  151.3456  145.9158  159.5938 O   0  0  0  0  0  0  0  0  0  0  0  0
  151.0120  145.0859  158.4861 C   0  0  0  0  0  0  0  0  0  0  0  0
  149.9387  141.1586  156.2885 C   0  0  0  0  0  0  0  0  0  0  0  0
  148.6416  140.9566  155.4799 C   0  0  0  0  0  0  0  0  0  0  0  0
  145.7829  139.2646  156.6234 N   0  0  0  0  0  0  0  0  0  0  0  0
  145.3752  138.0735  157.0711 C   0  0  0  0  0  0  0  0  0  0  0  0
  146.0706  137.1506  157.7374 N   0  0  0  0  0  0  0  0  0  0  0  0
  147.3524  137.5602  157.9562 C   0  0  0  0  0  0  0  0  0  0  0  0
  148.0695  136.4465  161.6182 C   0  0  0  0  0  0  0  0  0  0  0  0
  147.3605  136.2990  162.9763 C   0  0  0  0  0  0  0  0  0  0  0  0
  147.3831  134.9384  163.3904 O   0  0  0  0  0  0  0  0  0  0  0  0
  146.6719  134.0845  162.5027 C   0  0  0  0  0  0  0  0  0  0  0  0
  147.3320  134.0966  161.1123 C   0  0  0  0  0  0  0  0  0  0  0  0
  145.5313  135.3634  160.5202 H   0  0  0  0  0  0  0  0  0  0  0  0
  149.3325  135.2583  159.4542 H   0  0  0  0  0  0  0  0  0  0  0  0
  147.9177  134.8687  158.5143 H   0  0  0  0  0  0  0  0  0  0  0  0
  150.4073  137.4727  159.0042 H   0  0  0  0  0  0  0  0  0  0  0  0
  147.1538  142.9130  156.6818 H   0  0  0  0  0  0  0  0  0  0  0  0
  146.4883  141.9033  157.9372 H   0  0  0  0  0  0  0  0  0  0  0  0
  148.5297  143.0789  158.7214 H   0  0  0  0  0  0  0  0  0  0  0  0
  148.7524  141.3401  158.7739 H   0  0  0  0  0  0  0  0  0  0  0  0
  151.3627  141.6501  158.5155 H   0  0  0  0  0  0  0  0  0  0  0  0
  151.8735  142.8121  157.3199 H   0  0  0  0  0  0  0  0  0  0  0  0
  149.9058  143.5985  159.5376 H   0  0  0  0  0  0  0  0  0  0  0  0
  151.8210  142.9407  160.8939 H   0  0  0  0  0  0  0  0  0  0  0  0
  152.9440  143.5615  159.6790 H   0  0  0  0  0  0  0  0  0  0  0  0
  151.1068  145.1559  161.4838 H   0  0  0  0  0  0  0  0  0  0  0  0
  152.7822  145.5034  161.0497 H   0  0  0  0  0  0  0  0  0  0  0  0
  151.8247  145.1383  157.7600 H   0  0  0  0  0  0  0  0  0  0  0  0
  150.0995  145.4256  157.9955 H   0  0  0  0  0  0  0  0  0  0  0  0
  150.7644  141.3146  155.5957 H   0  0  0  0  0  0  0  0  0  0  0  0
  150.1731  140.2566  156.8554 H   0  0  0  0  0  0  0  0  0  0  0  0
  148.7155  140.0709  154.8475 H   0  0  0  0  0  0  0  0  0  0  0  0
  148.5028  141.7984  154.8007 H   0  0  0  0  0  0  0  0  0  0  0  0
  144.3444  137.8238  156.8662 H   0  0  0  0  0  0  0  0  0  0  0  0
  149.1230  136.1976  161.7526 H   0  0  0  0  0  0  0  0  0  0  0  0
  148.0411  137.4876  161.2934 H   0  0  0  0  0  0  0  0  0  0  0  0
  147.8688  136.9026  163.7283 H   0  0  0  0  0  0  0  0  0  0  0  0
  146.3321  136.6597  162.9259 H   0  0  0  0  0  0  0  0  0  0  0  0
  146.6803  133.0730  162.9086 H   0  0  0  0  0  0  0  0  0  0  0  0
  145.6266  134.3917  162.4441 H   0  0  0  0  0  0  0  0  0  0  0  0
  146.7685  133.4546  160.4343 H   0  0  0  0  0  0  0  0  0  0  0  0
  148.3254  133.6541  161.1982 H   0  0  0  0  0  0  0  0  0  0  0  0
  149.6641  143.1297  156.6593 H   0  0  0  0  0  0  0  0  0  0  0  0
  1  2  1  0  0  0  0
  1 30  1  0  0  0  0
  2 29  1  0  0  0  0
  2  3  1  0  0  0  0
  2 25  1  0  0  0  0
  3  4  1  0  0  0  0
  3 31  1  0  0  0  0
  3 32  1  0  0  0  0
  4 24  1  0  0  0  0
  4  5  1  0  0  0  0
  5  6  2  0  0  0  0
  5 33  1  0  0  0  0
  6  7  1  0  0  0  0
  7 24  2  0  0  0  0
  7  8  1  0  0  0  0
  8  9  1  0  0  0  0
  8 21  2  0  0  0  0
  9 20  1  0  0  0  0
  9 10  1  0  0  0  0
 10 11  1  0  0  0  0
 10 34  1  0  0  0  0
 10 35  1  0  0  0  0
 11 12  1  0  0  0  0
 11 36  1  0  0  0  0
 11 37  1  0  0  0  0
 12 13  1  0  0  0  0
 12 19  1  0  0  0  0
 12 60  1  0  0  0  0
 13 14  1  0  0  0  0
 13 38  1  0  0  0  0
 13 39  1  0  0  0  0
 14 18  1  0  0  0  0
 14 15  1  0  0  0  0
 14 40  1  0  0  0  0
 15 16  1  0  0  0  0
 15 41  1  0  0  0  0
 15 42  1  0  0  0  0
 16 17  1  0  0  0  0
 16 43  1  0  0  0  0
 16 44  1  0  0  0  0
 17 18  1  0  0  0  0
 18 45  1  0  0  0  0
 18 46  1  0  0  0  0
 19 20  1  0  0  0  0
 19 47  1  0  0  0  0
 19 48  1  0  0  0  0
 20 49  1  0  0  0  0
 20 50  1  0  0  0  0
 21 22  1  0  0  0  0
 22 23  2  0  0  0  0
 22 51  1  0  0  0  0
 23 24  1  0  0  0  0
 25 26  1  0  0  0  0
 25 52  1  0  0  0  0
 25 53  1  0  0  0  0
 26 27  1  0  0  0  0
 26 54  1  0  0  0  0
 26 55  1  0  0  0  0
 27 28  1  0  0  0  0
 28 29  1  0  0  0  0
 28 56  1  0  0  0  0
 28 57  1  0  0  0  0
 29 58  1  0  0  0  0
 29 59  1  0  0  0  0
M  CHG  1  12   1
M  END
> <s_m_source_file>
AV-unprocessed.smi

> <i_m_source_file_index>
262

> <i_lp_mmshare_version>
43012

> <i_f3d_flags>
0

> <s_epik_input>
W0NIMl0xW0NIMl1PW0NIMl1bQ0gyXUMxKFtPSF0pW0NIMl1uKFtjSF1uMiljKGMyMyluW2NIXW5jM040W0NIMl1bQ0gyXU4oW0NIMl1bQ0gyXTQpW0NIMl1bQ0BASF01W0NIMl1bQ0gyXU9bQ0gyXTU=

> <s_epik_cmdline>
J2VwaWtfcHl0aG9uJywgJy1waCcsICc3LjAnLCAnLXRuJywgJzgnLCAnLW1hJywgJzIwMCcsICctbWV0YWxfYmluZGluZycsICctaW1hZScsICc8aW5maWxlLm1hZT4nLCAnLW9tYWUnLCAnPG91dGZpbGUubWFlPic=

> <r_lp_tautomer_probability>
1

> <r_epik_Ionization_Penalty>
0.010889

> <r_epik_Ionization_Penalty_Charging>
0.0108222

> <r_epik_Ionization_Penalty_Neutral>
6.6801e-05

> <r_epik_State_Penalty>
0.00829663

> <r_epik_Charging_Adjusted_Penalty>
0.0191189

> <i_epik_Tot_Q>
1

> <i_epik_Tot_abs_Q>
1

> <r_epik_Metal_State_Penalty>
0.00842341

> <b_epik_Metal_Only>
0

> <s_lp_Force_Field>
OPLS_2005

> <r_lp_Energy>
55.9789

> <b_lp_Chiralities_Consistent>
1

> <s_lp_Variant>
AV-unprocessed.smi:262-2

> <Gold.Version>
5.8.1

> <Gold.Id.Protein>
6NUR|6NUR_protein|mol2

> <Gold.PLP.Fitness>
49.3026

> <Gold.PLP.PLP>
-44.2226

> <Gold.PLP.part.hbond>
-2.6645

> <Gold.PLP.part.metal>
0.0000

> <Gold.PLP.part.buried>
-7.2460

> <Gold.PLP.part.nonpolar>
-34.5508

> <Gold.PLP.part.repulsive>
0.2538

> <Gold.PLP.ligand.clash>
0.0000

> <Gold.PLP.ligand.torsion>
0.7455

> <Gold.PLP.Chemscore.Hbond>
1.9825

> <Gold.PLP.Chemscore.CHOScore>
0.0000

> <Gold.PLP.Chemscore.Metal>
0.0000

> <Gold.Chemscore.Hbonds>
donor molecule, donor type, donor heavy atom, donor atom, acceptor molecule, acceptor atom, score
      L1  H    12    60       P1  8028  1.98

> <Gold.PLP.Chemscore.Internal.Correction>
0.6237

> <Gold.Rescore>
     Score         DG    S(hbond)    S(metal)    S(lipo)     H(rot)  DE(clash)    DE(int)     intcor
     11.05     -15.44       0.98        0.00     112.40       2.53       0.09       4.30       ----

> <Gold.Chemscore.Fitness>
11.0531

> <Gold.Chemscore.DG>
-15.4406

> <Gold.Chemscore.ZeroCoef>
-5.4800

> <Gold.Chemscore.Hbond>
0.9831

> <Gold.Chemscore.Metal>
0.0000

> <Gold.Chemscore.Lipo>
112.4000

> <Gold.Chemscore.Internal_Hbond>
0.0000

> <Gold.Chemscore.DEClash>
0.0913

> <Gold.Chemscore.DEInternal>
4.2962

> <Gold.Chemscore.Rot>
2.5288

> <Gold.Chemscore.Internal.Correction>
   9.000000E+99

> <Gold.Chemscore.Hbonds>
donor molecule, donor type, donor heavy atom, donor atom, acceptor molecule, acceptor atom, score
      L1  H    12    60       P1  8028  0.93

> <Gold.Chemscore.Hbond.Weighted>
-3.2836

> <Gold.Chemscore.Metal.Weighted>
-0.0000

> <Gold.Chemscore.Lipo.Weighted>
-13.1508

> <Gold.Chemscore.Internal_Hbond.Weighted>
0.0000

> <Gold.Chemscore.DEClash.Weighted>
0.0913

> <Gold.Chemscore.DEInternal.Weighted>
4.2962

> <Gold.Chemscore.Rot.Weighted>
6.4738

> <Gold.Chemscore.Internal.Correction.Weighted>
   9.000000E+99

> <Gold.Protein.RotatedTorsions>
[ 6907 6896 6895 6894 ] final   -3.90 input  -60.11 | X-H torsion
[ 7974 7965 7964 7962 ] final  156.94 input  175.53 | X-H torsion
[ 8008 7997 7996 7995 ] final   29.47 input   59.86 | X-H torsion
[ 10167 10162 10161 10158 ] final -150.39 input  -65.29 | X-H torsion
[ 10718 10713 10712 10709 ] final    1.21 input   66.30 | X-H torsion
[ 10763 10752 10751 10750 ] final   88.87 input  -60.55 | X-H torsion
[ 11005 11000 10999 10996 ] final  162.37 input  -57.11 | X-H torsion

> <Gold.Protein.ActiveResidues>
 VAL166  LYS551  ARG553  GLY616  TRP617  ASP618  TYR619  PRO620  LYS621  CYS622 
 ASP623  PHE694  ASN695  SER759  ASP760  ASP761  ALA762  ILE779  LEU786  VAL792 
 PHE793  MET794  SER795  GLU796  ALA797  LYS798  CYS799  TRP800  GLU811  SER814 

> <Gold.Protein.RotatedAtoms>
  151.5064  135.1063  159.9842 H   0  0  0  0  0  0  0  0  0  0  0  0  # atno 6907 bound_to 6896
  152.4680  133.7962  159.6939 H   0  0  0  0  0  0  0  0  0  0  0  0  # atno 6908 bound_to 6896
  150.8674  133.7492  159.2998 H   0  0  0  0  0  0  0  0  0  0  0  0  # atno 6909 bound_to 6896
  144.7933  139.7273  143.6212 H   0  0  0  0  0  0  0  0  0  0  0  0  # atno 7974 bound_to 7965
  155.0750  140.3204  155.4619 H   0  0  0  0  0  0  0  0  0  0  0  0  # atno 8008 bound_to 7997
  156.2781  140.2105  156.5823 H   0  0  0  0  0  0  0  0  0  0  0  0  # atno 8009 bound_to 7997
  154.7024  140.0506  157.0458 H   0  0  0  0  0  0  0  0  0  0  0  0  # atno 8010 bound_to 7997
  139.7358  143.8737  152.2548 H   0  0  0  0  0  0  0  0  0  0  0  0  # atno 10167 bound_to 10162
  156.8447  130.5533  149.5674 H   0  0  0  0  0  0  0  0  0  0  0  0  # atno 10718 bound_to 10713
  153.1813  135.4491  155.0031 H   0  0  0  0  0  0  0  0  0  0  0  0  # atno 10763 bound_to 10752
  154.8032  135.3264  154.7501 H   0  0  0  0  0  0  0  0  0  0  0  0  # atno 10764 bound_to 10752
  153.7965  135.6966  153.4917 H   0  0  0  0  0  0  0  0  0  0  0  0  # atno 10765 bound_to 10752
  140.2250  134.8167  157.3259 H   0  0  0  0  0  0  0  0  0  0  0  0  # atno 11005 bound_to 11000
  146.2192  139.5605  142.9630 LP  0  0  0  0  0  0  0  0  0  0  0  0  # atno 17320 bound_to 7965
  145.5739  141.0391  143.2159 LP  0  0  0  0  0  0  0  0  0  0  0  0  # atno 17321 bound_to 7965
  139.8674  144.7086  150.9028 LP  0  0  0  0  0  0  0  0  0  0  0  0  # atno 17342 bound_to 10162
  140.7778  143.3767  151.1551 LP  0  0  0  0  0  0  0  0  0  0  0  0  # atno 17343 bound_to 10162
  156.0861  130.5859  150.9650 LP  0  0  0  0  0  0  0  0  0  0  0  0  # atno 17370 bound_to 10713
  157.6336  131.0918  150.8393 LP  0  0  0  0  0  0  0  0  0  0  0  0  # atno 17371 bound_to 10713
  140.1809  134.4490  155.7772 LP  0  0  0  0  0  0  0  0  0  0  0  0  # atno 17394 bound_to 11000
  141.2221  133.6983  156.7867 LP  0  0  0  0  0  0  0  0  0  0  0  0  # atno 17395 bound_to 11000

$$$$
