AV-unprocessed.smi:2784|AV-procd|sdf|10742|dock1
  -GOLD-   2272015173D 1   1.00000     0.00000
 Structure written by MMmdl.
 30 31  0  0  0  0  0  0  0  0  2 V2000
  151.1871  138.1292  154.4496 C   0  0  0  0  0  0  0  0  0  0  0  0
  150.9984  139.5339  154.5122 O   0  0  0  0  0  0  0  0  0  0  0  0
  149.6972  139.9195  154.9363 C   0  0  2  0  0  0  0  0  0  0  0  0
  148.6039  139.3215  154.0384 C   0  0  0  0  0  0  0  0  0  0  0  0
  147.4940  140.3661  154.0347 C   0  0  0  0  0  0  0  0  0  0  0  0
  148.2467  141.6946  154.0231 C   0  0  0  0  0  0  0  0  0  0  0  0
  149.5355  141.4525  154.8338 C   0  0  1  0  0  0  0  0  0  0  0  0
  149.4416  142.0505  156.1646 N   0  0  0  0  0  0  0  0  0  0  0  0
  150.2445  141.7866  157.2055 C   0  0  0  0  0  0  0  0  0  0  0  0
  151.1648  140.9750  157.0817 O   0  0  0  0  0  0  0  0  0  0  0  0
  149.9341  142.4827  158.3225 N   0  5  0  0  0  0  0  0  0  0  0  0
  150.7646  143.4402  158.7659 C   0  0  0  0  0  0  0  0  0  0  0  0
  151.6870  144.0824  158.0470 N   0  0  0  0  0  0  0  0  0  0  0  0
  152.2991  144.9684  158.9202 C   0  0  0  0  0  0  0  0  0  0  0  0
  151.7170  144.8162  160.1489 C   0  0  0  0  0  0  0  0  0  0  0  0
  150.7508  143.8520  160.0654 O   0  0  0  0  0  0  0  0  0  0  0  0
  152.2104  137.9140  154.1425 H   0  0  0  0  0  0  0  0  0  0  0  0
  150.5179  137.6651  153.7244 H   0  0  0  0  0  0  0  0  0  0  0  0
  151.0253  137.6651  155.4233 H   0  0  0  0  0  0  0  0  0  0  0  0
  149.5296  139.6002  155.9673 H   0  0  0  0  0  0  0  0  0  0  0  0
  148.9833  139.1991  153.0228 H   0  0  0  0  0  0  0  0  0  0  0  0
  148.2613  138.3464  154.3854 H   0  0  0  0  0  0  0  0  0  0  0  0
  146.8164  140.2594  153.1872 H   0  0  0  0  0  0  0  0  0  0  0  0
  146.9052  140.2836  154.9494 H   0  0  0  0  0  0  0  0  0  0  0  0
  148.5139  141.9449  152.9956 H   0  0  0  0  0  0  0  0  0  0  0  0
  147.6370  142.5156  154.4032 H   0  0  0  0  0  0  0  0  0  0  0  0
  150.3858  141.8855  154.3033 H   0  0  0  0  0  0  0  0  0  0  0  0
  148.7005  142.7198  156.3109 H   0  0  0  0  0  0  0  0  0  0  0  0
  153.0920  145.6286  158.6017 H   0  0  0  0  0  0  0  0  0  0  0  0
  151.8618  145.2790  161.1135 H   0  0  0  0  0  0  0  0  0  0  0  0
  1  2  1  0  0  0  0
  1 17  1  0  0  0  0
  1 18  1  0  0  0  0
  1 19  1  0  0  0  0
  2  3  1  0  0  0  0
  3  7  1  0  0  0  0
  3  4  1  0  0  0  0
  3 20  1  0  0  0  0
  4  5  1  0  0  0  0
  4 21  1  0  0  0  0
  4 22  1  0  0  0  0
  5  6  1  0  0  0  0
  5 23  1  0  0  0  0
  5 24  1  0  0  0  0
  6  7  1  0  0  0  0
  6 25  1  0  0  0  0
  6 26  1  0  0  0  0
  7  8  1  0  0  0  0
  7 27  1  0  0  0  0
  8 28  1  0  0  0  0
  8  9  1  0  0  0  0
  9 11  1  0  0  0  0
  9 10  2  0  0  0  0
 11 12  1  0  0  0  0
 12 16  1  0  0  0  0
 12 13  2  0  0  0  0
 13 14  1  0  0  0  0
 14 29  1  0  0  0  0
 14 15  2  0  0  0  0
 15 30  1  0  0  0  0
 15 16  1  0  0  0  0
M  CHG  1  11  -1
M  END
> <s_m_source_file>
AV-unprocessed.smi

> <i_m_source_file_index>
2784

> <i_lp_mmshare_version>
43012

> <i_f3d_flags>
0

> <s_epik_input>
W0NIM11PW0NAQEhdMVtDSDJdW0NIMl1bQ0gyXVtDQEhdMVtOSF1DKD1PKVtOSF1jMm5bY0hdW2NIXW8y

> <s_epik_cmdline>
J2VwaWtfcHl0aG9uJywgJy1waCcsICc3LjAnLCAnLXRuJywgJzgnLCAnLW1hJywgJzIwMCcsICctbWV0YWxfYmluZGluZycsICctaW1hZScsICc8aW5maWxlLm1hZT4nLCAnLW9tYWUnLCAnPG91dGZpbGUubWFlPic=

> <r_lp_tautomer_probability>
0.107061

> <r_epik_Ionization_Penalty>
10.8857

> <r_epik_Ionization_Penalty_Charging>
7.67908

> <r_epik_Ionization_Penalty_Neutral>
3.20665

> <r_epik_State_Penalty>
5.80296

> <r_epik_Charging_Adjusted_Penalty>
13.482

> <i_epik_Tot_Q>
-1

> <i_epik_Tot_abs_Q>
1

> <r_epik_Metal_State_Penalty>
1.73217

> <b_epik_Metal_Only>
1

> <s_lp_Force_Field>
OPLS_2005

> <r_lp_Energy>
14.4726

> <b_lp_Chiralities_Consistent>
1

> <s_lp_Variant>
AV-unprocessed.smi:2784-17

> <Gold.Version>
5.8.1

> <Gold.Id.Protein>
6NUR|6NUR_protein|mol2

> <Gold.PLP.Fitness>
35.2598

> <Gold.PLP.PLP>
-33.1140

> <Gold.PLP.part.hbond>
-2.1582

> <Gold.PLP.part.metal>
0.0000

> <Gold.PLP.part.buried>
-4.4748

> <Gold.PLP.part.nonpolar>
-26.1241

> <Gold.PLP.part.repulsive>
0.5572

> <Gold.PLP.ligand.clash>
0.0000

> <Gold.PLP.ligand.torsion>
0.9376

> <Gold.PLP.Chemscore.Hbond>
1.3380

> <Gold.PLP.Chemscore.CHOScore>
0.0000

> <Gold.PLP.Chemscore.Metal>
0.0000

> <Gold.Chemscore.Hbonds>
donor molecule, donor type, donor heavy atom, donor atom, acceptor molecule, acceptor atom, score
      L1  H     8    28       P1  8028  0.35
      P1  H  7989  7998       L1     2  1.00

> <Gold.PLP.Chemscore.Internal.Correction>
0.0070

> <Gold.Rescore>
     Score         DG    S(hbond)    S(metal)    S(lipo)     H(rot)  DE(clash)    DE(int)     intcor
     13.78     -16.53       1.96        0.00      67.13       1.31       0.02       2.73       ----

> <Gold.Chemscore.Fitness>
13.7764

> <Gold.Chemscore.DG>
-16.5272

> <Gold.Chemscore.ZeroCoef>
-5.4800

> <Gold.Chemscore.Hbond>
1.9606

> <Gold.Chemscore.Metal>
0.0000

> <Gold.Chemscore.Lipo>
67.1280

> <Gold.Chemscore.Internal_Hbond>
0.0000

> <Gold.Chemscore.DEClash>
0.0221

> <Gold.Chemscore.DEInternal>
2.7287

> <Gold.Chemscore.Rot>
1.3106

> <Gold.Chemscore.Internal.Correction>
   9.000000E+99

> <Gold.Chemscore.Hbonds>
donor molecule, donor type, donor heavy atom, donor atom, acceptor molecule, acceptor atom, score
      L1  H     8    28       P1  8028  0.35
      P1  H  7989  7998       L1     2  0.60

> <Gold.Chemscore.Hbond.Weighted>
-6.5482

> <Gold.Chemscore.Metal.Weighted>
-0.0000

> <Gold.Chemscore.Lipo.Weighted>
-7.8540

> <Gold.Chemscore.Internal_Hbond.Weighted>
0.0000

> <Gold.Chemscore.DEClash.Weighted>
0.0221

> <Gold.Chemscore.DEInternal.Weighted>
2.7287

> <Gold.Chemscore.Rot.Weighted>
3.3550

> <Gold.Chemscore.Internal.Correction.Weighted>
   9.000000E+99

> <Gold.Protein.RotatedTorsions>
[ 6907 6896 6895 6894 ] final  141.28 input  -60.11 | X-H torsion
[ 7974 7965 7964 7962 ] final  145.35 input  175.53 | X-H torsion
[ 8008 7997 7996 7995 ] final   -5.99 input   59.86 | X-H torsion
[ 10167 10162 10161 10158 ] final  176.07 input  -65.29 | X-H torsion
[ 10718 10713 10712 10709 ] final   61.70 input   66.30 | X-H torsion
[ 10763 10752 10751 10750 ] final   50.52 input  -60.55 | X-H torsion
[ 11005 11000 10999 10996 ] final   12.83 input  -57.11 | X-H torsion

> <Gold.Protein.ActiveResidues>
 VAL166  LYS551  ARG553  GLY616  TRP617  ASP618  TYR619  PRO620  LYS621  CYS622 
 ASP623  PHE694  ASN695  SER759  ASP760  ASP761  ALA762  ILE779  LEU786  VAL792 
 PHE793  MET794  SER795  GLU796  ALA797  LYS798  CYS799  TRP800  GLU811  SER814 

> <Gold.Protein.RotatedAtoms>
  152.2329  133.5073  159.5225 H   0  0  0  0  0  0  0  0  0  0  0  0  # atno 6907 bound_to 6896
  150.7042  134.1192  159.4037 H   0  0  0  0  0  0  0  0  0  0  0  0  # atno 6908 bound_to 6896
  151.9113  135.0337  160.0565 H   0  0  0  0  0  0  0  0  0  0  0  0  # atno 6909 bound_to 6896
  144.8760  139.5773  143.5865 H   0  0  0  0  0  0  0  0  0  0  0  0  # atno 7974 bound_to 7965
  154.5982  140.2444  155.7828 H   0  0  0  0  0  0  0  0  0  0  0  0  # atno 8008 bound_to 7997
  156.2293  140.2972  156.0101 H   0  0  0  0  0  0  0  0  0  0  0  0  # atno 8009 bound_to 7997
  155.2256  140.0402  157.2945 H   0  0  0  0  0  0  0  0  0  0  0  0  # atno 8010 bound_to 7997
  139.5200  144.2958  152.0423 H   0  0  0  0  0  0  0  0  0  0  0  0  # atno 10167 bound_to 10162
  157.5847  130.9009  149.9494 H   0  0  0  0  0  0  0  0  0  0  0  0  # atno 10718 bound_to 10713
  152.9784  135.5876  154.4265 H   0  0  0  0  0  0  0  0  0  0  0  0  # atno 10763 bound_to 10752
  154.3884  135.2767  155.2172 H   0  0  0  0  0  0  0  0  0  0  0  0  # atno 10764 bound_to 10752
  154.4055  135.6093  153.5976 H   0  0  0  0  0  0  0  0  0  0  0  0  # atno 10765 bound_to 10752
  140.4876  134.0872  155.7764 H   0  0  0  0  0  0  0  0  0  0  0  0  # atno 11005 bound_to 11000
  146.2962  139.7287  142.9124 LP  0  0  0  0  0  0  0  0  0  0  0  0  # atno 17320 bound_to 7965
  145.4043  141.0389  143.3053 LP  0  0  0  0  0  0  0  0  0  0  0  0  # atno 17321 bound_to 7965
  140.2407  144.4272  150.6261 LP  0  0  0  0  0  0  0  0  0  0  0  0  # atno 17342 bound_to 10162
  140.6292  143.2185  151.6531 LP  0  0  0  0  0  0  0  0  0  0  0  0  # atno 17343 bound_to 10162
  156.0895  130.3664  150.0422 LP  0  0  0  0  0  0  0  0  0  0  0  0  # atno 17370 bound_to 10713
  156.8555  130.9473  151.3622 LP  0  0  0  0  0  0  0  0  0  0  0  0  # atno 17371 bound_to 10713
  141.1500  133.8986  157.2121 LP  0  0  0  0  0  0  0  0  0  0  0  0  # atno 17394 bound_to 11000
  139.9788  135.0105  156.9699 LP  0  0  0  0  0  0  0  0  0  0  0  0  # atno 17395 bound_to 11000

$$$$
