AV-unprocessed.smi:893|AV-procd|sdf|4070|dock7
  -GOLD-   22720 1553D 1   1.00000     0.00000
 Structure written by MMmdl.
 26 27  0  0  0  0  0  0  0  0  2 V2000
  149.9257  141.3152  155.6132 C   0  0  0  0  0  0  0  0  0  0  0  0
  149.7049  140.4777  156.8877 C   0  0  0  0  0  0  0  0  0  0  0  0
  150.9658  140.1735  157.7431 C   0  0  1  0  0  0  0  0  0  0  0  0
  151.5915  141.4657  158.2448 C   0  0  0  0  0  0  0  0  0  0  0  0
  152.6873  141.6129  159.1474 C   0  0  0  0  0  0  0  0  0  0  0  0
  153.0003  142.8753  159.3897 N   0  0  0  0  0  0  0  0  0  0  0  0
  152.1224  143.5827  158.6513 N   0  0  0  0  0  0  0  0  0  0  0  0
  152.1729  145.0287  158.6725 C   0  0  0  0  0  0  0  0  0  0  0  0
  151.2654  142.7628  157.9507 C   0  0  0  0  0  0  0  0  0  0  0  0
  150.6347  139.2679  158.8363 N   0  5  0  0  0  0  0  0  0  0  0  0
  151.4110  138.1624  158.7371 C   0  0  0  0  0  0  0  0  0  0  0  0
  151.4300  137.1875  159.4848 O   0  0  0  0  0  0  0  0  0  0  0  0
  152.2086  138.2397  157.6672 N   0  0  0  0  0  0  0  0  0  0  0  0
  152.0212  139.3701  156.9927 C   0  0  0  0  0  0  0  0  0  0  0  0
  152.5807  139.7169  155.9526 O   0  0  0  0  0  0  0  0  0  0  0  0
  148.9865  141.4488  155.0763 H   0  0  0  0  0  0  0  0  0  0  0  0
  150.6246  140.8303  154.9317 H   0  0  0  0  0  0  0  0  0  0  0  0
  150.3123  142.3080  155.8423 H   0  0  0  0  0  0  0  0  0  0  0  0
  148.9704  140.9984  157.5034 H   0  0  0  0  0  0  0  0  0  0  0  0
  149.2329  139.5356  156.6055 H   0  0  0  0  0  0  0  0  0  0  0  0
  153.2603  140.8372  159.6338 H   0  0  0  0  0  0  0  0  0  0  0  0
  151.3912  145.4393  158.0326 H   0  0  0  0  0  0  0  0  0  0  0  0
  153.1431  145.3695  158.3099 H   0  0  0  0  0  0  0  0  0  0  0  0
  152.0227  145.3888  159.6906 H   0  0  0  0  0  0  0  0  0  0  0  0
  150.4975  143.1640  157.3055 H   0  0  0  0  0  0  0  0  0  0  0  0
  152.8620  137.5200  157.3966 H   0  0  0  0  0  0  0  0  0  0  0  0
  1  2  1  0  0  0  0
  1 16  1  0  0  0  0
  1 17  1  0  0  0  0
  1 18  1  0  0  0  0
  2  3  1  0  0  0  0
  2 19  1  0  0  0  0
  2 20  1  0  0  0  0
  3 14  1  0  0  0  0
  3  4  1  0  0  0  0
  3 10  1  0  0  0  0
  4  9  2  0  0  0  0
  4  5  1  0  0  0  0
  5  6  2  0  0  0  0
  5 21  1  0  0  0  0
  6  7  1  0  0  0  0
  7  8  1  0  0  0  0
  7  9  1  0  0  0  0
  8 22  1  0  0  0  0
  8 23  1  0  0  0  0
  8 24  1  0  0  0  0
  9 25  1  0  0  0  0
 10 11  1  0  0  0  0
 11 12  2  0  0  0  0
 11 13  1  0  0  0  0
 13 14  1  0  0  0  0
 13 26  1  0  0  0  0
 14 15  2  0  0  0  0
M  CHG  1  10  -1
M  END
> <s_m_source_file>
AV-unprocessed.smi

> <i_m_source_file_index>
893

> <i_lp_mmshare_version>
43012

> <i_f3d_flags>
0

> <s_epik_input>
Tz1DMVtOSF1DKD1PKVtOSF1bQ0BAXTEoW0NIMl1bQ0gzXSljMltjSF1ubihbQ0gzXSlbY0hdMg==

> <s_epik_cmdline>
J2VwaWtfcHl0aG9uJywgJy1waCcsICc3LjAnLCAnLXRuJywgJzgnLCAnLW1hJywgJzIwMCcsICctbWV0YWxfYmluZGluZycsICctaW1hZScsICc8aW5maWxlLm1hZT4nLCAnLW9tYWUnLCAnPG91dGZpbGUubWFlPic=

> <r_lp_tautomer_probability>
1

> <r_epik_Ionization_Penalty>
4.97057

> <r_epik_Ionization_Penalty_Charging>
4.97009

> <r_epik_Ionization_Penalty_Neutral>
0.000472554

> <r_epik_State_Penalty>
4.98892

> <r_epik_Charging_Adjusted_Penalty>
9.95901

> <i_epik_Tot_Q>
-1

> <i_epik_Tot_abs_Q>
1

> <r_epik_Metal_State_Penalty>
1.41037

> <b_epik_Metal_Only>
1

> <s_lp_Force_Field>
OPLS_2005

> <r_lp_Energy>
9.72866

> <b_lp_Chiralities_Consistent>
1

> <s_lp_Variant>
AV-unprocessed.smi:893-5

> <Gold.Version>
5.8.1

> <Gold.Id.Protein>
6NUR|6NUR_protein|mol2

> <Gold.PLP.Fitness>
34.3123

> <Gold.PLP.PLP>
-27.5257

> <Gold.PLP.part.hbond>
-1.9079

> <Gold.PLP.part.metal>
0.0000

> <Gold.PLP.part.buried>
-5.4026

> <Gold.PLP.part.nonpolar>
-21.1074

> <Gold.PLP.part.repulsive>
0.0718

> <Gold.PLP.ligand.clash>
0.0000

> <Gold.PLP.ligand.torsion>
0.1334

> <Gold.PLP.Chemscore.Hbond>
1.8938

> <Gold.PLP.Chemscore.CHOScore>
0.4281

> <Gold.PLP.Chemscore.Metal>
0.0000

> <Gold.Chemscore.Hbonds>
donor molecule, donor type, donor heavy atom, donor atom, acceptor molecule, acceptor atom, score
      P1  H  6896  6909       L1    12  0.89
      P1  H  7997  8010       L1    15  1.00
      L1  C     9    25       P1  8028  0.40

> <Gold.PLP.Chemscore.Internal.Correction>
0.0877

> <Gold.Rescore>
     Score         DG    S(hbond)    S(metal)    S(lipo)     H(rot)  DE(clash)    DE(int)     intcor
     15.25     -15.38       1.98        0.00      56.05       1.28       0.01       0.12       ----

> <Gold.Chemscore.Fitness>
15.2465

> <Gold.Chemscore.DG>
-15.3756

> <Gold.Chemscore.ZeroCoef>
-5.4800

> <Gold.Chemscore.Hbond>
1.9809

> <Gold.Chemscore.Metal>
0.0000

> <Gold.Chemscore.Lipo>
56.0480

> <Gold.Chemscore.Internal_Hbond>
0.0000

> <Gold.Chemscore.DEClash>
0.0086

> <Gold.Chemscore.DEInternal>
0.1205

> <Gold.Chemscore.Rot>
1.2805

> <Gold.Chemscore.Internal.Correction>
   9.000000E+99

> <Gold.Chemscore.Hbonds>
donor molecule, donor type, donor heavy atom, donor atom, acceptor molecule, acceptor atom, score
      P1  H  6896  6909       L1    12  0.87
      P1  H  7997  8010       L1    15  0.93

> <Gold.Chemscore.Hbond.Weighted>
-6.6162

> <Gold.Chemscore.Metal.Weighted>
-0.0000

> <Gold.Chemscore.Lipo.Weighted>
-6.5576

> <Gold.Chemscore.Internal_Hbond.Weighted>
0.0000

> <Gold.Chemscore.DEClash.Weighted>
0.0086

> <Gold.Chemscore.DEInternal.Weighted>
0.1205

> <Gold.Chemscore.Rot.Weighted>
3.2782

> <Gold.Chemscore.Internal.Correction.Weighted>
   9.000000E+99

> <Gold.Protein.RotatedTorsions>
[ 6907 6896 6895 6894 ] final  110.10 input  -60.11 | X-H torsion
[ 7974 7965 7964 7962 ] final  -75.54 input  175.53 | X-H torsion
[ 8008 7997 7996 7995 ] final   91.73 input   59.86 | X-H torsion
[ 10167 10162 10161 10158 ] final  170.27 input  -65.29 | X-H torsion
[ 10718 10713 10712 10709 ] final  -65.61 input   66.30 | X-H torsion
[ 10763 10752 10751 10750 ] final  148.96 input  -60.55 | X-H torsion
[ 11005 11000 10999 10996 ] final  124.07 input  -57.11 | X-H torsion

> <Gold.Protein.ActiveResidues>
 VAL166  LYS551  ARG553  GLY616  TRP617  ASP618  TYR619  PRO620  LYS621  CYS622 
 ASP623  PHE694  ASN695  SER759  ASP760  ASP761  ALA762  ILE779  LEU786  VAL792 
 PHE793  MET794  SER795  GLU796  ALA797  LYS798  CYS799  TRP800  GLU811  SER814 

> <Gold.Protein.RotatedAtoms>
  152.5036  133.8849  159.7364 H   0  0  0  0  0  0  0  0  0  0  0  0  # atno 6907 bound_to 6896
  150.9302  133.6767  159.2819 H   0  0  0  0  0  0  0  0  0  0  0  0  # atno 6908 bound_to 6896
  151.4114  135.0990  159.9639 H   0  0  0  0  0  0  0  0  0  0  0  0  # atno 6909 bound_to 6896
  145.6247  140.9354  143.1119 H   0  0  0  0  0  0  0  0  0  0  0  0  # atno 7974 bound_to 7965
  156.0272  140.3334  155.7101 H   0  0  0  0  0  0  0  0  0  0  0  0  # atno 8008 bound_to 7997
  155.5937  140.0649  157.2769 H   0  0  0  0  0  0  0  0  0  0  0  0  # atno 8009 bound_to 7997
  154.4339  140.1822  156.1089 H   0  0  0  0  0  0  0  0  0  0  0  0  # atno 8010 bound_to 7997
  139.5014  144.3615  151.9820 H   0  0  0  0  0  0  0  0  0  0  0  0  # atno 10167 bound_to 10162
  156.0659  130.4250  150.1589 H   0  0  0  0  0  0  0  0  0  0  0  0  # atno 10718 bound_to 10713
  154.0633  135.2872  155.3321 H   0  0  0  0  0  0  0  0  0  0  0  0  # atno 10763 bound_to 10752
  154.6794  135.5269  153.8246 H   0  0  0  0  0  0  0  0  0  0  0  0  # atno 10764 bound_to 10752
  153.0514  135.6578  154.0820 H   0  0  0  0  0  0  0  0  0  0  0  0  # atno 10765 bound_to 10752
  139.9342  134.9640  156.8354 H   0  0  0  0  0  0  0  0  0  0  0  0  # atno 11005 bound_to 11000
  144.7217  139.8008  143.7379 LP  0  0  0  0  0  0  0  0  0  0  0  0  # atno 17320 bound_to 7965
  146.1404  139.4459  143.0112 LP  0  0  0  0  0  0  0  0  0  0  0  0  # atno 17321 bound_to 7965
  140.3051  144.3602  150.6049 LP  0  0  0  0  0  0  0  0  0  0  0  0  # atno 17342 bound_to 10162
  140.5843  143.2171  151.7371 LP  0  0  0  0  0  0  0  0  0  0  0  0  # atno 17343 bound_to 10162
  156.9649  130.9816  151.3471 LP  0  0  0  0  0  0  0  0  0  0  0  0  # atno 17370 bound_to 10713
  157.5701  130.8304  149.8380 LP  0  0  0  0  0  0  0  0  0  0  0  0  # atno 17371 bound_to 10713
  140.6121  134.0072  155.7581 LP  0  0  0  0  0  0  0  0  0  0  0  0  # atno 17394 bound_to 11000
  141.0946  133.9863  157.3180 LP  0  0  0  0  0  0  0  0  0  0  0  0  # atno 17395 bound_to 11000

$$$$
