AV-unprocessed.smi:48|AV-procd|sdf|462|dock9
  -GOLD-   2262016333D 1   1.00000     0.00000
 Structure written by MMmdl.
 30 32  0  0  0  0  0  0  0  0  1 V2000
  147.3646  138.3671  151.8447 O   0  0  0  0  0  0  0  0  0  0  0  0
  146.8917  138.8254  153.0933 C   0  0  0  0  0  0  0  0  0  0  0  0
  147.2983  140.2914  153.3061 C   0  0  2  0  0  0  0  0  0  0  0  0
  148.6199  140.3534  153.8277 O   0  0  0  0  0  0  0  0  0  0  0  0
  148.8044  141.5695  154.4830 C   0  0  2  0  0  0  0  0  0  0  0  0
  149.6086  141.3080  155.7146 N   0  0  0  0  0  0  0  0  0  0  0  0
  149.4046  141.8117  156.9490 C   0  0  0  0  0  0  0  0  0  0  0  0
  150.2542  141.4478  157.9087 N   0  0  0  0  0  0  0  0  0  0  0  0
  151.1169  140.6167  157.2134 C   0  0  0  0  0  0  0  0  0  0  0  0
  152.2615  139.8797  157.6029 C   0  0  0  0  0  0  0  0  0  0  0  0
  152.8260  139.9116  159.2331 Cl  0  0  0  0  0  0  0  0  0  0  0  0
  152.9062  139.1458  156.6648 N   0  0  0  0  0  0  0  0  0  0  0  0
  152.4466  139.1391  155.4076 C   0  0  0  0  0  0  0  0  0  0  0  0
  151.3872  139.7768  154.8970 N   0  0  0  0  0  0  0  0  0  0  0  0
  150.7382  140.5162  155.8444 C   0  0  0  0  0  0  0  0  0  0  0  0
  147.4162  142.1321  154.8340 C   0  0  1  0  0  0  0  0  0  0  0  0
  147.1679  143.3340  154.1273 O   0  0  0  0  0  0  0  0  0  0  0  0
  146.4893  140.9988  154.3945 C   0  0  1  0  0  0  0  0  0  0  0  0
  145.2248  141.4444  153.9399 O   0  0  0  0  0  0  0  0  0  0  0  0
  147.2460  140.8610  152.3758 H   0  0  0  0  0  0  0  0  0  0  0  0
  149.4155  142.2452  153.8821 H   0  0  0  0  0  0  0  0  0  0  0  0
  147.3261  142.3303  155.9031 H   0  0  0  0  0  0  0  0  0  0  0  0
  146.3328  140.3193  155.2325 H   0  0  0  0  0  0  0  0  0  0  0  0
  148.2015  138.7711  151.6738 H   0  0  0  0  0  0  0  0  0  0  0  0
  145.8052  138.7351  153.0838 H   0  0  0  0  0  0  0  0  0  0  0  0
  147.2625  138.1897  153.8982 H   0  0  0  0  0  0  0  0  0  0  0  0
  148.5837  142.4825  157.1569 H   0  0  0  0  0  0  0  0  0  0  0  0
  153.0066  138.5343  154.7097 H   0  0  0  0  0  0  0  0  0  0  0  0
  147.8339  143.9630  154.3583 H   0  0  0  0  0  0  0  0  0  0  0  0
  144.9024  140.8279  153.3006 H   0  0  0  0  0  0  0  0  0  0  0  0
  1  2  1  0  0  0  0
  1 24  1  0  0  0  0
  2  3  1  0  0  0  0
  2 25  1  0  0  0  0
  2 26  1  0  0  0  0
  3 20  1  0  0  0  0
  3 18  1  0  0  0  0
  3  4  1  0  0  0  0
  4  5  1  0  0  0  0
  5 21  1  0  0  0  0
  5  6  1  0  0  0  0
  5 16  1  0  0  0  0
  6 15  1  0  0  0  0
  6  7  1  0  0  0  0
  7  8  2  0  0  0  0
  7 27  1  0  0  0  0
  8  9  1  0  0  0  0
  9 15  2  0  0  0  0
  9 10  1  0  0  0  0
 10 11  1  0  0  0  0
 10 12  2  0  0  0  0
 12 13  1  0  0  0  0
 13 14  2  0  0  0  0
 13 28  1  0  0  0  0
 14 15  1  0  0  0  0
 16 22  1  0  0  0  0
 16 17  1  0  0  0  0
 16 18  1  0  0  0  0
 17 29  1  0  0  0  0
 18 23  1  0  0  0  0
 18 19  1  0  0  0  0
 19 30  1  0  0  0  0
M  END
> <s_m_source_file>
AV-unprocessed.smi

> <i_m_source_file_index>
48

> <i_lp_mmshare_version>
43012

> <i_f3d_flags>
0

> <s_epik_input>
W09IXVtDSDJdW0NASF0xT1tDQEhdKFtDQEhdKFtPSF0pW0NAQEhdMVtPSF0pbihbY0hdbjIpYyhjMjMpbltjSF1uYzNDbA==

> <s_epik_cmdline>
J2VwaWtfcHl0aG9uJywgJy1waCcsICc3LjAnLCAnLXRuJywgJzgnLCAnLW1hJywgJzIwMCcsICctbWV0YWxfYmluZGluZycsICctaW1hZScsICc8aW5maWxlLm1hZT4nLCAnLW9tYWUnLCAnPG91dGZpbGUubWFlPic=

> <r_lp_tautomer_probability>
1

> <r_epik_Ionization_Penalty>
3.45505e-06

> <r_epik_Ionization_Penalty_Charging>
0

> <r_epik_Ionization_Penalty_Neutral>
3.45505e-06

> <r_epik_State_Penalty>
-0

> <r_epik_Charging_Adjusted_Penalty>
0

> <i_epik_Tot_Q>
0

> <i_epik_Tot_abs_Q>
0

> <r_epik_Metal_State_Penalty>
-0

> <b_epik_Metal_Only>
0

> <s_epik_Chemistry_Notes>
This compound contains an acetal/aminal-like group ( X-CH(R)-Y where X, Y are N, S, or O) that may be acid/base labile, releasing an aldehyde.

> <s_lp_Force_Field>
OPLS_2005

> <r_lp_Energy>
36.5243

> <b_lp_Chiralities_Consistent>
1

> <s_lp_Variant>
AV-unprocessed.smi:48-16

> <Gold.Version>
5.8.1

> <Gold.Id.Protein>
6NUR|6NUR_protein|mol2

> <Gold.PLP.Fitness>
42.7247

> <Gold.PLP.PLP>
-28.6522

> <Gold.PLP.part.hbond>
-7.1270

> <Gold.PLP.part.metal>
0.0000

> <Gold.PLP.part.buried>
2.8337

> <Gold.PLP.part.nonpolar>
-25.0741

> <Gold.PLP.part.repulsive>
1.8971

> <Gold.PLP.ligand.clash>
0.0000

> <Gold.PLP.ligand.torsion>
0.6621

> <Gold.PLP.Chemscore.Hbond>
4.7590

> <Gold.PLP.Chemscore.CHOScore>
0.3679

> <Gold.PLP.Chemscore.Metal>
0.0000

> <Gold.Chemscore.Hbonds>
donor molecule, donor type, donor heavy atom, donor atom, acceptor molecule, acceptor atom, score
      L1  H     1    24       P1  7957  1.00
      L1  H    17    29       P1  8028  0.99
      L1  H    19    30       P1 10175  0.77
      P1  H  7989  7998       L1    14  1.00
      P1  H  7997  8010       L1    12  0.90
      L1  C     7    27       P1  8028  0.34

> <Gold.PLP.Chemscore.Internal.Correction>
0.0159

> <Gold.Rescore>
     Score         DG    S(hbond)    S(metal)    S(lipo)     H(rot)  DE(clash)    DE(int)     intcor
      6.85      -9.69       2.74        0.00      41.03       3.80       1.37       1.47       ----

> <Gold.Chemscore.Fitness>
6.8487

> <Gold.Chemscore.DG>
-9.6881

> <Gold.Chemscore.ZeroCoef>
-5.4800

> <Gold.Chemscore.Hbond>
2.7366

> <Gold.Chemscore.Metal>
0.0000

> <Gold.Chemscore.Lipo>
41.0283

> <Gold.Chemscore.Internal_Hbond>
0.0000

> <Gold.Chemscore.DEClash>
1.3691

> <Gold.Chemscore.DEInternal>
1.4703

> <Gold.Chemscore.Rot>
3.8017

> <Gold.Chemscore.Internal.Correction>
   9.000000E+99

> <Gold.Chemscore.Hbonds>
donor molecule, donor type, donor heavy atom, donor atom, acceptor molecule, acceptor atom, score
      L1  H     1    24       P1  7957  0.70
      L1  H    17    29       P1  8028  0.24
      L1  H    19    30       P1 10175  0.54
      P1  H  7989  7998       L1    14  0.53
      P1  H  7997  8010       L1    12  0.09

> <Gold.Chemscore.Hbond.Weighted>
-9.1402

> <Gold.Chemscore.Metal.Weighted>
-0.0000

> <Gold.Chemscore.Lipo.Weighted>
-4.8003

> <Gold.Chemscore.Internal_Hbond.Weighted>
0.0000

> <Gold.Chemscore.DEClash.Weighted>
1.3691

> <Gold.Chemscore.DEInternal.Weighted>
1.4703

> <Gold.Chemscore.Rot.Weighted>
9.7324

> <Gold.Chemscore.Internal.Correction.Weighted>
   9.000000E+99

> <Gold.Protein.RotatedTorsions>
[ 6907 6896 6895 6894 ] final  -82.73 input  -60.11 | X-H torsion
[ 7974 7965 7964 7962 ] final  131.29 input  175.53 | X-H torsion
[ 8008 7997 7996 7995 ] final   61.46 input   59.86 | X-H torsion
[ 10167 10162 10161 10158 ] final    0.62 input  -65.29 | X-H torsion
[ 10718 10713 10712 10709 ] final  -69.37 input   66.30 | X-H torsion
[ 10763 10752 10751 10750 ] final   56.87 input  -60.55 | X-H torsion
[ 11005 11000 10999 10996 ] final -176.10 input  -57.11 | X-H torsion

> <Gold.Protein.ActiveResidues>
 VAL166  LYS551  ARG553  GLY616  TRP617  ASP618  TYR619  PRO620  LYS621  CYS622 
 ASP623  PHE694  ASN695  SER759  ASP760  ASP761  ALA762  ILE779  LEU786  VAL792 
 PHE793  MET794  SER795  GLU796  ALA797  LYS798  CYS799  TRP800  GLU811  SER814 

> <Gold.Protein.RotatedAtoms>
  150.6893  134.3619  159.4954 H   0  0  0  0  0  0  0  0  0  0  0  0  # atno 6907 bound_to 6896
  152.1447  134.9032  160.0561 H   0  0  0  0  0  0  0  0  0  0  0  0  # atno 6908 bound_to 6896
  152.0153  133.3842  159.4273 H   0  0  0  0  0  0  0  0  0  0  0  0  # atno 6909 bound_to 6896
  145.0089  139.4240  143.5255 H   0  0  0  0  0  0  0  0  0  0  0  0  # atno 7974 bound_to 7965
  155.5987  140.3493  155.4587 H   0  0  0  0  0  0  0  0  0  0  0  0  # atno 8008 bound_to 7997
  156.0245  140.1261  157.0347 H   0  0  0  0  0  0  0  0  0  0  0  0  # atno 8009 bound_to 7997
  154.4328  140.1056  156.5997 H   0  0  0  0  0  0  0  0  0  0  0  0  # atno 8010 bound_to 7997
  140.6720  143.7021  150.7943 H   0  0  0  0  0  0  0  0  0  0  0  0  # atno 10167 bound_to 10162
  156.0459  130.4311  150.2137 H   0  0  0  0  0  0  0  0  0  0  0  0  # atno 10718 bound_to 10713
  152.9839  135.5661  154.5299 H   0  0  0  0  0  0  0  0  0  0  0  0  # atno 10763 bound_to 10752
  154.4773  135.2787  155.1600 H   0  0  0  0  0  0  0  0  0  0  0  0  # atno 10764 bound_to 10752
  154.3123  135.6286  153.5524 H   0  0  0  0  0  0  0  0  0  0  0  0  # atno 10765 bound_to 10752
  140.4559  134.6300  157.4821 H   0  0  0  0  0  0  0  0  0  0  0  0  # atno 11005 bound_to 11000
  146.3466  139.9521  142.8727 LP  0  0  0  0  0  0  0  0  0  0  0  0  # atno 17320 bound_to 7965
  145.2051  140.9871  143.4133 LP  0  0  0  0  0  0  0  0  0  0  0  0  # atno 17321 bound_to 7965
  140.0708  143.5063  152.2581 LP  0  0  0  0  0  0  0  0  0  0  0  0  # atno 17342 bound_to 10162
  139.5993  144.7577  151.3209 LP  0  0  0  0  0  0  0  0  0  0  0  0  # atno 17343 bound_to 10162
  157.0227  130.9984  151.3335 LP  0  0  0  0  0  0  0  0  0  0  0  0  # atno 17370 bound_to 10713
  157.5333  130.8072  149.7942 LP  0  0  0  0  0  0  0  0  0  0  0  0  # atno 17371 bound_to 10713
  139.9977  134.6886  155.9582 LP  0  0  0  0  0  0  0  0  0  0  0  0  # atno 17394 bound_to 11000
  141.1643  133.6537  156.4426 LP  0  0  0  0  0  0  0  0  0  0  0  0  # atno 17395 bound_to 11000

$$$$
