AV-unprocessed.smi:470|AV-procd|sdf|2655|dock9
  -GOLD-   2262023 63D 1   1.00000     0.00000
 Structure written by MMmdl.
 33 34  0  0  0  0  0  0  0  0  1 V2000
  145.1768  138.3938  152.4570 N   0  0  0  0  0  0  0  0  0  0  0  0
  146.4514  138.4168  152.0578 C   0  0  0  0  0  0  0  0  0  0  0  0
  146.7708  138.3527  150.8726 O   0  0  0  0  0  0  0  0  0  0  0  0
  147.5223  138.5238  153.1450 C   0  0  0  0  0  0  0  0  0  0  0  0
  147.5473  139.9117  153.7152 C   0  0  0  0  0  0  0  0  0  0  0  0
  146.7157  140.9554  153.3884 C   0  0  0  0  0  0  0  0  0  0  0  0
  147.0825  142.3946  154.3017 S   0  0  0  0  0  0  0  0  0  0  0  0
  148.3936  141.5219  155.0796 C   0  0  0  0  0  0  0  0  0  0  0  0
  149.1927  142.1142  156.0929 N   0  0  0  0  0  0  0  0  0  0  0  0
  149.9395  141.5479  157.0633 C   0  0  0  0  0  0  0  0  0  0  0  0
  149.9772  140.3224  157.1611 O   0  0  0  0  0  0  0  0  0  0  0  0
  150.7380  142.4020  158.0703 C   0  0  1  0  0  0  0  0  0  0  0  0
  151.6370  141.5357  158.9863 C   0  0  0  0  0  0  0  0  0  0  0  0
  152.5788  142.3839  159.8231 C   0  0  0  0  0  0  0  0  0  0  0  0
  152.8568  143.6695  159.5456 C   0  0  0  0  0  0  0  0  0  0  0  0
  152.2646  144.4152  158.3624 C   0  0  0  0  0  0  0  0  0  0  0  0
  151.5951  143.4648  157.3523 C   0  0  0  0  0  0  0  0  0  0  0  0
  148.4932  140.2476  154.6887 N   0  0  0  0  0  0  0  0  0  0  0  0
  144.4380  138.3324  151.7716 H   0  0  0  0  0  0  0  0  0  0  0  0
  144.9558  138.4463  153.4410 H   0  0  0  0  0  0  0  0  0  0  0  0
  147.3253  137.7856  153.9240 H   0  0  0  0  0  0  0  0  0  0  0  0
  148.4928  138.2676  152.7186 H   0  0  0  0  0  0  0  0  0  0  0  0
  145.9052  140.9602  152.6747 H   0  0  0  0  0  0  0  0  0  0  0  0
  149.1832  143.1238  156.0988 H   0  0  0  0  0  0  0  0  0  0  0  0
  150.0417  142.9037  158.7407 H   0  0  0  0  0  0  0  0  0  0  0  0
  151.0169  140.9392  159.6561 H   0  0  0  0  0  0  0  0  0  0  0  0
  152.2478  140.8381  158.4120 H   0  0  0  0  0  0  0  0  0  0  0  0
  153.0461  141.9030  160.6700 H   0  0  0  0  0  0  0  0  0  0  0  0
  153.5258  144.2247  160.1867 H   0  0  0  0  0  0  0  0  0  0  0  0
  151.5354  145.1305  158.7445 H   0  0  0  0  0  0  0  0  0  0  0  0
  153.0480  144.9910  157.8693 H   0  0  0  0  0  0  0  0  0  0  0  0
  152.3661  142.9671  156.7615 H   0  0  0  0  0  0  0  0  0  0  0  0
  150.9995  144.0438  156.6456 H   0  0  0  0  0  0  0  0  0  0  0  0
  1  2  1  0  0  0  0
  1 19  1  0  0  0  0
  1 20  1  0  0  0  0
  2  3  2  0  0  0  0
  2  4  1  0  0  0  0
  4  5  1  0  0  0  0
  4 21  1  0  0  0  0
  4 22  1  0  0  0  0
  5 18  1  0  0  0  0
  5  6  2  0  0  0  0
  6  7  1  0  0  0  0
  6 23  1  0  0  0  0
  7  8  1  0  0  0  0
  8  9  1  0  0  0  0
  8 18  2  0  0  0  0
  9 10  1  0  0  0  0
  9 24  1  0  0  0  0
 10 11  2  0  0  0  0
 10 12  1  0  0  0  0
 12 17  1  0  0  0  0
 12 13  1  0  0  0  0
 12 25  1  0  0  0  0
 13 14  1  0  0  0  0
 13 26  1  0  0  0  0
 13 27  1  0  0  0  0
 14 15  2  0  0  0  0
 14 28  1  0  0  0  0
 15 16  1  0  0  0  0
 15 29  1  0  0  0  0
 16 17  1  0  0  0  0
 16 30  1  0  0  0  0
 16 31  1  0  0  0  0
 17 32  1  0  0  0  0
 17 33  1  0  0  0  0
M  END
> <s_m_source_file>
AV-unprocessed.smi

> <i_m_source_file_index>
470

> <i_lp_mmshare_version>
43012

> <i_f3d_flags>
0

> <s_epik_input>
W05IMl1DKD1PKVtDSDJdYzFbY0hdc2MobjEpW05IXUMoPU8pW0NAQEhdMltDSDJdW0NIXT1bQ0hdW0NIMl1bQ0gyXTI=

> <s_epik_cmdline>
J2VwaWtfcHl0aG9uJywgJy1waCcsICc3LjAnLCAnLXRuJywgJzgnLCAnLW1hJywgJzIwMCcsICctbWV0YWxfYmluZGluZycsICctaW1hZScsICc8aW5maWxlLm1hZT4nLCAnLW9tYWUnLCAnPG91dGZpbGUubWFlPic=

> <r_lp_tautomer_probability>
1

> <r_epik_Ionization_Penalty>
0.00025496

> <r_epik_Ionization_Penalty_Charging>
0

> <r_epik_Ionization_Penalty_Neutral>
0.00025496

> <r_epik_State_Penalty>
-0

> <r_epik_Charging_Adjusted_Penalty>
0

> <i_epik_Tot_Q>
0

> <i_epik_Tot_abs_Q>
0

> <r_epik_Metal_State_Penalty>
0.149391

> <b_epik_Metal_Only>
0

> <s_lp_Force_Field>
OPLS_2005

> <r_lp_Energy>
12.0987

> <b_lp_Chiralities_Consistent>
1

> <s_lp_Variant>
AV-unprocessed.smi:470-2

> <Gold.Version>
5.8.1

> <Gold.Id.Protein>
6NUR|6NUR_protein|mol2

> <Gold.PLP.Fitness>
48.5185

> <Gold.PLP.PLP>
-37.6733

> <Gold.PLP.part.hbond>
-4.0000

> <Gold.PLP.part.metal>
0.0000

> <Gold.PLP.part.buried>
-1.2000

> <Gold.PLP.part.nonpolar>
-34.6229

> <Gold.PLP.part.repulsive>
0.6970

> <Gold.PLP.ligand.clash>
0.0000

> <Gold.PLP.ligand.torsion>
0.3865

> <Gold.PLP.Chemscore.Hbond>
2.9920

> <Gold.PLP.Chemscore.CHOScore>
0.8742

> <Gold.PLP.Chemscore.Metal>
0.0000

> <Gold.Chemscore.Hbonds>
donor molecule, donor type, donor heavy atom, donor atom, acceptor molecule, acceptor atom, score
      L1  H     1    19       P1 10171  0.91
      L1  H     9    24       P1  8028  1.00
      P1  H  7954  7966       L1     3  1.00
      L1  C     6    23       P1 10175  0.90

> <Gold.PLP.Chemscore.Internal.Correction>
0.0196

> <Gold.Rescore>
     Score         DG    S(hbond)    S(metal)    S(lipo)     H(rot)  DE(clash)    DE(int)     intcor
     19.24     -21.27       2.96        0.00      92.04       1.90       0.28       1.75       ----

> <Gold.Chemscore.Fitness>
19.2415

> <Gold.Chemscore.DG>
-21.2721

> <Gold.Chemscore.ZeroCoef>
-5.4800

> <Gold.Chemscore.Hbond>
2.9579

> <Gold.Chemscore.Metal>
0.0000

> <Gold.Chemscore.Lipo>
92.0387

> <Gold.Chemscore.Internal_Hbond>
0.0000

> <Gold.Chemscore.DEClash>
0.2793

> <Gold.Chemscore.DEInternal>
1.7513

> <Gold.Chemscore.Rot>
1.8968

> <Gold.Chemscore.Internal.Correction>
   9.000000E+99

> <Gold.Chemscore.Hbonds>
donor molecule, donor type, donor heavy atom, donor atom, acceptor molecule, acceptor atom, score
      L1  H     1    19       P1 10171  0.82
      L1  H     9    24       P1  8028  1.00
      P1  H  7954  7966       L1     3  0.97

> <Gold.Chemscore.Hbond.Weighted>
-9.8794

> <Gold.Chemscore.Metal.Weighted>
-0.0000

> <Gold.Chemscore.Lipo.Weighted>
-10.7685

> <Gold.Chemscore.Internal_Hbond.Weighted>
0.0000

> <Gold.Chemscore.DEClash.Weighted>
0.2793

> <Gold.Chemscore.DEInternal.Weighted>
1.7513

> <Gold.Chemscore.Rot.Weighted>
4.8558

> <Gold.Chemscore.Internal.Correction.Weighted>
   9.000000E+99

> <Gold.Protein.RotatedTorsions>
[ 6907 6896 6895 6894 ] final   73.70 input  -60.11 | X-H torsion
[ 7974 7965 7964 7962 ] final  -41.59 input  175.53 | X-H torsion
[ 8008 7997 7996 7995 ] final  -52.33 input   59.86 | X-H torsion
[ 10167 10162 10161 10158 ] final   42.64 input  -65.29 | X-H torsion
[ 10718 10713 10712 10709 ] final   15.62 input   66.30 | X-H torsion
[ 10763 10752 10751 10750 ] final -123.66 input  -60.55 | X-H torsion
[ 11005 11000 10999 10996 ] final -142.25 input  -57.11 | X-H torsion

> <Gold.Protein.ActiveResidues>
 VAL166  LYS551  ARG553  GLY616  TRP617  ASP618  TYR619  PRO620  LYS621  CYS622 
 ASP623  PHE694  ASN695  SER759  ASP760  ASP761  ALA762  ILE779  LEU786  VAL792 
 PHE793  MET794  SER795  GLU796  ALA797  LYS798  CYS799  TRP800  GLU811  SER814 

> <Gold.Protein.RotatedAtoms>
  152.4937  134.4382  159.9534 H   0  0  0  0  0  0  0  0  0  0  0  0  # atno 6907 bound_to 6896
  151.4365  133.3649  159.2783 H   0  0  0  0  0  0  0  0  0  0  0  0  # atno 6908 bound_to 6896
  150.9118  134.8558  159.7490 H   0  0  0  0  0  0  0  0  0  0  0  0  # atno 6909 bound_to 6896
  146.0197  140.6865  142.9184 H   0  0  0  0  0  0  0  0  0  0  0  0  # atno 7974 bound_to 7965
  154.4104  140.1226  156.4974 H   0  0  0  0  0  0  0  0  0  0  0  0  # atno 8008 bound_to 7997
  155.6930  140.3495  155.4882 H   0  0  0  0  0  0  0  0  0  0  0  0  # atno 8009 bound_to 7997
  155.9452  140.1094  157.1012 H   0  0  0  0  0  0  0  0  0  0  0  0  # atno 8010 bound_to 7997
  140.3524  144.2333  150.6144 H   0  0  0  0  0  0  0  0  0  0  0  0  # atno 10167 bound_to 10162
  157.0562  130.6290  149.5777 H   0  0  0  0  0  0  0  0  0  0  0  0  # atno 10718 bound_to 10713
  154.8711  135.4090  154.2980 H   0  0  0  0  0  0  0  0  0  0  0  0  # atno 10763 bound_to 10752
  153.3844  135.7012  153.6546 H   0  0  0  0  0  0  0  0  0  0  0  0  # atno 10764 bound_to 10752
  153.5355  135.3658  155.2666 H   0  0  0  0  0  0  0  0  0  0  0  0  # atno 10765 bound_to 10752
  140.8244  134.2592  157.4886 H   0  0  0  0  0  0  0  0  0  0  0  0  # atno 11005 bound_to 11000
  144.6985  140.3544  143.7176 LP  0  0  0  0  0  0  0  0  0  0  0  0  # atno 17320 bound_to 7965
  145.7213  139.1710  143.2483 LP  0  0  0  0  0  0  0  0  0  0  0  0  # atno 17321 bound_to 7965
  140.5206  143.2267  151.8394 LP  0  0  0  0  0  0  0  0  0  0  0  0  # atno 17342 bound_to 10162
  139.4824  144.4841  151.9269 LP  0  0  0  0  0  0  0  0  0  0  0  0  # atno 17343 bound_to 10162
  155.9992  130.5068  150.7600 LP  0  0  0  0  0  0  0  0  0  0  0  0  # atno 17370 bound_to 10713
  157.4991  131.0917  151.0336 LP  0  0  0  0  0  0  0  0  0  0  0  0  # atno 17371 bound_to 10713
  139.8707  134.9552  156.4201 LP  0  0  0  0  0  0  0  0  0  0  0  0  # atno 17394 bound_to 11000
  140.9065  133.7742  155.9741 LP  0  0  0  0  0  0  0  0  0  0  0  0  # atno 17395 bound_to 11000

$$$$
