AV-unprocessed.smi:605|AV-procd|sdf|3040|dock8
  -GOLD-   2262023563D 1   1.00000     0.00000
 Structure written by MMmdl.
 34 35  0  0  0  0  0  0  0  0  2 V2000
  148.5673  138.7618  154.2123 C   0  0  0  0  0  0  0  0  0  0  0  0
  148.8666  140.0254  155.0318 C   0  0  0  0  0  0  0  0  0  0  0  0
  148.6917  141.3216  154.2272 C   0  0  0  0  0  0  0  0  0  0  0  0
  150.2011  139.9578  155.7061 C   0  0  0  0  0  0  0  0  0  0  0  0
  151.3455  139.7635  155.0433 N   0  0  0  0  0  0  0  0  0  0  0  0
  152.4447  139.7445  155.8885 N   0  0  0  0  0  0  0  0  0  0  0  0
  152.1218  139.9353  157.1752 C   0  0  0  0  0  0  0  0  0  0  0  0
  153.0431  139.9633  158.1560 N   0  5  0  0  0  0  0  0  0  0  0  0
  153.1600  141.0064  159.0200 C   0  0  0  0  0  0  0  0  0  0  0  0
  153.5283  140.8777  160.1868 O   0  0  0  0  0  0  0  0  0  0  0  0
  152.8566  142.2376  158.5645 N   0  0  0  0  0  0  0  0  0  0  0  0
  152.9106  143.4805  159.3301 C   0  0  0  0  0  0  0  0  0  0  0  0
  151.9259  143.4307  160.5146 C   0  0  0  0  0  0  0  0  0  0  0  0
  151.1216  144.7306  160.4549 C   0  0  0  0  0  0  0  0  0  0  0  0
  151.1029  145.0964  158.9744 C   0  0  0  0  0  0  0  0  0  0  0  0
  152.4882  144.6897  158.4723 C   0  0  0  0  0  0  0  0  0  0  0  0
  150.3906  140.1303  157.4437 S   0  0  0  0  0  0  0  0  0  0  0  0
  148.6201  137.8685  154.8357 H   0  0  0  0  0  0  0  0  0  0  0  0
  149.2803  138.6410  153.3962 H   0  0  0  0  0  0  0  0  0  0  0  0
  147.5684  138.8021  153.7773 H   0  0  0  0  0  0  0  0  0  0  0  0
  148.1220  140.0570  155.8282 H   0  0  0  0  0  0  0  0  0  0  0  0
  148.8300  142.1980  154.8614 H   0  0  0  0  0  0  0  0  0  0  0  0
  147.6940  141.3825  153.7920 H   0  0  0  0  0  0  0  0  0  0  0  0
  149.4136  141.3829  153.4124 H   0  0  0  0  0  0  0  0  0  0  0  0
  152.5669  142.3145  157.6006 H   0  0  0  0  0  0  0  0  0  0  0  0
  153.9233  143.6350  159.7066 H   0  0  0  0  0  0  0  0  0  0  0  0
  151.2425  142.5860  160.4121 H   0  0  0  0  0  0  0  0  0  0  0  0
  152.4380  143.3134  161.4701 H   0  0  0  0  0  0  0  0  0  0  0  0
  150.1209  144.6248  160.8745 H   0  0  0  0  0  0  0  0  0  0  0  0
  151.6388  145.5089  161.0174 H   0  0  0  0  0  0  0  0  0  0  0  0
  150.3399  144.5104  158.4601 H   0  0  0  0  0  0  0  0  0  0  0  0
  150.8871  146.1515  158.8031 H   0  0  0  0  0  0  0  0  0  0  0  0
  153.1875  145.5095  158.6420 H   0  0  0  0  0  0  0  0  0  0  0  0
  152.4906  144.4856  157.4007 H   0  0  0  0  0  0  0  0  0  0  0  0
  1  2  1  0  0  0  0
  1 18  1  0  0  0  0
  1 19  1  0  0  0  0
  1 20  1  0  0  0  0
  2  3  1  0  0  0  0
  2  4  1  0  0  0  0
  2 21  1  0  0  0  0
  3 22  1  0  0  0  0
  3 23  1  0  0  0  0
  3 24  1  0  0  0  0
  4 17  1  0  0  0  0
  4  5  2  0  0  0  0
  5  6  1  0  0  0  0
  6  7  2  0  0  0  0
  7  8  1  0  0  0  0
  7 17  1  0  0  0  0
  8  9  1  0  0  0  0
  9 10  2  0  0  0  0
  9 11  1  0  0  0  0
 11 12  1  0  0  0  0
 11 25  1  0  0  0  0
 12 16  1  0  0  0  0
 12 13  1  0  0  0  0
 12 26  1  0  0  0  0
 13 14  1  0  0  0  0
 13 27  1  0  0  0  0
 13 28  1  0  0  0  0
 14 15  1  0  0  0  0
 14 29  1  0  0  0  0
 14 30  1  0  0  0  0
 15 16  1  0  0  0  0
 15 31  1  0  0  0  0
 15 32  1  0  0  0  0
 16 33  1  0  0  0  0
 16 34  1  0  0  0  0
M  CHG  1   8  -1
M  END
> <s_m_source_file>
AV-unprocessed.smi

> <i_m_source_file_index>
605

> <i_lp_mmshare_version>
43012

> <i_f3d_flags>
0

> <s_epik_input>
W0NIM11bQ0hdKFtDSDNdKWMxbm5jKHMxKVtOSF1DKD1PKVtOSF1bQ0hdMltDSDJdW0NIMl1bQ0gyXVtDSDJdMg==

> <s_epik_cmdline>
J2VwaWtfcHl0aG9uJywgJy1waCcsICc3LjAnLCAnLXRuJywgJzgnLCAnLW1hJywgJzIwMCcsICctbWV0YWxfYmluZGluZycsICctaW1hZScsICc8aW5maWxlLm1hZT4nLCAnLW9tYWUnLCAnPG91dGZpbGUubWFlPic=

> <r_lp_tautomer_probability>
1

> <r_epik_Ionization_Penalty>
4.57432

> <r_epik_Ionization_Penalty_Charging>
4.40687

> <r_epik_Ionization_Penalty_Neutral>
0.167446

> <r_epik_State_Penalty>
4.40652

> <r_epik_Charging_Adjusted_Penalty>
8.8134

> <i_epik_Tot_Q>
-1

> <i_epik_Tot_abs_Q>
1

> <r_epik_Metal_State_Penalty>
0.774635

> <b_epik_Metal_Only>
1

> <s_lp_Force_Field>
OPLS_2005

> <r_lp_Energy>
11.4858

> <b_lp_Chiralities_Consistent>
1

> <s_lp_Variant>
AV-unprocessed.smi:605-2

> <Gold.Version>
5.8.1

> <Gold.Id.Protein>
6NUR|6NUR_protein|mol2

> <Gold.PLP.Fitness>
42.1617

> <Gold.PLP.PLP>
-34.7711

> <Gold.PLP.part.hbond>
-3.0000

> <Gold.PLP.part.metal>
0.0000

> <Gold.PLP.part.buried>
-1.4897

> <Gold.PLP.part.nonpolar>
-29.5129

> <Gold.PLP.part.repulsive>
0.1136

> <Gold.PLP.ligand.clash>
0.0000

> <Gold.PLP.ligand.torsion>
0.8444

> <Gold.PLP.Chemscore.Hbond>
3.0000

> <Gold.PLP.Chemscore.CHOScore>
0.0000

> <Gold.PLP.Chemscore.Metal>
0.0000

> <Gold.Chemscore.Hbonds>
donor molecule, donor type, donor heavy atom, donor atom, acceptor molecule, acceptor atom, score
      P1  H  7989  7998       L1     5  1.00
      P1  H  7997  8010       L1     8  2.00

> <Gold.PLP.Chemscore.Internal.Correction>
0.0795

> <Gold.Rescore>
     Score         DG    S(hbond)    S(metal)    S(lipo)     H(rot)  DE(clash)    DE(int)     intcor
     15.73     -16.63       1.15        0.00      88.40       1.18       0.14       0.76       ----

> <Gold.Chemscore.Fitness>
15.7309

> <Gold.Chemscore.DG>
-16.6299

> <Gold.Chemscore.ZeroCoef>
-5.4800

> <Gold.Chemscore.Hbond>
1.1488

> <Gold.Chemscore.Metal>
0.0000

> <Gold.Chemscore.Lipo>
88.3954

> <Gold.Chemscore.Internal_Hbond>
0.0000

> <Gold.Chemscore.DEClash>
0.1356

> <Gold.Chemscore.DEInternal>
0.7634

> <Gold.Chemscore.Rot>
1.1833

> <Gold.Chemscore.Internal.Correction>
   9.000000E+99

> <Gold.Chemscore.Hbonds>
donor molecule, donor type, donor heavy atom, donor atom, acceptor molecule, acceptor atom, score
      P1  H  7989  7998       L1     5  0.77
      P1  H  7997  8010       L1     8  0.13

> <Gold.Chemscore.Hbond.Weighted>
-3.8370

> <Gold.Chemscore.Metal.Weighted>
-0.0000

> <Gold.Chemscore.Lipo.Weighted>
-10.3423

> <Gold.Chemscore.Internal_Hbond.Weighted>
0.0000

> <Gold.Chemscore.DEClash.Weighted>
0.1356

> <Gold.Chemscore.DEInternal.Weighted>
0.7634

> <Gold.Chemscore.Rot.Weighted>
3.0293

> <Gold.Chemscore.Internal.Correction.Weighted>
   9.000000E+99

> <Gold.Protein.RotatedTorsions>
[ 6907 6896 6895 6894 ] final  177.94 input  -60.11 | X-H torsion
[ 7974 7965 7964 7962 ] final   92.47 input  175.53 | X-H torsion
[ 8008 7997 7996 7995 ] final   26.67 input   59.86 | X-H torsion
[ 10167 10162 10161 10158 ] final   -7.15 input  -65.29 | X-H torsion
[ 10718 10713 10712 10709 ] final  155.47 input   66.30 | X-H torsion
[ 10763 10752 10751 10750 ] final   95.89 input  -60.55 | X-H torsion
[ 11005 11000 10999 10996 ] final  -73.38 input  -57.11 | X-H torsion

> <Gold.Protein.ActiveResidues>
 VAL166  LYS551  ARG553  GLY616  TRP617  ASP618  TYR619  PRO620  LYS621  CYS622 
 ASP623  PHE694  ASN695  SER759  ASP760  ASP761  ALA762  ILE779  LEU786  VAL792 
 PHE793  MET794  SER795  GLU796  ALA797  LYS798  CYS799  TRP800  GLU811  SER814 

> <Gold.Protein.RotatedAtoms>
  151.6958  133.3311  159.3253 H   0  0  0  0  0  0  0  0  0  0  0  0  # atno 6907 bound_to 6896
  150.7758  134.6659  159.6374 H   0  0  0  0  0  0  0  0  0  0  0  0  # atno 6908 bound_to 6896
  152.3799  134.6609  160.0198 H   0  0  0  0  0  0  0  0  0  0  0  0  # atno 6909 bound_to 6896
  145.4919  139.2276  143.2825 H   0  0  0  0  0  0  0  0  0  0  0  0  # atno 7974 bound_to 7965
  155.0309  140.3158  155.4758 H   0  0  0  0  0  0  0  0  0  0  0  0  # atno 8008 bound_to 7997
  156.2874  140.2180  156.5373 H   0  0  0  0  0  0  0  0  0  0  0  0  # atno 8009 bound_to 7997
  154.7371  140.0476  157.0766 H   0  0  0  0  0  0  0  0  0  0  0  0  # atno 8010 bound_to 7997
  140.7020  143.6113  150.8701 H   0  0  0  0  0  0  0  0  0  0  0  0  # atno 10167 bound_to 10162
  157.2179  131.0712  151.1930 H   0  0  0  0  0  0  0  0  0  0  0  0  # atno 10718 bound_to 10713
  153.2585  135.4238  155.0870 H   0  0  0  0  0  0  0  0  0  0  0  0  # atno 10763 bound_to 10752
  154.8410  135.3443  154.6411 H   0  0  0  0  0  0  0  0  0  0  0  0  # atno 10764 bound_to 10752
  153.6832  135.7037  153.5169 H   0  0  0  0  0  0  0  0  0  0  0  0  # atno 10765 bound_to 10752
  141.1622  133.6876  156.7202 H   0  0  0  0  0  0  0  0  0  0  0  0  # atno 11005 bound_to 11000
  146.2279  140.5713  142.8988 LP  0  0  0  0  0  0  0  0  0  0  0  0  # atno 17320 bound_to 7965
  144.7829  140.5877  143.6593 LP  0  0  0  0  0  0  0  0  0  0  0  0  # atno 17321 bound_to 7965
  139.9836  143.5924  152.2934 LP  0  0  0  0  0  0  0  0  0  0  0  0  # atno 17342 bound_to 10162
  139.6554  144.7662  151.2066 LP  0  0  0  0  0  0  0  0  0  0  0  0  # atno 17343 bound_to 10162
  157.3606  130.7129  149.6499 LP  0  0  0  0  0  0  0  0  0  0  0  0  # atno 17370 bound_to 10713
  155.9685  130.4227  150.4527 LP  0  0  0  0  0  0  0  0  0  0  0  0  # atno 17371 bound_to 10713
  140.2821  134.8308  157.3943 LP  0  0  0  0  0  0  0  0  0  0  0  0  # atno 17394 bound_to 11000
  140.1423  134.4955  155.8022 LP  0  0  0  0  0  0  0  0  0  0  0  0  # atno 17395 bound_to 11000

$$$$
