AV-unprocessed.smi:2460|AV-procd|sdf|9714|dock2
  -GOLD-   2272013353D 1   1.00000     0.00000
 Structure written by MMmdl.
 46 48  0  0  0  0  0  0  0  0  1 V2000
  146.6261  130.7218  153.0739 C   0  0  0  0  0  0  0  0  0  0  0  0
  147.8583  131.1523  153.8845 C   0  0  0  0  0  0  0  0  0  0  0  0
  148.8247  129.9728  154.0871 C   0  0  0  0  0  0  0  0  0  0  0  0
  148.5620  132.3700  153.2726 C   0  0  0  0  0  0  0  0  0  0  0  0
  149.0271  133.1482  154.4878 C   0  0  1  0  0  0  0  0  0  0  0  0
  149.2220  134.5627  154.1755 N   0  0  0  0  0  0  0  0  0  0  0  0
  149.5838  135.5057  155.0556 C   0  0  0  0  0  0  0  0  0  0  0  0
  149.8204  135.2755  156.2410 O   0  0  0  0  0  0  0  0  0  0  0  0
  149.6653  136.7103  154.4668 N   0  0  0  0  0  0  0  0  0  0  0  0
  149.9600  137.9651  155.0638 C   0  0  0  0  0  0  0  0  0  0  0  0
  150.2030  138.1747  156.4440 C   0  0  0  0  0  0  0  0  0  0  0  0
  150.4583  139.4048  156.9404 N   0  0  0  0  0  0  0  0  0  0  0  0
  150.4574  140.4210  156.0736 C   0  0  0  0  0  0  0  0  0  0  0  0
  150.7862  141.7740  156.6236 C   0  0  0  0  0  0  0  0  0  0  0  0
  151.1982  141.9433  158.0717 C   0  0  0  0  0  0  0  0  0  0  0  0
  149.8621  142.4559  157.6118 C   0  0  0  0  0  0  0  0  0  0  0  0
  150.2439  140.3439  154.7569 N   0  0  0  0  0  0  0  0  0  0  0  0
  149.9860  139.1187  154.2524 C   0  0  0  0  0  0  0  0  0  0  0  0
  147.8962  132.8782  155.5050 C   0  0  0  0  0  0  0  0  0  0  0  0
  148.4049  132.8418  156.9547 C   0  0  0  0  0  0  0  0  0  0  0  0
  146.6849  133.8257  155.3762 C   0  0  0  0  0  0  0  0  0  0  0  0
  147.4254  131.5718  155.1778 O   0  0  0  0  0  0  0  0  0  0  0  0
  146.9060  130.4089  152.0676 H   0  0  0  0  0  0  0  0  0  0  0  0
  145.9076  131.5369  152.9821 H   0  0  0  0  0  0  0  0  0  0  0  0
  146.1129  129.8867  153.5517 H   0  0  0  0  0  0  0  0  0  0  0  0
  149.2074  129.6083  153.1336 H   0  0  0  0  0  0  0  0  0  0  0  0
  148.3280  129.1395  154.5850 H   0  0  0  0  0  0  0  0  0  0  0  0
  149.6799  130.2573  154.7005 H   0  0  0  0  0  0  0  0  0  0  0  0
  149.3796  132.1018  152.6024 H   0  0  0  0  0  0  0  0  0  0  0  0
  147.8523  132.9667  152.6970 H   0  0  0  0  0  0  0  0  0  0  0  0
  149.9623  132.7049  154.8364 H   0  0  0  0  0  0  0  0  0  0  0  0
  149.0545  134.8429  153.2204 H   0  0  0  0  0  0  0  0  0  0  0  0
  149.5264  136.7275  153.4670 H   0  0  0  0  0  0  0  0  0  0  0  0
  150.1791  137.3773  157.1699 H   0  0  0  0  0  0  0  0  0  0  0  0
  151.2815  142.3936  155.8786 H   0  0  0  0  0  0  0  0  0  0  0  0
  151.2030  141.0587  158.7058 H   0  0  0  0  0  0  0  0  0  0  0  0
  151.9712  142.6773  158.2898 H   0  0  0  0  0  0  0  0  0  0  0  0
  149.7399  143.5332  157.5213 H   0  0  0  0  0  0  0  0  0  0  0  0
  148.9781  141.9123  157.9395 H   0  0  0  0  0  0  0  0  0  0  0  0
  149.8027  139.0603  153.1895 H   0  0  0  0  0  0  0  0  0  0  0  0
  148.7649  133.8197  157.2745 H   0  0  0  0  0  0  0  0  0  0  0  0
  149.2238  132.1310  157.0697 H   0  0  0  0  0  0  0  0  0  0  0  0
  147.6127  132.5419  157.6412 H   0  0  0  0  0  0  0  0  0  0  0  0
  146.9437  134.8489  155.6498 H   0  0  0  0  0  0  0  0  0  0  0  0
  145.8738  133.5102  156.0331 H   0  0  0  0  0  0  0  0  0  0  0  0
  146.2908  133.8409  154.3600 H   0  0  0  0  0  0  0  0  0  0  0  0
  1  2  1  0  0  0  0
  1 23  1  0  0  0  0
  1 24  1  0  0  0  0
  1 25  1  0  0  0  0
  2 22  1  0  0  0  0
  2  3  1  0  0  0  0
  2  4  1  0  0  0  0
  3 26  1  0  0  0  0
  3 27  1  0  0  0  0
  3 28  1  0  0  0  0
  4  5  1  0  0  0  0
  4 29  1  0  0  0  0
  4 30  1  0  0  0  0
  5  6  1  0  0  0  0
  5 19  1  0  0  0  0
  5 31  1  0  0  0  0
  6  7  1  0  0  0  0
  6 32  1  0  0  0  0
  7  8  2  0  0  0  0
  7  9  1  0  0  0  0
  9 10  1  0  0  0  0
  9 33  1  0  0  0  0
 10 18  1  0  0  0  0
 10 11  2  0  0  0  0
 11 12  1  0  0  0  0
 11 34  1  0  0  0  0
 12 13  2  0  0  0  0
 13 14  1  0  0  0  0
 13 17  1  0  0  0  0
 14 16  1  0  0  0  0
 14 15  1  0  0  0  0
 14 35  1  0  0  0  0
 15 16  1  0  0  0  0
 15 36  1  0  0  0  0
 15 37  1  0  0  0  0
 16 38  1  0  0  0  0
 16 39  1  0  0  0  0
 17 18  2  0  0  0  0
 18 40  1  0  0  0  0
 19 20  1  0  0  0  0
 19 21  1  0  0  0  0
 19 22  1  0  0  0  0
 20 41  1  0  0  0  0
 20 42  1  0  0  0  0
 20 43  1  0  0  0  0
 21 44  1  0  0  0  0
 21 45  1  0  0  0  0
 21 46  1  0  0  0  0
M  END
> <s_m_source_file>
AV-unprocessed.smi

> <i_m_source_file_index>
2460

> <i_lp_mmshare_version>
43012

> <i_f3d_flags>
0

> <s_epik_input>
W0NIM11DMShbQ0gzXSlbQ0gyXVtDQEhdKEMoTzEpKFtDSDNdKVtDSDNdKVtOSF1DKD1PKVtOSF1jMltjSF1uYyhuW2NIXTIpW0NIXTNbQ0gyXVtDSDJdMw==

> <s_epik_cmdline>
J2VwaWtfcHl0aG9uJywgJy1waCcsICc3LjAnLCAnLXRuJywgJzgnLCAnLW1hJywgJzIwMCcsICctbWV0YWxfYmluZGluZycsICctaW1hZScsICc8aW5maWxlLm1hZT4nLCAnLW9tYWUnLCAnPG91dGZpbGUubWFlPic=

> <r_lp_tautomer_probability>
1

> <r_epik_Ionization_Penalty>
2.38399e-05

> <r_epik_Ionization_Penalty_Charging>
0

> <r_epik_Ionization_Penalty_Neutral>
2.38399e-05

> <r_epik_State_Penalty>
-0

> <r_epik_Charging_Adjusted_Penalty>
0

> <i_epik_Tot_Q>
0

> <i_epik_Tot_abs_Q>
0

> <r_epik_Metal_State_Penalty>
-0

> <b_epik_Metal_Only>
0

> <s_lp_Force_Field>
OPLS_2005

> <r_lp_Energy>
18.1124

> <b_lp_Chiralities_Consistent>
1

> <s_lp_Variant>
AV-unprocessed.smi:2460-1

> <Gold.Version>
5.8.1

> <Gold.Id.Protein>
6NUR|6NUR_protein|mol2

> <Gold.PLP.Fitness>
41.2040

> <Gold.PLP.PLP>
-29.9545

> <Gold.PLP.part.hbond>
-3.1292

> <Gold.PLP.part.metal>
0.0000

> <Gold.PLP.part.buried>
-4.2316

> <Gold.PLP.part.nonpolar>
-23.0730

> <Gold.PLP.part.repulsive>
0.1740

> <Gold.PLP.ligand.clash>
0.0000

> <Gold.PLP.ligand.torsion>
0.0649

> <Gold.PLP.Chemscore.Hbond>
2.7500

> <Gold.PLP.Chemscore.CHOScore>
1.0000

> <Gold.PLP.Chemscore.Metal>
0.0000

> <Gold.Chemscore.Hbonds>
donor molecule, donor type, donor heavy atom, donor atom, acceptor molecule, acceptor atom, score
      L1  H     6    32       P1  7948  0.75
      L1  H     9    33       P1  7948  1.00
      P1  H  7989  7998       L1    17  0.90
      L1  C    18    40       P1  7957  1.00

> <Gold.PLP.Chemscore.Internal.Correction>
0.1294

> <Gold.Rescore>
     Score         DG    S(hbond)    S(metal)    S(lipo)     H(rot)  DE(clash)    DE(int)     intcor
     14.12     -16.72       1.98        0.00      65.31       1.18       0.00       2.59       ----

> <Gold.Chemscore.Fitness>
14.1237

> <Gold.Chemscore.DG>
-16.7220

> <Gold.Chemscore.ZeroCoef>
-5.4800

> <Gold.Chemscore.Hbond>
1.9814

> <Gold.Chemscore.Metal>
0.0000

> <Gold.Chemscore.Lipo>
65.3091

> <Gold.Chemscore.Internal_Hbond>
0.0000

> <Gold.Chemscore.DEClash>
0.0048

> <Gold.Chemscore.DEInternal>
2.5935

> <Gold.Chemscore.Rot>
1.1785

> <Gold.Chemscore.Internal.Correction>
   9.000000E+99

> <Gold.Chemscore.Hbonds>
donor molecule, donor type, donor heavy atom, donor atom, acceptor molecule, acceptor atom, score
      L1  H     6    32       P1  7948  0.09
      L1  H     9    33       P1  7948  0.78
      P1  H  7989  7998       L1    17  0.17

> <Gold.Chemscore.Hbond.Weighted>
-6.6178

> <Gold.Chemscore.Metal.Weighted>
-0.0000

> <Gold.Chemscore.Lipo.Weighted>
-7.6412

> <Gold.Chemscore.Internal_Hbond.Weighted>
0.0000

> <Gold.Chemscore.DEClash.Weighted>
0.0048

> <Gold.Chemscore.DEInternal.Weighted>
2.5935

> <Gold.Chemscore.Rot.Weighted>
3.0169

> <Gold.Chemscore.Internal.Correction.Weighted>
   9.000000E+99

> <Gold.Protein.RotatedTorsions>
[ 6907 6896 6895 6894 ] final  -43.44 input  -60.11 | X-H torsion
[ 7974 7965 7964 7962 ] final  -77.26 input  175.53 | X-H torsion
[ 8008 7997 7996 7995 ] final -140.51 input   59.86 | X-H torsion
[ 10167 10162 10161 10158 ] final   68.69 input  -65.29 | X-H torsion
[ 10718 10713 10712 10709 ] final   80.50 input   66.30 | X-H torsion
[ 10763 10752 10751 10750 ] final   68.42 input  -60.55 | X-H torsion
[ 11005 11000 10999 10996 ] final   11.07 input  -57.11 | X-H torsion

> <Gold.Protein.ActiveResidues>
 VAL166  LYS551  ARG553  GLY616  TRP617  ASP618  TYR619  PRO620  LYS621  CYS622 
 ASP623  PHE694  ASN695  SER759  ASP760  ASP761  ALA762  ILE779  LEU786  VAL792 
 PHE793  MET794  SER795  GLU796  ALA797  LYS798  CYS799  TRP800  GLU811  SER814 

> <Gold.Protein.RotatedAtoms>
  150.9439  134.8845  159.7629 H   0  0  0  0  0  0  0  0  0  0  0  0  # atno 6907 bound_to 6896
  152.5091  134.3903  159.9391 H   0  0  0  0  0  0  0  0  0  0  0  0  # atno 6908 bound_to 6896
  151.3922  133.3745  159.2757 H   0  0  0  0  0  0  0  0  0  0  0  0  # atno 6909 bound_to 6896
  145.6020  140.9406  143.1235 H   0  0  0  0  0  0  0  0  0  0  0  0  # atno 7974 bound_to 7965
  155.4626  140.0547  157.2989 H   0  0  0  0  0  0  0  0  0  0  0  0  # atno 8008 bound_to 7997
  154.4731  140.2049  155.9900 H   0  0  0  0  0  0  0  0  0  0  0  0  # atno 8009 bound_to 7997
  156.1088  140.3207  155.8048 H   0  0  0  0  0  0  0  0  0  0  0  0  # atno 8010 bound_to 7997
  140.0759  144.5112  150.7195 H   0  0  0  0  0  0  0  0  0  0  0  0  # atno 10167 bound_to 10162
  157.6808  130.9962  150.2089 H   0  0  0  0  0  0  0  0  0  0  0  0  # atno 10718 bound_to 10713
  153.0234  135.5248  154.7132 H   0  0  0  0  0  0  0  0  0  0  0  0  # atno 10763 bound_to 10752
  154.6208  135.2889  155.0330 H   0  0  0  0  0  0  0  0  0  0  0  0  # atno 10764 bound_to 10752
  154.1317  135.6592  153.4976 H   0  0  0  0  0  0  0  0  0  0  0  0  # atno 10765 bound_to 10752
  140.5073  134.0686  155.7809 H   0  0  0  0  0  0  0  0  0  0  0  0  # atno 11005 bound_to 11000
  144.7306  139.7739  143.7348 LP  0  0  0  0  0  0  0  0  0  0  0  0  # atno 17320 bound_to 7965
  146.1569  139.4670  143.0013 LP  0  0  0  0  0  0  0  0  0  0  0  0  # atno 17321 bound_to 7965
  140.7102  143.2499  151.4604 LP  0  0  0  0  0  0  0  0  0  0  0  0  # atno 17342 bound_to 10162
  139.5808  144.1714  152.1965 LP  0  0  0  0  0  0  0  0  0  0  0  0  # atno 17343 bound_to 10162
  156.2764  130.3728  149.7979 LP  0  0  0  0  0  0  0  0  0  0  0  0  # atno 17370 bound_to 10713
  156.5681  130.8413  151.3348 LP  0  0  0  0  0  0  0  0  0  0  0  0  # atno 17371 bound_to 10713
  141.1404  133.9148  157.2339 LP  0  0  0  0  0  0  0  0  0  0  0  0  # atno 17394 bound_to 11000
  139.9679  135.0137  156.9434 LP  0  0  0  0  0  0  0  0  0  0  0  0  # atno 17395 bound_to 11000

$$$$
