AV-unprocessed.smi:3112|AV-procd|sdf|11851|dock4
  -GOLD-   2272017233D 1   1.00000     0.00000
 Structure written by MMmdl.
 36 36  0  0  0  0  0  0  0  0  1 V2000
  147.1423  141.4064  153.2761 C   0  0  0  0  0  0  0  0  0  0  0  0
  148.2139  141.9953  154.2041 C   0  0  0  0  0  0  0  0  0  0  0  0
  149.1943  140.9394  154.7526 C   0  0  1  0  0  0  0  0  0  0  0  0
  149.8845  140.3582  153.6653 O   0  0  0  0  0  0  0  0  0  0  0  0
  150.2473  141.5320  155.7043 C   0  0  0  0  0  0  0  0  0  0  0  0
  149.6256  142.3649  156.7353 N   0  0  0  0  0  0  0  0  0  0  0  0
  150.1992  142.2198  158.0768 C   0  0  1  0  0  0  0  0  0  0  0  0
  150.1720  140.7254  158.4500 C   0  0  0  0  0  0  0  0  0  0  0  0
  151.6332  142.8242  158.1628 C   0  0  1  0  0  0  0  0  0  0  0  0
  151.7418  144.2802  157.6726 C   0  0  0  0  0  0  0  0  0  0  0  0
  152.1833  142.7215  159.5092 N   0  0  0  0  0  0  0  0  0  0  0  0
  153.2370  141.9436  159.9435 C   0  0  0  0  0  0  0  0  0  0  0  0
  153.3893  142.1709  161.2813 C   0  0  0  0  0  0  0  0  0  0  0  0
  152.3704  143.1173  161.5810 C   0  0  0  0  0  0  0  0  0  0  0  0
  151.6505  143.4449  160.5206 N   0  0  0  0  0  0  0  0  0  0  0  0
  146.4565  142.1826  152.9358 H   0  0  0  0  0  0  0  0  0  0  0  0
  146.5534  140.6451  153.7887 H   0  0  0  0  0  0  0  0  0  0  0  0
  147.5863  140.9490  152.3918 H   0  0  0  0  0  0  0  0  0  0  0  0
  148.7635  142.7783  153.6801 H   0  0  0  0  0  0  0  0  0  0  0  0
  147.7064  142.4873  155.0342 H   0  0  0  0  0  0  0  0  0  0  0  0
  148.6455  140.1483  155.2657 H   0  0  0  0  0  0  0  0  0  0  0  0
  149.3049  139.7491  153.2337 H   0  0  0  0  0  0  0  0  0  0  0  0
  150.8136  140.7216  156.1592 H   0  0  0  0  0  0  0  0  0  0  0  0
  150.9673  142.1197  155.1334 H   0  0  0  0  0  0  0  0  0  0  0  0
  149.6866  143.3369  156.4494 H   0  0  0  0  0  0  0  0  0  0  0  0
  149.5613  142.7312  158.7993 H   0  0  0  0  0  0  0  0  0  0  0  0
  150.4676  140.5587  159.4858 H   0  0  0  0  0  0  0  0  0  0  0  0
  150.8413  140.1449  157.8141 H   0  0  0  0  0  0  0  0  0  0  0  0
  149.1684  140.3130  158.3395 H   0  0  0  0  0  0  0  0  0  0  0  0
  152.2819  142.2238  157.5226 H   0  0  0  0  0  0  0  0  0  0  0  0
  151.5887  144.3493  156.5962 H   0  0  0  0  0  0  0  0  0  0  0  0
  152.7333  144.6875  157.8731 H   0  0  0  0  0  0  0  0  0  0  0  0
  151.0128  144.9252  158.1644 H   0  0  0  0  0  0  0  0  0  0  0  0
  153.7840  141.2985  159.2719 H   0  0  0  0  0  0  0  0  0  0  0  0
  154.1176  141.7288  161.9447 H   0  0  0  0  0  0  0  0  0  0  0  0
  152.1338  143.5730  162.5313 H   0  0  0  0  0  0  0  0  0  0  0  0
  1  2  1  0  0  0  0
  1 16  1  0  0  0  0
  1 17  1  0  0  0  0
  1 18  1  0  0  0  0
  2  3  1  0  0  0  0
  2 19  1  0  0  0  0
  2 20  1  0  0  0  0
  3  4  1  0  0  0  0
  3  5  1  0  0  0  0
  3 21  1  0  0  0  0
  4 22  1  0  0  0  0
  5  6  1  0  0  0  0
  5 23  1  0  0  0  0
  5 24  1  0  0  0  0
  6  7  1  0  0  0  0
  6 25  1  0  0  0  0
  7  8  1  0  0  0  0
  7  9  1  0  0  0  0
  7 26  1  0  0  0  0
  8 27  1  0  0  0  0
  8 28  1  0  0  0  0
  8 29  1  0  0  0  0
  9 10  1  0  0  0  0
  9 11  1  0  0  0  0
  9 30  1  0  0  0  0
 10 31  1  0  0  0  0
 10 32  1  0  0  0  0
 10 33  1  0  0  0  0
 11 15  1  0  0  0  0
 11 12  1  0  0  0  0
 12 13  2  0  0  0  0
 12 34  1  0  0  0  0
 13 14  1  0  0  0  0
 13 35  1  0  0  0  0
 14 15  2  0  0  0  0
 14 36  1  0  0  0  0
M  END
> <s_m_source_file>
AV-unprocessed.smi

> <i_m_source_file_index>
3112

> <i_lp_mmshare_version>
43012

> <i_f3d_flags>
0

> <s_epik_input>
W0NIM11bQ0gyXVtDQEhdKFtPSF0pW0NIMl1bTkhdW0NASF0oW0NIM10pW0NASF0oW0NIM10pbjFbY0hdW2NIXVtjSF1uMQ==

> <s_epik_cmdline>
J2VwaWtfcHl0aG9uJywgJy1waCcsICc3LjAnLCAnLXRuJywgJzgnLCAnLW1hJywgJzIwMCcsICctbWV0YWxfYmluZGluZycsICctaW1hZScsICc8aW5maWxlLm1hZT4nLCAnLW9tYWUnLCAnPG91dGZpbGUubWFlPic=

> <r_lp_tautomer_probability>
1

> <r_epik_Ionization_Penalty>
2.16876

> <r_epik_Ionization_Penalty_Charging>
0

> <r_epik_Ionization_Penalty_Neutral>
2.16876

> <r_epik_State_Penalty>
2.30854

> <r_epik_Charging_Adjusted_Penalty>
2.30854

> <i_epik_Tot_Q>
0

> <i_epik_Tot_abs_Q>
0

> <r_epik_Metal_State_Penalty>
2.3073

> <b_epik_Metal_Only>
0

> <s_lp_Force_Field>
OPLS_2005

> <r_lp_Energy>
16.1769

> <b_lp_Chiralities_Consistent>
1

> <s_lp_Variant>
AV-unprocessed.smi:3112-16

> <Gold.Version>
5.8.1

> <Gold.Id.Protein>
6NUR|6NUR_protein|mol2

> <Gold.PLP.Fitness>
47.9803

> <Gold.PLP.PLP>
-40.6493

> <Gold.PLP.part.hbond>
-4.0170

> <Gold.PLP.part.metal>
0.0000

> <Gold.PLP.part.buried>
-3.2461

> <Gold.PLP.part.nonpolar>
-32.0526

> <Gold.PLP.part.repulsive>
0.0720

> <Gold.PLP.ligand.clash>
0.0000

> <Gold.PLP.ligand.torsion>
0.4591

> <Gold.PLP.Chemscore.Hbond>
2.7040

> <Gold.PLP.Chemscore.CHOScore>
0.0000

> <Gold.PLP.Chemscore.Metal>
0.0000

> <Gold.Chemscore.Hbonds>
donor molecule, donor type, donor heavy atom, donor atom, acceptor molecule, acceptor atom, score
      L1  H     4    22       P1  7957  0.09
      L1  H     6    25       P1  8028  0.96
      P1  H  7989  7998       L1     4  0.61

> <Gold.PLP.Chemscore.Internal.Correction>
0.1372

> <Gold.Rescore>
     Score         DG    S(hbond)    S(metal)    S(lipo)     H(rot)  DE(clash)    DE(int)     intcor
     17.46     -18.22       2.23        0.00      95.72       2.31       0.17       0.60       ----

> <Gold.Chemscore.Fitness>
17.4564

> <Gold.Chemscore.DG>
-18.2198

> <Gold.Chemscore.ZeroCoef>
-5.4800

> <Gold.Chemscore.Hbond>
2.2322

> <Gold.Chemscore.Metal>
0.0000

> <Gold.Chemscore.Lipo>
95.7248

> <Gold.Chemscore.Internal_Hbond>
0.0000

> <Gold.Chemscore.DEClash>
0.1664

> <Gold.Chemscore.DEInternal>
0.5970

> <Gold.Chemscore.Rot>
2.3108

> <Gold.Chemscore.Internal.Correction>
   9.000000E+99

> <Gold.Chemscore.Hbonds>
donor molecule, donor type, donor heavy atom, donor atom, acceptor molecule, acceptor atom, score
      L1  H     4    22       P1  7957  0.11
      L1  H     6    25       P1  8028  0.92
      P1  H  7989  7998       L1     4  0.57

> <Gold.Chemscore.Hbond.Weighted>
-7.4557

> <Gold.Chemscore.Metal.Weighted>
-0.0000

> <Gold.Chemscore.Lipo.Weighted>
-11.1998

> <Gold.Chemscore.Internal_Hbond.Weighted>
0.0000

> <Gold.Chemscore.DEClash.Weighted>
0.1664

> <Gold.Chemscore.DEInternal.Weighted>
0.5970

> <Gold.Chemscore.Rot.Weighted>
5.9157

> <Gold.Chemscore.Internal.Correction.Weighted>
   9.000000E+99

> <Gold.Protein.RotatedTorsions>
[ 6907 6896 6895 6894 ] final  -18.71 input  -60.11 | X-H torsion
[ 7974 7965 7964 7962 ] final  139.27 input  175.53 | X-H torsion
[ 8008 7997 7996 7995 ] final   20.06 input   59.86 | X-H torsion
[ 10167 10162 10161 10158 ] final  166.47 input  -65.29 | X-H torsion
[ 10718 10713 10712 10709 ] final  -45.46 input   66.30 | X-H torsion
[ 10763 10752 10751 10750 ] final  -75.15 input  -60.55 | X-H torsion
[ 11005 11000 10999 10996 ] final  129.71 input  -57.11 | X-H torsion

> <Gold.Protein.ActiveResidues>
 VAL166  LYS551  ARG553  GLY616  TRP617  ASP618  TYR619  PRO620  LYS621  CYS622 
 ASP623  PHE694  ASN695  SER759  ASP760  ASP761  ALA762  ILE779  LEU786  VAL792 
 PHE793  MET794  SER795  GLU796  ALA797  LYS798  CYS799  TRP800  GLU811  SER814 

> <Gold.Protein.RotatedAtoms>
  151.2740  135.0693  159.9144 H   0  0  0  0  0  0  0  0  0  0  0  0  # atno 6907 bound_to 6896
  152.5345  134.0100  159.7944 H   0  0  0  0  0  0  0  0  0  0  0  0  # atno 6908 bound_to 6896
  151.0343  133.5712  159.2688 H   0  0  0  0  0  0  0  0  0  0  0  0  # atno 6909 bound_to 6896
  144.9295  139.5066  143.5625 H   0  0  0  0  0  0  0  0  0  0  0  0  # atno 7974 bound_to 7965
  154.9300  140.3039  155.5172 H   0  0  0  0  0  0  0  0  0  0  0  0  # atno 8008 bound_to 7997
  156.3004  140.2355  156.4296 H   0  0  0  0  0  0  0  0  0  0  0  0  # atno 8009 bound_to 7997
  154.8246  140.0421  157.1423 H   0  0  0  0  0  0  0  0  0  0  0  0  # atno 8010 bound_to 7997
  139.4925  144.4023  151.9395 H   0  0  0  0  0  0  0  0  0  0  0  0  # atno 10167 bound_to 10162
  156.2282  130.4170  149.8908 H   0  0  0  0  0  0  0  0  0  0  0  0  # atno 10718 bound_to 10713
  154.4827  135.5841  153.6401 H   0  0  0  0  0  0  0  0  0  0  0  0  # atno 10763 bound_to 10752
  152.9850  135.6093  154.3226 H   0  0  0  0  0  0  0  0  0  0  0  0  # atno 10764 bound_to 10752
  154.3119  135.2845  155.2541 H   0  0  0  0  0  0  0  0  0  0  0  0  # atno 10765 bound_to 10752
  139.9630  134.9597  156.9187 H   0  0  0  0  0  0  0  0  0  0  0  0  # atno 11005 bound_to 11000
  146.3240  139.8234  142.8922 LP  0  0  0  0  0  0  0  0  0  0  0  0  # atno 17320 bound_to 7965
  145.3165  141.0233  143.3524 LP  0  0  0  0  0  0  0  0  0  0  0  0  # atno 17321 bound_to 7965
  140.3463  144.3143  150.5957 LP  0  0  0  0  0  0  0  0  0  0  0  0  # atno 17342 bound_to 10162
  140.5523  143.2204  151.7906 LP  0  0  0  0  0  0  0  0  0  0  0  0  # atno 17343 bound_to 10162
  156.6531  130.8752  151.3535 LP  0  0  0  0  0  0  0  0  0  0  0  0  # atno 17370 bound_to 10713
  157.7120  130.9452  150.1123 LP  0  0  0  0  0  0  0  0  0  0  0  0  # atno 17371 bound_to 10713
  140.5457  134.0676  155.7354 LP  0  0  0  0  0  0  0  0  0  0  0  0  # atno 17394 bound_to 11000
  141.1309  133.9304  157.2538 LP  0  0  0  0  0  0  0  0  0  0  0  0  # atno 17395 bound_to 11000

$$$$
