AV-unprocessed.smi:995|AV-procd|sdf|4346|dock10
  -GOLD-   22720 2243D 1   1.00000     0.00000
 Structure written by MMmdl.
 37 38  0  0  0  0  0  0  0  0  1 V2000
  152.0219  135.2268  156.4567 O   0  0  0  0  0  0  0  0  0  0  0  0
  150.8055  135.3572  156.3184 C   0  0  0  0  0  0  0  0  0  0  0  0
  150.1489  136.5252  156.4531 N   0  0  0  0  0  0  0  0  0  0  0  0
  150.6615  137.7982  156.8228 C   0  0  0  0  0  0  0  0  0  0  0  0
  149.9077  138.5772  157.7236 C   0  0  0  0  0  0  0  0  0  0  0  0
  150.3989  139.8342  158.1229 C   0  0  0  0  0  0  0  0  0  0  0  0
  151.6379  140.2715  157.6143 C   0  0  0  0  0  0  0  0  0  0  0  0
  152.1134  141.5057  158.0068 O   0  0  0  0  0  0  0  0  0  0  0  0
  151.4953  142.1523  159.1166 C   0  0  0  0  0  0  0  0  0  0  0  0
  152.3659  143.3372  159.5610 C   0  0  0  0  0  0  0  0  0  0  0  0
  152.2185  143.5255  160.8731 F   0  0  0  0  0  0  0  0  0  0  0  0
  153.6388  143.0417  159.2938 F   0  0  0  0  0  0  0  0  0  0  0  0
  152.0091  144.6366  158.8217 C   0  0  0  0  0  0  0  0  0  0  0  0
  151.9474  144.4405  157.5043 F   0  0  0  0  0  0  0  0  0  0  0  0
  150.8443  145.1206  159.2531 F   0  0  0  0  0  0  0  0  0  0  0  0
  152.3787  139.5237  156.7600 N   0  0  0  0  0  0  0  0  0  0  0  0
  151.9018  138.3193  156.3798 C   0  0  0  0  0  0  0  0  0  0  0  0
  149.9468  134.1490  155.9137 C   0  0  1  0  0  0  0  0  0  0  0  0
  149.2399  134.3434  154.5519 C   0  0  0  0  0  0  0  0  0  0  0  0
  148.5003  133.1715  154.2333 O   0  0  0  0  0  0  0  0  0  0  0  0
  149.3450  132.0323  154.1506 C   0  0  0  0  0  0  0  0  0  0  0  0
  150.0380  131.8273  155.5069 C   0  0  0  0  0  0  0  0  0  0  0  0
  150.7813  132.9955  155.8277 O   0  0  0  0  0  0  0  0  0  0  0  0
  149.1666  136.5037  156.2194 H   0  0  0  0  0  0  0  0  0  0  0  0
  148.9614  138.2203  158.1034 H   0  0  0  0  0  0  0  0  0  0  0  0
  149.8360  140.4519  158.8071 H   0  0  0  0  0  0  0  0  0  0  0  0
  150.5028  142.5112  158.8388 H   0  0  0  0  0  0  0  0  0  0  0  0
  151.3782  141.4483  159.9423 H   0  0  0  0  0  0  0  0  0  0  0  0
  152.7607  145.4076  158.9935 H   0  0  0  0  0  0  0  0  0  0  0  0
  152.5534  137.7660  155.7219 H   0  0  0  0  0  0  0  0  0  0  0  0
  149.2024  133.9965  156.6973 H   0  0  0  0  0  0  0  0  0  0  0  0
  148.5462  135.1839  154.5915 H   0  0  0  0  0  0  0  0  0  0  0  0
  149.9594  134.5571  153.7594 H   0  0  0  0  0  0  0  0  0  0  0  0
  148.7435  131.1596  153.8959 H   0  0  0  0  0  0  0  0  0  0  0  0
  150.0788  132.1625  153.3536 H   0  0  0  0  0  0  0  0  0  0  0  0
  149.3087  131.6164  156.2907 H   0  0  0  0  0  0  0  0  0  0  0  0
  150.7166  130.9755  155.4605 H   0  0  0  0  0  0  0  0  0  0  0  0
  1  2  2  0  0  0  0
  2  3  1  0  0  0  0
  2 18  1  0  0  0  0
  3  4  1  0  0  0  0
  3 24  1  0  0  0  0
  4 17  1  0  0  0  0
  4  5  2  0  0  0  0
  5  6  1  0  0  0  0
  5 25  1  0  0  0  0
  6  7  2  0  0  0  0
  6 26  1  0  0  0  0
  7  8  1  0  0  0  0
  7 16  1  0  0  0  0
  8  9  1  0  0  0  0
  9 10  1  0  0  0  0
  9 27  1  0  0  0  0
  9 28  1  0  0  0  0
 10 11  1  0  0  0  0
 10 12  1  0  0  0  0
 10 13  1  0  0  0  0
 13 14  1  0  0  0  0
 13 15  1  0  0  0  0
 13 29  1  0  0  0  0
 16 17  2  0  0  0  0
 17 30  1  0  0  0  0
 18 23  1  0  0  0  0
 18 19  1  0  0  0  0
 18 31  1  0  0  0  0
 19 20  1  0  0  0  0
 19 32  1  0  0  0  0
 19 33  1  0  0  0  0
 20 21  1  0  0  0  0
 21 22  1  0  0  0  0
 21 34  1  0  0  0  0
 21 35  1  0  0  0  0
 22 23  1  0  0  0  0
 22 36  1  0  0  0  0
 22 37  1  0  0  0  0
M  END
> <s_m_source_file>
AV-unprocessed.smi

> <i_m_source_file_index>
995

> <i_lp_mmshare_version>
43012

> <i_f3d_flags>
0

> <s_epik_input>
TzFbQ0gyXVtDSDJdT1tDSDJdW0NASF0xQyg9TylbTkhdYzJbY0hdW2NIXWMobltjSF0yKU9bQ0gyXUMoRikoRilbQ0hdKEYpRg==

> <s_epik_cmdline>
J2VwaWtfcHl0aG9uJywgJy1waCcsICc3LjAnLCAnLXRuJywgJzgnLCAnLW1hJywgJzIwMCcsICctbWV0YWxfYmluZGluZycsICctaW1hZScsICc8aW5maWxlLm1hZT4nLCAnLW9tYWUnLCAnPG91dGZpbGUubWFlPic=

> <r_lp_tautomer_probability>
1

> <r_epik_Ionization_Penalty>
2.54436e-06

> <r_epik_Ionization_Penalty_Charging>
0

> <r_epik_Ionization_Penalty_Neutral>
2.54436e-06

> <r_epik_State_Penalty>
-0

> <r_epik_Charging_Adjusted_Penalty>
0

> <i_epik_Tot_Q>
0

> <i_epik_Tot_abs_Q>
0

> <r_epik_Metal_State_Penalty>
-0

> <b_epik_Metal_Only>
0

> <s_lp_Force_Field>
OPLS_2005

> <r_lp_Energy>
9.88959

> <b_lp_Chiralities_Consistent>
1

> <s_lp_Variant>
AV-unprocessed.smi:995-2

> <Gold.Version>
5.8.1

> <Gold.Id.Protein>
6NUR|6NUR_protein|mol2

> <Gold.PLP.Fitness>
46.5465

> <Gold.PLP.PLP>
-42.9644

> <Gold.PLP.part.hbond>
-2.0000

> <Gold.PLP.part.metal>
0.0000

> <Gold.PLP.part.buried>
-5.6136

> <Gold.PLP.part.nonpolar>
-35.0715

> <Gold.PLP.part.repulsive>
0.1709

> <Gold.PLP.ligand.clash>
0.0000

> <Gold.PLP.ligand.torsion>
1.2619

> <Gold.PLP.Chemscore.Hbond>
2.0000

> <Gold.PLP.Chemscore.CHOScore>
0.0000

> <Gold.PLP.Chemscore.Metal>
0.0000

> <Gold.Chemscore.Hbonds>
donor molecule, donor type, donor heavy atom, donor atom, acceptor molecule, acceptor atom, score
      P1  H  7997  8010       L1    16  0.88
      P1  H 10752 10764       L1     1  1.00

> <Gold.PLP.Chemscore.Internal.Correction>
0.1058

> <Gold.Rescore>
     Score         DG    S(hbond)    S(metal)    S(lipo)     H(rot)  DE(clash)    DE(int)     intcor
     12.85     -14.68       1.91        0.00      70.41       2.12       0.01       1.82       ----

> <Gold.Chemscore.Fitness>
12.8507

> <Gold.Chemscore.DG>
-14.6813

> <Gold.Chemscore.ZeroCoef>
-5.4800

> <Gold.Chemscore.Hbond>
1.9110

> <Gold.Chemscore.Metal>
0.0000

> <Gold.Chemscore.Lipo>
70.4147

> <Gold.Chemscore.Internal_Hbond>
0.0000

> <Gold.Chemscore.DEClash>
0.0135

> <Gold.Chemscore.DEInternal>
1.8171

> <Gold.Chemscore.Rot>
2.1172

> <Gold.Chemscore.Internal.Correction>
   9.000000E+99

> <Gold.Chemscore.Hbonds>
donor molecule, donor type, donor heavy atom, donor atom, acceptor molecule, acceptor atom, score
      P1  H  7997  8010       L1    16  0.75
      P1  H 10752 10764       L1     1  0.99

> <Gold.Chemscore.Hbond.Weighted>
-6.3828

> <Gold.Chemscore.Metal.Weighted>
-0.0000

> <Gold.Chemscore.Lipo.Weighted>
-8.2385

> <Gold.Chemscore.Internal_Hbond.Weighted>
0.0000

> <Gold.Chemscore.DEClash.Weighted>
0.0135

> <Gold.Chemscore.DEInternal.Weighted>
1.8171

> <Gold.Chemscore.Rot.Weighted>
5.4200

> <Gold.Chemscore.Internal.Correction.Weighted>
   9.000000E+99

> <Gold.Protein.RotatedTorsions>
[ 6907 6896 6895 6894 ] final  -69.02 input  -60.11 | X-H torsion
[ 7974 7965 7964 7962 ] final  -58.98 input  175.53 | X-H torsion
[ 8008 7997 7996 7995 ] final   58.00 input   59.86 | X-H torsion
[ 10167 10162 10161 10158 ] final  -21.87 input  -65.29 | X-H torsion
[ 10718 10713 10712 10709 ] final  -26.69 input   66.30 | X-H torsion
[ 10763 10752 10751 10750 ] final  -23.86 input  -60.55 | X-H torsion
[ 11005 11000 10999 10996 ] final   32.19 input  -57.11 | X-H torsion

> <Gold.Protein.ActiveResidues>
 VAL166  LYS551  ARG553  GLY616  TRP617  ASP618  TYR619  PRO620  LYS621  CYS622 
 ASP623  PHE694  ASN695  SER759  ASP760  ASP761  ALA762  ILE779  LEU786  VAL792 
 PHE793  MET794  SER795  GLU796  ALA797  LYS798  CYS799  TRP800  GLU811  SER814 

> <Gold.Protein.RotatedAtoms>
  150.7326  134.5656  159.5864 H   0  0  0  0  0  0  0  0  0  0  0  0  # atno 6907 bound_to 6896
  152.3108  134.7496  160.0346 H   0  0  0  0  0  0  0  0  0  0  0  0  # atno 6908 bound_to 6896
  151.8045  133.3338  159.3573 H   0  0  0  0  0  0  0  0  0  0  0  0  # atno 6909 bound_to 6896
  145.8329  140.8468  143.0074 H   0  0  0  0  0  0  0  0  0  0  0  0  # atno 7974 bound_to 7965
  155.5429  140.3484  155.4451 H   0  0  0  0  0  0  0  0  0  0  0  0  # atno 8008 bound_to 7997
  156.0638  140.1346  156.9936 H   0  0  0  0  0  0  0  0  0  0  0  0  # atno 8009 bound_to 7997
  154.4493  140.0980  156.6541 H   0  0  0  0  0  0  0  0  0  0  0  0  # atno 8010 bound_to 7997
  140.7284  143.4587  151.0410 H   0  0  0  0  0  0  0  0  0  0  0  0  # atno 10167 bound_to 10162
  156.4480  130.4478  149.7009 H   0  0  0  0  0  0  0  0  0  0  0  0  # atno 10718 bound_to 10713
  153.6746  135.6970  153.5136 H   0  0  0  0  0  0  0  0  0  0  0  0  # atno 10763 bound_to 10752
  153.2531  135.4268  155.0817 H   0  0  0  0  0  0  0  0  0  0  0  0  # atno 10764 bound_to 10752
  154.8417  135.3536  154.6290 H   0  0  0  0  0  0  0  0  0  0  0  0  # atno 10765 bound_to 10752
  140.2760  134.3027  155.7814 H   0  0  0  0  0  0  0  0  0  0  0  0  # atno 11005 bound_to 11000
  144.6738  140.0699  143.7473 LP  0  0  0  0  0  0  0  0  0  0  0  0  # atno 17320 bound_to 7965
  145.9551  139.2761  143.1189 LP  0  0  0  0  0  0  0  0  0  0  0  0  # atno 17321 bound_to 7965
  139.8270  143.7742  152.3179 LP  0  0  0  0  0  0  0  0  0  0  0  0  # atno 17342 bound_to 10162
  139.7845  144.7433  151.0042 LP  0  0  0  0  0  0  0  0  0  0  0  0  # atno 17343 bound_to 10162
  156.3847  130.7597  151.2593 LP  0  0  0  0  0  0  0  0  0  0  0  0  # atno 17370 bound_to 10713
  157.7504  131.0285  150.4053 LP  0  0  0  0  0  0  0  0  0  0  0  0  # atno 17371 bound_to 10713
  141.2170  133.7496  156.9408 LP  0  0  0  0  0  0  0  0  0  0  0  0  # atno 17394 bound_to 11000
  140.1328  134.9345  157.2360 LP  0  0  0  0  0  0  0  0  0  0  0  0  # atno 17395 bound_to 11000

$$$$
