AV-unprocessed.smi:3031|AV-procd|sdf|11545|dock4
  -GOLD-   2272016493D 1   1.00000     0.00000
 Structure written by MMmdl.
 47 48  0  0  0  0  0  0  0  0  2 V2000
  152.7741  143.1699  162.3424 C   0  0  0  0  0  0  0  0  0  0  0  0
  152.5545  143.0565  160.8614 C   0  0  0  0  0  0  0  0  0  0  0  0
  152.5394  144.1057  159.8990 C   0  0  0  0  0  0  0  0  0  0  0  0
  152.3242  143.6717  158.6678 N   0  0  0  0  0  0  0  0  0  0  0  0
  152.1941  142.3348  158.7997 N   0  0  0  0  0  0  0  0  0  0  0  0
  151.9526  141.5140  157.6261 C   0  0  0  0  0  0  0  0  0  0  0  0
  150.4558  141.2036  157.4256 C   0  0  2  0  0  0  0  0  0  0  0  0
  150.0361  140.0021  158.2914 C   0  0  0  0  0  0  0  0  0  0  0  0
  150.1786  140.9676  156.0040 N   0  0  0  0  0  0  0  0  0  0  0  0
  148.7879  141.1570  155.5930 C   0  0  0  0  0  0  0  0  0  0  0  0
  148.5155  140.4858  154.2368 C   0  0  2  0  0  0  0  0  0  0  0  0
  149.5361  140.8912  153.3469 O   0  0  0  0  0  0  0  0  0  0  0  0
  147.1568  140.8941  153.6286 C   0  0  0  0  0  0  0  0  0  0  0  0
  146.2965  139.7214  153.3296 N   0  3  0  0  0  0  0  0  0  0  0  0
  146.9024  138.7727  152.3619 C   0  0  0  0  0  0  0  0  0  0  0  0
  145.9356  137.6125  152.0707 C   0  0  0  0  0  0  0  0  0  0  0  0
  145.5922  136.9605  153.2871 O   0  0  0  0  0  0  0  0  0  0  0  0
  144.9315  137.8368  154.1917 C   0  0  0  0  0  0  0  0  0  0  0  0
  145.8647  139.0049  154.5534 C   0  0  0  0  0  0  0  0  0  0  0  0
  152.3264  141.9364  160.1130 C   0  0  0  0  0  0  0  0  0  0  0  0
  152.1269  143.9254  162.7882 H   0  0  0  0  0  0  0  0  0  0  0  0
  153.8021  143.4488  162.5746 H   0  0  0  0  0  0  0  0  0  0  0  0
  152.5716  142.2301  162.8566 H   0  0  0  0  0  0  0  0  0  0  0  0
  152.6798  145.1646  160.0581 H   0  0  0  0  0  0  0  0  0  0  0  0
  152.3630  142.0215  156.7521 H   0  0  0  0  0  0  0  0  0  0  0  0
  152.5187  140.5882  157.7407 H   0  0  0  0  0  0  0  0  0  0  0  0
  149.8861  142.0714  157.7609 H   0  0  0  0  0  0  0  0  0  0  0  0
  150.3052  140.1641  159.3356 H   0  0  0  0  0  0  0  0  0  0  0  0
  150.5259  139.0845  157.9636 H   0  0  0  0  0  0  0  0  0  0  0  0
  148.9592  139.8371  158.2674 H   0  0  0  0  0  0  0  0  0  0  0  0
  150.4856  140.0343  155.7503 H   0  0  0  0  0  0  0  0  0  0  0  0
  148.1032  140.7566  156.3405 H   0  0  0  0  0  0  0  0  0  0  0  0
  148.5789  142.2249  155.5155 H   0  0  0  0  0  0  0  0  0  0  0  0
  148.5851  139.4049  154.3584 H   0  0  0  0  0  0  0  0  0  0  0  0
  149.7014  140.1894  152.7355 H   0  0  0  0  0  0  0  0  0  0  0  0
  146.6157  141.5656  154.2969 H   0  0  0  0  0  0  0  0  0  0  0  0
  147.3402  141.4636  152.7157 H   0  0  0  0  0  0  0  0  0  0  0  0
  147.1473  139.2795  151.4292 H   0  0  0  0  0  0  0  0  0  0  0  0
  147.8373  138.3819  152.7671 H   0  0  0  0  0  0  0  0  0  0  0  0
  145.0356  137.9710  151.5682 H   0  0  0  0  0  0  0  0  0  0  0  0
  146.4063  136.8897  151.4037 H   0  0  0  0  0  0  0  0  0  0  0  0
  144.0020  138.2014  153.7514 H   0  0  0  0  0  0  0  0  0  0  0  0
  144.6615  137.2802  155.0893 H   0  0  0  0  0  0  0  0  0  0  0  0
  146.7402  138.6335  155.0886 H   0  0  0  0  0  0  0  0  0  0  0  0
  145.3458  139.6924  155.2225 H   0  0  0  0  0  0  0  0  0  0  0  0
  152.2532  140.8983  160.4023 H   0  0  0  0  0  0  0  0  0  0  0  0
  145.4563  140.0863  152.9033 H   0  0  0  0  0  0  0  0  0  0  0  0
  1  2  1  0  0  0  0
  1 21  1  0  0  0  0
  1 22  1  0  0  0  0
  1 23  1  0  0  0  0
  2 20  2  0  0  0  0
  2  3  1  0  0  0  0
  3  4  2  0  0  0  0
  3 24  1  0  0  0  0
  4  5  1  0  0  0  0
  5  6  1  0  0  0  0
  5 20  1  0  0  0  0
  6  7  1  0  0  0  0
  6 25  1  0  0  0  0
  6 26  1  0  0  0  0
  7  8  1  0  0  0  0
  7  9  1  0  0  0  0
  7 27  1  0  0  0  0
  8 28  1  0  0  0  0
  8 29  1  0  0  0  0
  8 30  1  0  0  0  0
  9 10  1  0  0  0  0
  9 31  1  0  0  0  0
 10 11  1  0  0  0  0
 10 32  1  0  0  0  0
 10 33  1  0  0  0  0
 11 12  1  0  0  0  0
 11 13  1  0  0  0  0
 11 34  1  0  0  0  0
 12 35  1  0  0  0  0
 13 14  1  0  0  0  0
 13 36  1  0  0  0  0
 13 37  1  0  0  0  0
 14 19  1  0  0  0  0
 14 15  1  0  0  0  0
 14 47  1  0  0  0  0
 15 16  1  0  0  0  0
 15 38  1  0  0  0  0
 15 39  1  0  0  0  0
 16 17  1  0  0  0  0
 16 40  1  0  0  0  0
 16 41  1  0  0  0  0
 17 18  1  0  0  0  0
 18 19  1  0  0  0  0
 18 42  1  0  0  0  0
 18 43  1  0  0  0  0
 19 44  1  0  0  0  0
 19 45  1  0  0  0  0
 20 46  1  0  0  0  0
M  CHG  1  14   1
M  END
> <s_m_source_file>
AV-unprocessed.smi

> <i_m_source_file_index>
3031

> <i_lp_mmshare_version>
43012

> <i_f3d_flags>
0

> <s_epik_input>
W0NIM11jMVtjSF1ubihbY0hdMSlbQ0gyXVtDQEhdKFtDSDNdKVtOSF1bQ0gyXVtDQEhdKFtPSF0pW0NIMl1OMltDSDJdW0NIMl1PW0NIMl1bQ0gyXTI=

> <s_epik_cmdline>
J2VwaWtfcHl0aG9uJywgJy1waCcsICc3LjAnLCAnLXRuJywgJzgnLCAnLW1hJywgJzIwMCcsICctbWV0YWxfYmluZGluZycsICctaW1hZScsICc8aW5maWxlLm1hZT4nLCAnLW9tYWUnLCAnPG91dGZpbGUubWFlPic=

> <r_epik_Ionization_Penalty>
0.467051

> <r_epik_Ionization_Penalty_Charging>
0.202493

> <r_epik_Ionization_Penalty_Neutral>
0.264558

> <r_epik_State_Penalty>
1.34287

> <r_epik_Charging_Adjusted_Penalty>
1.54537

> <i_epik_Tot_Q>
1

> <i_epik_Tot_abs_Q>
1

> <r_epik_Metal_State_Penalty>
1.34281

> <b_epik_Metal_Only>
0

> <s_lp_Force_Field>
OPLS_2005

> <r_lp_Energy>
23.7878

> <b_lp_Chiralities_Consistent>
1

> <s_lp_Variant>
AV-unprocessed.smi:3031-5

> <Gold.Version>
5.8.1

> <Gold.Id.Protein>
6NUR|6NUR_protein|mol2

> <Gold.PLP.Fitness>
47.1423

> <Gold.PLP.PLP>
-39.0479

> <Gold.PLP.part.hbond>
-3.5168

> <Gold.PLP.part.metal>
0.0000

> <Gold.PLP.part.buried>
-4.9917

> <Gold.PLP.part.nonpolar>
-30.4673

> <Gold.PLP.part.repulsive>
0.1688

> <Gold.PLP.ligand.clash>
0.0000

> <Gold.PLP.ligand.torsion>
1.7006

> <Gold.PLP.Chemscore.Hbond>
3.7646

> <Gold.PLP.Chemscore.CHOScore>
0.0000

> <Gold.PLP.Chemscore.Metal>
0.0000

> <Gold.Chemscore.Hbonds>
donor molecule, donor type, donor heavy atom, donor atom, acceptor molecule, acceptor atom, score
      L1  H    12    35       P1  7957  0.69
      L1  H    14    47       P1 10175  2.00
      P1  H  7989  7998       L1    12  0.02
      P1  H  8011  8017       L1    12  1.00

> <Gold.PLP.Chemscore.Internal.Correction>
0.2019

> <Gold.Rescore>
     Score         DG    S(hbond)    S(metal)    S(lipo)     H(rot)  DE(clash)    DE(int)     intcor
     15.09     -17.35       2.17        0.00      97.63       2.65       0.34       1.92       ----

> <Gold.Chemscore.Fitness>
15.0914

> <Gold.Chemscore.DG>
-17.3479

> <Gold.Chemscore.ZeroCoef>
-5.4800

> <Gold.Chemscore.Hbond>
2.1661

> <Gold.Chemscore.Metal>
0.0000

> <Gold.Chemscore.Lipo>
97.6285

> <Gold.Chemscore.Internal_Hbond>
0.0000

> <Gold.Chemscore.DEClash>
0.3359

> <Gold.Chemscore.DEInternal>
1.9207

> <Gold.Chemscore.Rot>
2.6521

> <Gold.Chemscore.Internal.Correction>
   9.000000E+99

> <Gold.Chemscore.Hbonds>
donor molecule, donor type, donor heavy atom, donor atom, acceptor molecule, acceptor atom, score
      L1  H    12    35       P1  7957  0.68
      L1  H    14    47       P1 10175  0.99
      P1  H  8011  8017       L1    12  0.39

> <Gold.Chemscore.Hbond.Weighted>
-7.2347

> <Gold.Chemscore.Metal.Weighted>
-0.0000

> <Gold.Chemscore.Lipo.Weighted>
-11.4225

> <Gold.Chemscore.Internal_Hbond.Weighted>
0.0000

> <Gold.Chemscore.DEClash.Weighted>
0.3359

> <Gold.Chemscore.DEInternal.Weighted>
1.9207

> <Gold.Chemscore.Rot.Weighted>
6.7894

> <Gold.Chemscore.Internal.Correction.Weighted>
   9.000000E+99

> <Gold.Protein.RotatedTorsions>
[ 6907 6896 6895 6894 ] final  -19.06 input  -60.11 | X-H torsion
[ 7974 7965 7964 7962 ] final  -20.49 input  175.53 | X-H torsion
[ 8008 7997 7996 7995 ] final   83.39 input   59.86 | X-H torsion
[ 10167 10162 10161 10158 ] final -115.03 input  -65.29 | X-H torsion
[ 10718 10713 10712 10709 ] final   71.84 input   66.30 | X-H torsion
[ 10763 10752 10751 10750 ] final  -57.07 input  -60.55 | X-H torsion
[ 11005 11000 10999 10996 ] final  -33.52 input  -57.11 | X-H torsion

> <Gold.Protein.ActiveResidues>
 VAL166  LYS551  ARG553  GLY616  TRP617  ASP618  TYR619  PRO620  LYS621  CYS622 
 ASP623  PHE694  ASN695  SER759  ASP760  ASP761  ALA762  ILE779  LEU786  VAL792 
 PHE793  MET794  SER795  GLU796  ALA797  LYS798  CYS799  TRP800  GLU811  SER814 

> <Gold.Protein.RotatedAtoms>
  151.2688  135.0678  159.9125 H   0  0  0  0  0  0  0  0  0  0  0  0  # atno 6907 bound_to 6896
  152.5354  134.0152  159.7967 H   0  0  0  0  0  0  0  0  0  0  0  0  # atno 6908 bound_to 6896
  151.0387  133.5675  159.2684 H   0  0  0  0  0  0  0  0  0  0  0  0  # atno 6909 bound_to 6896
  146.1785  140.4210  142.8504 H   0  0  0  0  0  0  0  0  0  0  0  0  # atno 7974 bound_to 7965
  155.9233  140.3420  155.6190 H   0  0  0  0  0  0  0  0  0  0  0  0  # atno 8008 bound_to 7997
  155.7247  140.0788  157.2334 H   0  0  0  0  0  0  0  0  0  0  0  0  # atno 8009 bound_to 7997
  154.4073  140.1599  156.2429 H   0  0  0  0  0  0  0  0  0  0  0  0  # atno 8010 bound_to 7997
  140.0945  143.4669  152.1849 H   0  0  0  0  0  0  0  0  0  0  0  0  # atno 10167 bound_to 10162
  157.6472  130.9549  150.0845 H   0  0  0  0  0  0  0  0  0  0  0  0  # atno 10718 bound_to 10713
  154.2166  135.6385  153.5132 H   0  0  0  0  0  0  0  0  0  0  0  0  # atno 10763 bound_to 10752
  152.9978  135.5487  154.6158 H   0  0  0  0  0  0  0  0  0  0  0  0  # atno 10764 bound_to 10752
  154.5608  135.2909  155.0895 H   0  0  0  0  0  0  0  0  0  0  0  0  # atno 10765 bound_to 10752
  140.9641  133.7147  156.1417 H   0  0  0  0  0  0  0  0  0  0  0  0  # atno 11005 bound_to 11000
  144.8275  140.6653  143.6312 LP  0  0  0  0  0  0  0  0  0  0  0  0  # atno 17320 bound_to 7965
  145.4144  139.1574  143.4108 LP  0  0  0  0  0  0  0  0  0  0  0  0  # atno 17321 bound_to 7965
  139.5706  144.7460  151.3902 LP  0  0  0  0  0  0  0  0  0  0  0  0  # atno 17342 bound_to 10162
  140.7011  143.7630  150.7404 LP  0  0  0  0  0  0  0  0  0  0  0  0  # atno 17343 bound_to 10162
  156.1812  130.3650  149.9033 LP  0  0  0  0  0  0  0  0  0  0  0  0  # atno 17370 bound_to 10713
  156.6985  130.8923  151.3596 LP  0  0  0  0  0  0  0  0  0  0  0  0  # atno 17371 bound_to 10713
  140.7424  134.4135  157.5553 LP  0  0  0  0  0  0  0  0  0  0  0  0  # atno 17394 bound_to 11000
  139.8888  134.8846  156.2453 LP  0  0  0  0  0  0  0  0  0  0  0  0  # atno 17395 bound_to 11000

$$$$
