AV-unprocessed.smi:3139|AV-procd|sdf|11956|dock4
  -GOLD-   2272017353D 1   1.00000     0.00000
 Structure written by MMmdl.
 33 33  0  0  0  0  0  0  0  0  2 V2000
  153.6510  141.2862  160.4521 C   0  0  0  0  0  0  0  0  0  0  0  0
  152.4461  141.2188  159.4908 C   0  0  2  0  0  0  0  0  0  0  0  0
  152.5544  140.0730  158.4709 C   0  0  0  0  0  0  0  0  0  0  0  0
  153.5867  139.4072  158.3767 O   0  0  0  0  0  0  0  0  0  0  0  0
  151.4643  139.8481  157.7205 N   0  0  0  0  0  0  0  0  0  0  0  0
  151.3160  138.7980  156.7125 C   0  0  0  0  0  0  0  0  0  0  0  0
  150.6899  137.4850  157.2645 C   0  0  0  0  0  0  0  0  0  0  0  0
  149.5774  137.8391  158.2723 C   0  0  0  0  0  0  0  0  0  0  0  0
  150.0721  136.6679  156.1034 C   0  0  0  0  0  0  0  0  0  0  0  0
  151.7594  136.6432  158.0093 C   0  0  0  0  0  0  0  0  0  0  0  0
  152.7179  136.1745  157.3549 O   0  0  0  0  0  0  0  0  0  0  0  0
  151.5942  136.4712  159.2380 O   0  5  0  0  0  0  0  0  0  0  0  0
  152.2102  142.4880  158.8109 N   0  0  0  0  0  0  0  0  0  0  0  0
  152.9530  143.6480  158.9020 C   0  0  0  0  0  0  0  0  0  0  0  0
  152.3401  144.5911  158.1279 C   0  0  0  0  0  0  0  0  0  0  0  0
  151.2052  143.9120  157.6046 C   0  0  0  0  0  0  0  0  0  0  0  0
  151.1248  142.6587  158.0200 N   0  0  0  0  0  0  0  0  0  0  0  0
  153.7678  140.3507  161.0004 H   0  0  0  0  0  0  0  0  0  0  0  0
  153.5173  142.0799  161.1876 H   0  0  0  0  0  0  0  0  0  0  0  0
  154.5865  141.4786  159.9251 H   0  0  0  0  0  0  0  0  0  0  0  0
  151.5638  141.0153  160.1000 H   0  0  0  0  0  0  0  0  0  0  0  0
  150.6569  140.4351  157.8734 H   0  0  0  0  0  0  0  0  0  0  0  0
  150.6842  139.2063  155.9227 H   0  0  0  0  0  0  0  0  0  0  0  0
  152.2714  138.5836  156.2307 H   0  0  0  0  0  0  0  0  0  0  0  0
  148.7833  138.4139  157.7946 H   0  0  0  0  0  0  0  0  0  0  0  0
  149.9577  138.4385  159.1008 H   0  0  0  0  0  0  0  0  0  0  0  0
  149.1218  136.9434  158.6969 H   0  0  0  0  0  0  0  0  0  0  0  0
  149.3486  137.2645  155.5471 H   0  0  0  0  0  0  0  0  0  0  0  0
  149.5474  135.7828  156.4657 H   0  0  0  0  0  0  0  0  0  0  0  0
  150.8288  136.3337  155.3927 H   0  0  0  0  0  0  0  0  0  0  0  0
  153.8468  143.7051  159.5058 H   0  0  0  0  0  0  0  0  0  0  0  0
  152.6518  145.6121  157.9657 H   0  0  0  0  0  0  0  0  0  0  0  0
  150.4401  144.2908  156.9431 H   0  0  0  0  0  0  0  0  0  0  0  0
  1  2  1  0  0  0  0
  1 18  1  0  0  0  0
  1 19  1  0  0  0  0
  1 20  1  0  0  0  0
  2  3  1  0  0  0  0
  2 13  1  0  0  0  0
  2 21  1  0  0  0  0
  3  4  2  0  0  0  0
  3  5  1  0  0  0  0
  5  6  1  0  0  0  0
  5 22  1  0  0  0  0
  6  7  1  0  0  0  0
  6 23  1  0  0  0  0
  6 24  1  0  0  0  0
  7  8  1  0  0  0  0
  7  9  1  0  0  0  0
  7 10  1  0  0  0  0
  8 25  1  0  0  0  0
  8 26  1  0  0  0  0
  8 27  1  0  0  0  0
  9 28  1  0  0  0  0
  9 29  1  0  0  0  0
  9 30  1  0  0  0  0
 10 11  2  0  0  0  0
 10 12  1  0  0  0  0
 13 17  1  0  0  0  0
 13 14  1  0  0  0  0
 14 15  2  0  0  0  0
 14 31  1  0  0  0  0
 15 16  1  0  0  0  0
 15 32  1  0  0  0  0
 16 17  2  0  0  0  0
 16 33  1  0  0  0  0
M  CHG  1  12  -1
M  END
> <s_m_source_file>
AV-unprocessed.smi

> <i_m_source_file_index>
3139

> <i_lp_mmshare_version>
43012

> <i_f3d_flags>
0

> <s_epik_input>
bjFbY0hdW2NIXVtjSF1uMVtDQEhdKFtDSDNdKUMoPU8pW05IXVtDSDJdQyhbQ0gzXSkoW0NIM10pQyg9TylbT0hd

> <s_epik_cmdline>
J2VwaWtfcHl0aG9uJywgJy1waCcsICc3LjAnLCAnLXRuJywgJzgnLCAnLW1hJywgJzIwMCcsICctbWV0YWxfYmluZGluZycsICctaW1hZScsICc8aW5maWxlLm1hZT4nLCAnLW9tYWUnLCAnPG91dGZpbGUubWFlPic=

> <r_lp_tautomer_probability>
1

> <r_epik_Ionization_Penalty>
0.00184643

> <r_epik_Ionization_Penalty_Charging>
0.00181045

> <r_epik_Ionization_Penalty_Neutral>
3.59763e-05

> <r_epik_State_Penalty>
0.00122842

> <r_epik_Charging_Adjusted_Penalty>
0.00303887

> <i_epik_Tot_Q>
-1

> <i_epik_Tot_abs_Q>
1

> <r_epik_Metal_State_Penalty>
-0

> <b_epik_Metal_Only>
0

> <s_lp_Force_Field>
OPLS_2005

> <r_lp_Energy>
5.55707

> <b_lp_Chiralities_Consistent>
1

> <s_lp_Variant>
AV-unprocessed.smi:3139-1

> <Gold.Version>
5.8.1

> <Gold.Id.Protein>
6NUR|6NUR_protein|mol2

> <Gold.PLP.Fitness>
46.8019

> <Gold.PLP.PLP>
-31.1265

> <Gold.PLP.part.hbond>
-3.0000

> <Gold.PLP.part.metal>
0.0000

> <Gold.PLP.part.buried>
-4.4097

> <Gold.PLP.part.nonpolar>
-24.9483

> <Gold.PLP.part.repulsive>
0.1515

> <Gold.PLP.ligand.clash>
0.0000

> <Gold.PLP.ligand.torsion>
0.6372

> <Gold.PLP.Chemscore.Hbond>
4.6000

> <Gold.PLP.Chemscore.CHOScore>
1.0000

> <Gold.PLP.Chemscore.Metal>
0.0000

> <Gold.Chemscore.Hbonds>
donor molecule, donor type, donor heavy atom, donor atom, acceptor molecule, acceptor atom, score
      P1  H  6896  6907       L1    12  1.57
      P1  H  7997  8009       L1     4  1.00
      P1  H 10752 10764       L1    11  0.46
      L1  C    16    33       P1  8028  1.00

> <Gold.PLP.Chemscore.Internal.Correction>
0.1497

> <Gold.Rescore>
     Score         DG    S(hbond)    S(metal)    S(lipo)     H(rot)  DE(clash)    DE(int)     intcor
     14.85     -16.85       2.71        0.00      70.53       2.32       0.00       2.00       ----

> <Gold.Chemscore.Fitness>
14.8549

> <Gold.Chemscore.DG>
-16.8502

> <Gold.Chemscore.ZeroCoef>
-5.4800

> <Gold.Chemscore.Hbond>
2.7148

> <Gold.Chemscore.Metal>
0.0000

> <Gold.Chemscore.Lipo>
70.5345

> <Gold.Chemscore.Internal_Hbond>
0.0000

> <Gold.Chemscore.DEClash>
0.0000

> <Gold.Chemscore.DEInternal>
1.9953

> <Gold.Chemscore.Rot>
2.3241

> <Gold.Chemscore.Internal.Correction>
   9.000000E+99

> <Gold.Chemscore.Hbonds>
donor molecule, donor type, donor heavy atom, donor atom, acceptor molecule, acceptor atom, score
      P1  H  6896  6907       L1    12  0.74
      P1  H  7997  8009       L1     4  0.94
      P1  H 10752 10764       L1    11  0.23

> <Gold.Chemscore.Hbond.Weighted>
-9.0674

> <Gold.Chemscore.Metal.Weighted>
-0.0000

> <Gold.Chemscore.Lipo.Weighted>
-8.2525

> <Gold.Chemscore.Internal_Hbond.Weighted>
0.0000

> <Gold.Chemscore.DEClash.Weighted>
0.0000

> <Gold.Chemscore.DEInternal.Weighted>
1.9953

> <Gold.Chemscore.Rot.Weighted>
5.9498

> <Gold.Chemscore.Internal.Correction.Weighted>
   9.000000E+99

> <Gold.Protein.RotatedTorsions>
[ 6907 6896 6895 6894 ] final  -26.12 input  -60.11 | X-H torsion
[ 7974 7965 7964 7962 ] final  103.01 input  175.53 | X-H torsion
[ 8008 7997 7996 7995 ] final  130.52 input   59.86 | X-H torsion
[ 10167 10162 10161 10158 ] final -150.52 input  -65.29 | X-H torsion
[ 10718 10713 10712 10709 ] final   64.72 input   66.30 | X-H torsion
[ 10763 10752 10751 10750 ] final  -16.07 input  -60.55 | X-H torsion
[ 11005 11000 10999 10996 ] final  -68.03 input  -57.11 | X-H torsion

> <Gold.Protein.ActiveResidues>
 VAL166  LYS551  ARG553  GLY616  TRP617  ASP618  TYR619  PRO620  LYS621  CYS622 
 ASP623  PHE694  ASN695  SER759  ASP760  ASP761  ALA762  ILE779  LEU786  VAL792 
 PHE793  MET794  SER795  GLU796  ALA797  LYS798  CYS799  TRP800  GLU811  SER814 

> <Gold.Protein.RotatedAtoms>
  151.1655  135.0293  159.8728 H   0  0  0  0  0  0  0  0  0  0  0  0  # atno 6907 bound_to 6896
  152.5450  134.1230  159.8417 H   0  0  0  0  0  0  0  0  0  0  0  0  # atno 6908 bound_to 6896
  151.1330  133.4977  159.2631 H   0  0  0  0  0  0  0  0  0  0  0  0  # atno 6909 bound_to 6896
  145.3516  139.2438  143.3555 H   0  0  0  0  0  0  0  0  0  0  0  0  # atno 7974 bound_to 7965
  156.2956  140.2594  156.2775 H   0  0  0  0  0  0  0  0  0  0  0  0  # atno 8008 bound_to 7997
  154.9635  140.0392  157.2219 H   0  0  0  0  0  0  0  0  0  0  0  0  # atno 8009 bound_to 7997
  154.7925  140.2814  155.5986 H   0  0  0  0  0  0  0  0  0  0  0  0  # atno 8010 bound_to 7997
  139.7347  143.8754  152.2545 H   0  0  0  0  0  0  0  0  0  0  0  0  # atno 10167 bound_to 10162
  157.6058  130.9175  149.9883 H   0  0  0  0  0  0  0  0  0  0  0  0  # atno 10718 bound_to 10713
  153.5530  135.7011  153.5582 H   0  0  0  0  0  0  0  0  0  0  0  0  # atno 10763 bound_to 10752
  153.3498  135.3998  155.1637 H   0  0  0  0  0  0  0  0  0  0  0  0  # atno 10764 bound_to 10752
  154.8658  135.3762  154.5042 H   0  0  0  0  0  0  0  0  0  0  0  0  # atno 10765 bound_to 10752
  141.1522  133.6732  156.6383 H   0  0  0  0  0  0  0  0  0  0  0  0  # atno 11005 bound_to 11000
  146.2965  140.4133  142.8719 LP  0  0  0  0  0  0  0  0  0  0  0  0  # atno 17320 bound_to 7965
  144.8713  140.7276  143.6045 LP  0  0  0  0  0  0  0  0  0  0  0  0  # atno 17321 bound_to 7965
  139.8687  144.7079  150.9013 LP  0  0  0  0  0  0  0  0  0  0  0  0  # atno 17342 bound_to 10162
  140.7777  143.3756  151.1569 LP  0  0  0  0  0  0  0  0  0  0  0  0  # atno 17343 bound_to 10162
  156.1145  130.3648  149.9992 LP  0  0  0  0  0  0  0  0  0  0  0  0  # atno 17370 bound_to 10713
  156.8084  130.9316  151.3644 LP  0  0  0  0  0  0  0  0  0  0  0  0  # atno 17371 bound_to 10713
  140.3413  134.7846  157.4400 LP  0  0  0  0  0  0  0  0  0  0  0  0  # atno 17394 bound_to 11000
  140.0936  134.5568  155.8420 LP  0  0  0  0  0  0  0  0  0  0  0  0  # atno 17395 bound_to 11000

$$$$
