AV-unprocessed.smi:2009|AV-procd|sdf|8146|dock10
  -GOLD-   2272010383D 1   1.00000     0.00000
 Structure written by MMmdl.
 38 39  0  0  0  0  0  0  0  0  1 V2000
  145.9005  137.7439  152.1819 C   0  0  0  0  0  0  0  0  0  0  0  0
  145.5411  136.2504  152.2018 C   0  0  1  0  0  0  0  0  0  0  0  0
  145.2070  135.6791  150.8045 C   0  0  0  0  0  0  0  0  0  0  0  0
  145.2085  134.2260  150.7471 N   0  0  0  0  0  0  0  0  0  0  0  0
  144.1641  133.3780  150.4423 C   0  0  0  0  0  0  0  0  0  0  0  0
  144.6404  132.1008  150.5214 C   0  0  0  0  0  0  0  0  0  0  0  0
  146.0039  132.2708  150.8903 C   0  0  0  0  0  0  0  0  0  0  0  0
  146.3399  133.5428  151.0281 N   0  0  0  0  0  0  0  0  0  0  0  0
  146.6375  135.5039  152.8242 N   0  0  0  0  0  0  0  0  0  0  0  0
  146.9952  135.7111  154.4989 S   0  0  0  0  0  0  0  0  0  0  0  0
  147.4300  137.1020  154.6997 O   0  0  0  0  0  0  0  0  0  0  0  0
  145.9006  135.1394  155.2977 O   0  0  0  0  0  0  0  0  0  0  0  0
  148.3701  134.6651  154.6235 N   0  0  0  0  0  0  0  0  0  0  0  0
  149.1940  134.7925  155.8418 C   0  0  0  0  0  0  0  0  0  0  0  0
  150.5624  134.1113  155.6705 C   0  0  0  0  0  0  0  0  0  0  0  0
  150.4063  132.6484  155.2455 C   0  0  0  0  0  0  0  0  0  0  0  0
  149.5673  132.5801  153.9664 C   0  0  0  0  0  0  0  0  0  0  0  0
  148.2072  133.2714  154.1564 C   0  0  0  0  0  0  0  0  0  0  0  0
  145.1046  138.3308  151.7228 H   0  0  0  0  0  0  0  0  0  0  0  0
  146.8186  137.9320  151.6243 H   0  0  0  0  0  0  0  0  0  0  0  0
  146.0467  138.1241  153.1935 H   0  0  0  0  0  0  0  0  0  0  0  0
  144.6593  136.1337  152.8328 H   0  0  0  0  0  0  0  0  0  0  0  0
  144.2403  136.0423  150.4549 H   0  0  0  0  0  0  0  0  0  0  0  0
  145.9382  136.0424  150.0814 H   0  0  0  0  0  0  0  0  0  0  0  0
  143.1811  133.7508  150.1950 H   0  0  0  0  0  0  0  0  0  0  0  0
  144.0973  131.1846  150.3447 H   0  0  0  0  0  0  0  0  0  0  0  0
  146.7539  131.5132  151.0634 H   0  0  0  0  0  0  0  0  0  0  0  0
  147.4746  135.4434  152.2452 H   0  0  0  0  0  0  0  0  0  0  0  0
  149.3430  135.8465  156.0764 H   0  0  0  0  0  0  0  0  0  0  0  0
  148.6528  134.3552  156.6819 H   0  0  0  0  0  0  0  0  0  0  0  0
  151.1457  134.6501  154.9228 H   0  0  0  0  0  0  0  0  0  0  0  0
  151.1252  134.1699  156.6023 H   0  0  0  0  0  0  0  0  0  0  0  0
  151.3842  132.1956  155.0806 H   0  0  0  0  0  0  0  0  0  0  0  0
  149.9228  132.0788  156.0400 H   0  0  0  0  0  0  0  0  0  0  0  0
  150.1072  133.0565  153.1468 H   0  0  0  0  0  0  0  0  0  0  0  0
  149.4176  131.5405  153.6745 H   0  0  0  0  0  0  0  0  0  0  0  0
  147.6022  132.7247  154.8808 H   0  0  0  0  0  0  0  0  0  0  0  0
  147.6591  133.2514  153.2150 H   0  0  0  0  0  0  0  0  0  0  0  0
  1  2  1  0  0  0  0
  1 19  1  0  0  0  0
  1 20  1  0  0  0  0
  1 21  1  0  0  0  0
  2  3  1  0  0  0  0
  2  9  1  0  0  0  0
  2 22  1  0  0  0  0
  3  4  1  0  0  0  0
  3 23  1  0  0  0  0
  3 24  1  0  0  0  0
  4  8  1  0  0  0  0
  4  5  1  0  0  0  0
  5  6  2  0  0  0  0
  5 25  1  0  0  0  0
  6  7  1  0  0  0  0
  6 26  1  0  0  0  0
  7  8  2  0  0  0  0
  7 27  1  0  0  0  0
  9 10  1  0  0  0  0
  9 28  1  0  0  0  0
 10 11  2  0  0  0  0
 10 12  2  0  0  0  0
 10 13  1  0  0  0  0
 13 18  1  0  0  0  0
 13 14  1  0  0  0  0
 14 15  1  0  0  0  0
 14 29  1  0  0  0  0
 14 30  1  0  0  0  0
 15 16  1  0  0  0  0
 15 31  1  0  0  0  0
 15 32  1  0  0  0  0
 16 17  1  0  0  0  0
 16 33  1  0  0  0  0
 16 34  1  0  0  0  0
 17 18  1  0  0  0  0
 17 35  1  0  0  0  0
 17 36  1  0  0  0  0
 18 37  1  0  0  0  0
 18 38  1  0  0  0  0
M  END
> <s_m_source_file>
AV-unprocessed.smi

> <i_m_source_file_index>
2009

> <i_lp_mmshare_version>
43012

> <i_f3d_flags>
0

> <s_epik_input>
bjFbY0hdW2NIXVtjSF1uMVtDSDJdW0NAQEhdKFtDSDNdKVtOSF1TKD1PKSg9TylOMltDSDJdW0NIMl1bQ0gyXVtDSDJdW0NIMl0y

> <s_epik_cmdline>
J2VwaWtfcHl0aG9uJywgJy1waCcsICc3LjAnLCAnLXRuJywgJzgnLCAnLW1hJywgJzIwMCcsICctbWV0YWxfYmluZGluZycsICctaW1hZScsICc8aW5maWxlLm1hZT4nLCAnLW9tYWUnLCAnPG91dGZpbGUubWFlPic=

> <r_lp_tautomer_probability>
1

> <r_epik_Ionization_Penalty>
0.0313937

> <r_epik_Ionization_Penalty_Charging>
0

> <r_epik_Ionization_Penalty_Neutral>
0.0313937

> <r_epik_State_Penalty>
0.0259441

> <r_epik_Charging_Adjusted_Penalty>
0.0259441

> <i_epik_Tot_Q>
0

> <i_epik_Tot_abs_Q>
0

> <r_epik_Metal_State_Penalty>
0.365037

> <b_epik_Metal_Only>
0

> <s_lp_Force_Field>
OPLS_2005

> <r_lp_Energy>
8.11637

> <b_lp_Chiralities_Consistent>
1

> <s_lp_Variant>
AV-unprocessed.smi:2009-2

> <Gold.Version>
5.8.1

> <Gold.Id.Protein>
6NUR|6NUR_protein|mol2

> <Gold.PLP.Fitness>
37.8905

> <Gold.PLP.PLP>
-29.5911

> <Gold.PLP.part.hbond>
-1.0000

> <Gold.PLP.part.metal>
0.0000

> <Gold.PLP.part.buried>
-5.0813

> <Gold.PLP.part.nonpolar>
-24.9555

> <Gold.PLP.part.repulsive>
0.4336

> <Gold.PLP.ligand.clash>
0.0000

> <Gold.PLP.ligand.torsion>
0.5892

> <Gold.PLP.Chemscore.Hbond>
0.8960

> <Gold.PLP.Chemscore.CHOScore>
2.0000

> <Gold.PLP.Chemscore.Metal>
0.0000

> <Gold.Chemscore.Hbonds>
donor molecule, donor type, donor heavy atom, donor atom, acceptor molecule, acceptor atom, score
      L1  H     9    28       P1  7948  0.91
      L1  C     5    25       P1 10186  1.00
      L1  C     7    27       P1 10747  1.00

> <Gold.PLP.Chemscore.Internal.Correction>
0.7899

> <Gold.Rescore>
     Score         DG    S(hbond)    S(metal)    S(lipo)     H(rot)  DE(clash)    DE(int)     intcor
     11.74     -12.35       0.95        0.00      71.41       1.82       0.04       0.57       ----

> <Gold.Chemscore.Fitness>
11.7403

> <Gold.Chemscore.DG>
-12.3517

> <Gold.Chemscore.ZeroCoef>
-5.4800

> <Gold.Chemscore.Hbond>
0.9537

> <Gold.Chemscore.Metal>
0.0000

> <Gold.Chemscore.Lipo>
71.4107

> <Gold.Chemscore.Internal_Hbond>
0.0000

> <Gold.Chemscore.DEClash>
0.0417

> <Gold.Chemscore.DEInternal>
0.5696

> <Gold.Chemscore.Rot>
1.8237

> <Gold.Chemscore.Internal.Correction>
   9.000000E+99

> <Gold.Chemscore.Hbonds>
donor molecule, donor type, donor heavy atom, donor atom, acceptor molecule, acceptor atom, score
      L1  H     9    28       P1  7948  0.88

> <Gold.Chemscore.Hbond.Weighted>
-3.1852

> <Gold.Chemscore.Metal.Weighted>
-0.0000

> <Gold.Chemscore.Lipo.Weighted>
-8.3550

> <Gold.Chemscore.Internal_Hbond.Weighted>
0.0000

> <Gold.Chemscore.DEClash.Weighted>
0.0417

> <Gold.Chemscore.DEInternal.Weighted>
0.5696

> <Gold.Chemscore.Rot.Weighted>
4.6686

> <Gold.Chemscore.Internal.Correction.Weighted>
   9.000000E+99

> <Gold.Protein.RotatedTorsions>
[ 6907 6896 6895 6894 ] final -119.15 input  -60.11 | X-H torsion
[ 7974 7965 7964 7962 ] final  -34.23 input  175.53 | X-H torsion
[ 8008 7997 7996 7995 ] final   82.55 input   59.86 | X-H torsion
[ 10167 10162 10161 10158 ] final   26.07 input  -65.29 | X-H torsion
[ 10718 10713 10712 10709 ] final  -58.93 input   66.30 | X-H torsion
[ 10763 10752 10751 10750 ] final  109.29 input  -60.55 | X-H torsion
[ 11005 11000 10999 10996 ] final   91.88 input  -57.11 | X-H torsion

> <Gold.Protein.ActiveResidues>
 VAL166  LYS551  ARG553  GLY616  TRP617  ASP618  TYR619  PRO620  LYS621  CYS622 
 ASP623  PHE694  ASN695  SER759  ASP760  ASP761  ALA762  ILE779  LEU786  VAL792 
 PHE793  MET794  SER795  GLU796  ALA797  LYS798  CYS799  TRP800  GLU811  SER814 

> <Gold.Protein.RotatedAtoms>
  150.8281  133.8138  159.3110 H   0  0  0  0  0  0  0  0  0  0  0  0  # atno 6907 bound_to 6896
  151.5876  135.1053  160.0041 H   0  0  0  0  0  0  0  0  0  0  0  0  # atno 6908 bound_to 6896
  152.4363  133.7326  159.6652 H   0  0  0  0  0  0  0  0  0  0  0  0  # atno 6909 bound_to 6896
  146.0846  140.6014  142.8892 H   0  0  0  0  0  0  0  0  0  0  0  0  # atno 7974 bound_to 7965
  155.9121  140.3427  155.6107 H   0  0  0  0  0  0  0  0  0  0  0  0  # atno 8008 bound_to 7997
  155.7374  140.0803  157.2280 H   0  0  0  0  0  0  0  0  0  0  0  0  # atno 8009 bound_to 7997
  154.4057  140.1577  156.2565 H   0  0  0  0  0  0  0  0  0  0  0  0  # atno 8010 bound_to 7997
  140.5053  144.0248  150.6349 H   0  0  0  0  0  0  0  0  0  0  0  0  # atno 10167 bound_to 10162
  156.1099  130.4176  150.0645 H   0  0  0  0  0  0  0  0  0  0  0  0  # atno 10718 bound_to 10713
  153.4327  135.3784  155.2180 H   0  0  0  0  0  0  0  0  0  0  0  0  # atno 10763 bound_to 10752
  154.8750  135.3844  154.4248 H   0  0  0  0  0  0  0  0  0  0  0  0  # atno 10764 bound_to 10752
  153.4783  135.7088  153.6016 H   0  0  0  0  0  0  0  0  0  0  0  0  # atno 10765 bound_to 10752
  139.8832  134.8700  156.3491 H   0  0  0  0  0  0  0  0  0  0  0  0  # atno 11005 bound_to 11000
  144.7317  140.4690  143.6933 LP  0  0  0  0  0  0  0  0  0  0  0  0  # atno 17320 bound_to 7965
  145.6154  139.1518  143.3052 LP  0  0  0  0  0  0  0  0  0  0  0  0  # atno 17321 bound_to 7965
  140.3556  143.2938  152.0440 LP  0  0  0  0  0  0  0  0  0  0  0  0  # atno 17342 bound_to 10162
  139.4882  144.6341  151.7010 LP  0  0  0  0  0  0  0  0  0  0  0  0  # atno 17343 bound_to 10162
  156.8611  130.9492  151.3618 LP  0  0  0  0  0  0  0  0  0  0  0  0  # atno 17370 bound_to 10713
  157.6279  130.8706  149.9221 LP  0  0  0  0  0  0  0  0  0  0  0  0  # atno 17371 bound_to 10713
  140.9606  133.7391  156.0396 LP  0  0  0  0  0  0  0  0  0  0  0  0  # atno 17394 bound_to 11000
  140.7994  134.3526  157.5443 LP  0  0  0  0  0  0  0  0  0  0  0  0  # atno 17395 bound_to 11000

$$$$
