AV-unprocessed.smi:3255|AV-procd|sdf|12457|dock2
  -GOLD-   2272018353D 1   1.00000     0.00000
 Structure written by MMmdl.
 39 40  0  0  0  0  0  0  0  0  2 V2000
  147.3771  141.6994  154.2791 C   0  0  0  0  0  0  0  0  0  0  0  0
  148.5455  140.8522  153.7516 C   0  0  2  0  0  0  0  0  0  0  0  0
  148.0051  139.8079  152.8849 N   0  0  0  0  0  0  0  0  0  0  0  0
  147.1389  138.8583  153.2637 C   0  0  0  0  0  0  0  0  0  0  0  0
  146.7188  138.7225  154.4132 O   0  0  0  0  0  0  0  0  0  0  0  0
  146.7545  138.0953  152.2308 N   0  0  0  0  0  0  0  0  0  0  0  0
  145.7520  137.0357  152.2984 C   0  0  0  0  0  0  0  0  0  0  0  0
  145.5638  136.3284  150.9419 C   0  0  0  0  0  0  0  0  0  0  0  0
  145.4198  134.8743  151.0684 N   0  0  0  0  0  0  0  0  0  0  0  0
  146.3645  133.9779  151.4994 C   0  0  0  0  0  0  0  0  0  0  0  0
  145.7850  132.7373  151.4320 C   0  0  0  0  0  0  0  0  0  0  0  0
  144.5117  132.9288  150.9673 N   0  3  0  0  0  0  0  0  0  0  0  0
  144.2901  134.2292  150.7505 C   0  0  0  0  0  0  0  0  0  0  0  0
  149.3682  140.2165  154.8935 C   0  0  2  0  0  0  0  0  0  0  0  0
  149.9587  141.2175  155.8895 C   0  0  0  0  0  0  0  0  0  0  0  0
  151.1852  140.5070  156.4424 C   0  0  0  0  0  0  0  0  0  0  0  0
  151.3812  139.3142  155.5049 C   0  0  0  0  0  0  0  0  0  0  0  0
  150.5362  139.5793  154.3956 O   0  0  0  0  0  0  0  0  0  0  0  0
  147.7316  142.5346  154.8834 H   0  0  0  0  0  0  0  0  0  0  0  0
  146.7018  141.1054  154.8958 H   0  0  0  0  0  0  0  0  0  0  0  0
  146.7951  142.1191  153.4577 H   0  0  0  0  0  0  0  0  0  0  0  0
  149.1941  141.5087  153.1686 H   0  0  0  0  0  0  0  0  0  0  0  0
  148.2868  139.8347  151.9160 H   0  0  0  0  0  0  0  0  0  0  0  0
  147.1612  138.2810  151.3254 H   0  0  0  0  0  0  0  0  0  0  0  0
  146.0936  136.3098  153.0365 H   0  0  0  0  0  0  0  0  0  0  0  0
  144.8006  137.4194  152.6710 H   0  0  0  0  0  0  0  0  0  0  0  0
  144.6851  136.7148  150.4234 H   0  0  0  0  0  0  0  0  0  0  0  0
  146.4214  136.5200  150.2956 H   0  0  0  0  0  0  0  0  0  0  0  0
  147.3560  134.2798  151.8035 H   0  0  0  0  0  0  0  0  0  0  0  0
  146.1746  131.7582  151.6698 H   0  0  0  0  0  0  0  0  0  0  0  0
  143.3814  134.6696  150.3801 H   0  0  0  0  0  0  0  0  0  0  0  0
  148.7677  139.4762  155.4264 H   0  0  0  0  0  0  0  0  0  0  0  0
  150.2683  142.1272  155.3735 H   0  0  0  0  0  0  0  0  0  0  0  0
  149.2494  141.4997  156.6682 H   0  0  0  0  0  0  0  0  0  0  0  0
  152.0508  141.1704  156.4320 H   0  0  0  0  0  0  0  0  0  0  0  0
  151.0307  140.1720  157.4686 H   0  0  0  0  0  0  0  0  0  0  0  0
  152.4180  139.1926  155.1913 H   0  0  0  0  0  0  0  0  0  0  0  0
  151.0599  138.3893  155.9861 H   0  0  0  0  0  0  0  0  0  0  0  0
  143.8349  132.1936  150.8050 H   0  0  0  0  0  0  0  0  0  0  0  0
  1  2  1  0  0  0  0
  1 19  1  0  0  0  0
  1 20  1  0  0  0  0
  1 21  1  0  0  0  0
  2  3  1  0  0  0  0
  2 14  1  0  0  0  0
  2 22  1  0  0  0  0
  3  4  1  0  0  0  0
  3 23  1  0  0  0  0
  4  5  2  0  0  0  0
  4  6  1  0  0  0  0
  6  7  1  0  0  0  0
  6 24  1  0  0  0  0
  7  8  1  0  0  0  0
  7 25  1  0  0  0  0
  7 26  1  0  0  0  0
  8  9  1  0  0  0  0
  8 27  1  0  0  0  0
  8 28  1  0  0  0  0
  9 13  1  0  0  0  0
  9 10  1  0  0  0  0
 10 11  2  0  0  0  0
 10 29  1  0  0  0  0
 11 12  1  0  0  0  0
 11 30  1  0  0  0  0
 12 13  2  0  0  0  0
 12 39  1  0  0  0  0
 13 31  1  0  0  0  0
 14 18  1  0  0  0  0
 14 15  1  0  0  0  0
 14 32  1  0  0  0  0
 15 16  1  0  0  0  0
 15 33  1  0  0  0  0
 15 34  1  0  0  0  0
 16 17  1  0  0  0  0
 16 35  1  0  0  0  0
 16 36  1  0  0  0  0
 17 18  1  0  0  0  0
 17 37  1  0  0  0  0
 17 38  1  0  0  0  0
M  CHG  1  12   1
M  END
> <s_m_source_file>
AV-unprocessed.smi

> <i_m_source_file_index>
3255

> <i_lp_mmshare_version>
43012

> <i_f3d_flags>
0

> <s_epik_input>
TzFbQ0gyXVtDSDJdW0NIMl1bQ0BIXTFbQ0BIXShbQ0gzXSlbTkhdQyg9TylbTkhdW0NIMl1bQ0gyXW4yW2NIXVtjSF1uW2NIXTI=

> <s_epik_cmdline>
J2VwaWtfcHl0aG9uJywgJy1waCcsICc3LjAnLCAnLXRuJywgJzgnLCAnLW1hJywgJzIwMCcsICctbWV0YWxfYmluZGluZycsICctaW1hZScsICc8aW5maWxlLm1hZT4nLCAnLW9tYWUnLCAnPG91dGZpbGUubWFlPic=

> <r_lp_tautomer_probability>
1

> <r_epik_Ionization_Penalty>
0.256241

> <r_epik_Ionization_Penalty_Charging>
0

> <r_epik_Ionization_Penalty_Neutral>
0.256241

> <r_epik_State_Penalty>
0.247735

> <r_epik_Charging_Adjusted_Penalty>
0.247735

> <i_epik_Tot_Q>
1

> <i_epik_Tot_abs_Q>
1

> <r_epik_Metal_State_Penalty>
0.537184

> <b_epik_Metal_Only>
0

> <s_lp_Force_Field>
OPLS_2005

> <r_lp_Energy>
16.926

> <b_lp_Chiralities_Consistent>
1

> <s_lp_Variant>
AV-unprocessed.smi:3255-1

> <Gold.Version>
5.8.1

> <Gold.Id.Protein>
6NUR|6NUR_protein|mol2

> <Gold.PLP.Fitness>
44.4537

> <Gold.PLP.PLP>
-34.5896

> <Gold.PLP.part.hbond>
-2.4353

> <Gold.PLP.part.metal>
0.0000

> <Gold.PLP.part.buried>
-3.6833

> <Gold.PLP.part.nonpolar>
-30.7699

> <Gold.PLP.part.repulsive>
0.4512

> <Gold.PLP.ligand.clash>
0.0000

> <Gold.PLP.ligand.torsion>
0.3530

> <Gold.PLP.Chemscore.Hbond>
1.5540

> <Gold.PLP.Chemscore.CHOScore>
1.9457

> <Gold.PLP.Chemscore.Metal>
0.0000

> <Gold.Chemscore.Hbonds>
donor molecule, donor type, donor heavy atom, donor atom, acceptor molecule, acceptor atom, score
      L1  H     3    23       P1  7957  0.72
      P1  H  7989  7998       L1    18  0.95
      L1  C    10    29       P1  7948  1.00
      L1  C    13    31       P1 10186  1.00

> <Gold.PLP.Chemscore.Internal.Correction>
0.0711

> <Gold.Rescore>
     Score         DG    S(hbond)    S(metal)    S(lipo)     H(rot)  DE(clash)    DE(int)     intcor
     10.85     -12.78       1.81        0.00      60.36       2.26       0.03       1.90       ----

> <Gold.Chemscore.Fitness>
10.8512

> <Gold.Chemscore.DG>
-12.7833

> <Gold.Chemscore.ZeroCoef>
-5.4800

> <Gold.Chemscore.Hbond>
1.8074

> <Gold.Chemscore.Metal>
0.0000

> <Gold.Chemscore.Lipo>
60.3617

> <Gold.Chemscore.Internal_Hbond>
0.0000

> <Gold.Chemscore.DEClash>
0.0292

> <Gold.Chemscore.DEInternal>
1.9028

> <Gold.Chemscore.Rot>
2.2640

> <Gold.Chemscore.Internal.Correction>
   9.000000E+99

> <Gold.Chemscore.Hbonds>
donor molecule, donor type, donor heavy atom, donor atom, acceptor molecule, acceptor atom, score
      L1  H     3    23       P1  7957  0.69
      P1  H  7989  7998       L1    18  0.16

> <Gold.Chemscore.Hbond.Weighted>
-6.0367

> <Gold.Chemscore.Metal.Weighted>
-0.0000

> <Gold.Chemscore.Lipo.Weighted>
-7.0623

> <Gold.Chemscore.Internal_Hbond.Weighted>
0.0000

> <Gold.Chemscore.DEClash.Weighted>
0.0292

> <Gold.Chemscore.DEInternal.Weighted>
1.9028

> <Gold.Chemscore.Rot.Weighted>
5.7958

> <Gold.Chemscore.Internal.Correction.Weighted>
   9.000000E+99

> <Gold.Protein.RotatedTorsions>
[ 6907 6896 6895 6894 ] final  102.50 input  -60.11 | X-H torsion
[ 7974 7965 7964 7962 ] final  127.15 input  175.53 | X-H torsion
[ 8008 7997 7996 7995 ] final   41.11 input   59.86 | X-H torsion
[ 10167 10162 10161 10158 ] final   11.92 input  -65.29 | X-H torsion
[ 10718 10713 10712 10709 ] final   27.26 input   66.30 | X-H torsion
[ 10763 10752 10751 10750 ] final -174.49 input  -60.55 | X-H torsion
[ 11005 11000 10999 10996 ] final  -52.21 input  -57.11 | X-H torsion

> <Gold.Protein.ActiveResidues>
 VAL166  LYS551  ARG553  GLY616  TRP617  ASP618  TYR619  PRO620  LYS621  CYS622 
 ASP623  PHE694  ASN695  SER759  ASP760  ASP761  ALA762  ILE779  LEU786  VAL792 
 PHE793  MET794  SER795  GLU796  ALA797  LYS798  CYS799  TRP800  GLU811  SER814 

> <Gold.Protein.RotatedAtoms>
  152.5322  133.9966  159.7875 H   0  0  0  0  0  0  0  0  0  0  0  0  # atno 6907 bound_to 6896
  151.0192  133.5884  159.2680 H   0  0  0  0  0  0  0  0  0  0  0  0  # atno 6908 bound_to 6896
  151.2930  135.0754  159.9264 H   0  0  0  0  0  0  0  0  0  0  0  0  # atno 6909 bound_to 6896
  145.0538  139.3861  143.5040 H   0  0  0  0  0  0  0  0  0  0  0  0  # atno 7974 bound_to 7965
  155.2642  140.3361  155.4270 H   0  0  0  0  0  0  0  0  0  0  0  0  # atno 8008 bound_to 7997
  156.2161  140.1789  156.7628 H   0  0  0  0  0  0  0  0  0  0  0  0  # atno 8009 bound_to 7997
  154.5756  140.0662  156.9013 H   0  0  0  0  0  0  0  0  0  0  0  0  # atno 8010 bound_to 7997
  140.6101  143.8426  150.7056 H   0  0  0  0  0  0  0  0  0  0  0  0  # atno 10167 bound_to 10162
  157.2179  130.6965  149.6257 H   0  0  0  0  0  0  0  0  0  0  0  0  # atno 10718 bound_to 10713
  154.5956  135.2849  155.0589 H   0  0  0  0  0  0  0  0  0  0  0  0  # atno 10763 bound_to 10752
  154.1873  135.6446  153.5054 H   0  0  0  0  0  0  0  0  0  0  0  0  # atno 10764 bound_to 10752
  153.0137  135.5438  154.6657 H   0  0  0  0  0  0  0  0  0  0  0  0  # atno 10765 bound_to 10752
  141.0912  133.6632  156.3991 H   0  0  0  0  0  0  0  0  0  0  0  0  # atno 11005 bound_to 11000
  146.3520  140.0202  142.8659 LP  0  0  0  0  0  0  0  0  0  0  0  0  # atno 17320 bound_to 7965
  145.1494  140.9614  143.4442 LP  0  0  0  0  0  0  0  0  0  0  0  0  # atno 17321 bound_to 7965
  140.1992  143.3973  152.1804 LP  0  0  0  0  0  0  0  0  0  0  0  0  # atno 17342 bound_to 10162
  139.5354  144.7204  151.4910 LP  0  0  0  0  0  0  0  0  0  0  0  0  # atno 17343 bound_to 10162
  155.9685  130.4529  150.5793 LP  0  0  0  0  0  0  0  0  0  0  0  0  # atno 17370 bound_to 10713
  157.3606  131.0749  151.1639 LP  0  0  0  0  0  0  0  0  0  0  0  0  # atno 17371 bound_to 10713
  140.5247  134.6270  157.5330 LP  0  0  0  0  0  0  0  0  0  0  0  0  # atno 17394 bound_to 11000
  139.9739  134.7248  155.9988 LP  0  0  0  0  0  0  0  0  0  0  0  0  # atno 17395 bound_to 11000

$$$$
