AV-unprocessed.smi:1763|AV-procd|sdf|7128|dock1
  -GOLD-   22720 8363D 1   1.00000     0.00000
 Structure written by MMmdl.
 43 44  0  0  0  0  0  0  0  0  2 V2000
  142.3529  137.0355  153.1850 C   0  0  0  0  0  0  0  0  0  0  0  0
  143.5694  137.6128  152.6339 N   0  0  0  0  0  0  0  0  0  0  0  0
  144.7967  137.3954  153.1267 C   0  0  0  0  0  0  0  0  0  0  0  0
  145.0132  136.6887  154.1118 O   0  0  0  0  0  0  0  0  0  0  0  0
  145.9520  138.0954  152.4037 C   0  0  0  0  0  0  0  0  0  0  0  0
  146.6322  139.1135  153.2450 N   0  3  2  0  0  0  0  0  0  0  0  0
  147.1361  140.2619  152.4490 C   0  0  0  0  0  0  0  0  0  0  0  0
  147.7075  141.3626  153.3589 C   0  0  0  0  0  0  0  0  0  0  0  0
  148.8116  140.8086  154.2781 C   0  0  1  0  0  0  0  0  0  0  0  0
  149.2791  141.8320  155.2081 N   0  0  0  0  0  0  0  0  0  0  0  0
  150.2436  141.6584  156.1236 C   0  0  0  0  0  0  0  0  0  0  0  0
  150.8579  140.6010  156.2668 O   0  0  0  0  0  0  0  0  0  0  0  0
  150.4407  142.7784  156.8409 N   0  0  0  0  0  0  0  0  0  0  0  0
  151.3433  142.9836  157.9182 C   0  0  0  0  0  0  0  0  0  0  0  0
  151.5707  144.3365  158.2575 C   0  0  0  0  0  0  0  0  0  0  0  0
  152.4452  144.6473  159.3168 C   0  0  0  0  0  0  0  0  0  0  0  0
  153.0708  143.5959  160.0100 C   0  0  0  0  0  0  0  0  0  0  0  0
  152.7908  142.2770  159.6073 C   0  0  0  0  0  0  0  0  0  0  0  0
  151.9529  141.9767  158.5924 N   0  0  0  0  0  0  0  0  0  0  0  0
  148.2721  139.6009  155.0601 C   0  0  0  0  0  0  0  0  0  0  0  0
  147.6983  138.5387  154.1089 C   0  0  0  0  0  0  0  0  0  0  0  0
  141.4912  137.3539  152.5982 H   0  0  0  0  0  0  0  0  0  0  0  0
  142.2014  137.3584  154.2158 H   0  0  0  0  0  0  0  0  0  0  0  0
  142.3952  135.9457  153.1637 H   0  0  0  0  0  0  0  0  0  0  0  0
  143.4697  138.2127  151.8273 H   0  0  0  0  0  0  0  0  0  0  0  0
  146.6778  137.3653  152.0413 H   0  0  0  0  0  0  0  0  0  0  0  0
  145.5226  138.5745  151.5228 H   0  0  0  0  0  0  0  0  0  0  0  0
  147.9001  139.9150  151.7514 H   0  0  0  0  0  0  0  0  0  0  0  0
  146.3255  140.6797  151.8507 H   0  0  0  0  0  0  0  0  0  0  0  0
  148.0989  142.1758  152.7463 H   0  0  0  0  0  0  0  0  0  0  0  0
  146.9031  141.7894  153.9600 H   0  0  0  0  0  0  0  0  0  0  0  0
  149.6506  140.4717  153.6655 H   0  0  0  0  0  0  0  0  0  0  0  0
  148.8283  142.7341  155.1586 H   0  0  0  0  0  0  0  0  0  0  0  0
  149.8697  143.5742  156.5979 H   0  0  0  0  0  0  0  0  0  0  0  0
  151.0814  145.1325  157.7151 H   0  0  0  0  0  0  0  0  0  0  0  0
  152.6315  145.6749  159.5920 H   0  0  0  0  0  0  0  0  0  0  0  0
  153.7469  143.7950  160.8282 H   0  0  0  0  0  0  0  0  0  0  0  0
  153.2510  141.4410  160.1130 H   0  0  0  0  0  0  0  0  0  0  0  0
  149.0658  139.1619  155.6660 H   0  0  0  0  0  0  0  0  0  0  0  0
  147.4945  139.9228  155.7549 H   0  0  0  0  0  0  0  0  0  0  0  0
  147.3020  137.7115  154.6982 H   0  0  0  0  0  0  0  0  0  0  0  0
  148.4922  138.1271  153.4835 H   0  0  0  0  0  0  0  0  0  0  0  0
  145.9229  139.4850  153.8614 H   0  0  0  0  0  0  0  0  0  0  0  0
  1  2  1  0  0  0  0
  1 22  1  0  0  0  0
  1 23  1  0  0  0  0
  1 24  1  0  0  0  0
  2  3  1  0  0  0  0
  2 25  1  0  0  0  0
  3  4  2  0  0  0  0
  3  5  1  0  0  0  0
  5  6  1  0  0  0  0
  5 26  1  0  0  0  0
  5 27  1  0  0  0  0
  6 21  1  0  0  0  0
  6  7  1  0  0  0  0
  6 43  1  0  0  0  0
  7  8  1  0  0  0  0
  7 28  1  0  0  0  0
  7 29  1  0  0  0  0
  8  9  1  0  0  0  0
  8 30  1  0  0  0  0
  8 31  1  0  0  0  0
  9 10  1  0  0  0  0
  9 20  1  0  0  0  0
  9 32  1  0  0  0  0
 10 11  1  0  0  0  0
 10 33  1  0  0  0  0
 11 12  2  0  0  0  0
 11 13  1  0  0  0  0
 13 14  1  0  0  0  0
 13 34  1  0  0  0  0
 14 19  1  0  0  0  0
 14 15  2  0  0  0  0
 15 16  1  0  0  0  0
 15 35  1  0  0  0  0
 16 17  2  0  0  0  0
 16 36  1  0  0  0  0
 17 18  1  0  0  0  0
 17 37  1  0  0  0  0
 18 19  2  0  0  0  0
 18 38  1  0  0  0  0
 20 21  1  0  0  0  0
 20 39  1  0  0  0  0
 20 40  1  0  0  0  0
 21 41  1  0  0  0  0
 21 42  1  0  0  0  0
M  CHG  1   6   1
M  END
> <s_m_source_file>
AV-unprocessed.smi

> <i_m_source_file_index>
1763

> <i_lp_mmshare_version>
43012

> <i_f3d_flags>
0

> <s_epik_input>
W0NIM11bTkhdQyg9TylbQ0gyXU4xW0NIMl1bQ0gyXVtDSF0oW0NIMl1bQ0gyXTEpW05IXUMoPU8pW05IXWMyW2NIXVtjSF1bY0hdW2NIXW4y

> <s_epik_cmdline>
J2VwaWtfcHl0aG9uJywgJy1waCcsICc3LjAnLCAnLXRuJywgJzgnLCAnLW1hJywgJzIwMCcsICctbWV0YWxfYmluZGluZycsICctaW1hZScsICc8aW5maWxlLm1hZT4nLCAnLW9tYWUnLCAnPG91dGZpbGUubWFlPic=

> <r_epik_Ionization_Penalty>
0.838902

> <r_epik_Ionization_Penalty_Charging>
0.838844

> <r_epik_Ionization_Penalty_Neutral>
5.81242e-05

> <r_epik_State_Penalty>
0.8734

> <r_epik_Charging_Adjusted_Penalty>
1.71224

> <i_epik_Tot_Q>
1

> <i_epik_Tot_abs_Q>
1

> <r_epik_Metal_State_Penalty>
0.877921

> <b_epik_Metal_Only>
0

> <s_lp_Force_Field>
OPLS_2005

> <r_lp_Energy>
15.2323

> <b_lp_Chiralities_Consistent>
1

> <s_lp_Variant>
AV-unprocessed.smi:1763-2

> <Gold.Version>
5.8.1

> <Gold.Id.Protein>
6NUR|6NUR_protein|mol2

> <Gold.PLP.Fitness>
47.2622

> <Gold.PLP.PLP>
-39.3329

> <Gold.PLP.part.hbond>
-4.0000

> <Gold.PLP.part.metal>
0.0000

> <Gold.PLP.part.buried>
-4.8777

> <Gold.PLP.part.nonpolar>
-31.6996

> <Gold.PLP.part.repulsive>
0.3133

> <Gold.PLP.ligand.clash>
0.0000

> <Gold.PLP.ligand.torsion>
0.4415

> <Gold.PLP.Chemscore.Hbond>
2.9280

> <Gold.PLP.Chemscore.CHOScore>
0.0000

> <Gold.PLP.Chemscore.Metal>
0.0000

> <Gold.Chemscore.Hbonds>
donor molecule, donor type, donor heavy atom, donor atom, acceptor molecule, acceptor atom, score
      L1  H     2    25       P1 10171  0.91
      L1  H    10    33       P1  8028  0.95
      L1  H    13    34       P1  8028  1.00

> <Gold.PLP.Chemscore.Internal.Correction>
0.0283

> <Gold.Rescore>
     Score         DG    S(hbond)    S(metal)    S(lipo)     H(rot)  DE(clash)    DE(int)     intcor
     17.98     -21.81       2.83        0.00      96.56       1.73       2.28       1.54       ----

> <Gold.Chemscore.Fitness>
17.9825

> <Gold.Chemscore.DG>
-21.8091

> <Gold.Chemscore.ZeroCoef>
-5.4800

> <Gold.Chemscore.Hbond>
2.8309

> <Gold.Chemscore.Metal>
0.0000

> <Gold.Chemscore.Lipo>
96.5604

> <Gold.Chemscore.Internal_Hbond>
0.0000

> <Gold.Chemscore.DEClash>
2.2847

> <Gold.Chemscore.DEInternal>
1.5419

> <Gold.Chemscore.Rot>
1.7280

> <Gold.Chemscore.Internal.Correction>
   9.000000E+99

> <Gold.Chemscore.Hbonds>
donor molecule, donor type, donor heavy atom, donor atom, acceptor molecule, acceptor atom, score
      L1  H     2    25       P1 10171  0.65
      L1  H    10    33       P1  8028  0.85
      L1  H    13    34       P1  8028  1.00

> <Gold.Chemscore.Hbond.Weighted>
-9.4552

> <Gold.Chemscore.Metal.Weighted>
-0.0000

> <Gold.Chemscore.Lipo.Weighted>
-11.2976

> <Gold.Chemscore.Internal_Hbond.Weighted>
0.0000

> <Gold.Chemscore.DEClash.Weighted>
2.2847

> <Gold.Chemscore.DEInternal.Weighted>
1.5419

> <Gold.Chemscore.Rot.Weighted>
4.4237

> <Gold.Chemscore.Internal.Correction.Weighted>
   9.000000E+99

> <Gold.Protein.RotatedTorsions>
[ 6907 6896 6895 6894 ] final -175.81 input  -60.11 | X-H torsion
[ 7974 7965 7964 7962 ] final   97.19 input  175.53 | X-H torsion
[ 8008 7997 7996 7995 ] final  166.72 input   59.86 | X-H torsion
[ 10167 10162 10161 10158 ] final   -2.10 input  -65.29 | X-H torsion
[ 10718 10713 10712 10709 ] final  110.01 input   66.30 | X-H torsion
[ 10763 10752 10751 10750 ] final -173.71 input  -60.55 | X-H torsion
[ 11005 11000 10999 10996 ] final  134.16 input  -57.11 | X-H torsion

> <Gold.Protein.ActiveResidues>
 VAL166  LYS551  ARG553  GLY616  TRP617  ASP618  TYR619  PRO620  LYS621  CYS622 
 ASP623  PHE694  ASN695  SER759  ASP760  ASP761  ALA762  ILE779  LEU786  VAL792 
 PHE793  MET794  SER795  GLU796  ALA797  LYS798  CYS799  TRP800  GLU811  SER814 

> <Gold.Protein.RotatedAtoms>
  151.5946  133.3363  159.3034 H   0  0  0  0  0  0  0  0  0  0  0  0  # atno 6907 bound_to 6896
  150.8241  134.7467  159.6809 H   0  0  0  0  0  0  0  0  0  0  0  0  # atno 6908 bound_to 6896
  152.4332  134.5743  159.9981 H   0  0  0  0  0  0  0  0  0  0  0  0  # atno 6909 bound_to 6896
  145.4288  139.2313  143.3155 H   0  0  0  0  0  0  0  0  0  0  0  0  # atno 7974 bound_to 7965
  156.1694  140.1636  156.8473 H   0  0  0  0  0  0  0  0  0  0  0  0  # atno 8008 bound_to 7997
  154.5241  140.0771  156.8261 H   0  0  0  0  0  0  0  0  0  0  0  0  # atno 8009 bound_to 7997
  155.3543  140.3392  155.4242 H   0  0  0  0  0  0  0  0  0  0  0  0  # atno 8010 bound_to 7997
  140.6837  143.6697  150.8195 H   0  0  0  0  0  0  0  0  0  0  0  0  # atno 10167 bound_to 10162
  157.6514  131.0925  150.6539 H   0  0  0  0  0  0  0  0  0  0  0  0  # atno 10718 bound_to 10713
  154.6047  135.2858  155.0497 H   0  0  0  0  0  0  0  0  0  0  0  0  # atno 10763 bound_to 10752
  154.1749  135.6466  153.5023 H   0  0  0  0  0  0  0  0  0  0  0  0  # atno 10764 bound_to 10752
  153.0171  135.5409  154.6779 H   0  0  0  0  0  0  0  0  0  0  0  0  # atno 10765 bound_to 10752
  139.9897  134.9519  156.9827 H   0  0  0  0  0  0  0  0  0  0  0  0  # atno 11005 bound_to 11000
  146.2618  140.5022  142.8850 LP  0  0  0  0  0  0  0  0  0  0  0  0  # atno 17320 bound_to 7965
  144.8196  140.6528  143.6361 LP  0  0  0  0  0  0  0  0  0  0  0  0  # atno 17321 bound_to 7965
  140.0401  143.5355  152.2721 LP  0  0  0  0  0  0  0  0  0  0  0  0  # atno 17342 bound_to 10162
  139.6179  144.7623  151.2806 LP  0  0  0  0  0  0  0  0  0  0  0  0  # atno 17343 bound_to 10162
  156.6850  130.4578  149.5616 LP  0  0  0  0  0  0  0  0  0  0  0  0  # atno 17370 bound_to 10713
  156.1902  130.6555  151.1053 LP  0  0  0  0  0  0  0  0  0  0  0  0  # atno 17371 bound_to 10713
  140.4933  134.1171  155.7236 LP  0  0  0  0  0  0  0  0  0  0  0  0  # atno 17394 bound_to 11000
  141.1555  133.8890  157.1988 LP  0  0  0  0  0  0  0  0  0  0  0  0  # atno 17395 bound_to 11000

$$$$
