AV-unprocessed.smi:1284|AV-procd|sdf|5366|dock1
  -GOLD-   22720 4503D 1   1.00000     0.00000
 Structure written by MMmdl.
 40 42  0  0  0  0  0  0  0  0  2 V2000
  149.9427  135.7846  154.5445 N   0  0  0  0  0  0  0  0  0  0  0  0
  151.0152  136.3876  155.0638 C   0  0  0  0  0  0  0  0  0  0  0  0
  151.5918  135.9508  156.0582 O   0  0  0  0  0  0  0  0  0  0  0  0
  151.5009  137.6625  154.3667 C   0  0  0  0  0  0  0  0  0  0  0  0
  150.4031  138.6763  154.2579 C   0  0  0  0  0  0  0  0  0  0  0  0
  149.2509  138.5280  153.5440 N   0  3  0  0  0  0  0  0  0  0  0  0
  148.4632  139.6721  153.6729 C   0  0  0  0  0  0  0  0  0  0  0  0
  147.2175  139.9834  153.1368 C   0  0  0  0  0  0  0  0  0  0  0  0
  146.6829  141.2452  153.4689 C   0  0  0  0  0  0  0  0  0  0  0  0
  147.3827  142.1421  154.3015 C   0  0  0  0  0  0  0  0  0  0  0  0
  148.6465  141.8165  154.8354 C   0  0  0  0  0  0  0  0  0  0  0  0
  149.1682  140.5653  154.5055 C   0  0  0  0  0  0  0  0  0  0  0  0
  150.3567  139.9068  154.8475 N   0  0  0  0  0  0  0  0  0  0  0  0
  151.3311  140.5708  155.7297 C   0  0  0  0  0  0  0  0  0  0  0  0
  150.8002  140.7638  157.1650 C   0  0  1  0  0  0  0  0  0  0  0  0
  150.9520  139.5418  157.8574 O   0  0  0  0  0  0  0  0  0  0  0  0
  151.4707  141.9248  157.8862 C   0  0  0  0  0  0  0  0  0  0  0  0
  152.2451  141.7048  159.0471 C   0  0  0  0  0  0  0  0  0  0  0  0
  152.8831  142.7837  159.6896 C   0  0  0  0  0  0  0  0  0  0  0  0
  152.7509  144.0880  159.1761 C   0  0  0  0  0  0  0  0  0  0  0  0
  151.9799  144.3135  158.0199 C   0  0  0  0  0  0  0  0  0  0  0  0
  151.3410  143.2353  157.3776 C   0  0  0  0  0  0  0  0  0  0  0  0
  149.5839  134.9451  154.9767 H   0  0  0  0  0  0  0  0  0  0  0  0
  149.4884  136.1693  153.7289 H   0  0  0  0  0  0  0  0  0  0  0  0
  152.3363  138.1006  154.9146 H   0  0  0  0  0  0  0  0  0  0  0  0
  151.8708  137.4074  153.3738 H   0  0  0  0  0  0  0  0  0  0  0  0
  146.6794  139.2978  152.4989 H   0  0  0  0  0  0  0  0  0  0  0  0
  145.7174  141.5309  153.0775 H   0  0  0  0  0  0  0  0  0  0  0  0
  146.9423  143.1000  154.5366 H   0  0  0  0  0  0  0  0  0  0  0  0
  149.1686  142.5128  155.4743 H   0  0  0  0  0  0  0  0  0  0  0  0
  152.2206  139.9399  155.7460 H   0  0  0  0  0  0  0  0  0  0  0  0
  151.6444  141.5166  155.2873 H   0  0  0  0  0  0  0  0  0  0  0  0
  149.7280  140.9589  157.1238 H   0  0  0  0  0  0  0  0  0  0  0  0
  150.2001  138.9986  157.6759 H   0  0  0  0  0  0  0  0  0  0  0  0
  152.3604  140.7065  159.4436 H   0  0  0  0  0  0  0  0  0  0  0  0
  153.4759  142.6101  160.5757 H   0  0  0  0  0  0  0  0  0  0  0  0
  153.2406  144.9151  159.6685 H   0  0  0  0  0  0  0  0  0  0  0  0
  151.8793  145.3136  157.6248 H   0  0  0  0  0  0  0  0  0  0  0  0
  150.7578  143.4163  156.4865 H   0  0  0  0  0  0  0  0  0  0  0  0
  149.0233  137.7028  153.0047 H   0  0  0  0  0  0  0  0  0  0  0  0
  1  2  1  0  0  0  0
  1 23  1  0  0  0  0
  1 24  1  0  0  0  0
  2  3  2  0  0  0  0
  2  4  1  0  0  0  0
  4  5  1  0  0  0  0
  4 25  1  0  0  0  0
  4 26  1  0  0  0  0
  5 13  1  0  0  0  0
  5  6  2  0  0  0  0
  6  7  1  0  0  0  0
  6 40  1  0  0  0  0
  7 12  2  0  0  0  0
  7  8  1  0  0  0  0
  8  9  2  0  0  0  0
  8 27  1  0  0  0  0
  9 10  1  0  0  0  0
  9 28  1  0  0  0  0
 10 11  2  0  0  0  0
 10 29  1  0  0  0  0
 11 12  1  0  0  0  0
 11 30  1  0  0  0  0
 12 13  1  0  0  0  0
 13 14  1  0  0  0  0
 14 15  1  0  0  0  0
 14 31  1  0  0  0  0
 14 32  1  0  0  0  0
 15 16  1  0  0  0  0
 15 17  1  0  0  0  0
 15 33  1  0  0  0  0
 16 34  1  0  0  0  0
 17 22  1  0  0  0  0
 17 18  2  0  0  0  0
 18 19  1  0  0  0  0
 18 35  1  0  0  0  0
 19 20  2  0  0  0  0
 19 36  1  0  0  0  0
 20 21  1  0  0  0  0
 20 37  1  0  0  0  0
 21 22  2  0  0  0  0
 21 38  1  0  0  0  0
 22 39  1  0  0  0  0
M  CHG  1   6   1
M  END
> <s_m_source_file>
AV-unprocessed.smi

> <i_m_source_file_index>
1284

> <i_lp_mmshare_version>
43012

> <i_f3d_flags>
0

> <s_epik_input>
W2NIXTFbY0hdW2NIXVtjSF1jKGMxMiluKGMobjIpW0NIMl1DKD1PKVtOSDJdKVtDSDJdW0NASF0oW09IXSljM1tjSF1bY0hdW2NIXVtjSF1bY0hdMw==

> <s_epik_cmdline>
J2VwaWtfcHl0aG9uJywgJy1waCcsICc3LjAnLCAnLXRuJywgJzgnLCAnLW1hJywgJzIwMCcsICctbWV0YWxfYmluZGluZycsICctaW1hZScsICc8aW5maWxlLm1hZT4nLCAnLW9tYWUnLCAnPG91dGZpbGUubWFlPic=

> <r_epik_Ionization_Penalty>
1.66646

> <r_epik_Ionization_Penalty_Charging>
1.66645

> <r_epik_Ionization_Penalty_Neutral>
1.67657e-06

> <r_epik_State_Penalty>
1.76975

> <r_epik_Charging_Adjusted_Penalty>
3.43621

> <i_epik_Tot_Q>
1

> <i_epik_Tot_abs_Q>
1

> <r_epik_Metal_State_Penalty>
1.80493

> <b_epik_Metal_Only>
0

> <s_lp_Force_Field>
OPLS_2005

> <r_lp_Energy>
14.9388

> <b_lp_Chiralities_Consistent>
1

> <s_lp_Variant>
AV-unprocessed.smi:1284-4

> <Gold.Version>
5.8.1

> <Gold.Id.Protein>
6NUR|6NUR_protein|mol2

> <Gold.PLP.Fitness>
61.7058

> <Gold.PLP.PLP>
-50.2928

> <Gold.PLP.part.hbond>
-4.2605

> <Gold.PLP.part.metal>
0.0000

> <Gold.PLP.part.buried>
3.9449

> <Gold.PLP.part.nonpolar>
-49.6711

> <Gold.PLP.part.repulsive>
0.1480

> <Gold.PLP.ligand.clash>
0.0000

> <Gold.PLP.ligand.torsion>
0.3510

> <Gold.PLP.Chemscore.Hbond>
4.0000

> <Gold.PLP.Chemscore.CHOScore>
0.0000

> <Gold.PLP.Chemscore.Metal>
0.0000

> <Gold.Chemscore.Hbonds>
donor molecule, donor type, donor heavy atom, donor atom, acceptor molecule, acceptor atom, score
      L1  H     1    24       P1  7948  1.00
      L1  H     6    40       P1  7948  2.00
      P1  H 10752 10763       L1     3  0.90

> <Gold.PLP.Chemscore.Internal.Correction>
0.1151

> <Gold.Rescore>
     Score         DG    S(hbond)    S(metal)    S(lipo)     H(rot)  DE(clash)    DE(int)     intcor
     18.54     -21.54       2.40        0.00     132.63       2.92       1.90       1.10       ----

> <Gold.Chemscore.Fitness>
18.5423

> <Gold.Chemscore.DG>
-21.5437

> <Gold.Chemscore.ZeroCoef>
-5.4800

> <Gold.Chemscore.Hbond>
2.4034

> <Gold.Chemscore.Metal>
0.0000

> <Gold.Chemscore.Lipo>
132.6271

> <Gold.Chemscore.Internal_Hbond>
0.0000

> <Gold.Chemscore.DEClash>
1.9017

> <Gold.Chemscore.DEInternal>
1.0997

> <Gold.Chemscore.Rot>
2.9223

> <Gold.Chemscore.Internal.Correction>
   9.000000E+99

> <Gold.Chemscore.Hbonds>
donor molecule, donor type, donor heavy atom, donor atom, acceptor molecule, acceptor atom, score
      L1  H     1    24       P1  7948  0.64
      L1  H     6    40       P1  7948  1.00
      P1  H 10752 10763       L1     3  0.17

> <Gold.Chemscore.Hbond.Weighted>
-8.0275

> <Gold.Chemscore.Metal.Weighted>
-0.0000

> <Gold.Chemscore.Lipo.Weighted>
-15.5174

> <Gold.Chemscore.Internal_Hbond.Weighted>
0.0000

> <Gold.Chemscore.DEClash.Weighted>
1.9017

> <Gold.Chemscore.DEInternal.Weighted>
1.0997

> <Gold.Chemscore.Rot.Weighted>
7.4812

> <Gold.Chemscore.Internal.Correction.Weighted>
   9.000000E+99

> <Gold.Protein.RotatedTorsions>
[ 6907 6896 6895 6894 ] final    4.92 input  -60.11 | X-H torsion
[ 7974 7965 7964 7962 ] final   58.24 input  175.53 | X-H torsion
[ 8008 7997 7996 7995 ] final  -60.64 input   59.86 | X-H torsion
[ 10167 10162 10161 10158 ] final  -20.16 input  -65.29 | X-H torsion
[ 10718 10713 10712 10709 ] final   43.21 input   66.30 | X-H torsion
[ 10763 10752 10751 10750 ] final  101.90 input  -60.55 | X-H torsion
[ 11005 11000 10999 10996 ] final -110.15 input  -57.11 | X-H torsion

> <Gold.Protein.ActiveResidues>
 VAL166  LYS551  ARG553  GLY616  TRP617  ASP618  TYR619  PRO620  LYS621  CYS622 
 ASP623  PHE694  ASN695  SER759  ASP760  ASP761  ALA762  ILE779  LEU786  VAL792 
 PHE793  MET794  SER795  GLU796  ALA797  LYS798  CYS799  TRP800  GLU811  SER814 

> <Gold.Protein.RotatedAtoms>
  151.6490  135.1004  160.0156 H   0  0  0  0  0  0  0  0  0  0  0  0  # atno 6907 bound_to 6896
  152.4011  133.6815  159.6326 H   0  0  0  0  0  0  0  0  0  0  0  0  # atno 6908 bound_to 6896
  150.7911  133.8706  159.3298 H   0  0  0  0  0  0  0  0  0  0  0  0  # atno 6909 bound_to 6896
  145.9203  139.3724  143.0482 H   0  0  0  0  0  0  0  0  0  0  0  0  # atno 7974 bound_to 7965
  154.4408  140.1035  156.6306 H   0  0  0  0  0  0  0  0  0  0  0  0  # atno 8008 bound_to 7997
  155.5609  140.3487  155.4472 H   0  0  0  0  0  0  0  0  0  0  0  0  # atno 8009 bound_to 7997
  156.0460  140.1293  157.0092 H   0  0  0  0  0  0  0  0  0  0  0  0  # atno 8010 bound_to 7997
  140.7274  143.4749  151.0196 H   0  0  0  0  0  0  0  0  0  0  0  0  # atno 10167 bound_to 10162
  157.4134  130.7927  149.7450 H   0  0  0  0  0  0  0  0  0  0  0  0  # atno 10718 bound_to 10713
  153.3326  135.4029  155.1508 H   0  0  0  0  0  0  0  0  0  0  0  0  # atno 10763 bound_to 10752
  154.8626  135.3614  154.5450 H   0  0  0  0  0  0  0  0  0  0  0  0  # atno 10764 bound_to 10752
  153.5890  135.7074  153.5490 H   0  0  0  0  0  0  0  0  0  0  0  0  # atno 10765 bound_to 10752
  141.0808  133.9223  157.2293 H   0  0  0  0  0  0  0  0  0  0  0  0  # atno 11005 bound_to 11000
  145.8558  140.9503  143.0725 LP  0  0  0  0  0  0  0  0  0  0  0  0  # atno 17320 bound_to 7965
  144.6752  140.0466  143.7479 LP  0  0  0  0  0  0  0  0  0  0  0  0  # atno 17321 bound_to 7965
  139.8443  143.7522  152.3179 LP  0  0  0  0  0  0  0  0  0  0  0  0  # atno 17342 bound_to 10162
  139.7682  144.7485  151.0264 LP  0  0  0  0  0  0  0  0  0  0  0  0  # atno 17343 bound_to 10162
  155.9857  130.3980  150.3246 LP  0  0  0  0  0  0  0  0  0  0  0  0  # atno 17370 bound_to 10713
  157.1386  131.0290  151.2938 LP  0  0  0  0  0  0  0  0  0  0  0  0  # atno 17371 bound_to 10713
  139.9622  135.0151  156.9291 LP  0  0  0  0  0  0  0  0  0  0  0  0  # atno 17394 bound_to 11000
  140.5473  134.0662  155.7358 LP  0  0  0  0  0  0  0  0  0  0  0  0  # atno 17395 bound_to 11000

$$$$
