AV-unprocessed.smi:3335|AV-procd|sdf|12839|dock8
  -GOLD-   2272019223D 1   1.00000     0.00000
 Structure written by MMmdl.
 47 48  0  0  0  0  0  0  0  0  2 V2000
  142.4740  142.2659  156.5541 C   0  0  0  0  0  0  0  0  0  0  0  0
  143.9613  142.3687  156.3774 C   0  0  0  0  0  0  0  0  0  0  0  0
  144.9183  142.8772  157.3003 C   0  0  0  0  0  0  0  0  0  0  0  0
  146.1547  142.8340  156.8326 N   0  0  0  0  0  0  0  0  0  0  0  0
  146.0352  142.2894  155.6007 N   0  0  0  0  0  0  0  0  0  0  0  0
  147.2126  142.1049  154.7608 C   0  0  2  0  0  0  0  0  0  0  0  0
  146.7959  141.4757  153.4162 C   0  0  0  0  0  0  0  0  0  0  0  0
  148.3260  141.3066  155.4987 C   0  0  1  0  0  0  0  0  0  0  0  0
  149.5233  140.9863  154.5879 C   0  0  0  0  0  0  0  0  0  0  0  0
  148.8363  142.0578  156.6749 N   0  3  0  0  0  0  0  0  0  0  0  0
  150.0045  141.4769  157.3805 C   0  0  2  0  0  0  0  0  0  0  0  0
  149.6185  140.1133  157.9729 C   0  0  0  0  0  0  0  0  0  0  0  0
  150.5180  142.4107  158.4942 C   0  0  0  0  0  0  0  0  0  0  0  0
  149.9106  143.4598  158.7148 O   0  0  0  0  0  0  0  0  0  0  0  0
  151.6104  142.0540  159.2038 N   0  0  0  0  0  0  0  0  0  0  0  0
  152.3942  140.8301  159.0328 C   0  0  0  0  0  0  0  0  0  0  0  0
  153.3647  140.7890  160.2130 C   0  0  0  0  0  0  0  0  0  0  0  0
  153.5274  142.2489  160.6105 C   0  0  0  0  0  0  0  0  0  0  0  0
  152.1783  142.8806  160.2677 C   0  0  0  0  0  0  0  0  0  0  0  0
  144.7198  141.9988  155.3031 C   0  0  0  0  0  0  0  0  0  0  0  0
  142.1333  142.7969  157.4434 H   0  0  0  0  0  0  0  0  0  0  0  0
  142.1529  141.2292  156.6562 H   0  0  0  0  0  0  0  0  0  0  0  0
  141.9373  142.6873  155.7039 H   0  0  0  0  0  0  0  0  0  0  0  0
  144.7512  143.2792  158.2889 H   0  0  0  0  0  0  0  0  0  0  0  0
  147.6014  143.1002  154.5396 H   0  0  0  0  0  0  0  0  0  0  0  0
  147.6036  141.5139  152.6857 H   0  0  0  0  0  0  0  0  0  0  0  0
  145.9514  142.0105  152.9799 H   0  0  0  0  0  0  0  0  0  0  0  0
  146.5013  140.4324  153.5350 H   0  0  0  0  0  0  0  0  0  0  0  0
  147.9175  140.3505  155.8292 H   0  0  0  0  0  0  0  0  0  0  0  0
  149.2452  140.3155  153.7753 H   0  0  0  0  0  0  0  0  0  0  0  0
  150.3161  140.4883  155.1473 H   0  0  0  0  0  0  0  0  0  0  0  0
  149.9448  141.8912  154.1490 H   0  0  0  0  0  0  0  0  0  0  0  0
  149.1141  142.9766  156.3599 H   0  0  0  0  0  0  0  0  0  0  0  0
  150.7847  141.3044  156.6454 H   0  0  0  0  0  0  0  0  0  0  0  0
  150.4620  139.6465  158.4828 H   0  0  0  0  0  0  0  0  0  0  0  0
  149.2931  139.4274  157.1899 H   0  0  0  0  0  0  0  0  0  0  0  0
  148.8042  140.2040  158.6933 H   0  0  0  0  0  0  0  0  0  0  0  0
  151.7710  139.9353  159.0095 H   0  0  0  0  0  0  0  0  0  0  0  0
  152.9452  140.8884  158.0930 H   0  0  0  0  0  0  0  0  0  0  0  0
  152.9151  140.2345  161.0378 H   0  0  0  0  0  0  0  0  0  0  0  0
  154.3121  140.3095  159.9653 H   0  0  0  0  0  0  0  0  0  0  0  0
  153.7998  142.3750  161.6587 H   0  0  0  0  0  0  0  0  0  0  0  0
  154.3104  142.7067  160.0042 H   0  0  0  0  0  0  0  0  0  0  0  0
  152.2955  143.9218  159.9630 H   0  0  0  0  0  0  0  0  0  0  0  0
  151.5123  142.8534  161.1315 H   0  0  0  0  0  0  0  0  0  0  0  0
  144.4323  141.5621  154.3578 H   0  0  0  0  0  0  0  0  0  0  0  0
  148.0763  142.1638  157.3310 H   0  0  0  0  0  0  0  0  0  0  0  0
  1  2  1  0  0  0  0
  1 21  1  0  0  0  0
  1 22  1  0  0  0  0
  1 23  1  0  0  0  0
  2 20  2  0  0  0  0
  2  3  1  0  0  0  0
  3  4  2  0  0  0  0
  3 24  1  0  0  0  0
  4  5  1  0  0  0  0
  5  6  1  0  0  0  0
  5 20  1  0  0  0  0
  6  7  1  0  0  0  0
  6  8  1  0  0  0  0
  6 25  1  0  0  0  0
  7 26  1  0  0  0  0
  7 27  1  0  0  0  0
  7 28  1  0  0  0  0
  8  9  1  0  0  0  0
  8 10  1  0  0  0  0
  8 29  1  0  0  0  0
  9 30  1  0  0  0  0
  9 31  1  0  0  0  0
  9 32  1  0  0  0  0
 10 11  1  0  0  0  0
 10 33  1  0  0  0  0
 10 47  1  0  0  0  0
 11 12  1  0  0  0  0
 11 13  1  0  0  0  0
 11 34  1  0  0  0  0
 12 35  1  0  0  0  0
 12 36  1  0  0  0  0
 12 37  1  0  0  0  0
 13 14  2  0  0  0  0
 13 15  1  0  0  0  0
 15 19  1  0  0  0  0
 15 16  1  0  0  0  0
 16 17  1  0  0  0  0
 16 38  1  0  0  0  0
 16 39  1  0  0  0  0
 17 18  1  0  0  0  0
 17 40  1  0  0  0  0
 17 41  1  0  0  0  0
 18 19  1  0  0  0  0
 18 42  1  0  0  0  0
 18 43  1  0  0  0  0
 19 44  1  0  0  0  0
 19 45  1  0  0  0  0
 20 46  1  0  0  0  0
M  CHG  1  10   1
M  END
> <s_m_source_file>
AV-unprocessed.smi

> <i_m_source_file_index>
3335

> <i_lp_mmshare_version>
43012

> <i_f3d_flags>
0

> <s_epik_input>
W0NIM11jMVtjSF1ubihbY0hdMSlbQ0BIXShbQ0gzXSlbQ0BIXShbQ0gzXSlbTkhdW0NASF0oW0NIM10pQyg9TylOMltDSDJdW0NIMl1bQ0gyXVtDSDJdMg==

> <s_epik_cmdline>
J2VwaWtfcHl0aG9uJywgJy1waCcsICc3LjAnLCAnLXRuJywgJzgnLCAnLW1hJywgJzIwMCcsICctbWV0YWxfYmluZGluZycsICctaW1hZScsICc8aW5maWxlLm1hZT4nLCAnLW9tYWUnLCAnPG91dGZpbGUubWFlPic=

> <r_lp_tautomer_probability>
1

> <r_epik_Ionization_Penalty>
0.14175

> <r_epik_Ionization_Penalty_Charging>
0.141731

> <r_epik_Ionization_Penalty_Neutral>
1.91261e-05

> <r_epik_State_Penalty>
0.131043

> <r_epik_Charging_Adjusted_Penalty>
0.272773

> <i_epik_Tot_Q>
1

> <i_epik_Tot_abs_Q>
1

> <r_epik_Metal_State_Penalty>
0.131408

> <b_epik_Metal_Only>
0

> <s_lp_Force_Field>
OPLS_2005

> <r_lp_Energy>
35.8146

> <b_lp_Chiralities_Consistent>
1

> <s_lp_Variant>
AV-unprocessed.smi:3335-3

> <Gold.Version>
5.8.1

> <Gold.Id.Protein>
6NUR|6NUR_protein|mol2

> <Gold.PLP.Fitness>
42.3443

> <Gold.PLP.PLP>
-33.5591

> <Gold.PLP.part.hbond>
-1.0000

> <Gold.PLP.part.metal>
0.0000

> <Gold.PLP.part.buried>
-4.1538

> <Gold.PLP.part.nonpolar>
-28.9964

> <Gold.PLP.part.repulsive>
0.3479

> <Gold.PLP.ligand.clash>
0.0000

> <Gold.PLP.ligand.torsion>
0.1604

> <Gold.PLP.Chemscore.Hbond>
2.0000

> <Gold.PLP.Chemscore.CHOScore>
1.0000

> <Gold.PLP.Chemscore.Metal>
0.0000

> <Gold.Chemscore.Hbonds>
donor molecule, donor type, donor heavy atom, donor atom, acceptor molecule, acceptor atom, score
      L1  H    10    33       P1  8028  2.00
      L1  C    20    46       P1 10175  1.00

> <Gold.PLP.Chemscore.Internal.Correction>
0.1061

> <Gold.Rescore>
     Score         DG    S(hbond)    S(metal)    S(lipo)     H(rot)  DE(clash)    DE(int)     intcor
     13.90     -14.14       0.99        0.00      82.38       1.68       0.01       0.24       ----

> <Gold.Chemscore.Fitness>
13.8978

> <Gold.Chemscore.DG>
-14.1417

> <Gold.Chemscore.ZeroCoef>
-5.4800

> <Gold.Chemscore.Hbond>
0.9937

> <Gold.Chemscore.Metal>
0.0000

> <Gold.Chemscore.Lipo>
82.3752

> <Gold.Chemscore.Internal_Hbond>
0.0000

> <Gold.Chemscore.DEClash>
0.0064

> <Gold.Chemscore.DEInternal>
0.2375

> <Gold.Chemscore.Rot>
1.6778

> <Gold.Chemscore.Internal.Correction>
   9.000000E+99

> <Gold.Chemscore.Hbonds>
donor molecule, donor type, donor heavy atom, donor atom, acceptor molecule, acceptor atom, score
      L1  H    10    33       P1  8028  0.99

> <Gold.Chemscore.Hbond.Weighted>
-3.3190

> <Gold.Chemscore.Metal.Weighted>
-0.0000

> <Gold.Chemscore.Lipo.Weighted>
-9.6379

> <Gold.Chemscore.Internal_Hbond.Weighted>
0.0000

> <Gold.Chemscore.DEClash.Weighted>
0.0064

> <Gold.Chemscore.DEInternal.Weighted>
0.2375

> <Gold.Chemscore.Rot.Weighted>
4.2952

> <Gold.Chemscore.Internal.Correction.Weighted>
   9.000000E+99

> <Gold.Protein.RotatedTorsions>
[ 6907 6896 6895 6894 ] final  -84.06 input  -60.11 | X-H torsion
[ 7974 7965 7964 7962 ] final  147.21 input  175.53 | X-H torsion
[ 8008 7997 7996 7995 ] final  135.40 input   59.86 | X-H torsion
[ 10167 10162 10161 10158 ] final -147.75 input  -65.29 | X-H torsion
[ 10718 10713 10712 10709 ] final   18.82 input   66.30 | X-H torsion
[ 10763 10752 10751 10750 ] final   89.88 input  -60.55 | X-H torsion
[ 11005 11000 10999 10996 ] final -168.48 input  -57.11 | X-H torsion

> <Gold.Protein.ActiveResidues>
 VAL166  LYS551  ARG553  GLY616  TRP617  ASP618  TYR619  PRO620  LYS621  CYS622 
 ASP623  PHE694  ASN695  SER759  ASP760  ASP761  ALA762  ILE779  LEU786  VAL792 
 PHE793  MET794  SER795  GLU796  ALA797  LYS798  CYS799  TRP800  GLU811  SER814 

> <Gold.Protein.RotatedAtoms>
  150.6879  134.3416  159.4869 H   0  0  0  0  0  0  0  0  0  0  0  0  # atno 6907 bound_to 6896
  152.1268  134.9162  160.0570 H   0  0  0  0  0  0  0  0  0  0  0  0  # atno 6908 bound_to 6896
  152.0347  133.3917  159.4349 H   0  0  0  0  0  0  0  0  0  0  0  0  # atno 6909 bound_to 6896
  144.8609  139.6001  143.5931 H   0  0  0  0  0  0  0  0  0  0  0  0  # atno 7974 bound_to 7965
  156.3003  140.2471  156.3576 H   0  0  0  0  0  0  0  0  0  0  0  0  # atno 8008 bound_to 7997
  154.8907  140.0409  157.1856 H   0  0  0  0  0  0  0  0  0  0  0  0  # atno 8009 bound_to 7997
  154.8600  140.2919  155.5549 H   0  0  0  0  0  0  0  0  0  0  0  0  # atno 8010 bound_to 7997
  139.7594  143.8400  152.2604 H   0  0  0  0  0  0  0  0  0  0  0  0  # atno 10167 bound_to 10162
  157.1017  130.6471  149.5874 H   0  0  0  0  0  0  0  0  0  0  0  0  # atno 10718 bound_to 10713
  153.1917  135.4454  155.0157 H   0  0  0  0  0  0  0  0  0  0  0  0  # atno 10763 bound_to 10752
  154.8094  135.3288  154.7348 H   0  0  0  0  0  0  0  0  0  0  0  0  # atno 10764 bound_to 10752
  153.7802  135.6978  153.4945 H   0  0  0  0  0  0  0  0  0  0  0  0  # atno 10765 bound_to 10752
  140.5415  134.5517  157.5101 H   0  0  0  0  0  0  0  0  0  0  0  0  # atno 11005 bound_to 11000
  146.2860  139.7005  142.9195 LP  0  0  0  0  0  0  0  0  0  0  0  0  # atno 17320 bound_to 7965
  145.4314  141.0415  143.2908 LP  0  0  0  0  0  0  0  0  0  0  0  0  # atno 17321 bound_to 7965
  139.8401  144.7214  150.9341 LP  0  0  0  0  0  0  0  0  0  0  0  0  # atno 17342 bound_to 10162
  140.7806  143.3991  151.1180 LP  0  0  0  0  0  0  0  0  0  0  0  0  # atno 17343 bound_to 10162
  155.9872  130.4910  150.7114 LP  0  0  0  0  0  0  0  0  0  0  0  0  # atno 17370 bound_to 10713
  157.4635  131.0885  151.0720 LP  0  0  0  0  0  0  0  0  0  0  0  0  # atno 17371 bound_to 10713
  139.9501  134.7632  156.0468 LP  0  0  0  0  0  0  0  0  0  0  0  0  # atno 17394 bound_to 11000
  141.1224  133.6609  156.3249 LP  0  0  0  0  0  0  0  0  0  0  0  0  # atno 17395 bound_to 11000

$$$$
