AV-unprocessed.smi:2706|AV-procd|sdf|10447|dock4
  -GOLD-   2272014493D 1   1.00000     0.00000
 Structure written by MMmdl.
 43 46  0  0  0  0  0  0  0  0  1 V2000
  151.6705  138.8131  154.9901 C   0  0  0  0  0  0  0  0  0  0  0  0
  150.7854  139.9312  155.3019 N   0  0  0  0  0  0  0  0  0  0  0  0
  151.2150  140.9589  156.2416 C   0  0  0  0  0  0  0  0  0  0  0  0
  149.5382  140.0421  154.6462 C   0  0  0  0  0  0  0  0  0  0  0  0
  148.8923  141.2917  154.4864 C   0  0  0  0  0  0  0  0  0  0  0  0
  147.6528  141.3366  153.8233 C   0  0  0  0  0  0  0  0  0  0  0  0
  147.0933  140.1403  153.3398 C   0  0  0  0  0  0  0  0  0  0  0  0
  147.7882  138.9282  153.5337 C   0  0  0  0  0  0  0  0  0  0  0  0
  147.1486  137.7723  153.0122 N   0  0  0  0  0  0  0  0  0  0  0  0
  145.8323  137.4991  152.9723 C   0  0  0  0  0  0  0  0  0  0  0  0
  144.9384  138.2385  153.3859 O   0  0  0  0  0  0  0  0  0  0  0  0
  145.6064  136.3012  152.4161 N   0  0  0  0  0  0  0  0  0  0  0  0
  144.3269  135.7026  152.2107 C   0  0  2  0  0  0  0  0  0  0  0  0
  144.0871  134.2308  152.4946 C   0  0  2  0  0  0  0  0  0  0  0  0
  145.0298  133.0243  152.4207 C   0  0  2  0  0  0  0  0  0  0  0  0
  146.5060  133.4154  152.2068 C   0  0  0  0  0  0  0  0  0  0  0  0
  146.5027  133.9345  150.7522 C   0  0  0  0  0  0  0  0  0  0  0  0
  145.0248  133.7666  150.3452 C   0  0  1  0  0  0  0  0  0  0  0  0
  144.6923  132.4548  151.0474 C   0  0  0  0  0  0  0  0  0  0  0  0
  144.0839  134.7458  151.0572 C   0  0  2  0  0  0  0  0  0  0  0  0
  148.9818  138.9001  154.1744 N   0  0  0  0  0  0  0  0  0  0  0  0
  151.1730  137.8627  155.1863 H   0  0  0  0  0  0  0  0  0  0  0  0
  152.5784  138.8433  155.5923 H   0  0  0  0  0  0  0  0  0  0  0  0
  151.9634  138.8397  153.9400 H   0  0  0  0  0  0  0  0  0  0  0  0
  150.5387  141.0025  157.0956 H   0  0  0  0  0  0  0  0  0  0  0  0
  151.2359  141.9370  155.7599 H   0  0  0  0  0  0  0  0  0  0  0  0
  152.2165  140.7553  156.6204 H   0  0  0  0  0  0  0  0  0  0  0  0
  149.3196  142.2108  154.8577 H   0  0  0  0  0  0  0  0  0  0  0  0
  147.1384  142.2765  153.6878 H   0  0  0  0  0  0  0  0  0  0  0  0
  146.1419  140.1584  152.8278 H   0  0  0  0  0  0  0  0  0  0  0  0
  147.7649  137.0721  152.6273 H   0  0  0  0  0  0  0  0  0  0  0  0
  146.4047  135.7665  152.1066 H   0  0  0  0  0  0  0  0  0  0  0  0
  143.4782  136.3466  152.4373 H   0  0  0  0  0  0  0  0  0  0  0  0
  143.1107  133.9866  152.9094 H   0  0  0  0  0  0  0  0  0  0  0  0
  144.8720  132.3328  153.2489 H   0  0  0  0  0  0  0  0  0  0  0  0
  146.8683  134.1374  152.9374 H   0  0  0  0  0  0  0  0  0  0  0  0
  147.1461  132.5360  152.2885 H   0  0  0  0  0  0  0  0  0  0  0  0
  146.8643  134.9561  150.6424 H   0  0  0  0  0  0  0  0  0  0  0  0
  147.1399  133.3057  150.1292 H   0  0  0  0  0  0  0  0  0  0  0  0
  144.8623  133.7565  149.2672 H   0  0  0  0  0  0  0  0  0  0  0  0
  145.3270  131.6188  150.7467 H   0  0  0  0  0  0  0  0  0  0  0  0
  143.6451  132.1634  150.9454 H   0  0  0  0  0  0  0  0  0  0  0  0
  143.1057  134.8198  150.5852 H   0  0  0  0  0  0  0  0  0  0  0  0
  1  2  1  0  0  0  0
  1 22  1  0  0  0  0
  1 23  1  0  0  0  0
  1 24  1  0  0  0  0
  2  3  1  0  0  0  0
  2  4  1  0  0  0  0
  3 25  1  0  0  0  0
  3 26  1  0  0  0  0
  3 27  1  0  0  0  0
  4 21  1  0  0  0  0
  4  5  2  0  0  0  0
  5  6  1  0  0  0  0
  5 28  1  0  0  0  0
  6  7  2  0  0  0  0
  6 29  1  0  0  0  0
  7  8  1  0  0  0  0
  7 30  1  0  0  0  0
  8  9  1  0  0  0  0
  8 21  2  0  0  0  0
  9 10  1  0  0  0  0
  9 31  1  0  0  0  0
 10 11  2  0  0  0  0
 10 12  1  0  0  0  0
 12 13  1  0  0  0  0
 12 32  1  0  0  0  0
 13 20  1  0  0  0  0
 13 14  1  0  0  0  0
 13 33  1  0  0  0  0
 14 20  1  0  0  0  0
 14 15  1  0  0  0  0
 14 34  1  0  0  0  0
 15 19  1  0  0  0  0
 15 16  1  0  0  0  0
 15 35  1  0  0  0  0
 16 17  1  0  0  0  0
 16 36  1  0  0  0  0
 16 37  1  0  0  0  0
 17 18  1  0  0  0  0
 17 38  1  0  0  0  0
 17 39  1  0  0  0  0
 18 19  1  0  0  0  0
 18 20  1  0  0  0  0
 18 40  1  0  0  0  0
 19 41  1  0  0  0  0
 19 42  1  0  0  0  0
 20 43  1  0  0  0  0
M  END
> <s_m_source_file>
AV-unprocessed.smi

> <i_m_source_file_index>
2706

> <i_lp_mmshare_version>
43012

> <i_f3d_flags>
0

> <s_epik_input>
W0NIM11OKFtDSDNdKWMxW2NIXVtjSF1bY0hdYyhuMSlbTkhdQyg9TylbTkhdW0NASF0yW0NAQEhdM1tDQEBIXShbQ0gyXTQpW0NIMl1bQ0gyXVtDQEBIXTRbQ0BIXTIz

> <s_epik_cmdline>
J2VwaWtfcHl0aG9uJywgJy1waCcsICc3LjAnLCAnLXRuJywgJzgnLCAnLW1hJywgJzIwMCcsICctbWV0YWxfYmluZGluZycsICctaW1hZScsICc8aW5maWxlLm1hZT4nLCAnLW9tYWUnLCAnPG91dGZpbGUubWFlPic=

> <r_lp_tautomer_probability>
1

> <r_epik_Ionization_Penalty>
0.0296788

> <r_epik_Ionization_Penalty_Charging>
0

> <r_epik_Ionization_Penalty_Neutral>
0.0296788

> <r_epik_State_Penalty>
0.0248512

> <r_epik_Charging_Adjusted_Penalty>
0.0248512

> <i_epik_Tot_Q>
0

> <i_epik_Tot_abs_Q>
0

> <r_epik_Metal_State_Penalty>
0.0237882

> <b_epik_Metal_Only>
0

> <s_lp_Force_Field>
OPLS_2005

> <r_lp_Energy>
85.7316

> <b_lp_Chiralities_Consistent>
1

> <s_lp_Variant>
AV-unprocessed.smi:2706-4

> <Gold.Version>
5.8.1

> <Gold.Id.Protein>
6NUR|6NUR_protein|mol2

> <Gold.PLP.Fitness>
38.5948

> <Gold.PLP.PLP>
-37.1471

> <Gold.PLP.part.hbond>
-1.0000

> <Gold.PLP.part.metal>
0.0000

> <Gold.PLP.part.buried>
-4.3606

> <Gold.PLP.part.nonpolar>
-32.9838

> <Gold.PLP.part.repulsive>
2.7134

> <Gold.PLP.ligand.clash>
0.0000

> <Gold.PLP.ligand.torsion>
0.8139

> <Gold.PLP.Chemscore.Hbond>
1.0000

> <Gold.PLP.Chemscore.CHOScore>
0.0000

> <Gold.PLP.Chemscore.Metal>
0.0000

> <Gold.Chemscore.Hbonds>
donor molecule, donor type, donor heavy atom, donor atom, acceptor molecule, acceptor atom, score
      L1  H     9    31       P1  7948  1.00

> <Gold.PLP.Chemscore.Internal.Correction>
0.0754

> <Gold.Rescore>
     Score         DG    S(hbond)    S(metal)    S(lipo)     H(rot)  DE(clash)    DE(int)     intcor
     13.57     -15.56       0.99        0.00      79.75       1.00       0.10       1.89       ----

> <Gold.Chemscore.Fitness>
13.5732

> <Gold.Chemscore.DG>
-15.5588

> <Gold.Chemscore.ZeroCoef>
-5.4800

> <Gold.Chemscore.Hbond>
0.9905

> <Gold.Chemscore.Metal>
0.0000

> <Gold.Chemscore.Lipo>
79.7478

> <Gold.Chemscore.Internal_Hbond>
0.0000

> <Gold.Chemscore.DEClash>
0.0999

> <Gold.Chemscore.DEInternal>
1.8857

> <Gold.Chemscore.Rot>
1.0000

> <Gold.Chemscore.Internal.Correction>
   9.000000E+99

> <Gold.Chemscore.Hbonds>
donor molecule, donor type, donor heavy atom, donor atom, acceptor molecule, acceptor atom, score
      L1  H     9    31       P1  7948  1.00

> <Gold.Chemscore.Hbond.Weighted>
-3.3083

> <Gold.Chemscore.Metal.Weighted>
-0.0000

> <Gold.Chemscore.Lipo.Weighted>
-9.3305

> <Gold.Chemscore.Internal_Hbond.Weighted>
0.0000

> <Gold.Chemscore.DEClash.Weighted>
0.0999

> <Gold.Chemscore.DEInternal.Weighted>
1.8857

> <Gold.Chemscore.Rot.Weighted>
2.5600

> <Gold.Chemscore.Internal.Correction.Weighted>
   9.000000E+99

> <Gold.Protein.RotatedTorsions>
[ 6907 6896 6895 6894 ] final   79.71 input  -60.11 | X-H torsion
[ 7974 7965 7964 7962 ] final -152.07 input  175.53 | X-H torsion
[ 8008 7997 7996 7995 ] final   96.99 input   59.86 | X-H torsion
[ 10167 10162 10161 10158 ] final  118.97 input  -65.29 | X-H torsion
[ 10718 10713 10712 10709 ] final   71.02 input   66.30 | X-H torsion
[ 10763 10752 10751 10750 ] final  -56.15 input  -60.55 | X-H torsion
[ 11005 11000 10999 10996 ] final  155.48 input  -57.11 | X-H torsion

> <Gold.Protein.ActiveResidues>
 VAL166  LYS551  ARG553  GLY616  TRP617  ASP618  TYR619  PRO620  LYS621  CYS622 
 ASP623  PHE694  ASN695  SER759  ASP760  ASP761  ALA762  ILE779  LEU786  VAL792 
 PHE793  MET794  SER795  GLU796  ALA797  LYS798  CYS799  TRP800  GLU811  SER814 

> <Gold.Protein.RotatedAtoms>
  152.5208  134.3469  159.9236 H   0  0  0  0  0  0  0  0  0  0  0  0  # atno 6907 bound_to 6896
  151.3419  133.3952  159.2679 H   0  0  0  0  0  0  0  0  0  0  0  0  # atno 6908 bound_to 6896
  150.9796  134.9172  159.7894 H   0  0  0  0  0  0  0  0  0  0  0  0  # atno 6909 bound_to 6896
  144.7814  140.4711  143.5836 H   0  0  0  0  0  0  0  0  0  0  0  0  # atno 7974 bound_to 7965
  156.0854  140.3265  155.7747 H   0  0  0  0  0  0  0  0  0  0  0  0  # atno 8008 bound_to 7997
  155.5084  140.0575  157.2945 H   0  0  0  0  0  0  0  0  0  0  0  0  # atno 8009 bound_to 7997
  154.4606  140.1965  156.0272 H   0  0  0  0  0  0  0  0  0  0  0  0  # atno 8010 bound_to 7997
  139.6077  144.7074  151.2916 H   0  0  0  0  0  0  0  0  0  0  0  0  # atno 10167 bound_to 10162
  157.6430  130.9507  150.0732 H   0  0  0  0  0  0  0  0  0  0  0  0  # atno 10718 bound_to 10713
  154.2021  135.6409  153.5090 H   0  0  0  0  0  0  0  0  0  0  0  0  # atno 10763 bound_to 10752
  153.0009  135.5454  154.6304 H   0  0  0  0  0  0  0  0  0  0  0  0  # atno 10764 bound_to 10752
  154.5720  135.2917  155.0791 H   0  0  0  0  0  0  0  0  0  0  0  0  # atno 10765 bound_to 10752
  140.1586  134.8625  157.2545 H   0  0  0  0  0  0  0  0  0  0  0  0  # atno 11005 bound_to 11000
  145.6040  139.1506  143.3113 LP  0  0  0  0  0  0  0  0  0  0  0  0  # atno 17320 bound_to 7965
  146.2024  140.6159  142.9096 LP  0  0  0  0  0  0  0  0  0  0  0  0  # atno 17321 bound_to 7965
  140.7296  143.6902  150.7928 LP  0  0  0  0  0  0  0  0  0  0  0  0  # atno 17342 bound_to 10162
  140.0491  143.5268  152.2682 LP  0  0  0  0  0  0  0  0  0  0  0  0  # atno 17343 bound_to 10162
  156.1730  130.3647  149.9139 LP  0  0  0  0  0  0  0  0  0  0  0  0  # atno 17370 bound_to 10713
  156.7110  130.8970  151.3609 LP  0  0  0  0  0  0  0  0  0  0  0  0  # atno 17371 bound_to 10713
  140.2517  134.3675  155.7439 LP  0  0  0  0  0  0  0  0  0  0  0  0  # atno 17394 bound_to 11000
  141.2207  133.7320  156.8946 LP  0  0  0  0  0  0  0  0  0  0  0  0  # atno 17395 bound_to 11000

$$$$
