AV-unprocessed.smi:2985|AV-procd|sdf|11380|dock2
  -GOLD-   2272016303D 1   1.00000     0.00000
 Structure written by MMmdl.
 34 35  0  0  0  0  0  0  0  0  2 V2000
  153.2557  138.6969  154.5619 C   0  0  0  0  0  0  0  0  0  0  0  0
  152.1295  139.4843  154.9058 O   0  0  0  0  0  0  0  0  0  0  0  0
  151.3114  138.8661  155.8858 C   0  0  0  0  0  0  0  0  0  0  0  0
  151.4325  139.6166  157.2199 C   0  0  0  0  0  0  0  0  0  0  0  0
  151.1991  141.0609  157.0700 N   0  0  0  0  0  0  0  0  0  0  0  0
  150.4696  141.7446  156.1449 C   0  0  0  0  0  0  0  0  0  0  0  0
  149.5717  141.0566  154.7961 S   0  0  0  0  0  0  0  0  0  0  0  0
  147.8942  141.7120  154.9987 C   0  0  0  0  0  0  0  0  0  0  0  0
  146.8997  141.0748  154.0328 C   0  0  0  0  0  0  0  0  0  0  0  0
  145.6167  141.4211  154.1648 N   0  0  0  0  0  0  0  0  0  0  0  0
  147.2830  140.2776  153.1799 O   0  0  0  0  0  0  0  0  0  0  0  0
  150.5511  143.0691  156.4455 N   0  3  0  0  0  0  0  0  0  0  0  0
  151.3447  143.2394  157.5811 C   0  0  0  0  0  0  0  0  0  0  0  0
  151.7174  144.3917  158.2663 C   0  0  0  0  0  0  0  0  0  0  0  0
  152.5362  144.2164  159.4010 C   0  0  0  0  0  0  0  0  0  0  0  0
  152.9519  142.9344  159.8157 C   0  0  0  0  0  0  0  0  0  0  0  0
  152.5696  141.7733  159.1126 C   0  0  0  0  0  0  0  0  0  0  0  0
  151.7620  141.9542  157.9897 C   0  0  0  0  0  0  0  0  0  0  0  0
  153.8486  139.2151  153.8084 H   0  0  0  0  0  0  0  0  0  0  0  0
  152.9523  137.7345  154.1477 H   0  0  0  0  0  0  0  0  0  0  0  0
  153.8936  138.5200  155.4289 H   0  0  0  0  0  0  0  0  0  0  0  0
  150.2711  138.8663  155.5575 H   0  0  0  0  0  0  0  0  0  0  0  0
  151.6108  137.8250  156.0181 H   0  0  0  0  0  0  0  0  0  0  0  0
  150.7420  139.2148  157.9613 H   0  0  0  0  0  0  0  0  0  0  0  0
  152.4327  139.4807  157.6304 H   0  0  0  0  0  0  0  0  0  0  0  0
  147.5699  141.5372  156.0251 H   0  0  0  0  0  0  0  0  0  0  0  0
  147.9057  142.7918  154.8500 H   0  0  0  0  0  0  0  0  0  0  0  0
  144.9196  141.0242  153.5516 H   0  0  0  0  0  0  0  0  0  0  0  0
  145.3475  142.0786  154.8824 H   0  0  0  0  0  0  0  0  0  0  0  0
  151.3975  145.3748  157.9529 H   0  0  0  0  0  0  0  0  0  0  0  0
  152.8496  145.0820  159.9666 H   0  0  0  0  0  0  0  0  0  0  0  0
  153.5757  142.8386  160.6927 H   0  0  0  0  0  0  0  0  0  0  0  0
  152.8895  140.7966  159.4439 H   0  0  0  0  0  0  0  0  0  0  0  0
  150.0955  143.7989  155.9129 H   0  0  0  0  0  0  0  0  0  0  0  0
  1  2  1  0  0  0  0
  1 19  1  0  0  0  0
  1 20  1  0  0  0  0
  1 21  1  0  0  0  0
  2  3  1  0  0  0  0
  3  4  1  0  0  0  0
  3 22  1  0  0  0  0
  3 23  1  0  0  0  0
  4  5  1  0  0  0  0
  4 24  1  0  0  0  0
  4 25  1  0  0  0  0
  5 18  1  0  0  0  0
  5  6  1  0  0  0  0
  6  7  1  0  0  0  0
  6 12  2  0  0  0  0
  7  8  1  0  0  0  0
  8  9  1  0  0  0  0
  8 26  1  0  0  0  0
  8 27  1  0  0  0  0
  9 10  1  0  0  0  0
  9 11  2  0  0  0  0
 10 28  1  0  0  0  0
 10 29  1  0  0  0  0
 12 13  1  0  0  0  0
 12 34  1  0  0  0  0
 13 18  2  0  0  0  0
 13 14  1  0  0  0  0
 14 15  2  0  0  0  0
 14 30  1  0  0  0  0
 15 16  1  0  0  0  0
 15 31  1  0  0  0  0
 16 17  2  0  0  0  0
 16 32  1  0  0  0  0
 17 18  1  0  0  0  0
 17 33  1  0  0  0  0
M  CHG  1  12   1
M  END
> <s_m_source_file>
AV-unprocessed.smi

> <i_m_source_file_index>
2985

> <i_lp_mmshare_version>
43012

> <i_f3d_flags>
0

> <s_epik_input>
W2NIXTFbY0hdW2NIXVtjSF1jKGMxMiluKFtDSDJdW0NIMl1PW0NIM10pYyhuMilTW0NIMl1DKD1PKVtOSDJd

> <s_epik_cmdline>
J2VwaWtfcHl0aG9uJywgJy1waCcsICc3LjAnLCAnLXRuJywgJzgnLCAnLW1hJywgJzIwMCcsICctbWV0YWxfYmluZGluZycsICctaW1hZScsICc8aW5maWxlLm1hZT4nLCAnLW9tYWUnLCAnPG91dGZpbGUubWFlPic=

> <r_epik_Ionization_Penalty>
1.83623

> <r_epik_Ionization_Penalty_Charging>
1.83623

> <r_epik_Ionization_Penalty_Neutral>
3.318e-07

> <r_epik_State_Penalty>
1.95261

> <r_epik_Charging_Adjusted_Penalty>
3.78884

> <i_epik_Tot_Q>
1

> <i_epik_Tot_abs_Q>
1

> <r_epik_Metal_State_Penalty>
1.97924

> <b_epik_Metal_Only>
0

> <s_lp_Force_Field>
OPLS_2005

> <r_lp_Energy>
8.01345

> <b_lp_Chiralities_Consistent>
1

> <s_lp_Variant>
AV-unprocessed.smi:2985-2

> <Gold.Version>
5.8.1

> <Gold.Id.Protein>
6NUR|6NUR_protein|mol2

> <Gold.PLP.Fitness>
51.7153

> <Gold.PLP.PLP>
-41.6869

> <Gold.PLP.part.hbond>
-2.7965

> <Gold.PLP.part.metal>
0.0000

> <Gold.PLP.part.buried>
-5.3266

> <Gold.PLP.part.nonpolar>
-35.3414

> <Gold.PLP.part.repulsive>
0.5530

> <Gold.PLP.ligand.clash>
0.0000

> <Gold.PLP.ligand.torsion>
0.7925

> <Gold.PLP.Chemscore.Hbond>
3.8640

> <Gold.PLP.Chemscore.CHOScore>
0.0000

> <Gold.PLP.Chemscore.Metal>
0.0000

> <Gold.Chemscore.Hbonds>
donor molecule, donor type, donor heavy atom, donor atom, acceptor molecule, acceptor atom, score
      L1  H    10    28       P1 10175  1.00
      L1  H    12    34       P1  8028  2.00
      P1  H  7989  7998       L1     2  0.86

> <Gold.PLP.Chemscore.Internal.Correction>
0.0213

> <Gold.Rescore>
     Score         DG    S(hbond)    S(metal)    S(lipo)     H(rot)  DE(clash)    DE(int)     intcor
     17.60     -19.35       2.72        0.00     101.28       2.75       0.07       1.68       ----

> <Gold.Chemscore.Fitness>
17.5992

> <Gold.Chemscore.DG>
-19.3494

> <Gold.Chemscore.ZeroCoef>
-5.4800

> <Gold.Chemscore.Hbond>
2.7152

> <Gold.Chemscore.Metal>
0.0000

> <Gold.Chemscore.Lipo>
101.2840

> <Gold.Chemscore.Internal_Hbond>
0.0000

> <Gold.Chemscore.DEClash>
0.0670

> <Gold.Chemscore.DEInternal>
1.6832

> <Gold.Chemscore.Rot>
2.7537

> <Gold.Chemscore.Internal.Correction>
   9.000000E+99

> <Gold.Chemscore.Hbonds>
donor molecule, donor type, donor heavy atom, donor atom, acceptor molecule, acceptor atom, score
      L1  H    10    28       P1 10175  0.65
      L1  H    12    34       P1  8028  0.90
      P1  H  7989  7998       L1     2  0.68

> <Gold.Chemscore.Hbond.Weighted>
-9.0688

> <Gold.Chemscore.Metal.Weighted>
-0.0000

> <Gold.Chemscore.Lipo.Weighted>
-11.8502

> <Gold.Chemscore.Internal_Hbond.Weighted>
0.0000

> <Gold.Chemscore.DEClash.Weighted>
0.0670

> <Gold.Chemscore.DEInternal.Weighted>
1.6832

> <Gold.Chemscore.Rot.Weighted>
7.0496

> <Gold.Chemscore.Internal.Correction.Weighted>
   9.000000E+99

> <Gold.Protein.RotatedTorsions>
[ 6907 6896 6895 6894 ] final   39.03 input  -60.11 | X-H torsion
[ 7974 7965 7964 7962 ] final -168.61 input  175.53 | X-H torsion
[ 8008 7997 7996 7995 ] final   71.03 input   59.86 | X-H torsion
[ 10167 10162 10161 10158 ] final  -54.04 input  -65.29 | X-H torsion
[ 10718 10713 10712 10709 ] final  -22.68 input   66.30 | X-H torsion
[ 10763 10752 10751 10750 ] final  174.80 input  -60.55 | X-H torsion
[ 11005 11000 10999 10996 ] final  -99.82 input  -57.11 | X-H torsion

> <Gold.Protein.ActiveResidues>
 VAL166  LYS551  ARG553  GLY616  TRP617  ASP618  TYR619  PRO620  LYS621  CYS622 
 ASP623  PHE694  ASN695  SER759  ASP760  ASP761  ALA762  ILE779  LEU786  VAL792 
 PHE793  MET794  SER795  GLU796  ALA797  LYS798  CYS799  TRP800  GLU811  SER814 

> <Gold.Protein.RotatedAtoms>
  152.1642  134.8887  160.0539 H   0  0  0  0  0  0  0  0  0  0  0  0  # atno 6907 bound_to 6896
  151.9872  133.3773  159.4138 H   0  0  0  0  0  0  0  0  0  0  0  0  # atno 6908 bound_to 6896
  150.6892  134.3898  159.5115 H   0  0  0  0  0  0  0  0  0  0  0  0  # atno 6909 bound_to 6896
  144.7200  140.2344  143.6300 H   0  0  0  0  0  0  0  0  0  0  0  0  # atno 7974 bound_to 7965
  155.7477  140.3489  155.5135 H   0  0  0  0  0  0  0  0  0  0  0  0  # atno 8008 bound_to 7997
  155.9034  140.1038  157.1354 H   0  0  0  0  0  0  0  0  0  0  0  0  # atno 8009 bound_to 7997
  154.4046  140.1281  156.4452 H   0  0  0  0  0  0  0  0  0  0  0  0  # atno 8010 bound_to 7997
  140.6452  143.2531  151.4879 H   0  0  0  0  0  0  0  0  0  0  0  0  # atno 10167 bound_to 10162
  156.5012  130.4588  149.6700 H   0  0  0  0  0  0  0  0  0  0  0  0  # atno 10718 bound_to 10713
  154.4589  135.2767  155.1727 H   0  0  0  0  0  0  0  0  0  0  0  0  # atno 10763 bound_to 10752
  154.3523  135.6147  153.5652 H   0  0  0  0  0  0  0  0  0  0  0  0  # atno 10764 bound_to 10752
  152.9853  135.5814  154.4948 H   0  0  0  0  0  0  0  0  0  0  0  0  # atno 10765 bound_to 10752
  141.1294  133.8351  157.1021 H   0  0  0  0  0  0  0  0  0  0  0  0  # atno 11005 bound_to 11000
  145.8380  139.2116  143.1844 LP  0  0  0  0  0  0  0  0  0  0  0  0  # atno 17320 bound_to 7965
  146.0372  140.8201  142.9847 LP  0  0  0  0  0  0  0  0  0  0  0  0  # atno 17321 bound_to 7965
  139.5662  144.2036  152.1769 LP  0  0  0  0  0  0  0  0  0  0  0  0  # atno 17342 bound_to 10162
  140.1319  144.5281  150.6797 LP  0  0  0  0  0  0  0  0  0  0  0  0  # atno 17343 bound_to 10162
  156.3331  130.7342  151.2275 LP  0  0  0  0  0  0  0  0  0  0  0  0  # atno 17370 bound_to 10713
  157.7462  131.0424  150.4694 LP  0  0  0  0  0  0  0  0  0  0  0  0  # atno 17371 bound_to 10713
  140.0327  134.9893  157.0811 LP  0  0  0  0  0  0  0  0  0  0  0  0  # atno 17394 bound_to 11000
  140.4260  134.1830  155.7166 LP  0  0  0  0  0  0  0  0  0  0  0  0  # atno 17395 bound_to 11000

$$$$
