AV-unprocessed.smi:3329|AV-procd|sdf|12795|dock6
  -GOLD-   2272019153D 1   1.00000     0.00000
 Structure written by MMmdl.
 42 43  0  0  0  0  0  0  0  0  2 V2000
  145.9999  132.1923  149.9036 C   0  0  0  0  0  0  0  0  0  0  0  0
  145.5028  133.4146  150.6204 C   0  0  0  0  0  0  0  0  0  0  0  0
  144.1779  133.9353  150.6410 C   0  0  0  0  0  0  0  0  0  0  0  0
  144.0687  135.0335  151.3711 N   0  0  0  0  0  0  0  0  0  0  0  0
  145.3143  135.2511  151.8425 N   0  0  0  0  0  0  0  0  0  0  0  0
  145.5741  136.3980  152.6947 C   0  0  0  0  0  0  0  0  0  0  0  0
  146.0384  137.6299  151.8992 C   0  0  0  0  0  0  0  0  0  0  0  0
  145.8653  138.8710  152.6795 N   0  3  0  0  0  0  0  0  0  0  0  0
  146.9824  139.8291  152.5550 C   0  0  0  0  0  0  0  0  0  0  0  0
  147.8427  139.8817  153.8190 C   0  0  0  0  0  0  0  0  0  0  0  0
  147.4426  140.4657  154.8260 O   0  0  0  0  0  0  0  0  0  0  0  0
  149.0330  139.2640  153.7463 N   0  0  0  0  0  0  0  0  0  0  0  0
  150.0393  139.1796  154.8063 C   0  0  1  0  0  0  0  0  0  0  0  0
  149.3111  138.6648  156.0588 C   0  0  0  0  0  0  0  0  0  0  0  0
  151.0799  138.1940  154.4479 C   0  0  0  0  0  0  0  0  0  0  0  0
  151.8961  137.4222  154.1699 N   0  0  0  0  0  0  0  0  0  0  0  0
  150.6733  140.5344  155.1322 C   0  0  0  0  0  0  0  0  0  0  0  0
  151.3296  140.8491  156.4603 C   0  0  0  0  0  0  0  0  0  0  0  0
  150.0223  141.5087  156.0898 C   0  0  0  0  0  0  0  0  0  0  0  0
  146.2016  134.2932  151.3990 C   0  0  0  0  0  0  0  0  0  0  0  0
  146.0545  132.3535  148.8269 H   0  0  0  0  0  0  0  0  0  0  0  0
  145.3464  131.3354  150.0684 H   0  0  0  0  0  0  0  0  0  0  0  0
  146.9970  131.9027  150.2362 H   0  0  0  0  0  0  0  0  0  0  0  0
  143.2970  133.5491  150.1497 H   0  0  0  0  0  0  0  0  0  0  0  0
  144.6689  136.6293  153.2578 H   0  0  0  0  0  0  0  0  0  0  0  0
  146.3336  136.1155  153.4249 H   0  0  0  0  0  0  0  0  0  0  0  0
  147.0907  137.5199  151.6346 H   0  0  0  0  0  0  0  0  0  0  0  0
  145.4830  137.7077  150.9634 H   0  0  0  0  0  0  0  0  0  0  0  0
  145.0209  139.3288  152.3656 H   0  0  0  0  0  0  0  0  0  0  0  0
  147.6081  139.5487  151.7064 H   0  0  0  0  0  0  0  0  0  0  0  0
  146.5847  140.8253  152.3564 H   0  0  0  0  0  0  0  0  0  0  0  0
  149.2720  138.8153  152.8737 H   0  0  0  0  0  0  0  0  0  0  0  0
  150.0001  138.5492  156.8966 H   0  0  0  0  0  0  0  0  0  0  0  0
  148.8520  137.6917  155.8796 H   0  0  0  0  0  0  0  0  0  0  0  0
  148.5231  139.3501  156.3740 H   0  0  0  0  0  0  0  0  0  0  0  0
  151.1418  140.9965  154.2648 H   0  0  0  0  0  0  0  0  0  0  0  0
  151.3045  140.0962  157.2452 H   0  0  0  0  0  0  0  0  0  0  0  0
  152.2261  141.4653  156.4405 H   0  0  0  0  0  0  0  0  0  0  0  0
  150.0495  142.5638  155.8260 H   0  0  0  0  0  0  0  0  0  0  0  0
  149.1304  141.1870  156.6235 H   0  0  0  0  0  0  0  0  0  0  0  0
  147.2463  134.3126  151.6728 H   0  0  0  0  0  0  0  0  0  0  0  0
  145.7554  138.6316  153.6546 H   0  0  0  0  0  0  0  0  0  0  0  0
  1  2  1  0  0  0  0
  1 21  1  0  0  0  0
  1 22  1  0  0  0  0
  1 23  1  0  0  0  0
  2 20  2  0  0  0  0
  2  3  1  0  0  0  0
  3  4  2  0  0  0  0
  3 24  1  0  0  0  0
  4  5  1  0  0  0  0
  5  6  1  0  0  0  0
  5 20  1  0  0  0  0
  6  7  1  0  0  0  0
  6 25  1  0  0  0  0
  6 26  1  0  0  0  0
  7  8  1  0  0  0  0
  7 27  1  0  0  0  0
  7 28  1  0  0  0  0
  8  9  1  0  0  0  0
  8 29  1  0  0  0  0
  8 42  1  0  0  0  0
  9 10  1  0  0  0  0
  9 30  1  0  0  0  0
  9 31  1  0  0  0  0
 10 11  2  0  0  0  0
 10 12  1  0  0  0  0
 12 13  1  0  0  0  0
 12 32  1  0  0  0  0
 13 14  1  0  0  0  0
 13 15  1  0  0  0  0
 13 17  1  0  0  0  0
 14 33  1  0  0  0  0
 14 34  1  0  0  0  0
 14 35  1  0  0  0  0
 15 16  3  0  0  0  0
 17 19  1  0  0  0  0
 17 18  1  0  0  0  0
 17 36  1  0  0  0  0
 18 19  1  0  0  0  0
 18 37  1  0  0  0  0
 18 38  1  0  0  0  0
 19 39  1  0  0  0  0
 19 40  1  0  0  0  0
 20 41  1  0  0  0  0
M  CHG  1   8   1
M  END
> <s_m_source_file>
AV-unprocessed.smi

> <i_m_source_file_index>
3329

> <i_lp_mmshare_version>
43012

> <i_f3d_flags>
0

> <s_epik_input>
W0NIM11jMVtjSF1ubihbY0hdMSlbQ0gyXVtDSDJdW05IXVtDSDJdQyg9TylbTkhdW0NAQF0oW0NIM10pKEMjTilbQ0hdMltDSDJdW0NIMl0y

> <s_epik_cmdline>
J2VwaWtfcHl0aG9uJywgJy1waCcsICc3LjAnLCAnLXRuJywgJzgnLCAnLW1hJywgJzIwMCcsICctbWV0YWxfYmluZGluZycsICctaW1hZScsICc8aW5maWxlLm1hZT4nLCAnLW9tYWUnLCAnPG91dGZpbGUubWFlPic=

> <r_lp_tautomer_probability>
1

> <r_epik_Ionization_Penalty>
0.350291

> <r_epik_Ionization_Penalty_Charging>
0.350239

> <r_epik_Ionization_Penalty_Neutral>
5.12768e-05

> <r_epik_State_Penalty>
0.347656

> <r_epik_Charging_Adjusted_Penalty>
0.697895

> <i_epik_Tot_Q>
1

> <i_epik_Tot_abs_Q>
1

> <r_epik_Metal_State_Penalty>
0.371739

> <b_epik_Metal_Only>
0

> <s_lp_Force_Field>
OPLS_2005

> <r_lp_Energy>
10.54

> <b_lp_Chiralities_Consistent>
1

> <s_lp_Variant>
AV-unprocessed.smi:3329-1

> <Gold.Version>
5.8.1

> <Gold.Id.Protein>
6NUR|6NUR_protein|mol2

> <Gold.PLP.Fitness>
46.9376

> <Gold.PLP.PLP>
-33.6518

> <Gold.PLP.part.hbond>
-3.0000

> <Gold.PLP.part.metal>
0.0000

> <Gold.PLP.part.buried>
-0.2783

> <Gold.PLP.part.nonpolar>
-31.9600

> <Gold.PLP.part.repulsive>
1.0613

> <Gold.PLP.ligand.clash>
0.0000

> <Gold.PLP.ligand.torsion>
2.1568

> <Gold.PLP.Chemscore.Hbond>
3.3300

> <Gold.PLP.Chemscore.CHOScore>
2.0000

> <Gold.PLP.Chemscore.Metal>
0.0000

> <Gold.Chemscore.Hbonds>
donor molecule, donor type, donor heavy atom, donor atom, acceptor molecule, acceptor atom, score
      L1  H     8    29       P1 10175  2.00
      L1  H    12    32       P1  7957  0.30
      P1  H 10752 10764       L1    16  0.95
      L1  C     3    24       P1 10186  1.00
      L1  C    20    41       P1  7948  1.00

> <Gold.PLP.Chemscore.Internal.Correction>
1.6094

> <Gold.Rescore>
     Score         DG    S(hbond)    S(metal)    S(lipo)     H(rot)  DE(clash)    DE(int)     intcor
     11.54     -15.19       2.10        0.00      75.44       2.40       0.07       3.58       ----

> <Gold.Chemscore.Fitness>
11.5419

> <Gold.Chemscore.DG>
-15.1939

> <Gold.Chemscore.ZeroCoef>
-5.4800

> <Gold.Chemscore.Hbond>
2.1033

> <Gold.Chemscore.Metal>
0.0000

> <Gold.Chemscore.Lipo>
75.4353

> <Gold.Chemscore.Internal_Hbond>
0.0000

> <Gold.Chemscore.DEClash>
0.0741

> <Gold.Chemscore.DEInternal>
3.5780

> <Gold.Chemscore.Rot>
2.3972

> <Gold.Chemscore.Internal.Correction>
   9.000000E+99

> <Gold.Chemscore.Hbonds>
donor molecule, donor type, donor heavy atom, donor atom, acceptor molecule, acceptor atom, score
      L1  H     8    29       P1 10175  0.99
      L1  H    12    32       P1  7957  0.28
      P1  H 10752 10764       L1    16  0.85

> <Gold.Chemscore.Hbond.Weighted>
-7.0249

> <Gold.Chemscore.Metal.Weighted>
-0.0000

> <Gold.Chemscore.Lipo.Weighted>
-8.8259

> <Gold.Chemscore.Internal_Hbond.Weighted>
0.0000

> <Gold.Chemscore.DEClash.Weighted>
0.0741

> <Gold.Chemscore.DEInternal.Weighted>
3.5780

> <Gold.Chemscore.Rot.Weighted>
6.1369

> <Gold.Chemscore.Internal.Correction.Weighted>
   9.000000E+99

> <Gold.Protein.RotatedTorsions>
[ 6907 6896 6895 6894 ] final  -87.97 input  -60.11 | X-H torsion
[ 7974 7965 7964 7962 ] final  -96.86 input  175.53 | X-H torsion
[ 8008 7997 7996 7995 ] final -152.22 input   59.86 | X-H torsion
[ 10167 10162 10161 10158 ] final  -66.46 input  -65.29 | X-H torsion
[ 10718 10713 10712 10709 ] final  141.53 input   66.30 | X-H torsion
[ 10763 10752 10751 10750 ] final  -87.81 input  -60.55 | X-H torsion
[ 11005 11000 10999 10996 ] final  128.72 input  -57.11 | X-H torsion

> <Gold.Protein.ActiveResidues>
 VAL166  LYS551  ARG553  GLY616  TRP617  ASP618  TYR619  PRO620  LYS621  CYS622 
 ASP623  PHE694  ASN695  SER759  ASP760  ASP761  ALA762  ILE779  LEU786  VAL792 
 PHE793  MET794  SER795  GLU796  ALA797  LYS798  CYS799  TRP800  GLU811  SER814 

> <Gold.Protein.RotatedAtoms>
  150.6867  134.2814  159.4628 H   0  0  0  0  0  0  0  0  0  0  0  0  # atno 6907 bound_to 6896
  152.0728  134.9520  160.0583 H   0  0  0  0  0  0  0  0  0  0  0  0  # atno 6908 bound_to 6896
  152.0903  133.4162  159.4578 H   0  0  0  0  0  0  0  0  0  0  0  0  # atno 6909 bound_to 6896
  145.3413  140.9460  143.2606 H   0  0  0  0  0  0  0  0  0  0  0  0  # atno 7974 bound_to 7965
  155.6517  140.0712  157.2584 H   0  0  0  0  0  0  0  0  0  0  0  0  # atno 8008 bound_to 7997
  154.4161  140.1732  156.1731 H   0  0  0  0  0  0  0  0  0  0  0  0  # atno 8009 bound_to 7997
  155.9771  140.3357  155.6632 H   0  0  0  0  0  0  0  0  0  0  0  0  # atno 8010 bound_to 7997
  140.5655  143.2314  151.6642 H   0  0  0  0  0  0  0  0  0  0  0  0  # atno 10167 bound_to 10162
  157.3909  131.1004  151.0647 H   0  0  0  0  0  0  0  0  0  0  0  0  # atno 10718 bound_to 10713
  154.6377  135.5400  153.7753 H   0  0  0  0  0  0  0  0  0  0  0  0  # atno 10763 bound_to 10752
  153.0317  135.6451  154.1207 H   0  0  0  0  0  0  0  0  0  0  0  0  # atno 10764 bound_to 10752
  154.1133  135.2925  155.3205 H   0  0  0  0  0  0  0  0  0  0  0  0  # atno 10765 bound_to 10752
  139.9576  134.9609  156.9043 H   0  0  0  0  0  0  0  0  0  0  0  0  # atno 11005 bound_to 11000
  144.8788  139.4933  143.6733 LP  0  0  0  0  0  0  0  0  0  0  0  0  # atno 17320 bound_to 7965
  146.3006  139.7415  142.9094 LP  0  0  0  0  0  0  0  0  0  0  0  0  # atno 17321 bound_to 7965
  139.5091  144.3588  152.0582 LP  0  0  0  0  0  0  0  0  0  0  0  0  # atno 17342 bound_to 10162
  140.2720  144.3954  150.6148 LP  0  0  0  0  0  0  0  0  0  0  0  0  # atno 17343 bound_to 10162
  157.1682  130.6255  149.5632 LP  0  0  0  0  0  0  0  0  0  0  0  0  # atno 17370 bound_to 10713
  155.9798  130.4794  150.6736 LP  0  0  0  0  0  0  0  0  0  0  0  0  # atno 17371 bound_to 10713
  140.5574  134.0568  155.7388 LP  0  0  0  0  0  0  0  0  0  0  0  0  # atno 17394 bound_to 11000
  141.1249  133.9399  157.2655 LP  0  0  0  0  0  0  0  0  0  0  0  0  # atno 17395 bound_to 11000

$$$$
