AV-unprocessed.smi:21|AV-procd|sdf|131|dock3
  -GOLD-   2262015313D 1   1.00000     0.00000
 Structure written by MMmdl.
 62 65  0  0  0  0  0  0  0  0  2 V2000
  146.2501  133.6920  152.7322 C   0  0  0  0  0  0  0  0  0  0  0  0
  146.9938  134.4019  153.7102 O   0  0  0  0  0  0  0  0  0  0  0  0
  146.2896  135.4959  154.2838 C   0  0  1  0  0  0  0  0  0  0  0  0
  147.0686  136.0043  155.4901 C   0  0  0  0  0  0  0  0  0  0  0  0
  148.1628  136.8873  154.8781 C   0  0  2  0  0  0  0  0  0  0  0  0
  148.7366  137.9452  155.8555 C   0  0  0  0  0  0  0  0  0  0  0  0
  149.9751  137.5151  156.5042 N   0  0  0  0  0  0  0  0  0  0  0  0
  150.4263  136.1424  156.2765 C   0  0  0  0  0  0  0  0  0  0  0  0
  150.8531  138.4218  157.0302 C   0  0  0  0  0  0  0  0  0  0  0  0
  151.9832  137.9474  157.6227 N   0  0  0  0  0  0  0  0  0  0  0  0
  152.8909  138.7756  158.1438 C   0  0  0  0  0  0  0  0  0  0  0  0
  152.8742  140.1066  158.1851 N   0  0  0  0  0  0  0  0  0  0  0  0
  151.7456  140.6023  157.6050 C   0  0  0  0  0  0  0  0  0  0  0  0
  150.6925  139.8443  157.0108 C   0  0  0  0  0  0  0  0  0  0  0  0
  149.7191  140.7178  156.5323 N   0  0  0  0  0  0  0  0  0  0  0  0
  150.1696  141.9074  156.8187 C   0  0  0  0  0  0  0  0  0  0  0  0
  151.3759  141.9299  157.4768 N   0  0  0  0  0  0  0  0  0  0  0  0
  152.1134  143.1093  157.8976 C   0  0  0  0  0  0  0  0  0  0  0  0
  151.7715  143.6093  159.3258 C   0  0  2  0  0  0  0  0  0  0  0  0
  152.3457  145.0390  159.4837 C   0  0  0  0  0  0  0  0  0  0  0  0
  151.5028  145.8636  160.2613 O   0  0  0  0  0  0  0  0  0  0  0  0
  152.2799  142.6453  160.4415 C   0  0  1  0  0  0  0  0  0  0  0  0
  153.6442  142.0202  160.1948 C   0  0  0  0  0  0  0  0  0  0  0  0
  154.0319  141.5300  161.5817 C   0  0  0  0  0  0  0  0  0  0  0  0
  153.5551  142.5383  162.4589 O   0  0  0  0  0  0  0  0  0  0  0  0
  152.5167  143.2780  161.8228 C   0  0  0  0  0  0  0  0  0  0  0  0
  147.5891  137.4169  153.6070 N   0  3  2  0  0  0  0  0  0  0  0  0
  147.4823  138.8878  153.4590 C   0  0  0  0  0  0  0  0  0  0  0  0
  146.3111  136.7116  153.3513 C   0  0  0  0  0  0  0  0  0  0  0  0
  145.2778  135.2009  154.5672 H   0  0  0  0  0  0  0  0  0  0  0  0
  148.9707  136.2272  154.5614 H   0  0  0  0  0  0  0  0  0  0  0  0
  146.8600  132.8846  152.3274 H   0  0  0  0  0  0  0  0  0  0  0  0
  145.9522  134.3332  151.9028 H   0  0  0  0  0  0  0  0  0  0  0  0
  145.3547  133.2472  153.1678 H   0  0  0  0  0  0  0  0  0  0  0  0
  146.4102  136.6071  156.1174 H   0  0  0  0  0  0  0  0  0  0  0  0
  147.4688  135.1987  156.1067 H   0  0  0  0  0  0  0  0  0  0  0  0
  148.9084  138.8996  155.3623 H   0  0  0  0  0  0  0  0  0  0  0  0
  147.9985  138.1595  156.6287 H   0  0  0  0  0  0  0  0  0  0  0  0
  150.7719  135.6910  157.2072 H   0  0  0  0  0  0  0  0  0  0  0  0
  151.2436  136.1183  155.5549 H   0  0  0  0  0  0  0  0  0  0  0  0
  149.6226  135.5165  155.8887 H   0  0  0  0  0  0  0  0  0  0  0  0
  153.7541  138.3041  158.5901 H   0  0  0  0  0  0  0  0  0  0  0  0
  149.6285  142.8064  156.5611 H   0  0  0  0  0  0  0  0  0  0  0  0
  153.1828  142.9113  157.8175 H   0  0  0  0  0  0  0  0  0  0  0  0
  151.8950  143.8861  157.1641 H   0  0  0  0  0  0  0  0  0  0  0  0
  150.6854  143.6856  159.3981 H   0  0  0  0  0  0  0  0  0  0  0  0
  153.3443  145.0126  159.9213 H   0  0  0  0  0  0  0  0  0  0  0  0
  152.4420  145.5295  158.5147 H   0  0  0  0  0  0  0  0  0  0  0  0
  150.8778  145.3158  160.7114 H   0  0  0  0  0  0  0  0  0  0  0  0
  151.5611  141.8324  160.5583 H   0  0  0  0  0  0  0  0  0  0  0  0
  153.6228  141.2118  159.4635 H   0  0  0  0  0  0  0  0  0  0  0  0
  154.3561  142.7743  159.8562 H   0  0  0  0  0  0  0  0  0  0  0  0
  153.5255  140.5915  161.8111 H   0  0  0  0  0  0  0  0  0  0  0  0
  155.1055  141.3759  161.6913 H   0  0  0  0  0  0  0  0  0  0  0  0
  152.8495  144.3122  161.7319 H   0  0  0  0  0  0  0  0  0  0  0  0
  151.6201  143.2619  162.4409 H   0  0  0  0  0  0  0  0  0  0  0  0
  146.8488  139.3220  154.2331 H   0  0  0  0  0  0  0  0  0  0  0  0
  147.0453  139.1348  152.4911 H   0  0  0  0  0  0  0  0  0  0  0  0
  148.4635  139.3608  153.4984 H   0  0  0  0  0  0  0  0  0  0  0  0
  146.2024  136.4565  152.2976 H   0  0  0  0  0  0  0  0  0  0  0  0
  145.4775  137.3653  153.6141 H   0  0  0  0  0  0  0  0  0  0  0  0
  148.2263  137.1118  152.8848 H   0  0  0  0  0  0  0  0  0  0  0  0
  1  2  1  0  0  0  0
  1 32  1  0  0  0  0
  1 33  1  0  0  0  0
  1 34  1  0  0  0  0
  2  3  1  0  0  0  0
  3 30  1  0  0  0  0
  3 29  1  0  0  0  0
  3  4  1  0  0  0  0
  4  5  1  0  0  0  0
  4 35  1  0  0  0  0
  4 36  1  0  0  0  0
  5 31  1  0  0  0  0
  5  6  1  0  0  0  0
  5 27  1  0  0  0  0
  6  7  1  0  0  0  0
  6 37  1  0  0  0  0
  6 38  1  0  0  0  0
  7  8  1  0  0  0  0
  7  9  1  0  0  0  0
  8 39  1  0  0  0  0
  8 40  1  0  0  0  0
  8 41  1  0  0  0  0
  9 14  1  0  0  0  0
  9 10  2  0  0  0  0
 10 11  1  0  0  0  0
 11 12  2  0  0  0  0
 11 42  1  0  0  0  0
 12 13  1  0  0  0  0
 13 17  1  0  0  0  0
 13 14  2  0  0  0  0
 14 15  1  0  0  0  0
 15 16  2  0  0  0  0
 16 17  1  0  0  0  0
 16 43  1  0  0  0  0
 17 18  1  0  0  0  0
 18 19  1  0  0  0  0
 18 44  1  0  0  0  0
 18 45  1  0  0  0  0
 19 20  1  0  0  0  0
 19 22  1  0  0  0  0
 19 46  1  0  0  0  0
 20 21  1  0  0  0  0
 20 47  1  0  0  0  0
 20 48  1  0  0  0  0
 21 49  1  0  0  0  0
 22 26  1  0  0  0  0
 22 23  1  0  0  0  0
 22 50  1  0  0  0  0
 23 24  1  0  0  0  0
 23 51  1  0  0  0  0
 23 52  1  0  0  0  0
 24 25  1  0  0  0  0
 24 53  1  0  0  0  0
 24 54  1  0  0  0  0
 25 26  1  0  0  0  0
 26 55  1  0  0  0  0
 26 56  1  0  0  0  0
 27 28  1  0  0  0  0
 27 29  1  0  0  0  0
 27 62  1  0  0  0  0
 28 57  1  0  0  0  0
 28 58  1  0  0  0  0
 28 59  1  0  0  0  0
 29 60  1  0  0  0  0
 29 61  1  0  0  0  0
M  CHG  1  27   1
M  END
> <s_m_source_file>
AV-unprocessed.smi

> <i_m_source_file_index>
21

> <i_lp_mmshare_version>
43012

> <i_f3d_flags>
0

> <s_epik_input>
W0NIM11PW0NASF0xW0NIMl1bQ0BIXShOKFtDSDNdKVtDSDJdMSlbQ0gyXU4oW0NIM10pYyhuW2NIXW4yKWMoYzIzKW5bY0hdbjNbQ0gyXVtDQEhdKFtDSDJdW09IXSlbQ0BASF00W0NIMl1bQ0gyXU9bQ0gyXTQ=

> <s_epik_cmdline>
J2VwaWtfcHl0aG9uJywgJy1waCcsICc3LjAnLCAnLXRuJywgJzgnLCAnLW1hJywgJzIwMCcsICctbWV0YWxfYmluZGluZycsICctaW1hZScsICc8aW5maWxlLm1hZT4nLCAnLW9tYWUnLCAnPG91dGZpbGUubWFlPic=

> <r_lp_tautomer_probability>
1

> <r_epik_Ionization_Penalty>
0.0157465

> <r_epik_Ionization_Penalty_Charging>
0.015354

> <r_epik_Ionization_Penalty_Neutral>
0.000392529

> <r_epik_State_Penalty>
0.0120612

> <r_epik_Charging_Adjusted_Penalty>
0.0274152

> <i_epik_Tot_Q>
1

> <i_epik_Tot_abs_Q>
1

> <r_epik_Metal_State_Penalty>
0.0121253

> <b_epik_Metal_Only>
0

> <s_lp_Force_Field>
OPLS_2005

> <r_lp_Energy>
62.3844

> <b_lp_Chiralities_Consistent>
1

> <s_lp_Variant>
AV-unprocessed.smi:21-11

> <Gold.Version>
5.8.1

> <Gold.Id.Protein>
6NUR|6NUR_protein|mol2

> <Gold.PLP.Fitness>
49.2848

> <Gold.PLP.PLP>
-43.5855

> <Gold.PLP.part.hbond>
-3.8991

> <Gold.PLP.part.metal>
0.0000

> <Gold.PLP.part.buried>
-4.5361

> <Gold.PLP.part.nonpolar>
-34.4024

> <Gold.PLP.part.repulsive>
0.2073

> <Gold.PLP.ligand.clash>
0.0000

> <Gold.PLP.ligand.torsion>
2.2859

> <Gold.PLP.Chemscore.Hbond>
2.1000

> <Gold.PLP.Chemscore.CHOScore>
1.0000

> <Gold.PLP.Chemscore.Metal>
0.0000

> <Gold.Chemscore.Hbonds>
donor molecule, donor type, donor heavy atom, donor atom, acceptor molecule, acceptor atom, score
      L1  H    27    62       P1  7948  1.98
      P1  H  7997  8009       L1    12  0.32
      L1  C    16    43       P1  8028  1.00

> <Gold.PLP.Chemscore.Internal.Correction>
0.9710

> <Gold.Rescore>
     Score         DG    S(hbond)    S(metal)    S(lipo)     H(rot)  DE(clash)    DE(int)     intcor
     10.10     -13.07       1.01        0.00     103.47       3.08       0.19       2.78       ----

> <Gold.Chemscore.Fitness>
10.1025

> <Gold.Chemscore.DG>
-13.0721

> <Gold.Chemscore.ZeroCoef>
-5.4800

> <Gold.Chemscore.Hbond>
1.0061

> <Gold.Chemscore.Metal>
0.0000

> <Gold.Chemscore.Lipo>
103.4702

> <Gold.Chemscore.Internal_Hbond>
0.0000

> <Gold.Chemscore.DEClash>
0.1853

> <Gold.Chemscore.DEInternal>
2.7844

> <Gold.Chemscore.Rot>
3.0758

> <Gold.Chemscore.Internal.Correction>
   9.000000E+99

> <Gold.Chemscore.Hbonds>
donor molecule, donor type, donor heavy atom, donor atom, acceptor molecule, acceptor atom, score
      L1  H    27    62       P1  7948  0.92
      P1  H  7997  8009       L1    12  0.01

> <Gold.Chemscore.Hbond.Weighted>
-3.3603

> <Gold.Chemscore.Metal.Weighted>
-0.0000

> <Gold.Chemscore.Lipo.Weighted>
-12.1060

> <Gold.Chemscore.Internal_Hbond.Weighted>
0.0000

> <Gold.Chemscore.DEClash.Weighted>
0.1853

> <Gold.Chemscore.DEInternal.Weighted>
2.7844

> <Gold.Chemscore.Rot.Weighted>
7.8741

> <Gold.Chemscore.Internal.Correction.Weighted>
   9.000000E+99

> <Gold.Protein.RotatedTorsions>
[ 6907 6896 6895 6894 ] final  145.02 input  -60.11 | X-H torsion
[ 7974 7965 7964 7962 ] final  141.97 input  175.53 | X-H torsion
[ 8008 7997 7996 7995 ] final  172.45 input   59.86 | X-H torsion
[ 10167 10162 10161 10158 ] final -144.72 input  -65.29 | X-H torsion
[ 10718 10713 10712 10709 ] final  117.34 input   66.30 | X-H torsion
[ 10763 10752 10751 10750 ] final  116.35 input  -60.55 | X-H torsion
[ 11005 11000 10999 10996 ] final   92.21 input  -57.11 | X-H torsion

> <Gold.Protein.ActiveResidues>
 VAL166  LYS551  ARG553  GLY616  TRP617  ASP618  TYR619  PRO620  LYS621  CYS622 
 ASP623  PHE694  ASN695  SER759  ASP760  ASP761  ALA762  ILE779  LEU786  VAL792 
 PHE793  MET794  SER795  GLU796  ALA797  LYS798  CYS799  TRP800  GLU811  SER814 

> <Gold.Protein.RotatedAtoms>
  152.1862  133.4741  159.4983 H   0  0  0  0  0  0  0  0  0  0  0  0  # atno 6907 bound_to 6896
  150.6943  134.1770  159.4243 H   0  0  0  0  0  0  0  0  0  0  0  0  # atno 6908 bound_to 6896
  151.9683  135.0089  160.0602 H   0  0  0  0  0  0  0  0  0  0  0  0  # atno 6909 bound_to 6896
  144.9049  139.5372  143.5736 H   0  0  0  0  0  0  0  0  0  0  0  0  # atno 7974 bound_to 7965
  156.1173  140.1486  156.9254 H   0  0  0  0  0  0  0  0  0  0  0  0  # atno 8008 bound_to 7997
  154.4810  140.0879  156.7419 H   0  0  0  0  0  0  0  0  0  0  0  0  # atno 8009 bound_to 7997
  155.4490  140.3434  155.4301 H   0  0  0  0  0  0  0  0  0  0  0  0  # atno 8010 bound_to 7997
  139.7872  143.8017  152.2646 H   0  0  0  0  0  0  0  0  0  0  0  0  # atno 10167 bound_to 10162
  157.6102  131.1036  150.7602 H   0  0  0  0  0  0  0  0  0  0  0  0  # atno 10718 bound_to 10713
  153.5359  135.3568  155.2697 H   0  0  0  0  0  0  0  0  0  0  0  0  # atno 10763 bound_to 10752
  154.8722  135.4079  154.3098 H   0  0  0  0  0  0  0  0  0  0  0  0  # atno 10764 bound_to 10752
  153.3796  135.7067  153.6643 H   0  0  0  0  0  0  0  0  0  0  0  0  # atno 10765 bound_to 10752
  139.8827  134.8719  156.3540 H   0  0  0  0  0  0  0  0  0  0  0  0  # atno 11005 bound_to 11000
  146.3128  139.7808  142.9006 LP  0  0  0  0  0  0  0  0  0  0  0  0  # atno 17320 bound_to 7965
  145.3553  141.0315  143.3315 LP  0  0  0  0  0  0  0  0  0  0  0  0  # atno 17321 bound_to 7965
  139.8097  144.7341  150.9714 LP  0  0  0  0  0  0  0  0  0  0  0  0  # atno 17342 bound_to 10162
  140.7820  143.4263  151.0763 LP  0  0  0  0  0  0  0  0  0  0  0  0  # atno 17343 bound_to 10162
  156.7981  130.4912  149.5374 LP  0  0  0  0  0  0  0  0  0  0  0  0  # atno 17370 bound_to 10713
  156.1203  130.6105  151.0183 LP  0  0  0  0  0  0  0  0  0  0  0  0  # atno 17371 bound_to 10713
  140.9575  133.7410  156.0355 LP  0  0  0  0  0  0  0  0  0  0  0  0  # atno 17394 bound_to 11000
  140.8030  134.3486  157.5434 LP  0  0  0  0  0  0  0  0  0  0  0  0  # atno 17395 bound_to 11000

$$$$
