AV-unprocessed.smi:1933|AV-procd|sdf|7818|dock7
  -GOLD-   22720 9563D 1   1.00000     0.00000
 Structure written by MMmdl.
 47 49  0  0  0  0  0  0  0  0  1 V2000
  144.5045  136.6656  152.4298 O   0  0  0  0  0  0  0  0  0  0  0  0
  145.7041  136.4626  152.2393 C   0  0  0  0  0  0  0  0  0  0  0  0
  146.6556  137.3701  152.5026 N   0  0  0  0  0  0  0  0  0  0  0  0
  146.4074  138.6991  153.0526 C   0  0  0  0  0  0  0  0  0  0  0  0
  147.7080  139.4253  153.4922 C   0  0  1  0  0  0  0  0  0  0  0  0
  147.4347  140.6509  154.4119 C   0  0  1  0  0  0  0  0  0  0  0  0
  146.6919  141.8530  153.8594 C   0  0  0  0  0  0  0  0  0  0  0  0
  146.3972  142.6247  155.1415 C   0  0  0  0  0  0  0  0  0  0  0  0
  146.1698  141.6301  156.1377 O   0  0  0  0  0  0  0  0  0  0  0  0
  146.6244  140.3590  155.6759 C   0  0  0  0  0  0  0  0  0  0  0  0
  148.7876  138.5270  153.9461 N   0  0  0  0  0  0  0  0  0  0  0  0
  150.0836  139.1685  154.1844 C   0  0  0  0  0  0  0  0  0  0  0  0
  151.1623  138.1385  154.5578 C   0  0  0  0  0  0  0  0  0  0  0  0
  150.7472  137.4177  155.7136 O   0  0  0  0  0  0  0  0  0  0  0  0
  149.5020  136.7513  155.5299 C   0  0  0  0  0  0  0  0  0  0  0  0
  148.4172  137.7708  155.1407 C   0  0  0  0  0  0  0  0  0  0  0  0
  146.2337  135.3264  151.7524 N   0  0  0  0  0  0  0  0  0  0  0  0
  145.5576  134.1343  151.3774 C   0  0  0  0  0  0  0  0  0  0  0  0
  146.3905  133.0993  150.8953 C   0  0  0  0  0  0  0  0  0  0  0  0
  145.8171  131.8743  150.5025 C   0  0  0  0  0  0  0  0  0  0  0  0
  144.4234  131.7157  150.6011 C   0  0  0  0  0  0  0  0  0  0  0  0
  143.6661  132.7963  151.0893 C   0  0  0  0  0  0  0  0  0  0  0  0
  144.2138  133.9707  151.4670 N   0  0  0  0  0  0  0  0  0  0  0  0
  147.6168  137.1253  152.3152 H   0  0  0  0  0  0  0  0  0  0  0  0
  145.8921  139.2795  152.2872 H   0  0  0  0  0  0  0  0  0  0  0  0
  145.7100  138.6075  153.8864 H   0  0  0  0  0  0  0  0  0  0  0  0
  148.0856  139.8985  152.5848 H   0  0  0  0  0  0  0  0  0  0  0  0
  148.4019  141.0176  154.7593 H   0  0  0  0  0  0  0  0  0  0  0  0
  147.2679  142.4288  153.1350 H   0  0  0  0  0  0  0  0  0  0  0  0
  145.7405  141.5732  153.4144 H   0  0  0  0  0  0  0  0  0  0  0  0
  147.2615  143.2225  155.4338 H   0  0  0  0  0  0  0  0  0  0  0  0
  145.5416  143.2929  155.0410 H   0  0  0  0  0  0  0  0  0  0  0  0
  145.7515  139.7435  155.4555 H   0  0  0  0  0  0  0  0  0  0  0  0
  147.2139  139.8482  156.4376 H   0  0  0  0  0  0  0  0  0  0  0  0
  150.4176  139.7346  153.3214 H   0  0  0  0  0  0  0  0  0  0  0  0
  150.0004  139.8858  155.0017 H   0  0  0  0  0  0  0  0  0  0  0  0
  151.3421  137.4486  153.7318 H   0  0  0  0  0  0  0  0  0  0  0  0
  152.1071  138.6386  154.7708 H   0  0  0  0  0  0  0  0  0  0  0  0
  149.6037  135.9851  154.7599 H   0  0  0  0  0  0  0  0  0  0  0  0
  149.2298  136.2423  156.4545 H   0  0  0  0  0  0  0  0  0  0  0  0
  148.2443  138.4493  155.9765 H   0  0  0  0  0  0  0  0  0  0  0  0
  147.4797  137.2404  154.9710 H   0  0  0  0  0  0  0  0  0  0  0  0
  147.2370  135.3083  151.6456 H   0  0  0  0  0  0  0  0  0  0  0  0
  147.4597  133.2376  150.8263 H   0  0  0  0  0  0  0  0  0  0  0  0
  146.4365  131.0707  150.1324 H   0  0  0  0  0  0  0  0  0  0  0  0
  143.9473  130.7908  150.3104 H   0  0  0  0  0  0  0  0  0  0  0  0
  142.5929  132.7157  151.1797 H   0  0  0  0  0  0  0  0  0  0  0  0
  1  2  2  0  0  0  0
  2  3  1  0  0  0  0
  2 17  1  0  0  0  0
  3  4  1  0  0  0  0
  3 24  1  0  0  0  0
  4  5  1  0  0  0  0
  4 25  1  0  0  0  0
  4 26  1  0  0  0  0
  5  6  1  0  0  0  0
  5 11  1  0  0  0  0
  5 27  1  0  0  0  0
  6 10  1  0  0  0  0
  6  7  1  0  0  0  0
  6 28  1  0  0  0  0
  7  8  1  0  0  0  0
  7 29  1  0  0  0  0
  7 30  1  0  0  0  0
  8  9  1  0  0  0  0
  8 31  1  0  0  0  0
  8 32  1  0  0  0  0
  9 10  1  0  0  0  0
 10 33  1  0  0  0  0
 10 34  1  0  0  0  0
 11 16  1  0  0  0  0
 11 12  1  0  0  0  0
 12 13  1  0  0  0  0
 12 35  1  0  0  0  0
 12 36  1  0  0  0  0
 13 14  1  0  0  0  0
 13 37  1  0  0  0  0
 13 38  1  0  0  0  0
 14 15  1  0  0  0  0
 15 16  1  0  0  0  0
 15 39  1  0  0  0  0
 15 40  1  0  0  0  0
 16 41  1  0  0  0  0
 16 42  1  0  0  0  0
 17 18  1  0  0  0  0
 17 43  1  0  0  0  0
 18 23  1  0  0  0  0
 18 19  2  0  0  0  0
 19 20  1  0  0  0  0
 19 44  1  0  0  0  0
 20 21  2  0  0  0  0
 20 45  1  0  0  0  0
 21 22  1  0  0  0  0
 21 46  1  0  0  0  0
 22 23  2  0  0  0  0
 22 47  1  0  0  0  0
M  END
> <s_m_source_file>
AV-unprocessed.smi

> <i_m_source_file_index>
1933

> <i_lp_mmshare_version>
43012

> <i_f3d_flags>
0

> <s_epik_input>
bjFbY0hdW2NIXVtjSF1bY0hdYzFbTkhdQyg9TylbTkhdW0NIMl1bQ0BIXShbQ0BASF0yW0NIMl1bQ0gyXU9bQ0gyXTIpTjNbQ0gyXVtDSDJdT1tDSDJdW0NIMl0z

> <s_epik_cmdline>
J2VwaWtfcHl0aG9uJywgJy1waCcsICc3LjAnLCAnLXRuJywgJzgnLCAnLW1hJywgJzIwMCcsICctbWV0YWxfYmluZGluZycsICctaW1hZScsICc8aW5maWxlLm1hZT4nLCAnLW9tYWUnLCAnPG91dGZpbGUubWFlPic=

> <r_epik_Ionization_Penalty>
0.125062

> <r_epik_Ionization_Penalty_Charging>
0

> <r_epik_Ionization_Penalty_Neutral>
0.125062

> <r_epik_State_Penalty>
0.114484

> <r_epik_Charging_Adjusted_Penalty>
0.114484

> <i_epik_Tot_Q>
0

> <i_epik_Tot_abs_Q>
0

> <r_epik_Metal_State_Penalty>
0.114484

> <b_epik_Metal_Only>
0

> <s_lp_Force_Field>
OPLS_2005

> <r_lp_Energy>
56.0331

> <b_lp_Chiralities_Consistent>
1

> <s_lp_Variant>
AV-unprocessed.smi:1933-4

> <Gold.Version>
5.8.1

> <Gold.Id.Protein>
6NUR|6NUR_protein|mol2

> <Gold.PLP.Fitness>
43.5437

> <Gold.PLP.PLP>
-35.4658

> <Gold.PLP.part.hbond>
-2.0000

> <Gold.PLP.part.metal>
0.0000

> <Gold.PLP.part.buried>
-3.6260

> <Gold.PLP.part.nonpolar>
-31.7324

> <Gold.PLP.part.repulsive>
2.2205

> <Gold.PLP.ligand.clash>
0.0000

> <Gold.PLP.ligand.torsion>
0.5303

> <Gold.PLP.Chemscore.Hbond>
1.9760

> <Gold.PLP.Chemscore.CHOScore>
0.9801

> <Gold.PLP.Chemscore.Metal>
0.0000

> <Gold.Chemscore.Hbonds>
donor molecule, donor type, donor heavy atom, donor atom, acceptor molecule, acceptor atom, score
      L1  H     3    24       P1  7948  1.00
      L1  H    17    43       P1  7948  0.99
      L1  C    22    47       P1 10186  0.19

> <Gold.PLP.Chemscore.Internal.Correction>
0.2704

> <Gold.Rescore>
     Score         DG    S(hbond)    S(metal)    S(lipo)     H(rot)  DE(clash)    DE(int)     intcor
     15.33     -17.58       1.89        0.00      87.02       1.72       0.33       1.93       ----

> <Gold.Chemscore.Fitness>
15.3259

> <Gold.Chemscore.DG>
-17.5837

> <Gold.Chemscore.ZeroCoef>
-5.4800

> <Gold.Chemscore.Hbond>
1.8908

> <Gold.Chemscore.Metal>
0.0000

> <Gold.Chemscore.Lipo>
87.0228

> <Gold.Chemscore.Internal_Hbond>
0.0000

> <Gold.Chemscore.DEClash>
0.3268

> <Gold.Chemscore.DEInternal>
1.9310

> <Gold.Chemscore.Rot>
1.7161

> <Gold.Chemscore.Internal.Correction>
   9.000000E+99

> <Gold.Chemscore.Hbonds>
donor molecule, donor type, donor heavy atom, donor atom, acceptor molecule, acceptor atom, score
      L1  H     3    24       P1  7948  0.99
      L1  H    17    43       P1  7948  0.90

> <Gold.Chemscore.Hbond.Weighted>
-6.3152

> <Gold.Chemscore.Metal.Weighted>
-0.0000

> <Gold.Chemscore.Lipo.Weighted>
-10.1817

> <Gold.Chemscore.Internal_Hbond.Weighted>
0.0000

> <Gold.Chemscore.DEClash.Weighted>
0.3268

> <Gold.Chemscore.DEInternal.Weighted>
1.9310

> <Gold.Chemscore.Rot.Weighted>
4.3932

> <Gold.Chemscore.Internal.Correction.Weighted>
   9.000000E+99

> <Gold.Protein.RotatedTorsions>
[ 6907 6896 6895 6894 ] final  -28.99 input  -60.11 | X-H torsion
[ 7974 7965 7964 7962 ] final  -90.37 input  175.53 | X-H torsion
[ 8008 7997 7996 7995 ] final   33.77 input   59.86 | X-H torsion
[ 10167 10162 10161 10158 ] final  -79.40 input  -65.29 | X-H torsion
[ 10718 10713 10712 10709 ] final  130.76 input   66.30 | X-H torsion
[ 10763 10752 10751 10750 ] final   76.08 input  -60.55 | X-H torsion
[ 11005 11000 10999 10996 ] final   75.01 input  -57.11 | X-H torsion

> <Gold.Protein.ActiveResidues>
 VAL166  LYS551  ARG553  GLY616  TRP617  ASP618  TYR619  PRO620  LYS621  CYS622 
 ASP623  PHE694  ASN695  SER759  ASP760  ASP761  ALA762  ILE779  LEU786  VAL792 
 PHE793  MET794  SER795  GLU796  ALA797  LYS798  CYS799  TRP800  GLU811  SER814 

> <Gold.Protein.RotatedAtoms>
  151.1253  135.0101  159.8557 H   0  0  0  0  0  0  0  0  0  0  0  0  # atno 6907 bound_to 6896
  152.5449  134.1674  159.8593 H   0  0  0  0  0  0  0  0  0  0  0  0  # atno 6908 bound_to 6896
  151.1736  133.4724  159.2627 H   0  0  0  0  0  0  0  0  0  0  0  0  # atno 6909 bound_to 6896
  145.4273  140.9554  143.2147 H   0  0  0  0  0  0  0  0  0  0  0  0  # atno 7974 bound_to 7965
  155.1440  140.3269  155.4446 H   0  0  0  0  0  0  0  0  0  0  0  0  # atno 8008 bound_to 7997
  156.2595  140.1988  156.6504 H   0  0  0  0  0  0  0  0  0  0  0  0  # atno 8009 bound_to 7997
  154.6521  140.0557  156.9954 H   0  0  0  0  0  0  0  0  0  0  0  0  # atno 8010 bound_to 7997
  140.4596  143.2457  151.8368 H   0  0  0  0  0  0  0  0  0  0  0  0  # atno 10167 bound_to 10162
  157.5032  131.1095  150.9398 H   0  0  0  0  0  0  0  0  0  0  0  0  # atno 10718 bound_to 10713
  153.0700  135.4965  154.8283 H   0  0  0  0  0  0  0  0  0  0  0  0  # atno 10763 bound_to 10752
  154.7008  135.3001  154.9346 H   0  0  0  0  0  0  0  0  0  0  0  0  # atno 10764 bound_to 10752
  154.0070  135.6759  153.4815 H   0  0  0  0  0  0  0  0  0  0  0  0  # atno 10765 bound_to 10752
  139.9364  134.7481  156.1218 H   0  0  0  0  0  0  0  0  0  0  0  0  # atno 11005 bound_to 11000
  144.8205  139.5799  143.6989 LP  0  0  0  0  0  0  0  0  0  0  0  0  # atno 17320 bound_to 7965
  146.2625  139.6444  142.9352 LP  0  0  0  0  0  0  0  0  0  0  0  0  # atno 17321 bound_to 7965
  139.4805  144.5023  151.9044 LP  0  0  0  0  0  0  0  0  0  0  0  0  # atno 17342 bound_to 10162
  140.4109  144.2370  150.5889 LP  0  0  0  0  0  0  0  0  0  0  0  0  # atno 17343 bound_to 10162
  157.0062  130.5619  149.5316 LP  0  0  0  0  0  0  0  0  0  0  0  0  # atno 17370 bound_to 10713
  156.0242  130.5336  150.8360 LP  0  0  0  0  0  0  0  0  0  0  0  0  # atno 17371 bound_to 10713
  141.0979  133.6688  156.2687 LP  0  0  0  0  0  0  0  0  0  0  0  0  # atno 17394 bound_to 11000
  140.6065  134.5501  157.5526 LP  0  0  0  0  0  0  0  0  0  0  0  0  # atno 17395 bound_to 11000

$$$$
