AV-unprocessed.smi:2061|AV-procd|sdf|8390|dock8
  -GOLD-   2272011 73D 1   1.00000     0.00000
 Structure written by MMmdl.
 45 46  0  0  0  0  0  0  0  0  3 V2000
  151.6699  140.6785  154.5747 C   0  0  0  0  0  0  0  0  0  0  0  0
  151.4129  139.2198  154.4125 C   0  0  0  0  0  0  0  0  0  0  0  0
  150.3208  138.5077  154.0038 C   0  0  0  0  0  0  0  0  0  0  0  0
  150.7653  137.1612  154.0871 C   0  0  0  0  0  0  0  0  0  0  0  0
  149.9018  136.0913  153.7328 N   0  0  0  0  0  0  0  0  0  0  0  0
  149.8116  134.8648  154.2788 C   0  0  0  0  0  0  0  0  0  0  0  0
  150.5214  134.5574  155.2437 O   0  0  0  0  0  0  0  0  0  0  0  0
  148.8878  134.0885  153.6490 N   0  5  0  0  0  0  0  0  0  0  0  0
  149.2049  132.9430  152.7963 C   0  0  0  0  0  0  0  0  0  0  0  0
  148.8050  131.6171  153.4960 C   0  0  2  0  0  0  0  0  0  0  0  0
  150.0015  130.7038  153.8642 C   0  0  0  0  0  0  0  0  0  0  0  0
  147.7533  130.9068  152.7043 N   0  3  1  0  0  0  0  0  0  0  0  0
  147.1092  129.7311  153.3525 C   0  0  0  0  0  0  0  0  0  0  0  0
  146.2034  128.9902  152.3518 C   0  0  2  0  0  0  0  0  0  0  0  0
  146.9840  128.2058  151.2822 C   0  0  0  0  0  0  0  0  0  0  0  0
  145.2611  129.8996  151.7814 O   0  0  0  0  0  0  0  0  0  0  0  0
  145.8340  131.0391  151.1432 C   0  0  1  0  0  0  0  0  0  0  0  0
  144.6888  131.9048  150.6065 C   0  0  0  0  0  0  0  0  0  0  0  0
  146.7177  131.8070  152.1430 C   0  0  0  0  0  0  0  0  0  0  0  0
  152.0179  137.0620  154.5074 N   0  0  0  0  0  0  0  0  0  0  0  0
  152.4392  138.3803  154.7178 O   0  0  0  0  0  0  0  0  0  0  0  0
  150.7467  141.2496  154.4765 H   0  0  0  0  0  0  0  0  0  0  0  0
  152.3699  141.0334  153.8181 H   0  0  0  0  0  0  0  0  0  0  0  0
  152.0947  140.8897  155.5563 H   0  0  0  0  0  0  0  0  0  0  0  0
  149.3590  138.8896  153.6953 H   0  0  0  0  0  0  0  0  0  0  0  0
  149.2766  136.2735  152.9620 H   0  0  0  0  0  0  0  0  0  0  0  0
  148.6774  132.9956  151.8423 H   0  0  0  0  0  0  0  0  0  0  0  0
  150.2645  132.9098  152.5417 H   0  0  0  0  0  0  0  0  0  0  0  0
  148.3370  131.9132  154.4365 H   0  0  0  0  0  0  0  0  0  0  0  0
  150.6820  131.1898  154.5657 H   0  0  0  0  0  0  0  0  0  0  0  0
  150.5911  130.4080  152.9948 H   0  0  0  0  0  0  0  0  0  0  0  0
  149.6567  129.7913  154.3512 H   0  0  0  0  0  0  0  0  0  0  0  0
  147.8566  129.0445  153.7512 H   0  0  0  0  0  0  0  0  0  0  0  0
  146.5040  130.0640  154.1969 H   0  0  0  0  0  0  0  0  0  0  0  0
  145.6170  128.2612  152.9118 H   0  0  0  0  0  0  0  0  0  0  0  0
  147.5986  127.4324  151.7437 H   0  0  0  0  0  0  0  0  0  0  0  0
  147.6515  128.8438  150.7034 H   0  0  0  0  0  0  0  0  0  0  0  0
  146.3037  127.7140  150.5868 H   0  0  0  0  0  0  0  0  0  0  0  0
  146.4388  130.7177  150.2950 H   0  0  0  0  0  0  0  0  0  0  0  0
  145.0706  132.7906  150.0983 H   0  0  0  0  0  0  0  0  0  0  0  0
  144.0334  132.2372  151.4121 H   0  0  0  0  0  0  0  0  0  0  0  0
  144.0821  131.3485  149.8918 H   0  0  0  0  0  0  0  0  0  0  0  0
  146.1137  132.2216  152.9515 H   0  0  0  0  0  0  0  0  0  0  0  0
  147.1886  132.6468  151.6301 H   0  0  0  0  0  0  0  0  0  0  0  0
  148.2493  130.5452  151.9019 H   0  0  0  0  0  0  0  0  0  0  0  0
  1  2  1  0  0  0  0
  1 22  1  0  0  0  0
  1 23  1  0  0  0  0
  1 24  1  0  0  0  0
  2 21  1  0  0  0  0
  2  3  2  0  0  0  0
  3  4  1  0  0  0  0
  3 25  1  0  0  0  0
  4  5  1  0  0  0  0
  4 20  2  0  0  0  0
  5  6  1  0  0  0  0
  5 26  1  0  0  0  0
  6  7  2  0  0  0  0
  6  8  1  0  0  0  0
  8  9  1  0  0  0  0
  9 10  1  0  0  0  0
  9 27  1  0  0  0  0
  9 28  1  0  0  0  0
 10 11  1  0  0  0  0
 10 12  1  0  0  0  0
 10 29  1  0  0  0  0
 11 30  1  0  0  0  0
 11 31  1  0  0  0  0
 11 32  1  0  0  0  0
 12 19  1  0  0  0  0
 12 13  1  0  0  0  0
 12 45  1  0  0  0  0
 13 14  1  0  0  0  0
 13 33  1  0  0  0  0
 13 34  1  0  0  0  0
 14 15  1  0  0  0  0
 14 16  1  0  0  0  0
 14 35  1  0  0  0  0
 15 36  1  0  0  0  0
 15 37  1  0  0  0  0
 15 38  1  0  0  0  0
 16 17  1  0  0  0  0
 17 18  1  0  0  0  0
 17 19  1  0  0  0  0
 17 39  1  0  0  0  0
 18 40  1  0  0  0  0
 18 41  1  0  0  0  0
 18 42  1  0  0  0  0
 19 43  1  0  0  0  0
 19 44  1  0  0  0  0
 20 21  1  0  0  0  0
M  CHG  1   8  -1
M  CHG  1  12   1
M  END
> <s_m_source_file>
AV-unprocessed.smi

> <i_m_source_file_index>
2061

> <i_lp_mmshare_version>
43012

> <i_f3d_flags>
0

> <s_epik_input>
W0NIM11jMVtjSF1jKG5vMSlbTkhdQyg9TylbTkhdW0NIMl1bQ0BIXShbQ0gzXSlOMltDSDJdW0NAQEhdKFtDSDNdKU9bQ0BASF0oW0NIM10pW0NIMl0y

> <s_epik_cmdline>
J2VwaWtfcHl0aG9uJywgJy1waCcsICc3LjAnLCAnLXRuJywgJzgnLCAnLW1hJywgJzIwMCcsICctbWV0YWxfYmluZGluZycsICctaW1hZScsICc8aW5maWxlLm1hZT4nLCAnLW9tYWUnLCAnPG91dGZpbGUubWFlPic=

> <r_epik_Ionization_Penalty>
6.8073

> <r_epik_Ionization_Penalty_Charging>
6.80729

> <r_epik_Ionization_Penalty_Neutral>
5.65391e-06

> <r_epik_State_Penalty>
7.47323

> <r_epik_Charging_Adjusted_Penalty>
14.2805

> <i_epik_Tot_Q>
0

> <i_epik_Tot_abs_Q>
2

> <r_epik_Metal_State_Penalty>
3.40035

> <b_epik_Metal_Only>
1

> <s_lp_Force_Field>
OPLS_2005

> <r_lp_Energy>
19.801

> <b_lp_Chiralities_Consistent>
1

> <s_lp_Variant>
AV-unprocessed.smi:2061-31

> <Gold.Version>
5.8.1

> <Gold.Id.Protein>
6NUR|6NUR_protein|mol2

> <Gold.PLP.Fitness>
43.3166

> <Gold.PLP.PLP>
-37.8805

> <Gold.PLP.part.hbond>
-3.3562

> <Gold.PLP.part.metal>
0.0000

> <Gold.PLP.part.buried>
-4.1847

> <Gold.PLP.part.nonpolar>
-29.7764

> <Gold.PLP.part.repulsive>
0.5807

> <Gold.PLP.ligand.clash>
0.0000

> <Gold.PLP.ligand.torsion>
1.8488

> <Gold.PLP.Chemscore.Hbond>
2.9920

> <Gold.PLP.Chemscore.CHOScore>
0.0000

> <Gold.PLP.Chemscore.Metal>
0.0000

> <Gold.Chemscore.Hbonds>
donor molecule, donor type, donor heavy atom, donor atom, acceptor molecule, acceptor atom, score
      L1  H    12    45       P1 10747  0.99
      P1  H 10752 10763       L1    20  0.59

> <Gold.PLP.Chemscore.Internal.Correction>
0.1578

> <Gold.Rescore>
     Score         DG    S(hbond)    S(metal)    S(lipo)     H(rot)  DE(clash)    DE(int)     intcor
     16.77     -20.28       2.61        0.00      86.04       1.56       1.43       2.08       ----

> <Gold.Chemscore.Fitness>
16.7732

> <Gold.Chemscore.DG>
-20.2843

> <Gold.Chemscore.ZeroCoef>
-5.4800

> <Gold.Chemscore.Hbond>
2.6103

> <Gold.Chemscore.Metal>
0.0000

> <Gold.Chemscore.Lipo>
86.0403

> <Gold.Chemscore.Internal_Hbond>
0.0000

> <Gold.Chemscore.DEClash>
1.4331

> <Gold.Chemscore.DEInternal>
2.0779

> <Gold.Chemscore.Rot>
1.5550

> <Gold.Chemscore.Internal.Correction>
   9.000000E+99

> <Gold.Chemscore.Hbonds>
donor molecule, donor type, donor heavy atom, donor atom, acceptor molecule, acceptor atom, score
      L1  H     5    26       P1  7948  0.04
      L1  H    12    45       P1 10747  0.93
      P1  H 10752 10763       L1    20  0.58

> <Gold.Chemscore.Hbond.Weighted>
-8.7184

> <Gold.Chemscore.Metal.Weighted>
-0.0000

> <Gold.Chemscore.Lipo.Weighted>
-10.0667

> <Gold.Chemscore.Internal_Hbond.Weighted>
0.0000

> <Gold.Chemscore.DEClash.Weighted>
1.4331

> <Gold.Chemscore.DEInternal.Weighted>
2.0779

> <Gold.Chemscore.Rot.Weighted>
3.9809

> <Gold.Chemscore.Internal.Correction.Weighted>
   9.000000E+99

> <Gold.Protein.RotatedTorsions>
[ 6907 6896 6895 6894 ] final -126.64 input  -60.11 | X-H torsion
[ 7974 7965 7964 7962 ] final -161.29 input  175.53 | X-H torsion
[ 8008 7997 7996 7995 ] final  149.00 input   59.86 | X-H torsion
[ 10167 10162 10161 10158 ] final   -1.24 input  -65.29 | X-H torsion
[ 10718 10713 10712 10709 ] final  -10.63 input   66.30 | X-H torsion
[ 10763 10752 10751 10750 ] final   76.25 input  -60.55 | X-H torsion
[ 11005 11000 10999 10996 ] final -168.65 input  -57.11 | X-H torsion

> <Gold.Protein.ActiveResidues>
 VAL166  LYS551  ARG553  GLY616  TRP617  ASP618  TYR619  PRO620  LYS621  CYS622 
 ASP623  PHE694  ASN695  SER759  ASP760  ASP761  ALA762  ILE779  LEU786  VAL792 
 PHE793  MET794  SER795  GLU796  ALA797  LYS798  CYS799  TRP800  GLU811  SER814 

> <Gold.Protein.RotatedAtoms>
  150.8990  133.7143  159.2883 H   0  0  0  0  0  0  0  0  0  0  0  0  # atno 6907 bound_to 6896
  151.4668  135.1041  159.9750 H   0  0  0  0  0  0  0  0  0  0  0  0  # atno 6908 bound_to 6896
  152.4866  133.8340  159.7173 H   0  0  0  0  0  0  0  0  0  0  0  0  # atno 6909 bound_to 6896
  144.7396  140.3419  143.6133 H   0  0  0  0  0  0  0  0  0  0  0  0  # atno 7974 bound_to 7965
  156.2771  140.2113  156.5789 H   0  0  0  0  0  0  0  0  0  0  0  0  # atno 8008 bound_to 7997
  154.7075  140.0515  157.0541 H   0  0  0  0  0  0  0  0  0  0  0  0  # atno 8009 bound_to 7997
  155.0651  140.3170  155.4651 H   0  0  0  0  0  0  0  0  0  0  0  0  # atno 8010 bound_to 7997
  140.6802  143.6798  150.8115 H   0  0  0  0  0  0  0  0  0  0  0  0  # atno 10167 bound_to 10162
  156.6707  130.5008  149.6001 H   0  0  0  0  0  0  0  0  0  0  0  0  # atno 10718 bound_to 10713
  153.0712  135.4958  154.8308 H   0  0  0  0  0  0  0  0  0  0  0  0  # atno 10763 bound_to 10752
  154.7024  135.3004  154.9323 H   0  0  0  0  0  0  0  0  0  0  0  0  # atno 10764 bound_to 10752
  154.0042  135.6762  153.4814 H   0  0  0  0  0  0  0  0  0  0  0  0  # atno 10765 bound_to 10752
  140.5396  134.5535  157.5096 H   0  0  0  0  0  0  0  0  0  0  0  0  # atno 11005 bound_to 11000
  145.7366  139.1751  143.2400 LP  0  0  0  0  0  0  0  0  0  0  0  0  # atno 17320 bound_to 7965
  146.1166  140.7362  142.9477 LP  0  0  0  0  0  0  0  0  0  0  0  0  # atno 17321 bound_to 7965
  140.0497  143.5262  152.2679 LP  0  0  0  0  0  0  0  0  0  0  0  0  # atno 17342 bound_to 10162
  139.6119  144.7610  151.2932 LP  0  0  0  0  0  0  0  0  0  0  0  0  # atno 17343 bound_to 10162
  156.1941  130.6578  151.1094 LP  0  0  0  0  0  0  0  0  0  0  0  0  # atno 17370 bound_to 10713
  157.7078  131.0748  150.6606 LP  0  0  0  0  0  0  0  0  0  0  0  0  # atno 17371 bound_to 10713
  139.9511  134.7616  156.0447 LP  0  0  0  0  0  0  0  0  0  0  0  0  # atno 17394 bound_to 11000
  141.1235  133.6606  156.3275 LP  0  0  0  0  0  0  0  0  0  0  0  0  # atno 17395 bound_to 11000

$$$$
