AV-unprocessed.smi:2361|AV-procd|sdf|9411|dock4
  -GOLD-   2272013 43D 1   1.00000     0.00000
 Structure written by MMmdl.
 26 27  0  0  0  0  0  0  0  0  1 V2000
  150.3552  141.9468  157.5307 O   0  0  0  0  0  0  0  0  0  0  0  0
  151.3478  141.2966  157.2025 C   0  0  0  0  0  0  0  0  0  0  0  0
  152.4225  141.0972  157.9867 N   0  0  0  0  0  0  0  0  0  0  0  0
  152.6502  141.5584  159.3135 C   0  0  0  0  0  0  0  0  0  0  0  0
  152.0770  142.7447  159.8349 C   0  0  0  0  0  0  0  0  0  0  0  0
  152.2728  143.1745  161.0993 N   0  0  0  0  0  0  0  0  0  0  0  0
  153.0515  142.4278  161.9086 C   0  0  0  0  0  0  0  0  0  0  0  0
  153.6585  141.2236  161.5031 C   0  0  0  0  0  0  0  0  0  0  0  0
  154.6310  140.3294  162.6166 Cl  0  0  0  0  0  0  0  0  0  0  0  0
  153.4497  140.7772  160.1800 C   0  0  0  0  0  0  0  0  0  0  0  0
  154.1676  139.3006  159.6299 Cl  0  0  0  0  0  0  0  0  0  0  0  0
  151.4158  140.6575  155.8104 C   0  0  2  0  0  0  0  0  0  0  0  0
  150.2273  139.7339  155.4814 C   0  0  0  0  0  0  0  0  0  0  0  0
  150.8444  138.3491  155.4480 C   0  0  0  0  0  0  0  0  0  0  0  0
  152.2748  138.6532  155.0272 C   0  0  0  0  0  0  0  0  0  0  0  0
  152.5766  139.8303  155.7588 O   0  0  0  0  0  0  0  0  0  0  0  0
  153.1992  140.6165  157.5558 H   0  0  0  0  0  0  0  0  0  0  0  0
  151.4226  143.3679  159.2454 H   0  0  0  0  0  0  0  0  0  0  0  0
  153.1892  142.7997  162.9134 H   0  0  0  0  0  0  0  0  0  0  0  0
  151.4991  141.4303  155.0442 H   0  0  0  0  0  0  0  0  0  0  0  0
  149.4015  139.7951  156.1915 H   0  0  0  0  0  0  0  0  0  0  0  0
  149.8278  139.9873  154.4988 H   0  0  0  0  0  0  0  0  0  0  0  0
  150.8348  137.9098  156.4465 H   0  0  0  0  0  0  0  0  0  0  0  0
  150.3330  137.6681  154.7673 H   0  0  0  0  0  0  0  0  0  0  0  0
  152.9668  137.8442  155.2619 H   0  0  0  0  0  0  0  0  0  0  0  0
  152.3325  138.8611  153.9576 H   0  0  0  0  0  0  0  0  0  0  0  0
  1  2  2  0  0  0  0
  2  3  1  0  0  0  0
  2 12  1  0  0  0  0
  3  4  1  0  0  0  0
  3 17  1  0  0  0  0
  4 10  1  0  0  0  0
  4  5  2  0  0  0  0
  5  6  1  0  0  0  0
  5 18  1  0  0  0  0
  6  7  2  0  0  0  0
  7  8  1  0  0  0  0
  7 19  1  0  0  0  0
  8  9  1  0  0  0  0
  8 10  2  0  0  0  0
 10 11  1  0  0  0  0
 12 16  1  0  0  0  0
 12 13  1  0  0  0  0
 12 20  1  0  0  0  0
 13 14  1  0  0  0  0
 13 21  1  0  0  0  0
 13 22  1  0  0  0  0
 14 15  1  0  0  0  0
 14 23  1  0  0  0  0
 14 24  1  0  0  0  0
 15 16  1  0  0  0  0
 15 25  1  0  0  0  0
 15 26  1  0  0  0  0
M  END
> <s_m_source_file>
AV-unprocessed.smi

> <i_m_source_file_index>
2361

> <i_lp_mmshare_version>
43012

> <i_f3d_flags>
0

> <s_epik_input>
TzFbQ0gyXVtDSDJdW0NIMl1bQ0BIXTFDKD1PKVtOSF1jMltjSF1uW2NIXWMoQ2wpYzJDbA==

> <s_epik_cmdline>
J2VwaWtfcHl0aG9uJywgJy1waCcsICc3LjAnLCAnLXRuJywgJzgnLCAnLW1hJywgJzIwMCcsICctbWV0YWxfYmluZGluZycsICctaW1hZScsICc8aW5maWxlLm1hZT4nLCAnLW9tYWUnLCAnPG91dGZpbGUubWFlPic=

> <r_lp_tautomer_probability>
1

> <r_epik_Ionization_Penalty>
7.18707e-06

> <r_epik_Ionization_Penalty_Charging>
0

> <r_epik_Ionization_Penalty_Neutral>
7.18707e-06

> <r_epik_State_Penalty>
-0

> <r_epik_Charging_Adjusted_Penalty>
0

> <i_epik_Tot_Q>
0

> <i_epik_Tot_abs_Q>
0

> <r_epik_Metal_State_Penalty>
-0

> <b_epik_Metal_Only>
0

> <s_lp_Force_Field>
OPLS_2005

> <r_lp_Energy>
24.4573

> <b_lp_Chiralities_Consistent>
1

> <s_lp_Variant>
AV-unprocessed.smi:2361-1

> <Gold.Version>
5.8.1

> <Gold.Id.Protein>
6NUR|6NUR_protein|mol2

> <Gold.PLP.Fitness>
34.7858

> <Gold.PLP.PLP>
-32.3010

> <Gold.PLP.part.hbond>
-1.0000

> <Gold.PLP.part.metal>
0.0000

> <Gold.PLP.part.buried>
-0.8733

> <Gold.PLP.part.nonpolar>
-29.0547

> <Gold.PLP.part.repulsive>
0.2502

> <Gold.PLP.ligand.clash>
0.0000

> <Gold.PLP.ligand.torsion>
0.2614

> <Gold.PLP.Chemscore.Hbond>
1.0000

> <Gold.PLP.Chemscore.CHOScore>
0.0000

> <Gold.PLP.Chemscore.Metal>
0.0000

> <Gold.Chemscore.Hbonds>
donor molecule, donor type, donor heavy atom, donor atom, acceptor molecule, acceptor atom, score
      P1  H  7997  8008       L1    16  1.00

> <Gold.PLP.Chemscore.Internal.Correction>
0.0075

> <Gold.Rescore>
     Score         DG    S(hbond)    S(metal)    S(lipo)     H(rot)  DE(clash)    DE(int)     intcor
     15.70     -16.96       0.98        0.00      91.95       1.00       0.05       1.21       ----

> <Gold.Chemscore.Fitness>
15.7041

> <Gold.Chemscore.DG>
-16.9648

> <Gold.Chemscore.ZeroCoef>
-5.4800

> <Gold.Chemscore.Hbond>
0.9841

> <Gold.Chemscore.Metal>
0.0000

> <Gold.Chemscore.Lipo>
91.9482

> <Gold.Chemscore.Internal_Hbond>
0.0000

> <Gold.Chemscore.DEClash>
0.0480

> <Gold.Chemscore.DEInternal>
1.2127

> <Gold.Chemscore.Rot>
1.0000

> <Gold.Chemscore.Internal.Correction>
   9.000000E+99

> <Gold.Chemscore.Hbonds>
donor molecule, donor type, donor heavy atom, donor atom, acceptor molecule, acceptor atom, score
      P1  H  7997  8008       L1    16  0.96

> <Gold.Chemscore.Hbond.Weighted>
-3.2869

> <Gold.Chemscore.Metal.Weighted>
-0.0000

> <Gold.Chemscore.Lipo.Weighted>
-10.7579

> <Gold.Chemscore.Internal_Hbond.Weighted>
0.0000

> <Gold.Chemscore.DEClash.Weighted>
0.0480

> <Gold.Chemscore.DEInternal.Weighted>
1.2127

> <Gold.Chemscore.Rot.Weighted>
2.5600

> <Gold.Chemscore.Internal.Correction.Weighted>
   9.000000E+99

> <Gold.Protein.RotatedTorsions>
[ 6907 6896 6895 6894 ] final  -19.16 input  -60.11 | X-H torsion
[ 7974 7965 7964 7962 ] final  148.98 input  175.53 | X-H torsion
[ 8008 7997 7996 7995 ] final  -36.06 input   59.86 | X-H torsion
[ 10167 10162 10161 10158 ] final  138.66 input  -65.29 | X-H torsion
[ 10718 10713 10712 10709 ] final  141.99 input   66.30 | X-H torsion
[ 10763 10752 10751 10750 ] final  151.75 input  -60.55 | X-H torsion
[ 11005 11000 10999 10996 ] final -111.45 input  -57.11 | X-H torsion

> <Gold.Protein.ActiveResidues>
 VAL166  LYS551  ARG553  GLY616  TRP617  ASP618  TYR619  PRO620  LYS621  CYS622 
 ASP623  PHE694  ASN695  SER759  ASP760  ASP761  ALA762  ILE779  LEU786  VAL792 
 PHE793  MET794  SER795  GLU796  ALA797  LYS798  CYS799  TRP800  GLU811  SER814 

> <Gold.Protein.RotatedAtoms>
  151.2673  135.0673  159.9120 H   0  0  0  0  0  0  0  0  0  0  0  0  # atno 6907 bound_to 6896
  152.5356  134.0167  159.7973 H   0  0  0  0  0  0  0  0  0  0  0  0  # atno 6908 bound_to 6896
  151.0400  133.5665  159.2683 H   0  0  0  0  0  0  0  0  0  0  0  0  # atno 6909 bound_to 6896
  144.8472  139.6223  143.5990 H   0  0  0  0  0  0  0  0  0  0  0  0  # atno 7974 bound_to 7965
  154.4081  140.1641  156.2312 H   0  0  0  0  0  0  0  0  0  0  0  0  # atno 8008 bound_to 7997
  155.9280  140.3416  155.6203 H   0  0  0  0  0  0  0  0  0  0  0  0  # atno 8009 bound_to 7997
  155.7141  140.0760  157.2349 H   0  0  0  0  0  0  0  0  0  0  0  0  # atno 8010 bound_to 7997
  139.5103  144.6340  151.5744 H   0  0  0  0  0  0  0  0  0  0  0  0  # atno 10167 bound_to 10162
  157.3856  131.0998  151.0696 H   0  0  0  0  0  0  0  0  0  0  0  0  # atno 10718 bound_to 10713
  154.1089  135.2840  155.3235 H   0  0  0  0  0  0  0  0  0  0  0  0  # atno 10763 bound_to 10752
  154.6503  135.5371  153.7897 H   0  0  0  0  0  0  0  0  0  0  0  0  # atno 10764 bound_to 10752
  153.0352  135.6508  154.1249 H   0  0  0  0  0  0  0  0  0  0  0  0  # atno 10765 bound_to 10752
  141.0734  133.9342  157.2440 H   0  0  0  0  0  0  0  0  0  0  0  0  # atno 11005 bound_to 11000
  146.2754  139.6740  142.9266 LP  0  0  0  0  0  0  0  0  0  0  0  0  # atno 17320 bound_to 7965
  145.4572  141.0431  143.2771 LP  0  0  0  0  0  0  0  0  0  0  0  0  # atno 17321 bound_to 7965
  140.6082  143.9484  150.6434 LP  0  0  0  0  0  0  0  0  0  0  0  0  # atno 17342 bound_to 10162
  140.2718  143.3450  152.1231 LP  0  0  0  0  0  0  0  0  0  0  0  0  # atno 17343 bound_to 10162
  157.1748  130.6283  149.5652 LP  0  0  0  0  0  0  0  0  0  0  0  0  # atno 17370 bound_to 10713
  155.9786  130.4773  150.6665 LP  0  0  0  0  0  0  0  0  0  0  0  0  # atno 17371 bound_to 10713
  139.9546  135.0168  156.9092 LP  0  0  0  0  0  0  0  0  0  0  0  0  # atno 17394 bound_to 11000
  140.5626  134.0520  155.7404 LP  0  0  0  0  0  0  0  0  0  0  0  0  # atno 17395 bound_to 11000

$$$$
