AV-unprocessed.smi:2706|AV-procd|sdf|10447|dock2
  -GOLD-   2272014493D 1   1.00000     0.00000
 Structure written by MMmdl.
 43 46  0  0  0  0  0  0  0  0  1 V2000
  150.9635  141.2680  156.2447 C   0  0  0  0  0  0  0  0  0  0  0  0
  150.6128  140.1869  155.3288 N   0  0  0  0  0  0  0  0  0  0  0  0
  151.5121  139.0517  155.1651 C   0  0  0  0  0  0  0  0  0  0  0  0
  149.3745  140.2185  154.6481 C   0  0  0  0  0  0  0  0  0  0  0  0
  148.5882  141.3945  154.5924 C   0  0  0  0  0  0  0  0  0  0  0  0
  147.3655  141.3627  153.8981 C   0  0  0  0  0  0  0  0  0  0  0  0
  146.9616  140.1651  153.2812 C   0  0  0  0  0  0  0  0  0  0  0  0
  147.7915  139.0284  153.3760 C   0  0  0  0  0  0  0  0  0  0  0  0
  147.3039  137.8655  152.7227 N   0  0  0  0  0  0  0  0  0  0  0  0
  146.0267  137.5329  152.4637 C   0  0  0  0  0  0  0  0  0  0  0  0
  145.0411  138.2130  152.7517 O   0  0  0  0  0  0  0  0  0  0  0  0
  145.9548  136.3487  151.8412 N   0  0  0  0  0  0  0  0  0  0  0  0
  144.7571  135.6996  151.4147 C   0  0  2  0  0  0  0  0  0  0  0  0
  144.3027  134.3905  152.0345 C   0  0  2  0  0  0  0  0  0  0  0  0
  145.1025  133.2348  152.6465 C   0  0  2  0  0  0  0  0  0  0  0  0
  146.5998  133.5567  152.8264 C   0  0  0  0  0  0  0  0  0  0  0  0
  147.1084  133.5884  151.3685 C   0  0  0  0  0  0  0  0  0  0  0  0
  145.8281  133.2814  150.5656 C   0  0  1  0  0  0  0  0  0  0  0  0
  145.1679  132.2554  151.4799 C   0  0  0  0  0  0  0  0  0  0  0  0
  144.8056  134.4237  150.5932 C   0  0  2  0  0  0  0  0  0  0  0  0
  148.9670  139.0739  154.0483 N   0  0  0  0  0  0  0  0  0  0  0  0
  150.9612  142.2273  155.7260 H   0  0  0  0  0  0  0  0  0  0  0  0
  151.9561  141.1234  156.6709 H   0  0  0  0  0  0  0  0  0  0  0  0
  150.2493  141.3180  157.0673 H   0  0  0  0  0  0  0  0  0  0  0  0
  151.8461  138.9751  154.1301 H   0  0  0  0  0  0  0  0  0  0  0  0
  151.0140  138.1224  155.4431 H   0  0  0  0  0  0  0  0  0  0  0  0
  152.3967  139.1536  155.7936 H   0  0  0  0  0  0  0  0  0  0  0  0
  148.8960  142.3143  155.0662 H   0  0  0  0  0  0  0  0  0  0  0  0
  146.7460  142.2454  153.8401 H   0  0  0  0  0  0  0  0  0  0  0  0
  146.0252  140.1249  152.7435 H   0  0  0  0  0  0  0  0  0  0  0  0
  148.0092  137.2104  152.4198 H   0  0  0  0  0  0  0  0  0  0  0  0
  146.8190  135.8643  151.6470 H   0  0  0  0  0  0  0  0  0  0  0  0
  143.9447  136.3713  151.1407 H   0  0  0  0  0  0  0  0  0  0  0  0
  143.2267  134.2779  152.1553 H   0  0  0  0  0  0  0  0  0  0  0  0
  144.6251  132.8393  153.5435 H   0  0  0  0  0  0  0  0  0  0  0  0
  146.7766  134.4775  153.3807 H   0  0  0  0  0  0  0  0  0  0  0  0
  147.0952  132.7567  153.3780 H   0  0  0  0  0  0  0  0  0  0  0  0
  147.5802  134.5270  151.0809 H   0  0  0  0  0  0  0  0  0  0  0  0
  147.8489  132.8027  151.2135 H   0  0  0  0  0  0  0  0  0  0  0  0
  146.0170  132.9283  149.5515 H   0  0  0  0  0  0  0  0  0  0  0  0
  145.7841  131.3754  151.6749 H   0  0  0  0  0  0  0  0  0  0  0  0
  144.1853  131.9334  151.1298 H   0  0  0  0  0  0  0  0  0  0  0  0
  144.0400  134.3319  149.8247 H   0  0  0  0  0  0  0  0  0  0  0  0
  1  2  1  0  0  0  0
  1 22  1  0  0  0  0
  1 23  1  0  0  0  0
  1 24  1  0  0  0  0
  2  3  1  0  0  0  0
  2  4  1  0  0  0  0
  3 25  1  0  0  0  0
  3 26  1  0  0  0  0
  3 27  1  0  0  0  0
  4 21  1  0  0  0  0
  4  5  2  0  0  0  0
  5  6  1  0  0  0  0
  5 28  1  0  0  0  0
  6  7  2  0  0  0  0
  6 29  1  0  0  0  0
  7  8  1  0  0  0  0
  7 30  1  0  0  0  0
  8  9  1  0  0  0  0
  8 21  2  0  0  0  0
  9 10  1  0  0  0  0
  9 31  1  0  0  0  0
 10 11  2  0  0  0  0
 10 12  1  0  0  0  0
 12 13  1  0  0  0  0
 12 32  1  0  0  0  0
 13 20  1  0  0  0  0
 13 14  1  0  0  0  0
 13 33  1  0  0  0  0
 14 20  1  0  0  0  0
 14 15  1  0  0  0  0
 14 34  1  0  0  0  0
 15 19  1  0  0  0  0
 15 16  1  0  0  0  0
 15 35  1  0  0  0  0
 16 17  1  0  0  0  0
 16 36  1  0  0  0  0
 16 37  1  0  0  0  0
 17 18  1  0  0  0  0
 17 38  1  0  0  0  0
 17 39  1  0  0  0  0
 18 19  1  0  0  0  0
 18 20  1  0  0  0  0
 18 40  1  0  0  0  0
 19 41  1  0  0  0  0
 19 42  1  0  0  0  0
 20 43  1  0  0  0  0
M  END
> <s_m_source_file>
AV-unprocessed.smi

> <i_m_source_file_index>
2706

> <i_lp_mmshare_version>
43012

> <i_f3d_flags>
0

> <s_epik_input>
W0NIM11OKFtDSDNdKWMxW2NIXVtjSF1bY0hdYyhuMSlbTkhdQyg9TylbTkhdW0NASF0yW0NAQEhdM1tDQEBIXShbQ0gyXTQpW0NIMl1bQ0gyXVtDQEBIXTRbQ0BIXTIz

> <s_epik_cmdline>
J2VwaWtfcHl0aG9uJywgJy1waCcsICc3LjAnLCAnLXRuJywgJzgnLCAnLW1hJywgJzIwMCcsICctbWV0YWxfYmluZGluZycsICctaW1hZScsICc8aW5maWxlLm1hZT4nLCAnLW9tYWUnLCAnPG91dGZpbGUubWFlPic=

> <r_lp_tautomer_probability>
1

> <r_epik_Ionization_Penalty>
0.0296788

> <r_epik_Ionization_Penalty_Charging>
0

> <r_epik_Ionization_Penalty_Neutral>
0.0296788

> <r_epik_State_Penalty>
0.0248512

> <r_epik_Charging_Adjusted_Penalty>
0.0248512

> <i_epik_Tot_Q>
0

> <i_epik_Tot_abs_Q>
0

> <r_epik_Metal_State_Penalty>
0.0237882

> <b_epik_Metal_Only>
0

> <s_lp_Force_Field>
OPLS_2005

> <r_lp_Energy>
85.7316

> <b_lp_Chiralities_Consistent>
1

> <s_lp_Variant>
AV-unprocessed.smi:2706-4

> <Gold.Version>
5.8.1

> <Gold.Id.Protein>
6NUR|6NUR_protein|mol2

> <Gold.PLP.Fitness>
41.1724

> <Gold.PLP.PLP>
-37.5328

> <Gold.PLP.part.hbond>
-1.7620

> <Gold.PLP.part.metal>
0.0000

> <Gold.PLP.part.buried>
-4.2160

> <Gold.PLP.part.nonpolar>
-35.4807

> <Gold.PLP.part.repulsive>
3.9644

> <Gold.PLP.ligand.clash>
0.0000

> <Gold.PLP.ligand.torsion>
0.2611

> <Gold.PLP.Chemscore.Hbond>
1.3616

> <Gold.PLP.Chemscore.CHOScore>
0.0000

> <Gold.PLP.Chemscore.Metal>
0.0000

> <Gold.Chemscore.Hbonds>
donor molecule, donor type, donor heavy atom, donor atom, acceptor molecule, acceptor atom, score
      L1  H     9    31       P1  7948  0.83
      L1  H    12    32       P1  7948  0.55

> <Gold.PLP.Chemscore.Internal.Correction>
0.0770

> <Gold.Rescore>
     Score         DG    S(hbond)    S(metal)    S(lipo)     H(rot)  DE(clash)    DE(int)     intcor
     14.16     -17.12       1.55        0.00      77.03       1.00       1.34       1.61       ----

> <Gold.Chemscore.Fitness>
14.1631

> <Gold.Chemscore.DG>
-17.1160

> <Gold.Chemscore.ZeroCoef>
-5.4800

> <Gold.Chemscore.Hbond>
1.5518

> <Gold.Chemscore.Metal>
0.0000

> <Gold.Chemscore.Lipo>
77.0337

> <Gold.Chemscore.Internal_Hbond>
0.0000

> <Gold.Chemscore.DEClash>
1.3385

> <Gold.Chemscore.DEInternal>
1.6144

> <Gold.Chemscore.Rot>
1.0000

> <Gold.Chemscore.Internal.Correction>
   9.000000E+99

> <Gold.Chemscore.Hbonds>
donor molecule, donor type, donor heavy atom, donor atom, acceptor molecule, acceptor atom, score
      L1  H     9    31       P1  7948  0.80
      L1  H    12    32       P1  7948  0.57

> <Gold.Chemscore.Hbond.Weighted>
-5.1830

> <Gold.Chemscore.Metal.Weighted>
-0.0000

> <Gold.Chemscore.Lipo.Weighted>
-9.0129

> <Gold.Chemscore.Internal_Hbond.Weighted>
0.0000

> <Gold.Chemscore.DEClash.Weighted>
1.3385

> <Gold.Chemscore.DEInternal.Weighted>
1.6144

> <Gold.Chemscore.Rot.Weighted>
2.5600

> <Gold.Chemscore.Internal.Correction.Weighted>
   9.000000E+99

> <Gold.Protein.RotatedTorsions>
[ 6907 6896 6895 6894 ] final  154.33 input  -60.11 | X-H torsion
[ 7974 7965 7964 7962 ] final    5.45 input  175.53 | X-H torsion
[ 8008 7997 7996 7995 ] final  -11.40 input   59.86 | X-H torsion
[ 10167 10162 10161 10158 ] final  142.67 input  -65.29 | X-H torsion
[ 10718 10713 10712 10709 ] final  165.98 input   66.30 | X-H torsion
[ 10763 10752 10751 10750 ] final   84.23 input  -60.55 | X-H torsion
[ 11005 11000 10999 10996 ] final   69.79 input  -57.11 | X-H torsion

> <Gold.Protein.ActiveResidues>
 VAL166  LYS551  ARG553  GLY616  TRP617  ASP618  TYR619  PRO620  LYS621  CYS622 
 ASP623  PHE694  ASN695  SER759  ASP760  ASP761  ALA762  ILE779  LEU786  VAL792 
 PHE793  MET794  SER795  GLU796  ALA797  LYS798  CYS799  TRP800  GLU811  SER814 

> <Gold.Protein.RotatedAtoms>
  152.0599  133.4057  159.4413 H   0  0  0  0  0  0  0  0  0  0  0  0  # atno 6907 bound_to 6896
  150.6866  134.3212  159.4796 H   0  0  0  0  0  0  0  0  0  0  0  0  # atno 6908 bound_to 6896
  152.1031  134.9327  160.0619 H   0  0  0  0  0  0  0  0  0  0  0  0  # atno 6909 bound_to 6896
  146.2440  140.0382  142.8384 H   0  0  0  0  0  0  0  0  0  0  0  0  # atno 7974 bound_to 7965
  154.5468  140.2303  155.8549 H   0  0  0  0  0  0  0  0  0  0  0  0  # atno 8008 bound_to 7997
  156.1910  140.3077  155.9295 H   0  0  0  0  0  0  0  0  0  0  0  0  # atno 8009 bound_to 7997
  155.3148  140.0437  157.3027 H   0  0  0  0  0  0  0  0  0  0  0  0  # atno 8010 bound_to 7997
  139.4988  144.6092  151.6311 H   0  0  0  0  0  0  0  0  0  0  0  0  # atno 10167 bound_to 10162
  157.0724  131.0370  151.2606 H   0  0  0  0  0  0  0  0  0  0  0  0  # atno 10718 bound_to 10713
  153.1362  135.4662  154.9426 H   0  0  0  0  0  0  0  0  0  0  0  0  # atno 10763 bound_to 10752
  154.7708  135.3158  154.8195 H   0  0  0  0  0  0  0  0  0  0  0  0  # atno 10764 bound_to 10752
  153.8727  135.6902  153.4827 H   0  0  0  0  0  0  0  0  0  0  0  0  # atno 10765 bound_to 10752
  139.9634  134.7023  156.0598 H   0  0  0  0  0  0  0  0  0  0  0  0  # atno 11005 bound_to 11000
  145.1093  140.9395  143.4666 LP  0  0  0  0  0  0  0  0  0  0  0  0  # atno 17320 bound_to 7965
  145.0592  139.3119  143.5889 LP  0  0  0  0  0  0  0  0  0  0  0  0  # atno 17321 bound_to 7965
  140.5761  144.0025  150.6243 LP  0  0  0  0  0  0  0  0  0  0  0  0  # atno 17342 bound_to 10162
  140.3159  143.3168  152.0832 LP  0  0  0  0  0  0  0  0  0  0  0  0  # atno 17343 bound_to 10162
  157.4867  130.7797  149.7467 LP  0  0  0  0  0  0  0  0  0  0  0  0  # atno 17370 bound_to 10713
  155.9946  130.3916  150.2850 LP  0  0  0  0  0  0  0  0  0  0  0  0  # atno 17371 bound_to 10713
  141.1312  133.6586  156.3470 LP  0  0  0  0  0  0  0  0  0  0  0  0  # atno 17394 bound_to 11000
  140.5451  134.6083  157.5391 LP  0  0  0  0  0  0  0  0  0  0  0  0  # atno 17395 bound_to 11000

$$$$
