AV-unprocessed.smi:3151|AV-procd|sdf|12016|dock9
  -GOLD-   2272017423D 1   1.00000     0.00000
 Structure written by MMmdl.
 35 36  0  0  0  0  0  0  0  0  1 V2000
  150.7172  140.8227  157.0646 O   0  0  0  0  0  0  0  0  0  0  0  0
  150.4126  141.9638  156.7166 C   0  0  0  0  0  0  0  0  0  0  0  0
  151.2682  143.1595  157.1484 C   0  0  0  0  0  0  0  0  0  0  0  0
  151.2546  143.4055  158.6718 C   0  0  0  0  0  0  0  0  0  0  0  0
  151.5502  144.8502  159.0925 C   0  0  0  0  0  0  0  0  0  0  0  0
  152.0071  144.7606  160.5536 C   0  0  0  0  0  0  0  0  0  0  0  0
  152.4535  143.3082  160.7801 C   0  0  0  0  0  0  0  0  0  0  0  0
  152.3159  142.6029  159.4274 C   0  0  0  0  0  0  0  0  0  0  0  0
  149.3451  142.2382  155.9514 N   0  0  0  0  0  0  0  0  0  0  0  0
  148.4051  141.2465  155.4427 C   0  0  0  0  0  0  0  0  0  0  0  0
  148.1682  141.4140  153.9327 C   0  0  0  0  0  0  0  0  0  0  0  0
  147.4620  140.2770  153.3788 N   0  0  0  0  0  0  0  0  0  0  0  0
  147.1299  140.0625  152.0476 C   0  0  0  0  0  0  0  0  0  0  0  0
  146.4636  138.8589  151.9984 C   0  0  0  0  0  0  0  0  0  0  0  0
  146.3740  138.3196  153.2798 N   0  0  0  0  0  0  0  0  0  0  0  0
  146.9871  139.2148  154.0436 C   0  0  0  0  0  0  0  0  0  0  0  0
  152.2909  142.9754  156.8176 H   0  0  0  0  0  0  0  0  0  0  0  0
  150.9330  144.0575  156.6267 H   0  0  0  0  0  0  0  0  0  0  0  0
  150.2796  143.1247  159.0743 H   0  0  0  0  0  0  0  0  0  0  0  0
  152.3609  145.2546  158.4844 H   0  0  0  0  0  0  0  0  0  0  0  0
  150.6884  145.5069  158.9694 H   0  0  0  0  0  0  0  0  0  0  0  0
  152.8110  145.4684  160.7583 H   0  0  0  0  0  0  0  0  0  0  0  0
  151.1819  145.0028  161.2243 H   0  0  0  0  0  0  0  0  0  0  0  0
  153.4726  143.2465  161.1630 H   0  0  0  0  0  0  0  0  0  0  0  0
  151.8004  142.8350  161.5143 H   0  0  0  0  0  0  0  0  0  0  0  0
  152.0489  141.5508  159.5321 H   0  0  0  0  0  0  0  0  0  0  0  0
  153.2675  142.6506  158.8958 H   0  0  0  0  0  0  0  0  0  0  0  0
  149.1679  143.2026  155.7103 H   0  0  0  0  0  0  0  0  0  0  0  0
  148.7672  140.2410  155.6652 H   0  0  0  0  0  0  0  0  0  0  0  0
  147.4646  141.3632  155.9817 H   0  0  0  0  0  0  0  0  0  0  0  0
  147.5867  142.3151  153.7341 H   0  0  0  0  0  0  0  0  0  0  0  0
  149.1148  141.5229  153.4013 H   0  0  0  0  0  0  0  0  0  0  0  0
  147.3870  140.7642  151.2678 H   0  0  0  0  0  0  0  0  0  0  0  0
  146.0443  138.3439  151.1466 H   0  0  0  0  0  0  0  0  0  0  0  0
  147.0916  139.0962  155.1123 H   0  0  0  0  0  0  0  0  0  0  0  0
  1  2  2  0  0  0  0
  2  3  1  0  0  0  0
  2  9  1  0  0  0  0
  3  4  1  0  0  0  0
  3 17  1  0  0  0  0
  3 18  1  0  0  0  0
  4  8  1  0  0  0  0
  4  5  1  0  0  0  0
  4 19  1  0  0  0  0
  5  6  1  0  0  0  0
  5 20  1  0  0  0  0
  5 21  1  0  0  0  0
  6  7  1  0  0  0  0
  6 22  1  0  0  0  0
  6 23  1  0  0  0  0
  7  8  1  0  0  0  0
  7 24  1  0  0  0  0
  7 25  1  0  0  0  0
  8 26  1  0  0  0  0
  8 27  1  0  0  0  0
  9 10  1  0  0  0  0
  9 28  1  0  0  0  0
 10 11  1  0  0  0  0
 10 29  1  0  0  0  0
 10 30  1  0  0  0  0
 11 12  1  0  0  0  0
 11 31  1  0  0  0  0
 11 32  1  0  0  0  0
 12 16  1  0  0  0  0
 12 13  1  0  0  0  0
 13 14  2  0  0  0  0
 13 33  1  0  0  0  0
 14 15  1  0  0  0  0
 14 34  1  0  0  0  0
 15 16  2  0  0  0  0
 16 35  1  0  0  0  0
M  END
> <s_m_source_file>
AV-unprocessed.smi

> <i_m_source_file_index>
3151

> <i_lp_mmshare_version>
43012

> <i_f3d_flags>
0

> <s_epik_input>
W0NIMl0xW0NIMl1bQ0gyXVtDSDJdW0NIXTFbQ0gyXUMoPU8pW05IXVtDSDJdW0NIMl1uMltjSF1bY0hdbltjSF0y

> <s_epik_cmdline>
J2VwaWtfcHl0aG9uJywgJy1waCcsICc3LjAnLCAnLXRuJywgJzgnLCAnLW1hJywgJzIwMCcsICctbWV0YWxfYmluZGluZycsICctaW1hZScsICc8aW5maWxlLm1hZT4nLCAnLW9tYWUnLCAnPG91dGZpbGUubWFlPic=

> <r_lp_tautomer_probability>
1

> <r_epik_Ionization_Penalty>
0.596413

> <r_epik_Ionization_Penalty_Charging>
0.596413

> <r_epik_Ionization_Penalty_Neutral>
2.16921e-08

> <r_epik_State_Penalty>
0.610423

> <r_epik_Charging_Adjusted_Penalty>
1.20684

> <i_epik_Tot_Q>
0

> <i_epik_Tot_abs_Q>
0

> <r_epik_Metal_State_Penalty>
0.300145

> <b_epik_Metal_Only>
0

> <s_lp_Force_Field>
OPLS_2005

> <r_lp_Energy>
20.9474

> <b_lp_Chiralities_Consistent>
1

> <s_lp_Variant>
AV-unprocessed.smi:3151-2

> <Gold.Version>
5.8.1

> <Gold.Id.Protein>
6NUR|6NUR_protein|mol2

> <Gold.PLP.Fitness>
41.4437

> <Gold.PLP.PLP>
-35.4736

> <Gold.PLP.part.hbond>
-1.0000

> <Gold.PLP.part.metal>
0.0000

> <Gold.PLP.part.buried>
0.8560

> <Gold.PLP.part.nonpolar>
-35.9577

> <Gold.PLP.part.repulsive>
0.3644

> <Gold.PLP.ligand.clash>
0.0000

> <Gold.PLP.ligand.torsion>
0.4233

> <Gold.PLP.Chemscore.Hbond>
1.0000

> <Gold.PLP.Chemscore.CHOScore>
1.2577

> <Gold.PLP.Chemscore.Metal>
0.0000

> <Gold.Chemscore.Hbonds>
donor molecule, donor type, donor heavy atom, donor atom, acceptor molecule, acceptor atom, score
      L1  H     9    28       P1  8028  1.00
      L1  C    13    33       P1  7957  0.29
      L1  C    14    34       P1 10171  0.95

> <Gold.PLP.Chemscore.Internal.Correction>
0.0436

> <Gold.Rescore>
     Score         DG    S(hbond)    S(metal)    S(lipo)     H(rot)  DE(clash)    DE(int)     intcor
     13.97     -15.20       1.00        0.00      98.15       1.99       0.77       0.46       ----

> <Gold.Chemscore.Fitness>
13.9747

> <Gold.Chemscore.DG>
-15.2023

> <Gold.Chemscore.ZeroCoef>
-5.4800

> <Gold.Chemscore.Hbond>
0.9995

> <Gold.Chemscore.Metal>
0.0000

> <Gold.Chemscore.Lipo>
98.1489

> <Gold.Chemscore.Internal_Hbond>
0.0000

> <Gold.Chemscore.DEClash>
0.7684

> <Gold.Chemscore.DEInternal>
0.4592

> <Gold.Chemscore.Rot>
1.9920

> <Gold.Chemscore.Internal.Correction>
   9.000000E+99

> <Gold.Chemscore.Hbonds>
donor molecule, donor type, donor heavy atom, donor atom, acceptor molecule, acceptor atom, score
      L1  H     9    28       P1  8028  0.94

> <Gold.Chemscore.Hbond.Weighted>
-3.3384

> <Gold.Chemscore.Metal.Weighted>
-0.0000

> <Gold.Chemscore.Lipo.Weighted>
-11.4834

> <Gold.Chemscore.Internal_Hbond.Weighted>
0.0000

> <Gold.Chemscore.DEClash.Weighted>
0.7684

> <Gold.Chemscore.DEInternal.Weighted>
0.4592

> <Gold.Chemscore.Rot.Weighted>
5.0996

> <Gold.Chemscore.Internal.Correction.Weighted>
   9.000000E+99

> <Gold.Protein.RotatedTorsions>
[ 6907 6896 6895 6894 ] final  171.34 input  -60.11 | X-H torsion
[ 7974 7965 7964 7962 ] final   39.33 input  175.53 | X-H torsion
[ 8008 7997 7996 7995 ] final  -16.12 input   59.86 | X-H torsion
[ 10167 10162 10161 10158 ] final  153.73 input  -65.29 | X-H torsion
[ 10718 10713 10712 10709 ] final   27.78 input   66.30 | X-H torsion
[ 10763 10752 10751 10750 ] final  -17.47 input  -60.55 | X-H torsion
[ 11005 11000 10999 10996 ] final  -99.40 input  -57.11 | X-H torsion

> <Gold.Protein.ActiveResidues>
 VAL166  LYS551  ARG553  GLY616  TRP617  ASP618  TYR619  PRO620  LYS621  CYS622 
 ASP623  PHE694  ASN695  SER759  ASP760  ASP761  ALA762  ILE779  LEU786  VAL792 
 PHE793  MET794  SER795  GLU796  ALA797  LYS798  CYS799  TRP800  GLU811  SER814 

> <Gold.Protein.RotatedAtoms>
  151.8018  133.3371  159.3528 H   0  0  0  0  0  0  0  0  0  0  0  0  # atno 6907 bound_to 6896
  150.7356  134.5746  159.5917 H   0  0  0  0  0  0  0  0  0  0  0  0  # atno 6908 bound_to 6896
  152.3138  134.7466  160.0381 H   0  0  0  0  0  0  0  0  0  0  0  0  # atno 6909 bound_to 6896
  146.0992  139.5664  142.9425 H   0  0  0  0  0  0  0  0  0  0  0  0  # atno 7974 bound_to 7965
  154.5077  140.2178  155.9218 H   0  0  0  0  0  0  0  0  0  0  0  0  # atno 8008 bound_to 7997
  156.1514  140.3160  155.8621 H   0  0  0  0  0  0  0  0  0  0  0  0  # atno 8009 bound_to 7997
  155.3931  140.0479  157.3030 H   0  0  0  0  0  0  0  0  0  0  0  0  # atno 8010 bound_to 7997
  139.4826  144.5248  151.7819 H   0  0  0  0  0  0  0  0  0  0  0  0  # atno 10167 bound_to 10162
  157.2247  130.6995  149.6286 H   0  0  0  0  0  0  0  0  0  0  0  0  # atno 10718 bound_to 10713
  153.5744  135.7006  153.5490 H   0  0  0  0  0  0  0  0  0  0  0  0  # atno 10763 bound_to 10752
  153.3316  135.4045  155.1500 H   0  0  0  0  0  0  0  0  0  0  0  0  # atno 10764 bound_to 10752
  154.8628  135.3720  154.5268 H   0  0  0  0  0  0  0  0  0  0  0  0  # atno 10765 bound_to 10752
  141.1310  133.8319  157.0967 H   0  0  0  0  0  0  0  0  0  0  0  0  # atno 11005 bound_to 11000
  145.5888  141.0372  143.2082 LP  0  0  0  0  0  0  0  0  0  0  0  0  # atno 17320 bound_to 7965
  144.7419  139.7425  143.7307 LP  0  0  0  0  0  0  0  0  0  0  0  0  # atno 17321 bound_to 7965
  140.4766  144.1510  150.5926 LP  0  0  0  0  0  0  0  0  0  0  0  0  # atno 17342 bound_to 10162
  140.4324  143.2562  151.9579 LP  0  0  0  0  0  0  0  0  0  0  0  0  # atno 17343 bound_to 10162
  155.9679  130.4508  150.5712 LP  0  0  0  0  0  0  0  0  0  0  0  0  # atno 17370 bound_to 10713
  157.3539  131.0738  151.1691 LP  0  0  0  0  0  0  0  0  0  0  0  0  # atno 17371 bound_to 10713
  140.0359  134.9878  157.0869 LP  0  0  0  0  0  0  0  0  0  0  0  0  # atno 17394 bound_to 11000
  140.4212  134.1879  155.7164 LP  0  0  0  0  0  0  0  0  0  0  0  0  # atno 17395 bound_to 11000

$$$$
