AV-unprocessed.smi:34|AV-procd|sdf|244|dock4
  -GOLD-   2262016 03D 1   1.00000     0.00000
 Structure written by MMmdl.
 54 58  0  0  0  0  0  0  0  0  2 V2000
  147.7920  132.4869  158.6433 O   0  0  0  0  0  0  0  0  0  0  0  0
  147.8373  133.5859  159.2003 C   0  0  0  0  0  0  0  0  0  0  0  0
  148.4735  134.7074  158.7761 N   0  5  0  0  0  0  0  0  0  0  0  0
  147.7635  135.7958  158.4414 C   0  0  0  0  0  0  0  0  0  0  0  0
  146.8854  136.3353  159.3252 N   0  0  0  0  0  0  0  0  0  0  0  0
  146.1718  137.4185  158.9955 C   0  0  0  0  0  0  0  0  0  0  0  0
  146.1758  138.1124  157.8530 N   0  0  0  0  0  0  0  0  0  0  0  0
  147.0510  137.5747  156.9545 C   0  0  0  0  0  0  0  0  0  0  0  0
  147.8658  136.4264  157.1700 C   0  0  0  0  0  0  0  0  0  0  0  0
  148.6321  136.1530  156.0462 N   0  0  0  0  0  0  0  0  0  0  0  0
  148.2644  137.1332  155.2230 C   0  0  0  0  0  0  0  0  0  0  0  0
  147.3412  138.0085  155.6737 N   0  0  0  0  0  0  0  0  0  0  0  0
  146.7476  139.2032  154.9996 C   0  0  1  0  0  0  0  0  0  0  0  0
  147.0957  140.3437  155.7350 O   0  0  0  0  0  0  0  0  0  0  0  0
  147.9293  141.2104  154.9672 C   0  0  1  0  0  0  0  0  0  0  0  0
  149.4075  140.9827  155.3210 C   0  0  0  0  0  0  0  0  0  0  0  0
  149.6763  141.5712  156.5833 O   0  0  0  0  0  0  0  0  0  0  0  0
  150.7481  141.1801  157.2991 C   0  0  0  0  0  0  0  0  0  0  0  0
  151.2237  140.0440  157.2500 O   0  0  0  0  0  0  0  0  0  0  0  0
  151.2992  142.2680  158.1578 C   0  0  0  0  0  0  0  0  0  0  0  0
  152.1032  141.9322  159.2721 C   0  0  0  0  0  0  0  0  0  0  0  0
  152.6351  142.9380  160.1023 C   0  0  0  0  0  0  0  0  0  0  0  0
  152.3689  144.2924  159.8290 C   0  0  0  0  0  0  0  0  0  0  0  0
  151.5702  144.6396  158.7240 C   0  0  0  0  0  0  0  0  0  0  0  0
  151.0381  143.6351  157.8920 C   0  0  0  0  0  0  0  0  0  0  0  0
  147.5780  140.8637  153.5220 C   0  0  2  0  0  0  0  0  0  0  0  0
  146.4524  141.5144  153.2151 F   0  0  0  0  0  0  0  0  0  0  0  0
  147.3426  139.3633  153.5934 C   0  0  2  0  0  0  0  0  0  0  0  0
  146.4768  138.9413  152.5592 O   0  0  0  0  0  0  0  0  0  0  0  0
  147.1784  133.7446  160.5452 C   0  0  0  0  0  0  0  0  0  0  0  0
  146.0901  132.9121  160.8940 C   0  0  0  0  0  0  0  0  0  0  0  0
  145.4405  133.0625  162.1348 C   0  0  0  0  0  0  0  0  0  0  0  0
  145.8679  134.0527  163.0387 C   0  0  0  0  0  0  0  0  0  0  0  0
  146.9422  134.8954  162.6988 C   0  0  0  0  0  0  0  0  0  0  0  0
  147.5906  134.7473  161.4571 C   0  0  0  0  0  0  0  0  0  0  0  0
  145.5002  137.7822  159.7590 H   0  0  0  0  0  0  0  0  0  0  0  0
  148.6992  137.2178  154.2386 H   0  0  0  0  0  0  0  0  0  0  0  0
  145.6684  139.0448  155.0233 H   0  0  0  0  0  0  0  0  0  0  0  0
  147.6673  142.2437  155.1995 H   0  0  0  0  0  0  0  0  0  0  0  0
  149.6095  139.9126  155.3821 H   0  0  0  0  0  0  0  0  0  0  0  0
  150.0646  141.3974  154.5558 H   0  0  0  0  0  0  0  0  0  0  0  0
  152.3211  140.8991  159.5020 H   0  0  0  0  0  0  0  0  0  0  0  0
  153.2481  142.6695  160.9502 H   0  0  0  0  0  0  0  0  0  0  0  0
  152.7760  145.0637  160.4660 H   0  0  0  0  0  0  0  0  0  0  0  0
  151.3643  145.6787  158.5132 H   0  0  0  0  0  0  0  0  0  0  0  0
  150.4283  143.9370  157.0531 H   0  0  0  0  0  0  0  0  0  0  0  0
  148.3385  141.1556  152.7967 H   0  0  0  0  0  0  0  0  0  0  0  0
  148.2934  138.8314  153.5287 H   0  0  0  0  0  0  0  0  0  0  0  0
  146.9143  138.2678  152.0601 H   0  0  0  0  0  0  0  0  0  0  0  0
  145.7476  132.1483  160.2112 H   0  0  0  0  0  0  0  0  0  0  0  0
  144.6126  132.4185  162.3914 H   0  0  0  0  0  0  0  0  0  0  0  0
  145.3697  134.1685  163.9897 H   0  0  0  0  0  0  0  0  0  0  0  0
  147.2680  135.6597  163.3886 H   0  0  0  0  0  0  0  0  0  0  0  0
  148.4047  135.4139  161.2120 H   0  0  0  0  0  0  0  0  0  0  0  0
  1  2  2  0  0  0  0
  2  3  1  0  0  0  0
  2 30  1  0  0  0  0
  3  4  1  0  0  0  0
  4  9  1  0  0  0  0
  4  5  2  0  0  0  0
  5  6  1  0  0  0  0
  6  7  2  0  0  0  0
  6 36  1  0  0  0  0
  7  8  1  0  0  0  0
  8 12  1  0  0  0  0
  8  9  2  0  0  0  0
  9 10  1  0  0  0  0
 10 11  2  0  0  0  0
 11 12  1  0  0  0  0
 11 37  1  0  0  0  0
 12 13  1  0  0  0  0
 13 28  1  0  0  0  0
 13 14  1  0  0  0  0
 13 38  1  0  0  0  0
 14 15  1  0  0  0  0
 15 16  1  0  0  0  0
 15 26  1  0  0  0  0
 15 39  1  0  0  0  0
 16 17  1  0  0  0  0
 16 40  1  0  0  0  0
 16 41  1  0  0  0  0
 17 18  1  0  0  0  0
 18 19  2  0  0  0  0
 18 20  1  0  0  0  0
 20 25  1  0  0  0  0
 20 21  2  0  0  0  0
 21 22  1  0  0  0  0
 21 42  1  0  0  0  0
 22 23  2  0  0  0  0
 22 43  1  0  0  0  0
 23 24  1  0  0  0  0
 23 44  1  0  0  0  0
 24 25  2  0  0  0  0
 24 45  1  0  0  0  0
 25 46  1  0  0  0  0
 26 27  1  0  0  0  0
 26 28  1  0  0  0  0
 26 47  1  0  0  0  0
 28 29  1  0  0  0  0
 28 48  1  0  0  0  0
 29 49  1  0  0  0  0
 30 35  1  0  0  0  0
 30 31  2  0  0  0  0
 31 32  1  0  0  0  0
 31 50  1  0  0  0  0
 32 33  2  0  0  0  0
 32 51  1  0  0  0  0
 33 34  1  0  0  0  0
 33 52  1  0  0  0  0
 34 35  2  0  0  0  0
 34 53  1  0  0  0  0
 35 54  1  0  0  0  0
M  CHG  1   3  -1
M  END
> <s_m_source_file>
AV-unprocessed.smi

> <i_m_source_file_index>
34

> <i_lp_mmshare_version>
43012

> <i_f3d_flags>
0

> <s_epik_input>
W2NIXTFbY0hdW2NIXVtjSF1bY0hdYzFDKD1PKVtOSF1jKG5bY0hdbjIpYyhjMjMpbltjSF1uM1tDQEBIXTRPW0NASF0oW0NAQEhdKEYpW0NASF00W09IXSlbQ0gyXU9DKD1PKWM1W2NIXVtjSF1bY0hdW2NIXVtjSF01

> <s_epik_cmdline>
J2VwaWtfcHl0aG9uJywgJy1waCcsICc3LjAnLCAnLXRuJywgJzgnLCAnLW1hJywgJzIwMCcsICctbWV0YWxfYmluZGluZycsICctaW1hZScsICc8aW5maWxlLm1hZT4nLCAnLW9tYWUnLCAnPG91dGZpbGUubWFlPic=

> <r_lp_tautomer_probability>
1

> <r_epik_Ionization_Penalty>
4.33227

> <r_epik_Ionization_Penalty_Charging>
3.41027

> <r_epik_Ionization_Penalty_Neutral>
0.922001

> <r_epik_State_Penalty>
3.41358

> <r_epik_Charging_Adjusted_Penalty>
6.82385

> <i_epik_Tot_Q>
-1

> <i_epik_Tot_abs_Q>
1

> <r_epik_Metal_State_Penalty>
0.496292

> <b_epik_Metal_Only>
1

> <s_epik_Chemistry_Notes>
This compound has an ester and may undergo hydrolysis at high or low pH. This compound contains an acetal/aminal-like group ( X-CH(R)-Y where X, Y are N, S, or O) that may be acid/base labile, releasing an aldehyde.

> <s_lp_Force_Field>
OPLS_2005

> <r_lp_Energy>
49.0999

> <b_lp_Chiralities_Consistent>
1

> <s_lp_Variant>
AV-unprocessed.smi:34-30

> <Gold.Version>
5.8.1

> <Gold.Id.Protein>
6NUR|6NUR_protein|mol2

> <Gold.PLP.Fitness>
57.1967

> <Gold.PLP.PLP>
-49.3308

> <Gold.PLP.part.hbond>
-2.9629

> <Gold.PLP.part.metal>
0.0000

> <Gold.PLP.part.buried>
0.4057

> <Gold.PLP.part.nonpolar>
-47.4430

> <Gold.PLP.part.repulsive>
0.1309

> <Gold.PLP.ligand.clash>
0.0000

> <Gold.PLP.ligand.torsion>
2.1552

> <Gold.PLP.Chemscore.Hbond>
3.0000

> <Gold.PLP.Chemscore.CHOScore>
0.9348

> <Gold.PLP.Chemscore.Metal>
0.0000

> <Gold.Chemscore.Hbonds>
donor molecule, donor type, donor heavy atom, donor atom, acceptor molecule, acceptor atom, score
      P1  H  6896  6909       L1     3  0.75
      L1  C    11    37       P1  7948  0.89

> <Gold.PLP.Chemscore.Internal.Correction>
0.3717

> <Gold.Rescore>
     Score         DG    S(hbond)    S(metal)    S(lipo)     H(rot)  DE(clash)    DE(int)     intcor
     12.83     -20.35       1.47        0.00     144.18       2.69       2.74       4.78       ----

> <Gold.Chemscore.Fitness>
12.8341

> <Gold.Chemscore.DG>
-20.3535

> <Gold.Chemscore.ZeroCoef>
-5.4800

> <Gold.Chemscore.Hbond>
1.4676

> <Gold.Chemscore.Metal>
0.0000

> <Gold.Chemscore.Lipo>
144.1813

> <Gold.Chemscore.Internal_Hbond>
0.0000

> <Gold.Chemscore.DEClash>
2.7379

> <Gold.Chemscore.DEInternal>
4.7816

> <Gold.Chemscore.Rot>
2.6944

> <Gold.Chemscore.Internal.Correction>
   9.000000E+99

> <Gold.Chemscore.Hbonds>
donor molecule, donor type, donor heavy atom, donor atom, acceptor molecule, acceptor atom, score
      P1  H  6896  6909       L1     3  0.15

> <Gold.Chemscore.Hbond.Weighted>
-4.9019

> <Gold.Chemscore.Metal.Weighted>
-0.0000

> <Gold.Chemscore.Lipo.Weighted>
-16.8692

> <Gold.Chemscore.Internal_Hbond.Weighted>
0.0000

> <Gold.Chemscore.DEClash.Weighted>
2.7379

> <Gold.Chemscore.DEInternal.Weighted>
4.7816

> <Gold.Chemscore.Rot.Weighted>
6.8975

> <Gold.Chemscore.Internal.Correction.Weighted>
   9.000000E+99

> <Gold.Protein.RotatedTorsions>
[ 6907 6896 6895 6894 ] final   36.34 input  -60.11 | X-H torsion
[ 7974 7965 7964 7962 ] final -110.09 input  175.53 | X-H torsion
[ 8008 7997 7996 7995 ] final  -59.65 input   59.86 | X-H torsion
[ 10167 10162 10161 10158 ] final  -33.17 input  -65.29 | X-H torsion
[ 10718 10713 10712 10709 ] final  -27.13 input   66.30 | X-H torsion
[ 10763 10752 10751 10750 ] final   24.79 input  -60.55 | X-H torsion
[ 11005 11000 10999 10996 ] final  -52.05 input  -57.11 | X-H torsion

> <Gold.Protein.ActiveResidues>
 VAL166  LYS551  ARG553  GLY616  TRP617  ASP618  TYR619  PRO620  LYS621  CYS622 
 ASP623  PHE694  ASN695  SER759  ASP760  ASP761  ALA762  ILE779  LEU786  VAL792 
 PHE793  MET794  SER795  GLU796  ALA797  LYS798  CYS799  TRP800  GLU811  SER814 

> <Gold.Protein.RotatedAtoms>
  152.1284  134.9153  160.0559 H   0  0  0  0  0  0  0  0  0  0  0  0  # atno 6907 bound_to 6896
  152.0267  133.3915  159.4288 H   0  0  0  0  0  0  0  0  0  0  0  0  # atno 6908 bound_to 6896
  150.6854  134.3488  159.4943 H   0  0  0  0  0  0  0  0  0  0  0  0  # atno 6909 bound_to 6896
  145.1726  140.8933  143.3526 H   0  0  0  0  0  0  0  0  0  0  0  0  # atno 7974 bound_to 7965
  154.4362  140.1057  156.6150 H   0  0  0  0  0  0  0  0  0  0  0  0  # atno 8008 bound_to 7997
  155.5769  140.3490  155.4511 H   0  0  0  0  0  0  0  0  0  0  0  0  # atno 8009 bound_to 7997
  156.0348  140.1268  157.0209 H   0  0  0  0  0  0  0  0  0  0  0  0  # atno 8010 bound_to 7997
  140.7209  143.3640  151.1907 H   0  0  0  0  0  0  0  0  0  0  0  0  # atno 10167 bound_to 10162
  156.4421  130.4466  149.7046 H   0  0  0  0  0  0  0  0  0  0  0  0  # atno 10718 bound_to 10713
  153.0738  135.6597  154.0189 H   0  0  0  0  0  0  0  0  0  0  0  0  # atno 10763 bound_to 10752
  153.9828  135.2953  155.3420 H   0  0  0  0  0  0  0  0  0  0  0  0  # atno 10764 bound_to 10752
  154.7121  135.5201  153.8752 H   0  0  0  0  0  0  0  0  0  0  0  0  # atno 10765 bound_to 10752
  141.0904  133.6634  156.3967 H   0  0  0  0  0  0  0  0  0  0  0  0  # atno 11005 bound_to 11000
  145.0218  139.3418  143.6069 LP  0  0  0  0  0  0  0  0  0  0  0  0  # atno 17320 bound_to 7965
  146.3466  139.9521  142.8727 LP  0  0  0  0  0  0  0  0  0  0  0  0  # atno 17321 bound_to 7965
  139.7198  143.9242  152.2981 LP  0  0  0  0  0  0  0  0  0  0  0  0  # atno 17342 bound_to 10162
  139.8995  144.6920  150.8681 LP  0  0  0  0  0  0  0  0  0  0  0  0  # atno 17343 bound_to 10162
  156.3906  130.7625  151.2626 LP  0  0  0  0  0  0  0  0  0  0  0  0  # atno 17370 bound_to 10713
  157.7506  131.0269  150.3981 LP  0  0  0  0  0  0  0  0  0  0  0  0  # atno 17371 bound_to 10713
  140.5266  134.6253  157.5336 LP  0  0  0  0  0  0  0  0  0  0  0  0  # atno 17394 bound_to 11000
  139.9729  134.7263  156.0007 LP  0  0  0  0  0  0  0  0  0  0  0  0  # atno 17395 bound_to 11000

$$$$
