AV-unprocessed.smi:1076|AV-procd|sdf|4698|dock5
  -GOLD-   22720 3223D 1   1.00000     0.00000
 Structure written by MMmdl.
 45 46  0  0  0  0  0  0  0  0  2 V2000
  145.6472  131.7899  151.8480 C   0  0  0  0  0  0  0  0  0  0  0  0
  145.4060  133.2297  151.4969 C   0  0  0  0  0  0  0  0  0  0  0  0
  144.1989  133.8245  151.0316 C   0  0  0  0  0  0  0  0  0  0  0  0
  144.3168  135.1246  150.8160 N   0  0  0  0  0  0  0  0  0  0  0  0
  145.5996  135.4037  151.1323 N   0  0  0  0  0  0  0  0  0  0  0  0
  146.0882  136.7668  151.0244 C   0  0  0  0  0  0  0  0  0  0  0  0
  145.8108  137.6033  152.2907 C   0  0  1  0  0  0  0  0  0  0  0  0
  146.7356  138.8262  152.3510 C   0  0  0  0  0  0  0  0  0  0  0  0
  144.4012  138.0520  152.3325 N   0  3  0  0  0  0  0  0  0  0  0  0
  143.4748  137.1425  153.0439 C   0  0  0  0  0  0  0  0  0  0  0  0
  142.0164  137.6384  152.9840 C   0  0  0  0  0  0  0  0  0  0  0  0
  141.0895  137.0617  154.0710 C   0  0  0  0  0  0  0  0  0  0  0  0
  141.5866  136.4361  155.0089 O   0  0  0  0  0  0  0  0  0  0  0  0
  139.7547  137.2693  153.9706 N   0  0  0  0  0  0  0  0  0  0  0  0
  138.8012  136.8790  155.0125 C   0  0  0  0  0  0  0  0  0  0  0  0
  138.1896  138.1607  155.6079 C   0  0  0  0  0  0  0  0  0  0  0  0
  137.5711  138.9252  154.5751 O   0  0  0  0  0  0  0  0  0  0  0  0
  138.4681  139.2866  153.5273 C   0  0  0  0  0  0  0  0  0  0  0  0
  139.0734  138.0146  152.9078 C   0  0  0  0  0  0  0  0  0  0  0  0
  146.2803  134.2784  151.5451 C   0  0  0  0  0  0  0  0  0  0  0  0
  144.9806  131.1229  151.3009 H   0  0  0  0  0  0  0  0  0  0  0  0
  145.4872  131.6039  152.9102 H   0  0  0  0  0  0  0  0  0  0  0  0
  146.6674  131.4830  151.6171 H   0  0  0  0  0  0  0  0  0  0  0  0
  143.2448  133.3526  150.8473 H   0  0  0  0  0  0  0  0  0  0  0  0
  147.1615  136.7226  150.8347 H   0  0  0  0  0  0  0  0  0  0  0  0
  145.6394  137.2357  150.1470 H   0  0  0  0  0  0  0  0  0  0  0  0
  146.0218  136.9930  153.1709 H   0  0  0  0  0  0  0  0  0  0  0  0
  147.7844  138.5276  152.3410 H   0  0  0  0  0  0  0  0  0  0  0  0
  146.5672  139.4007  153.2625 H   0  0  0  0  0  0  0  0  0  0  0  0
  146.5716  139.4920  151.5027 H   0  0  0  0  0  0  0  0  0  0  0  0
  144.3665  138.9472  152.7998 H   0  0  0  0  0  0  0  0  0  0  0  0
  143.5278  136.1507  152.5944 H   0  0  0  0  0  0  0  0  0  0  0  0
  143.7991  137.0308  154.0798 H   0  0  0  0  0  0  0  0  0  0  0  0
  142.0167  138.7271  153.0532 H   0  0  0  0  0  0  0  0  0  0  0  0
  141.5993  137.3806  152.0098 H   0  0  0  0  0  0  0  0  0  0  0  0
  138.0198  136.2553  154.5761 H   0  0  0  0  0  0  0  0  0  0  0  0
  139.2554  136.2840  155.8059 H   0  0  0  0  0  0  0  0  0  0  0  0
  137.4398  137.9090  156.3582 H   0  0  0  0  0  0  0  0  0  0  0  0
  138.9532  138.7597  156.1069 H   0  0  0  0  0  0  0  0  0  0  0  0
  137.9208  139.8513  152.7724 H   0  0  0  0  0  0  0  0  0  0  0  0
  139.2503  139.9419  153.9138 H   0  0  0  0  0  0  0  0  0  0  0  0
  139.7161  138.2781  152.0695 H   0  0  0  0  0  0  0  0  0  0  0  0
  138.2818  137.3935  152.4860 H   0  0  0  0  0  0  0  0  0  0  0  0
  147.3190  134.3168  151.8392 H   0  0  0  0  0  0  0  0  0  0  0  0
  144.0793  138.1733  151.3826 H   0  0  0  0  0  0  0  0  0  0  0  0
  1  2  1  0  0  0  0
  1 21  1  0  0  0  0
  1 22  1  0  0  0  0
  1 23  1  0  0  0  0
  2 20  2  0  0  0  0
  2  3  1  0  0  0  0
  3  4  2  0  0  0  0
  3 24  1  0  0  0  0
  4  5  1  0  0  0  0
  5  6  1  0  0  0  0
  5 20  1  0  0  0  0
  6  7  1  0  0  0  0
  6 25  1  0  0  0  0
  6 26  1  0  0  0  0
  7  8  1  0  0  0  0
  7  9  1  0  0  0  0
  7 27  1  0  0  0  0
  8 28  1  0  0  0  0
  8 29  1  0  0  0  0
  8 30  1  0  0  0  0
  9 10  1  0  0  0  0
  9 31  1  0  0  0  0
  9 45  1  0  0  0  0
 10 11  1  0  0  0  0
 10 32  1  0  0  0  0
 10 33  1  0  0  0  0
 11 12  1  0  0  0  0
 11 34  1  0  0  0  0
 11 35  1  0  0  0  0
 12 13  2  0  0  0  0
 12 14  1  0  0  0  0
 14 19  1  0  0  0  0
 14 15  1  0  0  0  0
 15 16  1  0  0  0  0
 15 36  1  0  0  0  0
 15 37  1  0  0  0  0
 16 17  1  0  0  0  0
 16 38  1  0  0  0  0
 16 39  1  0  0  0  0
 17 18  1  0  0  0  0
 18 19  1  0  0  0  0
 18 40  1  0  0  0  0
 18 41  1  0  0  0  0
 19 42  1  0  0  0  0
 19 43  1  0  0  0  0
 20 44  1  0  0  0  0
M  CHG  1   9   1
M  END
> <s_m_source_file>
AV-unprocessed.smi

> <i_m_source_file_index>
1076

> <i_lp_mmshare_version>
43012

> <i_f3d_flags>
0

> <s_epik_input>
W0NIM11jMVtjSF1ubihbY0hdMSlbQ0gyXVtDQEhdKFtDSDNdKVtOSF1bQ0gyXVtDSDJdQyg9TylOMltDSDJdW0NIMl1PW0NIMl1bQ0gyXTI=

> <s_epik_cmdline>
J2VwaWtfcHl0aG9uJywgJy1waCcsICc3LjAnLCAnLXRuJywgJzgnLCAnLW1hJywgJzIwMCcsICctbWV0YWxfYmluZGluZycsICctaW1hZScsICc8aW5maWxlLm1hZT4nLCAnLW9tYWUnLCAnPG91dGZpbGUubWFlPic=

> <r_lp_tautomer_probability>
1

> <r_epik_Ionization_Penalty>
0.00797518

> <r_epik_Ionization_Penalty_Charging>
0.0079672

> <r_epik_Ionization_Penalty_Neutral>
7.97619e-06

> <r_epik_State_Penalty>
0.00597998

> <r_epik_Charging_Adjusted_Penalty>
0.0139472

> <i_epik_Tot_Q>
1

> <i_epik_Tot_abs_Q>
1

> <r_epik_Metal_State_Penalty>
0.00598062

> <b_epik_Metal_Only>
0

> <s_lp_Force_Field>
OPLS_2005

> <r_lp_Energy>
23.7914

> <b_lp_Chiralities_Consistent>
1

> <s_lp_Variant>
AV-unprocessed.smi:1076-2

> <Gold.Version>
5.8.1

> <Gold.Id.Protein>
6NUR|6NUR_protein|mol2

> <Gold.PLP.Fitness>
50.0224

> <Gold.PLP.PLP>
-39.2775

> <Gold.PLP.part.hbond>
-3.0000

> <Gold.PLP.part.metal>
0.0000

> <Gold.PLP.part.buried>
-4.1964

> <Gold.PLP.part.nonpolar>
-34.2314

> <Gold.PLP.part.repulsive>
0.3101

> <Gold.PLP.ligand.clash>
0.0000

> <Gold.PLP.ligand.torsion>
1.1725

> <Gold.PLP.Chemscore.Hbond>
2.4168

> <Gold.PLP.Chemscore.CHOScore>
1.9129

> <Gold.PLP.Chemscore.Metal>
0.0000

> <Gold.Chemscore.Hbonds>
donor molecule, donor type, donor heavy atom, donor atom, acceptor molecule, acceptor atom, score
      L1  H     9    31       P1 10175  1.38
      L1  H     9    45       P1 10171  1.00
      L1  C     3    24       P1 10186  0.32
      L1  C    20    44       P1  7948  1.00

> <Gold.PLP.Chemscore.Internal.Correction>
0.1007

> <Gold.Rescore>
     Score         DG    S(hbond)    S(metal)    S(lipo)     H(rot)  DE(clash)    DE(int)     intcor
     14.77     -16.13       1.75        0.00      84.39       1.98       0.39       0.96       ----

> <Gold.Chemscore.Fitness>
14.7679

> <Gold.Chemscore.DG>
-16.1252

> <Gold.Chemscore.ZeroCoef>
-5.4800

> <Gold.Chemscore.Hbond>
1.7514

> <Gold.Chemscore.Metal>
0.0000

> <Gold.Chemscore.Lipo>
84.3914

> <Gold.Chemscore.Internal_Hbond>
0.0000

> <Gold.Chemscore.DEClash>
0.3947

> <Gold.Chemscore.DEInternal>
0.9626

> <Gold.Chemscore.Rot>
1.9837

> <Gold.Chemscore.Internal.Correction>
   9.000000E+99

> <Gold.Chemscore.Hbonds>
donor molecule, donor type, donor heavy atom, donor atom, acceptor molecule, acceptor atom, score
      L1  H     9    31       P1 10175  0.70
      L1  H     9    45       P1 10171  0.99

> <Gold.Chemscore.Hbond.Weighted>
-5.8497

> <Gold.Chemscore.Metal.Weighted>
-0.0000

> <Gold.Chemscore.Lipo.Weighted>
-9.8738

> <Gold.Chemscore.Internal_Hbond.Weighted>
0.0000

> <Gold.Chemscore.DEClash.Weighted>
0.3947

> <Gold.Chemscore.DEInternal.Weighted>
0.9626

> <Gold.Chemscore.Rot.Weighted>
5.0782

> <Gold.Chemscore.Internal.Correction.Weighted>
   9.000000E+99

> <Gold.Protein.RotatedTorsions>
[ 6907 6896 6895 6894 ] final  -95.63 input  -60.11 | X-H torsion
[ 7974 7965 7964 7962 ] final    0.11 input  175.53 | X-H torsion
[ 8008 7997 7996 7995 ] final   11.17 input   59.86 | X-H torsion
[ 10167 10162 10161 10158 ] final   56.38 input  -65.29 | X-H torsion
[ 10718 10713 10712 10709 ] final  129.20 input   66.30 | X-H torsion
[ 10763 10752 10751 10750 ] final   41.51 input  -60.55 | X-H torsion
[ 11005 11000 10999 10996 ] final   46.89 input  -57.11 | X-H torsion

> <Gold.Protein.ActiveResidues>
 VAL166  LYS551  ARG553  GLY616  TRP617  ASP618  TYR619  PRO620  LYS621  CYS622 
 ASP623  PHE694  ASN695  SER759  ASP760  ASP761  ALA762  ILE779  LEU786  VAL792 
 PHE793  MET794  SER795  GLU796  ALA797  LYS798  CYS799  TRP800  GLU811  SER814 

> <Gold.Protein.RotatedAtoms>
  150.6968  134.1628  159.4182 H   0  0  0  0  0  0  0  0  0  0  0  0  # atno 6907 bound_to 6896
  151.9608  135.0122  160.0557 H   0  0  0  0  0  0  0  0  0  0  0  0  # atno 6908 bound_to 6896
  152.1928  133.4750  159.5054 H   0  0  0  0  0  0  0  0  0  0  0  0  # atno 6909 bound_to 6896
  146.2432  140.1186  142.8341 H   0  0  0  0  0  0  0  0  0  0  0  0  # atno 7974 bound_to 7965
  154.8033  140.2856  155.5905 H   0  0  0  0  0  0  0  0  0  0  0  0  # atno 8008 bound_to 7997
  156.2980  140.2582  156.2836 H   0  0  0  0  0  0  0  0  0  0  0  0  # atno 8009 bound_to 7997
  154.9532  140.0379  157.2144 H   0  0  0  0  0  0  0  0  0  0  0  0  # atno 8010 bound_to 7997
  140.2094  144.3905  150.6495 H   0  0  0  0  0  0  0  0  0  0  0  0  # atno 10167 bound_to 10162
  157.5175  131.1098  150.9202 H   0  0  0  0  0  0  0  0  0  0  0  0  # atno 10718 bound_to 10713
  152.9906  135.6159  154.2799 H   0  0  0  0  0  0  0  0  0  0  0  0  # atno 10763 bound_to 10752
  154.2529  135.2785  155.2811 H   0  0  0  0  0  0  0  0  0  0  0  0  # atno 10764 bound_to 10752
  154.5273  135.5798  153.6787 H   0  0  0  0  0  0  0  0  0  0  0  0  # atno 10765 bound_to 10752
  140.1328  134.4684  155.8508 H   0  0  0  0  0  0  0  0  0  0  0  0  # atno 11005 bound_to 11000
  145.0425  140.8956  143.5044 LP  0  0  0  0  0  0  0  0  0  0  0  0  # atno 17320 bound_to 7965
  145.1270  139.2657  143.5559 LP  0  0  0  0  0  0  0  0  0  0  0  0  # atno 17321 bound_to 7965
  140.6334  143.2191  151.6447 LP  0  0  0  0  0  0  0  0  0  0  0  0  # atno 17342 bound_to 10162
  139.5186  144.3280  152.0852 LP  0  0  0  0  0  0  0  0  0  0  0  0  # atno 17343 bound_to 10162
  156.9823  130.5532  149.5297 LP  0  0  0  0  0  0  0  0  0  0  0  0  # atno 17370 bound_to 10713
  156.0330  130.5420  150.8584 LP  0  0  0  0  0  0  0  0  0  0  0  0  # atno 17371 bound_to 10713
  141.2173  133.6802  156.7101 LP  0  0  0  0  0  0  0  0  0  0  0  0  # atno 17394 bound_to 11000
  140.2821  134.8308  157.3942 LP  0  0  0  0  0  0  0  0  0  0  0  0  # atno 17395 bound_to 11000

$$$$
