AV-unprocessed.smi:3347|AV-procd|sdf|12911|dock7
  -GOLD-   2272019323D 1   1.00000     0.00000
 Structure written by MMmdl.
 40 42  0  0  0  0  0  0  0  0  2 V2000
  145.1294  137.8802  152.7332 O   0  0  0  0  0  0  0  0  0  0  0  0
  146.2123  137.3083  152.6146 C   0  0  0  0  0  0  0  0  0  0  0  0
  146.3383  136.0661  152.1258 N   0  0  0  0  0  0  0  0  0  0  0  0
  145.2443  135.2343  151.6332 C   0  0  0  0  0  0  0  0  0  0  0  0
  145.7407  133.8817  151.0876 C   0  0  2  0  0  0  0  0  0  0  0  0
  144.6284  133.0087  150.5101 C   0  0  0  0  0  0  0  0  0  0  0  0
  145.2044  131.5879  150.5438 C   0  0  0  0  0  0  0  0  0  0  0  0
  146.3173  131.6013  151.5217 N   0  3  2  0  0  0  0  0  0  0  0  0
  146.2705  130.5019  152.5090 C   0  0  0  0  0  0  0  0  0  0  0  0
  147.0454  129.2772  152.0854 C   0  0  0  0  0  0  0  0  0  0  0  0
  145.5332  129.2795  152.0173 C   0  0  0  0  0  0  0  0  0  0  0  0
  146.3648  132.9478  152.1273 C   0  0  0  0  0  0  0  0  0  0  0  0
  147.4109  137.8199  152.9445 N   0  0  0  0  0  0  0  0  0  0  0  0
  147.7359  139.1070  153.4559 C   0  0  0  0  0  0  0  0  0  0  0  0
  148.9350  139.4324  154.1370 C   0  0  0  0  0  0  0  0  0  0  0  0
  149.1250  140.7537  154.5862 C   0  0  0  0  0  0  0  0  0  0  0  0
  148.1149  141.7024  154.3366 C   0  0  0  0  0  0  0  0  0  0  0  0
  146.9712  141.4095  153.6836 N   0  0  0  0  0  0  0  0  0  0  0  0
  146.7960  140.1411  153.2563 C   0  0  0  0  0  0  0  0  0  0  0  0
  147.2674  135.6757  152.0632 H   0  0  0  0  0  0  0  0  0  0  0  0
  144.4925  135.0846  152.4103 H   0  0  0  0  0  0  0  0  0  0  0  0
  144.7479  135.7860  150.8344 H   0  0  0  0  0  0  0  0  0  0  0  0
  146.4745  134.0619  150.2999 H   0  0  0  0  0  0  0  0  0  0  0  0
  143.7461  133.0571  151.1506 H   0  0  0  0  0  0  0  0  0  0  0  0
  144.3275  133.3163  149.5080 H   0  0  0  0  0  0  0  0  0  0  0  0
  144.4334  130.8595  150.8003 H   0  0  0  0  0  0  0  0  0  0  0  0
  145.6076  131.3108  149.5694 H   0  0  0  0  0  0  0  0  0  0  0  0
  146.2233  130.7915  153.5574 H   0  0  0  0  0  0  0  0  0  0  0  0
  147.5912  129.3125  151.1443 H   0  0  0  0  0  0  0  0  0  0  0  0
  147.5084  128.6812  152.8693 H   0  0  0  0  0  0  0  0  0  0  0  0
  145.0004  128.6841  152.7560 H   0  0  0  0  0  0  0  0  0  0  0  0
  145.0739  129.3163  151.0310 H   0  0  0  0  0  0  0  0  0  0  0  0
  147.3856  133.2291  152.3880 H   0  0  0  0  0  0  0  0  0  0  0  0
  145.7691  132.9593  153.0418 H   0  0  0  0  0  0  0  0  0  0  0  0
  148.2051  137.2240  152.7623 H   0  0  0  0  0  0  0  0  0  0  0  0
  149.7143  138.7109  154.3217 H   0  0  0  0  0  0  0  0  0  0  0  0
  150.0271  141.0340  155.1096 H   0  0  0  0  0  0  0  0  0  0  0  0
  148.2296  142.7238  154.6681 H   0  0  0  0  0  0  0  0  0  0  0  0
  145.8692  139.9447  152.7370 H   0  0  0  0  0  0  0  0  0  0  0  0
  147.1669  131.4941  150.9864 H   0  0  0  0  0  0  0  0  0  0  0  0
  1  2  2  0  0  0  0
  2  3  1  0  0  0  0
  2 13  1  0  0  0  0
  3  4  1  0  0  0  0
  3 20  1  0  0  0  0
  4  5  1  0  0  0  0
  4 21  1  0  0  0  0
  4 22  1  0  0  0  0
  5 12  1  0  0  0  0
  5  6  1  0  0  0  0
  5 23  1  0  0  0  0
  6  7  1  0  0  0  0
  6 24  1  0  0  0  0
  6 25  1  0  0  0  0
  7  8  1  0  0  0  0
  7 26  1  0  0  0  0
  7 27  1  0  0  0  0
  8  9  1  0  0  0  0
  8 12  1  0  0  0  0
  8 40  1  0  0  0  0
  9 11  1  0  0  0  0
  9 10  1  0  0  0  0
  9 28  1  0  0  0  0
 10 11  1  0  0  0  0
 10 29  1  0  0  0  0
 10 30  1  0  0  0  0
 11 31  1  0  0  0  0
 11 32  1  0  0  0  0
 12 33  1  0  0  0  0
 12 34  1  0  0  0  0
 13 14  1  0  0  0  0
 13 35  1  0  0  0  0
 14 19  1  0  0  0  0
 14 15  2  0  0  0  0
 15 16  1  0  0  0  0
 15 36  1  0  0  0  0
 16 17  2  0  0  0  0
 16 37  1  0  0  0  0
 17 18  1  0  0  0  0
 17 38  1  0  0  0  0
 18 19  2  0  0  0  0
 19 39  1  0  0  0  0
M  CHG  1   8   1
M  END
> <s_m_source_file>
AV-unprocessed.smi

> <i_m_source_file_index>
3347

> <i_lp_mmshare_version>
43012

> <i_f3d_flags>
0

> <s_epik_input>
W2NIXTFuW2NIXVtjSF1bY0hdYzFbTkhdQyg9TylbTkhdW0NIMl1bQ0BASF0yW0NIMl1bQ0gyXU4oW0NIMl0yKVtDSF0zW0NIMl1bQ0gyXTM=

> <s_epik_cmdline>
J2VwaWtfcHl0aG9uJywgJy1waCcsICc3LjAnLCAnLXRuJywgJzgnLCAnLW1hJywgJzIwMCcsICctbWV0YWxfYmluZGluZycsICctaW1hZScsICc8aW5maWxlLm1hZT4nLCAnLW9tYWUnLCAnPG91dGZpbGUubWFlPic=

> <r_epik_Ionization_Penalty>
0.00442629

> <r_epik_Ionization_Penalty_Charging>
0.000203384

> <r_epik_Ionization_Penalty_Neutral>
0.00422291

> <r_epik_State_Penalty>
0.00301008

> <r_epik_Charging_Adjusted_Penalty>
0.00321347

> <i_epik_Tot_Q>
1

> <i_epik_Tot_abs_Q>
1

> <r_epik_Metal_State_Penalty>
-0

> <b_epik_Metal_Only>
0

> <s_lp_Force_Field>
OPLS_2005

> <r_lp_Energy>
39.8414

> <b_lp_Chiralities_Consistent>
1

> <s_lp_Variant>
AV-unprocessed.smi:3347-1

> <Gold.Version>
5.8.1

> <Gold.Id.Protein>
6NUR|6NUR_protein|mol2

> <Gold.PLP.Fitness>
47.5920

> <Gold.PLP.PLP>
-33.8296

> <Gold.PLP.part.hbond>
-2.7825

> <Gold.PLP.part.metal>
0.0000

> <Gold.PLP.part.buried>
-1.8038

> <Gold.PLP.part.nonpolar>
-30.4480

> <Gold.PLP.part.repulsive>
1.3345

> <Gold.PLP.ligand.clash>
0.0000

> <Gold.PLP.ligand.torsion>
0.9722

> <Gold.PLP.Chemscore.Hbond>
2.8160

> <Gold.PLP.Chemscore.CHOScore>
2.0000

> <Gold.PLP.Chemscore.Metal>
0.0000

> <Gold.Chemscore.Hbonds>
donor molecule, donor type, donor heavy atom, donor atom, acceptor molecule, acceptor atom, score
      L1  H     3    20       P1  7948  0.80
      L1  H     8    40       P1 10747  0.96
      L1  H    13    35       P1  7948  0.99
      L1  C    17    38       P1  8028  1.00
      L1  C    19    39       P1 10175  1.00

> <Gold.PLP.Chemscore.Internal.Correction>
1.2589

> <Gold.Rescore>
     Score         DG    S(hbond)    S(metal)    S(lipo)     H(rot)  DE(clash)    DE(int)     intcor
     18.86     -22.42       2.76        0.00      97.24       1.42       1.24       2.32       ----

> <Gold.Chemscore.Fitness>
18.8551

> <Gold.Chemscore.DG>
-22.4195

> <Gold.Chemscore.ZeroCoef>
-5.4800

> <Gold.Chemscore.Hbond>
2.7554

> <Gold.Chemscore.Metal>
0.0000

> <Gold.Chemscore.Lipo>
97.2364

> <Gold.Chemscore.Internal_Hbond>
0.0000

> <Gold.Chemscore.DEClash>
1.2421

> <Gold.Chemscore.DEInternal>
2.3223

> <Gold.Chemscore.Rot>
1.4219

> <Gold.Chemscore.Internal.Correction>
   9.000000E+99

> <Gold.Chemscore.Hbonds>
donor molecule, donor type, donor heavy atom, donor atom, acceptor molecule, acceptor atom, score
      L1  H     3    20       P1  7948  0.80
      L1  H     8    40       P1 10747  0.91
      L1  H    13    35       P1  7948  0.87

> <Gold.Chemscore.Hbond.Weighted>
-9.2030

> <Gold.Chemscore.Metal.Weighted>
-0.0000

> <Gold.Chemscore.Lipo.Weighted>
-11.3767

> <Gold.Chemscore.Internal_Hbond.Weighted>
0.0000

> <Gold.Chemscore.DEClash.Weighted>
1.2421

> <Gold.Chemscore.DEInternal.Weighted>
2.3223

> <Gold.Chemscore.Rot.Weighted>
3.6401

> <Gold.Chemscore.Internal.Correction.Weighted>
   9.000000E+99

> <Gold.Protein.RotatedTorsions>
[ 6907 6896 6895 6894 ] final   20.78 input  -60.11 | X-H torsion
[ 7974 7965 7964 7962 ] final  -12.88 input  175.53 | X-H torsion
[ 8008 7997 7996 7995 ] final  153.69 input   59.86 | X-H torsion
[ 10167 10162 10161 10158 ] final  110.47 input  -65.29 | X-H torsion
[ 10718 10713 10712 10709 ] final  -26.63 input   66.30 | X-H torsion
[ 10763 10752 10751 10750 ] final  123.53 input  -60.55 | X-H torsion
[ 11005 11000 10999 10996 ] final  -40.53 input  -57.11 | X-H torsion

> <Gold.Protein.ActiveResidues>
 VAL166  LYS551  ARG553  GLY616  TRP617  ASP618  TYR619  PRO620  LYS621  CYS622 
 ASP623  PHE694  ASN695  SER759  ASP760  ASP761  ALA762  ILE779  LEU786  VAL792 
 PHE793  MET794  SER795  GLU796  ALA797  LYS798  CYS799  TRP800  GLU811  SER814 

> <Gold.Protein.RotatedAtoms>
  151.9016  135.0376  160.0506 H   0  0  0  0  0  0  0  0  0  0  0  0  # atno 6907 bound_to 6896
  152.2353  133.5087  159.5247 H   0  0  0  0  0  0  0  0  0  0  0  0  # atno 6908 bound_to 6896
  150.7037  134.1078  159.4031 H   0  0  0  0  0  0  0  0  0  0  0  0  # atno 6909 bound_to 6896
  146.2135  140.3122  142.8383 H   0  0  0  0  0  0  0  0  0  0  0  0  # atno 7974 bound_to 7965
  156.2569  140.1987  156.6530 H   0  0  0  0  0  0  0  0  0  0  0  0  # atno 8008 bound_to 7997
  154.6522  140.0570  156.9994 H   0  0  0  0  0  0  0  0  0  0  0  0  # atno 8009 bound_to 7997
  155.1401  140.3242  155.4457 H   0  0  0  0  0  0  0  0  0  0  0  0  # atno 8010 bound_to 7997
  139.6686  144.7126  151.1730 H   0  0  0  0  0  0  0  0  0  0  0  0  # atno 10167 bound_to 10162
  156.4487  130.4479  149.7004 H   0  0  0  0  0  0  0  0  0  0  0  0  # atno 10718 bound_to 10713
  153.6469  135.3369  155.3088 H   0  0  0  0  0  0  0  0  0  0  0  0  # atno 10763 bound_to 10752
  154.8546  135.4332  154.1945 H   0  0  0  0  0  0  0  0  0  0  0  0  # atno 10764 bound_to 10752
  153.2878  135.7014  153.7397 H   0  0  0  0  0  0  0  0  0  0  0  0  # atno 10765 bound_to 10752
  141.0181  133.6875  156.2334 H   0  0  0  0  0  0  0  0  0  0  0  0  # atno 11005 bound_to 11000
  144.8980  140.7607  143.5885 LP  0  0  0  0  0  0  0  0  0  0  0  0  # atno 17320 bound_to 7965
  145.3047  139.1838  143.4671 LP  0  0  0  0  0  0  0  0  0  0  0  0  # atno 17321 bound_to 7965
  140.7609  143.5880  150.8825 LP  0  0  0  0  0  0  0  0  0  0  0  0  # atno 17342 bound_to 10162
  139.9544  143.6235  152.3020 LP  0  0  0  0  0  0  0  0  0  0  0  0  # atno 17343 bound_to 10162
  156.3839  130.7593  151.2588 LP  0  0  0  0  0  0  0  0  0  0  0  0  # atno 17370 bound_to 10713
  157.7504  131.0287  150.4062 LP  0  0  0  0  0  0  0  0  0  0  0  0  # atno 17371 bound_to 10713
  140.6619  134.4958  157.5584 LP  0  0  0  0  0  0  0  0  0  0  0  0  # atno 17394 bound_to 11000
  139.9129  134.8306  156.1464 LP  0  0  0  0  0  0  0  0  0  0  0  0  # atno 17395 bound_to 11000

$$$$
