AV-unprocessed.smi:1079|AV-procd|sdf|4705|dock10
  -GOLD-   22720 3233D 1   1.00000     0.00000
 Structure written by MMmdl.
 43 44  0  0  0  0  0  0  0  0  2 V2000
  146.7157  136.3605  162.1538 C   0  0  0  0  0  0  0  0  0  0  0  0
  147.1063  136.7538  160.8507 O   0  0  0  0  0  0  0  0  0  0  0  0
  146.8238  135.7629  159.8761 C   0  0  0  0  0  0  0  0  0  0  0  0
  146.9008  136.3787  158.4687 C   0  0  0  0  0  0  0  0  0  0  0  0
  148.2716  136.8274  158.1380 N   0  0  0  0  0  0  0  0  0  0  0  0
  148.4772  138.1482  157.6547 C   0  0  0  0  0  0  0  0  0  0  0  0
  147.3817  138.9815  157.4789 N   0  0  0  0  0  0  0  0  0  0  0  0
  149.7313  138.5702  157.3383 C   0  0  0  0  0  0  0  0  0  0  0  0
  149.9881  139.8840  156.8958 N   0  0  0  0  0  0  0  0  0  0  0  0
  149.5955  140.9856  157.7908 C   0  0  0  0  0  0  0  0  0  0  0  0
  150.7761  141.7399  158.3829 C   0  0  0  0  0  0  0  0  0  0  0  0
  150.9890  143.0958  158.0555 C   0  0  0  0  0  0  0  0  0  0  0  0
  152.0786  143.7962  158.6078 C   0  0  0  0  0  0  0  0  0  0  0  0
  152.9630  143.1427  159.4874 C   0  0  0  0  0  0  0  0  0  0  0  0
  152.7570  141.7886  159.8143 C   0  0  0  0  0  0  0  0  0  0  0  0
  151.6665  141.0884  159.2627 C   0  0  0  0  0  0  0  0  0  0  0  0
  150.4648  140.1470  155.6500 C   0  0  0  0  0  0  0  0  0  0  0  0
  150.7134  138.9913  154.6725 C   0  0  0  0  0  0  0  0  0  0  0  0
  150.6800  141.2924  155.2511 O   0  0  0  0  0  0  0  0  0  0  0  0
  150.8588  137.6500  157.5377 C   0  0  0  0  0  0  0  0  0  0  0  0
  152.0099  138.0190  157.3047 O   0  0  0  0  0  0  0  0  0  0  0  0
  150.5817  136.3970  157.9845 N   0  5  0  0  0  0  0  0  0  0  0  0
  149.3236  135.9639  158.2807 C   0  0  0  0  0  0  0  0  0  0  0  0
  149.1117  134.8152  158.6724 O   0  0  0  0  0  0  0  0  0  0  0  0
  146.9528  137.1542  162.8619 H   0  0  0  0  0  0  0  0  0  0  0  0
  147.2433  135.4591  162.4680 H   0  0  0  0  0  0  0  0  0  0  0  0
  145.6419  136.1746  162.2043 H   0  0  0  0  0  0  0  0  0  0  0  0
  147.5542  134.9571  159.9594 H   0  0  0  0  0  0  0  0  0  0  0  0
  145.8400  135.3242  160.0501 H   0  0  0  0  0  0  0  0  0  0  0  0
  146.5037  135.6798  157.7332 H   0  0  0  0  0  0  0  0  0  0  0  0
  146.2086  137.2204  158.4123 H   0  0  0  0  0  0  0  0  0  0  0  0
  146.4454  138.6667  157.6876 H   0  0  0  0  0  0  0  0  0  0  0  0
  147.5007  139.9796  157.3797 H   0  0  0  0  0  0  0  0  0  0  0  0
  148.9365  141.6760  157.2612 H   0  0  0  0  0  0  0  0  0  0  0  0
  149.0038  140.6057  158.6253 H   0  0  0  0  0  0  0  0  0  0  0  0
  150.3164  143.6026  157.3795 H   0  0  0  0  0  0  0  0  0  0  0  0
  152.2349  144.8349  158.3566 H   0  0  0  0  0  0  0  0  0  0  0  0
  153.7987  143.6798  159.9109 H   0  0  0  0  0  0  0  0  0  0  0  0
  153.4339  141.2867  160.4897 H   0  0  0  0  0  0  0  0  0  0  0  0
  151.5122  140.0512  159.5220 H   0  0  0  0  0  0  0  0  0  0  0  0
  149.8492  138.3289  154.6151 H   0  0  0  0  0  0  0  0  0  0  0  0
  151.5844  138.4092  154.9734 H   0  0  0  0  0  0  0  0  0  0  0  0
  150.9019  139.3748  153.6692 H   0  0  0  0  0  0  0  0  0  0  0  0
  1  2  1  0  0  0  0
  1 25  1  0  0  0  0
  1 26  1  0  0  0  0
  1 27  1  0  0  0  0
  2  3  1  0  0  0  0
  3  4  1  0  0  0  0
  3 28  1  0  0  0  0
  3 29  1  0  0  0  0
  4  5  1  0  0  0  0
  4 30  1  0  0  0  0
  4 31  1  0  0  0  0
  5 23  1  0  0  0  0
  5  6  1  0  0  0  0
  6  7  1  0  0  0  0
  6  8  2  0  0  0  0
  7 32  1  0  0  0  0
  7 33  1  0  0  0  0
  8  9  1  0  0  0  0
  8 20  1  0  0  0  0
  9 10  1  0  0  0  0
  9 17  1  0  0  0  0
 10 11  1  0  0  0  0
 10 34  1  0  0  0  0
 10 35  1  0  0  0  0
 11 16  1  0  0  0  0
 11 12  2  0  0  0  0
 12 13  1  0  0  0  0
 12 36  1  0  0  0  0
 13 14  2  0  0  0  0
 13 37  1  0  0  0  0
 14 15  1  0  0  0  0
 14 38  1  0  0  0  0
 15 16  2  0  0  0  0
 15 39  1  0  0  0  0
 16 40  1  0  0  0  0
 17 18  1  0  0  0  0
 17 19  2  0  0  0  0
 18 41  1  0  0  0  0
 18 42  1  0  0  0  0
 18 43  1  0  0  0  0
 20 21  2  0  0  0  0
 20 22  1  0  0  0  0
 22 23  1  0  0  0  0
 23 24  2  0  0  0  0
M  CHG  1  22  -1
M  END
> <s_m_source_file>
AV-unprocessed.smi

> <i_m_source_file_index>
1079

> <i_lp_mmshare_version>
43012

> <i_f3d_flags>
0

> <s_epik_input>
W0NIM11PW0NIMl1bQ0gyXW4xYyhbTkgyXSljKGMoPU8pW25IXWMxPU8pTihDKD1PKVtDSDNdKVtDSDJdYzJbY0hdW2NIXVtjSF1bY0hdW2NIXTI=

> <s_epik_cmdline>
J2VwaWtfcHl0aG9uJywgJy1waCcsICc3LjAnLCAnLXRuJywgJzgnLCAnLW1hJywgJzIwMCcsICctbWV0YWxfYmluZGluZycsICctaW1hZScsICc8aW5maWxlLm1hZT4nLCAnLW9tYWUnLCAnPG91dGZpbGUubWFlPic=

> <r_lp_tautomer_probability>
1

> <r_epik_Ionization_Penalty>
7.02899

> <r_epik_Ionization_Penalty_Charging>
0.353543

> <r_epik_Ionization_Penalty_Neutral>
6.67545

> <r_epik_State_Penalty>
6.67544

> <r_epik_Charging_Adjusted_Penalty>
7.02899

> <i_epik_Tot_Q>
-1

> <i_epik_Tot_abs_Q>
1

> <r_epik_Metal_State_Penalty>
2.59023

> <b_epik_Metal_Only>
1

> <s_epik_Chemistry_Notes>
This compound has an imine and may undergo hydrolysis.

> <s_lp_Force_Field>
OPLS_2005

> <r_lp_Energy>
37.6248

> <b_lp_Chiralities_Consistent>
1

> <s_lp_Variant>
AV-unprocessed.smi:1079-2

> <Gold.Version>
5.8.1

> <Gold.Id.Protein>
6NUR|6NUR_protein|mol2

> <Gold.PLP.Fitness>
46.1193

> <Gold.PLP.PLP>
-38.2087

> <Gold.PLP.part.hbond>
-4.5772

> <Gold.PLP.part.metal>
0.0000

> <Gold.PLP.part.buried>
-3.8405

> <Gold.PLP.part.nonpolar>
-31.0290

> <Gold.PLP.part.repulsive>
0.2270

> <Gold.PLP.ligand.clash>
0.0000

> <Gold.PLP.ligand.torsion>
1.4731

> <Gold.PLP.Chemscore.Hbond>
2.9021

> <Gold.PLP.Chemscore.CHOScore>
0.0000

> <Gold.PLP.Chemscore.Metal>
0.0000

> <Gold.Chemscore.Hbonds>
donor molecule, donor type, donor heavy atom, donor atom, acceptor molecule, acceptor atom, score
      P1  H  6896  6909       L1    24  1.00
      P1  H  6934  6947       L1     2  0.41
      P1  H  7989  7998       L1    19  0.56

> <Gold.PLP.Chemscore.Internal.Correction>
2.1505

> <Gold.Rescore>
     Score         DG    S(hbond)    S(metal)    S(lipo)     H(rot)  DE(clash)    DE(int)     intcor
     13.39     -17.53       1.85        0.00      93.53       1.98       0.33       3.81       ----

> <Gold.Chemscore.Fitness>
13.3879

> <Gold.Chemscore.DG>
-17.5323

> <Gold.Chemscore.ZeroCoef>
-5.4800

> <Gold.Chemscore.Hbond>
1.8515

> <Gold.Chemscore.Metal>
0.0000

> <Gold.Chemscore.Lipo>
93.5325

> <Gold.Chemscore.Internal_Hbond>
0.0000

> <Gold.Chemscore.DEClash>
0.3313

> <Gold.Chemscore.DEInternal>
3.8131

> <Gold.Chemscore.Rot>
1.9824

> <Gold.Chemscore.Internal.Correction>
   9.000000E+99

> <Gold.Chemscore.Hbonds>
donor molecule, donor type, donor heavy atom, donor atom, acceptor molecule, acceptor atom, score
      P1  H  6896  6909       L1    24  0.35
      P1  H  6934  6947       L1     2  0.20
      P1  H  7989  7998       L1    19  0.16

> <Gold.Chemscore.Hbond.Weighted>
-6.1839

> <Gold.Chemscore.Metal.Weighted>
-0.0000

> <Gold.Chemscore.Lipo.Weighted>
-10.9433

> <Gold.Chemscore.Internal_Hbond.Weighted>
0.0000

> <Gold.Chemscore.DEClash.Weighted>
0.3313

> <Gold.Chemscore.DEInternal.Weighted>
3.8131

> <Gold.Chemscore.Rot.Weighted>
5.0749

> <Gold.Chemscore.Internal.Correction.Weighted>
   9.000000E+99

> <Gold.Protein.RotatedTorsions>
[ 6907 6896 6895 6894 ] final   39.31 input  -60.11 | X-H torsion
[ 7974 7965 7964 7962 ] final  176.76 input  175.53 | X-H torsion
[ 8008 7997 7996 7995 ] final   93.38 input   59.86 | X-H torsion
[ 10167 10162 10161 10158 ] final   23.30 input  -65.29 | X-H torsion
[ 10718 10713 10712 10709 ] final  -92.80 input   66.30 | X-H torsion
[ 10763 10752 10751 10750 ] final -108.92 input  -60.55 | X-H torsion
[ 11005 11000 10999 10996 ] final  152.56 input  -57.11 | X-H torsion

> <Gold.Protein.ActiveResidues>
 VAL166  LYS551  ARG553  GLY616  TRP617  ASP618  TYR619  PRO620  LYS621  CYS622 
 ASP623  PHE694  ASN695  SER759  ASP760  ASP761  ALA762  ILE779  LEU786  VAL792 
 PHE793  MET794  SER795  GLU796  ALA797  LYS798  CYS799  TRP800  GLU811  SER814 

> <Gold.Protein.RotatedAtoms>
  152.1679  134.8858  160.0536 H   0  0  0  0  0  0  0  0  0  0  0  0  # atno 6907 bound_to 6896
  151.9830  133.3759  159.4123 H   0  0  0  0  0  0  0  0  0  0  0  0  # atno 6908 bound_to 6896
  150.6897  134.3941  159.5133 H   0  0  0  0  0  0  0  0  0  0  0  0  # atno 6909 bound_to 6896
  144.7179  140.0145  143.6440 H   0  0  0  0  0  0  0  0  0  0  0  0  # atno 7974 bound_to 7965
  156.0460  140.3313  155.7297 H   0  0  0  0  0  0  0  0  0  0  0  0  # atno 8008 bound_to 7997
  155.5672  140.0624  157.2832 H   0  0  0  0  0  0  0  0  0  0  0  0  # atno 8009 bound_to 7997
  154.4414  140.1867  156.0831 H   0  0  0  0  0  0  0  0  0  0  0  0  # atno 8010 bound_to 7997
  140.5280  143.9890  150.6450 H   0  0  0  0  0  0  0  0  0  0  0  0  # atno 10167 bound_to 10162
  156.0006  130.5001  150.5681 H   0  0  0  0  0  0  0  0  0  0  0  0  # atno 10718 bound_to 10713
  154.8163  135.4620  154.0653 H   0  0  0  0  0  0  0  0  0  0  0  0  # atno 10763 bound_to 10752
  153.2043  135.6873  153.8198 H   0  0  0  0  0  0  0  0  0  0  0  0  # atno 10764 bound_to 10752
  153.7672  135.3275  155.3323 H   0  0  0  0  0  0  0  0  0  0  0  0  # atno 10765 bound_to 10752
  140.1319  134.8796  157.2215 H   0  0  0  0  0  0  0  0  0  0  0  0  # atno 11005 bound_to 11000
  146.0231  139.3268  143.0801 LP  0  0  0  0  0  0  0  0  0  0  0  0  # atno 17320 bound_to 7965
  145.8544  140.9510  143.0732 LP  0  0  0  0  0  0  0  0  0  0  0  0  # atno 17321 bound_to 7965
  140.3257  143.3109  152.0738 LP  0  0  0  0  0  0  0  0  0  0  0  0  # atno 17342 bound_to 10162
  139.4944  144.6543  151.6606 LP  0  0  0  0  0  0  0  0  0  0  0  0  # atno 17343 bound_to 10162
  157.3580  131.0745  151.1660 LP  0  0  0  0  0  0  0  0  0  0  0  0  # atno 17370 bound_to 10713
  157.2454  130.6589  149.5908 LP  0  0  0  0  0  0  0  0  0  0  0  0  # atno 17371 bound_to 10713
  140.2831  134.3326  155.7337 LP  0  0  0  0  0  0  0  0  0  0  0  0  # atno 17394 bound_to 11000
  141.2171  133.7490  156.9394 LP  0  0  0  0  0  0  0  0  0  0  0  0  # atno 17395 bound_to 11000

$$$$
