AV-unprocessed.smi:2063|AV-procd|sdf|8410|dock4
  -GOLD-   2272011103D 1   1.00000     0.00000
 Structure written by MMmdl.
 39 40  0  0  0  0  0  0  0  0  1 V2000
  151.6576  140.1310  158.9324 C   0  0  0  0  0  0  0  0  0  0  0  0
  151.5597  140.2497  157.4043 C   0  0  0  0  0  0  0  0  0  0  0  0
  150.5744  141.3346  156.9459 C   0  0  0  0  0  0  0  0  0  0  0  0
  151.2890  138.9296  156.7521 C   0  0  0  0  0  0  0  0  0  0  0  0
  152.1395  137.8962  156.8168 N   0  0  0  0  0  0  0  0  0  0  0  0
  151.6708  136.7825  156.1350 N   0  0  0  0  0  0  0  0  0  0  0  0
  150.4755  137.0070  155.5730 C   0  0  0  0  0  0  0  0  0  0  0  0
  149.7646  136.0383  154.8162 N   0  0  0  0  0  0  0  0  0  0  0  0
  149.3519  134.8180  155.2015 C   0  0  0  0  0  0  0  0  0  0  0  0
  149.5364  134.3230  156.3138 O   0  0  0  0  0  0  0  0  0  0  0  0
  148.7024  134.1920  154.2087 N   0  0  0  0  0  0  0  0  0  0  0  0
  148.1137  132.8567  154.2862 C   0  0  2  0  0  0  0  0  0  0  0  0
  149.1866  131.8796  154.7914 C   0  0  0  0  0  0  0  0  0  0  0  0
  147.5543  132.4472  152.9076 C   0  0  1  0  0  0  0  0  0  0  0  0
  146.7189  131.1662  152.9101 C   0  0  0  0  0  0  0  0  0  0  0  0
  145.8250  131.3192  151.6896 C   0  0  0  0  0  0  0  0  0  0  0  0
  145.9077  132.8101  151.3522 C   0  0  0  0  0  0  0  0  0  0  0  0
  146.6133  133.3992  152.4351 O   0  0  0  0  0  0  0  0  0  0  0  0
  149.8192  138.6134  155.8359 S   0  0  0  0  0  0  0  0  0  0  0  0
  152.4247  139.4117  159.2213 H   0  0  0  0  0  0  0  0  0  0  0  0
  150.7128  139.8033  159.3672 H   0  0  0  0  0  0  0  0  0  0  0  0
  151.9160  141.0888  159.3846 H   0  0  0  0  0  0  0  0  0  0  0  0
  152.5448  140.5664  157.0590 H   0  0  0  0  0  0  0  0  0  0  0  0
  150.5970  141.4516  155.8618 H   0  0  0  0  0  0  0  0  0  0  0  0
  150.8207  142.3006  157.3872 H   0  0  0  0  0  0  0  0  0  0  0  0
  149.5515  141.0894  157.2340 H   0  0  0  0  0  0  0  0  0  0  0  0
  149.5442  136.3065  153.8686 H   0  0  0  0  0  0  0  0  0  0  0  0
  148.5982  134.6793  153.3310 H   0  0  0  0  0  0  0  0  0  0  0  0
  147.2991  132.8572  155.0128 H   0  0  0  0  0  0  0  0  0  0  0  0
  148.7801  130.8772  154.9265 H   0  0  0  0  0  0  0  0  0  0  0  0
  149.5855  132.1991  155.7547 H   0  0  0  0  0  0  0  0  0  0  0  0
  150.0208  131.8092  154.0925 H   0  0  0  0  0  0  0  0  0  0  0  0
  148.3630  132.3606  152.1787 H   0  0  0  0  0  0  0  0  0  0  0  0
  147.3290  130.2632  152.8754 H   0  0  0  0  0  0  0  0  0  0  0  0
  146.1023  131.1216  153.8091 H   0  0  0  0  0  0  0  0  0  0  0  0
  146.1862  130.7178  150.8546 H   0  0  0  0  0  0  0  0  0  0  0  0
  144.8033  131.0085  151.9108 H   0  0  0  0  0  0  0  0  0  0  0  0
  146.4707  132.9644  150.4307 H   0  0  0  0  0  0  0  0  0  0  0  0
  144.9255  133.2677  151.2319 H   0  0  0  0  0  0  0  0  0  0  0  0
  1  2  1  0  0  0  0
  1 20  1  0  0  0  0
  1 21  1  0  0  0  0
  1 22  1  0  0  0  0
  2  3  1  0  0  0  0
  2  4  1  0  0  0  0
  2 23  1  0  0  0  0
  3 24  1  0  0  0  0
  3 25  1  0  0  0  0
  3 26  1  0  0  0  0
  4 19  1  0  0  0  0
  4  5  2  0  0  0  0
  5  6  1  0  0  0  0
  6  7  2  0  0  0  0
  7  8  1  0  0  0  0
  7 19  1  0  0  0  0
  8  9  1  0  0  0  0
  8 27  1  0  0  0  0
  9 10  2  0  0  0  0
  9 11  1  0  0  0  0
 11 12  1  0  0  0  0
 11 28  1  0  0  0  0
 12 13  1  0  0  0  0
 12 14  1  0  0  0  0
 12 29  1  0  0  0  0
 13 30  1  0  0  0  0
 13 31  1  0  0  0  0
 13 32  1  0  0  0  0
 14 18  1  0  0  0  0
 14 15  1  0  0  0  0
 14 33  1  0  0  0  0
 15 16  1  0  0  0  0
 15 34  1  0  0  0  0
 15 35  1  0  0  0  0
 16 17  1  0  0  0  0
 16 36  1  0  0  0  0
 16 37  1  0  0  0  0
 17 18  1  0  0  0  0
 17 38  1  0  0  0  0
 17 39  1  0  0  0  0
M  END
> <s_m_source_file>
AV-unprocessed.smi

> <i_m_source_file_index>
2063

> <i_lp_mmshare_version>
43012

> <i_f3d_flags>
0

> <s_epik_input>
W0NIM11bQ0hdKFtDSDNdKWMxbm5jKHMxKVtOSF1DKD1PKVtOSF1bQ0BIXShbQ0gzXSlbQ0BASF0yW0NIMl1bQ0gyXVtDSDJdTzI=

> <s_epik_cmdline>
J2VwaWtfcHl0aG9uJywgJy1waCcsICc3LjAnLCAnLXRuJywgJzgnLCAnLW1hJywgJzIwMCcsICctbWV0YWxfYmluZGluZycsICctaW1hZScsICc8aW5maWxlLm1hZT4nLCAnLW9tYWUnLCAnPG91dGZpbGUubWFlPic=

> <r_lp_tautomer_probability>
1

> <r_epik_Ionization_Penalty>
0.00050567

> <r_epik_Ionization_Penalty_Charging>
0

> <r_epik_Ionization_Penalty_Neutral>
0.00050567

> <r_epik_State_Penalty>
-0

> <r_epik_Charging_Adjusted_Penalty>
0

> <i_epik_Tot_Q>
0

> <i_epik_Tot_abs_Q>
0

> <r_epik_Metal_State_Penalty>
0.219912

> <b_epik_Metal_Only>
0

> <s_lp_Force_Field>
OPLS_2005

> <r_lp_Energy>
10.8912

> <b_lp_Chiralities_Consistent>
1

> <s_lp_Variant>
AV-unprocessed.smi:2063-3

> <Gold.Version>
5.8.1

> <Gold.Id.Protein>
6NUR|6NUR_protein|mol2

> <Gold.PLP.Fitness>
38.0633

> <Gold.PLP.PLP>
-30.4685

> <Gold.PLP.part.hbond>
-3.6224

> <Gold.PLP.part.metal>
0.0000

> <Gold.PLP.part.buried>
-4.7607

> <Gold.PLP.part.nonpolar>
-23.4172

> <Gold.PLP.part.repulsive>
0.2500

> <Gold.PLP.ligand.clash>
0.0000

> <Gold.PLP.ligand.torsion>
0.7525

> <Gold.PLP.Chemscore.Hbond>
3.0000

> <Gold.PLP.Chemscore.CHOScore>
0.0000

> <Gold.PLP.Chemscore.Metal>
0.0000

> <Gold.Chemscore.Hbonds>
donor molecule, donor type, donor heavy atom, donor atom, acceptor molecule, acceptor atom, score
      L1  H     8    27       P1  7948  0.91
      L1  H    11    28       P1  7948  0.75
      P1  H 10752 10765       L1     6  0.44

> <Gold.PLP.Chemscore.Internal.Correction>
0.0998

> <Gold.Rescore>
     Score         DG    S(hbond)    S(metal)    S(lipo)     H(rot)  DE(clash)    DE(int)     intcor
     15.16     -17.17       2.54        0.00      58.30       1.42       0.00       2.01       ----

> <Gold.Chemscore.Fitness>
15.1611

> <Gold.Chemscore.DG>
-17.1707

> <Gold.Chemscore.ZeroCoef>
-5.4800

> <Gold.Chemscore.Hbond>
2.5425

> <Gold.Chemscore.Metal>
0.0000

> <Gold.Chemscore.Lipo>
58.3040

> <Gold.Chemscore.Internal_Hbond>
0.0000

> <Gold.Chemscore.DEClash>
0.0000

> <Gold.Chemscore.DEInternal>
2.0096

> <Gold.Chemscore.Rot>
1.4152

> <Gold.Chemscore.Internal.Correction>
   9.000000E+99

> <Gold.Chemscore.Hbonds>
donor molecule, donor type, donor heavy atom, donor atom, acceptor molecule, acceptor atom, score
      L1  H     8    27       P1  7948  0.58
      L1  H    11    28       P1  7948  0.33
      P1  H 10752 10765       L1     6  0.35

> <Gold.Chemscore.Hbond.Weighted>
-8.4921

> <Gold.Chemscore.Metal.Weighted>
-0.0000

> <Gold.Chemscore.Lipo.Weighted>
-6.8216

> <Gold.Chemscore.Internal_Hbond.Weighted>
0.0000

> <Gold.Chemscore.DEClash.Weighted>
0.0000

> <Gold.Chemscore.DEInternal.Weighted>
2.0096

> <Gold.Chemscore.Rot.Weighted>
3.6229

> <Gold.Chemscore.Internal.Correction.Weighted>
   9.000000E+99

> <Gold.Protein.RotatedTorsions>
[ 6907 6896 6895 6894 ] final  -29.30 input  -60.11 | X-H torsion
[ 7974 7965 7964 7962 ] final  121.91 input  175.53 | X-H torsion
[ 8008 7997 7996 7995 ] final   34.67 input   59.86 | X-H torsion
[ 10167 10162 10161 10158 ] final  -88.99 input  -65.29 | X-H torsion
[ 10718 10713 10712 10709 ] final  -81.94 input   66.30 | X-H torsion
[ 10763 10752 10751 10750 ] final -169.63 input  -60.55 | X-H torsion
[ 11005 11000 10999 10996 ] final  139.15 input  -57.11 | X-H torsion

> <Gold.Protein.ActiveResidues>
 VAL166  LYS551  ARG553  GLY616  TRP617  ASP618  TYR619  PRO620  LYS621  CYS622 
 ASP623  PHE694  ASN695  SER759  ASP760  ASP761  ALA762  ILE779  LEU786  VAL792 
 PHE793  MET794  SER795  GLU796  ALA797  LYS798  CYS799  TRP800  GLU811  SER814 

> <Gold.Protein.RotatedAtoms>
  151.1211  135.0080  159.8538 H   0  0  0  0  0  0  0  0  0  0  0  0  # atno 6907 bound_to 6896
  152.5448  134.1721  159.8611 H   0  0  0  0  0  0  0  0  0  0  0  0  # atno 6908 bound_to 6896
  151.1779  133.4698  159.2627 H   0  0  0  0  0  0  0  0  0  0  0  0  # atno 6909 bound_to 6896
  145.1138  139.3435  143.4749 H   0  0  0  0  0  0  0  0  0  0  0  0  # atno 7974 bound_to 7965
  155.1587  140.3281  155.4416 H   0  0  0  0  0  0  0  0  0  0  0  0  # atno 8008 bound_to 7997
  156.2550  140.1964  156.6645 H   0  0  0  0  0  0  0  0  0  0  0  0  # atno 8009 bound_to 7997
  154.6421  140.0569  156.9844 H   0  0  0  0  0  0  0  0  0  0  0  0  # atno 8010 bound_to 7997
  140.3693  143.2802  151.9520 H   0  0  0  0  0  0  0  0  0  0  0  0  # atno 10167 bound_to 10162
  156.0041  130.4619  150.4030 H   0  0  0  0  0  0  0  0  0  0  0  0  # atno 10718 bound_to 10713
  154.6503  135.2910  154.9995 H   0  0  0  0  0  0  0  0  0  0  0  0  # atno 10763 bound_to 10752
  154.1091  135.6565  153.4885 H   0  0  0  0  0  0  0  0  0  0  0  0  # atno 10764 bound_to 10752
  153.0373  135.5261  154.7408 H   0  0  0  0  0  0  0  0  0  0  0  0  # atno 10765 bound_to 10752
  140.0234  134.9386  157.0520 H   0  0  0  0  0  0  0  0  0  0  0  0  # atno 11005 bound_to 11000
  146.3525  140.1068  142.8605 LP  0  0  0  0  0  0  0  0  0  0  0  0  # atno 17320 bound_to 7965
  145.0817  140.9225  143.4821 LP  0  0  0  0  0  0  0  0  0  0  0  0  # atno 17321 bound_to 7965
  139.4805  144.5922  151.7753 LP  0  0  0  0  0  0  0  0  0  0  0  0  # atno 17342 bound_to 10162
  140.5049  144.1112  150.5980 LP  0  0  0  0  0  0  0  0  0  0  0  0  # atno 17343 bound_to 10162
  157.2097  131.0457  151.2606 LP  0  0  0  0  0  0  0  0  0  0  0  0  # atno 17370 bound_to 10713
  157.3900  130.7277  149.6690 LP  0  0  0  0  0  0  0  0  0  0  0  0  # atno 17371 bound_to 10713
  140.4348  134.1743  155.7170 LP  0  0  0  0  0  0  0  0  0  0  0  0  # atno 17394 bound_to 11000
  141.1788  133.8458  157.1331 LP  0  0  0  0  0  0  0  0  0  0  0  0  # atno 17395 bound_to 11000

$$$$
