AV-unprocessed.smi:3261|AV-procd|sdf|12482|dock2
  -GOLD-   2272018383D 1   1.00000     0.00000
 Structure written by MMmdl.
 30 31  0  0  0  0  0  0  0  0  3 V2000
  154.1632  140.0029  159.0304 O   0  0  0  0  0  0  0  0  0  0  0  0
  154.1612  140.6076  160.1014 C   0  0  0  0  0  0  0  0  0  0  0  0
  153.4335  141.7471  160.2093 N   0  0  0  0  0  0  0  0  0  0  0  0
  152.6790  142.4275  159.2165 C   0  0  0  0  0  0  0  0  0  0  0  0
  151.9149  141.6453  158.3229 C   0  0  0  0  0  0  0  0  0  0  0  0
  151.1339  142.2814  157.3367 C   0  0  0  0  0  0  0  0  0  0  0  0
  151.1120  143.6296  157.2620 N   0  3  0  0  0  0  0  0  0  0  0  0
  151.8105  144.4189  158.1064 C   0  0  0  0  0  0  0  0  0  0  0  0
  152.6090  143.8395  159.1133 C   0  0  0  0  0  0  0  0  0  0  0  0
  154.8558  140.1386  161.1826 N   0  5  0  0  0  0  0  0  0  0  0  0
  155.1740  138.7497  161.5499 C   0  0  2  0  0  0  0  0  0  0  0  0
  154.1960  137.7565  160.8884 C   0  0  0  0  0  0  0  0  0  0  0  0
  154.3407  136.3920  161.5773 C   0  0  0  0  0  0  0  0  0  0  0  0
  154.7866  136.7568  163.3195 S   0  0  0  0  0  0  0  0  0  0  0  0
  153.6060  136.5742  164.1780 O   0  0  0  0  0  0  0  0  0  0  0  0
  156.0583  136.0876  163.6362 O   0  0  0  0  0  0  0  0  0  0  0  0
  155.0766  138.5522  163.0690 C   0  0  0  0  0  0  0  0  0  0  0  0
  153.3730  142.1313  161.1409 H   0  0  0  0  0  0  0  0  0  0  0  0
  151.9318  140.5668  158.3867 H   0  0  0  0  0  0  0  0  0  0  0  0
  150.5289  141.7555  156.6127 H   0  0  0  0  0  0  0  0  0  0  0  0
  151.7058  145.4835  157.9575 H   0  0  0  0  0  0  0  0  0  0  0  0
  153.1435  144.4840  159.7950 H   0  0  0  0  0  0  0  0  0  0  0  0
  156.1847  138.4712  161.2471 H   0  0  0  0  0  0  0  0  0  0  0  0
  153.1725  138.1090  161.0265 H   0  0  0  0  0  0  0  0  0  0  0  0
  154.3624  137.6777  159.8137 H   0  0  0  0  0  0  0  0  0  0  0  0
  153.4247  135.8028  161.5402 H   0  0  0  0  0  0  0  0  0  0  0  0
  155.1476  135.8062  161.1345 H   0  0  0  0  0  0  0  0  0  0  0  0
  155.9755  138.8677  163.5983 H   0  0  0  0  0  0  0  0  0  0  0  0
  154.2218  139.0874  163.4847 H   0  0  0  0  0  0  0  0  0  0  0  0
  150.5394  144.0704  156.5416 H   0  0  0  0  0  0  0  0  0  0  0  0
  1  2  2  0  0  0  0
  2  3  1  0  0  0  0
  2 10  1  0  0  0  0
  3  4  1  0  0  0  0
  3 18  1  0  0  0  0
  4  9  1  0  0  0  0
  4  5  2  0  0  0  0
  5  6  1  0  0  0  0
  5 19  1  0  0  0  0
  6  7  2  0  0  0  0
  6 20  1  0  0  0  0
  7  8  1  0  0  0  0
  7 30  1  0  0  0  0
  8  9  2  0  0  0  0
  8 21  1  0  0  0  0
  9 22  1  0  0  0  0
 10 11  1  0  0  0  0
 11 17  1  0  0  0  0
 11 12  1  0  0  0  0
 11 23  1  0  0  0  0
 12 13  1  0  0  0  0
 12 24  1  0  0  0  0
 12 25  1  0  0  0  0
 13 14  1  0  0  0  0
 13 26  1  0  0  0  0
 13 27  1  0  0  0  0
 14 15  2  0  0  0  0
 14 16  2  0  0  0  0
 14 17  1  0  0  0  0
 17 28  1  0  0  0  0
 17 29  1  0  0  0  0
M  CHG  1   7   1
M  CHG  1  10  -1
M  END
> <s_m_source_file>
AV-unprocessed.smi

> <i_m_source_file_index>
3261

> <i_lp_mmshare_version>
43012

> <i_f3d_flags>
0

> <s_epik_input>
Tz1TMSg9TylbQ0gyXVtDSDJdW0NASF0oW0NIMl0xKVtOSF1DKD1PKVtOSF1jMltjSF1bY0hdbltjSF1bY0hdMg==

> <s_epik_cmdline>
J2VwaWtfcHl0aG9uJywgJy1waCcsICc3LjAnLCAnLXRuJywgJzgnLCAnLW1hJywgJzIwMCcsICctbWV0YWxfYmluZGluZycsICctaW1hZScsICc8aW5maWxlLm1hZT4nLCAnLW9tYWUnLCAnPG91dGZpbGUubWFlPic=

> <r_epik_Ionization_Penalty>
8.1176

> <r_epik_Ionization_Penalty_Charging>
8.1176

> <r_epik_Ionization_Penalty_Neutral>
3.03687e-06

> <r_epik_State_Penalty>
7.79629

> <r_epik_Charging_Adjusted_Penalty>
15.9139

> <i_epik_Tot_Q>
0

> <i_epik_Tot_abs_Q>
2

> <r_epik_Metal_State_Penalty>
3.7997

> <b_epik_Metal_Only>
1

> <s_lp_Force_Field>
OPLS_2005

> <r_lp_Energy>
18.9878

> <b_lp_Chiralities_Consistent>
1

> <s_lp_Variant>
AV-unprocessed.smi:3261-5

> <Gold.Version>
5.8.1

> <Gold.Id.Protein>
6NUR|6NUR_protein|mol2

> <Gold.PLP.Fitness>
41.0734

> <Gold.PLP.PLP>
-33.6921

> <Gold.PLP.part.hbond>
-2.0000

> <Gold.PLP.part.metal>
0.0000

> <Gold.PLP.part.buried>
-5.2015

> <Gold.PLP.part.nonpolar>
-26.9666

> <Gold.PLP.part.repulsive>
0.1636

> <Gold.PLP.ligand.clash>
0.0000

> <Gold.PLP.ligand.torsion>
0.8125

> <Gold.PLP.Chemscore.Hbond>
3.0000

> <Gold.PLP.Chemscore.CHOScore>
0.0000

> <Gold.PLP.Chemscore.Metal>
0.0000

> <Gold.Chemscore.Hbonds>
donor molecule, donor type, donor heavy atom, donor atom, acceptor molecule, acceptor atom, score
      L1  H     7    30       P1  8028  2.00
      P1  H  7997  8010       L1     1  1.00

> <Gold.PLP.Chemscore.Internal.Correction>
0.0063

> <Gold.Rescore>
     Score         DG    S(hbond)    S(metal)    S(lipo)     H(rot)  DE(clash)    DE(int)     intcor
     15.31     -18.56       1.98        0.00      77.06       1.00       0.00       3.25       ----

> <Gold.Chemscore.Fitness>
15.3115

> <Gold.Chemscore.DG>
-18.5645

> <Gold.Chemscore.ZeroCoef>
-5.4800

> <Gold.Chemscore.Hbond>
1.9847

> <Gold.Chemscore.Metal>
0.0000

> <Gold.Chemscore.Lipo>
77.0564

> <Gold.Chemscore.Internal_Hbond>
0.0000

> <Gold.Chemscore.DEClash>
0.0000

> <Gold.Chemscore.DEInternal>
3.2530

> <Gold.Chemscore.Rot>
1.0000

> <Gold.Chemscore.Internal.Correction>
   9.000000E+99

> <Gold.Chemscore.Hbonds>
donor molecule, donor type, donor heavy atom, donor atom, acceptor molecule, acceptor atom, score
      L1  H     7    30       P1  8028  0.98
      P1  H  7997  8010       L1     1  0.96

> <Gold.Chemscore.Hbond.Weighted>
-6.6289

> <Gold.Chemscore.Metal.Weighted>
-0.0000

> <Gold.Chemscore.Lipo.Weighted>
-9.0156

> <Gold.Chemscore.Internal_Hbond.Weighted>
0.0000

> <Gold.Chemscore.DEClash.Weighted>
0.0000

> <Gold.Chemscore.DEInternal.Weighted>
3.2530

> <Gold.Chemscore.Rot.Weighted>
2.5600

> <Gold.Chemscore.Internal.Correction.Weighted>
   9.000000E+99

> <Gold.Protein.RotatedTorsions>
[ 6907 6896 6895 6894 ] final -105.97 input  -60.11 | X-H torsion
[ 7974 7965 7964 7962 ] final  -97.84 input  175.53 | X-H torsion
[ 8008 7997 7996 7995 ] final   10.42 input   59.86 | X-H torsion
[ 10167 10162 10161 10158 ] final  -77.93 input  -65.29 | X-H torsion
[ 10718 10713 10712 10709 ] final   55.63 input   66.30 | X-H torsion
[ 10763 10752 10751 10750 ] final -157.73 input  -60.55 | X-H torsion
[ 11005 11000 10999 10996 ] final  -76.02 input  -57.11 | X-H torsion

> <Gold.Protein.ActiveResidues>
 VAL166  LYS551  ARG553  GLY616  TRP617  ASP618  TYR619  PRO620  LYS621  CYS622 
 ASP623  PHE694  ASN695  SER759  ASP760  ASP761  ALA762  ILE779  LEU786  VAL792 
 PHE793  MET794  SER795  GLU796  ALA797  LYS798  CYS799  TRP800  GLU811  SER814 

> <Gold.Protein.RotatedAtoms>
  150.7364  134.0047  159.3649 H   0  0  0  0  0  0  0  0  0  0  0  0  # atno 6907 bound_to 6896
  151.8003  135.0708  160.0408 H   0  0  0  0  0  0  0  0  0  0  0  0  # atno 6908 bound_to 6896
  152.3145  133.5752  159.5739 H   0  0  0  0  0  0  0  0  0  0  0  0  # atno 6909 bound_to 6896
  145.3285  140.9436  143.2675 H   0  0  0  0  0  0  0  0  0  0  0  0  # atno 7974 bound_to 7965
  154.7931  140.2839  155.5977 H   0  0  0  0  0  0  0  0  0  0  0  0  # atno 8008 bound_to 7997
  156.2967  140.2601  156.2712 H   0  0  0  0  0  0  0  0  0  0  0  0  # atno 8009 bound_to 7997
  154.9647  140.0377  157.2196 H   0  0  0  0  0  0  0  0  0  0  0  0  # atno 8010 bound_to 7997
  140.4727  143.2422  151.8180 H   0  0  0  0  0  0  0  0  0  0  0  0  # atno 10167 bound_to 10162
  157.5362  130.8665  149.8756 H   0  0  0  0  0  0  0  0  0  0  0  0  # atno 10718 bound_to 10713
  154.7613  135.3118  154.8372 H   0  0  0  0  0  0  0  0  0  0  0  0  # atno 10763 bound_to 10752
  153.9132  135.6803  153.4754 H   0  0  0  0  0  0  0  0  0  0  0  0  # atno 10764 bound_to 10752
  153.1214  135.4821  154.9133 H   0  0  0  0  0  0  0  0  0  0  0  0  # atno 10765 bound_to 10752
  141.1650  133.6968  156.7605 H   0  0  0  0  0  0  0  0  0  0  0  0  # atno 11005 bound_to 11000
  144.8883  139.4809  143.6690 LP  0  0  0  0  0  0  0  0  0  0  0  0  # atno 17320 bound_to 7965
  146.3055  139.7565  142.9059 LP  0  0  0  0  0  0  0  0  0  0  0  0  # atno 17321 bound_to 7965
  139.4821  144.4872  151.9232 LP  0  0  0  0  0  0  0  0  0  0  0  0  # atno 17342 bound_to 10162
  140.3957  144.2558  150.5896 LP  0  0  0  0  0  0  0  0  0  0  0  0  # atno 17343 bound_to 10162
  156.0460  130.3728  150.1316 LP  0  0  0  0  0  0  0  0  0  0  0  0  # atno 17370 bound_to 10713
  156.9498  130.9771  151.3500 LP  0  0  0  0  0  0  0  0  0  0  0  0  # atno 17371 bound_to 10713
  140.2537  134.8520  157.3692 LP  0  0  0  0  0  0  0  0  0  0  0  0  # atno 17394 bound_to 11000
  140.1678  134.4647  155.7852 LP  0  0  0  0  0  0  0  0  0  0  0  0  # atno 17395 bound_to 11000

$$$$
