AV-unprocessed.smi:1738|AV-procd|sdf|7002|dock5
  -GOLD-   22720 8213D 1   1.00000     0.00000
 Structure written by MMmdl.
 46 48  0  0  0  0  0  0  0  0  2 V2000
  154.6757  136.8008  157.1089 C   0  0  0  0  0  0  0  0  0  0  0  0
  153.2625  137.4201  158.1093 S   0  0  0  0  0  0  0  0  0  0  0  0
  153.2348  136.6773  159.3790 O   0  0  0  0  0  0  0  0  0  0  0  0
  153.3332  138.8896  158.1291 O   0  0  0  0  0  0  0  0  0  0  0  0
  151.8253  136.9390  157.1582 C   0  0  0  0  0  0  0  0  0  0  0  0
  150.5452  136.9437  157.7473 C   0  0  0  0  0  0  0  0  0  0  0  0
  149.4432  136.5909  156.9450 C   0  0  0  0  0  0  0  0  0  0  0  0
  149.6630  136.2652  155.5832 C   0  0  0  0  0  0  0  0  0  0  0  0
  148.6454  135.8769  154.6687 N   0  0  0  0  0  0  0  0  0  0  0  0
  147.4778  135.2563  154.9110 C   0  0  0  0  0  0  0  0  0  0  0  0
  147.0587  134.9263  156.0196 O   0  0  0  0  0  0  0  0  0  0  0  0
  146.8003  135.0409  153.7745 N   0  0  0  0  0  0  0  0  0  0  0  0
  145.4990  134.3846  153.6832 C   0  0  1  0  0  0  0  0  0  0  0  0
  144.3447  135.3724  153.4386 C   0  0  0  0  0  0  0  0  0  0  0  0
  143.3794  134.6449  152.4819 C   0  0  0  0  0  0  0  0  0  0  0  0
  143.9498  133.2963  152.3006 N   0  3  1  0  0  0  0  0  0  0  0  0
  143.5925  132.5739  151.0603 C   0  0  0  0  0  0  0  0  0  0  0  0
  144.2107  131.1620  151.0984 C   0  0  0  0  0  0  0  0  0  0  0  0
  145.7279  131.2089  151.3701 C   0  0  0  0  0  0  0  0  0  0  0  0
  146.0442  132.0527  152.6200 C   0  0  0  0  0  0  0  0  0  0  0  0
  145.4020  133.4435  152.4796 C   0  0  2  0  0  0  0  0  0  0  0  0
  150.9905  136.3015  155.1041 C   0  0  0  0  0  0  0  0  0  0  0  0
  152.0541  136.6392  155.8624 N   0  0  0  0  0  0  0  0  0  0  0  0
  155.6108  137.0498  157.6098 H   0  0  0  0  0  0  0  0  0  0  0  0
  154.6556  137.2662  156.1237 H   0  0  0  0  0  0  0  0  0  0  0  0
  154.5985  135.7190  157.0013 H   0  0  0  0  0  0  0  0  0  0  0  0
  150.4056  137.2033  158.7862 H   0  0  0  0  0  0  0  0  0  0  0  0
  148.4639  136.5703  157.3956 H   0  0  0  0  0  0  0  0  0  0  0  0
  148.8164  136.1334  153.7072 H   0  0  0  0  0  0  0  0  0  0  0  0
  147.2167  135.3509  152.9085 H   0  0  0  0  0  0  0  0  0  0  0  0
  145.2839  133.8287  154.5985 H   0  0  0  0  0  0  0  0  0  0  0  0
  143.8581  135.6466  154.3750 H   0  0  0  0  0  0  0  0  0  0  0  0
  144.6996  136.2929  152.9724 H   0  0  0  0  0  0  0  0  0  0  0  0
  142.3664  134.5841  152.8804 H   0  0  0  0  0  0  0  0  0  0  0  0
  143.3365  135.1677  151.5249 H   0  0  0  0  0  0  0  0  0  0  0  0
  142.5074  132.5076  150.9742 H   0  0  0  0  0  0  0  0  0  0  0  0
  143.9530  133.1262  150.1910 H   0  0  0  0  0  0  0  0  0  0  0  0
  143.7248  130.5773  151.8806 H   0  0  0  0  0  0  0  0  0  0  0  0
  144.0149  130.6422  150.1601 H   0  0  0  0  0  0  0  0  0  0  0  0
  146.1193  130.1983  151.4901 H   0  0  0  0  0  0  0  0  0  0  0  0
  146.2367  131.6369  150.5055 H   0  0  0  0  0  0  0  0  0  0  0  0
  145.6677  131.5523  153.5132 H   0  0  0  0  0  0  0  0  0  0  0  0
  147.1236  132.1422  152.7415 H   0  0  0  0  0  0  0  0  0  0  0  0
  145.8116  133.9449  151.5993 H   0  0  0  0  0  0  0  0  0  0  0  0
  151.2077  136.0548  154.0751 H   0  0  0  0  0  0  0  0  0  0  0  0
  143.6224  132.7399  153.0775 H   0  0  0  0  0  0  0  0  0  0  0  0
  1  2  1  0  0  0  0
  1 24  1  0  0  0  0
  1 25  1  0  0  0  0
  1 26  1  0  0  0  0
  2  3  2  0  0  0  0
  2  4  2  0  0  0  0
  2  5  1  0  0  0  0
  5 23  1  0  0  0  0
  5  6  2  0  0  0  0
  6  7  1  0  0  0  0
  6 27  1  0  0  0  0
  7  8  2  0  0  0  0
  7 28  1  0  0  0  0
  8  9  1  0  0  0  0
  8 22  1  0  0  0  0
  9 10  1  0  0  0  0
  9 29  1  0  0  0  0
 10 11  2  0  0  0  0
 10 12  1  0  0  0  0
 12 13  1  0  0  0  0
 12 30  1  0  0  0  0
 13 21  1  0  0  0  0
 13 14  1  0  0  0  0
 13 31  1  0  0  0  0
 14 15  1  0  0  0  0
 14 32  1  0  0  0  0
 14 33  1  0  0  0  0
 15 16  1  0  0  0  0
 15 34  1  0  0  0  0
 15 35  1  0  0  0  0
 16 21  1  0  0  0  0
 16 17  1  0  0  0  0
 16 46  1  0  0  0  0
 17 18  1  0  0  0  0
 17 36  1  0  0  0  0
 17 37  1  0  0  0  0
 18 19  1  0  0  0  0
 18 38  1  0  0  0  0
 18 39  1  0  0  0  0
 19 20  1  0  0  0  0
 19 40  1  0  0  0  0
 19 41  1  0  0  0  0
 20 21  1  0  0  0  0
 20 42  1  0  0  0  0
 20 43  1  0  0  0  0
 21 44  1  0  0  0  0
 22 23  2  0  0  0  0
 22 45  1  0  0  0  0
M  CHG  1  16   1
M  END
> <s_m_source_file>
AV-unprocessed.smi

> <i_m_source_file_index>
1738

> <i_lp_mmshare_version>
43012

> <i_f3d_flags>
0

> <s_epik_input>
W0NIM11TKD1PKSg9TyljMVtjSF1bY0hdYyhbY0hdbjEpW05IXUMoPU8pW05IXVtDQEhdKFtDSDJdW0NIMl0yKVtDQEBIXShOMjMpW0NIMl1bQ0gyXVtDSDJdW0NIMl0z

> <s_epik_cmdline>
J2VwaWtfcHl0aG9uJywgJy1waCcsICc3LjAnLCAnLXRuJywgJzgnLCAnLW1hJywgJzIwMCcsICctbWV0YWxfYmluZGluZycsICctaW1hZScsICc8aW5maWxlLm1hZT4nLCAnLW9tYWUnLCAnPG91dGZpbGUubWFlPic=

> <r_epik_Ionization_Penalty>
0.00100042

> <r_epik_Ionization_Penalty_Charging>
0.000974069

> <r_epik_Ionization_Penalty_Neutral>
2.63543e-05

> <r_epik_State_Penalty>
0.000633842

> <r_epik_Charging_Adjusted_Penalty>
0.00160791

> <i_epik_Tot_Q>
1

> <i_epik_Tot_abs_Q>
1

> <r_epik_Metal_State_Penalty>
-0

> <b_epik_Metal_Only>
0

> <s_lp_Force_Field>
OPLS_2005

> <r_lp_Energy>
37.3337

> <b_lp_Chiralities_Consistent>
1

> <s_lp_Variant>
AV-unprocessed.smi:1738-6

> <Gold.Version>
5.8.1

> <Gold.Id.Protein>
6NUR|6NUR_protein|mol2

> <Gold.PLP.Fitness>
41.2673

> <Gold.PLP.PLP>
-23.0898

> <Gold.PLP.part.hbond>
-5.1682

> <Gold.PLP.part.metal>
0.0000

> <Gold.PLP.part.buried>
-4.4949

> <Gold.PLP.part.nonpolar>
-15.2486

> <Gold.PLP.part.repulsive>
0.0346

> <Gold.PLP.ligand.clash>
0.0000

> <Gold.PLP.ligand.torsion>
1.6330

> <Gold.PLP.Chemscore.Hbond>
5.5777

> <Gold.PLP.Chemscore.CHOScore>
0.8933

> <Gold.PLP.Chemscore.Metal>
0.0000

> <Gold.Chemscore.Hbonds>
donor molecule, donor type, donor heavy atom, donor atom, acceptor molecule, acceptor atom, score
      L1  H     9    29       P1  7948  1.00
      L1  H    12    30       P1  7948  0.57
      L1  H    16    46       P1 10957  1.30
      P1  H  6896  6907       L1     3  0.78
      P1  H  7997  8010       L1     4  1.00
      P1  H 10752 10764       L1    23  0.88
      L1  C    22    45       P1  7949  0.88

> <Gold.PLP.Chemscore.Internal.Correction>
2.0303

> <Gold.Rescore>
     Score         DG    S(hbond)    S(metal)    S(lipo)     H(rot)  DE(clash)    DE(int)     intcor
     22.47     -24.44       4.29        0.00      61.53       1.00       0.33       1.63       ----

> <Gold.Chemscore.Fitness>
22.4724

> <Gold.Chemscore.DG>
-24.4396

> <Gold.Chemscore.ZeroCoef>
-5.4800

> <Gold.Chemscore.Hbond>
4.2874

> <Gold.Chemscore.Metal>
0.0000

> <Gold.Chemscore.Lipo>
61.5344

> <Gold.Chemscore.Internal_Hbond>
0.0000

> <Gold.Chemscore.DEClash>
0.3350

> <Gold.Chemscore.DEInternal>
1.6322

> <Gold.Chemscore.Rot>
1.0000

> <Gold.Chemscore.Internal.Correction>
   9.000000E+99

> <Gold.Chemscore.Hbonds>
donor molecule, donor type, donor heavy atom, donor atom, acceptor molecule, acceptor atom, score
      L1  H     9    29       P1  7948  1.00
      L1  H    12    30       P1  7948  0.54
      L1  H    16    46       P1 10957  0.19
      P1  H  6896  6907       L1     3  0.76
      P1  H  7997  8010       L1     4  0.93
      P1  H 10752 10764       L1    23  0.16

> <Gold.Chemscore.Hbond.Weighted>
-14.3201

> <Gold.Chemscore.Metal.Weighted>
-0.0000

> <Gold.Chemscore.Lipo.Weighted>
-7.1995

> <Gold.Chemscore.Internal_Hbond.Weighted>
0.0000

> <Gold.Chemscore.DEClash.Weighted>
0.3350

> <Gold.Chemscore.DEInternal.Weighted>
1.6322

> <Gold.Chemscore.Rot.Weighted>
2.5600

> <Gold.Chemscore.Internal.Correction.Weighted>
   9.000000E+99

> <Gold.Protein.RotatedTorsions>
[ 6907 6896 6895 6894 ] final   36.77 input  -60.11 | X-H torsion
[ 7974 7965 7964 7962 ] final  -78.74 input  175.53 | X-H torsion
[ 8008 7997 7996 7995 ] final   34.13 input   59.86 | X-H torsion
[ 10167 10162 10161 10158 ] final   64.59 input  -65.29 | X-H torsion
[ 10718 10713 10712 10709 ] final   84.73 input   66.30 | X-H torsion
[ 10763 10752 10751 10750 ] final  -20.88 input  -60.55 | X-H torsion
[ 11005 11000 10999 10996 ] final  -34.20 input  -57.11 | X-H torsion

> <Gold.Protein.ActiveResidues>
 VAL166  LYS551  ARG553  GLY616  TRP617  ASP618  TYR619  PRO620  LYS621  CYS622 
 ASP623  PHE694  ASN695  SER759  ASP760  ASP761  ALA762  ILE779  LEU786  VAL792 
 PHE793  MET794  SER795  GLU796  ALA797  LYS798  CYS799  TRP800  GLU811  SER814 

> <Gold.Protein.RotatedAtoms>
  152.1342  134.9112  160.0556 H   0  0  0  0  0  0  0  0  0  0  0  0  # atno 6907 bound_to 6896
  152.0205  133.3892  159.4264 H   0  0  0  0  0  0  0  0  0  0  0  0  # atno 6908 bound_to 6896
  150.6859  134.3553  159.4970 H   0  0  0  0  0  0  0  0  0  0  0  0  # atno 6909 bound_to 6896
  145.5824  140.9446  143.1336 H   0  0  0  0  0  0  0  0  0  0  0  0  # atno 7974 bound_to 7965
  155.1498  140.3274  155.4433 H   0  0  0  0  0  0  0  0  0  0  0  0  # atno 8008 bound_to 7997
  156.2578  140.1979  156.6560 H   0  0  0  0  0  0  0  0  0  0  0  0  # atno 8009 bound_to 7997
  154.6481  140.0562  156.9910 H   0  0  0  0  0  0  0  0  0  0  0  0  # atno 8010 bound_to 7997
  140.1205  144.4736  150.6923 H   0  0  0  0  0  0  0  0  0  0  0  0  # atno 10167 bound_to 10162
  157.6903  131.0145  150.2716 H   0  0  0  0  0  0  0  0  0  0  0  0  # atno 10718 bound_to 10713
  153.6273  135.6990  153.5288 H   0  0  0  0  0  0  0  0  0  0  0  0  # atno 10763 bound_to 10752
  153.2888  135.4163  155.1147 H   0  0  0  0  0  0  0  0  0  0  0  0  # atno 10764 bound_to 10752
  154.8530  135.3620  154.5815 H   0  0  0  0  0  0  0  0  0  0  0  0  # atno 10765 bound_to 10752
  140.9697  133.7117  156.1503 H   0  0  0  0  0  0  0  0  0  0  0  0  # atno 11005 bound_to 11000
  144.7388  139.7509  143.7319 LP  0  0  0  0  0  0  0  0  0  0  0  0  # atno 17320 bound_to 7965
  146.1706  139.4855  142.9930 LP  0  0  0  0  0  0  0  0  0  0  0  0  # atno 17321 bound_to 7965
  140.6875  143.2357  151.5222 LP  0  0  0  0  0  0  0  0  0  0  0  0  # atno 17342 bound_to 10162
  139.5571  144.2248  152.1630 LP  0  0  0  0  0  0  0  0  0  0  0  0  # atno 17343 bound_to 10162
  156.3278  130.3795  149.7517 LP  0  0  0  0  0  0  0  0  0  0  0  0  # atno 17370 bound_to 10713
  156.5067  130.8153  151.3153 LP  0  0  0  0  0  0  0  0  0  0  0  0  # atno 17371 bound_to 10713
  140.7348  134.4215  157.5562 LP  0  0  0  0  0  0  0  0  0  0  0  0  # atno 17394 bound_to 11000
  139.8907  134.8797  156.2354 LP  0  0  0  0  0  0  0  0  0  0  0  0  # atno 17395 bound_to 11000

$$$$
