AV-unprocessed.smi:3237|AV-procd|sdf|12365|dock7
  -GOLD-   2272018223D 1   1.00000     0.00000
 Structure written by MMmdl.
 37 39  0  0  0  0  0  0  0  0  2 V2000
  147.1522  135.7636  163.1210 C   0  0  0  0  0  0  0  0  0  0  0  0
  147.5512  135.9520  161.6976 C   0  0  0  0  0  0  0  0  0  0  0  0
  147.8473  135.0768  160.6911 C   0  0  0  0  0  0  0  0  0  0  0  0
  148.1440  135.9393  159.5955 C   0  0  0  0  0  0  0  0  0  0  0  0
  148.5176  135.5385  158.2867 N   0  0  0  0  0  0  0  0  0  0  0  0
  147.7901  134.8635  157.3809 C   0  0  0  0  0  0  0  0  0  0  0  0
  146.6379  134.4630  157.5441 O   0  0  0  0  0  0  0  0  0  0  0  0
  148.4813  134.6701  156.2484 N   0  0  0  0  0  0  0  0  0  0  0  0
  147.9687  133.9724  155.0741 C   0  0  2  0  0  0  0  0  0  0  0  0
  149.0252  133.2235  154.2676 C   0  0  0  0  0  0  0  0  0  0  0  0
  148.3463  133.0609  152.9030 C   0  0  0  0  0  0  0  0  0  0  0  0
  147.4048  134.1991  152.7557 N   0  3  1  0  0  0  0  0  0  0  0  0
  146.0574  133.7965  152.2974 C   0  0  0  0  0  0  0  0  0  0  0  0
  145.9240  133.7311  150.7945 C   0  0  0  0  0  0  0  0  0  0  0  0
  145.3195  134.8881  151.5598 C   0  0  0  0  0  0  0  0  0  0  0  0
  147.3978  134.9389  154.0373 C   0  0  0  0  0  0  0  0  0  0  0  0
  148.0386  137.2171  159.9104 N   0  0  0  0  0  0  0  0  0  0  0  0
  147.6583  137.2347  161.2575 O   0  0  0  0  0  0  0  0  0  0  0  0
  147.0213  134.7064  163.3526 H   0  0  0  0  0  0  0  0  0  0  0  0
  146.2119  136.2741  163.3298 H   0  0  0  0  0  0  0  0  0  0  0  0
  147.9124  136.1653  163.7912 H   0  0  0  0  0  0  0  0  0  0  0  0
  147.8459  133.9988  160.7485 H   0  0  0  0  0  0  0  0  0  0  0  0
  149.4513  135.8018  158.0083 H   0  0  0  0  0  0  0  0  0  0  0  0
  149.4225  135.0319  156.1958 H   0  0  0  0  0  0  0  0  0  0  0  0
  147.1830  133.2762  155.3755 H   0  0  0  0  0  0  0  0  0  0  0  0
  149.9268  133.8298  154.1664 H   0  0  0  0  0  0  0  0  0  0  0  0
  149.3069  132.2695  154.7148 H   0  0  0  0  0  0  0  0  0  0  0  0
  149.0678  133.0412  152.0858 H   0  0  0  0  0  0  0  0  0  0  0  0
  147.8004  132.1161  152.8814 H   0  0  0  0  0  0  0  0  0  0  0  0
  145.5181  133.0949  152.9319 H   0  0  0  0  0  0  0  0  0  0  0  0
  146.8059  133.9345  150.1894 H   0  0  0  0  0  0  0  0  0  0  0  0
  145.2379  132.9938  150.3826 H   0  0  0  0  0  0  0  0  0  0  0  0
  144.2356  134.9125  151.6527 H   0  0  0  0  0  0  0  0  0  0  0  0
  145.7997  135.8602  151.4625 H   0  0  0  0  0  0  0  0  0  0  0  0
  146.4072  135.3058  154.3105 H   0  0  0  0  0  0  0  0  0  0  0  0
  148.0500  135.8065  153.9259 H   0  0  0  0  0  0  0  0  0  0  0  0
  147.7822  134.8235  152.0571 H   0  0  0  0  0  0  0  0  0  0  0  0
  1  2  1  0  0  0  0
  1 19  1  0  0  0  0
  1 20  1  0  0  0  0
  1 21  1  0  0  0  0
  2 18  1  0  0  0  0
  2  3  2  0  0  0  0
  3  4  1  0  0  0  0
  3 22  1  0  0  0  0
  4  5  1  0  0  0  0
  4 17  2  0  0  0  0
  5  6  1  0  0  0  0
  5 23  1  0  0  0  0
  6  7  2  0  0  0  0
  6  8  1  0  0  0  0
  8  9  1  0  0  0  0
  8 24  1  0  0  0  0
  9 16  1  0  0  0  0
  9 10  1  0  0  0  0
  9 25  1  0  0  0  0
 10 11  1  0  0  0  0
 10 26  1  0  0  0  0
 10 27  1  0  0  0  0
 11 12  1  0  0  0  0
 11 28  1  0  0  0  0
 11 29  1  0  0  0  0
 12 13  1  0  0  0  0
 12 16  1  0  0  0  0
 12 37  1  0  0  0  0
 13 15  1  0  0  0  0
 13 14  1  0  0  0  0
 13 30  1  0  0  0  0
 14 15  1  0  0  0  0
 14 31  1  0  0  0  0
 14 32  1  0  0  0  0
 15 33  1  0  0  0  0
 15 34  1  0  0  0  0
 16 35  1  0  0  0  0
 16 36  1  0  0  0  0
 17 18  1  0  0  0  0
M  CHG  1  12   1
M  END
> <s_m_source_file>
AV-unprocessed.smi

> <i_m_source_file_index>
3237

> <i_lp_mmshare_version>
43012

> <i_f3d_flags>
0

> <s_epik_input>
W0NIM11jMVtjSF1jKG5vMSlbTkhdQyg9TylbTkhdW0NAQEhdMltDSDJdW0NIMl1OKFtDSDJdMilbQ0hdM1tDSDJdW0NIMl0z

> <s_epik_cmdline>
J2VwaWtfcHl0aG9uJywgJy1waCcsICc3LjAnLCAnLXRuJywgJzgnLCAnLW1hJywgJzIwMCcsICctbWV0YWxfYmluZGluZycsICctaW1hZScsICc8aW5maWxlLm1hZT4nLCAnLW9tYWUnLCAnPG91dGZpbGUubWFlPic=

> <r_epik_Ionization_Penalty>
0.000720579

> <r_epik_Ionization_Penalty_Charging>
0.000680516

> <r_epik_Ionization_Penalty_Neutral>
4.00628e-05

> <r_epik_State_Penalty>
0.000432256

> <r_epik_Charging_Adjusted_Penalty>
0.00111277

> <i_epik_Tot_Q>
1

> <i_epik_Tot_abs_Q>
1

> <r_epik_Metal_State_Penalty>
0.0255091

> <b_epik_Metal_Only>
0

> <s_lp_Force_Field>
OPLS_2005

> <r_lp_Energy>
36.5214

> <b_lp_Chiralities_Consistent>
1

> <s_lp_Variant>
AV-unprocessed.smi:3237-3

> <Gold.Version>
5.8.1

> <Gold.Id.Protein>
6NUR|6NUR_protein|mol2

> <Gold.PLP.Fitness>
34.5987

> <Gold.PLP.PLP>
-27.3562

> <Gold.PLP.part.hbond>
-4.4139

> <Gold.PLP.part.metal>
0.0000

> <Gold.PLP.part.buried>
-1.0313

> <Gold.PLP.part.nonpolar>
-22.0611

> <Gold.PLP.part.repulsive>
0.0905

> <Gold.PLP.ligand.clash>
0.0000

> <Gold.PLP.ligand.torsion>
1.6022

> <Gold.PLP.Chemscore.Hbond>
3.0608

> <Gold.PLP.Chemscore.CHOScore>
0.0000

> <Gold.PLP.Chemscore.Metal>
0.0000

> <Gold.Chemscore.Hbonds>
donor molecule, donor type, donor heavy atom, donor atom, acceptor molecule, acceptor atom, score
      L1  H    12    37       P1  7948  1.73
      P1  H  6931  6943       L1    18  0.84
      P1  H  6934  6947       L1    18  0.21

> <Gold.PLP.Chemscore.Internal.Correction>
1.2644

> <Gold.Rescore>
     Score         DG    S(hbond)    S(metal)    S(lipo)     H(rot)  DE(clash)    DE(int)     intcor
     11.81     -13.48       1.37        0.00      56.94       1.26       0.16       1.51       ----

> <Gold.Chemscore.Fitness>
11.8143

> <Gold.Chemscore.DG>
-13.4848

> <Gold.Chemscore.ZeroCoef>
-5.4800

> <Gold.Chemscore.Hbond>
1.3671

> <Gold.Chemscore.Metal>
0.0000

> <Gold.Chemscore.Lipo>
56.9435

> <Gold.Chemscore.Internal_Hbond>
0.0000

> <Gold.Chemscore.DEClash>
0.1596

> <Gold.Chemscore.DEInternal>
1.5109

> <Gold.Chemscore.Rot>
1.2593

> <Gold.Chemscore.Internal.Correction>
   9.000000E+99

> <Gold.Chemscore.Hbonds>
donor molecule, donor type, donor heavy atom, donor atom, acceptor molecule, acceptor atom, score
      L1  H    12    37       P1  7948  0.55
      P1  H  6931  6943       L1    18  0.15

> <Gold.Chemscore.Hbond.Weighted>
-4.5661

> <Gold.Chemscore.Metal.Weighted>
-0.0000

> <Gold.Chemscore.Lipo.Weighted>
-6.6624

> <Gold.Chemscore.Internal_Hbond.Weighted>
0.0000

> <Gold.Chemscore.DEClash.Weighted>
0.1596

> <Gold.Chemscore.DEInternal.Weighted>
1.5109

> <Gold.Chemscore.Rot.Weighted>
3.2237

> <Gold.Chemscore.Internal.Correction.Weighted>
   9.000000E+99

> <Gold.Protein.RotatedTorsions>
[ 6907 6896 6895 6894 ] final  -53.39 input  -60.11 | X-H torsion
[ 7974 7965 7964 7962 ] final  127.64 input  175.53 | X-H torsion
[ 8008 7997 7996 7995 ] final   25.34 input   59.86 | X-H torsion
[ 10167 10162 10161 10158 ] final   83.69 input  -65.29 | X-H torsion
[ 10718 10713 10712 10709 ] final  -11.48 input   66.30 | X-H torsion
[ 10763 10752 10751 10750 ] final  107.95 input  -60.55 | X-H torsion
[ 11005 11000 10999 10996 ] final -113.52 input  -57.11 | X-H torsion

> <Gold.Protein.ActiveResidues>
 VAL166  LYS551  ARG553  GLY616  TRP617  ASP618  TYR619  PRO620  LYS621  CYS622 
 ASP623  PHE694  ASN695  SER759  ASP760  ASP761  ALA762  ILE779  LEU786  VAL792 
 PHE793  MET794  SER795  GLU796  ALA797  LYS798  CYS799  TRP800  GLU811  SER814 

> <Gold.Protein.RotatedAtoms>
  150.8431  134.7730  159.6948 H   0  0  0  0  0  0  0  0  0  0  0  0  # atno 6907 bound_to 6896
  152.4514  134.5382  159.9841 H   0  0  0  0  0  0  0  0  0  0  0  0  # atno 6908 bound_to 6896
  151.5518  133.3378  159.2990 H   0  0  0  0  0  0  0  0  0  0  0  0  # atno 6909 bound_to 6896
  145.0483  139.3904  143.5067 H   0  0  0  0  0  0  0  0  0  0  0  0  # atno 7974 bound_to 7965
  155.0102  140.3135  155.4833 H   0  0  0  0  0  0  0  0  0  0  0  0  # atno 8008 bound_to 7997
  156.2910  140.2216  156.5157 H   0  0  0  0  0  0  0  0  0  0  0  0  # atno 8009 bound_to 7997
  154.7541  140.0464  157.0906 H   0  0  0  0  0  0  0  0  0  0  0  0  # atno 8010 bound_to 7997
  139.9157  144.6244  150.8491 H   0  0  0  0  0  0  0  0  0  0  0  0  # atno 10167 bound_to 10162
  156.6584  130.4975  149.6038 H   0  0  0  0  0  0  0  0  0  0  0  0  # atno 10718 bound_to 10713
  153.4139  135.3828  155.2068 H   0  0  0  0  0  0  0  0  0  0  0  0  # atno 10763 bound_to 10752
  154.8740  135.3801  154.4467 H   0  0  0  0  0  0  0  0  0  0  0  0  # atno 10764 bound_to 10752
  153.4979  135.7088  153.5910 H   0  0  0  0  0  0  0  0  0  0  0  0  # atno 10765 bound_to 10752
  141.0609  133.9537  157.2668 H   0  0  0  0  0  0  0  0  0  0  0  0  # atno 11005 bound_to 11000
  146.3516  140.0120  142.8666 LP  0  0  0  0  0  0  0  0  0  0  0  0  # atno 17320 bound_to 7965
  145.1560  140.9648  143.4405 LP  0  0  0  0  0  0  0  0  0  0  0  0  # atno 17321 bound_to 7965
  140.7674  143.3333  151.2363 LP  0  0  0  0  0  0  0  0  0  0  0  0  # atno 17342 bound_to 10162
  139.6904  143.9702  152.2856 LP  0  0  0  0  0  0  0  0  0  0  0  0  # atno 17343 bound_to 10162
  156.2030  130.6631  151.1188 LP  0  0  0  0  0  0  0  0  0  0  0  0  # atno 17370 bound_to 10713
  157.7118  131.0730  150.6474 LP  0  0  0  0  0  0  0  0  0  0  0  0  # atno 17371 bound_to 10713
  139.9432  135.0188  156.8772 LP  0  0  0  0  0  0  0  0  0  0  0  0  # atno 17394 bound_to 11000
  140.5870  134.0297  155.7485 LP  0  0  0  0  0  0  0  0  0  0  0  0  # atno 17395 bound_to 11000

$$$$
