AV-unprocessed.smi:334|AV-procd|sdf|2369|dock10
  -GOLD-   2262022283D 1   1.00000     0.00000
 Structure written by MMmdl.
 44 46  0  0  0  0  0  0  0  0  3 V2000
  151.7037  140.5672  157.3276 C   0  0  0  0  0  0  0  0  0  0  0  0
  151.2434  141.9999  157.0131 C   0  0  1  0  0  0  0  0  0  0  0  0
  149.9514  141.9300  156.3325 N   0  0  0  0  0  0  0  0  0  0  0  0
  149.6571  141.1576  155.2749 C   0  0  0  0  0  0  0  0  0  0  0  0
  150.4534  140.3676  154.7665 O   0  0  0  0  0  0  0  0  0  0  0  0
  148.2358  141.3007  154.7136 C   0  0  0  0  0  0  0  0  0  0  0  0
  147.4374  140.0707  154.8516 N   0  0  0  0  0  0  0  0  0  0  0  0
  147.3199  139.2483  153.7133 C   0  0  0  0  0  0  0  0  0  0  0  0
  146.6101  138.1029  153.7278 C   0  0  0  0  0  0  0  0  0  0  0  0
  146.4981  137.2714  152.5494 N   0  3  0  0  0  0  0  0  0  0  0  0
  146.7590  137.7627  151.4558 O   0  0  0  0  0  0  0  0  0  0  0  0
  146.1458  136.1024  152.6764 O   0  5  0  0  0  0  0  0  0  0  0  0
  145.9566  137.7303  154.9675 C   0  0  0  0  0  0  0  0  0  0  0  0
  146.0630  138.5135  156.0588 C   0  0  0  0  0  0  0  0  0  0  0  0
  146.8365  139.7591  156.0412 C   0  0  0  0  0  0  0  0  0  0  0  0
  146.9382  140.4785  157.0354 O   0  0  0  0  0  0  0  0  0  0  0  0
  151.1295  142.8736  158.2878 C   0  0  1  0  0  0  0  0  0  0  0  0
  152.4238  142.8933  159.1379 C   0  0  0  0  0  0  0  0  0  0  0  0
  152.7244  144.3944  159.2942 C   0  0  2  0  0  0  0  0  0  0  0  0
  151.6718  145.0363  160.2157 C   0  0  0  0  0  0  0  0  0  0  0  0
  150.4133  145.0518  159.3287 C   0  0  0  0  0  0  0  0  0  0  0  0
  150.9044  144.3868  158.0283 C   0  0  1  0  0  0  0  0  0  0  0  0
  152.3244  144.9324  157.9268 C   0  0  0  0  0  0  0  0  0  0  0  0
  152.6917  140.5537  157.7872 H   0  0  0  0  0  0  0  0  0  0  0  0
  151.7621  139.9672  156.4189 H   0  0  0  0  0  0  0  0  0  0  0  0
  151.0142  140.0696  158.0105 H   0  0  0  0  0  0  0  0  0  0  0  0
  151.9880  142.4458  156.3521 H   0  0  0  0  0  0  0  0  0  0  0  0
  149.2278  142.5430  156.6793 H   0  0  0  0  0  0  0  0  0  0  0  0
  147.7545  142.1371  155.2224 H   0  0  0  0  0  0  0  0  0  0  0  0
  148.2820  141.5943  153.6630 H   0  0  0  0  0  0  0  0  0  0  0  0
  147.8371  139.6156  152.8386 H   0  0  0  0  0  0  0  0  0  0  0  0
  145.3756  136.8219  155.0295 H   0  0  0  0  0  0  0  0  0  0  0  0
  145.5658  138.2179  156.9712 H   0  0  0  0  0  0  0  0  0  0  0  0
  150.3024  142.4873  158.8862 H   0  0  0  0  0  0  0  0  0  0  0  0
  152.2963  142.3931  160.0984 H   0  0  0  0  0  0  0  0  0  0  0  0
  153.2512  142.4059  158.6208 H   0  0  0  0  0  0  0  0  0  0  0  0
  153.7524  144.6058  159.5899 H   0  0  0  0  0  0  0  0  0  0  0  0
  151.5271  144.4678  161.1352 H   0  0  0  0  0  0  0  0  0  0  0  0
  151.9605  146.0518  160.4902 H   0  0  0  0  0  0  0  0  0  0  0  0
  149.5761  144.5192  159.7814 H   0  0  0  0  0  0  0  0  0  0  0  0
  150.0917  146.0769  159.1405 H   0  0  0  0  0  0  0  0  0  0  0  0
  150.2667  144.6177  157.1755 H   0  0  0  0  0  0  0  0  0  0  0  0
  152.3658  146.0211  157.8613 H   0  0  0  0  0  0  0  0  0  0  0  0
  152.8996  144.5037  157.1048 H   0  0  0  0  0  0  0  0  0  0  0  0
  1  2  1  0  0  0  0
  1 24  1  0  0  0  0
  1 25  1  0  0  0  0
  1 26  1  0  0  0  0
  2  3  1  0  0  0  0
  2 17  1  0  0  0  0
  2 27  1  0  0  0  0
  3  4  1  0  0  0  0
  3 28  1  0  0  0  0
  4  5  2  0  0  0  0
  4  6  1  0  0  0  0
  6  7  1  0  0  0  0
  6 29  1  0  0  0  0
  6 30  1  0  0  0  0
  7 15  1  0  0  0  0
  7  8  1  0  0  0  0
  8  9  2  0  0  0  0
  8 31  1  0  0  0  0
  9 10  1  0  0  0  0
  9 13  1  0  0  0  0
 10 11  2  0  0  0  0
 10 12  1  0  0  0  0
 13 14  2  0  0  0  0
 13 32  1  0  0  0  0
 14 15  1  0  0  0  0
 14 33  1  0  0  0  0
 15 16  2  0  0  0  0
 17 22  1  0  0  0  0
 17 18  1  0  0  0  0
 17 34  1  0  0  0  0
 18 19  1  0  0  0  0
 18 35  1  0  0  0  0
 18 36  1  0  0  0  0
 19 23  1  0  0  0  0
 19 20  1  0  0  0  0
 19 37  1  0  0  0  0
 20 21  1  0  0  0  0
 20 38  1  0  0  0  0
 20 39  1  0  0  0  0
 21 22  1  0  0  0  0
 21 40  1  0  0  0  0
 21 41  1  0  0  0  0
 22 23  1  0  0  0  0
 22 42  1  0  0  0  0
 23 43  1  0  0  0  0
 23 44  1  0  0  0  0
M  CHG  1  10   1
M  CHG  1  12  -1
M  END
> <s_m_source_file>
AV-unprocessed.smi

> <i_m_source_file_index>
334

> <i_lp_mmshare_version>
43012

> <i_f3d_flags>
0

> <s_epik_input>
W0NIMl0xW0NIMl1bQ0BIXShbQ0gyXTIpW0NAQEhdKFtDSDJdW0NAQEhdMTIpW0NASF0oW0NIM10pW05IXUMoPU8pW0NIMl1uM1tjSF1jKFtOK10oPU8pW08tXSlbY0hdW2NIXWMzPU8=

> <s_epik_cmdline>
J2VwaWtfcHl0aG9uJywgJy1waCcsICc3LjAnLCAnLXRuJywgJzgnLCAnLW1hJywgJzIwMCcsICctbWV0YWxfYmluZGluZycsICctaW1hZScsICc8aW5maWxlLm1hZT4nLCAnLW9tYWUnLCAnPG91dGZpbGUubWFlPic=

> <r_lp_tautomer_probability>
1

> <r_epik_Ionization_Penalty>
2.17081e-08

> <r_epik_Ionization_Penalty_Charging>
8.1195e-11

> <r_epik_Ionization_Penalty_Neutral>
2.16269e-08

> <r_epik_State_Penalty>
-0

> <r_epik_Charging_Adjusted_Penalty>
8.1195e-11

> <i_epik_Tot_Q>
0

> <i_epik_Tot_abs_Q>
2

> <r_epik_Metal_State_Penalty>
-0

> <b_epik_Metal_Only>
0

> <s_lp_Force_Field>
OPLS_2005

> <r_lp_Energy>
62.1709

> <b_lp_Chiralities_Consistent>
1

> <s_lp_Variant>
AV-unprocessed.smi:334-8

> <Gold.Version>
5.8.1

> <Gold.Id.Protein>
6NUR|6NUR_protein|mol2

> <Gold.PLP.Fitness>
56.7745

> <Gold.PLP.PLP>
-47.0036

> <Gold.PLP.part.hbond>
-3.0000

> <Gold.PLP.part.metal>
0.0000

> <Gold.PLP.part.buried>
-4.4068

> <Gold.PLP.part.nonpolar>
-39.5270

> <Gold.PLP.part.repulsive>
0.8586

> <Gold.PLP.ligand.clash>
0.0000

> <Gold.PLP.ligand.torsion>
0.5893

> <Gold.PLP.Chemscore.Hbond>
2.6365

> <Gold.PLP.Chemscore.CHOScore>
1.0000

> <Gold.PLP.Chemscore.Metal>
0.0000

> <Gold.Chemscore.Hbonds>
donor molecule, donor type, donor heavy atom, donor atom, acceptor molecule, acceptor atom, score
      L1  H     3    28       P1  8028  0.01
      P1  H  7954  7966       L1    11  0.81
      P1  H  7989  7998       L1     5  1.00
      L1  C     8    31       P1  7957  1.00

> <Gold.PLP.Chemscore.Internal.Correction>
0.0401

> <Gold.Rescore>
     Score         DG    S(hbond)    S(metal)    S(lipo)     H(rot)  DE(clash)    DE(int)     intcor
     20.47     -22.66       2.35        0.00     117.95       1.75       0.30       1.89       ----

> <Gold.Chemscore.Fitness>
20.4697

> <Gold.Chemscore.DG>
-22.6622

> <Gold.Chemscore.ZeroCoef>
-5.4800

> <Gold.Chemscore.Hbond>
2.3520

> <Gold.Chemscore.Metal>
0.0000

> <Gold.Chemscore.Lipo>
117.9476

> <Gold.Chemscore.Internal_Hbond>
0.0000

> <Gold.Chemscore.DEClash>
0.3015

> <Gold.Chemscore.DEInternal>
1.8910

> <Gold.Chemscore.Rot>
1.7474

> <Gold.Chemscore.Internal.Correction>
   9.000000E+99

> <Gold.Chemscore.Hbonds>
donor molecule, donor type, donor heavy atom, donor atom, acceptor molecule, acceptor atom, score
      L1  H     3    28       P1  8028  0.03
      P1  H  7954  7966       L1    11  0.80
      P1  H  7989  7998       L1     5  0.96

> <Gold.Chemscore.Hbond.Weighted>
-7.8556

> <Gold.Chemscore.Metal.Weighted>
-0.0000

> <Gold.Chemscore.Lipo.Weighted>
-13.7999

> <Gold.Chemscore.Internal_Hbond.Weighted>
0.0000

> <Gold.Chemscore.DEClash.Weighted>
0.3015

> <Gold.Chemscore.DEInternal.Weighted>
1.8910

> <Gold.Chemscore.Rot.Weighted>
4.4733

> <Gold.Chemscore.Internal.Correction.Weighted>
   9.000000E+99

> <Gold.Protein.RotatedTorsions>
[ 6907 6896 6895 6894 ] final  105.64 input  -60.11 | X-H torsion
[ 7974 7965 7964 7962 ] final   -1.60 input  175.53 | X-H torsion
[ 8008 7997 7996 7995 ] final   62.03 input   59.86 | X-H torsion
[ 10167 10162 10161 10158 ] final  177.34 input  -65.29 | X-H torsion
[ 10718 10713 10712 10709 ] final   96.27 input   66.30 | X-H torsion
[ 10763 10752 10751 10750 ] final   -8.37 input  -60.55 | X-H torsion
[ 11005 11000 10999 10996 ] final  145.07 input  -57.11 | X-H torsion

> <Gold.Protein.ActiveResidues>
 VAL166  LYS551  ARG553  GLY616  TRP617  ASP618  TYR619  PRO620  LYS621  CYS622 
 ASP623  PHE694  ASN695  SER759  ASP760  ASP761  ALA762  ILE779  LEU786  VAL792 
 PHE793  MET794  SER795  GLU796  ALA797  LYS798  CYS799  TRP800  GLU811  SER814 

> <Gold.Protein.RotatedAtoms>
  152.5223  133.9498  159.7666 H   0  0  0  0  0  0  0  0  0  0  0  0  # atno 6907 bound_to 6896
  150.9810  133.6237  159.2729 H   0  0  0  0  0  0  0  0  0  0  0  0  # atno 6908 bound_to 6896
  151.3414  135.0870  159.9425 H   0  0  0  0  0  0  0  0  0  0  0  0  # atno 6909 bound_to 6896
  146.2415  140.1445  142.8335 H   0  0  0  0  0  0  0  0  0  0  0  0  # atno 7974 bound_to 7965
  155.6078  140.3494  155.4613 H   0  0  0  0  0  0  0  0  0  0  0  0  # atno 8008 bound_to 7997
  156.0178  140.1247  157.0413 H   0  0  0  0  0  0  0  0  0  0  0  0  # atno 8009 bound_to 7997
  154.4304  140.1068  156.5907 H   0  0  0  0  0  0  0  0  0  0  0  0  # atno 8010 bound_to 7997
  139.5249  144.2809  152.0547 H   0  0  0  0  0  0  0  0  0  0  0  0  # atno 10167 bound_to 10162
  157.6929  131.0573  150.4466 H   0  0  0  0  0  0  0  0  0  0  0  0  # atno 10718 bound_to 10713
  153.4395  135.7013  153.6178 H   0  0  0  0  0  0  0  0  0  0  0  0  # atno 10763 bound_to 10752
  153.4558  135.3747  155.2310 H   0  0  0  0  0  0  0  0  0  0  0  0  # atno 10764 bound_to 10752
  154.8727  135.4008  154.3792 H   0  0  0  0  0  0  0  0  0  0  0  0  # atno 10765 bound_to 10752
  140.0682  134.9166  157.1301 H   0  0  0  0  0  0  0  0  0  0  0  0  # atno 11005 bound_to 11000
  145.0219  140.8800  143.5162 LP  0  0  0  0  0  0  0  0  0  0  0  0  # atno 17320 bound_to 7965
  145.1495  139.2523  143.5448 LP  0  0  0  0  0  0  0  0  0  0  0  0  # atno 17321 bound_to 7965
  140.2264  144.4413  150.6319 LP  0  0  0  0  0  0  0  0  0  0  0  0  # atno 17342 bound_to 10162
  140.6384  143.2199  151.6344 LP  0  0  0  0  0  0  0  0  0  0  0  0  # atno 17343 bound_to 10162
  156.4821  130.4076  149.6456 LP  0  0  0  0  0  0  0  0  0  0  0  0  # atno 17370 bound_to 10713
  156.3497  130.7425  151.2383 LP  0  0  0  0  0  0  0  0  0  0  0  0  # atno 17371 bound_to 10713
  140.3666  134.2436  155.7182 LP  0  0  0  0  0  0  0  0  0  0  0  0  # atno 17394 bound_to 11000
  141.2001  133.7994  157.0503 LP  0  0  0  0  0  0  0  0  0  0  0  0  # atno 17395 bound_to 11000

$$$$
