AV-unprocessed.smi:1612|AV-procd|sdf|6477|dock3
  -GOLD-   22720 7133D 1   1.00000     0.00000
 Structure written by MMmdl.
 37 38  0  0  0  0  0  0  0  0  1 V2000
  147.6505  141.7311  153.7713 C   0  0  0  0  0  0  0  0  0  0  0  0
  148.0987  140.3529  154.3060 C   0  0  1  0  0  0  0  0  0  0  0  0
  147.7841  139.2618  153.3769 N   0  0  0  0  0  0  0  0  0  0  0  0
  146.6416  138.5607  153.2820 C   0  0  0  0  0  0  0  0  0  0  0  0
  145.6362  138.7919  153.9534 O   0  0  0  0  0  0  0  0  0  0  0  0
  146.7474  137.5916  152.3556 N   0  0  0  0  0  0  0  0  0  0  0  0
  145.7656  136.6447  151.9581 C   0  0  0  0  0  0  0  0  0  0  0  0
  144.7753  136.3670  152.9275 C   0  0  0  0  0  0  0  0  0  0  0  0
  143.7561  135.4413  152.6313 C   0  0  0  0  0  0  0  0  0  0  0  0
  143.7537  134.8153  151.3721 C   0  0  0  0  0  0  0  0  0  0  0  0
  144.7761  135.1478  150.4647 C   0  0  0  0  0  0  0  0  0  0  0  0
  145.7534  136.0351  150.7463 N   0  0  0  0  0  0  0  0  0  0  0  0
  149.5673  140.3022  154.7766 C   0  0  0  0  0  0  0  0  0  0  0  0
  150.3878  139.6744  154.1061 O   0  0  0  0  0  0  0  0  0  0  0  0
  149.9188  140.9341  155.9184 N   0  0  0  0  0  0  0  0  0  0  0  0
  149.0340  141.7044  156.7933 C   0  0  0  0  0  0  0  0  0  0  0  0
  149.8533  142.0123  158.0470 C   0  0  0  0  0  0  0  0  0  0  0  0
  151.2970  141.9724  157.5677 C   0  0  0  0  0  0  0  0  0  0  0  0
  151.2852  140.9416  156.4390 C   0  0  0  0  0  0  0  0  0  0  0  0
  147.7698  142.4994  154.5358 H   0  0  0  0  0  0  0  0  0  0  0  0
  146.5978  141.7173  153.4873 H   0  0  0  0  0  0  0  0  0  0  0  0
  148.2243  142.0523  152.9019 H   0  0  0  0  0  0  0  0  0  0  0  0
  147.4772  140.1726  155.1829 H   0  0  0  0  0  0  0  0  0  0  0  0
  148.5350  138.9903  152.7593 H   0  0  0  0  0  0  0  0  0  0  0  0
  147.6350  137.5201  151.8807 H   0  0  0  0  0  0  0  0  0  0  0  0
  144.7920  136.8573  153.8901 H   0  0  0  0  0  0  0  0  0  0  0  0
  142.9900  135.2160  153.3584 H   0  0  0  0  0  0  0  0  0  0  0  0
  142.9891  134.0996  151.1082 H   0  0  0  0  0  0  0  0  0  0  0  0
  144.8103  134.6900  149.4872 H   0  0  0  0  0  0  0  0  0  0  0  0
  148.7523  142.6298  156.2892 H   0  0  0  0  0  0  0  0  0  0  0  0
  148.1232  141.1632  157.0500 H   0  0  0  0  0  0  0  0  0  0  0  0
  149.5851  142.9651  158.5043 H   0  0  0  0  0  0  0  0  0  0  0  0
  149.6943  141.2288  158.7890 H   0  0  0  0  0  0  0  0  0  0  0  0
  151.5758  142.9488  157.1692 H   0  0  0  0  0  0  0  0  0  0  0  0
  152.0011  141.7221  158.3616 H   0  0  0  0  0  0  0  0  0  0  0  0
  151.5221  139.9486  156.8242 H   0  0  0  0  0  0  0  0  0  0  0  0
  152.0181  141.1901  155.6696 H   0  0  0  0  0  0  0  0  0  0  0  0
  1  2  1  0  0  0  0
  1 20  1  0  0  0  0
  1 21  1  0  0  0  0
  1 22  1  0  0  0  0
  2  3  1  0  0  0  0
  2 13  1  0  0  0  0
  2 23  1  0  0  0  0
  3  4  1  0  0  0  0
  3 24  1  0  0  0  0
  4  5  2  0  0  0  0
  4  6  1  0  0  0  0
  6  7  1  0  0  0  0
  6 25  1  0  0  0  0
  7 12  1  0  0  0  0
  7  8  2  0  0  0  0
  8  9  1  0  0  0  0
  8 26  1  0  0  0  0
  9 10  2  0  0  0  0
  9 27  1  0  0  0  0
 10 11  1  0  0  0  0
 10 28  1  0  0  0  0
 11 12  2  0  0  0  0
 11 29  1  0  0  0  0
 13 14  2  0  0  0  0
 13 15  1  0  0  0  0
 15 19  1  0  0  0  0
 15 16  1  0  0  0  0
 16 17  1  0  0  0  0
 16 30  1  0  0  0  0
 16 31  1  0  0  0  0
 17 18  1  0  0  0  0
 17 32  1  0  0  0  0
 17 33  1  0  0  0  0
 18 19  1  0  0  0  0
 18 34  1  0  0  0  0
 18 35  1  0  0  0  0
 19 36  1  0  0  0  0
 19 37  1  0  0  0  0
M  END
> <s_m_source_file>
AV-unprocessed.smi

> <i_m_source_file_index>
1612

> <i_lp_mmshare_version>
43012

> <i_f3d_flags>
0

> <s_epik_input>
W0NIMl0xW0NIMl1bQ0gyXVtDSDJdTjFDKD1PKVtDQEhdKFtDSDNdKVtOSF1DKD1PKVtOSF1jMltjSF1bY0hdW2NIXVtjSF1uMg==

> <s_epik_cmdline>
J2VwaWtfcHl0aG9uJywgJy1waCcsICc3LjAnLCAnLXRuJywgJzgnLCAnLW1hJywgJzIwMCcsICctbWV0YWxfYmluZGluZycsICctaW1hZScsICc8aW5maWxlLm1hZT4nLCAnLW9tYWUnLCAnPG91dGZpbGUubWFlPic=

> <r_lp_tautomer_probability>
1

> <r_epik_Ionization_Penalty>
3.95281e-05

> <r_epik_Ionization_Penalty_Charging>
0

> <r_epik_Ionization_Penalty_Neutral>
3.95281e-05

> <r_epik_State_Penalty>
-0

> <r_epik_Charging_Adjusted_Penalty>
0

> <i_epik_Tot_Q>
0

> <i_epik_Tot_abs_Q>
0

> <r_epik_Metal_State_Penalty>
-0

> <b_epik_Metal_Only>
0

> <s_lp_Force_Field>
OPLS_2005

> <r_lp_Energy>
35.1648

> <b_lp_Chiralities_Consistent>
1

> <s_lp_Variant>
AV-unprocessed.smi:1612-2

> <Gold.Version>
5.8.1

> <Gold.Id.Protein>
6NUR|6NUR_protein|mol2

> <Gold.PLP.Fitness>
38.1012

> <Gold.PLP.PLP>
-30.3947

> <Gold.PLP.part.hbond>
-3.0000

> <Gold.PLP.part.metal>
0.0000

> <Gold.PLP.part.buried>
-5.6871

> <Gold.PLP.part.nonpolar>
-23.1315

> <Gold.PLP.part.repulsive>
1.8711

> <Gold.PLP.ligand.clash>
0.0000

> <Gold.PLP.ligand.torsion>
0.8783

> <Gold.PLP.Chemscore.Hbond>
2.1067

> <Gold.PLP.Chemscore.CHOScore>
1.0000

> <Gold.PLP.Chemscore.Metal>
0.0000

> <Gold.Chemscore.Hbonds>
donor molecule, donor type, donor heavy atom, donor atom, acceptor molecule, acceptor atom, score
      L1  H     3    24       P1  7957  0.41
      L1  H     6    25       P1  7948  0.69
      P1  H  7989  7998       L1    14  1.00
      L1  C    11    29       P1  7921  1.00

> <Gold.PLP.Chemscore.Internal.Correction>
0.1430

> <Gold.Rescore>
     Score         DG    S(hbond)    S(metal)    S(lipo)     H(rot)  DE(clash)    DE(int)     intcor
     11.50     -14.45       1.86        0.00      51.99       1.30       0.47       2.48       ----

> <Gold.Chemscore.Fitness>
11.5029

> <Gold.Chemscore.DG>
-14.4531

> <Gold.Chemscore.ZeroCoef>
-5.4800

> <Gold.Chemscore.Hbond>
1.8631

> <Gold.Chemscore.Metal>
0.0000

> <Gold.Chemscore.Lipo>
51.9881

> <Gold.Chemscore.Internal_Hbond>
0.0000

> <Gold.Chemscore.DEClash>
0.4735

> <Gold.Chemscore.DEInternal>
2.4767

> <Gold.Chemscore.Rot>
1.3016

> <Gold.Chemscore.Internal.Correction>
   9.000000E+99

> <Gold.Chemscore.Hbonds>
donor molecule, donor type, donor heavy atom, donor atom, acceptor molecule, acceptor atom, score
      L1  H     3    24       P1  7957  0.41
      L1  H     6    25       P1  7948  0.70
      P1  H  7989  7998       L1    14  0.65

> <Gold.Chemscore.Hbond.Weighted>
-6.2227

> <Gold.Chemscore.Metal.Weighted>
-0.0000

> <Gold.Chemscore.Lipo.Weighted>
-6.0826

> <Gold.Chemscore.Internal_Hbond.Weighted>
0.0000

> <Gold.Chemscore.DEClash.Weighted>
0.4735

> <Gold.Chemscore.DEInternal.Weighted>
2.4767

> <Gold.Chemscore.Rot.Weighted>
3.3322

> <Gold.Chemscore.Internal.Correction.Weighted>
   9.000000E+99

> <Gold.Protein.RotatedTorsions>
[ 6907 6896 6895 6894 ] final   76.72 input  -60.11 | X-H torsion
[ 7974 7965 7964 7962 ] final  -45.23 input  175.53 | X-H torsion
[ 8008 7997 7996 7995 ] final  112.42 input   59.86 | X-H torsion
[ 10167 10162 10161 10158 ] final  143.96 input  -65.29 | X-H torsion
[ 10718 10713 10712 10709 ] final -112.94 input   66.30 | X-H torsion
[ 10763 10752 10751 10750 ] final   27.99 input  -60.55 | X-H torsion
[ 11005 11000 10999 10996 ] final   19.80 input  -57.11 | X-H torsion

> <Gold.Protein.ActiveResidues>
 VAL166  LYS551  ARG553  GLY616  TRP617  ASP618  TYR619  PRO620  LYS621  CYS622 
 ASP623  PHE694  ASN695  SER759  ASP760  ASP761  ALA762  ILE779  LEU786  VAL792 
 PHE793  MET794  SER795  GLU796  ALA797  LYS798  CYS799  TRP800  GLU811  SER814 

> <Gold.Protein.RotatedAtoms>
  152.5086  134.3926  159.9388 H   0  0  0  0  0  0  0  0  0  0  0  0  # atno 6907 bound_to 6896
  151.3886  133.3790  159.2726 H   0  0  0  0  0  0  0  0  0  0  0  0  # atno 6908 bound_to 6896
  150.9449  134.8876  159.7695 H   0  0  0  0  0  0  0  0  0  0  0  0  # atno 6909 bound_to 6896
  145.9842  140.7251  142.9349 H   0  0  0  0  0  0  0  0  0  0  0  0  # atno 7974 bound_to 7965
  156.2191  140.3000  155.9909 H   0  0  0  0  0  0  0  0  0  0  0  0  # atno 8008 bound_to 7997
  155.2529  140.0426  157.3006 H   0  0  0  0  0  0  0  0  0  0  0  0  # atno 8009 bound_to 7997
  154.5813  140.2376  155.8058 H   0  0  0  0  0  0  0  0  0  0  0  0  # atno 8010 bound_to 7997
  139.4957  144.6005  151.6491 H   0  0  0  0  0  0  0  0  0  0  0  0  # atno 10167 bound_to 10162
  156.0736  130.5947  150.8576 H   0  0  0  0  0  0  0  0  0  0  0  0  # atno 10718 bound_to 10713
  153.0520  135.6524  154.0670 H   0  0  0  0  0  0  0  0  0  0  0  0  # atno 10763 bound_to 10752
  154.0357  135.2908  155.3364 H   0  0  0  0  0  0  0  0  0  0  0  0  # atno 10764 bound_to 10752
  154.6814  135.5318  153.8334 H   0  0  0  0  0  0  0  0  0  0  0  0  # atno 10765 bound_to 10752
  140.4097  134.1632  155.7667 H   0  0  0  0  0  0  0  0  0  0  0  0  # atno 11005 bound_to 11000
  144.6870  140.2959  143.7271 LP  0  0  0  0  0  0  0  0  0  0  0  0  # atno 17320 bound_to 7965
  145.7725  139.1862  143.2204 LP  0  0  0  0  0  0  0  0  0  0  0  0  # atno 17321 bound_to 7965
  140.5653  144.0200  150.6189 LP  0  0  0  0  0  0  0  0  0  0  0  0  # atno 17342 bound_to 10162
  140.3299  143.3084  152.0698 LP  0  0  0  0  0  0  0  0  0  0  0  0  # atno 17343 bound_to 10162
  157.5820  131.0946  150.9256 LP  0  0  0  0  0  0  0  0  0  0  0  0  # atno 17370 bound_to 10713
  156.9449  130.5398  149.5281 LP  0  0  0  0  0  0  0  0  0  0  0  0  # atno 17371 bound_to 10713
  141.1826  133.8382  157.1204 LP  0  0  0  0  0  0  0  0  0  0  0  0  # atno 17394 bound_to 11000
  140.0277  134.9916  157.0718 LP  0  0  0  0  0  0  0  0  0  0  0  0  # atno 17395 bound_to 11000

$$$$
