AV-unprocessed.smi:625|AV-procd|sdf|3107|dock7
  -GOLD-   22720 0 33D 1   1.00000     0.00000
 Structure written by MMmdl.
 49 51  0  0  0  0  0  0  0  0  1 V2000
  145.8720  136.4789  150.1188 C   0  0  0  0  0  0  0  0  0  0  0  0
  146.1141  137.2677  151.3174 N   0  0  0  0  0  0  0  0  0  0  0  0
  146.7832  138.4323  151.3405 C   0  0  0  0  0  0  0  0  0  0  0  0
  147.2547  138.9274  150.3154 O   0  0  0  0  0  0  0  0  0  0  0  0
  146.8872  139.0291  152.6745 C   0  0  0  0  0  0  0  0  0  0  0  0
  146.1625  138.5238  153.8313 C   0  0  0  0  0  0  0  0  0  0  0  0
  146.2891  139.1194  155.0333 C   0  0  0  0  0  0  0  0  0  0  0  0
  147.1530  140.2867  155.2295 C   0  0  0  0  0  0  0  0  0  0  0  0
  147.2691  140.8369  156.3253 O   0  0  0  0  0  0  0  0  0  0  0  0
  147.8206  140.7255  154.1187 N   0  0  0  0  0  0  0  0  0  0  0  0
  148.7132  141.8940  154.1943 C   0  0  0  0  0  0  0  0  0  0  0  0
  149.9366  141.6393  155.0838 C   0  0  0  0  0  0  0  0  0  0  0  0
  150.6381  140.6426  154.9070 O   0  0  0  0  0  0  0  0  0  0  0  0
  150.1715  142.5533  156.0378 N   0  0  0  0  0  0  0  0  0  0  0  0
  151.3181  142.5718  156.9433 C   0  0  2  0  0  0  0  0  0  0  0  0
  151.3588  141.2516  157.7284 C   0  0  0  0  0  0  0  0  0  0  0  0
  151.2248  143.8036  157.8747 C   0  0  1  0  0  0  0  0  0  0  0  0
  150.2937  143.6279  159.0954 C   0  0  0  0  0  0  0  0  0  0  0  0
  151.1693  144.1026  160.2705 C   0  0  1  0  0  0  0  0  0  0  0  0
  152.2312  143.0295  160.5725 C   0  0  0  0  0  0  0  0  0  0  0  0
  153.1963  143.1655  159.3811 C   0  0  0  0  0  0  0  0  0  0  0  0
  152.5435  144.2795  158.5367 C   0  0  2  0  0  0  0  0  0  0  0  0
  152.0080  145.2013  159.6275 C   0  0  0  0  0  0  0  0  0  0  0  0
  147.6816  140.1011  152.8636 C   0  0  0  0  0  0  0  0  0  0  0  0
  145.3186  135.5756  150.3749 H   0  0  0  0  0  0  0  0  0  0  0  0
  146.8119  136.1821  149.6519 H   0  0  0  0  0  0  0  0  0  0  0  0
  145.2853  137.0446  149.3940 H   0  0  0  0  0  0  0  0  0  0  0  0
  145.7486  136.9086  152.1873 H   0  0  0  0  0  0  0  0  0  0  0  0
  145.5098  137.6666  153.7557 H   0  0  0  0  0  0  0  0  0  0  0  0
  145.7403  138.7272  155.8769 H   0  0  0  0  0  0  0  0  0  0  0  0
  149.0340  142.1800  153.1904 H   0  0  0  0  0  0  0  0  0  0  0  0
  148.1856  142.7651  154.5847 H   0  0  0  0  0  0  0  0  0  0  0  0
  149.5300  143.3296  156.1093 H   0  0  0  0  0  0  0  0  0  0  0  0
  152.2460  142.6382  156.3739 H   0  0  0  0  0  0  0  0  0  0  0  0
  152.2178  141.2145  158.3985 H   0  0  0  0  0  0  0  0  0  0  0  0
  151.4347  140.3979  157.0542 H   0  0  0  0  0  0  0  0  0  0  0  0
  150.4603  141.1192  158.3323 H   0  0  0  0  0  0  0  0  0  0  0  0
  150.8470  144.6377  157.2802 H   0  0  0  0  0  0  0  0  0  0  0  0
  149.4057  144.2522  158.9907 H   0  0  0  0  0  0  0  0  0  0  0  0
  149.9587  142.5992  159.2338 H   0  0  0  0  0  0  0  0  0  0  0  0
  150.5973  144.4095  161.1466 H   0  0  0  0  0  0  0  0  0  0  0  0
  152.7470  143.2439  161.5095 H   0  0  0  0  0  0  0  0  0  0  0  0
  151.8015  142.0300  160.6481 H   0  0  0  0  0  0  0  0  0  0  0  0
  154.1817  143.4802  159.7268 H   0  0  0  0  0  0  0  0  0  0  0  0
  153.3295  142.2305  158.8389 H   0  0  0  0  0  0  0  0  0  0  0  0
  153.2342  144.7585  157.8418 H   0  0  0  0  0  0  0  0  0  0  0  0
  151.4131  146.0318  159.2435 H   0  0  0  0  0  0  0  0  0  0  0  0
  152.7860  145.5937  160.2851 H   0  0  0  0  0  0  0  0  0  0  0  0
  148.2570  140.5599  152.0716 H   0  0  0  0  0  0  0  0  0  0  0  0
  1  2  1  0  0  0  0
  1 25  1  0  0  0  0
  1 26  1  0  0  0  0
  1 27  1  0  0  0  0
  2  3  1  0  0  0  0
  2 28  1  0  0  0  0
  3  4  2  0  0  0  0
  3  5  1  0  0  0  0
  5 24  2  0  0  0  0
  5  6  1  0  0  0  0
  6  7  2  0  0  0  0
  6 29  1  0  0  0  0
  7  8  1  0  0  0  0
  7 30  1  0  0  0  0
  8  9  2  0  0  0  0
  8 10  1  0  0  0  0
 10 11  1  0  0  0  0
 10 24  1  0  0  0  0
 11 12  1  0  0  0  0
 11 31  1  0  0  0  0
 11 32  1  0  0  0  0
 12 13  2  0  0  0  0
 12 14  1  0  0  0  0
 14 15  1  0  0  0  0
 14 33  1  0  0  0  0
 15 16  1  0  0  0  0
 15 17  1  0  0  0  0
 15 34  1  0  0  0  0
 16 35  1  0  0  0  0
 16 36  1  0  0  0  0
 16 37  1  0  0  0  0
 17 22  1  0  0  0  0
 17 18  1  0  0  0  0
 17 38  1  0  0  0  0
 18 19  1  0  0  0  0
 18 39  1  0  0  0  0
 18 40  1  0  0  0  0
 19 23  1  0  0  0  0
 19 20  1  0  0  0  0
 19 41  1  0  0  0  0
 20 21  1  0  0  0  0
 20 42  1  0  0  0  0
 20 43  1  0  0  0  0
 21 22  1  0  0  0  0
 21 44  1  0  0  0  0
 21 45  1  0  0  0  0
 22 23  1  0  0  0  0
 22 46  1  0  0  0  0
 23 47  1  0  0  0  0
 23 48  1  0  0  0  0
 24 49  1  0  0  0  0
M  END
> <s_m_source_file>
AV-unprocessed.smi

> <i_m_source_file_index>
625

> <i_lp_mmshare_version>
43012

> <i_f3d_flags>
0

> <s_epik_input>
W0NIM11bTkhdQyg9TyljMVtjSF1bY0hdYyg9TyluKFtjSF0xKVtDSDJdQyg9TylbTkhdW0NASF0oW0NIM10pW0NASF0oW0NIMl1bQ0BIXTIzKVtDQEhdKFtDSDJdMylbQ0gyXVtDSDJdMg==

> <s_epik_cmdline>
J2VwaWtfcHl0aG9uJywgJy1waCcsICc3LjAnLCAnLXRuJywgJzgnLCAnLW1hJywgJzIwMCcsICctbWV0YWxfYmluZGluZycsICctaW1hZScsICc8aW5maWxlLm1hZT4nLCAnLW9tYWUnLCAnPG91dGZpbGUubWFlPic=

> <r_lp_tautomer_probability>
1

> <r_epik_Ionization_Penalty>
3.7129e-07

> <r_epik_Ionization_Penalty_Charging>
5.04114e-08

> <r_epik_Ionization_Penalty_Neutral>
3.20879e-07

> <r_epik_State_Penalty>
-0

> <r_epik_Charging_Adjusted_Penalty>
5.04114e-08

> <i_epik_Tot_Q>
0

> <i_epik_Tot_abs_Q>
0

> <r_epik_Metal_State_Penalty>
-0

> <b_epik_Metal_Only>
0

> <s_lp_Force_Field>
OPLS_2005

> <r_lp_Energy>
63.4891

> <b_lp_Chiralities_Consistent>
1

> <s_lp_Variant>
AV-unprocessed.smi:625-7

> <Gold.Version>
5.8.1

> <Gold.Id.Protein>
6NUR|6NUR_protein|mol2

> <Gold.PLP.Fitness>
61.5248

> <Gold.PLP.PLP>
-50.5297

> <Gold.PLP.part.hbond>
-3.1301

> <Gold.PLP.part.metal>
0.0000

> <Gold.PLP.part.buried>
-5.2058

> <Gold.PLP.part.nonpolar>
-43.2134

> <Gold.PLP.part.repulsive>
0.6748

> <Gold.PLP.ligand.clash>
0.0000

> <Gold.PLP.ligand.torsion>
0.5327

> <Gold.PLP.Chemscore.Hbond>
3.0000

> <Gold.PLP.Chemscore.CHOScore>
1.0000

> <Gold.PLP.Chemscore.Metal>
0.0000

> <Gold.Chemscore.Hbonds>
donor molecule, donor type, donor heavy atom, donor atom, acceptor molecule, acceptor atom, score
      L1  H    14    33       P1  8028  1.00
      P1  H  7954  7966       L1     4  0.37
      P1  H  7989  7998       L1    13  0.94
      L1  C    24    49       P1  7957  0.15

> <Gold.PLP.Chemscore.Internal.Correction>
0.0604

> <Gold.Rescore>
     Score         DG    S(hbond)    S(metal)    S(lipo)     H(rot)  DE(clash)    DE(int)     intcor
     22.04     -24.52       2.43        0.00     129.92       1.67       1.29       1.19       ----

> <Gold.Chemscore.Fitness>
22.0390

> <Gold.Chemscore.DG>
-24.5189

> <Gold.Chemscore.ZeroCoef>
-5.4800

> <Gold.Chemscore.Hbond>
2.4299

> <Gold.Chemscore.Metal>
0.0000

> <Gold.Chemscore.Lipo>
129.9192

> <Gold.Chemscore.Internal_Hbond>
0.0000

> <Gold.Chemscore.DEClash>
1.2919

> <Gold.Chemscore.DEInternal>
1.1880

> <Gold.Chemscore.Rot>
1.6709

> <Gold.Chemscore.Internal.Correction>
   9.000000E+99

> <Gold.Chemscore.Hbonds>
donor molecule, donor type, donor heavy atom, donor atom, acceptor molecule, acceptor atom, score
      L1  H    14    33       P1  8028  0.96
      P1  H  7954  7966       L1     4  0.14
      P1  H  7989  7998       L1    13  0.64

> <Gold.Chemscore.Hbond.Weighted>
-8.1158

> <Gold.Chemscore.Metal.Weighted>
-0.0000

> <Gold.Chemscore.Lipo.Weighted>
-15.2006

> <Gold.Chemscore.Internal_Hbond.Weighted>
0.0000

> <Gold.Chemscore.DEClash.Weighted>
1.2919

> <Gold.Chemscore.DEInternal.Weighted>
1.1880

> <Gold.Chemscore.Rot.Weighted>
4.2774

> <Gold.Chemscore.Internal.Correction.Weighted>
   9.000000E+99

> <Gold.Protein.RotatedTorsions>
[ 6907 6896 6895 6894 ] final  162.18 input  -60.11 | X-H torsion
[ 7974 7965 7964 7962 ] final  105.52 input  175.53 | X-H torsion
[ 8008 7997 7996 7995 ] final  179.87 input   59.86 | X-H torsion
[ 10167 10162 10161 10158 ] final   84.13 input  -65.29 | X-H torsion
[ 10718 10713 10712 10709 ] final -169.72 input   66.30 | X-H torsion
[ 10763 10752 10751 10750 ] final -117.37 input  -60.55 | X-H torsion
[ 11005 11000 10999 10996 ] final  -24.65 input  -57.11 | X-H torsion

> <Gold.Protein.ActiveResidues>
 VAL166  LYS551  ARG553  GLY616  TRP617  ASP618  TYR619  PRO620  LYS621  CYS622 
 ASP623  PHE694  ASN695  SER759  ASP760  ASP761  ALA762  ILE779  LEU786  VAL792 
 PHE793  MET794  SER795  GLU796  ALA797  LYS798  CYS799  TRP800  GLU811  SER814 

> <Gold.Protein.RotatedAtoms>
  151.9444  133.3647  159.3976 H   0  0  0  0  0  0  0  0  0  0  0  0  # atno 6907 bound_to 6896
  150.6992  134.4406  159.5299 H   0  0  0  0  0  0  0  0  0  0  0  0  # atno 6908 bound_to 6896
  152.2068  134.8538  160.0552 H   0  0  0  0  0  0  0  0  0  0  0  0  # atno 6909 bound_to 6896
  145.3186  139.2519  143.3724 H   0  0  0  0  0  0  0  0  0  0  0  0  # atno 7974 bound_to 7965
  156.0385  140.1298  157.0182 H   0  0  0  0  0  0  0  0  0  0  0  0  # atno 8008 bound_to 7997
  154.4380  140.1035  156.6272 H   0  0  0  0  0  0  0  0  0  0  0  0  # atno 8009 bound_to 7997
  155.5702  140.3466  155.4515 H   0  0  0  0  0  0  0  0  0  0  0  0  # atno 8010 bound_to 7997
  139.9112  144.6270  150.8535 H   0  0  0  0  0  0  0  0  0  0  0  0  # atno 10167 bound_to 10162
  156.7157  130.9250  151.3093 H   0  0  0  0  0  0  0  0  0  0  0  0  # atno 10718 bound_to 10713
  154.8552  135.4312  154.1970 H   0  0  0  0  0  0  0  0  0  0  0  0  # atno 10763 bound_to 10752
  153.3025  135.6970  153.7196 H   0  0  0  0  0  0  0  0  0  0  0  0  # atno 10764 bound_to 10752
  153.6320  135.3483  155.3019 H   0  0  0  0  0  0  0  0  0  0  0  0  # atno 10765 bound_to 10752
  140.8865  133.7618  156.0367 H   0  0  0  0  0  0  0  0  0  0  0  0  # atno 11005 bound_to 11000
  146.3091  140.3738  142.8677 LP  0  0  0  0  0  0  0  0  0  0  0  0  # atno 17320 bound_to 7965
  144.8958  140.7581  143.5898 LP  0  0  0  0  0  0  0  0  0  0  0  0  # atno 17321 bound_to 7965
  140.7685  143.3364  151.2300 LP  0  0  0  0  0  0  0  0  0  0  0  0  # atno 17342 bound_to 10162
  139.6941  143.9643  152.2874 LP  0  0  0  0  0  0  0  0  0  0  0  0  # atno 17343 bound_to 10162
  157.6918  130.9241  150.0535 LP  0  0  0  0  0  0  0  0  0  0  0  0  # atno 17370 bound_to 10713
  156.1630  130.3644  149.9273 LP  0  0  0  0  0  0  0  0  0  0  0  0  # atno 17371 bound_to 10713
  140.8399  134.3079  157.5317 LP  0  0  0  0  0  0  0  0  0  0  0  0  # atno 17394 bound_to 11000
  139.8725  134.9410  156.3785 LP  0  0  0  0  0  0  0  0  0  0  0  0  # atno 17395 bound_to 11000

$$$$
