AV-unprocessed.smi:1813|AV-procd|sdf|7340|dock2
  -GOLD-   22720 9 03D 1   1.00000     0.00000
 Structure written by MMmdl.
 39 40  0  0  0  0  0  0  0  0  1 V2000
  143.7371  136.8347  152.6796 C   0  0  0  0  0  0  0  0  0  0  0  0
  144.6830  137.7960  152.1348 N   0  0  0  0  0  0  0  0  0  0  0  0
  145.9465  137.9360  152.5612 C   0  0  0  0  0  0  0  0  0  0  0  0
  146.4359  137.2546  153.4620 O   0  0  0  0  0  0  0  0  0  0  0  0
  146.7949  139.0037  151.8601 C   0  0  0  0  0  0  0  0  0  0  0  0
  147.4092  139.9951  152.7723 N   0  0  0  0  0  0  0  0  0  0  0  0
  148.4440  139.3341  153.5747 C   0  0  0  0  0  0  0  0  0  0  0  0
  149.1940  140.3564  154.4458 C   0  0  0  0  0  0  0  0  0  0  0  0
  148.2257  141.1091  155.3720 C   0  0  0  0  0  0  0  0  0  0  0  0
  148.9193  142.1639  156.1049 N   0  0  0  0  0  0  0  0  0  0  0  0
  149.6810  141.9756  157.1924 C   0  0  0  0  0  0  0  0  0  0  0  0
  149.8780  140.8712  157.7007 O   0  0  0  0  0  0  0  0  0  0  0  0
  150.1885  143.1381  157.6378 N   0  0  0  0  0  0  0  0  0  0  0  0
  151.0391  143.3546  158.7536 C   0  0  0  0  0  0  0  0  0  0  0  0
  151.3986  142.4044  159.6248 N   0  0  0  0  0  0  0  0  0  0  0  0
  152.2412  142.8998  160.6232 C   0  0  0  0  0  0  0  0  0  0  0  0
  152.5154  144.2387  160.4955 C   0  0  0  0  0  0  0  0  0  0  0  0
  151.7222  144.9348  159.1077 S   0  0  0  0  0  0  0  0  0  0  0  0
  147.0975  141.7139  154.5248 C   0  0  0  0  0  0  0  0  0  0  0  0
  146.4224  140.6440  153.6484 C   0  0  0  0  0  0  0  0  0  0  0  0
  142.7986  136.8825  152.1271 H   0  0  0  0  0  0  0  0  0  0  0  0
  143.5276  137.0507  153.7279 H   0  0  0  0  0  0  0  0  0  0  0  0
  144.1259  135.8183  152.6039 H   0  0  0  0  0  0  0  0  0  0  0  0
  144.3587  138.3926  151.3876 H   0  0  0  0  0  0  0  0  0  0  0  0
  147.5716  138.5242  151.2609 H   0  0  0  0  0  0  0  0  0  0  0  0
  146.1381  139.5180  151.1569 H   0  0  0  0  0  0  0  0  0  0  0  0
  148.0020  138.5573  154.2015 H   0  0  0  0  0  0  0  0  0  0  0  0
  149.1618  138.8408  152.9180 H   0  0  0  0  0  0  0  0  0  0  0  0
  149.9571  139.8457  155.0342 H   0  0  0  0  0  0  0  0  0  0  0  0
  149.7212  141.0630  153.8027 H   0  0  0  0  0  0  0  0  0  0  0  0
  147.7848  140.4049  156.0803 H   0  0  0  0  0  0  0  0  0  0  0  0
  148.8144  143.1044  155.7537 H   0  0  0  0  0  0  0  0  0  0  0  0
  149.9363  143.9659  157.1184 H   0  0  0  0  0  0  0  0  0  0  0  0
  152.6006  142.2270  161.3878 H   0  0  0  0  0  0  0  0  0  0  0  0
  153.1337  144.8548  161.1312 H   0  0  0  0  0  0  0  0  0  0  0  0
  146.3544  142.1813  155.1719 H   0  0  0  0  0  0  0  0  0  0  0  0
  147.4930  142.5054  153.8859 H   0  0  0  0  0  0  0  0  0  0  0  0
  145.6433  141.1325  153.0634 H   0  0  0  0  0  0  0  0  0  0  0  0
  145.9274  139.8990  154.2739 H   0  0  0  0  0  0  0  0  0  0  0  0
  1  2  1  0  0  0  0
  1 21  1  0  0  0  0
  1 22  1  0  0  0  0
  1 23  1  0  0  0  0
  2  3  1  0  0  0  0
  2 24  1  0  0  0  0
  3  4  2  0  0  0  0
  3  5  1  0  0  0  0
  5  6  1  0  0  0  0
  5 25  1  0  0  0  0
  5 26  1  0  0  0  0
  6 20  1  0  0  0  0
  6  7  1  0  0  0  0
  7  8  1  0  0  0  0
  7 27  1  0  0  0  0
  7 28  1  0  0  0  0
  8  9  1  0  0  0  0
  8 29  1  0  0  0  0
  8 30  1  0  0  0  0
  9 10  1  0  0  0  0
  9 19  1  0  0  0  0
  9 31  1  0  0  0  0
 10 11  1  0  0  0  0
 10 32  1  0  0  0  0
 11 12  2  0  0  0  0
 11 13  1  0  0  0  0
 13 14  1  0  0  0  0
 13 33  1  0  0  0  0
 14 18  1  0  0  0  0
 14 15  2  0  0  0  0
 15 16  1  0  0  0  0
 16 17  2  0  0  0  0
 16 34  1  0  0  0  0
 17 18  1  0  0  0  0
 17 35  1  0  0  0  0
 19 20  1  0  0  0  0
 19 36  1  0  0  0  0
 19 37  1  0  0  0  0
 20 38  1  0  0  0  0
 20 39  1  0  0  0  0
M  END
> <s_m_source_file>
AV-unprocessed.smi

> <i_m_source_file_index>
1813

> <i_lp_mmshare_version>
43012

> <i_f3d_flags>
0

> <s_epik_input>
W0NIM11bTkhdQyg9TylbQ0gyXU4xW0NIMl1bQ0gyXVtDSF0oW0NIMl1bQ0gyXTEpW05IXUMoPU8pW05IXWMybltjSF1bY0hdczI=

> <s_epik_cmdline>
J2VwaWtfcHl0aG9uJywgJy1waCcsICc3LjAnLCAnLXRuJywgJzgnLCAnLW1hJywgJzIwMCcsICctbWV0YWxfYmluZGluZycsICctaW1hZScsICc8aW5maWxlLm1hZT4nLCAnLW9tYWUnLCAnPG91dGZpbGUubWFlPic=

> <r_lp_tautomer_probability>
0.999

> <r_epik_Ionization_Penalty>
0.157547

> <r_epik_Ionization_Penalty_Charging>
0

> <r_epik_Ionization_Penalty_Neutral>
0.157547

> <r_epik_State_Penalty>
0.146692

> <r_epik_Charging_Adjusted_Penalty>
0.146692

> <i_epik_Tot_Q>
0

> <i_epik_Tot_abs_Q>
0

> <r_epik_Metal_State_Penalty>
0.184536

> <b_epik_Metal_Only>
0

> <s_lp_Force_Field>
OPLS_2005

> <r_lp_Energy>
12.1503

> <b_lp_Chiralities_Consistent>
1

> <s_lp_Variant>
AV-unprocessed.smi:1813-1

> <Gold.Version>
5.8.1

> <Gold.Id.Protein>
6NUR|6NUR_protein|mol2

> <Gold.PLP.Fitness>
41.9114

> <Gold.PLP.PLP>
-33.6977

> <Gold.PLP.part.hbond>
-4.5335

> <Gold.PLP.part.metal>
0.0000

> <Gold.PLP.part.buried>
-0.9026

> <Gold.PLP.part.nonpolar>
-31.3549

> <Gold.PLP.part.repulsive>
3.1573

> <Gold.PLP.ligand.clash>
0.0000

> <Gold.PLP.ligand.torsion>
0.3365

> <Gold.PLP.Chemscore.Hbond>
2.9600

> <Gold.PLP.Chemscore.CHOScore>
0.0000

> <Gold.PLP.Chemscore.Metal>
0.0000

> <Gold.Chemscore.Hbonds>
donor molecule, donor type, donor heavy atom, donor atom, acceptor molecule, acceptor atom, score
      L1  H     2    24       P1 10171  1.00
      L1  H    10    32       P1  8028  1.00
      L1  H    13    33       P1  8028  0.96

> <Gold.PLP.Chemscore.Internal.Correction>
0.0066

> <Gold.Rescore>
     Score         DG    S(hbond)    S(metal)    S(lipo)     H(rot)  DE(clash)    DE(int)     intcor
     14.88     -19.92       2.87        0.00      80.15       1.76       2.11       2.93       ----

> <Gold.Chemscore.Fitness>
14.8821

> <Gold.Chemscore.DG>
-19.9226

> <Gold.Chemscore.ZeroCoef>
-5.4800

> <Gold.Chemscore.Hbond>
2.8661

> <Gold.Chemscore.Metal>
0.0000

> <Gold.Chemscore.Lipo>
80.1540

> <Gold.Chemscore.Internal_Hbond>
0.0000

> <Gold.Chemscore.DEClash>
2.1099

> <Gold.Chemscore.DEInternal>
2.9305

> <Gold.Chemscore.Rot>
1.7610

> <Gold.Chemscore.Internal.Correction>
   9.000000E+99

> <Gold.Chemscore.Hbonds>
donor molecule, donor type, donor heavy atom, donor atom, acceptor molecule, acceptor atom, score
      L1  H     2    24       P1 10171  0.95
      L1  H    10    32       P1  8028  0.99
      L1  H    13    33       P1  8028  0.81

> <Gold.Chemscore.Hbond.Weighted>
-9.5728

> <Gold.Chemscore.Metal.Weighted>
-0.0000

> <Gold.Chemscore.Lipo.Weighted>
-9.3780

> <Gold.Chemscore.Internal_Hbond.Weighted>
0.0000

> <Gold.Chemscore.DEClash.Weighted>
2.1099

> <Gold.Chemscore.DEInternal.Weighted>
2.9305

> <Gold.Chemscore.Rot.Weighted>
4.5082

> <Gold.Chemscore.Internal.Correction.Weighted>
   9.000000E+99

> <Gold.Protein.RotatedTorsions>
[ 6907 6896 6895 6894 ] final   -4.44 input  -60.11 | X-H torsion
[ 7974 7965 7964 7962 ] final   40.26 input  175.53 | X-H torsion
[ 8008 7997 7996 7995 ] final   89.87 input   59.86 | X-H torsion
[ 10167 10162 10161 10158 ] final  -53.23 input  -65.29 | X-H torsion
[ 10718 10713 10712 10709 ] final  175.30 input   66.30 | X-H torsion
[ 10763 10752 10751 10750 ] final   65.28 input  -60.55 | X-H torsion
[ 11005 11000 10999 10996 ] final  -39.46 input  -57.11 | X-H torsion

> <Gold.Protein.ActiveResidues>
 VAL166  LYS551  ARG553  GLY616  TRP617  ASP618  TYR619  PRO620  LYS621  CYS622 
 ASP623  PHE694  ASN695  SER759  ASP760  ASP761  ALA762  ILE779  LEU786  VAL792 
 PHE793  MET794  SER795  GLU796  ALA797  LYS798  CYS799  TRP800  GLU811  SER814 

> <Gold.Protein.RotatedAtoms>
  151.4977  135.1060  159.9820 H   0  0  0  0  0  0  0  0  0  0  0  0  # atno 6907 bound_to 6896
  152.4715  133.8036  159.6976 H   0  0  0  0  0  0  0  0  0  0  0  0  # atno 6908 bound_to 6896
  150.8727  133.7420  159.2982 H   0  0  0  0  0  0  0  0  0  0  0  0  # atno 6909 bound_to 6896
  146.0918  139.5553  142.9470 H   0  0  0  0  0  0  0  0  0  0  0  0  # atno 7974 bound_to 7965
  156.0051  140.3356  155.6885 H   0  0  0  0  0  0  0  0  0  0  0  0  # atno 8008 bound_to 7997
  155.6235  140.0677  157.2688 H   0  0  0  0  0  0  0  0  0  0  0  0  # atno 8009 bound_to 7997
  154.4262  140.1772  156.1385 H   0  0  0  0  0  0  0  0  0  0  0  0  # atno 8010 bound_to 7997
  140.6496  143.2557  151.4762 H   0  0  0  0  0  0  0  0  0  0  0  0  # atno 10167 bound_to 10162
  156.9369  130.9989  151.2976 H   0  0  0  0  0  0  0  0  0  0  0  0  # atno 10718 bound_to 10713
  153.0090  135.5362  154.6642 H   0  0  0  0  0  0  0  0  0  0  0  0  # atno 10763 bound_to 10752
  154.5843  135.2853  155.0703 H   0  0  0  0  0  0  0  0  0  0  0  0  # atno 10764 bound_to 10752
  154.1820  135.6514  153.5089 H   0  0  0  0  0  0  0  0  0  0  0  0  # atno 10765 bound_to 10752
  141.0103  133.6911  156.2190 H   0  0  0  0  0  0  0  0  0  0  0  0  # atno 11005 bound_to 11000
  145.6023  141.0353  143.2011 LP  0  0  0  0  0  0  0  0  0  0  0  0  # atno 17320 bound_to 7965
  144.7366  139.7568  143.7327 LP  0  0  0  0  0  0  0  0  0  0  0  0  # atno 17321 bound_to 7965
  139.5709  144.1930  152.1835 LP  0  0  0  0  0  0  0  0  0  0  0  0  # atno 17342 bound_to 10162
  140.1226  144.5360  150.6853 LP  0  0  0  0  0  0  0  0  0  0  0  0  # atno 17343 bound_to 10162
  157.5810  130.8376  149.8523 LP  0  0  0  0  0  0  0  0  0  0  0  0  # atno 17370 bound_to 10713
  156.0422  130.3736  150.1407 LP  0  0  0  0  0  0  0  0  0  0  0  0  # atno 17371 bound_to 10713
  140.6744  134.4834  157.5588 LP  0  0  0  0  0  0  0  0  0  0  0  0  # atno 17394 bound_to 11000
  139.9086  134.8393  156.1611 LP  0  0  0  0  0  0  0  0  0  0  0  0  # atno 17395 bound_to 11000

$$$$
