AV-unprocessed.smi:148|AV-procd|sdf|1221|dock2
  -GOLD-   2262018413D 1   1.00000     0.00000
 Structure written by MMmdl.
 63 67  0  0  0  0  0  0  0  0  1 V2000
  143.1423  142.9254  157.2658 O   0  0  0  0  0  0  0  0  0  0  0  0
  144.3280  143.6863  157.3647 C   0  0  0  0  0  0  0  0  0  0  0  0
  145.0132  143.8451  155.9845 C   0  0  1  0  0  0  0  0  0  0  0  0
  145.5248  142.4924  155.4214 C   0  0  0  0  0  0  0  0  0  0  0  0
  146.5776  141.8997  156.2270 N   0  0  0  0  0  0  0  0  0  0  0  0
  146.5497  141.6811  157.5852 C   0  0  0  0  0  0  0  0  0  0  0  0
  147.6217  141.1246  158.0797 N   0  0  0  0  0  0  0  0  0  0  0  0
  148.4505  140.9441  156.9783 C   0  0  0  0  0  0  0  0  0  0  0  0
  149.7481  140.3888  156.7846 C   0  0  0  0  0  0  0  0  0  0  0  0
  150.5243  139.8611  157.7597 N   0  0  0  0  0  0  0  0  0  0  0  0
  150.8389  138.4706  157.4263 C   0  0  0  0  0  0  0  0  0  0  0  0
  151.5064  137.7427  158.6003 C   0  0  0  0  0  0  0  0  0  0  0  0
  152.7417  138.5150  159.0739 C   0  0  0  0  0  0  0  0  0  0  0  0
  152.3423  139.9507  159.4356 C   0  0  0  0  0  0  0  0  0  0  0  0
  151.6602  140.6699  158.2418 C   0  0  2  0  0  0  0  0  0  0  0  0
  151.2929  142.1577  158.5528 C   0  0  2  0  0  0  0  0  0  0  0  0
  151.3091  143.0836  157.3167 C   0  0  0  0  0  0  0  0  0  0  0  0
  151.9657  144.3992  157.7570 C   0  0  0  0  0  0  0  0  0  0  0  0
  151.9599  144.3665  159.2836 C   0  0  0  0  0  0  0  0  0  0  0  0
  152.1461  142.8865  159.6118 C   0  0  1  0  0  0  0  0  0  0  0  0
  151.7291  142.6118  160.9326 O   0  0  0  0  0  0  0  0  0  0  0  0
  150.2659  140.4070  155.5314 N   0  0  0  0  0  0  0  0  0  0  0  0
  149.5511  140.9067  154.5190 C   0  0  0  0  0  0  0  0  0  0  0  0
  148.3264  141.4363  154.5434 N   0  0  0  0  0  0  0  0  0  0  0  0
  147.8124  141.4387  155.8066 C   0  0  0  0  0  0  0  0  0  0  0  0
  144.1130  144.6313  154.9893 C   0  0  1  0  0  0  0  0  0  0  0  0
  143.5596  145.9611  155.4694 C   0  0  0  0  0  0  0  0  0  0  0  0
  143.0560  146.5616  154.1618 C   0  0  0  0  0  0  0  0  0  0  0  0
  143.9881  146.1387  153.1716 O   0  0  0  0  0  0  0  0  0  0  0  0
  144.7428  145.0261  153.6482 C   0  0  0  0  0  0  0  0  0  0  0  0
  143.3682  142.0089  157.3157 H   0  0  0  0  0  0  0  0  0  0  0  0
  144.0438  144.6519  157.7818 H   0  0  0  0  0  0  0  0  0  0  0  0
  145.0013  143.2173  158.0826 H   0  0  0  0  0  0  0  0  0  0  0  0
  145.9007  144.4586  156.1486 H   0  0  0  0  0  0  0  0  0  0  0  0
  144.7133  141.7701  155.3434 H   0  0  0  0  0  0  0  0  0  0  0  0
  145.9251  142.6172  154.4161 H   0  0  0  0  0  0  0  0  0  0  0  0
  145.7014  141.9453  158.2000 H   0  0  0  0  0  0  0  0  0  0  0  0
  149.9305  137.9366  157.1422 H   0  0  0  0  0  0  0  0  0  0  0  0
  151.5007  138.4516  156.5587 H   0  0  0  0  0  0  0  0  0  0  0  0
  150.7956  137.6419  159.4215 H   0  0  0  0  0  0  0  0  0  0  0  0
  151.7856  136.7316  158.3031 H   0  0  0  0  0  0  0  0  0  0  0  0
  153.1877  138.0189  159.9362 H   0  0  0  0  0  0  0  0  0  0  0  0
  153.4994  138.5258  158.2894 H   0  0  0  0  0  0  0  0  0  0  0  0
  151.6697  139.9049  160.2912 H   0  0  0  0  0  0  0  0  0  0  0  0
  153.2271  140.4906  159.7690 H   0  0  0  0  0  0  0  0  0  0  0  0
  152.3927  140.6875  157.4348 H   0  0  0  0  0  0  0  0  0  0  0  0
  150.2604  142.2032  158.9000 H   0  0  0  0  0  0  0  0  0  0  0  0
  151.8420  142.6593  156.4671 H   0  0  0  0  0  0  0  0  0  0  0  0
  150.2875  143.2629  156.9790 H   0  0  0  0  0  0  0  0  0  0  0  0
  152.9961  144.4274  157.4000 H   0  0  0  0  0  0  0  0  0  0  0  0
  151.4551  145.2759  157.3577 H   0  0  0  0  0  0  0  0  0  0  0  0
  152.7349  144.9967  159.7211 H   0  0  0  0  0  0  0  0  0  0  0  0
  150.9946  144.7186  159.6514 H   0  0  0  0  0  0  0  0  0  0  0  0
  153.2026  142.6446  159.5146 H   0  0  0  0  0  0  0  0  0  0  0  0
  152.4030  142.9051  161.5275 H   0  0  0  0  0  0  0  0  0  0  0  0
  150.0276  140.8757  153.5503 H   0  0  0  0  0  0  0  0  0  0  0  0
  143.2444  144.0103  154.7629 H   0  0  0  0  0  0  0  0  0  0  0  0
  142.7742  145.8555  156.2182 H   0  0  0  0  0  0  0  0  0  0  0  0
  144.3399  146.6029  155.8763 H   0  0  0  0  0  0  0  0  0  0  0  0
  142.0730  146.1602  153.9117 H   0  0  0  0  0  0  0  0  0  0  0  0
  142.9788  147.6484  154.2007 H   0  0  0  0  0  0  0  0  0  0  0  0
  145.7771  145.3476  153.7603 H   0  0  0  0  0  0  0  0  0  0  0  0
  144.7247  144.2061  152.9298 H   0  0  0  0  0  0  0  0  0  0  0  0
  1  2  1  0  0  0  0
  1 31  1  0  0  0  0
  2  3  1  0  0  0  0
  2 32  1  0  0  0  0
  2 33  1  0  0  0  0
  3  4  1  0  0  0  0
  3 26  1  0  0  0  0
  3 34  1  0  0  0  0
  4  5  1  0  0  0  0
  4 35  1  0  0  0  0
  4 36  1  0  0  0  0
  5 25  1  0  0  0  0
  5  6  1  0  0  0  0
  6  7  2  0  0  0  0
  6 37  1  0  0  0  0
  7  8  1  0  0  0  0
  8 25  2  0  0  0  0
  8  9  1  0  0  0  0
  9 10  1  0  0  0  0
  9 22  2  0  0  0  0
 10 15  1  0  0  0  0
 10 11  1  0  0  0  0
 11 12  1  0  0  0  0
 11 38  1  0  0  0  0
 11 39  1  0  0  0  0
 12 13  1  0  0  0  0
 12 40  1  0  0  0  0
 12 41  1  0  0  0  0
 13 14  1  0  0  0  0
 13 42  1  0  0  0  0
 13 43  1  0  0  0  0
 14 15  1  0  0  0  0
 14 44  1  0  0  0  0
 14 45  1  0  0  0  0
 15 16  1  0  0  0  0
 15 46  1  0  0  0  0
 16 20  1  0  0  0  0
 16 17  1  0  0  0  0
 16 47  1  0  0  0  0
 17 18  1  0  0  0  0
 17 48  1  0  0  0  0
 17 49  1  0  0  0  0
 18 19  1  0  0  0  0
 18 50  1  0  0  0  0
 18 51  1  0  0  0  0
 19 20  1  0  0  0  0
 19 52  1  0  0  0  0
 19 53  1  0  0  0  0
 20 21  1  0  0  0  0
 20 54  1  0  0  0  0
 21 55  1  0  0  0  0
 22 23  1  0  0  0  0
 23 24  2  0  0  0  0
 23 56  1  0  0  0  0
 24 25  1  0  0  0  0
 26 30  1  0  0  0  0
 26 27  1  0  0  0  0
 26 57  1  0  0  0  0
 27 28  1  0  0  0  0
 27 58  1  0  0  0  0
 27 59  1  0  0  0  0
 28 29  1  0  0  0  0
 28 60  1  0  0  0  0
 28 61  1  0  0  0  0
 29 30  1  0  0  0  0
 30 62  1  0  0  0  0
 30 63  1  0  0  0  0
M  END
> <s_m_source_file>
AV-unprocessed.smi

> <i_m_source_file_index>
148

> <i_lp_mmshare_version>
43012

> <i_f3d_flags>
0

> <s_epik_input>
W0NIMl0xT1tDSDJdW0NIMl1bQ0BIXTFbQ0BIXShbQ0gyXVtPSF0pW0NIMl1uKFtjSF1uMiljKGMyMyluW2NIXW5jM040W0NIMl1bQ0gyXVtDSDJdW0NIMl1bQ0BIXTRbQ0BASF01W0NIMl1bQ0gyXVtDSDJdW0NASF01W09IXQ==

> <s_epik_cmdline>
J2VwaWtfcHl0aG9uJywgJy1waCcsICc3LjAnLCAnLXRuJywgJzgnLCAnLW1hJywgJzIwMCcsICctbWV0YWxfYmluZGluZycsICctaW1hZScsICc8aW5maWxlLm1hZT4nLCAnLW9tYWUnLCAnPG91dGZpbGUubWFlPic=

> <r_lp_tautomer_probability>
1

> <r_epik_Ionization_Penalty>
0.00556303

> <r_epik_Ionization_Penalty_Charging>
0

> <r_epik_Ionization_Penalty_Neutral>
0.00556303

> <r_epik_State_Penalty>
0.00401767

> <r_epik_Charging_Adjusted_Penalty>
0.00401767

> <i_epik_Tot_Q>
0

> <i_epik_Tot_abs_Q>
0

> <r_epik_Metal_State_Penalty>
-0

> <b_epik_Metal_Only>
0

> <s_lp_Force_Field>
OPLS_2005

> <r_lp_Energy>
68.4806

> <b_lp_Chiralities_Consistent>
1

> <s_lp_Variant>
AV-unprocessed.smi:148-20

> <Gold.Version>
5.8.1

> <Gold.Id.Protein>
6NUR|6NUR_protein|mol2

> <Gold.PLP.Fitness>
53.0086

> <Gold.PLP.PLP>
-51.0194

> <Gold.PLP.part.hbond>
-3.6904

> <Gold.PLP.part.metal>
0.0000

> <Gold.PLP.part.buried>
-7.9379

> <Gold.PLP.part.nonpolar>
-39.8288

> <Gold.PLP.part.repulsive>
0.3161

> <Gold.PLP.ligand.clash>
0.0000

> <Gold.PLP.ligand.torsion>
1.0454

> <Gold.PLP.Chemscore.Hbond>
0.1037

> <Gold.PLP.Chemscore.CHOScore>
1.0000

> <Gold.PLP.Chemscore.Metal>
0.0000

> <Gold.Chemscore.Hbonds>
donor molecule, donor type, donor heavy atom, donor atom, acceptor molecule, acceptor atom, score
      P1  H  6933  6945       L1    21  0.13
      L1  C    23    56       P1  7957  0.93

> <Gold.PLP.Chemscore.Internal.Correction>
0.7688

> <Gold.Rescore>
     Score         DG    S(hbond)    S(metal)    S(lipo)     H(rot)  DE(clash)    DE(int)     intcor
      9.55     -11.97       0.49        0.00     113.99       3.32       0.18       2.24       ----

> <Gold.Chemscore.Fitness>
9.5490

> <Gold.Chemscore.DG>
-11.9665

> <Gold.Chemscore.ZeroCoef>
-5.4800

> <Gold.Chemscore.Hbond>
0.4940

> <Gold.Chemscore.Metal>
0.0000

> <Gold.Chemscore.Lipo>
113.9868

> <Gold.Chemscore.Internal_Hbond>
0.0000

> <Gold.Chemscore.DEClash>
0.1820

> <Gold.Chemscore.DEInternal>
2.2355

> <Gold.Chemscore.Rot>
3.3203

> <Gold.Chemscore.Internal.Correction>
   9.000000E+99

> <Gold.Chemscore.Hbonds>
donor molecule, donor type, donor heavy atom, donor atom, acceptor molecule, acceptor atom, score
      P1  H  6933  6945       L1    21  0.08

> <Gold.Chemscore.Hbond.Weighted>
-1.6500

> <Gold.Chemscore.Metal.Weighted>
-0.0000

> <Gold.Chemscore.Lipo.Weighted>
-13.3365

> <Gold.Chemscore.Internal_Hbond.Weighted>
0.0000

> <Gold.Chemscore.DEClash.Weighted>
0.1820

> <Gold.Chemscore.DEInternal.Weighted>
2.2355

> <Gold.Chemscore.Rot.Weighted>
8.5000

> <Gold.Chemscore.Internal.Correction.Weighted>
   9.000000E+99

> <Gold.Protein.RotatedTorsions>
[ 6907 6896 6895 6894 ] final  -54.38 input  -60.11 | X-H torsion
[ 7974 7965 7964 7962 ] final  -51.81 input  175.53 | X-H torsion
[ 8008 7997 7996 7995 ] final  -52.76 input   59.86 | X-H torsion
[ 10167 10162 10161 10158 ] final   66.81 input  -65.29 | X-H torsion
[ 10718 10713 10712 10709 ] final -146.73 input   66.30 | X-H torsion
[ 10763 10752 10751 10750 ] final   27.75 input  -60.55 | X-H torsion
[ 11005 11000 10999 10996 ] final  149.06 input  -57.11 | X-H torsion

> <Gold.Protein.ActiveResidues>
 VAL166  LYS551  ARG553  GLY616  TRP617  ASP618  TYR619  PRO620  LYS621  CYS622 
 ASP623  PHE694  ASN695  SER759  ASP760  ASP761  ALA762  ILE779  LEU786  VAL792 
 PHE793  MET794  SER795  GLU796  ALA797  LYS798  CYS799  TRP800  GLU811  SER814 

> <Gold.Protein.RotatedAtoms>
  150.8343  134.7610  159.6879 H   0  0  0  0  0  0  0  0  0  0  0  0  # atno 6907 bound_to 6896
  152.4443  134.5524  159.9880 H   0  0  0  0  0  0  0  0  0  0  0  0  # atno 6908 bound_to 6896
  151.5678  133.3356  159.3019 H   0  0  0  0  0  0  0  0  0  0  0  0  # atno 6909 bound_to 6896
  145.9149  140.7884  142.9677 H   0  0  0  0  0  0  0  0  0  0  0  0  # atno 7974 bound_to 7965
  154.4115  140.1216  156.5044 H   0  0  0  0  0  0  0  0  0  0  0  0  # atno 8008 bound_to 7997
  155.6862  140.3496  155.4855 H   0  0  0  0  0  0  0  0  0  0  0  0  # atno 8009 bound_to 7997
  155.9509  140.1104  157.0968 H   0  0  0  0  0  0  0  0  0  0  0  0  # atno 8010 bound_to 7997
  140.0964  144.4943  150.7065 H   0  0  0  0  0  0  0  0  0  0  0  0  # atno 10167 bound_to 10162
  156.3986  130.7922  151.2131 H   0  0  0  0  0  0  0  0  0  0  0  0  # atno 10718 bound_to 10713
  153.0535  135.6529  154.0634 H   0  0  0  0  0  0  0  0  0  0  0  0  # atno 10763 bound_to 10752
  154.0317  135.2911  155.3369 H   0  0  0  0  0  0  0  0  0  0  0  0  # atno 10764 bound_to 10752
  154.6838  135.5310  153.8365 H   0  0  0  0  0  0  0  0  0  0  0  0  # atno 10765 bound_to 10752
  140.1013  134.8982  157.1799 H   0  0  0  0  0  0  0  0  0  0  0  0  # atno 11005 bound_to 11000
  144.6747  140.1883  143.7399 LP  0  0  0  0  0  0  0  0  0  0  0  0  # atno 17320 bound_to 7965
  145.8625  139.2230  143.1708 LP  0  0  0  0  0  0  0  0  0  0  0  0  # atno 17321 bound_to 7965
  140.7001  143.2429  151.4888 LP  0  0  0  0  0  0  0  0  0  0  0  0  # atno 17342 bound_to 10162
  139.5696  144.1960  152.1816 LP  0  0  0  0  0  0  0  0  0  0  0  0  # atno 17343 bound_to 10162
  157.7503  131.0294  150.4090 LP  0  0  0  0  0  0  0  0  0  0  0  0  # atno 17370 bound_to 10713
  156.4365  130.3983  149.6725 LP  0  0  0  0  0  0  0  0  0  0  0  0  # atno 17371 bound_to 10713
  140.3217  134.2909  155.7245 LP  0  0  0  0  0  0  0  0  0  0  0  0  # atno 17394 bound_to 11000
  141.2106  133.7714  156.9919 LP  0  0  0  0  0  0  0  0  0  0  0  0  # atno 17395 bound_to 11000

$$$$
