AV-unprocessed.smi:12|AV-procd|sdf|62|dock5
  -GOLD-   2262015183D 1   1.00000     0.00000
 Structure written by MMmdl.
 41 44  0  0  0  0  0  0  0  0  1 V2000
  144.9955  143.2705  156.2919 C   0  0  0  0  0  0  0  0  0  0  0  0
  145.6533  142.0275  155.7200 C   0  0  0  0  0  0  0  0  0  0  0  0
  146.8304  142.0870  155.0533 C   0  0  0  0  0  0  0  0  0  0  0  0
  147.3826  140.9366  154.5633 N   0  0  0  0  0  0  0  0  0  0  0  0
  146.7168  139.7082  154.7472 C   0  0  0  0  0  0  0  0  0  0  0  0
  145.5900  139.5667  155.3733 N   0  0  0  0  0  0  0  0  0  0  0  0
  144.9791  140.7179  155.9064 C   0  0  0  0  0  0  0  0  0  0  0  0
  143.9104  140.6349  156.5102 O   0  0  0  0  0  0  0  0  0  0  0  0
  147.4475  138.7239  154.1580 O   0  0  0  0  0  0  0  0  0  0  0  0
  148.5957  139.2822  153.4952 C   0  0  2  0  0  0  0  0  0  0  0  0
  149.9062  138.8003  154.1025 C   0  0  2  0  0  0  0  0  0  0  0  0
  149.8672  137.4261  154.4312 O   0  0  0  0  0  0  0  0  0  0  0  0
  150.0982  139.7459  155.2878 C   0  0  1  0  0  0  0  0  0  0  0  0
  151.5423  139.8505  155.7944 C   0  0  0  0  0  0  0  0  0  0  0  0
  151.5719  140.6222  156.9841 O   0  0  0  0  0  0  0  0  0  0  0  0
  152.5253  140.4017  157.9099 C   0  0  0  0  0  0  0  0  0  0  0  0
  153.2860  139.4321  157.8883 O   0  0  0  0  0  0  0  0  0  0  0  0
  152.5630  141.4555  158.9651 C   0  0  0  0  0  0  0  0  0  0  0  0
  153.3813  141.2671  160.1035 C   0  0  0  0  0  0  0  0  0  0  0  0
  153.4376  142.2441  161.1164 C   0  0  0  0  0  0  0  0  0  0  0  0
  152.6754  143.4213  161.0036 C   0  0  0  0  0  0  0  0  0  0  0  0
  151.8572  143.6207  159.8765 C   0  0  0  0  0  0  0  0  0  0  0  0
  151.7998  142.6451  158.8621 C   0  0  0  0  0  0  0  0  0  0  0  0
  149.6987  140.9904  154.7203 O   0  0  0  0  0  0  0  0  0  0  0  0
  148.6402  140.7907  153.8260 C   0  0  2  0  0  0  0  0  0  0  0  0
  145.5869  144.1632  156.0862 H   0  0  0  0  0  0  0  0  0  0  0  0
  144.8863  143.1795  157.3731 H   0  0  0  0  0  0  0  0  0  0  0  0
  144.0065  143.4137  155.8558 H   0  0  0  0  0  0  0  0  0  0  0  0
  147.3413  143.0276  154.9077 H   0  0  0  0  0  0  0  0  0  0  0  0
  148.5387  139.1190  152.4184 H   0  0  0  0  0  0  0  0  0  0  0  0
  150.7101  138.9604  153.3822 H   0  0  0  0  0  0  0  0  0  0  0  0
  149.5379  136.9478  153.6854 H   0  0  0  0  0  0  0  0  0  0  0  0
  149.4200  139.4943  156.1053 H   0  0  0  0  0  0  0  0  0  0  0  0
  151.9546  138.8568  155.9755 H   0  0  0  0  0  0  0  0  0  0  0  0
  152.1655  140.3317  155.0393 H   0  0  0  0  0  0  0  0  0  0  0  0
  153.9757  140.3713  160.2123 H   0  0  0  0  0  0  0  0  0  0  0  0
  154.0664  142.0896  161.9807 H   0  0  0  0  0  0  0  0  0  0  0  0
  152.7186  144.1702  161.7808 H   0  0  0  0  0  0  0  0  0  0  0  0
  151.2718  144.5241  159.7890 H   0  0  0  0  0  0  0  0  0  0  0  0
  151.1611  142.8306  158.0108 H   0  0  0  0  0  0  0  0  0  0  0  0
  148.5899  141.4834  152.9854 H   0  0  0  0  0  0  0  0  0  0  0  0
  1  2  1  0  0  0  0
  1 26  1  0  0  0  0
  1 27  1  0  0  0  0
  1 28  1  0  0  0  0
  2  7  1  0  0  0  0
  2  3  2  0  0  0  0
  3  4  1  0  0  0  0
  3 29  1  0  0  0  0
  4 25  1  0  0  0  0
  4  5  1  0  0  0  0
  5  6  2  0  0  0  0
  5  9  1  0  0  0  0
  6  7  1  0  0  0  0
  7  8  2  0  0  0  0
  9 10  1  0  0  0  0
 10 25  1  0  0  0  0
 10 11  1  0  0  0  0
 10 30  1  0  0  0  0
 11 12  1  0  0  0  0
 11 13  1  0  0  0  0
 11 31  1  0  0  0  0
 12 32  1  0  0  0  0
 13 14  1  0  0  0  0
 13 24  1  0  0  0  0
 13 33  1  0  0  0  0
 14 15  1  0  0  0  0
 14 34  1  0  0  0  0
 14 35  1  0  0  0  0
 15 16  1  0  0  0  0
 16 17  2  0  0  0  0
 16 18  1  0  0  0  0
 18 23  1  0  0  0  0
 18 19  2  0  0  0  0
 19 20  1  0  0  0  0
 19 36  1  0  0  0  0
 20 21  2  0  0  0  0
 20 37  1  0  0  0  0
 21 22  1  0  0  0  0
 21 38  1  0  0  0  0
 22 23  2  0  0  0  0
 22 39  1  0  0  0  0
 23 40  1  0  0  0  0
 24 25  1  0  0  0  0
 25 41  1  0  0  0  0
M  END
> <s_m_source_file>
AV-unprocessed.smi

> <i_m_source_file_index>
12

> <i_lp_mmshare_version>
43012

> <i_f3d_flags>
0

> <s_epik_input>
W0NIM11jKFtjSF0xKWMoPU8pbmMobjEyKU9bQ0BIXTNbQ0BASF0yT1tDQEBIXShbQ0BASF0zW09IXSlbQ0gyXU9DKD1PKWM0W2NIXVtjSF1bY0hdW2NIXVtjSF00

> <s_epik_cmdline>
J2VwaWtfcHl0aG9uJywgJy1waCcsICc3LjAnLCAnLXRuJywgJzgnLCAnLW1hJywgJzIwMCcsICctbWV0YWxfYmluZGluZycsICctaW1hZScsICc8aW5maWxlLm1hZT4nLCAnLW9tYWUnLCAnPG91dGZpbGUubWFlPic=

> <r_lp_tautomer_probability>
0.933681

> <r_epik_Ionization_Penalty>
0.00399549

> <r_epik_Ionization_Penalty_Charging>
3.09373e-09

> <r_epik_Ionization_Penalty_Neutral>
0.00399549

> <r_epik_State_Penalty>
0.00284953

> <r_epik_Charging_Adjusted_Penalty>
0.00284953

> <i_epik_Tot_Q>
0

> <i_epik_Tot_abs_Q>
0

> <r_epik_Metal_State_Penalty>
-0

> <b_epik_Metal_Only>
0

> <s_epik_Chemistry_Notes>
This compound has an ester and may undergo hydrolysis at high or low pH. This compound contains an acetal/aminal-like group ( X-CH(R)-Y where X, Y are N, S, or O) that may be acid/base labile, releasing an aldehyde.

> <s_lp_Force_Field>
OPLS_2005

> <r_lp_Energy>
46.3609

> <b_lp_Chiralities_Consistent>
1

> <s_lp_Variant>
AV-unprocessed.smi:12-2

> <Gold.Version>
5.8.1

> <Gold.Id.Protein>
6NUR|6NUR_protein|mol2

> <Gold.PLP.Fitness>
49.3022

> <Gold.PLP.PLP>
-40.2572

> <Gold.PLP.part.hbond>
-3.0000

> <Gold.PLP.part.metal>
0.0000

> <Gold.PLP.part.buried>
3.0620

> <Gold.PLP.part.nonpolar>
-39.8547

> <Gold.PLP.part.repulsive>
0.4676

> <Gold.PLP.ligand.clash>
0.0000

> <Gold.PLP.ligand.torsion>
0.3758

> <Gold.PLP.Chemscore.Hbond>
2.2597

> <Gold.PLP.Chemscore.CHOScore>
1.0000

> <Gold.PLP.Chemscore.Metal>
0.0000

> <Gold.Chemscore.Hbonds>
donor molecule, donor type, donor heavy atom, donor atom, acceptor molecule, acceptor atom, score
      L1  H    12    32       P1  7948  1.00
      P1  H  7989  7998       L1    24  0.09
      P1  H  7997  8009       L1    17  0.94
      L1  C     3    29       P1  8028  1.00

> <Gold.PLP.Chemscore.Internal.Correction>
0.0176

> <Gold.Rescore>
     Score         DG    S(hbond)    S(metal)    S(lipo)     H(rot)  DE(clash)    DE(int)     intcor
     15.17     -16.88       1.64        0.00      98.25       2.18       1.45       0.26       ----

> <Gold.Chemscore.Fitness>
15.1680

> <Gold.Chemscore.DG>
-16.8769

> <Gold.Chemscore.ZeroCoef>
-5.4800

> <Gold.Chemscore.Hbond>
1.6414

> <Gold.Chemscore.Metal>
0.0000

> <Gold.Chemscore.Lipo>
98.2502

> <Gold.Chemscore.Internal_Hbond>
0.0000

> <Gold.Chemscore.DEClash>
1.4489

> <Gold.Chemscore.DEInternal>
0.2600

> <Gold.Chemscore.Rot>
2.1800

> <Gold.Chemscore.Internal.Correction>
   9.000000E+99

> <Gold.Chemscore.Hbonds>
donor molecule, donor type, donor heavy atom, donor atom, acceptor molecule, acceptor atom, score
      L1  H    12    32       P1  7948  0.81
      P1  H  7997  8009       L1    17  0.50

> <Gold.Chemscore.Hbond.Weighted>
-5.4824

> <Gold.Chemscore.Metal.Weighted>
-0.0000

> <Gold.Chemscore.Lipo.Weighted>
-11.4953

> <Gold.Chemscore.Internal_Hbond.Weighted>
0.0000

> <Gold.Chemscore.DEClash.Weighted>
1.4489

> <Gold.Chemscore.DEInternal.Weighted>
0.2600

> <Gold.Chemscore.Rot.Weighted>
5.5807

> <Gold.Chemscore.Internal.Correction.Weighted>
   9.000000E+99

> <Gold.Protein.RotatedTorsions>
[ 6907 6896 6895 6894 ] final  142.39 input  -60.11 | X-H torsion
[ 7974 7965 7964 7962 ] final  162.35 input  175.53 | X-H torsion
[ 8008 7997 7996 7995 ] final  136.85 input   59.86 | X-H torsion
[ 10167 10162 10161 10158 ] final -171.74 input  -65.29 | X-H torsion
[ 10718 10713 10712 10709 ] final  112.86 input   66.30 | X-H torsion
[ 10763 10752 10751 10750 ] final -171.04 input  -60.55 | X-H torsion
[ 11005 11000 10999 10996 ] final   39.59 input  -57.11 | X-H torsion

> <Gold.Protein.ActiveResidues>
 VAL166  LYS551  ARG553  GLY616  TRP617  ASP618  TYR619  PRO620  LYS621  CYS622 
 ASP623  PHE694  ASN695  SER759  ASP760  ASP761  ALA762  ILE779  LEU786  VAL792 
 PHE793  MET794  SER795  GLU796  ALA797  LYS798  CYS799  TRP800  GLU811  SER814 

> <Gold.Protein.RotatedAtoms>
  152.2193  133.4971  159.5152 H   0  0  0  0  0  0  0  0  0  0  0  0  # atno 6907 bound_to 6896
  150.7009  134.1364  159.4098 H   0  0  0  0  0  0  0  0  0  0  0  0  # atno 6908 bound_to 6896
  151.9285  135.0267  160.0578 H   0  0  0  0  0  0  0  0  0  0  0  0  # atno 6909 bound_to 6896
  144.7641  139.8028  143.6322 H   0  0  0  0  0  0  0  0  0  0  0  0  # atno 7974 bound_to 7965
  156.3003  140.2434  156.3814 H   0  0  0  0  0  0  0  0  0  0  0  0  # atno 8008 bound_to 7997
  154.8698  140.0416  157.1737 H   0  0  0  0  0  0  0  0  0  0  0  0  # atno 8009 bound_to 7997
  154.8808  140.2949  155.5430 H   0  0  0  0  0  0  0  0  0  0  0  0  # atno 8010 bound_to 7997
  139.5785  144.1478  152.1483 H   0  0  0  0  0  0  0  0  0  0  0  0  # atno 10167 bound_to 10162
  157.6369  131.0974  150.6957 H   0  0  0  0  0  0  0  0  0  0  0  0  # atno 10718 bound_to 10713
  154.6349  135.2891  155.0173 H   0  0  0  0  0  0  0  0  0  0  0  0  # atno 10763 bound_to 10752
  154.1321  135.6532  153.4928 H   0  0  0  0  0  0  0  0  0  0  0  0  # atno 10764 bound_to 10752
  153.0297  135.5312  154.7191 H   0  0  0  0  0  0  0  0  0  0  0  0  # atno 10765 bound_to 10752
  140.2013  134.3867  155.8095 H   0  0  0  0  0  0  0  0  0  0  0  0  # atno 11005 bound_to 11000
  146.1732  139.4891  142.9914 LP  0  0  0  0  0  0  0  0  0  0  0  0  # atno 17320 bound_to 7965
  145.6526  141.0259  143.1752 LP  0  0  0  0  0  0  0  0  0  0  0  0  # atno 17321 bound_to 7965
  140.1026  144.5526  150.6978 LP  0  0  0  0  0  0  0  0  0  0  0  0  # atno 17342 bound_to 10162
  140.7065  143.2472  151.4710 LP  0  0  0  0  0  0  0  0  0  0  0  0  # atno 17343 bound_to 10162
  156.7287  130.4703  149.5505 LP  0  0  0  0  0  0  0  0  0  0  0  0  # atno 17370 bound_to 10713
  156.1617  130.6378  151.0726 LP  0  0  0  0  0  0  0  0  0  0  0  0  # atno 17371 bound_to 10713
  141.2227  133.7095  156.8262 LP  0  0  0  0  0  0  0  0  0  0  0  0  # atno 17394 bound_to 11000
  140.2051  134.8868  157.3212 LP  0  0  0  0  0  0  0  0  0  0  0  0  # atno 17395 bound_to 11000

$$$$
