AV-unprocessed.smi:2489|AV-procd|sdf|9801|dock9
  -GOLD-   2272013433D 1   1.00000     0.00000
 Structure written by MMmdl.
 33 34  0  0  0  0  0  0  0  0  1 V2000
  152.7453  142.8023  162.2325 C   0  0  0  0  0  0  0  0  0  0  0  0
  153.0656  142.4478  160.8946 O   0  0  0  0  0  0  0  0  0  0  0  0
  152.1907  142.8390  159.9074 C   0  0  0  0  0  0  0  0  0  0  0  0
  151.9204  144.2370  159.5806 C   0  0  0  0  0  0  0  0  0  0  0  0
  151.0490  144.5022  158.5961 C   0  0  0  0  0  0  0  0  0  0  0  0
  150.4053  143.4986  157.8870 N   0  0  0  0  0  0  0  0  0  0  0  0
  150.6171  142.1332  158.1489 C   0  0  0  0  0  0  0  0  0  0  0  0
  150.0458  141.1466  157.5211 N   0  0  0  0  0  0  0  0  0  0  0  0
  149.1387  141.3404  156.4826 C   0  0  0  0  0  0  0  0  0  0  0  0
  147.9926  141.7976  156.5203 O   0  0  0  0  0  0  0  0  0  0  0  0
  149.7231  140.9058  155.1317 C   0  0  2  0  0  0  0  0  0  0  0  0
  148.8929  139.8112  154.4381 C   0  0  0  0  0  0  0  0  0  0  0  0
  149.7774  138.5833  154.5233 C   0  0  0  0  0  0  0  0  0  0  0  0
  151.1716  139.1990  154.5088 C   0  0  2  0  0  0  0  0  0  0  0  0
  152.2683  138.2790  155.0554 C   0  0  0  0  0  0  0  0  0  0  0  0
  151.0192  140.3413  155.3372 O   0  0  0  0  0  0  0  0  0  0  0  0
  151.5638  141.8553  159.2203 C   0  0  0  0  0  0  0  0  0  0  0  0
  153.5248  142.4309  162.8975 H   0  0  0  0  0  0  0  0  0  0  0  0
  151.8025  142.3550  162.5509 H   0  0  0  0  0  0  0  0  0  0  0  0
  152.6951  143.8847  162.3591 H   0  0  0  0  0  0  0  0  0  0  0  0
  152.3921  145.0567  160.1007 H   0  0  0  0  0  0  0  0  0  0  0  0
  150.7893  145.5047  158.2899 H   0  0  0  0  0  0  0  0  0  0  0  0
  149.8207  141.7731  154.4765 H   0  0  0  0  0  0  0  0  0  0  0  0
  147.9155  139.6393  154.8917 H   0  0  0  0  0  0  0  0  0  0  0  0
  148.7267  140.0817  153.3946 H   0  0  0  0  0  0  0  0  0  0  0  0
  149.5999  138.0635  155.4659 H   0  0  0  0  0  0  0  0  0  0  0  0
  149.6118  137.8798  153.7071 H   0  0  0  0  0  0  0  0  0  0  0  0
  151.4228  139.5294  153.4993 H   0  0  0  0  0  0  0  0  0  0  0  0
  152.3684  137.3833  154.4421 H   0  0  0  0  0  0  0  0  0  0  0  0
  152.0478  137.9643  156.0759 H   0  0  0  0  0  0  0  0  0  0  0  0
  153.2327  138.7872  155.0647 H   0  0  0  0  0  0  0  0  0  0  0  0
  151.7945  140.8363  159.4966 H   0  0  0  0  0  0  0  0  0  0  0  0
  149.7654  143.7976  157.1647 H   0  0  0  0  0  0  0  0  0  0  0  0
  1  2  1  0  0  0  0
  1 18  1  0  0  0  0
  1 19  1  0  0  0  0
  1 20  1  0  0  0  0
  2  3  1  0  0  0  0
  3 17  2  0  0  0  0
  3  4  1  0  0  0  0
  4  5  2  0  0  0  0
  4 21  1  0  0  0  0
  5  6  1  0  0  0  0
  5 22  1  0  0  0  0
  6  7  1  0  0  0  0
  6 33  1  0  0  0  0
  7  8  2  0  0  0  0
  7 17  1  0  0  0  0
  8  9  1  0  0  0  0
  9 10  2  0  0  0  0
  9 11  1  0  0  0  0
 11 16  1  0  0  0  0
 11 12  1  0  0  0  0
 11 23  1  0  0  0  0
 12 13  1  0  0  0  0
 12 24  1  0  0  0  0
 12 25  1  0  0  0  0
 13 14  1  0  0  0  0
 13 26  1  0  0  0  0
 13 27  1  0  0  0  0
 14 15  1  0  0  0  0
 14 16  1  0  0  0  0
 14 28  1  0  0  0  0
 15 29  1  0  0  0  0
 15 30  1  0  0  0  0
 15 31  1  0  0  0  0
 17 32  1  0  0  0  0
M  END
> <s_m_source_file>
AV-unprocessed.smi

> <i_m_source_file_index>
2489

> <i_lp_mmshare_version>
43012

> <i_f3d_flags>
0

> <s_epik_input>
W0NIM11PYzFbY0hdW2NIXW5jKFtjSF0xKVtOSF1DKD1PKVtDQEBIXTJbQ0gyXVtDSDJdW0NASF0oTzIpW0NIM10=

> <s_epik_cmdline>
J2VwaWtfcHl0aG9uJywgJy1waCcsICc3LjAnLCAnLXRuJywgJzgnLCAnLW1hJywgJzIwMCcsICctbWV0YWxfYmluZGluZycsICctaW1hZScsICc8aW5maWxlLm1hZT4nLCAnLW9tYWUnLCAnPG91dGZpbGUubWFlPic=

> <r_epik_Ionization_Penalty>
0.410206

> <r_epik_Ionization_Penalty_Charging>
0.410206

> <r_epik_Ionization_Penalty_Neutral>
6.57528e-13

> <r_epik_State_Penalty>
1.30987

> <r_epik_Charging_Adjusted_Penalty>
1.72007

> <i_epik_Tot_Q>
0

> <i_epik_Tot_abs_Q>
0

> <r_epik_Metal_State_Penalty>
1.32171

> <b_epik_Metal_Only>
0

> <s_lp_Force_Field>
OPLS_2005

> <r_lp_Energy>
35.4329

> <b_lp_Chiralities_Consistent>
1

> <s_lp_Variant>
AV-unprocessed.smi:2489-7

> <Gold.Version>
5.8.1

> <Gold.Id.Protein>
6NUR|6NUR_protein|mol2

> <Gold.PLP.Fitness>
39.8624

> <Gold.PLP.PLP>
-38.2324

> <Gold.PLP.part.hbond>
-2.0000

> <Gold.PLP.part.metal>
0.0000

> <Gold.PLP.part.buried>
-5.0838

> <Gold.PLP.part.nonpolar>
-31.7555

> <Gold.PLP.part.repulsive>
1.2406

> <Gold.PLP.ligand.clash>
0.0000

> <Gold.PLP.ligand.torsion>
0.6879

> <Gold.PLP.Chemscore.Hbond>
1.0000

> <Gold.PLP.Chemscore.CHOScore>
0.0000

> <Gold.PLP.Chemscore.Metal>
0.0000

> <Gold.Chemscore.Hbonds>
donor molecule, donor type, donor heavy atom, donor atom, acceptor molecule, acceptor atom, score
      L1  H     6    33       P1  8028  1.00

> <Gold.PLP.Chemscore.Internal.Correction>
0.0058

> <Gold.Rescore>
     Score         DG    S(hbond)    S(metal)    S(lipo)     H(rot)  DE(clash)    DE(int)     intcor
     15.89     -16.56       0.98        0.00      93.42       1.23       0.06       0.61       ----

> <Gold.Chemscore.Fitness>
15.8910

> <Gold.Chemscore.DG>
-16.5555

> <Gold.Chemscore.ZeroCoef>
-5.4800

> <Gold.Chemscore.Hbond>
0.9835

> <Gold.Chemscore.Metal>
0.0000

> <Gold.Chemscore.Lipo>
93.4188

> <Gold.Chemscore.Internal_Hbond>
0.0000

> <Gold.Chemscore.DEClash>
0.0594

> <Gold.Chemscore.DEInternal>
0.6050

> <Gold.Chemscore.Rot>
1.2264

> <Gold.Chemscore.Internal.Correction>
   9.000000E+99

> <Gold.Chemscore.Hbonds>
donor molecule, donor type, donor heavy atom, donor atom, acceptor molecule, acceptor atom, score
      L1  H     6    33       P1  8028  0.84

> <Gold.Chemscore.Hbond.Weighted>
-3.2850

> <Gold.Chemscore.Metal.Weighted>
-0.0000

> <Gold.Chemscore.Lipo.Weighted>
-10.9300

> <Gold.Chemscore.Internal_Hbond.Weighted>
0.0000

> <Gold.Chemscore.DEClash.Weighted>
0.0594

> <Gold.Chemscore.DEInternal.Weighted>
0.6050

> <Gold.Chemscore.Rot.Weighted>
3.1396

> <Gold.Chemscore.Internal.Correction.Weighted>
   9.000000E+99

> <Gold.Protein.RotatedTorsions>
[ 6907 6896 6895 6894 ] final  -34.09 input  -60.11 | X-H torsion
[ 7974 7965 7964 7962 ] final  -32.06 input  175.53 | X-H torsion
[ 8008 7997 7996 7995 ] final  159.71 input   59.86 | X-H torsion
[ 10167 10162 10161 10158 ] final   78.99 input  -65.29 | X-H torsion
[ 10718 10713 10712 10709 ] final -138.04 input   66.30 | X-H torsion
[ 10763 10752 10751 10750 ] final -170.25 input  -60.55 | X-H torsion
[ 11005 11000 10999 10996 ] final   21.51 input  -57.11 | X-H torsion

> <Gold.Protein.ActiveResidues>
 VAL166  LYS551  ARG553  GLY616  TRP617  ASP618  TYR619  PRO620  LYS621  CYS622 
 ASP623  PHE694  ASN695  SER759  ASP760  ASP761  ALA762  ILE779  LEU786  VAL792 
 PHE793  MET794  SER795  GLU796  ALA797  LYS798  CYS799  TRP800  GLU811  SER814 

> <Gold.Protein.RotatedAtoms>
  151.0571  134.9712  159.8241 H   0  0  0  0  0  0  0  0  0  0  0  0  # atno 6907 bound_to 6896
  152.5390  134.2464  159.8892 H   0  0  0  0  0  0  0  0  0  0  0  0  # atno 6908 bound_to 6896
  151.2482  133.4321  159.2644 H   0  0  0  0  0  0  0  0  0  0  0  0  # atno 6909 bound_to 6896
  146.1019  140.5745  142.8817 H   0  0  0  0  0  0  0  0  0  0  0  0  # atno 7974 bound_to 7965
  156.2221  140.1824  156.7453 H   0  0  0  0  0  0  0  0  0  0  0  0  # atno 8008 bound_to 7997
  154.5881  140.0655  156.9229 H   0  0  0  0  0  0  0  0  0  0  0  0  # atno 8009 bound_to 7997
  155.2384  140.3320  155.4297 H   0  0  0  0  0  0  0  0  0  0  0  0  # atno 8010 bound_to 7997
  139.9651  144.5934  150.8036 H   0  0  0  0  0  0  0  0  0  0  0  0  # atno 10167 bound_to 10162
  156.2949  130.7396  151.1432 H   0  0  0  0  0  0  0  0  0  0  0  0  # atno 10718 bound_to 10713
  154.6436  135.2902  155.0074 H   0  0  0  0  0  0  0  0  0  0  0  0  # atno 10763 bound_to 10752
  154.1192  135.6551  153.4903 H   0  0  0  0  0  0  0  0  0  0  0  0  # atno 10764 bound_to 10752
  153.0339  135.5283  154.7313 H   0  0  0  0  0  0  0  0  0  0  0  0  # atno 10765 bound_to 10752
  140.3907  134.1822  155.7662 H   0  0  0  0  0  0  0  0  0  0  0  0  # atno 11005 bound_to 11000
  144.7440  140.5017  143.6849 LP  0  0  0  0  0  0  0  0  0  0  0  0  # atno 17320 bound_to 7965
  145.5837  139.1490  143.3221 LP  0  0  0  0  0  0  0  0  0  0  0  0  # atno 17321 bound_to 7965
  140.7540  143.3020  151.3057 LP  0  0  0  0  0  0  0  0  0  0  0  0  # atno 17342 bound_to 10162
  139.6524  144.0338  152.2636 LP  0  0  0  0  0  0  0  0  0  0  0  0  # atno 17343 bound_to 10162
  157.7352  131.0574  150.5480 LP  0  0  0  0  0  0  0  0  0  0  0  0  # atno 17370 bound_to 10713
  156.5600  130.4253  149.6067 LP  0  0  0  0  0  0  0  0  0  0  0  0  # atno 17371 bound_to 10713
  141.1892  133.8244  157.0967 LP  0  0  0  0  0  0  0  0  0  0  0  0  # atno 17394 bound_to 11000
  140.0409  134.9855  157.0959 LP  0  0  0  0  0  0  0  0  0  0  0  0  # atno 17395 bound_to 11000

$$$$
