AV-unprocessed.smi:49|AV-procd|sdf|489|dock1
  -GOLD-   2262016353D 1   1.00000     0.00000
 Structure written by MMmdl.
 26 27  0  0  0  0  0  0  0  0  2 V2000
  152.8356  142.4108  160.7585 C   0  0  0  0  0  0  0  0  0  0  0  0
  153.7547  141.3275  160.1855 C   0  0  0  0  0  0  0  0  0  0  0  0
  153.0886  140.5430  159.0764 C   0  0  0  0  0  0  0  0  0  0  0  0
  151.8813  140.7784  158.5721 N   0  0  0  0  0  0  0  0  0  0  0  0
  151.7149  139.8840  157.5874 C   0  0  0  0  0  0  0  0  0  0  0  0
  150.4503  139.7614  156.7581 C   0  0  2  0  0  0  0  0  0  0  0  0
  150.7241  139.8555  155.2520 C   0  0  0  0  0  0  0  0  0  0  0  0
  149.4094  140.3989  154.7132 C   0  0  2  0  0  0  0  0  0  0  0  0
  149.5430  141.0229  153.4538 O   0  0  0  0  0  0  0  0  0  0  0  0
  148.9952  141.3780  155.8083 C   0  0  0  0  0  0  0  0  0  0  0  0
  149.4378  140.7793  157.0654 N   0  0  0  0  0  0  0  0  0  0  0  0
  152.7942  139.0920  157.4801 N   0  0  0  0  0  0  0  0  0  0  0  0
  153.6375  139.5209  158.3970 N   0  5  0  0  0  0  0  0  0  0  0  0
  150.0173  138.7814  156.9618 H   0  0  0  0  0  0  0  0  0  0  0  0
  148.6784  139.5923  154.6406 H   0  0  0  0  0  0  0  0  0  0  0  0
  153.3367  142.9675  161.5504 H   0  0  0  0  0  0  0  0  0  0  0  0
  151.9293  141.9736  161.1784 H   0  0  0  0  0  0  0  0  0  0  0  0
  152.5385  143.1211  159.9864 H   0  0  0  0  0  0  0  0  0  0  0  0
  154.6674  141.7798  159.7968 H   0  0  0  0  0  0  0  0  0  0  0  0
  154.0560  140.6377  160.9745 H   0  0  0  0  0  0  0  0  0  0  0  0
  151.5225  140.5755  155.0619 H   0  0  0  0  0  0  0  0  0  0  0  0
  151.0192  138.9029  154.8113 H   0  0  0  0  0  0  0  0  0  0  0  0
  149.4281  140.3683  152.7820 H   0  0  0  0  0  0  0  0  0  0  0  0
  149.5094  142.3295  155.6650 H   0  0  0  0  0  0  0  0  0  0  0  0
  147.9238  141.5793  155.8078 H   0  0  0  0  0  0  0  0  0  0  0  0
  148.6461  140.3183  157.5012 H   0  0  0  0  0  0  0  0  0  0  0  0
  1  2  1  0  0  0  0
  1 16  1  0  0  0  0
  1 17  1  0  0  0  0
  1 18  1  0  0  0  0
  2  3  1  0  0  0  0
  2 19  1  0  0  0  0
  2 20  1  0  0  0  0
  3 13  1  0  0  0  0
  3  4  2  0  0  0  0
  4  5  1  0  0  0  0
  5  6  1  0  0  0  0
  5 12  2  0  0  0  0
  6 14  1  0  0  0  0
  6 11  1  0  0  0  0
  6  7  1  0  0  0  0
  7  8  1  0  0  0  0
  7 21  1  0  0  0  0
  7 22  1  0  0  0  0
  8 15  1  0  0  0  0
  8  9  1  0  0  0  0
  8 10  1  0  0  0  0
  9 23  1  0  0  0  0
 10 11  1  0  0  0  0
 10 24  1  0  0  0  0
 10 25  1  0  0  0  0
 11 26  1  0  0  0  0
 12 13  1  0  0  0  0
M  CHG  1  13  -1
M  END
> <s_m_source_file>
AV-unprocessed.smi

> <i_m_source_file_index>
49

> <i_lp_mmshare_version>
43012

> <i_f3d_flags>
0

> <s_epik_input>
W0NIM11bQ0gyXWMxbmMobltuSF0xKVtDQEBIXTJbQ0gyXVtDQEBIXShbT0hdKVtDSDJdW05IXTI=

> <s_epik_cmdline>
J2VwaWtfcHl0aG9uJywgJy1waCcsICc3LjAnLCAnLXRuJywgJzgnLCAnLW1hJywgJzIwMCcsICctbWV0YWxfYmluZGluZycsICctaW1hZScsICc8aW5maWxlLm1hZT4nLCAnLW9tYWUnLCAnPG91dGZpbGUubWFlPic=

> <r_lp_tautomer_probability>
0.948284

> <r_epik_Ionization_Penalty>
20.726

> <r_epik_Ionization_Penalty_Charging>
17.6814

> <r_epik_Ionization_Penalty_Neutral>
3.04463

> <r_epik_State_Penalty>
7.95092

> <r_epik_Charging_Adjusted_Penalty>
25.6323

> <i_epik_Tot_Q>
-1

> <i_epik_Tot_abs_Q>
1

> <r_epik_Metal_State_Penalty>
4.146

> <b_epik_Metal_Only>
1

> <s_lp_Force_Field>
OPLS_2005

> <r_lp_Energy>
18.025

> <b_lp_Chiralities_Consistent>
1

> <s_lp_Variant>
AV-unprocessed.smi:49-27

> <Gold.Version>
5.8.1

> <Gold.Id.Protein>
6NUR|6NUR_protein|mol2

> <Gold.PLP.Fitness>
35.9013

> <Gold.PLP.PLP>
-24.2016

> <Gold.PLP.part.hbond>
-4.5888

> <Gold.PLP.part.metal>
0.0000

> <Gold.PLP.part.buried>
-2.8112

> <Gold.PLP.part.nonpolar>
-17.2919

> <Gold.PLP.part.repulsive>
0.0000

> <Gold.PLP.ligand.clash>
0.0000

> <Gold.PLP.ligand.torsion>
0.0365

> <Gold.PLP.Chemscore.Hbond>
3.9196

> <Gold.PLP.Chemscore.CHOScore>
0.0000

> <Gold.PLP.Chemscore.Metal>
0.0000

> <Gold.Chemscore.Hbonds>
donor molecule, donor type, donor heavy atom, donor atom, acceptor molecule, acceptor atom, score
      L1  H     9    23       P1  7957  0.88
      P1  H  7989  7998       L1     9  0.12
      P1  H  7997  8008       L1    13  1.80
      P1  H  8011  8017       L1     9  0.80

> <Gold.PLP.Chemscore.Internal.Correction>
0.0139

> <Gold.Rescore>
     Score         DG    S(hbond)    S(metal)    S(lipo)     H(rot)  DE(clash)    DE(int)     intcor
     12.13     -12.19       1.79        0.00      46.13       1.82       0.00       0.06       ----

> <Gold.Chemscore.Fitness>
12.1283

> <Gold.Chemscore.DG>
-12.1905

> <Gold.Chemscore.ZeroCoef>
-5.4800

> <Gold.Chemscore.Hbond>
1.7902

> <Gold.Chemscore.Metal>
0.0000

> <Gold.Chemscore.Lipo>
46.1280

> <Gold.Chemscore.Internal_Hbond>
0.0000

> <Gold.Chemscore.DEClash>
0.0038

> <Gold.Chemscore.DEInternal>
0.0583

> <Gold.Chemscore.Rot>
1.8226

> <Gold.Chemscore.Internal.Correction>
   9.000000E+99

> <Gold.Chemscore.Hbonds>
donor molecule, donor type, donor heavy atom, donor atom, acceptor molecule, acceptor atom, score
      L1  H     9    23       P1  7957  0.86
      P1  H  7997  8008       L1    13  0.15
      P1  H  8011  8017       L1     9  0.12

> <Gold.Chemscore.Hbond.Weighted>
-5.9793

> <Gold.Chemscore.Metal.Weighted>
-0.0000

> <Gold.Chemscore.Lipo.Weighted>
-5.3970

> <Gold.Chemscore.Internal_Hbond.Weighted>
0.0000

> <Gold.Chemscore.DEClash.Weighted>
0.0038

> <Gold.Chemscore.DEInternal.Weighted>
0.0583

> <Gold.Chemscore.Rot.Weighted>
4.6658

> <Gold.Chemscore.Internal.Correction.Weighted>
   9.000000E+99

> <Gold.Protein.RotatedTorsions>
[ 6907 6896 6895 6894 ] final -173.67 input  -60.11 | X-H torsion
[ 7974 7965 7964 7962 ] final  128.87 input  175.53 | X-H torsion
[ 8008 7997 7996 7995 ] final -113.25 input   59.86 | X-H torsion
[ 10167 10162 10161 10158 ] final  -23.46 input  -65.29 | X-H torsion
[ 10718 10713 10712 10709 ] final  107.01 input   66.30 | X-H torsion
[ 10763 10752 10751 10750 ] final   28.87 input  -60.55 | X-H torsion
[ 11005 11000 10999 10996 ] final   55.86 input  -57.11 | X-H torsion

> <Gold.Protein.ActiveResidues>
 VAL166  LYS551  ARG553  GLY616  TRP617  ASP618  TYR619  PRO620  LYS621  CYS622 
 ASP623  PHE694  ASN695  SER759  ASP760  ASP761  ALA762  ILE779  LEU786  VAL792 
 PHE793  MET794  SER795  GLU796  ALA797  LYS798  CYS799  TRP800  GLU811  SER814 

> <Gold.Protein.RotatedAtoms>
  151.5600  133.3404  159.2968 H   0  0  0  0  0  0  0  0  0  0  0  0  # atno 6907 bound_to 6896
  150.8428  134.7729  159.6958 H   0  0  0  0  0  0  0  0  0  0  0  0  # atno 6908 bound_to 6896
  152.4492  134.5436  159.9898 H   0  0  0  0  0  0  0  0  0  0  0  0  # atno 6909 bound_to 6896
  145.0348  139.4014  143.5131 H   0  0  0  0  0  0  0  0  0  0  0  0  # atno 7974 bound_to 7965
  155.0178  140.0393  157.2425 H   0  0  0  0  0  0  0  0  0  0  0  0  # atno 8008 bound_to 7997
  154.7404  140.2748  155.6355 H   0  0  0  0  0  0  0  0  0  0  0  0  # atno 8009 bound_to 7997
  156.2863  140.2666  156.2129 H   0  0  0  0  0  0  0  0  0  0  0  0  # atno 8010 bound_to 7997
  140.7288  143.4441  151.0613 H   0  0  0  0  0  0  0  0  0  0  0  0  # atno 10167 bound_to 10162
  157.6646  131.0863  150.6092 H   0  0  0  0  0  0  0  0  0  0  0  0  # atno 10718 bound_to 10713
  153.0465  135.6503  154.0804 H   0  0  0  0  0  0  0  0  0  0  0  0  # atno 10763 bound_to 10752
  154.0500  135.2896  155.3343 H   0  0  0  0  0  0  0  0  0  0  0  0  # atno 10764 bound_to 10752
  154.6726  135.5350  153.8224 H   0  0  0  0  0  0  0  0  0  0  0  0  # atno 10765 bound_to 10752
  140.0574  134.5651  155.9192 H   0  0  0  0  0  0  0  0  0  0  0  0  # atno 11005 bound_to 11000
  146.3503  139.9918  142.8685 LP  0  0  0  0  0  0  0  0  0  0  0  0  # atno 17320 bound_to 7965
  145.1723  140.9727  143.4314 LP  0  0  0  0  0  0  0  0  0  0  0  0  # atno 17321 bound_to 7965
  139.8111  143.7950  152.3171 LP  0  0  0  0  0  0  0  0  0  0  0  0  # atno 17342 bound_to 10162
  139.8000  144.7378  150.9838 LP  0  0  0  0  0  0  0  0  0  0  0  0  # atno 17343 bound_to 10162
  156.6393  130.4454  149.5758 LP  0  0  0  0  0  0  0  0  0  0  0  0  # atno 17370 bound_to 10713
  156.2221  130.6743  151.1379 LP  0  0  0  0  0  0  0  0  0  0  0  0  # atno 17371 bound_to 10713
  141.1958  133.6589  156.5660 LP  0  0  0  0  0  0  0  0  0  0  0  0  # atno 17394 bound_to 11000
  140.3823  134.7512  157.4669 LP  0  0  0  0  0  0  0  0  0  0  0  0  # atno 17395 bound_to 11000

$$$$
