AV-unprocessed.smi:1897|AV-procd|sdf|7697|dock6
  -GOLD-   22720 9433D 1   1.00000     0.00000
 Structure written by MMmdl.
 38 40  0  0  0  0  0  0  0  0  3 V2000
  156.2799  137.8104  152.6773 C   0  0  0  0  0  0  0  0  0  0  0  0
  155.3139  137.8066  153.8121 C   0  0  0  0  0  0  0  0  0  0  0  0
  155.3989  136.9467  154.8297 N   0  0  0  0  0  0  0  0  0  0  0  0
  154.3854  137.1334  155.7581 N   0  0  0  0  0  0  0  0  0  0  0  0
  153.5581  138.1386  155.4387 C   0  0  0  0  0  0  0  0  0  0  0  0
  152.5118  138.4861  156.2110 N   0  5  0  0  0  0  0  0  0  0  0  0
  151.7487  139.5817  155.9608 C   0  0  0  0  0  0  0  0  0  0  0  0
  151.3612  139.8951  154.8360 O   0  0  0  0  0  0  0  0  0  0  0  0
  151.4047  140.3574  157.0056 N   0  0  0  0  0  0  0  0  0  0  0  0
  150.5975  141.5690  156.9409 C   0  0  1  0  0  0  0  0  0  0  0  0
  149.0931  141.3296  157.1717 C   0  0  0  0  0  0  0  0  0  0  0  0
  148.6183  142.5191  158.0289 C   0  0  0  0  0  0  0  0  0  0  0  0
  149.7867  143.4135  158.1333 N   0  3  1  0  0  0  0  0  0  0  0  0
  149.8296  144.3391  159.2860 C   0  0  0  0  0  0  0  0  0  0  0  0
  151.0793  145.2354  159.1714 C   0  0  0  0  0  0  0  0  0  0  0  0
  152.3677  144.4037  159.0010 C   0  0  0  0  0  0  0  0  0  0  0  0
  152.2288  143.3919  157.8469 C   0  0  0  0  0  0  0  0  0  0  0  0
  150.9668  142.5404  158.0593 C   0  0  2  0  0  0  0  0  0  0  0  0
  153.9749  138.9367  153.9226 S   0  0  0  0  0  0  0  0  0  0  0  0
  157.1851  138.3475  152.9604 H   0  0  0  0  0  0  0  0  0  0  0  0
  155.8395  138.2981  151.8075 H   0  0  0  0  0  0  0  0  0  0  0  0
  156.5472  136.7891  152.4047 H   0  0  0  0  0  0  0  0  0  0  0  0
  151.7321  140.0745  157.9178 H   0  0  0  0  0  0  0  0  0  0  0  0
  150.7416  142.0644  155.9784 H   0  0  0  0  0  0  0  0  0  0  0  0
  148.5583  141.2734  156.2230 H   0  0  0  0  0  0  0  0  0  0  0  0
  148.9144  140.3940  157.7038 H   0  0  0  0  0  0  0  0  0  0  0  0
  147.7686  143.0392  157.5863 H   0  0  0  0  0  0  0  0  0  0  0  0
  148.3244  142.1706  159.0202 H   0  0  0  0  0  0  0  0  0  0  0  0
  148.9269  144.9507  159.2986 H   0  0  0  0  0  0  0  0  0  0  0  0
  149.8500  143.7718  160.2179 H   0  0  0  0  0  0  0  0  0  0  0  0
  150.9670  145.9012  158.3145 H   0  0  0  0  0  0  0  0  0  0  0  0
  151.1618  145.8766  160.0495 H   0  0  0  0  0  0  0  0  0  0  0  0
  153.2189  145.0617  158.8235 H   0  0  0  0  0  0  0  0  0  0  0  0
  152.5788  143.8689  159.9280 H   0  0  0  0  0  0  0  0  0  0  0  0
  152.1702  143.9212  156.8949 H   0  0  0  0  0  0  0  0  0  0  0  0
  153.1116  142.7537  157.7971 H   0  0  0  0  0  0  0  0  0  0  0  0
  151.0521  141.9908  159.0003 H   0  0  0  0  0  0  0  0  0  0  0  0
  149.7948  143.9743  157.2933 H   0  0  0  0  0  0  0  0  0  0  0  0
  1  2  1  0  0  0  0
  1 20  1  0  0  0  0
  1 21  1  0  0  0  0
  1 22  1  0  0  0  0
  2 19  1  0  0  0  0
  2  3  2  0  0  0  0
  3  4  1  0  0  0  0
  4  5  2  0  0  0  0
  5  6  1  0  0  0  0
  5 19  1  0  0  0  0
  6  7  1  0  0  0  0
  7  8  2  0  0  0  0
  7  9  1  0  0  0  0
  9 10  1  0  0  0  0
  9 23  1  0  0  0  0
 10 18  1  0  0  0  0
 10 11  1  0  0  0  0
 10 24  1  0  0  0  0
 11 12  1  0  0  0  0
 11 25  1  0  0  0  0
 11 26  1  0  0  0  0
 12 13  1  0  0  0  0
 12 27  1  0  0  0  0
 12 28  1  0  0  0  0
 13 18  1  0  0  0  0
 13 14  1  0  0  0  0
 13 38  1  0  0  0  0
 14 15  1  0  0  0  0
 14 29  1  0  0  0  0
 14 30  1  0  0  0  0
 15 16  1  0  0  0  0
 15 31  1  0  0  0  0
 15 32  1  0  0  0  0
 16 17  1  0  0  0  0
 16 33  1  0  0  0  0
 16 34  1  0  0  0  0
 17 18  1  0  0  0  0
 17 35  1  0  0  0  0
 17 36  1  0  0  0  0
 18 37  1  0  0  0  0
M  CHG  1   6  -1
M  CHG  1  13   1
M  END
> <s_m_source_file>
AV-unprocessed.smi

> <i_m_source_file_index>
1897

> <i_lp_mmshare_version>
43012

> <i_f3d_flags>
0

> <s_epik_input>
W0NIM11jMW5uYyhzMSlbTkhdQyg9TylbTkhdW0NASF0oW0NIMl1bQ0gyXTIpW0NAQEhdKE4yMylbQ0gyXVtDSDJdW0NIMl1bQ0gyXTM=

> <s_epik_cmdline>
J2VwaWtfcHl0aG9uJywgJy1waCcsICc3LjAnLCAnLXRuJywgJzgnLCAnLW1hJywgJzIwMCcsICctbWV0YWxfYmluZGluZycsICctaW1hZScsICc8aW5maWxlLm1hZT4nLCAnLW9tYWUnLCAnPG91dGZpbGUubWFlPic=

> <r_lp_tautomer_probability>
1

> <r_epik_Ionization_Penalty>
3.77712

> <r_epik_Ionization_Penalty_Charging>
3.67739

> <r_epik_Ionization_Penalty_Neutral>
0.0997294

> <r_epik_State_Penalty>
3.67514

> <r_epik_Charging_Adjusted_Penalty>
7.35254

> <i_epik_Tot_Q>
0

> <i_epik_Tot_abs_Q>
2

> <r_epik_Metal_State_Penalty>
0.540795

> <b_epik_Metal_Only>
1

> <s_lp_Force_Field>
OPLS_2005

> <r_lp_Energy>
28.3621

> <b_lp_Chiralities_Consistent>
1

> <s_lp_Variant>
AV-unprocessed.smi:1897-14

> <Gold.Version>
5.8.1

> <Gold.Id.Protein>
6NUR|6NUR_protein|mol2

> <Gold.PLP.Fitness>
39.4586

> <Gold.PLP.PLP>
-31.4575

> <Gold.PLP.part.hbond>
-5.7188

> <Gold.PLP.part.metal>
0.0000

> <Gold.PLP.part.buried>
1.6191

> <Gold.PLP.part.nonpolar>
-29.0544

> <Gold.PLP.part.repulsive>
0.1977

> <Gold.PLP.ligand.clash>
0.0000

> <Gold.PLP.ligand.torsion>
0.7335

> <Gold.PLP.Chemscore.Hbond>
3.1521

> <Gold.PLP.Chemscore.CHOScore>
0.0000

> <Gold.PLP.Chemscore.Metal>
0.0000

> <Gold.Chemscore.Hbonds>
donor molecule, donor type, donor heavy atom, donor atom, acceptor molecule, acceptor atom, score
      L1  H    13    38       P1  8028  2.00
      P1  H  7989  7998       L1     8  1.00
      P1  H 10752 10763       L1     4  0.05
      P1  H 10752 10764       L1     3  0.32

> <Gold.PLP.Chemscore.Internal.Correction>
0.0118

> <Gold.Rescore>
     Score         DG    S(hbond)    S(metal)    S(lipo)     H(rot)  DE(clash)    DE(int)     intcor
     14.96     -19.83       1.74        0.00      94.79       1.00       2.93       1.94       ----

> <Gold.Chemscore.Fitness>
14.9594

> <Gold.Chemscore.DG>
-19.8284

> <Gold.Chemscore.ZeroCoef>
-5.4800

> <Gold.Chemscore.Hbond>
1.7418

> <Gold.Chemscore.Metal>
0.0000

> <Gold.Chemscore.Lipo>
94.7933

> <Gold.Chemscore.Internal_Hbond>
0.0000

> <Gold.Chemscore.DEClash>
2.9311

> <Gold.Chemscore.DEInternal>
1.9379

> <Gold.Chemscore.Rot>
1.0000

> <Gold.Chemscore.Internal.Correction>
   9.000000E+99

> <Gold.Chemscore.Hbonds>
donor molecule, donor type, donor heavy atom, donor atom, acceptor molecule, acceptor atom, score
      L1  H    13    38       P1  8028  0.65
      P1  H  7989  7998       L1     8  1.00
      P1  H 10752 10764       L1     3  0.03

> <Gold.Chemscore.Hbond.Weighted>
-5.8176

> <Gold.Chemscore.Metal.Weighted>
-0.0000

> <Gold.Chemscore.Lipo.Weighted>
-11.0908

> <Gold.Chemscore.Internal_Hbond.Weighted>
0.0000

> <Gold.Chemscore.DEClash.Weighted>
2.9311

> <Gold.Chemscore.DEInternal.Weighted>
1.9379

> <Gold.Chemscore.Rot.Weighted>
2.5600

> <Gold.Chemscore.Internal.Correction.Weighted>
   9.000000E+99

> <Gold.Protein.RotatedTorsions>
[ 6907 6896 6895 6894 ] final  104.90 input  -60.11 | X-H torsion
[ 7974 7965 7964 7962 ] final  -37.72 input  175.53 | X-H torsion
[ 8008 7997 7996 7995 ] final -100.81 input   59.86 | X-H torsion
[ 10167 10162 10161 10158 ] final -103.30 input  -65.29 | X-H torsion
[ 10718 10713 10712 10709 ] final -125.10 input   66.30 | X-H torsion
[ 10763 10752 10751 10750 ] final  118.27 input  -60.55 | X-H torsion
[ 11005 11000 10999 10996 ] final   51.77 input  -57.11 | X-H torsion

> <Gold.Protein.ActiveResidues>
 VAL166  LYS551  ARG553  GLY616  TRP617  ASP618  TYR619  PRO620  LYS621  CYS622 
 ASP623  PHE694  ASN695  SER759  ASP760  ASP761  ALA762  ILE779  LEU786  VAL792 
 PHE793  MET794  SER795  GLU796  ALA797  LYS798  CYS799  TRP800  GLU811  SER814 

> <Gold.Protein.RotatedAtoms>
  152.5249  133.9608  159.7715 H   0  0  0  0  0  0  0  0  0  0  0  0  # atno 6907 bound_to 6896
  150.9899  133.6152  159.2717 H   0  0  0  0  0  0  0  0  0  0  0  0  # atno 6908 bound_to 6896
  151.3299  135.0845  159.9388 H   0  0  0  0  0  0  0  0  0  0  0  0  # atno 6909 bound_to 6896
  146.0550  140.6429  142.9024 H   0  0  0  0  0  0  0  0  0  0  0  0  # atno 7974 bound_to 7965
  154.8338  140.0438  157.1495 H   0  0  0  0  0  0  0  0  0  0  0  0  # atno 8008 bound_to 7997
  154.9123  140.3015  155.5239 H   0  0  0  0  0  0  0  0  0  0  0  0  # atno 8009 bound_to 7997
  156.2988  140.2356  156.4164 H   0  0  0  0  0  0  0  0  0  0  0  0  # atno 8010 bound_to 7997
  140.2215  143.3672  152.0965 H   0  0  0  0  0  0  0  0  0  0  0  0  # atno 10167 bound_to 10162
  156.1646  130.6625  151.0097 H   0  0  0  0  0  0  0  0  0  0  0  0  # atno 10718 bound_to 10713
  153.5651  135.3513  155.2815 H   0  0  0  0  0  0  0  0  0  0  0  0  # atno 10763 bound_to 10752
  154.8689  135.4146  154.2787 H   0  0  0  0  0  0  0  0  0  0  0  0  # atno 10764 bound_to 10752
  153.3541  135.7056  153.6834 H   0  0  0  0  0  0  0  0  0  0  0  0  # atno 10765 bound_to 10752
  140.0905  134.5216  155.8857 H   0  0  0  0  0  0  0  0  0  0  0  0  # atno 11005 bound_to 11000
  144.7143  140.4152  143.7056 LP  0  0  0  0  0  0  0  0  0  0  0  0  # atno 17320 bound_to 7965
  145.6660  139.1590  143.2782 LP  0  0  0  0  0  0  0  0  0  0  0  0  # atno 17321 bound_to 7965
  139.5142  144.6945  151.5669 LP  0  0  0  0  0  0  0  0  0  0  0  0  # atno 17342 bound_to 10162
  140.6252  143.9183  150.6558 LP  0  0  0  0  0  0  0  0  0  0  0  0  # atno 17343 bound_to 10162
  157.6758  131.0850  150.7498 LP  0  0  0  0  0  0  0  0  0  0  0  0  # atno 17370 bound_to 10713
  156.7559  130.4783  149.5447 LP  0  0  0  0  0  0  0  0  0  0  0  0  # atno 17371 bound_to 10713
  141.2076  133.6666  156.6318 LP  0  0  0  0  0  0  0  0  0  0  0  0  # atno 17394 bound_to 11000
  140.3359  134.7889  157.4361 LP  0  0  0  0  0  0  0  0  0  0  0  0  # atno 17395 bound_to 11000

$$$$
