AV-unprocessed.smi:3194|AV-procd|sdf|12211|dock8
  -GOLD-   2272018 53D 1   1.00000     0.00000
 Structure written by MMmdl.
 27 27  0  0  0  0  0  0  0  0  2 V2000
  152.5291  143.4653  160.6682 C   0  0  0  0  0  0  0  0  0  0  0  0
  153.1245  142.4628  159.6684 C   0  0  1  0  0  0  0  0  0  0  0  0
  153.5360  141.1534  160.3695 C   0  0  0  0  0  0  0  0  0  0  0  0
  154.5194  141.3863  161.3587 O   0  0  0  0  0  0  0  0  0  0  0  0
  152.1221  142.1791  158.6390 N   0  5  0  0  0  0  0  0  0  0  0  0
  152.1052  141.0534  157.8674 C   0  0  0  0  0  0  0  0  0  0  0  0
  152.9013  140.1083  157.8278 O   0  0  0  0  0  0  0  0  0  0  0  0
  150.8897  141.0300  156.9166 C   0  0  0  0  0  0  0  0  0  0  0  0
  149.7694  141.1481  157.6349 F   0  0  0  0  0  0  0  0  0  0  0  0
  150.9463  142.0827  156.0942 F   0  0  0  0  0  0  0  0  0  0  0  0
  150.8463  139.7256  156.1206 C   0  0  0  0  0  0  0  0  0  0  0  0
  150.7751  138.4742  156.7753 C   0  0  0  0  0  0  0  0  0  0  0  0
  150.7234  137.3039  155.9946 C   0  0  0  0  0  0  0  0  0  0  0  0
  150.7464  137.4217  154.5922 C   0  0  0  0  0  0  0  0  0  0  0  0
  150.8180  138.7118  154.0313 C   0  0  0  0  0  0  0  0  0  0  0  0
  150.8678  139.8402  154.7703 N   0  0  0  0  0  0  0  0  0  0  0  0
  154.0271  142.9180  159.2569 H   0  0  0  0  0  0  0  0  0  0  0  0
  153.2475  143.7100  161.4508 H   0  0  0  0  0  0  0  0  0  0  0  0
  151.6355  143.0669  161.1503 H   0  0  0  0  0  0  0  0  0  0  0  0
  152.2539  144.3979  160.1742 H   0  0  0  0  0  0  0  0  0  0  0  0
  152.6725  140.6987  160.8555 H   0  0  0  0  0  0  0  0  0  0  0  0
  153.9154  140.4267  159.6497 H   0  0  0  0  0  0  0  0  0  0  0  0
  154.1204  141.8607  162.0707 H   0  0  0  0  0  0  0  0  0  0  0  0
  150.7477  138.4117  157.8530 H   0  0  0  0  0  0  0  0  0  0  0  0
  150.6646  136.3330  156.4639 H   0  0  0  0  0  0  0  0  0  0  0  0
  150.7074  136.5459  153.9618 H   0  0  0  0  0  0  0  0  0  0  0  0
  150.8367  138.8410  152.9592 H   0  0  0  0  0  0  0  0  0  0  0  0
  1  2  1  0  0  0  0
  1 18  1  0  0  0  0
  1 19  1  0  0  0  0
  1 20  1  0  0  0  0
  2 17  1  0  0  0  0
  2  3  1  0  0  0  0
  2  5  1  0  0  0  0
  3  4  1  0  0  0  0
  3 21  1  0  0  0  0
  3 22  1  0  0  0  0
  4 23  1  0  0  0  0
  5  6  1  0  0  0  0
  6  7  2  0  0  0  0
  6  8  1  0  0  0  0
  8  9  1  0  0  0  0
  8 10  1  0  0  0  0
  8 11  1  0  0  0  0
 11 16  1  0  0  0  0
 11 12  2  0  0  0  0
 12 13  1  0  0  0  0
 12 24  1  0  0  0  0
 13 14  2  0  0  0  0
 13 25  1  0  0  0  0
 14 15  1  0  0  0  0
 14 26  1  0  0  0  0
 15 16  2  0  0  0  0
 15 27  1  0  0  0  0
M  CHG  1   5  -1
M  END
> <s_m_source_file>
AV-unprocessed.smi

> <i_m_source_file_index>
3194

> <i_lp_mmshare_version>
43012

> <i_f3d_flags>
0

> <s_epik_input>
W09IXVtDSDJdW0NASF0oW0NIM10pW05IXUMoPU8pQyhGKShGKWMxW2NIXVtjSF1bY0hdW2NIXW4x

> <s_epik_cmdline>
J2VwaWtfcHl0aG9uJywgJy1waCcsICc3LjAnLCAnLXRuJywgJzgnLCAnLW1hJywgJzIwMCcsICctbWV0YWxfYmluZGluZycsICctaW1hZScsICc8aW5maWxlLm1hZT4nLCAnLW9tYWUnLCAnPG91dGZpbGUubWFlPic=

> <r_lp_tautomer_probability>
1

> <r_epik_Ionization_Penalty>
5.78943

> <r_epik_Ionization_Penalty_Charging>
5.78942

> <r_epik_Ionization_Penalty_Neutral>
4.0054e-06

> <r_epik_State_Penalty>
5.78939

> <r_epik_Charging_Adjusted_Penalty>
11.5788

> <i_epik_Tot_Q>
-1

> <i_epik_Tot_abs_Q>
1

> <r_epik_Metal_State_Penalty>
1.76064

> <b_epik_Metal_Only>
1

> <s_lp_Force_Field>
OPLS_2005

> <r_lp_Energy>
17.1269

> <b_lp_Chiralities_Consistent>
1

> <s_lp_Variant>
AV-unprocessed.smi:3194-3

> <Gold.Version>
5.8.1

> <Gold.Id.Protein>
6NUR|6NUR_protein|mol2

> <Gold.PLP.Fitness>
37.7018

> <Gold.PLP.PLP>
-29.6989

> <Gold.PLP.part.hbond>
-3.0000

> <Gold.PLP.part.metal>
0.0000

> <Gold.PLP.part.buried>
-5.0193

> <Gold.PLP.part.nonpolar>
-21.1801

> <Gold.PLP.part.repulsive>
0.0603

> <Gold.PLP.ligand.clash>
0.0000

> <Gold.PLP.ligand.torsion>
0.3721

> <Gold.PLP.Chemscore.Hbond>
1.9000

> <Gold.PLP.Chemscore.CHOScore>
0.9991

> <Gold.PLP.Chemscore.Metal>
0.0000

> <Gold.Chemscore.Hbonds>
donor molecule, donor type, donor heavy atom, donor atom, acceptor molecule, acceptor atom, score
      P1  H  7989  7998       L1    16  0.80
      P1  H  7997  8010       L1     7  1.00
      L1  C    15    27       P1  7957  0.92

> <Gold.PLP.Chemscore.Internal.Correction>
0.0500

> <Gold.Rescore>
     Score         DG    S(hbond)    S(metal)    S(lipo)     H(rot)  DE(clash)    DE(int)     intcor
     10.58     -13.02       1.79        0.00      66.59       2.43       0.33       2.11       ----

> <Gold.Chemscore.Fitness>
10.5825

> <Gold.Chemscore.DG>
-13.0227

> <Gold.Chemscore.ZeroCoef>
-5.4800

> <Gold.Chemscore.Hbond>
1.7865

> <Gold.Chemscore.Metal>
0.0000

> <Gold.Chemscore.Lipo>
66.5866

> <Gold.Chemscore.Internal_Hbond>
0.0000

> <Gold.Chemscore.DEClash>
0.3316

> <Gold.Chemscore.DEInternal>
2.1087

> <Gold.Chemscore.Rot>
2.4277

> <Gold.Chemscore.Internal.Correction>
   9.000000E+99

> <Gold.Chemscore.Hbonds>
donor molecule, donor type, donor heavy atom, donor atom, acceptor molecule, acceptor atom, score
      P1  H  7989  7998       L1    16  0.12
      P1  H  7997  8010       L1     7  0.96

> <Gold.Chemscore.Hbond.Weighted>
-5.9670

> <Gold.Chemscore.Metal.Weighted>
-0.0000

> <Gold.Chemscore.Lipo.Weighted>
-7.7906

> <Gold.Chemscore.Internal_Hbond.Weighted>
0.0000

> <Gold.Chemscore.DEClash.Weighted>
0.3316

> <Gold.Chemscore.DEInternal.Weighted>
2.1087

> <Gold.Chemscore.Rot.Weighted>
6.2149

> <Gold.Chemscore.Internal.Correction.Weighted>
   9.000000E+99

> <Gold.Protein.RotatedTorsions>
[ 6907 6896 6895 6894 ] final  -37.14 input  -60.11 | X-H torsion
[ 7974 7965 7964 7962 ] final   33.57 input  175.53 | X-H torsion
[ 8008 7997 7996 7995 ] final   44.04 input   59.86 | X-H torsion
[ 10167 10162 10161 10158 ] final  142.38 input  -65.29 | X-H torsion
[ 10718 10713 10712 10709 ] final  -36.61 input   66.30 | X-H torsion
[ 10763 10752 10751 10750 ] final -173.01 input  -60.55 | X-H torsion
[ 11005 11000 10999 10996 ] final  111.73 input  -57.11 | X-H torsion

> <Gold.Protein.ActiveResidues>
 VAL166  LYS551  ARG553  GLY616  TRP617  ASP618  TYR619  PRO620  LYS621  CYS622 
 ASP623  PHE694  ASN695  SER759  ASP760  ASP761  ALA762  ILE779  LEU786  VAL792 
 PHE793  MET794  SER795  GLU796  ALA797  LYS798  CYS799  TRP800  GLU811  SER814 

> <Gold.Protein.RotatedAtoms>
  151.0184  134.9451  159.8045 H   0  0  0  0  0  0  0  0  0  0  0  0  # atno 6907 bound_to 6896
  152.5319  134.2935  159.9062 H   0  0  0  0  0  0  0  0  0  0  0  0  # atno 6908 bound_to 6896
  151.2942  133.4109  159.2669 H   0  0  0  0  0  0  0  0  0  0  0  0  # atno 6909 bound_to 6896
  146.1411  139.6379  142.9162 H   0  0  0  0  0  0  0  0  0  0  0  0  # atno 7974 bound_to 7965
  155.3128  140.3392  155.4243 H   0  0  0  0  0  0  0  0  0  0  0  0  # atno 8008 bound_to 7997
  156.1947  140.1710  156.8059 H   0  0  0  0  0  0  0  0  0  0  0  0  # atno 8009 bound_to 7997
  154.5485  140.0710  156.8612 H   0  0  0  0  0  0  0  0  0  0  0  0  # atno 8010 bound_to 7997
  139.4996  144.6111  151.6270 H   0  0  0  0  0  0  0  0  0  0  0  0  # atno 10167 bound_to 10162
  156.3249  130.4271  149.7926 H   0  0  0  0  0  0  0  0  0  0  0  0  # atno 10718 bound_to 10713
  154.6128  135.2866  155.0413 H   0  0  0  0  0  0  0  0  0  0  0  0  # atno 10763 bound_to 10752
  154.1637  135.6484  153.4996 H   0  0  0  0  0  0  0  0  0  0  0  0  # atno 10764 bound_to 10752
  153.0202  135.5384  154.6888 H   0  0  0  0  0  0  0  0  0  0  0  0  # atno 10765 bound_to 10752
  139.8910  134.9514  156.6477 H   0  0  0  0  0  0  0  0  0  0  0  0  # atno 11005 bound_to 11000
  145.5044  141.0437  143.2523 LP  0  0  0  0  0  0  0  0  0  0  0  0  # atno 17320 bound_to 7965
  144.7794  139.6559  143.7161 LP  0  0  0  0  0  0  0  0  0  0  0  0  # atno 17321 bound_to 7965
  140.5785  143.9986  150.6255 LP  0  0  0  0  0  0  0  0  0  0  0  0  # atno 17342 bound_to 10162
  140.3127  143.3187  152.0862 LP  0  0  0  0  0  0  0  0  0  0  0  0  # atno 17343 bound_to 10162
  156.5220  130.8219  151.3207 LP  0  0  0  0  0  0  0  0  0  0  0  0  # atno 17370 bound_to 10713
  157.7419  130.9880  150.2479 LP  0  0  0  0  0  0  0  0  0  0  0  0  # atno 17371 bound_to 10713
  140.7544  133.8870  155.8371 LP  0  0  0  0  0  0  0  0  0  0  0  0  # atno 17394 bound_to 11000
  140.9973  134.1197  157.4351 LP  0  0  0  0  0  0  0  0  0  0  0  0  # atno 17395 bound_to 11000

$$$$
