AV-unprocessed.smi:1452|AV-procd|sdf|5903|dock8
  -GOLD-   22720 5593D 1   1.00000     0.00000
 Structure written by MMmdl.
 40 42  0  0  0  0  0  0  0  0  2 V2000
  145.1146  136.8900  153.1455 O   0  0  0  0  0  0  0  0  0  0  0  0
  146.2546  136.7129  152.7196 C   0  0  0  0  0  0  0  0  0  0  0  0
  146.5492  135.6537  151.9356 N   0  0  0  0  0  0  0  0  0  0  0  0
  145.7408  134.5862  151.4434 C   0  0  0  0  0  0  0  0  0  0  0  0
  146.4671  133.5311  150.8461 C   0  0  0  0  0  0  0  0  0  0  0  0
  145.7781  132.4216  150.3193 C   0  0  0  0  0  0  0  0  0  0  0  0
  144.3749  132.3937  150.4020 C   0  0  0  0  0  0  0  0  0  0  0  0
  143.7259  133.4829  151.0107 C   0  0  0  0  0  0  0  0  0  0  0  0
  144.3852  134.5475  151.5153 N   0  0  0  0  0  0  0  0  0  0  0  0
  147.2695  137.5462  153.0003 N   0  0  0  0  0  0  0  0  0  0  0  0
  147.1849  138.7419  153.8318 C   0  0  2  0  0  0  0  0  0  0  0  0
  146.4732  139.9099  153.1257 C   0  0  0  0  0  0  0  0  0  0  0  0
  147.2450  141.1753  153.5490 C   0  0  0  0  0  0  0  0  0  0  0  0
  148.2490  140.7122  154.5254 N   0  3  2  0  0  0  0  0  0  0  0  0
  149.4556  141.5498  154.6999 C   0  0  0  0  0  0  0  0  0  0  0  0
  150.3348  140.9483  155.8143 C   0  0  0  0  0  0  0  0  0  0  0  0
  150.6494  139.4610  155.5545 C   0  0  0  0  0  0  0  0  0  0  0  0
  149.3617  138.6582  155.2869 C   0  0  0  0  0  0  0  0  0  0  0  0
  148.5638  139.3247  154.1532 C   0  0  1  0  0  0  0  0  0  0  0  0
  147.5105  135.6198  151.6285 H   0  0  0  0  0  0  0  0  0  0  0  0
  147.5457  133.5663  150.7901 H   0  0  0  0  0  0  0  0  0  0  0  0
  146.3180  131.6065  149.8603 H   0  0  0  0  0  0  0  0  0  0  0  0
  143.8117  131.5598  150.0097 H   0  0  0  0  0  0  0  0  0  0  0  0
  142.6495  133.5009  151.0959 H   0  0  0  0  0  0  0  0  0  0  0  0
  148.1739  137.3264  152.6060 H   0  0  0  0  0  0  0  0  0  0  0  0
  146.6528  138.5272  154.7611 H   0  0  0  0  0  0  0  0  0  0  0  0
  146.5088  139.8029  152.0404 H   0  0  0  0  0  0  0  0  0  0  0  0
  145.4227  139.9602  153.4143 H   0  0  0  0  0  0  0  0  0  0  0  0
  147.7399  141.6178  152.6829 H   0  0  0  0  0  0  0  0  0  0  0  0
  146.5957  141.9312  153.9913 H   0  0  0  0  0  0  0  0  0  0  0  0
  150.0105  141.6033  153.7620 H   0  0  0  0  0  0  0  0  0  0  0  0
  149.1611  142.5671  154.9600 H   0  0  0  0  0  0  0  0  0  0  0  0
  151.2613  141.5155  155.9073 H   0  0  0  0  0  0  0  0  0  0  0  0
  149.8193  141.0437  156.7708 H   0  0  0  0  0  0  0  0  0  0  0  0
  151.3142  139.3769  154.6940 H   0  0  0  0  0  0  0  0  0  0  0  0
  151.1875  139.0370  156.4028 H   0  0  0  0  0  0  0  0  0  0  0  0
  149.6147  137.6316  155.0217 H   0  0  0  0  0  0  0  0  0  0  0  0
  148.7582  138.6088  156.1942 H   0  0  0  0  0  0  0  0  0  0  0  0
  149.1680  139.3376  153.2429 H   0  0  0  0  0  0  0  0  0  0  0  0
  147.7809  140.6670  155.4193 H   0  0  0  0  0  0  0  0  0  0  0  0
  1  2  2  0  0  0  0
  2  3  1  0  0  0  0
  2 10  1  0  0  0  0
  3  4  1  0  0  0  0
  3 20  1  0  0  0  0
  4  9  1  0  0  0  0
  4  5  2  0  0  0  0
  5  6  1  0  0  0  0
  5 21  1  0  0  0  0
  6  7  2  0  0  0  0
  6 22  1  0  0  0  0
  7  8  1  0  0  0  0
  7 23  1  0  0  0  0
  8  9  2  0  0  0  0
  8 24  1  0  0  0  0
 10 11  1  0  0  0  0
 10 25  1  0  0  0  0
 11 19  1  0  0  0  0
 11 12  1  0  0  0  0
 11 26  1  0  0  0  0
 12 13  1  0  0  0  0
 12 27  1  0  0  0  0
 12 28  1  0  0  0  0
 13 14  1  0  0  0  0
 13 29  1  0  0  0  0
 13 30  1  0  0  0  0
 14 19  1  0  0  0  0
 14 15  1  0  0  0  0
 14 40  1  0  0  0  0
 15 16  1  0  0  0  0
 15 31  1  0  0  0  0
 15 32  1  0  0  0  0
 16 17  1  0  0  0  0
 16 33  1  0  0  0  0
 16 34  1  0  0  0  0
 17 18  1  0  0  0  0
 17 35  1  0  0  0  0
 17 36  1  0  0  0  0
 18 19  1  0  0  0  0
 18 37  1  0  0  0  0
 18 38  1  0  0  0  0
 19 39  1  0  0  0  0
M  CHG  1  14   1
M  END
> <s_m_source_file>
AV-unprocessed.smi

> <i_m_source_file_index>
1452

> <i_lp_mmshare_version>
43012

> <i_f3d_flags>
0

> <s_epik_input>
W0NIMl0xW0NIMl1bQ0gyXVtDSDJdW0NASF0oTjEyKVtDQEBIXShbQ0gyXVtDSDJdMilbTkhdQyg9TylbTkhdYzNbY0hdW2NIXVtjSF1bY0hdbjM=

> <s_epik_cmdline>
J2VwaWtfcHl0aG9uJywgJy1waCcsICc3LjAnLCAnLXRuJywgJzgnLCAnLW1hJywgJzIwMCcsICctbWV0YWxfYmluZGluZycsICctaW1hZScsICc8aW5maWxlLm1hZT4nLCAnLW9tYWUnLCAnPG91dGZpbGUubWFlPic=

> <r_epik_Ionization_Penalty>
0.00100813

> <r_epik_Ionization_Penalty_Charging>
0.000974069

> <r_epik_Ionization_Penalty_Neutral>
3.40643e-05

> <r_epik_State_Penalty>
0.000633842

> <r_epik_Charging_Adjusted_Penalty>
0.00160791

> <i_epik_Tot_Q>
1

> <i_epik_Tot_abs_Q>
1

> <r_epik_Metal_State_Penalty>
-0

> <b_epik_Metal_Only>
0

> <s_lp_Force_Field>
OPLS_2005

> <r_lp_Energy>
38.1413

> <b_lp_Chiralities_Consistent>
1

> <s_lp_Variant>
AV-unprocessed.smi:1452-1

> <Gold.Version>
5.8.1

> <Gold.Id.Protein>
6NUR|6NUR_protein|mol2

> <Gold.PLP.Fitness>
35.8958

> <Gold.PLP.PLP>
-27.9418

> <Gold.PLP.part.hbond>
-1.3042

> <Gold.PLP.part.metal>
0.0000

> <Gold.PLP.part.buried>
0.4444

> <Gold.PLP.part.nonpolar>
-27.1751

> <Gold.PLP.part.repulsive>
0.4910

> <Gold.PLP.ligand.clash>
0.0000

> <Gold.PLP.ligand.torsion>
0.1645

> <Gold.PLP.Chemscore.Hbond>
1.8003

> <Gold.PLP.Chemscore.CHOScore>
0.9576

> <Gold.PLP.Chemscore.Metal>
0.0000

> <Gold.Chemscore.Hbonds>
donor molecule, donor type, donor heavy atom, donor atom, acceptor molecule, acceptor atom, score
      L1  H     3    20       P1  7948  0.93
      L1  H    10    25       P1  7948  0.87
      L1  C     8    24       P1 10186  0.99

> <Gold.PLP.Chemscore.Internal.Correction>
0.0093

> <Gold.Rescore>
     Score         DG    S(hbond)    S(metal)    S(lipo)     H(rot)  DE(clash)    DE(int)     intcor
     15.85     -18.45       1.88        0.00      78.93       1.00       1.27       1.32       ----

> <Gold.Chemscore.Fitness>
15.8504

> <Gold.Chemscore.DG>
-18.4460

> <Gold.Chemscore.ZeroCoef>
-5.4800

> <Gold.Chemscore.Hbond>
1.8837

> <Gold.Chemscore.Metal>
0.0000

> <Gold.Chemscore.Lipo>
78.9280

> <Gold.Chemscore.Internal_Hbond>
0.0000

> <Gold.Chemscore.DEClash>
1.2721

> <Gold.Chemscore.DEInternal>
1.3235

> <Gold.Chemscore.Rot>
1.0000

> <Gold.Chemscore.Internal.Correction>
   9.000000E+99

> <Gold.Chemscore.Hbonds>
donor molecule, donor type, donor heavy atom, donor atom, acceptor molecule, acceptor atom, score
      L1  H     3    20       P1  7948  0.83
      L1  H    10    25       P1  7948  0.80

> <Gold.Chemscore.Hbond.Weighted>
-6.2914

> <Gold.Chemscore.Metal.Weighted>
-0.0000

> <Gold.Chemscore.Lipo.Weighted>
-9.2346

> <Gold.Chemscore.Internal_Hbond.Weighted>
0.0000

> <Gold.Chemscore.DEClash.Weighted>
1.2721

> <Gold.Chemscore.DEInternal.Weighted>
1.3235

> <Gold.Chemscore.Rot.Weighted>
2.5600

> <Gold.Chemscore.Internal.Correction.Weighted>
   9.000000E+99

> <Gold.Protein.RotatedTorsions>
[ 6907 6896 6895 6894 ] final  116.90 input  -60.11 | X-H torsion
[ 7974 7965 7964 7962 ] final   58.30 input  175.53 | X-H torsion
[ 8008 7997 7996 7995 ] final   12.34 input   59.86 | X-H torsion
[ 10167 10162 10161 10158 ] final  -25.65 input  -65.29 | X-H torsion
[ 10718 10713 10712 10709 ] final   37.24 input   66.30 | X-H torsion
[ 10763 10752 10751 10750 ] final  179.55 input  -60.55 | X-H torsion
[ 11005 11000 10999 10996 ] final  -52.48 input  -57.11 | X-H torsion

> <Gold.Protein.ActiveResidues>
 VAL166  LYS551  ARG553  GLY616  TRP617  ASP618  TYR619  PRO620  LYS621  CYS622 
 ASP623  PHE694  ASN695  SER759  ASP760  ASP761  ALA762  ILE779  LEU786  VAL792 
 PHE793  MET794  SER795  GLU796  ALA797  LYS798  CYS799  TRP800  GLU811  SER814 

> <Gold.Protein.RotatedAtoms>
  152.4647  133.7898  159.6895 H   0  0  0  0  0  0  0  0  0  0  0  0  # atno 6907 bound_to 6896
  150.8607  133.7639  159.3000 H   0  0  0  0  0  0  0  0  0  0  0  0  # atno 6908 bound_to 6896
  151.5205  135.1070  159.9929 H   0  0  0  0  0  0  0  0  0  0  0  0  # atno 6909 bound_to 6896
  145.9196  139.3719  143.0486 H   0  0  0  0  0  0  0  0  0  0  0  0  # atno 7974 bound_to 7965
  154.8193  140.2881  155.5798 H   0  0  0  0  0  0  0  0  0  0  0  0  # atno 8008 bound_to 7997
  156.2996  140.2553  156.3027 H   0  0  0  0  0  0  0  0  0  0  0  0  # atno 8009 bound_to 7997
  154.9357  140.0382  157.2060 H   0  0  0  0  0  0  0  0  0  0  0  0  # atno 8010 bound_to 7997
  140.7286  143.4246  151.0897 H   0  0  0  0  0  0  0  0  0  0  0  0  # atno 10167 bound_to 10162
  157.3446  130.7566  149.6935 H   0  0  0  0  0  0  0  0  0  0  0  0  # atno 10718 bound_to 10713
  154.5222  135.2794  155.1253 H   0  0  0  0  0  0  0  0  0  0  0  0  # atno 10763 bound_to 10752
  154.2806  135.6286  153.5349 H   0  0  0  0  0  0  0  0  0  0  0  0  # atno 10764 bound_to 10752
  152.9939  135.5650  154.5713 H   0  0  0  0  0  0  0  0  0  0  0  0  # atno 10765 bound_to 10752
  141.0926  133.6630  156.4031 H   0  0  0  0  0  0  0  0  0  0  0  0  # atno 11005 bound_to 11000
  145.8566  140.9499  143.0721 LP  0  0  0  0  0  0  0  0  0  0  0  0  # atno 17320 bound_to 7965
  144.6751  140.0477  143.7479 LP  0  0  0  0  0  0  0  0  0  0  0  0  # atno 17321 bound_to 7965
  139.7896  143.8238  152.3150 LP  0  0  0  0  0  0  0  0  0  0  0  0  # atno 17342 bound_to 10162
  139.8217  144.7293  150.9564 LP  0  0  0  0  0  0  0  0  0  0  0  0  # atno 17343 bound_to 10162
  155.9712  130.4158  150.4199 LP  0  0  0  0  0  0  0  0  0  0  0  0  # atno 17370 bound_to 10713
  157.2252  131.0491  151.2524 LP  0  0  0  0  0  0  0  0  0  0  0  0  # atno 17371 bound_to 10713
  140.5215  134.6300  157.5319 LP  0  0  0  0  0  0  0  0  0  0  0  0  # atno 17394 bound_to 11000
  139.9756  134.7221  155.9957 LP  0  0  0  0  0  0  0  0  0  0  0  0  # atno 17395 bound_to 11000

$$$$
