AV-unprocessed.smi:2888|AV-procd|sdf|11106|dock4
  -GOLD-   2272015573D 1   1.00000     0.00000
 Structure written by MMmdl.
 34 36  0  0  0  0  0  0  0  0  2 V2000
  151.9636  138.5774  154.7964 C   0  0  0  0  0  0  0  0  0  0  0  0
  151.0301  139.7689  154.8325 C   0  0  0  0  0  0  0  0  0  0  0  0
  149.9153  139.8611  153.9814 C   0  0  0  0  0  0  0  0  0  0  0  0
  149.1191  141.0163  154.1057 C   0  0  0  0  0  0  0  0  0  0  0  0
  147.8923  141.2435  153.2484 C   0  0  0  0  0  0  0  0  0  0  0  0
  149.4431  141.9716  155.0129 N   0  3  0  0  0  0  0  0  0  0  0  0
  150.5245  141.8177  155.7925 C   0  0  0  0  0  0  0  0  0  0  0  0
  150.8082  142.8256  156.6964 N   0  0  0  0  0  0  0  0  0  0  0  0
  151.9441  142.8074  157.6109 C   0  0  2  0  0  0  0  0  0  0  0  0
  151.6735  142.0214  158.8963 C   0  0  0  0  0  0  0  0  0  0  0  0
  152.0347  143.0515  159.9763 C   0  0  2  0  0  0  0  0  0  0  0  0
  150.9522  144.1303  160.1077 C   0  0  0  0  0  0  0  0  0  0  0  0
  151.1692  144.9443  158.8333 C   0  0  0  0  0  0  0  0  0  0  0  0
  152.3341  144.1911  158.1677 C   0  0  1  0  0  0  0  0  0  0  0  0
  153.0543  143.7865  159.3195 O   0  0  0  0  0  0  0  0  0  0  0  0
  151.3202  140.7406  155.7207 N   0  0  0  0  0  0  0  0  0  0  0  0
  151.5962  137.8094  154.1151 H   0  0  0  0  0  0  0  0  0  0  0  0
  152.0551  138.1348  155.7888 H   0  0  0  0  0  0  0  0  0  0  0  0
  152.9557  138.8832  154.4627 H   0  0  0  0  0  0  0  0  0  0  0  0
  149.6814  139.0848  153.2670 H   0  0  0  0  0  0  0  0  0  0  0  0
  147.6542  140.3566  152.6605 H   0  0  0  0  0  0  0  0  0  0  0  0
  148.0592  142.0736  152.5617 H   0  0  0  0  0  0  0  0  0  0  0  0
  147.0289  141.4797  153.8710 H   0  0  0  0  0  0  0  0  0  0  0  0
  150.2946  143.6895  156.6012 H   0  0  0  0  0  0  0  0  0  0  0  0
  152.8025  142.3646  157.1035 H   0  0  0  0  0  0  0  0  0  0  0  0
  150.6438  141.6738  158.9935 H   0  0  0  0  0  0  0  0  0  0  0  0
  152.3291  141.1516  158.9524 H   0  0  0  0  0  0  0  0  0  0  0  0
  152.3368  142.6103  160.9266 H   0  0  0  0  0  0  0  0  0  0  0  0
  149.9497  143.7069  160.1762 H   0  0  0  0  0  0  0  0  0  0  0  0
  151.1230  144.7484  160.9900 H   0  0  0  0  0  0  0  0  0  0  0  0
  150.2792  145.0007  158.2063 H   0  0  0  0  0  0  0  0  0  0  0  0
  151.4673  145.9631  159.0829 H   0  0  0  0  0  0  0  0  0  0  0  0
  152.9136  144.8010  157.4739 H   0  0  0  0  0  0  0  0  0  0  0  0
  148.8580  142.8036  155.0911 H   0  0  0  0  0  0  0  0  0  0  0  0
  1  2  1  0  0  0  0
  1 17  1  0  0  0  0
  1 18  1  0  0  0  0
  1 19  1  0  0  0  0
  2 16  1  0  0  0  0
  2  3  2  0  0  0  0
  3  4  1  0  0  0  0
  3 20  1  0  0  0  0
  4  5  1  0  0  0  0
  4  6  2  0  0  0  0
  5 21  1  0  0  0  0
  5 22  1  0  0  0  0
  5 23  1  0  0  0  0
  6  7  1  0  0  0  0
  6 34  1  0  0  0  0
  7  8  1  0  0  0  0
  7 16  2  0  0  0  0
  8  9  1  0  0  0  0
  8 24  1  0  0  0  0
  9 14  1  0  0  0  0
  9 10  1  0  0  0  0
  9 25  1  0  0  0  0
 10 11  1  0  0  0  0
 10 26  1  0  0  0  0
 10 27  1  0  0  0  0
 11 15  1  0  0  0  0
 11 12  1  0  0  0  0
 11 28  1  0  0  0  0
 12 13  1  0  0  0  0
 12 29  1  0  0  0  0
 12 30  1  0  0  0  0
 13 14  1  0  0  0  0
 13 31  1  0  0  0  0
 13 32  1  0  0  0  0
 14 15  1  0  0  0  0
 14 33  1  0  0  0  0
M  CHG  1   6   1
M  END
> <s_m_source_file>
AV-unprocessed.smi

> <i_m_source_file_index>
2888

> <i_lp_mmshare_version>
43012

> <i_f3d_flags>
0

> <s_epik_input>
W0NIM11jMVtjSF1jKFtDSDNdKW5jKG4xKVtOSF1bQ0BIXShbQ0gyXVtDQEBIXTIzKVtDQEBIXShPMylbQ0gyXVtDSDJdMg==

> <s_epik_cmdline>
J2VwaWtfcHl0aG9uJywgJy1waCcsICc3LjAnLCAnLXRuJywgJzgnLCAnLW1hJywgJzIwMCcsICctbWV0YWxfYmluZGluZycsICctaW1hZScsICc8aW5maWxlLm1hZT4nLCAnLW9tYWUnLCAnPG91dGZpbGUubWFlPic=

> <r_lp_tautomer_probability>
0.505494

> <r_epik_Ionization_Penalty>
2.49163

> <r_epik_Ionization_Penalty_Charging>
2.49163

> <r_epik_Ionization_Penalty_Neutral>
3.7631e-06

> <r_epik_State_Penalty>
2.656

> <r_epik_Charging_Adjusted_Penalty>
5.14762

> <i_epik_Tot_Q>
1

> <i_epik_Tot_abs_Q>
1

> <r_epik_Metal_State_Penalty>
2.66479

> <b_epik_Metal_Only>
0

> <s_lp_Force_Field>
OPLS_2005

> <r_lp_Energy>
36.4538

> <b_lp_Chiralities_Consistent>
1

> <s_lp_Variant>
AV-unprocessed.smi:2888-7

> <Gold.Version>
5.8.1

> <Gold.Id.Protein>
6NUR|6NUR_protein|mol2

> <Gold.PLP.Fitness>
48.4472

> <Gold.PLP.PLP>
-38.0105

> <Gold.PLP.part.hbond>
-2.1478

> <Gold.PLP.part.metal>
0.0000

> <Gold.PLP.part.buried>
-5.4118

> <Gold.PLP.part.nonpolar>
-30.8057

> <Gold.PLP.part.repulsive>
0.2484

> <Gold.PLP.ligand.clash>
0.0000

> <Gold.PLP.ligand.torsion>
0.3060

> <Gold.PLP.Chemscore.Hbond>
3.6800

> <Gold.PLP.Chemscore.CHOScore>
0.0000

> <Gold.PLP.Chemscore.Metal>
0.0000

> <Gold.Chemscore.Hbonds>
donor molecule, donor type, donor heavy atom, donor atom, acceptor molecule, acceptor atom, score
      L1  H     6    34       P1  8028  1.73
      L1  H     8    24       P1  8028  1.98

> <Gold.PLP.Chemscore.Internal.Correction>
0.0087

> <Gold.Rescore>
     Score         DG    S(hbond)    S(metal)    S(lipo)     H(rot)  DE(clash)    DE(int)     intcor
     19.77     -21.29       1.76        0.00     106.77       1.00       1.32       0.19       ----

> <Gold.Chemscore.Fitness>
19.7747

> <Gold.Chemscore.DG>
-21.2892

> <Gold.Chemscore.ZeroCoef>
-5.4800

> <Gold.Chemscore.Hbond>
1.7598

> <Gold.Chemscore.Metal>
0.0000

> <Gold.Chemscore.Lipo>
106.7662

> <Gold.Chemscore.Internal_Hbond>
0.0000

> <Gold.Chemscore.DEClash>
1.3247

> <Gold.Chemscore.DEInternal>
0.1898

> <Gold.Chemscore.Rot>
1.0000

> <Gold.Chemscore.Internal.Correction>
   9.000000E+99

> <Gold.Chemscore.Hbonds>
donor molecule, donor type, donor heavy atom, donor atom, acceptor molecule, acceptor atom, score
      L1  H     6    34       P1  8028  0.84
      L1  H     8    24       P1  8028  0.92

> <Gold.Chemscore.Hbond.Weighted>
-5.8776

> <Gold.Chemscore.Metal.Weighted>
-0.0000

> <Gold.Chemscore.Lipo.Weighted>
-12.4916

> <Gold.Chemscore.Internal_Hbond.Weighted>
0.0000

> <Gold.Chemscore.DEClash.Weighted>
1.3247

> <Gold.Chemscore.DEInternal.Weighted>
0.1898

> <Gold.Chemscore.Rot.Weighted>
2.5600

> <Gold.Chemscore.Internal.Correction.Weighted>
   9.000000E+99

> <Gold.Protein.RotatedTorsions>
[ 6907 6896 6895 6894 ] final  154.81 input  -60.11 | X-H torsion
[ 7974 7965 7964 7962 ] final   18.96 input  175.53 | X-H torsion
[ 8008 7997 7996 7995 ] final    9.13 input   59.86 | X-H torsion
[ 10167 10162 10161 10158 ] final  -32.81 input  -65.29 | X-H torsion
[ 10718 10713 10712 10709 ] final -124.26 input   66.30 | X-H torsion
[ 10763 10752 10751 10750 ] final  -34.83 input  -60.55 | X-H torsion
[ 11005 11000 10999 10996 ] final  136.95 input  -57.11 | X-H torsion

> <Gold.Protein.ActiveResidues>
 VAL166  LYS551  ARG553  GLY616  TRP617  ASP618  TYR619  PRO620  LYS621  CYS622 
 ASP623  PHE694  ASN695  SER759  ASP760  ASP761  ALA762  ILE779  LEU786  VAL792 
 PHE793  MET794  SER795  GLU796  ALA797  LYS798  CYS799  TRP800  GLU811  SER814 

> <Gold.Protein.RotatedAtoms>
  152.0532  133.4028  159.4385 H   0  0  0  0  0  0  0  0  0  0  0  0  # atno 6907 bound_to 6896
  150.6869  134.3284  159.4826 H   0  0  0  0  0  0  0  0  0  0  0  0  # atno 6908 bound_to 6896
  152.1097  134.9283  160.0617 H   0  0  0  0  0  0  0  0  0  0  0  0  # atno 6909 bound_to 6896
  146.2166  139.8382  142.8646 H   0  0  0  0  0  0  0  0  0  0  0  0  # atno 7974 bound_to 7965
  154.7760  140.2810  155.6101 H   0  0  0  0  0  0  0  0  0  0  0  0  # atno 8008 bound_to 7997
  156.2942  140.2632  156.2502 H   0  0  0  0  0  0  0  0  0  0  0  0  # atno 8009 bound_to 7997
  154.9842  140.0374  157.2281 H   0  0  0  0  0  0  0  0  0  0  0  0  # atno 8010 bound_to 7997
  140.7215  143.3667  151.1857 H   0  0  0  0  0  0  0  0  0  0  0  0  # atno 10167 bound_to 10162
  156.1572  130.6576  150.9998 H   0  0  0  0  0  0  0  0  0  0  0  0  # atno 10718 bound_to 10713
  153.8532  135.6847  153.4790 H   0  0  0  0  0  0  0  0  0  0  0  0  # atno 10763 bound_to 10752
  153.1385  135.4667  154.9457 H   0  0  0  0  0  0  0  0  0  0  0  0  # atno 10764 bound_to 10752
  154.7793  135.3263  154.7973 H   0  0  0  0  0  0  0  0  0  0  0  0  # atno 10765 bound_to 10752
  140.0080  134.9451  157.0218 H   0  0  0  0  0  0  0  0  0  0  0  0  # atno 11005 bound_to 11000
  145.2927  141.0172  143.3654 LP  0  0  0  0  0  0  0  0  0  0  0  0  # atno 17320 bound_to 7965
  144.9065  139.4582  143.6607 LP  0  0  0  0  0  0  0  0  0  0  0  0  # atno 17321 bound_to 7965
  139.7230  143.9193  152.2992 LP  0  0  0  0  0  0  0  0  0  0  0  0  # atno 17342 bound_to 10162
  139.8956  144.6940  150.8721 LP  0  0  0  0  0  0  0  0  0  0  0  0  # atno 17343 bound_to 10162
  157.6704  131.0862  150.7626 LP  0  0  0  0  0  0  0  0  0  0  0  0  # atno 17370 bound_to 10713
  156.7690  130.4823  149.5422 LP  0  0  0  0  0  0  0  0  0  0  0  0  # atno 17371 bound_to 10713
  140.4605  134.1489  155.7191 LP  0  0  0  0  0  0  0  0  0  0  0  0  # atno 17394 bound_to 11000
  141.1691  133.8644  157.1625 LP  0  0  0  0  0  0  0  0  0  0  0  0  # atno 17395 bound_to 11000

$$$$
