AV-unprocessed.smi:1010|AV-procd|sdf|4417|dock3
  -GOLD-   22720 2363D 1   1.00000     0.00000
 Structure written by MMmdl.
 54 56  0  0  0  0  0  0  0  0  1 V2000
  145.1145  135.2727  155.0702 C   0  0  0  0  0  0  0  0  0  0  0  0
  144.2248  134.5606  154.1518 N   0  0  0  0  0  0  0  0  0  0  0  0
  142.9277  135.2384  154.1935 C   0  0  0  0  0  0  0  0  0  0  0  0
  144.7488  134.2858  152.7834 C   0  0  0  0  0  0  0  0  0  0  0  0
  144.9156  135.6548  152.0509 C   0  0  0  0  0  0  0  0  0  0  0  0
  146.1253  136.3596  152.4623 N   0  0  0  0  0  0  0  0  0  0  0  0
  146.1640  137.6349  152.8649 C   0  0  0  0  0  0  0  0  0  0  0  0
  145.1667  138.3516  152.9497 O   0  0  0  0  0  0  0  0  0  0  0  0
  147.4231  138.0155  153.1361 N   0  0  0  0  0  0  0  0  0  0  0  0
  147.8940  139.2974  153.5376 C   0  0  0  0  0  0  0  0  0  0  0  0
  147.0917  140.4581  153.4114 C   0  0  0  0  0  0  0  0  0  0  0  0
  147.6125  141.7031  153.8034 C   0  0  0  0  0  0  0  0  0  0  0  0
  148.9203  141.7448  154.3137 C   0  0  0  0  0  0  0  0  0  0  0  0
  149.6893  140.6475  154.4599 N   0  0  0  0  0  0  0  0  0  0  0  0
  149.1960  139.4365  154.1001 C   0  0  0  0  0  0  0  0  0  0  0  0
  150.0435  138.3211  154.2939 N   0  0  0  0  0  0  0  0  0  0  0  0
  151.4860  138.4988  154.4215 C   0  0  0  0  0  0  0  0  0  0  0  0
  151.9997  137.1741  154.9778 C   0  0  0  0  0  0  0  0  0  0  0  0
  150.8657  136.7487  155.9055 C   0  0  0  0  0  0  0  0  0  0  0  0
  149.6063  137.2637  155.2003 C   0  0  0  0  0  0  0  0  0  0  0  0
  146.1092  133.5358  152.8326 C   0  0  0  0  0  0  0  0  0  0  0  0
  146.5601  133.0376  151.4454 C   0  0  0  0  0  0  0  0  0  0  0  0
  145.5562  132.2205  150.8569 O   0  0  0  0  0  0  0  0  0  0  0  0
  144.3340  132.9132  150.6377 C   0  0  0  0  0  0  0  0  0  0  0  0
  143.7590  133.3817  151.9868 C   0  0  0  0  0  0  0  0  0  0  0  0
  146.0080  134.6948  155.3007 H   0  0  0  0  0  0  0  0  0  0  0  0
  144.6196  135.4408  156.0275 H   0  0  0  0  0  0  0  0  0  0  0  0
  145.4139  136.2455  154.6810 H   0  0  0  0  0  0  0  0  0  0  0  0
  142.1611  134.7116  153.6293 H   0  0  0  0  0  0  0  0  0  0  0  0
  142.9949  136.2591  153.8166 H   0  0  0  0  0  0  0  0  0  0  0  0
  142.5636  135.2926  155.2200 H   0  0  0  0  0  0  0  0  0  0  0  0
  144.9214  135.5306  150.9681 H   0  0  0  0  0  0  0  0  0  0  0  0
  144.0687  136.3116  152.2428 H   0  0  0  0  0  0  0  0  0  0  0  0
  146.9913  135.8430  152.4122 H   0  0  0  0  0  0  0  0  0  0  0  0
  148.1429  137.3396  152.9266 H   0  0  0  0  0  0  0  0  0  0  0  0
  146.0840  140.4135  153.0276 H   0  0  0  0  0  0  0  0  0  0  0  0
  147.0237  142.6038  153.7127 H   0  0  0  0  0  0  0  0  0  0  0  0
  149.3589  142.6826  154.6206 H   0  0  0  0  0  0  0  0  0  0  0  0
  151.9428  138.7398  153.4613 H   0  0  0  0  0  0  0  0  0  0  0  0
  151.7167  139.3008  155.1239 H   0  0  0  0  0  0  0  0  0  0  0  0
  152.1136  136.4488  154.1710 H   0  0  0  0  0  0  0  0  0  0  0  0
  152.9583  137.2700  155.4883 H   0  0  0  0  0  0  0  0  0  0  0  0
  150.8412  135.6734  156.0833 H   0  0  0  0  0  0  0  0  0  0  0  0
  150.9763  137.2465  156.8699 H   0  0  0  0  0  0  0  0  0  0  0  0
  148.8638  137.6167  155.9172 H   0  0  0  0  0  0  0  0  0  0  0  0
  149.1577  136.4616  154.6140 H   0  0  0  0  0  0  0  0  0  0  0  0
  146.8913  134.1726  153.2465 H   0  0  0  0  0  0  0  0  0  0  0  0
  146.0429  132.6687  153.4890 H   0  0  0  0  0  0  0  0  0  0  0  0
  146.8046  133.8677  150.7820 H   0  0  0  0  0  0  0  0  0  0  0  0
  147.4702  132.4460  151.5455 H   0  0  0  0  0  0  0  0  0  0  0  0
  144.4797  133.7387  149.9411 H   0  0  0  0  0  0  0  0  0  0  0  0
  143.6336  132.2293  150.1582 H   0  0  0  0  0  0  0  0  0  0  0  0
  143.5414  132.4642  152.5305 H   0  0  0  0  0  0  0  0  0  0  0  0
  142.8014  133.8809  151.8356 H   0  0  0  0  0  0  0  0  0  0  0  0
  1  2  1  0  0  0  0
  1 26  1  0  0  0  0
  1 27  1  0  0  0  0
  1 28  1  0  0  0  0
  2  3  1  0  0  0  0
  2  4  1  0  0  0  0
  3 29  1  0  0  0  0
  3 30  1  0  0  0  0
  3 31  1  0  0  0  0
  4 25  1  0  0  0  0
  4  5  1  0  0  0  0
  4 21  1  0  0  0  0
  5  6  1  0  0  0  0
  5 32  1  0  0  0  0
  5 33  1  0  0  0  0
  6  7  1  0  0  0  0
  6 34  1  0  0  0  0
  7  8  2  0  0  0  0
  7  9  1  0  0  0  0
  9 10  1  0  0  0  0
  9 35  1  0  0  0  0
 10 15  1  0  0  0  0
 10 11  2  0  0  0  0
 11 12  1  0  0  0  0
 11 36  1  0  0  0  0
 12 13  2  0  0  0  0
 12 37  1  0  0  0  0
 13 14  1  0  0  0  0
 13 38  1  0  0  0  0
 14 15  2  0  0  0  0
 15 16  1  0  0  0  0
 16 20  1  0  0  0  0
 16 17  1  0  0  0  0
 17 18  1  0  0  0  0
 17 39  1  0  0  0  0
 17 40  1  0  0  0  0
 18 19  1  0  0  0  0
 18 41  1  0  0  0  0
 18 42  1  0  0  0  0
 19 20  1  0  0  0  0
 19 43  1  0  0  0  0
 19 44  1  0  0  0  0
 20 45  1  0  0  0  0
 20 46  1  0  0  0  0
 21 22  1  0  0  0  0
 21 47  1  0  0  0  0
 21 48  1  0  0  0  0
 22 23  1  0  0  0  0
 22 49  1  0  0  0  0
 22 50  1  0  0  0  0
 23 24  1  0  0  0  0
 24 25  1  0  0  0  0
 24 51  1  0  0  0  0
 24 52  1  0  0  0  0
 25 53  1  0  0  0  0
 25 54  1  0  0  0  0
M  END
> <s_m_source_file>
AV-unprocessed.smi

> <i_m_source_file_index>
1010

> <i_lp_mmshare_version>
43012

> <i_f3d_flags>
0

> <s_epik_input>
W0NIMl0xW0NIMl1PW0NIMl1bQ0gyXUMxKE4oW0NIM10pW0NIM10pW0NIMl1bTkhdQyg9TylbTkhdYzJbY0hdW2NIXVtjSF1uYzJOM1tDSDJdW0NIMl1bQ0gyXVtDSDJdMw==

> <s_epik_cmdline>
J2VwaWtfcHl0aG9uJywgJy1waCcsICc3LjAnLCAnLXRuJywgJzgnLCAnLW1hJywgJzIwMCcsICctbWV0YWxfYmluZGluZycsICctaW1hZScsICc8aW5maWxlLm1hZT4nLCAnLW9tYWUnLCAnPG91dGZpbGUubWFlPic=

> <r_lp_tautomer_probability>
1

> <r_epik_Ionization_Penalty>
2.38232

> <r_epik_Ionization_Penalty_Charging>
0

> <r_epik_Ionization_Penalty_Neutral>
2.38232

> <r_epik_State_Penalty>
2.49988

> <r_epik_Charging_Adjusted_Penalty>
2.49988

> <i_epik_Tot_Q>
0

> <i_epik_Tot_abs_Q>
0

> <r_epik_Metal_State_Penalty>
2.47138

> <b_epik_Metal_Only>
0

> <s_lp_Force_Field>
OPLS_2005

> <r_lp_Energy>
56.3274

> <b_lp_Chiralities_Consistent>
1

> <s_lp_Variant>
AV-unprocessed.smi:1010-3

> <Gold.Version>
5.8.1

> <Gold.Id.Protein>
6NUR|6NUR_protein|mol2

> <Gold.PLP.Fitness>
42.7859

> <Gold.PLP.PLP>
-33.9919

> <Gold.PLP.part.hbond>
-2.8758

> <Gold.PLP.part.metal>
0.0000

> <Gold.PLP.part.buried>
-0.0075

> <Gold.PLP.part.nonpolar>
-34.3848

> <Gold.PLP.part.repulsive>
4.5641

> <Gold.PLP.ligand.clash>
0.0000

> <Gold.PLP.ligand.torsion>
0.6628

> <Gold.PLP.Chemscore.Hbond>
2.2384

> <Gold.PLP.Chemscore.CHOScore>
1.0000

> <Gold.PLP.Chemscore.Metal>
0.0000

> <Gold.Chemscore.Hbonds>
donor molecule, donor type, donor heavy atom, donor atom, acceptor molecule, acceptor atom, score
      L1  H     6    34       P1  7948  0.68
      L1  H     9    35       P1  7948  1.00
      P1  H  7989  7998       L1    14  0.48
      L1  C    13    38       P1  8028  1.00

> <Gold.PLP.Chemscore.Internal.Correction>
0.4045

> <Gold.Rescore>
     Score         DG    S(hbond)    S(metal)    S(lipo)     H(rot)  DE(clash)    DE(int)     intcor
     14.22     -18.39       1.94        0.00      88.46       1.54       2.08       2.08       ----

> <Gold.Chemscore.Fitness>
14.2230

> <Gold.Chemscore.DG>
-18.3872

> <Gold.Chemscore.ZeroCoef>
-5.4800

> <Gold.Chemscore.Hbond>
1.9431

> <Gold.Chemscore.Metal>
0.0000

> <Gold.Chemscore.Lipo>
88.4592

> <Gold.Chemscore.Internal_Hbond>
0.0000

> <Gold.Chemscore.DEClash>
2.0804

> <Gold.Chemscore.DEInternal>
2.0838

> <Gold.Chemscore.Rot>
1.5362

> <Gold.Chemscore.Internal.Correction>
   9.000000E+99

> <Gold.Chemscore.Hbonds>
donor molecule, donor type, donor heavy atom, donor atom, acceptor molecule, acceptor atom, score
      L1  H     6    34       P1  7948  0.65
      L1  H     9    35       P1  7948  0.96
      P1  H  7989  7998       L1    14  0.25

> <Gold.Chemscore.Hbond.Weighted>
-6.4900

> <Gold.Chemscore.Metal.Weighted>
-0.0000

> <Gold.Chemscore.Lipo.Weighted>
-10.3497

> <Gold.Chemscore.Internal_Hbond.Weighted>
0.0000

> <Gold.Chemscore.DEClash.Weighted>
2.0804

> <Gold.Chemscore.DEInternal.Weighted>
2.0838

> <Gold.Chemscore.Rot.Weighted>
3.9326

> <Gold.Chemscore.Internal.Correction.Weighted>
   9.000000E+99

> <Gold.Protein.RotatedTorsions>
[ 6907 6896 6895 6894 ] final  -86.17 input  -60.11 | X-H torsion
[ 7974 7965 7964 7962 ] final  146.76 input  175.53 | X-H torsion
[ 8008 7997 7996 7995 ] final  -65.91 input   59.86 | X-H torsion
[ 10167 10162 10161 10158 ] final  -65.44 input  -65.29 | X-H torsion
[ 10718 10713 10712 10709 ] final  135.08 input   66.30 | X-H torsion
[ 10763 10752 10751 10750 ] final  -53.30 input  -60.55 | X-H torsion
[ 11005 11000 10999 10996 ] final  -69.09 input  -57.11 | X-H torsion

> <Gold.Protein.ActiveResidues>
 VAL166  LYS551  ARG553  GLY616  TRP617  ASP618  TYR619  PRO620  LYS621  CYS622 
 ASP623  PHE694  ASN695  SER759  ASP760  ASP761  ALA762  ILE779  LEU786  VAL792 
 PHE793  MET794  SER795  GLU796  ALA797  LYS798  CYS799  TRP800  GLU811  SER814 

> <Gold.Protein.RotatedAtoms>
  150.6867  134.3092  159.4738 H   0  0  0  0  0  0  0  0  0  0  0  0  # atno 6907 bound_to 6896
  152.0980  134.9359  160.0579 H   0  0  0  0  0  0  0  0  0  0  0  0  # atno 6908 bound_to 6896
  152.0649  133.4044  159.4471 H   0  0  0  0  0  0  0  0  0  0  0  0  # atno 6909 bound_to 6896
  144.8645  139.5945  143.5915 H   0  0  0  0  0  0  0  0  0  0  0  0  # atno 7974 bound_to 7965
  154.4701  140.0923  156.7122 H   0  0  0  0  0  0  0  0  0  0  0  0  # atno 8008 bound_to 7997
  155.4748  140.3465  155.4312 H   0  0  0  0  0  0  0  0  0  0  0  0  # atno 8009 bound_to 7997
  156.1024  140.1426  156.9438 H   0  0  0  0  0  0  0  0  0  0  0  0  # atno 8010 bound_to 7997
  140.5729  143.2319  151.6501 H   0  0  0  0  0  0  0  0  0  0  0  0  # atno 10167 bound_to 10162
  157.4607  131.1073  150.9923 H   0  0  0  0  0  0  0  0  0  0  0  0  # atno 10718 bound_to 10713
  154.1566  135.6481  153.4976 H   0  0  0  0  0  0  0  0  0  0  0  0  # atno 10763 bound_to 10752
  153.0122  135.5351  154.6753 H   0  0  0  0  0  0  0  0  0  0  0  0  # atno 10764 bound_to 10752
  154.6056  135.2948  155.0460 H   0  0  0  0  0  0  0  0  0  0  0  0  # atno 10765 bound_to 10752
  141.1546  133.6756  156.6546 H   0  0  0  0  0  0  0  0  0  0  0  0  # atno 11005 bound_to 11000
  146.2885  139.7073  142.9178 LP  0  0  0  0  0  0  0  0  0  0  0  0  # atno 17320 bound_to 7965
  145.4248  141.0410  143.2944 LP  0  0  0  0  0  0  0  0  0  0  0  0  # atno 17321 bound_to 7965
  139.5127  144.3467  152.0690 LP  0  0  0  0  0  0  0  0  0  0  0  0  # atno 17342 bound_to 10162
  140.2607  144.4071  150.6187 LP  0  0  0  0  0  0  0  0  0  0  0  0  # atno 17343 bound_to 10162
  157.0721  130.5868  149.5404 LP  0  0  0  0  0  0  0  0  0  0  0  0  # atno 17370 bound_to 10713
  156.0027  130.5109  150.7722 LP  0  0  0  0  0  0  0  0  0  0  0  0  # atno 17371 bound_to 10713
  140.3294  134.7942  157.4314 LP  0  0  0  0  0  0  0  0  0  0  0  0  # atno 17394 bound_to 11000
  140.1030  134.5448  155.8335 LP  0  0  0  0  0  0  0  0  0  0  0  0  # atno 17395 bound_to 11000

$$$$
