AV-unprocessed.smi:2559|AV-procd|sdf|10037|dock10
  -GOLD-   2272014 83D 1   1.00000     0.00000
 Structure written by MMmdl.
 43 45  0  0  0  0  0  0  0  0  2 V2000
  153.8017  137.1275  160.4760 C   0  0  0  0  0  0  0  0  0  0  0  0
  153.3125  137.2096  159.0961 N   0  0  0  0  0  0  0  0  0  0  0  0
  153.3188  136.1424  158.2349 C   0  0  0  0  0  0  0  0  0  0  0  0
  153.7455  135.0596  158.6365 O   0  0  0  0  0  0  0  0  0  0  0  0
  152.8531  136.3006  156.9472 N   0  5  0  0  0  0  0  0  0  0  0  0
  152.3659  137.4593  156.4011 C   0  0  0  0  0  0  0  0  0  0  0  0
  151.9813  137.6175  155.2442 O   0  0  0  0  0  0  0  0  0  0  0  0
  152.3527  138.5739  157.3761 C   0  0  0  0  0  0  0  0  0  0  0  0
  152.8142  138.4617  158.6500 C   0  0  0  0  0  0  0  0  0  0  0  0
  152.7284  139.6672  159.3274 N   0  0  0  0  0  0  0  0  0  0  0  0
  152.1824  140.4797  158.4206 C   0  0  0  0  0  0  0  0  0  0  0  0
  151.9209  141.8280  158.6694 N   0  0  0  0  0  0  0  0  0  0  0  0
  152.5024  142.5661  159.7895 C   0  0  0  0  0  0  0  0  0  0  0  0
  153.0793  143.9191  159.3356 C   0  0  0  0  0  0  0  0  0  0  0  0
  151.9984  144.7716  158.6572 C   0  0  0  0  0  0  0  0  0  0  0  0
  151.3149  143.9621  157.5473 C   0  0  0  0  0  0  0  0  0  0  0  0
  150.8261  142.6076  158.0902 C   0  0  0  0  0  0  0  0  0  0  0  0
  151.9358  139.9010  157.2132 N   0  0  0  0  0  0  0  0  0  0  0  0
  151.4107  140.5337  156.0023 C   0  0  0  0  0  0  0  0  0  0  0  0
  150.0138  140.0060  155.6111 C   0  0  1  0  0  0  0  0  0  0  0  0
  149.2929  139.6397  156.7711 O   0  0  0  0  0  0  0  0  0  0  0  0
  149.1781  141.0462  154.8466 C   0  0  0  0  0  0  0  0  0  0  0  0
  149.5709  141.1101  153.4920 O   0  0  0  0  0  0  0  0  0  0  0  0
  154.1000  136.1268  160.7899 H   0  0  0  0  0  0  0  0  0  0  0  0
  153.0268  137.4628  161.1661 H   0  0  0  0  0  0  0  0  0  0  0  0
  154.6660  137.7805  160.6003 H   0  0  0  0  0  0  0  0  0  0  0  0
  151.7421  142.7152  160.5573 H   0  0  0  0  0  0  0  0  0  0  0  0
  153.2931  141.9699  160.2464 H   0  0  0  0  0  0  0  0  0  0  0  0
  153.4965  144.4537  160.1892 H   0  0  0  0  0  0  0  0  0  0  0  0
  153.9034  143.7500  158.6413 H   0  0  0  0  0  0  0  0  0  0  0  0
  151.2572  145.0774  159.3966 H   0  0  0  0  0  0  0  0  0  0  0  0
  152.4325  145.6852  158.2504 H   0  0  0  0  0  0  0  0  0  0  0  0
  150.4775  144.5253  157.1349 H   0  0  0  0  0  0  0  0  0  0  0  0
  152.0153  143.8019  156.7281 H   0  0  0  0  0  0  0  0  0  0  0  0
  150.3263  142.0372  157.3082 H   0  0  0  0  0  0  0  0  0  0  0  0
  150.0712  142.7721  158.8603 H   0  0  0  0  0  0  0  0  0  0  0  0
  151.3909  141.6131  156.1314 H   0  0  0  0  0  0  0  0  0  0  0  0
  152.1074  140.3808  155.1833 H   0  0  0  0  0  0  0  0  0  0  0  0
  150.1204  139.1091  154.9997 H   0  0  0  0  0  0  0  0  0  0  0  0
  148.3921  139.4833  156.5278 H   0  0  0  0  0  0  0  0  0  0  0  0
  148.1201  140.7834  154.8800 H   0  0  0  0  0  0  0  0  0  0  0  0
  149.2793  142.0343  155.2971 H   0  0  0  0  0  0  0  0  0  0  0  0
  149.1632  140.3947  153.0285 H   0  0  0  0  0  0  0  0  0  0  0  0
  1  2  1  0  0  0  0
  1 24  1  0  0  0  0
  1 25  1  0  0  0  0
  1 26  1  0  0  0  0
  2  9  1  0  0  0  0
  2  3  1  0  0  0  0
  3  4  2  0  0  0  0
  3  5  1  0  0  0  0
  5  6  1  0  0  0  0
  6  7  2  0  0  0  0
  6  8  1  0  0  0  0
  8 18  1  0  0  0  0
  8  9  2  0  0  0  0
  9 10  1  0  0  0  0
 10 11  2  0  0  0  0
 11 12  1  0  0  0  0
 11 18  1  0  0  0  0
 12 17  1  0  0  0  0
 12 13  1  0  0  0  0
 13 14  1  0  0  0  0
 13 27  1  0  0  0  0
 13 28  1  0  0  0  0
 14 15  1  0  0  0  0
 14 29  1  0  0  0  0
 14 30  1  0  0  0  0
 15 16  1  0  0  0  0
 15 31  1  0  0  0  0
 15 32  1  0  0  0  0
 16 17  1  0  0  0  0
 16 33  1  0  0  0  0
 16 34  1  0  0  0  0
 17 35  1  0  0  0  0
 17 36  1  0  0  0  0
 18 19  1  0  0  0  0
 19 20  1  0  0  0  0
 19 37  1  0  0  0  0
 19 38  1  0  0  0  0
 20 21  1  0  0  0  0
 20 22  1  0  0  0  0
 20 39  1  0  0  0  0
 21 40  1  0  0  0  0
 22 23  1  0  0  0  0
 22 41  1  0  0  0  0
 22 42  1  0  0  0  0
 23 43  1  0  0  0  0
M  CHG  1   5  -1
M  END
> <s_m_source_file>
AV-unprocessed.smi

> <i_m_source_file_index>
2559

> <i_lp_mmshare_version>
43012

> <i_f3d_flags>
0

> <s_epik_input>
Tz1jMVtuSF1jKD1PKW4oW0NIM10pYyhjMTIpbmMobjJbQ0gyXVtDQEhdKFtPSF0pW0NIMl1bT0hdKU4zW0NIMl1bQ0gyXVtDSDJdW0NIMl1bQ0gyXTM=

> <s_epik_cmdline>
J2VwaWtfcHl0aG9uJywgJy1waCcsICc3LjAnLCAnLXRuJywgJzgnLCAnLW1hJywgJzIwMCcsICctbWV0YWxfYmluZGluZycsICctaW1hZScsICc8aW5maWxlLm1hZT4nLCAnLW9tYWUnLCAnPG91dGZpbGUubWFlPic=

> <r_lp_tautomer_probability>
1

> <r_epik_Ionization_Penalty>
5.90509

> <r_epik_Ionization_Penalty_Charging>
0.0759636

> <r_epik_Ionization_Penalty_Neutral>
5.82913

> <r_epik_State_Penalty>
5.18635

> <r_epik_Charging_Adjusted_Penalty>
5.26231

> <i_epik_Tot_Q>
-1

> <i_epik_Tot_abs_Q>
1

> <r_epik_Metal_State_Penalty>
1.25614

> <b_epik_Metal_Only>
1

> <s_lp_Force_Field>
OPLS_2005

> <r_lp_Energy>
39.3002

> <b_lp_Chiralities_Consistent>
1

> <s_lp_Variant>
AV-unprocessed.smi:2559-4

> <Gold.Version>
5.8.1

> <Gold.Id.Protein>
6NUR|6NUR_protein|mol2

> <Gold.PLP.Fitness>
52.0097

> <Gold.PLP.PLP>
-40.2796

> <Gold.PLP.part.hbond>
-5.6623

> <Gold.PLP.part.metal>
0.0000

> <Gold.PLP.part.buried>
-3.5776

> <Gold.PLP.part.nonpolar>
-31.9953

> <Gold.PLP.part.repulsive>
0.0530

> <Gold.PLP.ligand.clash>
0.0000

> <Gold.PLP.ligand.torsion>
0.8641

> <Gold.PLP.Chemscore.Hbond>
4.2784

> <Gold.PLP.Chemscore.CHOScore>
0.0000

> <Gold.PLP.Chemscore.Metal>
0.0000

> <Gold.Chemscore.Hbonds>
donor molecule, donor type, donor heavy atom, donor atom, acceptor molecule, acceptor atom, score
      L1  H    23    43       P1  7957  0.40
      P1  H  6896  6908       L1     4  0.62
      P1  H  7989  7998       L1    23  0.21
      P1  H  8011  8017       L1    23  1.00
      P1  H 10752 10765       L1     5  2.00

> <Gold.PLP.Chemscore.Internal.Correction>
0.6230

> <Gold.Rescore>
     Score         DG    S(hbond)    S(metal)    S(lipo)     H(rot)  DE(clash)    DE(int)     intcor
     12.90     -14.83       2.06        0.00      85.32       2.93       0.12       1.81       ----

> <Gold.Chemscore.Fitness>
12.8959

> <Gold.Chemscore.DG>
-14.8313

> <Gold.Chemscore.ZeroCoef>
-5.4800

> <Gold.Chemscore.Hbond>
2.0589

> <Gold.Chemscore.Metal>
0.0000

> <Gold.Chemscore.Lipo>
85.3236

> <Gold.Chemscore.Internal_Hbond>
0.0000

> <Gold.Chemscore.DEClash>
0.1247

> <Gold.Chemscore.DEInternal>
1.8108

> <Gold.Chemscore.Rot>
2.9330

> <Gold.Chemscore.Internal.Correction>
   9.000000E+99

> <Gold.Chemscore.Hbonds>
donor molecule, donor type, donor heavy atom, donor atom, acceptor molecule, acceptor atom, score
      L1  H    23    43       P1  7957  0.40
      P1  H  6896  6908       L1     4  0.16
      P1  H  7989  7998       L1    23  0.09
      P1  H  8011  8017       L1    23  0.58
      P1  H 10752 10765       L1     5  0.40

> <Gold.Chemscore.Hbond.Weighted>
-6.8769

> <Gold.Chemscore.Metal.Weighted>
-0.0000

> <Gold.Chemscore.Lipo.Weighted>
-9.9829

> <Gold.Chemscore.Internal_Hbond.Weighted>
0.0000

> <Gold.Chemscore.DEClash.Weighted>
0.1247

> <Gold.Chemscore.DEInternal.Weighted>
1.8108

> <Gold.Chemscore.Rot.Weighted>
7.5084

> <Gold.Chemscore.Internal.Correction.Weighted>
   9.000000E+99

> <Gold.Protein.RotatedTorsions>
[ 6907 6896 6895 6894 ] final  -60.25 input  -60.11 | X-H torsion
[ 7974 7965 7964 7962 ] final  175.75 input  175.53 | X-H torsion
[ 8008 7997 7996 7995 ] final  -93.31 input   59.86 | X-H torsion
[ 10167 10162 10161 10158 ] final  -45.46 input  -65.29 | X-H torsion
[ 10718 10713 10712 10709 ] final  112.88 input   66.30 | X-H torsion
[ 10763 10752 10751 10750 ] final -109.12 input  -60.55 | X-H torsion
[ 11005 11000 10999 10996 ] final    6.92 input  -57.11 | X-H torsion

> <Gold.Protein.ActiveResidues>
 VAL166  LYS551  ARG553  GLY616  TRP617  ASP618  TYR619  PRO620  LYS621  CYS622 
 ASP623  PHE694  ASN695  SER759  ASP760  ASP761  ALA762  ILE779  LEU786  VAL792 
 PHE793  MET794  SER795  GLU796  ALA797  LYS798  CYS799  TRP800  GLU811  SER814 

> <Gold.Protein.RotatedAtoms>
  150.7870  134.6862  159.6470 H   0  0  0  0  0  0  0  0  0  0  0  0  # atno 6907 bound_to 6896
  152.3968  134.6349  160.0095 H   0  0  0  0  0  0  0  0  0  0  0  0  # atno 6908 bound_to 6896
  151.6632  133.3279  159.3215 H   0  0  0  0  0  0  0  0  0  0  0  0  # atno 6909 bound_to 6896
  144.7196  139.9994  143.6440 H   0  0  0  0  0  0  0  0  0  0  0  0  # atno 7974 bound_to 7965
  154.7341  140.0500  157.0753 H   0  0  0  0  0  0  0  0  0  0  0  0  # atno 8008 bound_to 7997
  155.0263  140.3153  155.4755 H   0  0  0  0  0  0  0  0  0  0  0  0  # atno 8009 bound_to 7997
  156.2848  140.2158  156.5383 H   0  0  0  0  0  0  0  0  0  0  0  0  # atno 8010 bound_to 7997
  140.6857  143.2878  151.3642 H   0  0  0  0  0  0  0  0  0  0  0  0  # atno 10167 bound_to 10162
  157.6369  131.0975  150.6960 H   0  0  0  0  0  0  0  0  0  0  0  0  # atno 10718 bound_to 10713
  154.8175  135.4613  154.0683 H   0  0  0  0  0  0  0  0  0  0  0  0  # atno 10763 bound_to 10752
  153.2065  135.6876  153.8173 H   0  0  0  0  0  0  0  0  0  0  0  0  # atno 10764 bound_to 10752
  153.7640  135.3280  155.3318 H   0  0  0  0  0  0  0  0  0  0  0  0  # atno 10765 bound_to 10752
  140.5540  134.0256  155.7947 H   0  0  0  0  0  0  0  0  0  0  0  0  # atno 11005 bound_to 11000
  146.0348  139.3367  143.0733 LP  0  0  0  0  0  0  0  0  0  0  0  0  # atno 17320 bound_to 7965
  145.8408  140.9581  143.0800 LP  0  0  0  0  0  0  0  0  0  0  0  0  # atno 17321 bound_to 7965
  139.6214  144.0900  152.2394 LP  0  0  0  0  0  0  0  0  0  0  0  0  # atno 17342 bound_to 10162
  140.0345  144.6055  150.7460 LP  0  0  0  0  0  0  0  0  0  0  0  0  # atno 17343 bound_to 10162
  156.7290  130.4704  149.5504 LP  0  0  0  0  0  0  0  0  0  0  0  0  # atno 17370 bound_to 10713
  156.1615  130.6377  151.0724 LP  0  0  0  0  0  0  0  0  0  0  0  0  # atno 17371 bound_to 10713
  141.1154  133.9548  157.2831 LP  0  0  0  0  0  0  0  0  0  0  0  0  # atno 17394 bound_to 11000
  139.9441  135.0187  156.8797 LP  0  0  0  0  0  0  0  0  0  0  0  0  # atno 17395 bound_to 11000

$$$$
