AV-unprocessed.smi:1130|AV-procd|sdf|4848|dock10
  -GOLD-   22720 3413D 1   1.00000     0.00000
 Structure written by MMmdl.
 36 37  0  0  0  0  0  0  0  0  1 V2000
  148.3487  140.7070  154.4131 C   0  0  0  0  0  0  0  0  0  0  0  0
  149.4423  139.7015  154.5356 C   0  0  0  0  0  0  0  0  0  0  0  0
  150.7177  140.0689  154.5588 N   0  0  0  0  0  0  0  0  0  0  0  0
  151.4026  138.8515  154.6839 O   0  0  0  0  0  0  0  0  0  0  0  0
  150.4479  137.8905  154.7002 C   0  0  0  0  0  0  0  0  0  0  0  0
  150.8586  136.4671  154.8769 C   0  0  0  0  0  0  0  0  0  0  0  0
  149.6840  135.5692  155.2957 C   0  0  0  0  0  0  0  0  0  0  0  0
  148.8136  135.2570  154.1682 N   0  0  0  0  0  0  0  0  0  0  0  0
  147.5766  134.7518  154.2698 C   0  0  0  0  0  0  0  0  0  0  0  0
  147.0281  134.4787  155.3377 O   0  0  0  0  0  0  0  0  0  0  0  0
  147.0102  134.5793  153.0680 N   0  0  0  0  0  0  0  0  0  0  0  0
  145.6691  134.0513  152.8445 C   0  0  0  0  0  0  0  0  0  0  0  0
  145.4328  133.6716  151.3724 C   0  0  2  0  0  0  0  0  0  0  0  0
  144.0727  133.0297  151.0837 C   0  0  0  0  0  0  0  0  0  0  0  0
  144.3497  132.0762  149.9290 C   0  0  0  0  0  0  0  0  0  0  0  0
  145.8673  132.1360  149.7459 C   0  0  0  0  0  0  0  0  0  0  0  0
  146.3506  132.6682  150.9691 O   0  0  0  0  0  0  0  0  0  0  0  0
  149.2062  138.3640  154.6278 N   0  0  0  0  0  0  0  0  0  0  0  0
  148.6703  141.6773  154.7932 H   0  0  0  0  0  0  0  0  0  0  0  0
  147.4741  140.3895  154.9815 H   0  0  0  0  0  0  0  0  0  0  0  0
  148.0605  140.8222  153.3681 H   0  0  0  0  0  0  0  0  0  0  0  0
  151.2895  136.1111  153.9403 H   0  0  0  0  0  0  0  0  0  0  0  0
  151.6540  136.4274  155.6221 H   0  0  0  0  0  0  0  0  0  0  0  0
  150.0503  134.6482  155.7528 H   0  0  0  0  0  0  0  0  0  0  0  0
  149.0839  136.0740  156.0534 H   0  0  0  0  0  0  0  0  0  0  0  0
  149.1763  135.4476  153.2454 H   0  0  0  0  0  0  0  0  0  0  0  0
  147.5417  134.8334  152.2482 H   0  0  0  0  0  0  0  0  0  0  0  0
  145.4946  133.1887  153.4894 H   0  0  0  0  0  0  0  0  0  0  0  0
  144.9518  134.8135  153.1503 H   0  0  0  0  0  0  0  0  0  0  0  0
  145.5738  134.5420  150.7285 H   0  0  0  0  0  0  0  0  0  0  0  0
  143.7227  132.4641  151.9483 H   0  0  0  0  0  0  0  0  0  0  0  0
  143.3134  133.7738  150.8420 H   0  0  0  0  0  0  0  0  0  0  0  0
  144.0288  131.0670  150.1892 H   0  0  0  0  0  0  0  0  0  0  0  0
  143.8291  132.3689  149.0166 H   0  0  0  0  0  0  0  0  0  0  0  0
  146.3052  131.1604  149.5334 H   0  0  0  0  0  0  0  0  0  0  0  0
  146.1309  132.8129  148.9317 H   0  0  0  0  0  0  0  0  0  0  0  0
  1  2  1  0  0  0  0
  1 19  1  0  0  0  0
  1 20  1  0  0  0  0
  1 21  1  0  0  0  0
  2 18  1  0  0  0  0
  2  3  2  0  0  0  0
  3  4  1  0  0  0  0
  4  5  1  0  0  0  0
  5  6  1  0  0  0  0
  5 18  2  0  0  0  0
  6  7  1  0  0  0  0
  6 22  1  0  0  0  0
  6 23  1  0  0  0  0
  7  8  1  0  0  0  0
  7 24  1  0  0  0  0
  7 25  1  0  0  0  0
  8  9  1  0  0  0  0
  8 26  1  0  0  0  0
  9 10  2  0  0  0  0
  9 11  1  0  0  0  0
 11 12  1  0  0  0  0
 11 27  1  0  0  0  0
 12 13  1  0  0  0  0
 12 28  1  0  0  0  0
 12 29  1  0  0  0  0
 13 17  1  0  0  0  0
 13 14  1  0  0  0  0
 13 30  1  0  0  0  0
 14 15  1  0  0  0  0
 14 31  1  0  0  0  0
 14 32  1  0  0  0  0
 15 16  1  0  0  0  0
 15 33  1  0  0  0  0
 15 34  1  0  0  0  0
 16 17  1  0  0  0  0
 16 35  1  0  0  0  0
 16 36  1  0  0  0  0
M  END
> <s_m_source_file>
AV-unprocessed.smi

> <i_m_source_file_index>
1130

> <i_lp_mmshare_version>
43012

> <i_f3d_flags>
0

> <s_epik_input>
W0NIM11jMW5vYyhuMSlbQ0gyXVtDSDJdW05IXUMoPU8pW05IXVtDSDJdW0NAQEhdMltDSDJdW0NIMl1bQ0gyXU8y

> <s_epik_cmdline>
J2VwaWtfcHl0aG9uJywgJy1waCcsICc3LjAnLCAnLXRuJywgJzgnLCAnLW1hJywgJzIwMCcsICctbWV0YWxfYmluZGluZycsICctaW1hZScsICc8aW5maWxlLm1hZT4nLCAnLW9tYWUnLCAnPG91dGZpbGUubWFlPic=

> <r_lp_tautomer_probability>
1

> <r_epik_Ionization_Penalty>
4.67036e-05

> <r_epik_Ionization_Penalty_Charging>
0

> <r_epik_Ionization_Penalty_Neutral>
4.67036e-05

> <r_epik_State_Penalty>
-0

> <r_epik_Charging_Adjusted_Penalty>
0

> <i_epik_Tot_Q>
0

> <i_epik_Tot_abs_Q>
0

> <r_epik_Metal_State_Penalty>
-0

> <b_epik_Metal_Only>
0

> <s_lp_Force_Field>
OPLS_2005

> <r_lp_Energy>
8.95109

> <b_lp_Chiralities_Consistent>
1

> <s_lp_Variant>
AV-unprocessed.smi:1130-1

> <Gold.Version>
5.8.1

> <Gold.Id.Protein>
6NUR|6NUR_protein|mol2

> <Gold.PLP.Fitness>
35.8609

> <Gold.PLP.PLP>
-28.8191

> <Gold.PLP.part.hbond>
-2.9450

> <Gold.PLP.part.metal>
0.0000

> <Gold.PLP.part.buried>
-5.0755

> <Gold.PLP.part.nonpolar>
-21.7154

> <Gold.PLP.part.repulsive>
0.5821

> <Gold.PLP.ligand.clash>
0.0000

> <Gold.PLP.ligand.torsion>
0.4384

> <Gold.PLP.Chemscore.Hbond>
2.6320

> <Gold.PLP.Chemscore.CHOScore>
0.0000

> <Gold.PLP.Chemscore.Metal>
0.0000

> <Gold.Chemscore.Hbonds>
donor molecule, donor type, donor heavy atom, donor atom, acceptor molecule, acceptor atom, score
      L1  H     8    26       P1  7948  0.96
      L1  H    11    27       P1  7948  0.72
      P1  H  7989  7998       L1     3  1.00

> <Gold.PLP.Chemscore.Internal.Correction>
0.0226

> <Gold.Rescore>
     Score         DG    S(hbond)    S(metal)    S(lipo)     H(rot)  DE(clash)    DE(int)     intcor
     13.92     -14.22       2.59        0.00      51.80       2.33       0.02       0.28       ----

> <Gold.Chemscore.Fitness>
13.9213

> <Gold.Chemscore.DG>
-14.2224

> <Gold.Chemscore.ZeroCoef>
-5.4800

> <Gold.Chemscore.Hbond>
2.5879

> <Gold.Chemscore.Metal>
0.0000

> <Gold.Chemscore.Lipo>
51.8007

> <Gold.Chemscore.Internal_Hbond>
0.0000

> <Gold.Chemscore.DEClash>
0.0234

> <Gold.Chemscore.DEInternal>
0.2777

> <Gold.Chemscore.Rot>
2.3288

> <Gold.Chemscore.Internal.Correction>
   9.000000E+99

> <Gold.Chemscore.Hbonds>
donor molecule, donor type, donor heavy atom, donor atom, acceptor molecule, acceptor atom, score
      L1  H     8    26       P1  7948  0.27
      L1  H    11    27       P1  7948  0.62
      P1  H  7989  7998       L1     3  0.34

> <Gold.Chemscore.Hbond.Weighted>
-8.6434

> <Gold.Chemscore.Metal.Weighted>
-0.0000

> <Gold.Chemscore.Lipo.Weighted>
-6.0607

> <Gold.Chemscore.Internal_Hbond.Weighted>
0.0000

> <Gold.Chemscore.DEClash.Weighted>
0.0234

> <Gold.Chemscore.DEInternal.Weighted>
0.2777

> <Gold.Chemscore.Rot.Weighted>
5.9617

> <Gold.Chemscore.Internal.Correction.Weighted>
   9.000000E+99

> <Gold.Protein.RotatedTorsions>
[ 6907 6896 6895 6894 ] final   -6.73 input  -60.11 | X-H torsion
[ 7974 7965 7964 7962 ] final -179.30 input  175.53 | X-H torsion
[ 8008 7997 7996 7995 ] final  -27.34 input   59.86 | X-H torsion
[ 10167 10162 10161 10158 ] final  144.23 input  -65.29 | X-H torsion
[ 10718 10713 10712 10709 ] final   -6.11 input   66.30 | X-H torsion
[ 10763 10752 10751 10750 ] final  -34.53 input  -60.55 | X-H torsion
[ 11005 11000 10999 10996 ] final   83.10 input  -57.11 | X-H torsion

> <Gold.Protein.ActiveResidues>
 VAL166  LYS551  ARG553  GLY616  TRP617  ASP618  TYR619  PRO620  LYS621  CYS622 
 ASP623  PHE694  ASN695  SER759  ASP760  ASP761  ALA762  ILE779  LEU786  VAL792 
 PHE793  MET794  SER795  GLU796  ALA797  LYS798  CYS799  TRP800  GLU811  SER814 

> <Gold.Protein.RotatedAtoms>
  151.4608  135.1038  159.9724 H   0  0  0  0  0  0  0  0  0  0  0  0  # atno 6907 bound_to 6896
  152.4853  133.8354  159.7135 H   0  0  0  0  0  0  0  0  0  0  0  0  # atno 6908 bound_to 6896
  150.8958  133.7123  159.2919 H   0  0  0  0  0  0  0  0  0  0  0  0  # atno 6909 bound_to 6896
  144.7136  140.0739  143.6428 H   0  0  0  0  0  0  0  0  0  0  0  0  # atno 7974 bound_to 7965
  154.4382  140.1875  156.0917 H   0  0  0  0  0  0  0  0  0  0  0  0  # atno 8008 bound_to 7997
  156.0360  140.3325  155.7166 H   0  0  0  0  0  0  0  0  0  0  0  0  # atno 8009 bound_to 7997
  155.5769  140.0618  157.2783 H   0  0  0  0  0  0  0  0  0  0  0  0  # atno 8010 bound_to 7997
  139.4951  144.5986  151.6529 H   0  0  0  0  0  0  0  0  0  0  0  0  # atno 10167 bound_to 10162
  156.7367  130.5197  149.5833 H   0  0  0  0  0  0  0  0  0  0  0  0  # atno 10718 bound_to 10713
  153.8482  135.6851  153.4795 H   0  0  0  0  0  0  0  0  0  0  0  0  # atno 10763 bound_to 10752
  153.1413  135.4656  154.9498 H   0  0  0  0  0  0  0  0  0  0  0  0  # atno 10764 bound_to 10752
  154.7814  135.3270  154.7928 H   0  0  0  0  0  0  0  0  0  0  0  0  # atno 10765 bound_to 10752
  139.9042  134.8120  156.2263 H   0  0  0  0  0  0  0  0  0  0  0  0  # atno 11005 bound_to 11000
  145.9760  139.2905  143.1070 LP  0  0  0  0  0  0  0  0  0  0  0  0  # atno 17320 bound_to 7965
  145.9064  140.9209  143.0476 LP  0  0  0  0  0  0  0  0  0  0  0  0  # atno 17321 bound_to 7965
  140.5630  144.0236  150.6179 LP  0  0  0  0  0  0  0  0  0  0  0  0  # atno 17342 bound_to 10162
  140.3328  143.3067  152.0669 LP  0  0  0  0  0  0  0  0  0  0  0  0  # atno 17343 bound_to 10162
  156.1492  130.6298  151.0573 LP  0  0  0  0  0  0  0  0  0  0  0  0  # atno 17370 bound_to 10713
  157.6836  131.0831  150.7304 LP  0  0  0  0  0  0  0  0  0  0  0  0  # atno 17371 bound_to 10713
  141.0374  133.6956  156.1536 LP  0  0  0  0  0  0  0  0  0  0  0  0  # atno 17394 bound_to 11000
  140.7007  134.4567  157.5586 LP  0  0  0  0  0  0  0  0  0  0  0  0  # atno 17395 bound_to 11000

$$$$
