AV-unprocessed.smi:2143|AV-procd|sdf|8727|dock5
  -GOLD-   2272011493D 1   1.00000     0.00000
 Structure written by MMmdl.
 44 45  0  0  0  0  0  0  0  0  1 V2000
  151.5493  145.0116  160.9604 C   0  0  0  0  0  0  0  0  0  0  0  0
  152.2888  143.8480  160.2741 C   0  0  1  0  0  0  0  0  0  0  0  0
  152.7457  142.8314  161.3393 C   0  0  0  0  0  0  0  0  0  0  0  0
  153.5188  141.6626  160.7195 C   0  0  0  0  0  0  0  0  0  0  0  0
  152.6703  140.9590  159.6566 C   0  0  0  0  0  0  0  0  0  0  0  0
  152.2102  141.9436  158.5637 C   0  0  1  0  0  0  0  0  0  0  0  0
  151.3735  141.2335  157.5977 N   0  0  0  0  0  0  0  0  0  0  0  0
  151.7653  140.1949  156.8440 C   0  0  0  0  0  0  0  0  0  0  0  0
  152.9052  139.7288  156.8752 O   0  0  0  0  0  0  0  0  0  0  0  0
  150.7060  139.6103  155.9001 C   0  0  0  0  0  0  0  0  0  0  0  0
  149.3359  139.7824  156.4005 N   0  0  0  0  0  0  0  0  0  0  0  0
  149.0152  139.3650  157.6792 C   0  0  0  0  0  0  0  0  0  0  0  0
  147.7857  139.5039  158.2215 C   0  0  0  0  0  0  0  0  0  0  0  0
  146.6989  140.1161  157.4670 C   0  0  0  0  0  0  0  0  0  0  0  0
  145.5696  140.2792  157.9305 O   0  0  0  0  0  0  0  0  0  0  0  0
  147.0502  140.5208  156.1566 N   0  0  0  0  0  0  0  0  0  0  0  0
  146.0441  141.1587  155.3330 C   0  0  0  0  0  0  0  0  0  0  0  0
  148.3418  140.3864  155.6009 C   0  0  0  0  0  0  0  0  0  0  0  0
  148.6064  140.7838  154.4633 O   0  0  0  0  0  0  0  0  0  0  0  0
  151.4470  143.1561  159.1638 C   0  0  2  0  0  0  0  0  0  0  0  0
  151.0238  144.1479  158.0579 C   0  0  0  0  0  0  0  0  0  0  0  0
  150.5946  144.6857  161.3739 H   0  0  0  0  0  0  0  0  0  0  0  0
  151.3571  145.8346  160.2730 H   0  0  0  0  0  0  0  0  0  0  0  0
  152.1409  145.4215  161.7795 H   0  0  0  0  0  0  0  0  0  0  0  0
  153.1853  144.2607  159.8087 H   0  0  0  0  0  0  0  0  0  0  0  0
  153.3757  143.3246  162.0805 H   0  0  0  0  0  0  0  0  0  0  0  0
  151.8788  142.4480  161.8796 H   0  0  0  0  0  0  0  0  0  0  0  0
  154.4450  142.0262  160.2724 H   0  0  0  0  0  0  0  0  0  0  0  0
  153.8055  140.9528  161.4959 H   0  0  0  0  0  0  0  0  0  0  0  0
  153.2469  140.1457  159.2143 H   0  0  0  0  0  0  0  0  0  0  0  0
  151.8021  140.4988  160.1308 H   0  0  0  0  0  0  0  0  0  0  0  0
  153.0945  142.3277  158.0510 H   0  0  0  0  0  0  0  0  0  0  0  0
  150.4206  141.5535  157.5017 H   0  0  0  0  0  0  0  0  0  0  0  0
  150.8004  140.0620  154.9107 H   0  0  0  0  0  0  0  0  0  0  0  0
  150.9223  138.5502  155.7617 H   0  0  0  0  0  0  0  0  0  0  0  0
  149.7879  138.9090  158.2811 H   0  0  0  0  0  0  0  0  0  0  0  0
  147.6047  139.1605  159.2295 H   0  0  0  0  0  0  0  0  0  0  0  0
  146.1240  140.7600  154.3201 H   0  0  0  0  0  0  0  0  0  0  0  0
  146.2477  142.2303  155.3579 H   0  0  0  0  0  0  0  0  0  0  0  0
  145.0442  140.9402  155.7077 H   0  0  0  0  0  0  0  0  0  0  0  0
  150.5349  142.7767  159.6281 H   0  0  0  0  0  0  0  0  0  0  0  0
  151.8932  144.6060  157.5859 H   0  0  0  0  0  0  0  0  0  0  0  0
  150.3953  144.9466  158.4490 H   0  0  0  0  0  0  0  0  0  0  0  0
  150.4422  143.6618  157.2749 H   0  0  0  0  0  0  0  0  0  0  0  0
  1  2  1  0  0  0  0
  1 22  1  0  0  0  0
  1 23  1  0  0  0  0
  1 24  1  0  0  0  0
  2 20  1  0  0  0  0
  2  3  1  0  0  0  0
  2 25  1  0  0  0  0
  3  4  1  0  0  0  0
  3 26  1  0  0  0  0
  3 27  1  0  0  0  0
  4  5  1  0  0  0  0
  4 28  1  0  0  0  0
  4 29  1  0  0  0  0
  5  6  1  0  0  0  0
  5 30  1  0  0  0  0
  5 31  1  0  0  0  0
  6  7  1  0  0  0  0
  6 20  1  0  0  0  0
  6 32  1  0  0  0  0
  7  8  1  0  0  0  0
  7 33  1  0  0  0  0
  8  9  2  0  0  0  0
  8 10  1  0  0  0  0
 10 11  1  0  0  0  0
 10 34  1  0  0  0  0
 10 35  1  0  0  0  0
 11 18  1  0  0  0  0
 11 12  1  0  0  0  0
 12 13  2  0  0  0  0
 12 36  1  0  0  0  0
 13 14  1  0  0  0  0
 13 37  1  0  0  0  0
 14 15  2  0  0  0  0
 14 16  1  0  0  0  0
 16 17  1  0  0  0  0
 16 18  1  0  0  0  0
 17 38  1  0  0  0  0
 17 39  1  0  0  0  0
 17 40  1  0  0  0  0
 18 19  2  0  0  0  0
 20 21  1  0  0  0  0
 20 41  1  0  0  0  0
 21 42  1  0  0  0  0
 21 43  1  0  0  0  0
 21 44  1  0  0  0  0
M  END
> <s_m_source_file>
AV-unprocessed.smi

> <i_m_source_file_index>
2143

> <i_lp_mmshare_version>
43012

> <i_f3d_flags>
0

> <s_epik_input>
W0NIM11bQ0BASF0xW0NIMl1bQ0gyXVtDSDJdW0NASF0oW0NASF0xW0NIM10pW05IXUMoPU8pW0NIMl1uMltjSF1bY0hdYyg9TyluKFtDSDNdKWMyPU8=

> <s_epik_cmdline>
J2VwaWtfcHl0aG9uJywgJy1waCcsICc3LjAnLCAnLXRuJywgJzgnLCAnLW1hJywgJzIwMCcsICctbWV0YWxfYmluZGluZycsICctaW1hZScsICc8aW5maWxlLm1hZT4nLCAnLW9tYWUnLCAnPG91dGZpbGUubWFlPic=

> <r_lp_tautomer_probability>
1

> <r_epik_Ionization_Penalty>
3.18445e-08

> <r_epik_Ionization_Penalty_Charging>
1.27977e-08

> <r_epik_Ionization_Penalty_Neutral>
1.90469e-08

> <r_epik_State_Penalty>
-0

> <r_epik_Charging_Adjusted_Penalty>
1.27977e-08

> <i_epik_Tot_Q>
0

> <i_epik_Tot_abs_Q>
0

> <r_epik_Metal_State_Penalty>
-0

> <b_epik_Metal_Only>
0

> <s_lp_Force_Field>
OPLS_2005

> <r_lp_Energy>
20.3985

> <b_lp_Chiralities_Consistent>
1

> <s_lp_Variant>
AV-unprocessed.smi:2143-6

> <Gold.Version>
5.8.1

> <Gold.Id.Protein>
6NUR|6NUR_protein|mol2

> <Gold.PLP.Fitness>
49.3814

> <Gold.PLP.PLP>
-43.8156

> <Gold.PLP.part.hbond>
-3.0000

> <Gold.PLP.part.metal>
0.0000

> <Gold.PLP.part.buried>
-6.3180

> <Gold.PLP.part.nonpolar>
-36.4518

> <Gold.PLP.part.repulsive>
2.1438

> <Gold.PLP.ligand.clash>
0.0000

> <Gold.PLP.ligand.torsion>
0.4305

> <Gold.PLP.Chemscore.Hbond>
2.1392

> <Gold.PLP.Chemscore.CHOScore>
0.0000

> <Gold.PLP.Chemscore.Metal>
0.0000

> <Gold.Chemscore.Hbonds>
donor molecule, donor type, donor heavy atom, donor atom, acceptor molecule, acceptor atom, score
      P1  H  7997  8008       L1     9  1.00

> <Gold.PLP.Chemscore.Internal.Correction>
0.0091

> <Gold.Rescore>
     Score         DG    S(hbond)    S(metal)    S(lipo)     H(rot)  DE(clash)    DE(int)     intcor
     17.58     -19.48       1.73        0.00     103.34       1.51       0.10       1.79       ----

> <Gold.Chemscore.Fitness>
17.5850

> <Gold.Chemscore.DG>
-19.4773

> <Gold.Chemscore.ZeroCoef>
-5.4800

> <Gold.Chemscore.Hbond>
1.7305

> <Gold.Chemscore.Metal>
0.0000

> <Gold.Chemscore.Lipo>
103.3409

> <Gold.Chemscore.Internal_Hbond>
0.0000

> <Gold.Chemscore.DEClash>
0.1020

> <Gold.Chemscore.DEInternal>
1.7903

> <Gold.Chemscore.Rot>
1.5131

> <Gold.Chemscore.Internal.Correction>
   9.000000E+99

> <Gold.Chemscore.Hbonds>
donor molecule, donor type, donor heavy atom, donor atom, acceptor molecule, acceptor atom, score
      P1  H  7997  8008       L1     9  0.94

> <Gold.Chemscore.Hbond.Weighted>
-5.7799

> <Gold.Chemscore.Metal.Weighted>
-0.0000

> <Gold.Chemscore.Lipo.Weighted>
-12.0909

> <Gold.Chemscore.Internal_Hbond.Weighted>
0.0000

> <Gold.Chemscore.DEClash.Weighted>
0.1020

> <Gold.Chemscore.DEInternal.Weighted>
1.7903

> <Gold.Chemscore.Rot.Weighted>
3.8734

> <Gold.Chemscore.Internal.Correction.Weighted>
   9.000000E+99

> <Gold.Protein.RotatedTorsions>
[ 6907 6896 6895 6894 ] final  147.09 input  -60.11 | X-H torsion
[ 7974 7965 7964 7962 ] final   85.42 input  175.53 | X-H torsion
[ 8008 7997 7996 7995 ] final  -47.87 input   59.86 | X-H torsion
[ 10167 10162 10161 10158 ] final  124.72 input  -65.29 | X-H torsion
[ 10718 10713 10712 10709 ] final  -72.31 input   66.30 | X-H torsion
[ 10763 10752 10751 10750 ] final -163.12 input  -60.55 | X-H torsion
[ 11005 11000 10999 10996 ] final   54.32 input  -57.11 | X-H torsion

> <Gold.Protein.ActiveResidues>
 VAL166  LYS551  ARG553  GLY616  TRP617  ASP618  TYR619  PRO620  LYS621  CYS622 
 ASP623  PHE694  ASN695  SER759  ASP760  ASP761  ALA762  ILE779  LEU786  VAL792 
 PHE793  MET794  SER795  GLU796  ALA797  LYS798  CYS799  TRP800  GLU811  SER814 

> <Gold.Protein.RotatedAtoms>
  152.1594  133.4572  159.4852 H   0  0  0  0  0  0  0  0  0  0  0  0  # atno 6907 bound_to 6896
  150.6905  134.2090  159.4361 H   0  0  0  0  0  0  0  0  0  0  0  0  # atno 6908 bound_to 6896
  151.9992  134.9937  160.0615 H   0  0  0  0  0  0  0  0  0  0  0  0  # atno 6909 bound_to 6896
  145.5857  139.2331  143.2327 H   0  0  0  0  0  0  0  0  0  0  0  0  # atno 7974 bound_to 7965
  154.4022  140.1335  156.4246 H   0  0  0  0  0  0  0  0  0  0  0  0  # atno 8008 bound_to 7997
  155.7610  140.3486  155.5178 H   0  0  0  0  0  0  0  0  0  0  0  0  # atno 8009 bound_to 7997
  155.8859  140.0995  157.1443 H   0  0  0  0  0  0  0  0  0  0  0  0  # atno 8010 bound_to 7997
  139.5726  144.6947  151.3739 H   0  0  0  0  0  0  0  0  0  0  0  0  # atno 10167 bound_to 10162
  156.0325  130.4369  150.2574 H   0  0  0  0  0  0  0  0  0  0  0  0  # atno 10718 bound_to 10713
  154.7152  135.3014  154.9135 H   0  0  0  0  0  0  0  0  0  0  0  0  # atno 10763 bound_to 10752
  154.0025  135.6705  153.4764 H   0  0  0  0  0  0  0  0  0  0  0  0  # atno 10764 bound_to 10752
  153.0787  135.5020  154.8373 H   0  0  0  0  0  0  0  0  0  0  0  0  # atno 10765 bound_to 10752
  140.0695  134.5489  155.9062 H   0  0  0  0  0  0  0  0  0  0  0  0  # atno 11005 bound_to 11000
  146.1683  140.6684  142.9245 LP  0  0  0  0  0  0  0  0  0  0  0  0  # atno 17320 bound_to 7965
  144.7374  140.4846  143.6894 LP  0  0  0  0  0  0  0  0  0  0  0  0  # atno 17321 bound_to 7965
  140.7010  143.7632  150.7402 LP  0  0  0  0  0  0  0  0  0  0  0  0  # atno 17342 bound_to 10162
  140.1143  143.4670  152.2351 LP  0  0  0  0  0  0  0  0  0  0  0  0  # atno 17343 bound_to 10162
  157.0675  131.0107  151.3201 LP  0  0  0  0  0  0  0  0  0  0  0  0  # atno 17370 bound_to 10713
  157.5024  130.7888  149.7618 LP  0  0  0  0  0  0  0  0  0  0  0  0  # atno 17371 bound_to 10713
  141.2006  133.6613  156.5907 LP  0  0  0  0  0  0  0  0  0  0  0  0  # atno 17394 bound_to 11000
  140.3648  134.7657  157.4558 LP  0  0  0  0  0  0  0  0  0  0  0  0  # atno 17395 bound_to 11000

$$$$
