AV-unprocessed.smi:1036|AV-procd|sdf|4516|dock6
  -GOLD-   22720 2523D 1   1.00000     0.00000
 Structure written by MMmdl.
 42 44  0  0  0  0  0  0  0  0  2 V2000
  150.3425  134.6745  155.6278 O   0  0  0  0  0  0  0  0  0  0  0  0
  150.3421  136.0820  155.7125 C   0  0  0  0  0  0  0  0  0  0  0  0
  151.4419  136.6472  154.8073 C   0  0  0  0  0  0  0  0  0  0  0  0
  151.5297  138.0932  154.9202 N   0  0  0  0  0  0  0  0  0  0  0  0
  150.4127  138.8511  154.5531 C   0  0  0  0  0  0  0  0  0  0  0  0
  149.3961  138.4400  153.7488 N   0  3  0  0  0  0  0  0  0  0  0  0
  148.4675  139.4804  153.6486 C   0  0  0  0  0  0  0  0  0  0  0  0
  147.2637  139.5594  152.9553 C   0  0  0  0  0  0  0  0  0  0  0  0
  146.5460  140.7682  153.0676 C   0  0  0  0  0  0  0  0  0  0  0  0
  147.0283  141.8409  153.8456 C   0  0  0  0  0  0  0  0  0  0  0  0
  148.2498  141.7530  154.5450 C   0  0  0  0  0  0  0  0  0  0  0  0
  148.9559  140.5564  154.4287 C   0  0  0  0  0  0  0  0  0  0  0  0
  150.1708  140.1205  154.9716 N   0  0  0  0  0  0  0  0  0  0  0  0
  150.9309  141.0029  155.8693 C   0  0  0  0  0  0  0  0  0  0  0  0
  150.7922  140.5919  157.3492 C   0  0  2  0  0  0  0  0  0  0  0  0
  149.4256  140.6684  157.6985 O   0  0  0  0  0  0  0  0  0  0  0  0
  151.6752  141.4355  158.2629 C   0  0  0  0  0  0  0  0  0  0  0  0
  151.5811  142.8452  158.2431 C   0  0  0  0  0  0  0  0  0  0  0  0
  152.4221  143.6269  159.0580 C   0  0  0  0  0  0  0  0  0  0  0  0
  152.3285  144.9772  159.0279 F   0  0  0  0  0  0  0  0  0  0  0  0
  153.3657  143.0056  159.8973 C   0  0  0  0  0  0  0  0  0  0  0  0
  153.4671  141.6018  159.9212 C   0  0  0  0  0  0  0  0  0  0  0  0
  152.6263  140.8177  159.1076 C   0  0  0  0  0  0  0  0  0  0  0  0
  152.7526  139.4689  159.1285 F   0  0  0  0  0  0  0  0  0  0  0  0
  151.1807  134.3934  155.2930 H   0  0  0  0  0  0  0  0  0  0  0  0
  149.3620  136.4550  155.4141 H   0  0  0  0  0  0  0  0  0  0  0  0
  150.5041  136.3767  156.7499 H   0  0  0  0  0  0  0  0  0  0  0  0
  152.4042  136.2080  155.0734 H   0  0  0  0  0  0  0  0  0  0  0  0
  151.2390  136.3823  153.7684 H   0  0  0  0  0  0  0  0  0  0  0  0
  152.1817  138.4822  155.5864 H   0  0  0  0  0  0  0  0  0  0  0  0
  146.8892  138.7394  152.3601 H   0  0  0  0  0  0  0  0  0  0  0  0
  145.6049  140.8745  152.5476 H   0  0  0  0  0  0  0  0  0  0  0  0
  146.4490  142.7507  153.9081 H   0  0  0  0  0  0  0  0  0  0  0  0
  148.6089  142.5795  155.1402 H   0  0  0  0  0  0  0  0  0  0  0  0
  151.9764  140.9787  155.5590 H   0  0  0  0  0  0  0  0  0  0  0  0
  150.5892  142.0269  155.7124 H   0  0  0  0  0  0  0  0  0  0  0  0
  151.0711  139.5433  157.4557 H   0  0  0  0  0  0  0  0  0  0  0  0
  149.3613  140.9164  158.6085 H   0  0  0  0  0  0  0  0  0  0  0  0
  150.8699  143.3341  157.5935 H   0  0  0  0  0  0  0  0  0  0  0  0
  154.0140  143.6049  160.5194 H   0  0  0  0  0  0  0  0  0  0  0  0
  154.1953  141.1257  160.5610 H   0  0  0  0  0  0  0  0  0  0  0  0
  149.3414  137.5289  153.3120 H   0  0  0  0  0  0  0  0  0  0  0  0
  1  2  1  0  0  0  0
  1 25  1  0  0  0  0
  2  3  1  0  0  0  0
  2 26  1  0  0  0  0
  2 27  1  0  0  0  0
  3  4  1  0  0  0  0
  3 28  1  0  0  0  0
  3 29  1  0  0  0  0
  4  5  1  0  0  0  0
  4 30  1  0  0  0  0
  5 13  1  0  0  0  0
  5  6  2  0  0  0  0
  6  7  1  0  0  0  0
  6 42  1  0  0  0  0
  7 12  2  0  0  0  0
  7  8  1  0  0  0  0
  8  9  2  0  0  0  0
  8 31  1  0  0  0  0
  9 10  1  0  0  0  0
  9 32  1  0  0  0  0
 10 11  2  0  0  0  0
 10 33  1  0  0  0  0
 11 12  1  0  0  0  0
 11 34  1  0  0  0  0
 12 13  1  0  0  0  0
 13 14  1  0  0  0  0
 14 15  1  0  0  0  0
 14 35  1  0  0  0  0
 14 36  1  0  0  0  0
 15 16  1  0  0  0  0
 15 17  1  0  0  0  0
 15 37  1  0  0  0  0
 16 38  1  0  0  0  0
 17 23  1  0  0  0  0
 17 18  2  0  0  0  0
 18 19  1  0  0  0  0
 18 39  1  0  0  0  0
 19 20  1  0  0  0  0
 19 21  2  0  0  0  0
 21 22  1  0  0  0  0
 21 40  1  0  0  0  0
 22 23  2  0  0  0  0
 22 41  1  0  0  0  0
 23 24  1  0  0  0  0
M  CHG  1   6   1
M  END
> <s_m_source_file>
AV-unprocessed.smi

> <i_m_source_file_index>
1036

> <i_lp_mmshare_version>
43012

> <i_f3d_flags>
0

> <s_epik_input>
W09IXVtDSDJdW0NIMl1bTkhdYyhuMSluKGMoYzEyKVtjSF1bY0hdW2NIXVtjSF0yKVtDSDJdW0NASF0oW09IXSljM1tjSF1jKEYpW2NIXVtjSF1jM0Y=

> <s_epik_cmdline>
J2VwaWtfcHl0aG9uJywgJy1waCcsICc3LjAnLCAnLXRuJywgJzgnLCAnLW1hJywgJzIwMCcsICctbWV0YWxfYmluZGluZycsICctaW1hZScsICc8aW5maWxlLm1hZT4nLCAnLW9tYWUnLCAnPG91dGZpbGUubWFlPic=

> <r_epik_Ionization_Penalty>
0.0688114

> <r_epik_Ionization_Penalty_Charging>
0.0688055

> <r_epik_Ionization_Penalty_Neutral>
5.85933e-06

> <r_epik_State_Penalty>
0.0602293

> <r_epik_Charging_Adjusted_Penalty>
0.129035

> <i_epik_Tot_Q>
1

> <i_epik_Tot_abs_Q>
1

> <r_epik_Metal_State_Penalty>
2.77411

> <b_epik_Metal_Only>
0

> <s_lp_Force_Field>
OPLS_2005

> <r_lp_Energy>
18.4992

> <b_lp_Chiralities_Consistent>
1

> <s_lp_Variant>
AV-unprocessed.smi:1036-1

> <Gold.Version>
5.8.1

> <Gold.Id.Protein>
6NUR|6NUR_protein|mol2

> <Gold.PLP.Fitness>
54.4498

> <Gold.PLP.PLP>
-48.9528

> <Gold.PLP.part.hbond>
-1.9066

> <Gold.PLP.part.metal>
0.0000

> <Gold.PLP.part.buried>
2.6414

> <Gold.PLP.part.nonpolar>
-50.4112

> <Gold.PLP.part.repulsive>
0.1768

> <Gold.PLP.ligand.clash>
0.0000

> <Gold.PLP.ligand.torsion>
0.2696

> <Gold.PLP.Chemscore.Hbond>
2.0000

> <Gold.PLP.Chemscore.CHOScore>
0.0000

> <Gold.PLP.Chemscore.Metal>
0.0000

> <Gold.Chemscore.Hbonds>
donor molecule, donor type, donor heavy atom, donor atom, acceptor molecule, acceptor atom, score
      L1  H     6    42       P1  7948  2.00

> <Gold.PLP.Chemscore.Internal.Correction>
0.0362

> <Gold.Rescore>
     Score         DG    S(hbond)    S(metal)    S(lipo)     H(rot)  DE(clash)    DE(int)     intcor
     12.98     -14.83       0.91        0.00     125.72       3.29       1.68       0.16       ----

> <Gold.Chemscore.Fitness>
12.9809

> <Gold.Chemscore.DG>
-14.8262

> <Gold.Chemscore.ZeroCoef>
-5.4800

> <Gold.Chemscore.Hbond>
0.9139

> <Gold.Chemscore.Metal>
0.0000

> <Gold.Chemscore.Lipo>
125.7221

> <Gold.Chemscore.Internal_Hbond>
0.0000

> <Gold.Chemscore.DEClash>
1.6831

> <Gold.Chemscore.DEInternal>
0.1622

> <Gold.Chemscore.Rot>
3.2874

> <Gold.Chemscore.Internal.Correction>
   9.000000E+99

> <Gold.Chemscore.Hbonds>
donor molecule, donor type, donor heavy atom, donor atom, acceptor molecule, acceptor atom, score
      L1  H     6    42       P1  7948  0.94

> <Gold.Chemscore.Hbond.Weighted>
-3.0525

> <Gold.Chemscore.Metal.Weighted>
-0.0000

> <Gold.Chemscore.Lipo.Weighted>
-14.7095

> <Gold.Chemscore.Internal_Hbond.Weighted>
0.0000

> <Gold.Chemscore.DEClash.Weighted>
1.6831

> <Gold.Chemscore.DEInternal.Weighted>
0.1622

> <Gold.Chemscore.Rot.Weighted>
8.4158

> <Gold.Chemscore.Internal.Correction.Weighted>
   9.000000E+99

> <Gold.Protein.RotatedTorsions>
[ 6907 6896 6895 6894 ] final  -54.64 input  -60.11 | X-H torsion
[ 7974 7965 7964 7962 ] final  151.36 input  175.53 | X-H torsion
[ 8008 7997 7996 7995 ] final   14.63 input   59.86 | X-H torsion
[ 10167 10162 10161 10158 ] final   46.46 input  -65.29 | X-H torsion
[ 10718 10713 10712 10709 ] final  176.20 input   66.30 | X-H torsion
[ 10763 10752 10751 10750 ] final -125.15 input  -60.55 | X-H torsion
[ 11005 11000 10999 10996 ] final  -28.69 input  -57.11 | X-H torsion

> <Gold.Protein.ActiveResidues>
 VAL166  LYS551  ARG553  GLY616  TRP617  ASP618  TYR619  PRO620  LYS621  CYS622 
 ASP623  PHE694  ASN695  SER759  ASP760  ASP761  ALA762  ILE779  LEU786  VAL792 
 PHE793  MET794  SER795  GLU796  ALA797  LYS798  CYS799  TRP800  GLU811  SER814 

> <Gold.Protein.RotatedAtoms>
  150.8320  134.7577  159.6861 H   0  0  0  0  0  0  0  0  0  0  0  0  # atno 6907 bound_to 6896
  152.4423  134.5562  159.9891 H   0  0  0  0  0  0  0  0  0  0  0  0  # atno 6908 bound_to 6896
  151.5721  133.3351  159.3027 H   0  0  0  0  0  0  0  0  0  0  0  0  # atno 6909 bound_to 6896
  144.8298  139.6527  143.6064 H   0  0  0  0  0  0  0  0  0  0  0  0  # atno 7974 bound_to 7965
  154.8512  140.2930  155.5597 H   0  0  0  0  0  0  0  0  0  0  0  0  # atno 8008 bound_to 7997
  156.3016  140.2495  156.3403 H   0  0  0  0  0  0  0  0  0  0  0  0  # atno 8009 bound_to 7997
  154.9020  140.0391  157.1887 H   0  0  0  0  0  0  0  0  0  0  0  0  # atno 8010 bound_to 7997
  140.3137  144.2789  150.6195 H   0  0  0  0  0  0  0  0  0  0  0  0  # atno 10167 bound_to 10162
  156.9236  130.9948  151.3000 H   0  0  0  0  0  0  0  0  0  0  0  0  # atno 10718 bound_to 10713
  154.8732  135.4039  154.3221 H   0  0  0  0  0  0  0  0  0  0  0  0  # atno 10763 bound_to 10752
  153.4048  135.7019  153.6406 H   0  0  0  0  0  0  0  0  0  0  0  0  # atno 10764 bound_to 10752
  153.5133  135.3702  155.2568 H   0  0  0  0  0  0  0  0  0  0  0  0  # atno 10765 bound_to 10752
  140.9230  133.7386  156.0828 H   0  0  0  0  0  0  0  0  0  0  0  0  # atno 11005 bound_to 11000
  146.2602  139.6392  142.9367 LP  0  0  0  0  0  0  0  0  0  0  0  0  # atno 17320 bound_to 7965
  145.4920  141.0438  143.2588 LP  0  0  0  0  0  0  0  0  0  0  0  0  # atno 17321 bound_to 7965
  140.5545  143.2201  151.7870 LP  0  0  0  0  0  0  0  0  0  0  0  0  # atno 17342 bound_to 10162
  139.4888  144.4432  151.9740 LP  0  0  0  0  0  0  0  0  0  0  0  0  # atno 17343 bound_to 10162
  157.5892  130.8431  149.8634 LP  0  0  0  0  0  0  0  0  0  0  0  0  # atno 17370 bound_to 10713
  156.0479  130.3724  150.1271 LP  0  0  0  0  0  0  0  0  0  0  0  0  # atno 17371 bound_to 10713
  140.7962  134.3561  157.5451 LP  0  0  0  0  0  0  0  0  0  0  0  0  # atno 17394 bound_to 11000
  139.8779  134.9170  156.3169 LP  0  0  0  0  0  0  0  0  0  0  0  0  # atno 17395 bound_to 11000

$$$$
