AV-unprocessed.smi:1763|AV-procd|sdf|7127|dock2
  -GOLD-   22720 8363D 1   1.00000     0.00000
 Structure written by MMmdl.
 42 43  0  0  0  0  0  0  0  0  1 V2000
  142.5906  137.0305  152.7349 C   0  0  0  0  0  0  0  0  0  0  0  0
  143.8311  137.6576  152.3069 N   0  0  0  0  0  0  0  0  0  0  0  0
  145.0158  137.4784  152.9091 C   0  0  0  0  0  0  0  0  0  0  0  0
  145.1705  136.7668  153.9012 O   0  0  0  0  0  0  0  0  0  0  0  0
  146.2125  138.2198  152.3015 C   0  0  0  0  0  0  0  0  0  0  0  0
  146.8130  139.2519  153.1788 N   0  0  0  0  0  0  0  0  0  0  0  0
  147.1467  140.4850  152.4498 C   0  0  0  0  0  0  0  0  0  0  0  0
  147.6998  141.5512  153.4121 C   0  0  0  0  0  0  0  0  0  0  0  0
  148.9373  141.0362  154.1649 C   0  0  0  0  0  0  0  0  0  0  0  0
  149.3754  142.0000  155.1702 N   0  0  0  0  0  0  0  0  0  0  0  0
  150.2757  141.7566  156.1339 C   0  0  0  0  0  0  0  0  0  0  0  0
  150.8435  140.6728  156.2743 O   0  0  0  0  0  0  0  0  0  0  0  0
  150.4677  142.8418  156.9044 N   0  0  0  0  0  0  0  0  0  0  0  0
  151.3224  142.9798  158.0305 C   0  0  0  0  0  0  0  0  0  0  0  0
  151.5542  144.3108  158.4458 C   0  0  0  0  0  0  0  0  0  0  0  0
  152.3845  144.5556  159.5566 C   0  0  0  0  0  0  0  0  0  0  0  0
  152.9621  143.4616  160.2254 C   0  0  0  0  0  0  0  0  0  0  0  0
  152.6805  142.1686  159.7473 C   0  0  0  0  0  0  0  0  0  0  0  0
  151.8856  141.9316  158.6822 N   0  0  0  0  0  0  0  0  0  0  0  0
  148.5903  139.7007  154.8369 C   0  0  0  0  0  0  0  0  0  0  0  0
  148.0128  138.7023  153.8186 C   0  0  0  0  0  0  0  0  0  0  0  0
  141.7621  137.3917  152.1259 H   0  0  0  0  0  0  0  0  0  0  0  0
  142.3739  137.2639  153.7783 H   0  0  0  0  0  0  0  0  0  0  0  0
  142.6484  135.9469  152.6244 H   0  0  0  0  0  0  0  0  0  0  0  0
  143.7927  138.2566  151.4945 H   0  0  0  0  0  0  0  0  0  0  0  0
  146.9652  137.4697  152.0540 H   0  0  0  0  0  0  0  0  0  0  0  0
  145.9062  138.6733  151.3569 H   0  0  0  0  0  0  0  0  0  0  0  0
  147.8729  140.2719  151.6634 H   0  0  0  0  0  0  0  0  0  0  0  0
  146.2661  140.9002  151.9601 H   0  0  0  0  0  0  0  0  0  0  0  0
  147.9489  142.4533  152.8522 H   0  0  0  0  0  0  0  0  0  0  0  0
  146.9219  141.8346  154.1229 H   0  0  0  0  0  0  0  0  0  0  0  0
  149.7457  140.8631  153.4517 H   0  0  0  0  0  0  0  0  0  0  0  0
  148.9596  142.9187  155.1288 H   0  0  0  0  0  0  0  0  0  0  0  0
  149.9361  143.6643  156.6608 H   0  0  0  0  0  0  0  0  0  0  0  0
  151.1011  145.1396  157.9214 H   0  0  0  0  0  0  0  0  0  0  0  0
  152.5736  145.5654  159.8897 H   0  0  0  0  0  0  0  0  0  0  0  0
  153.6031  143.6089  161.0820 H   0  0  0  0  0  0  0  0  0  0  0  0
  153.1029  141.3014  160.2330 H   0  0  0  0  0  0  0  0  0  0  0  0
  149.4795  139.2768  155.3051 H   0  0  0  0  0  0  0  0  0  0  0  0
  147.8662  139.8609  155.6376 H   0  0  0  0  0  0  0  0  0  0  0  0
  147.7638  137.7758  154.3379 H   0  0  0  0  0  0  0  0  0  0  0  0
  148.7639  138.4525  153.0669 H   0  0  0  0  0  0  0  0  0  0  0  0
  1  2  1  0  0  0  0
  1 22  1  0  0  0  0
  1 23  1  0  0  0  0
  1 24  1  0  0  0  0
  2  3  1  0  0  0  0
  2 25  1  0  0  0  0
  3  4  2  0  0  0  0
  3  5  1  0  0  0  0
  5  6  1  0  0  0  0
  5 26  1  0  0  0  0
  5 27  1  0  0  0  0
  6 21  1  0  0  0  0
  6  7  1  0  0  0  0
  7  8  1  0  0  0  0
  7 28  1  0  0  0  0
  7 29  1  0  0  0  0
  8  9  1  0  0  0  0
  8 30  1  0  0  0  0
  8 31  1  0  0  0  0
  9 10  1  0  0  0  0
  9 20  1  0  0  0  0
  9 32  1  0  0  0  0
 10 11  1  0  0  0  0
 10 33  1  0  0  0  0
 11 12  2  0  0  0  0
 11 13  1  0  0  0  0
 13 14  1  0  0  0  0
 13 34  1  0  0  0  0
 14 19  1  0  0  0  0
 14 15  2  0  0  0  0
 15 16  1  0  0  0  0
 15 35  1  0  0  0  0
 16 17  2  0  0  0  0
 16 36  1  0  0  0  0
 17 18  1  0  0  0  0
 17 37  1  0  0  0  0
 18 19  2  0  0  0  0
 18 38  1  0  0  0  0
 20 21  1  0  0  0  0
 20 39  1  0  0  0  0
 20 40  1  0  0  0  0
 21 41  1  0  0  0  0
 21 42  1  0  0  0  0
M  END
> <s_m_source_file>
AV-unprocessed.smi

> <i_m_source_file_index>
1763

> <i_lp_mmshare_version>
43012

> <i_f3d_flags>
0

> <s_epik_input>
W0NIM11bTkhdQyg9TylbQ0gyXU4xW0NIMl1bQ0gyXVtDSF0oW0NIMl1bQ0gyXTEpW05IXUMoPU8pW05IXWMyW2NIXVtjSF1bY0hdW2NIXW4y

> <s_epik_cmdline>
J2VwaWtfcHl0aG9uJywgJy1waCcsICc3LjAnLCAnLXRuJywgJzgnLCAnLW1hJywgJzIwMCcsICctbWV0YWxfYmluZGluZycsICctaW1hZScsICc8aW5maWxlLm1hZT4nLCAnLW9tYWUnLCAnPG91dGZpbGUubWFlPic=

> <r_epik_Ionization_Penalty>
0.164783

> <r_epik_Ionization_Penalty_Charging>
0

> <r_epik_Ionization_Penalty_Neutral>
0.164783

> <r_epik_State_Penalty>
0.154069

> <r_epik_Charging_Adjusted_Penalty>
0.154069

> <i_epik_Tot_Q>
0

> <i_epik_Tot_abs_Q>
0

> <r_epik_Metal_State_Penalty>
0.158586

> <b_epik_Metal_Only>
0

> <s_lp_Force_Field>
OPLS_2005

> <r_lp_Energy>
16.3585

> <b_lp_Chiralities_Consistent>
1

> <s_lp_Variant>
AV-unprocessed.smi:1763-1

> <Gold.Version>
5.8.1

> <Gold.Id.Protein>
6NUR|6NUR_protein|mol2

> <Gold.PLP.Fitness>
48.6058

> <Gold.PLP.PLP>
-41.1332

> <Gold.PLP.part.hbond>
-4.0000

> <Gold.PLP.part.metal>
0.0000

> <Gold.PLP.part.buried>
-4.4492

> <Gold.PLP.part.nonpolar>
-32.5408

> <Gold.PLP.part.repulsive>
0.6065

> <Gold.PLP.ligand.clash>
0.0000

> <Gold.PLP.ligand.torsion>
0.7826

> <Gold.PLP.Chemscore.Hbond>
3.0000

> <Gold.PLP.Chemscore.CHOScore>
0.0000

> <Gold.PLP.Chemscore.Metal>
0.0000

> <Gold.Chemscore.Hbonds>
donor molecule, donor type, donor heavy atom, donor atom, acceptor molecule, acceptor atom, score
      L1  H     2    25       P1 10171  1.00
      L1  H    10    33       P1  8028  1.00
      L1  H    13    34       P1  8028  1.00

> <Gold.PLP.Chemscore.Internal.Correction>
0.0378

> <Gold.Rescore>
     Score         DG    S(hbond)    S(metal)    S(lipo)     H(rot)  DE(clash)    DE(int)     intcor
     17.84     -22.00       2.94        0.00      94.62       1.70       0.87       3.28       ----

> <Gold.Chemscore.Fitness>
17.8440

> <Gold.Chemscore.DG>
-21.9998

> <Gold.Chemscore.ZeroCoef>
-5.4800

> <Gold.Chemscore.Hbond>
2.9374

> <Gold.Chemscore.Metal>
0.0000

> <Gold.Chemscore.Lipo>
94.6190

> <Gold.Chemscore.Internal_Hbond>
0.0000

> <Gold.Chemscore.DEClash>
0.8742

> <Gold.Chemscore.DEInternal>
3.2816

> <Gold.Chemscore.Rot>
1.7037

> <Gold.Chemscore.Internal.Correction>
   9.000000E+99

> <Gold.Chemscore.Hbonds>
donor molecule, donor type, donor heavy atom, donor atom, acceptor molecule, acceptor atom, score
      L1  H     2    25       P1 10171  0.95
      L1  H    10    33       P1  8028  0.96
      L1  H    13    34       P1  8028  0.99

> <Gold.Chemscore.Hbond.Weighted>
-9.8108

> <Gold.Chemscore.Metal.Weighted>
-0.0000

> <Gold.Chemscore.Lipo.Weighted>
-11.0704

> <Gold.Chemscore.Internal_Hbond.Weighted>
0.0000

> <Gold.Chemscore.DEClash.Weighted>
0.8742

> <Gold.Chemscore.DEInternal.Weighted>
3.2816

> <Gold.Chemscore.Rot.Weighted>
4.3614

> <Gold.Chemscore.Internal.Correction.Weighted>
   9.000000E+99

> <Gold.Protein.RotatedTorsions>
[ 6907 6896 6895 6894 ] final  -54.86 input  -60.11 | X-H torsion
[ 7974 7965 7964 7962 ] final   47.35 input  175.53 | X-H torsion
[ 8008 7997 7996 7995 ] final  144.00 input   59.86 | X-H torsion
[ 10167 10162 10161 10158 ] final    1.04 input  -65.29 | X-H torsion
[ 10718 10713 10712 10709 ] final -155.57 input   66.30 | X-H torsion
[ 10763 10752 10751 10750 ] final  142.98 input  -60.55 | X-H torsion
[ 11005 11000 10999 10996 ] final -141.40 input  -57.11 | X-H torsion

> <Gold.Protein.ActiveResidues>
 VAL166  LYS551  ARG553  GLY616  TRP617  ASP618  TYR619  PRO620  LYS621  CYS622 
 ASP623  PHE694  ASN695  SER759  ASP760  ASP761  ALA762  ILE779  LEU786  VAL792 
 PHE793  MET794  SER795  GLU796  ALA797  LYS798  CYS799  TRP800  GLU811  SER814 

> <Gold.Protein.RotatedAtoms>
  150.8302  134.7551  159.6846 H   0  0  0  0  0  0  0  0  0  0  0  0  # atno 6907 bound_to 6896
  152.4407  134.5593  159.9899 H   0  0  0  0  0  0  0  0  0  0  0  0  # atno 6908 bound_to 6896
  151.5756  133.3346  159.3034 H   0  0  0  0  0  0  0  0  0  0  0  0  # atno 6909 bound_to 6896
  146.0306  139.4758  142.9840 H   0  0  0  0  0  0  0  0  0  0  0  0  # atno 7974 bound_to 7965
  156.2918  140.2247  156.4982 H   0  0  0  0  0  0  0  0  0  0  0  0  # atno 8008 bound_to 7997
  154.7712  140.0466  157.1074 H   0  0  0  0  0  0  0  0  0  0  0  0  # atno 8009 bound_to 7997
  154.9872  140.3085  155.4925 H   0  0  0  0  0  0  0  0  0  0  0  0  # atno 8010 bound_to 7997
  140.6701  143.7072  150.7906 H   0  0  0  0  0  0  0  0  0  0  0  0  # atno 10167 bound_to 10162
  156.5147  130.8451  151.2659 H   0  0  0  0  0  0  0  0  0  0  0  0  # atno 10718 bound_to 10713
  153.9648  135.2956  155.3431 H   0  0  0  0  0  0  0  0  0  0  0  0  # atno 10763 bound_to 10752
  154.7355  135.5048  153.9037 H   0  0  0  0  0  0  0  0  0  0  0  0  # atno 10764 bound_to 10752
  153.0929  135.6713  153.9930 H   0  0  0  0  0  0  0  0  0  0  0  0  # atno 10765 bound_to 10752
  140.8328  134.2496  157.4848 H   0  0  0  0  0  0  0  0  0  0  0  0  # atno 11005 bound_to 11000
  145.7047  141.0125  143.1485 LP  0  0  0  0  0  0  0  0  0  0  0  0  # atno 17320 bound_to 7965
  144.7028  139.8686  143.7439 LP  0  0  0  0  0  0  0  0  0  0  0  0  # atno 17321 bound_to 7965
  140.0756  143.5019  152.2557 LP  0  0  0  0  0  0  0  0  0  0  0  0  # atno 17342 bound_to 10162
  139.5966  144.7569  151.3272 LP  0  0  0  0  0  0  0  0  0  0  0  0  # atno 17343 bound_to 10162
  157.7445  130.9938  150.2684 LP  0  0  0  0  0  0  0  0  0  0  0  0  # atno 17370 bound_to 10713
  156.3207  130.3785  149.7578 LP  0  0  0  0  0  0  0  0  0  0  0  0  # atno 17371 bound_to 10713
  139.8704  134.9595  156.4334 LP  0  0  0  0  0  0  0  0  0  0  0  0  # atno 17394 bound_to 11000
  140.8979  133.7800  155.9647 LP  0  0  0  0  0  0  0  0  0  0  0  0  # atno 17395 bound_to 11000

$$$$
