AV-unprocessed.smi:290|AV-procd|sdf|2215|dock9
  -GOLD-   2262022 53D 1   1.00000     0.00000
 Structure written by MMmdl.
 59 62  0  0  0  0  0  0  0  0  2 V2000
  154.0927  137.5650  156.1554 C   0  0  0  0  0  0  0  0  0  0  0  0
  153.0922  138.4570  155.4052 C   0  0  2  0  0  0  0  0  0  0  0  0
  152.7475  139.5986  156.1855 O   0  0  0  0  0  0  0  0  0  0  0  0
  151.3933  139.9705  155.9420 C   0  0  0  0  0  0  0  0  0  0  0  0
  150.9134  139.0686  154.8085 C   0  0  0  0  0  0  0  0  0  0  0  0
  151.7516  137.8113  155.0070 C   0  0  1  0  0  0  0  0  0  0  0  0
  151.8778  137.1406  153.7666 O   0  0  0  0  0  0  0  0  0  0  0  0
  151.1786  136.8338  156.0689 C   0  0  0  0  0  0  0  0  0  0  0  0
  150.0976  135.9967  155.5730 N   0  0  0  0  0  0  0  0  0  0  0  0
  148.8548  136.4144  155.1529 C   0  0  0  0  0  0  0  0  0  0  0  0
  148.0554  135.4649  154.7489 N   0  0  0  0  0  0  0  0  0  0  0  0
  148.8056  134.3048  154.8991 C   0  0  0  0  0  0  0  0  0  0  0  0
  148.5630  132.9232  154.6574 C   0  0  0  0  0  0  0  0  0  0  0  0
  147.4090  132.4146  154.1757 N   0  0  0  0  0  0  0  0  0  0  0  0
  147.5444  131.1193  153.5129 C   0  0  0  0  0  0  0  0  0  0  0  0
  146.4907  131.0936  152.4033 C   0  0  0  0  0  0  0  0  0  0  0  0
  146.4258  132.5750  152.0238 C   0  0  1  0  0  0  0  0  0  0  0  0
  145.3056  133.0261  151.1403 N   0  3  1  0  0  0  0  0  0  0  0  0
  145.3798  134.4835  150.8687 C   0  0  0  0  0  0  0  0  0  0  0  0
  145.1033  132.2258  149.8995 C   0  0  0  0  0  0  0  0  0  0  0  0
  144.1291  132.8870  148.9078 C   0  0  0  0  0  0  0  0  0  0  0  0
  142.8609  132.2720  148.9861 O   0  0  0  0  0  0  0  0  0  0  0  0
  146.5741  133.3079  153.3723 C   0  0  1  0  0  0  0  0  0  0  0  0
  145.2733  133.6101  154.1341 C   0  0  0  0  0  0  0  0  0  0  0  0
  149.5636  132.0457  154.9118 N   0  0  0  0  0  0  0  0  0  0  0  0
  150.7320  132.4862  155.3887 C   0  0  0  0  0  0  0  0  0  0  0  0
  151.0998  133.7379  155.6716 N   0  0  0  0  0  0  0  0  0  0  0  0
  150.0960  134.6229  155.4070 C   0  0  0  0  0  0  0  0  0  0  0  0
  147.3556  132.7858  151.4921 H   0  0  0  0  0  0  0  0  0  0  0  0
  147.0742  134.2618  153.1979 H   0  0  0  0  0  0  0  0  0  0  0  0
  154.3343  136.6736  155.5760 H   0  0  0  0  0  0  0  0  0  0  0  0
  153.7049  137.2460  157.1227 H   0  0  0  0  0  0  0  0  0  0  0  0
  155.0232  138.1023  156.3396 H   0  0  0  0  0  0  0  0  0  0  0  0
  153.5777  138.8412  154.5060 H   0  0  0  0  0  0  0  0  0  0  0  0
  150.8134  139.7919  156.8481 H   0  0  0  0  0  0  0  0  0  0  0  0
  151.3104  141.0282  155.6910 H   0  0  0  0  0  0  0  0  0  0  0  0
  149.8360  138.9079  154.8142 H   0  0  0  0  0  0  0  0  0  0  0  0
  151.1621  139.5401  153.8560 H   0  0  0  0  0  0  0  0  0  0  0  0
  152.2322  137.7461  153.1336 H   0  0  0  0  0  0  0  0  0  0  0  0
  151.9638  136.1763  156.4446 H   0  0  0  0  0  0  0  0  0  0  0  0
  150.8091  137.3872  156.9329 H   0  0  0  0  0  0  0  0  0  0  0  0
  148.5570  137.4528  155.1597 H   0  0  0  0  0  0  0  0  0  0  0  0
  148.5423  131.0119  153.0841 H   0  0  0  0  0  0  0  0  0  0  0  0
  147.3978  130.3036  154.2214 H   0  0  0  0  0  0  0  0  0  0  0  0
  146.7710  130.4486  151.5701 H   0  0  0  0  0  0  0  0  0  0  0  0
  145.5515  130.7289  152.8175 H   0  0  0  0  0  0  0  0  0  0  0  0
  146.2701  134.7246  150.2862 H   0  0  0  0  0  0  0  0  0  0  0  0
  145.4183  135.0507  151.7995 H   0  0  0  0  0  0  0  0  0  0  0  0
  144.5087  134.8423  150.3235 H   0  0  0  0  0  0  0  0  0  0  0  0
  146.0672  132.0563  149.4178 H   0  0  0  0  0  0  0  0  0  0  0  0
  144.7060  131.2408  150.1362 H   0  0  0  0  0  0  0  0  0  0  0  0
  144.0298  133.9593  149.0706 H   0  0  0  0  0  0  0  0  0  0  0  0
  144.5030  132.7620  147.8913 H   0  0  0  0  0  0  0  0  0  0  0  0
  142.2072  132.9430  149.1153 H   0  0  0  0  0  0  0  0  0  0  0  0
  144.6161  134.2635  153.5618 H   0  0  0  0  0  0  0  0  0  0  0  0
  145.4908  134.1193  155.0735 H   0  0  0  0  0  0  0  0  0  0  0  0
  144.7270  132.6999  154.3811 H   0  0  0  0  0  0  0  0  0  0  0  0
  151.4787  131.7272  155.5706 H   0  0  0  0  0  0  0  0  0  0  0  0
  144.4681  132.8959  151.6905 H   0  0  0  0  0  0  0  0  0  0  0  0
  1  2  1  0  0  0  0
  1 31  1  0  0  0  0
  1 32  1  0  0  0  0
  1 33  1  0  0  0  0
  2  6  1  0  0  0  0
  2  3  1  0  0  0  0
  2 34  1  0  0  0  0
  3  4  1  0  0  0  0
  4  5  1  0  0  0  0
  4 35  1  0  0  0  0
  4 36  1  0  0  0  0
  5  6  1  0  0  0  0
  5 37  1  0  0  0  0
  5 38  1  0  0  0  0
  6  7  1  0  0  0  0
  6  8  1  0  0  0  0
  7 39  1  0  0  0  0
  8  9  1  0  0  0  0
  8 40  1  0  0  0  0
  8 41  1  0  0  0  0
  9 28  1  0  0  0  0
  9 10  1  0  0  0  0
 10 11  2  0  0  0  0
 10 42  1  0  0  0  0
 11 12  1  0  0  0  0
 12 28  2  0  0  0  0
 12 13  1  0  0  0  0
 13 14  1  0  0  0  0
 13 25  2  0  0  0  0
 14 23  1  0  0  0  0
 14 15  1  0  0  0  0
 15 16  1  0  0  0  0
 15 43  1  0  0  0  0
 15 44  1  0  0  0  0
 16 17  1  0  0  0  0
 16 45  1  0  0  0  0
 16 46  1  0  0  0  0
 17 29  1  0  0  0  0
 17 18  1  0  0  0  0
 17 23  1  0  0  0  0
 18 19  1  0  0  0  0
 18 20  1  0  0  0  0
 18 59  1  0  0  0  0
 19 47  1  0  0  0  0
 19 48  1  0  0  0  0
 19 49  1  0  0  0  0
 20 21  1  0  0  0  0
 20 50  1  0  0  0  0
 20 51  1  0  0  0  0
 21 22  1  0  0  0  0
 21 52  1  0  0  0  0
 21 53  1  0  0  0  0
 22 54  1  0  0  0  0
 23 30  1  0  0  0  0
 23 24  1  0  0  0  0
 24 55  1  0  0  0  0
 24 56  1  0  0  0  0
 24 57  1  0  0  0  0
 25 26  1  0  0  0  0
 26 27  2  0  0  0  0
 26 58  1  0  0  0  0
 27 28  1  0  0  0  0
M  CHG  1  18   1
M  END
> <s_m_source_file>
AV-unprocessed.smi

> <i_m_source_file_index>
290

> <i_lp_mmshare_version>
43012

> <i_f3d_flags>
0

> <s_epik_input>
W0NIMl0xW0NIMl1PW0NAQEhdKFtDSDNdKVtDQEBdMShbT0hdKVtDSDJdbihbY0hdbjIpYyhjMjMpbltjSF1uYzNONFtDSDJdW0NIMl1bQ0BIXShbQ0BIXTRbQ0gzXSlOKFtDSDNdKVtDSDJdW0NIMl1bT0hd

> <s_epik_cmdline>
J2VwaWtfcHl0aG9uJywgJy1waCcsICc3LjAnLCAnLXRuJywgJzgnLCAnLW1hJywgJzIwMCcsICctbWV0YWxfYmluZGluZycsICctaW1hZScsICc8aW5maWxlLm1hZT4nLCAnLW9tYWUnLCAnPG91dGZpbGUubWFlPic=

> <r_lp_tautomer_probability>
1

> <r_epik_Ionization_Penalty>
0.0036983

> <r_epik_Ionization_Penalty_Charging>
0.0032725

> <r_epik_Ionization_Penalty_Neutral>
0.000425798

> <r_epik_State_Penalty>
-0

> <r_epik_Charging_Adjusted_Penalty>
0.0032725

> <i_epik_Tot_Q>
1

> <i_epik_Tot_abs_Q>
1

> <r_epik_Metal_State_Penalty>
-0

> <b_epik_Metal_Only>
0

> <s_lp_Force_Field>
OPLS_2005

> <r_lp_Energy>
65.3188

> <b_lp_Chiralities_Consistent>
1

> <s_lp_Variant>
AV-unprocessed.smi:290-1

> <Gold.Version>
5.8.1

> <Gold.Id.Protein>
6NUR|6NUR_protein|mol2

> <Gold.PLP.Fitness>
51.5418

> <Gold.PLP.PLP>
-41.9719

> <Gold.PLP.part.hbond>
-6.0000

> <Gold.PLP.part.metal>
0.0000

> <Gold.PLP.part.buried>
-2.1230

> <Gold.PLP.part.nonpolar>
-35.0187

> <Gold.PLP.part.repulsive>
0.2508

> <Gold.PLP.ligand.clash>
0.0000

> <Gold.PLP.ligand.torsion>
1.3931

> <Gold.PLP.Chemscore.Hbond>
4.0000

> <Gold.PLP.Chemscore.CHOScore>
0.0000

> <Gold.PLP.Chemscore.Metal>
0.0000

> <Gold.Chemscore.Hbonds>
donor molecule, donor type, donor heavy atom, donor atom, acceptor molecule, acceptor atom, score
      L1  H    22    54       P1 10186  1.00
      P1  H  7997  8009       L1     3  0.80
      P1  H 10752 10764       L1     7  1.00
      P1  H 10785 10796       L1    22  0.67

> <Gold.PLP.Chemscore.Internal.Correction>
0.3562

> <Gold.Rescore>
     Score         DG    S(hbond)    S(metal)    S(lipo)     H(rot)  DE(clash)    DE(int)     intcor
     12.41     -16.69       2.96        0.00      91.66       3.67       1.65       2.63       ----

> <Gold.Chemscore.Fitness>
12.4145

> <Gold.Chemscore.DG>
-16.6918

> <Gold.Chemscore.ZeroCoef>
-5.4800

> <Gold.Chemscore.Hbond>
2.9558

> <Gold.Chemscore.Metal>
0.0000

> <Gold.Chemscore.Lipo>
91.6560

> <Gold.Chemscore.Internal_Hbond>
0.0000

> <Gold.Chemscore.DEClash>
1.6474

> <Gold.Chemscore.DEInternal>
2.6299

> <Gold.Chemscore.Rot>
3.6658

> <Gold.Chemscore.Internal.Correction>
   9.000000E+99

> <Gold.Chemscore.Hbonds>
donor molecule, donor type, donor heavy atom, donor atom, acceptor molecule, acceptor atom, score
      L1  H    22    54       P1 10186  0.99
      P1  H  7997  8009       L1     3  0.12
      P1  H 10752 10764       L1     7  0.45
      P1  H 10785 10796       L1    22  0.40

> <Gold.Chemscore.Hbond.Weighted>
-9.8725

> <Gold.Chemscore.Metal.Weighted>
-0.0000

> <Gold.Chemscore.Lipo.Weighted>
-10.7238

> <Gold.Chemscore.Internal_Hbond.Weighted>
0.0000

> <Gold.Chemscore.DEClash.Weighted>
1.6474

> <Gold.Chemscore.DEInternal.Weighted>
2.6299

> <Gold.Chemscore.Rot.Weighted>
9.3844

> <Gold.Chemscore.Internal.Correction.Weighted>
   9.000000E+99

> <Gold.Protein.RotatedTorsions>
[ 6907 6896 6895 6894 ] final   83.54 input  -60.11 | X-H torsion
[ 7974 7965 7964 7962 ] final  153.87 input  175.53 | X-H torsion
[ 8008 7997 7996 7995 ] final -172.29 input   59.86 | X-H torsion
[ 10167 10162 10161 10158 ] final  116.29 input  -65.29 | X-H torsion
[ 10718 10713 10712 10709 ] final  -31.13 input   66.30 | X-H torsion
[ 10763 10752 10751 10750 ] final  -98.67 input  -60.55 | X-H torsion
[ 11005 11000 10999 10996 ] final   61.15 input  -57.11 | X-H torsion

> <Gold.Protein.ActiveResidues>
 VAL166  LYS551  ARG553  GLY616  TRP617  ASP618  TYR619  PRO620  LYS621  CYS622 
 ASP623  PHE694  ASN695  SER759  ASP760  ASP761  ALA762  ILE779  LEU786  VAL792 
 PHE793  MET794  SER795  GLU796  ALA797  LYS798  CYS799  TRP800  GLU811  SER814 

> <Gold.Protein.RotatedAtoms>
  152.5330  134.2879  159.9031 H   0  0  0  0  0  0  0  0  0  0  0  0  # atno 6907 bound_to 6896
  151.2832  133.4193  159.2636 H   0  0  0  0  0  0  0  0  0  0  0  0  # atno 6908 bound_to 6896
  151.0265  134.9523  159.8145 H   0  0  0  0  0  0  0  0  0  0  0  0  # atno 6909 bound_to 6896
  144.8126  139.6858  143.6135 H   0  0  0  0  0  0  0  0  0  0  0  0  # atno 7974 bound_to 7965
  155.9427  140.1111  157.1042 H   0  0  0  0  0  0  0  0  0  0  0  0  # atno 8008 bound_to 7997
  154.4092  140.1216  156.5014 H   0  0  0  0  0  0  0  0  0  0  0  0  # atno 8009 bound_to 7997
  155.6942  140.3472  155.4908 H   0  0  0  0  0  0  0  0  0  0  0  0  # atno 8010 bound_to 7997
  139.6258  144.7108  151.2537 H   0  0  0  0  0  0  0  0  0  0  0  0  # atno 10167 bound_to 10162
  156.3911  130.4373  149.7394 H   0  0  0  0  0  0  0  0  0  0  0  0  # atno 10718 bound_to 10713
  154.7434  135.5000  153.9162 H   0  0  0  0  0  0  0  0  0  0  0  0  # atno 10763 bound_to 10752
  153.1066  135.6699  153.9583 H   0  0  0  0  0  0  0  0  0  0  0  0  # atno 10764 bound_to 10752
  153.9354  135.3073  155.3423 H   0  0  0  0  0  0  0  0  0  0  0  0  # atno 10765 bound_to 10752
  140.0182  134.6193  155.9679 H   0  0  0  0  0  0  0  0  0  0  0  0  # atno 11005 bound_to 11000
  146.2426  139.6032  142.9481 LP  0  0  0  0  0  0  0  0  0  0  0  0  # atno 17320 bound_to 7965
  145.5289  141.0428  143.2394 LP  0  0  0  0  0  0  0  0  0  0  0  0  # atno 17321 bound_to 7965
  140.7410  143.6571  150.8196 LP  0  0  0  0  0  0  0  0  0  0  0  0  # atno 17342 bound_to 10162
  140.0189  143.5563  152.2808 LP  0  0  0  0  0  0  0  0  0  0  0  0  # atno 17343 bound_to 10162
  156.4447  130.7878  151.2899 LP  0  0  0  0  0  0  0  0  0  0  0  0  # atno 17370 bound_to 10713
  157.7499  131.0114  150.3343 LP  0  0  0  0  0  0  0  0  0  0  0  0  # atno 17371 bound_to 10713
  141.1756  133.6540  156.4817 LP  0  0  0  0  0  0  0  0  0  0  0  0  # atno 17394 bound_to 11000
  140.4434  134.6994  157.5003 LP  0  0  0  0  0  0  0  0  0  0  0  0  # atno 17395 bound_to 11000

$$$$
