AV-unprocessed.smi:2973|AV-procd|sdf|11337|dock10
  -GOLD-   2272016243D 1   1.00000     0.00000
 Structure written by MMmdl.
 49 51  0  0  0  0  0  0  0  0  1 V2000
  151.0922  140.6810  155.1746 C   0  0  0  0  0  0  0  0  0  0  0  0
  149.8325  140.3016  154.3673 C   0  0  2  0  0  0  0  0  0  0  0  0
  148.6797  141.2858  154.6613 C   0  0  0  0  0  0  0  0  0  0  0  0
  147.4437  140.9870  153.7986 C   0  0  0  0  0  0  0  0  0  0  0  0
  146.9670  139.5395  153.9824 C   0  0  0  0  0  0  0  0  0  0  0  0
  148.1006  138.5396  153.6928 C   0  0  0  0  0  0  0  0  0  0  0  0
  149.3808  138.8143  154.5221 C   0  0  1  0  0  0  0  0  0  0  0  0
  150.4330  137.9019  154.1093 N   0  0  0  0  0  0  0  0  0  0  0  0
  150.8293  137.0754  155.0847 C   0  0  0  0  0  0  0  0  0  0  0  0
  151.7086  136.2221  154.9772 O   0  0  0  0  0  0  0  0  0  0  0  0
  150.1097  137.3478  156.1872 N   0  0  0  0  0  0  0  0  0  0  0  0
  150.2953  136.6730  157.4785 C   0  0  0  0  0  0  0  0  0  0  0  0
  151.0882  137.5106  158.4924 C   0  0  0  0  0  0  0  0  0  0  0  0
  151.6361  136.9838  159.4621 O   0  0  0  0  0  0  0  0  0  0  0  0
  151.1449  138.8273  158.2437 N   0  0  0  0  0  0  0  0  0  0  0  0
  151.8194  139.8118  159.0817 C   0  0  0  0  0  0  0  0  0  0  0  0
  152.3520  140.9963  158.2585 C   0  0  0  0  0  0  0  0  0  0  0  0
  151.9778  142.3307  158.8750 C   0  0  0  0  0  0  0  0  0  0  0  0
  152.4284  142.6788  160.1665 C   0  0  0  0  0  0  0  0  0  0  0  0
  152.0677  143.9370  160.6861 C   0  0  0  0  0  0  0  0  0  0  0  0
  151.2753  144.7945  159.8986 C   0  0  0  0  0  0  0  0  0  0  0  0
  150.8768  144.3535  158.6210 C   0  0  0  0  0  0  0  0  0  0  0  0
  151.2175  143.1494  158.1131 N   0  0  0  0  0  0  0  0  0  0  0  0
  149.2405  138.3449  155.9722 C   0  0  0  0  0  0  0  0  0  0  0  0
  148.4573  138.8271  156.7909 O   0  0  0  0  0  0  0  0  0  0  0  0
  150.9184  140.6213  156.2492 H   0  0  0  0  0  0  0  0  0  0  0  0
  151.4007  141.7027  154.9527 H   0  0  0  0  0  0  0  0  0  0  0  0
  151.9353  140.0328  154.9364 H   0  0  0  0  0  0  0  0  0  0  0  0
  150.0981  140.4384  153.3176 H   0  0  0  0  0  0  0  0  0  0  0  0
  148.4087  141.2505  155.7166 H   0  0  0  0  0  0  0  0  0  0  0  0
  149.0090  142.3077  154.4698 H   0  0  0  0  0  0  0  0  0  0  0  0
  146.6387  141.6775  154.0511 H   0  0  0  0  0  0  0  0  0  0  0  0
  147.6818  141.1615  152.7485 H   0  0  0  0  0  0  0  0  0  0  0  0
  146.5909  139.4020  154.9962 H   0  0  0  0  0  0  0  0  0  0  0  0
  146.1252  139.3424  153.3184 H   0  0  0  0  0  0  0  0  0  0  0  0
  147.7396  137.5255  153.8717 H   0  0  0  0  0  0  0  0  0  0  0  0
  148.3448  138.5840  152.6305 H   0  0  0  0  0  0  0  0  0  0  0  0
  150.8220  137.9055  153.1774 H   0  0  0  0  0  0  0  0  0  0  0  0
  149.3293  136.4201  157.9185 H   0  0  0  0  0  0  0  0  0  0  0  0
  150.8074  135.7219  157.3214 H   0  0  0  0  0  0  0  0  0  0  0  0
  150.6711  139.1752  157.4225 H   0  0  0  0  0  0  0  0  0  0  0  0
  151.1026  140.1694  159.8215 H   0  0  0  0  0  0  0  0  0  0  0  0
  152.6286  139.3365  159.6390 H   0  0  0  0  0  0  0  0  0  0  0  0
  153.4381  140.9404  158.1729 H   0  0  0  0  0  0  0  0  0  0  0  0
  151.9620  140.9495  157.2407 H   0  0  0  0  0  0  0  0  0  0  0  0
  153.0396  142.0012  160.7446 H   0  0  0  0  0  0  0  0  0  0  0  0
  152.3950  144.2391  161.6700 H   0  0  0  0  0  0  0  0  0  0  0  0
  150.9802  145.7670  160.2637 H   0  0  0  0  0  0  0  0  0  0  0  0
  150.2700  144.9856  157.9896 H   0  0  0  0  0  0  0  0  0  0  0  0
  1  2  1  0  0  0  0
  1 26  1  0  0  0  0
  1 27  1  0  0  0  0
  1 28  1  0  0  0  0
  2  7  1  0  0  0  0
  2  3  1  0  0  0  0
  2 29  1  0  0  0  0
  3  4  1  0  0  0  0
  3 30  1  0  0  0  0
  3 31  1  0  0  0  0
  4  5  1  0  0  0  0
  4 32  1  0  0  0  0
  4 33  1  0  0  0  0
  5  6  1  0  0  0  0
  5 34  1  0  0  0  0
  5 35  1  0  0  0  0
  6  7  1  0  0  0  0
  6 36  1  0  0  0  0
  6 37  1  0  0  0  0
  7 24  1  0  0  0  0
  7  8  1  0  0  0  0
  8  9  1  0  0  0  0
  8 38  1  0  0  0  0
  9 10  2  0  0  0  0
  9 11  1  0  0  0  0
 11 12  1  0  0  0  0
 11 24  1  0  0  0  0
 12 13  1  0  0  0  0
 12 39  1  0  0  0  0
 12 40  1  0  0  0  0
 13 14  2  0  0  0  0
 13 15  1  0  0  0  0
 15 16  1  0  0  0  0
 15 41  1  0  0  0  0
 16 17  1  0  0  0  0
 16 42  1  0  0  0  0
 16 43  1  0  0  0  0
 17 18  1  0  0  0  0
 17 44  1  0  0  0  0
 17 45  1  0  0  0  0
 18 23  1  0  0  0  0
 18 19  2  0  0  0  0
 19 20  1  0  0  0  0
 19 46  1  0  0  0  0
 20 21  2  0  0  0  0
 20 47  1  0  0  0  0
 21 22  1  0  0  0  0
 21 48  1  0  0  0  0
 22 23  2  0  0  0  0
 22 49  1  0  0  0  0
 24 25  2  0  0  0  0
M  END
> <s_m_source_file>
AV-unprocessed.smi

> <i_m_source_file_index>
2973

> <i_lp_mmshare_version>
43012

> <i_f3d_flags>
0

> <s_epik_input>
W0NIMl0xW0NIMl1bQ0gyXVtDSDJdW0NAQEhdKFtDSDNdKVtDQF0xMltOSF1DKD1PKU4oQzI9TylbQ0gyXUMoPU8pW05IXVtDSDJdW0NIMl1jM1tjSF1bY0hdW2NIXVtjSF1uMw==

> <s_epik_cmdline>
J2VwaWtfcHl0aG9uJywgJy1waCcsICc3LjAnLCAnLXRuJywgJzgnLCAnLW1hJywgJzIwMCcsICctbWV0YWxfYmluZGluZycsICctaW1hZScsICc8aW5maWxlLm1hZT4nLCAnLW9tYWUnLCAnPG91dGZpbGUubWFlPic=

> <r_lp_tautomer_probability>
1

> <r_epik_Ionization_Penalty>
0.0245152

> <r_epik_Ionization_Penalty_Charging>
0

> <r_epik_Ionization_Penalty_Neutral>
0.0245152

> <r_epik_State_Penalty>
0.0198648

> <r_epik_Charging_Adjusted_Penalty>
0.0198648

> <i_epik_Tot_Q>
0

> <i_epik_Tot_abs_Q>
0

> <r_epik_Metal_State_Penalty>
0.0400162

> <b_epik_Metal_Only>
0

> <s_lp_Force_Field>
OPLS_2005

> <r_lp_Energy>
16.1581

> <b_lp_Chiralities_Consistent>
1

> <s_lp_Variant>
AV-unprocessed.smi:2973-1

> <Gold.Version>
5.8.1

> <Gold.Id.Protein>
6NUR|6NUR_protein|mol2

> <Gold.PLP.Fitness>
47.7835

> <Gold.PLP.PLP>
-40.7752

> <Gold.PLP.part.hbond>
-3.0000

> <Gold.PLP.part.metal>
0.0000

> <Gold.PLP.part.buried>
-1.2610

> <Gold.PLP.part.nonpolar>
-36.4868

> <Gold.PLP.part.repulsive>
0.3238

> <Gold.PLP.ligand.clash>
0.0000

> <Gold.PLP.ligand.torsion>
1.0291

> <Gold.PLP.Chemscore.Hbond>
2.0167

> <Gold.PLP.Chemscore.CHOScore>
1.0000

> <Gold.PLP.Chemscore.Metal>
0.0000

> <Gold.Chemscore.Hbonds>
donor molecule, donor type, donor heavy atom, donor atom, acceptor molecule, acceptor atom, score
      P1  H  6896  6907       L1    14  1.00
      P1  H 10752 10763       L1    10  0.75
      L1  C    22    49       P1  8028  0.34
      L1  C    22    49       P1  8029  0.45

> <Gold.PLP.Chemscore.Internal.Correction>
0.0162

> <Gold.Rescore>
     Score         DG    S(hbond)    S(metal)    S(lipo)     H(rot)  DE(clash)    DE(int)     intcor
     17.66     -20.80       2.03        0.00     113.70       1.86       1.40       1.74       ----

> <Gold.Chemscore.Fitness>
17.6566

> <Gold.Chemscore.DG>
-20.8036

> <Gold.Chemscore.ZeroCoef>
-5.4800

> <Gold.Chemscore.Hbond>
2.0272

> <Gold.Chemscore.Metal>
0.0000

> <Gold.Chemscore.Lipo>
113.6959

> <Gold.Chemscore.Internal_Hbond>
0.0000

> <Gold.Chemscore.DEClash>
1.4023

> <Gold.Chemscore.DEInternal>
1.7447

> <Gold.Chemscore.Rot>
1.8553

> <Gold.Chemscore.Internal.Correction>
   9.000000E+99

> <Gold.Chemscore.Hbonds>
donor molecule, donor type, donor heavy atom, donor atom, acceptor molecule, acceptor atom, score
      P1  H  6896  6907       L1    14  1.00
      P1  H 10752 10763       L1    10  0.75

> <Gold.Chemscore.Hbond.Weighted>
-6.7709

> <Gold.Chemscore.Metal.Weighted>
-0.0000

> <Gold.Chemscore.Lipo.Weighted>
-13.3024

> <Gold.Chemscore.Internal_Hbond.Weighted>
0.0000

> <Gold.Chemscore.DEClash.Weighted>
1.4023

> <Gold.Chemscore.DEInternal.Weighted>
1.7447

> <Gold.Chemscore.Rot.Weighted>
4.7497

> <Gold.Chemscore.Internal.Correction.Weighted>
   9.000000E+99

> <Gold.Protein.RotatedTorsions>
[ 6907 6896 6895 6894 ] final    0.01 input  -60.11 | X-H torsion
[ 7974 7965 7964 7962 ] final  -76.46 input  175.53 | X-H torsion
[ 8008 7997 7996 7995 ] final  140.74 input   59.86 | X-H torsion
[ 10167 10162 10161 10158 ] final   -8.80 input  -65.29 | X-H torsion
[ 10718 10713 10712 10709 ] final    4.62 input   66.30 | X-H torsion
[ 10763 10752 10751 10750 ] final   60.84 input  -60.55 | X-H torsion
[ 11005 11000 10999 10996 ] final  130.86 input  -57.11 | X-H torsion

> <Gold.Protein.ActiveResidues>
 VAL166  LYS551  ARG553  GLY616  TRP617  ASP618  TYR619  PRO620  LYS621  CYS622 
 ASP623  PHE694  ASN695  SER759  ASP760  ASP761  ALA762  ILE779  LEU786  VAL792 
 PHE793  MET794  SER795  GLU796  ALA797  LYS798  CYS799  TRP800  GLU811  SER814 

> <Gold.Protein.RotatedAtoms>
  151.5695  135.1063  159.9991 H   0  0  0  0  0  0  0  0  0  0  0  0  # atno 6907 bound_to 6896
  152.4408  133.7440  159.6667 H   0  0  0  0  0  0  0  0  0  0  0  0  # atno 6908 bound_to 6896
  150.8313  133.8018  159.3121 H   0  0  0  0  0  0  0  0  0  0  0  0  # atno 6909 bound_to 6896
  145.6125  140.9383  143.1181 H   0  0  0  0  0  0  0  0  0  0  0  0  # atno 7974 bound_to 7965
  156.2975  140.2333  156.4451 H   0  0  0  0  0  0  0  0  0  0  0  0  # atno 8008 bound_to 7997
  154.8151  140.0441  157.1391 H   0  0  0  0  0  0  0  0  0  0  0  0  # atno 8009 bound_to 7997
  154.9379  140.3025  155.5139 H   0  0  0  0  0  0  0  0  0  0  0  0  # atno 8010 bound_to 7997
  140.7069  143.5928  150.8876 H   0  0  0  0  0  0  0  0  0  0  0  0  # atno 10167 bound_to 10162
  156.8953  130.5702  149.5649 H   0  0  0  0  0  0  0  0  0  0  0  0  # atno 10718 bound_to 10713
  152.9933  135.5522  154.5939 H   0  0  0  0  0  0  0  0  0  0  0  0  # atno 10763 bound_to 10752
  154.5295  135.2812  155.1195 H   0  0  0  0  0  0  0  0  0  0  0  0  # atno 10764 bound_to 10752
  154.2516  135.6398  153.5295 H   0  0  0  0  0  0  0  0  0  0  0  0  # atno 10765 bound_to 10752
  139.9696  134.9581  156.9355 H   0  0  0  0  0  0  0  0  0  0  0  0  # atno 11005 bound_to 11000
  144.7264  139.7863  143.7363 LP  0  0  0  0  0  0  0  0  0  0  0  0  # atno 17320 bound_to 7965
  146.1493  139.4571  143.0059 LP  0  0  0  0  0  0  0  0  0  0  0  0  # atno 17321 bound_to 7965
  139.9654  143.6117  152.2990 LP  0  0  0  0  0  0  0  0  0  0  0  0  # atno 17342 bound_to 10162
  139.6684  144.7661  151.1829 LP  0  0  0  0  0  0  0  0  0  0  0  0  # atno 17343 bound_to 10162
  156.0609  130.5661  150.9190 LP  0  0  0  0  0  0  0  0  0  0  0  0  # atno 17370 bound_to 10713
  157.6059  131.0939  150.8880 LP  0  0  0  0  0  0  0  0  0  0  0  0  # atno 17371 bound_to 10713
  140.5321  134.0803  155.7318 LP  0  0  0  0  0  0  0  0  0  0  0  0  # atno 17394 bound_to 11000
  141.1376  133.9194  157.2399 LP  0  0  0  0  0  0  0  0  0  0  0  0  # atno 17395 bound_to 11000

$$$$
