AV-unprocessed.smi:745|AV-procd|sdf|3573|dock3
  -GOLD-   22720 0563D 1   1.00000     0.00000
 Structure written by MMmdl.
 42 43  0  0  0  0  0  0  0  0  2 V2000
  147.5975  141.5892  153.3404 C   0  0  0  0  0  0  0  0  0  0  0  0
  148.7714  140.9582  154.1093 C   0  0  1  0  0  0  0  0  0  0  0  0
  149.1520  141.8839  155.1775 N   0  0  0  0  0  0  0  0  0  0  0  0
  150.1732  141.7224  156.0334 C   0  0  0  0  0  0  0  0  0  0  0  0
  150.9013  140.7295  156.0439 O   0  0  0  0  0  0  0  0  0  0  0  0
  150.2799  142.7739  156.8646 N   0  0  0  0  0  0  0  0  0  0  0  0
  151.2217  142.9754  157.9087 C   0  0  0  0  0  0  0  0  0  0  0  0
  151.6049  144.3195  158.1176 C   0  0  0  0  0  0  0  0  0  0  0  0
  152.5346  144.6255  159.1304 C   0  0  0  0  0  0  0  0  0  0  0  0
  153.0575  143.5782  159.9096 C   0  0  0  0  0  0  0  0  0  0  0  0
  152.6226  142.2682  159.6368 C   0  0  0  0  0  0  0  0  0  0  0  0
  151.7313  141.9727  158.6671 N   0  0  0  0  0  0  0  0  0  0  0  0
  148.4501  139.5484  154.6798 C   0  0  2  0  0  0  0  0  0  0  0  0
  149.6932  138.6282  154.7235 C   0  0  0  0  0  0  0  0  0  0  0  0
  149.3565  137.2199  155.2395 C   0  0  0  0  0  0  0  0  0  0  0  0
  148.2898  136.5963  154.4219 N   0  3  1  0  0  0  0  0  0  0  0  0
  148.0293  135.1929  154.8078 C   0  0  0  0  0  0  0  0  0  0  0  0
  147.0579  137.4195  154.4144 C   0  0  0  0  0  0  0  0  0  0  0  0
  147.3421  138.8315  153.8763 C   0  0  0  0  0  0  0  0  0  0  0  0
  147.3573  141.0319  152.4358 H   0  0  0  0  0  0  0  0  0  0  0  0
  147.8393  142.6053  153.0256 H   0  0  0  0  0  0  0  0  0  0  0  0
  146.6982  141.6387  153.9551 H   0  0  0  0  0  0  0  0  0  0  0  0
  149.5984  140.8592  153.4037 H   0  0  0  0  0  0  0  0  0  0  0  0
  148.6074  142.7307  155.2522 H   0  0  0  0  0  0  0  0  0  0  0  0
  149.6121  143.5191  156.7341 H   0  0  0  0  0  0  0  0  0  0  0  0
  151.1933  145.1121  157.5097 H   0  0  0  0  0  0  0  0  0  0  0  0
  152.8403  145.6465  159.3053 H   0  0  0  0  0  0  0  0  0  0  0  0
  153.7724  143.7734  160.6953 H   0  0  0  0  0  0  0  0  0  0  0  0
  152.9990  141.4354  160.2123 H   0  0  0  0  0  0  0  0  0  0  0  0
  148.0935  139.6731  155.7037 H   0  0  0  0  0  0  0  0  0  0  0  0
  150.1316  138.5551  153.7271 H   0  0  0  0  0  0  0  0  0  0  0  0
  150.4635  139.0521  155.3674 H   0  0  0  0  0  0  0  0  0  0  0  0
  150.2524  136.5983  155.2064 H   0  0  0  0  0  0  0  0  0  0  0  0
  149.0402  137.2665  156.2829 H   0  0  0  0  0  0  0  0  0  0  0  0
  147.6575  135.1310  155.8314 H   0  0  0  0  0  0  0  0  0  0  0  0
  148.9412  134.5992  154.7375 H   0  0  0  0  0  0  0  0  0  0  0  0
  147.2881  134.7433  154.1461 H   0  0  0  0  0  0  0  0  0  0  0  0
  146.3018  136.9396  153.7919 H   0  0  0  0  0  0  0  0  0  0  0  0
  146.6479  137.4765  155.4243 H   0  0  0  0  0  0  0  0  0  0  0  0
  146.4140  139.4015  153.9087 H   0  0  0  0  0  0  0  0  0  0  0  0
  147.6302  138.7691  152.8259 H   0  0  0  0  0  0  0  0  0  0  0  0
  148.6297  136.5745  153.4710 H   0  0  0  0  0  0  0  0  0  0  0  0
  1  2  1  0  0  0  0
  1 20  1  0  0  0  0
  1 21  1  0  0  0  0
  1 22  1  0  0  0  0
  2  3  1  0  0  0  0
  2 13  1  0  0  0  0
  2 23  1  0  0  0  0
  3  4  1  0  0  0  0
  3 24  1  0  0  0  0
  4  5  2  0  0  0  0
  4  6  1  0  0  0  0
  6  7  1  0  0  0  0
  6 25  1  0  0  0  0
  7 12  1  0  0  0  0
  7  8  2  0  0  0  0
  8  9  1  0  0  0  0
  8 26  1  0  0  0  0
  9 10  2  0  0  0  0
  9 27  1  0  0  0  0
 10 11  1  0  0  0  0
 10 28  1  0  0  0  0
 11 12  2  0  0  0  0
 11 29  1  0  0  0  0
 13 19  1  0  0  0  0
 13 14  1  0  0  0  0
 13 30  1  0  0  0  0
 14 15  1  0  0  0  0
 14 31  1  0  0  0  0
 14 32  1  0  0  0  0
 15 16  1  0  0  0  0
 15 33  1  0  0  0  0
 15 34  1  0  0  0  0
 16 17  1  0  0  0  0
 16 18  1  0  0  0  0
 16 42  1  0  0  0  0
 17 35  1  0  0  0  0
 17 36  1  0  0  0  0
 17 37  1  0  0  0  0
 18 19  1  0  0  0  0
 18 38  1  0  0  0  0
 18 39  1  0  0  0  0
 19 40  1  0  0  0  0
 19 41  1  0  0  0  0
M  CHG  1  16   1
M  END
> <s_m_source_file>
AV-unprocessed.smi

> <i_m_source_file_index>
745

> <i_lp_mmshare_version>
43012

> <i_f3d_flags>
0

> <s_epik_input>
W0NIMl0xW0NIMl1OKFtDSDNdKVtDSDJdW0NIMl1bQ0hdMVtDQEhdKFtDSDNdKVtOSF1DKD1PKVtOSF1jMltjSF1bY0hdW2NIXVtjSF1uMg==

> <s_epik_cmdline>
J2VwaWtfcHl0aG9uJywgJy1waCcsICc3LjAnLCAnLXRuJywgJzgnLCAnLW1hJywgJzIwMCcsICctbWV0YWxfYmluZGluZycsICctaW1hZScsICc8aW5maWxlLm1hZT4nLCAnLW9tYWUnLCAnPG91dGZpbGUubWFlPic=

> <r_epik_Ionization_Penalty>
0.0011087

> <r_epik_Ionization_Penalty_Charging>
0.00106265

> <r_epik_Ionization_Penalty_Neutral>
4.60506e-05

> <r_epik_State_Penalty>
0.000695551

> <r_epik_Charging_Adjusted_Penalty>
0.0017582

> <i_epik_Tot_Q>
1

> <i_epik_Tot_abs_Q>
1

> <r_epik_Metal_State_Penalty>
-0

> <b_epik_Metal_Only>
0

> <s_lp_Force_Field>
OPLS_2005

> <r_lp_Energy>
20.1287

> <b_lp_Chiralities_Consistent>
1

> <s_lp_Variant>
AV-unprocessed.smi:745-2

> <Gold.Version>
5.8.1

> <Gold.Id.Protein>
6NUR|6NUR_protein|mol2

> <Gold.PLP.Fitness>
44.2299

> <Gold.PLP.PLP>
-34.8882

> <Gold.PLP.part.hbond>
-3.0000

> <Gold.PLP.part.metal>
0.0000

> <Gold.PLP.part.buried>
-4.7800

> <Gold.PLP.part.nonpolar>
-27.4099

> <Gold.PLP.part.repulsive>
0.2292

> <Gold.PLP.ligand.clash>
0.0000

> <Gold.PLP.ligand.torsion>
1.0862

> <Gold.PLP.Chemscore.Hbond>
3.8320

> <Gold.PLP.Chemscore.CHOScore>
0.0000

> <Gold.PLP.Chemscore.Metal>
0.0000

> <Gold.Chemscore.Hbonds>
donor molecule, donor type, donor heavy atom, donor atom, acceptor molecule, acceptor atom, score
      L1  H     3    24       P1  8028  0.79
      L1  H     6    25       P1  8028  0.98
      L1  H    16    42       P1  7948  2.00

> <Gold.PLP.Chemscore.Internal.Correction>
0.0180

> <Gold.Rescore>
     Score         DG    S(hbond)    S(metal)    S(lipo)     H(rot)  DE(clash)    DE(int)     intcor
     17.54     -21.82       2.78        0.00      87.91       1.26       1.19       3.09       ----

> <Gold.Chemscore.Fitness>
17.5380

> <Gold.Chemscore.DG>
-21.8201

> <Gold.Chemscore.ZeroCoef>
-5.4800

> <Gold.Chemscore.Hbond>
2.7785

> <Gold.Chemscore.Metal>
0.0000

> <Gold.Chemscore.Lipo>
87.9140

> <Gold.Chemscore.Internal_Hbond>
0.0000

> <Gold.Chemscore.DEClash>
1.1897

> <Gold.Chemscore.DEInternal>
3.0924

> <Gold.Chemscore.Rot>
1.2601

> <Gold.Chemscore.Internal.Correction>
   9.000000E+99

> <Gold.Chemscore.Hbonds>
donor molecule, donor type, donor heavy atom, donor atom, acceptor molecule, acceptor atom, score
      L1  H     3    24       P1  8028  0.73
      L1  H     6    25       P1  8028  0.93
      L1  H    16    42       P1  7948  1.00

> <Gold.Chemscore.Hbond.Weighted>
-9.2801

> <Gold.Chemscore.Metal.Weighted>
-0.0000

> <Gold.Chemscore.Lipo.Weighted>
-10.2859

> <Gold.Chemscore.Internal_Hbond.Weighted>
0.0000

> <Gold.Chemscore.DEClash.Weighted>
1.1897

> <Gold.Chemscore.DEInternal.Weighted>
3.0924

> <Gold.Chemscore.Rot.Weighted>
3.2260

> <Gold.Chemscore.Internal.Correction.Weighted>
   9.000000E+99

> <Gold.Protein.RotatedTorsions>
[ 6907 6896 6895 6894 ] final -116.45 input  -60.11 | X-H torsion
[ 7974 7965 7964 7962 ] final -105.60 input  175.53 | X-H torsion
[ 8008 7997 7996 7995 ] final  -41.46 input   59.86 | X-H torsion
[ 10167 10162 10161 10158 ] final  153.34 input  -65.29 | X-H torsion
[ 10718 10713 10712 10709 ] final  131.24 input   66.30 | X-H torsion
[ 10763 10752 10751 10750 ] final   63.10 input  -60.55 | X-H torsion
[ 11005 11000 10999 10996 ] final  -81.29 input  -57.11 | X-H torsion

> <Gold.Protein.ActiveResidues>
 VAL166  LYS551  ARG553  GLY616  TRP617  ASP618  TYR619  PRO620  LYS621  CYS622 
 ASP623  PHE694  ASN695  SER759  ASP760  ASP761  ALA762  ILE779  LEU786  VAL792 
 PHE793  MET794  SER795  GLU796  ALA797  LYS798  CYS799  TRP800  GLU811  SER814 

> <Gold.Protein.RotatedAtoms>
  150.8057  133.8514  159.3206 H   0  0  0  0  0  0  0  0  0  0  0  0  # atno 6907 bound_to 6896
  151.6314  135.1021  160.0132 H   0  0  0  0  0  0  0  0  0  0  0  0  # atno 6908 bound_to 6896
  152.4148  133.6980  159.6464 H   0  0  0  0  0  0  0  0  0  0  0  0  # atno 6909 bound_to 6896
  145.2284  140.9161  143.3219 H   0  0  0  0  0  0  0  0  0  0  0  0  # atno 7974 bound_to 7965
  154.4004  140.1499  156.3194 H   0  0  0  0  0  0  0  0  0  0  0  0  # atno 8008 bound_to 7997
  155.8543  140.3456  155.5692 H   0  0  0  0  0  0  0  0  0  0  0  0  # atno 8009 bound_to 7997
  155.7950  140.0862  157.1979 H   0  0  0  0  0  0  0  0  0  0  0  0  # atno 8010 bound_to 7997
  139.4827  144.5281  151.7767 H   0  0  0  0  0  0  0  0  0  0  0  0  # atno 10167 bound_to 10162
  157.4986  131.1093  150.9458 H   0  0  0  0  0  0  0  0  0  0  0  0  # atno 10718 bound_to 10713
  153.0006  135.5441  154.6298 H   0  0  0  0  0  0  0  0  0  0  0  0  # atno 10763 bound_to 10752
  154.5579  135.2831  155.0950 H   0  0  0  0  0  0  0  0  0  0  0  0  # atno 10764 bound_to 10752
  154.2164  135.6458  153.5183 H   0  0  0  0  0  0  0  0  0  0  0  0  # atno 10765 bound_to 10752
  141.1667  133.7190  156.8401 H   0  0  0  0  0  0  0  0  0  0  0  0  # atno 11005 bound_to 11000
  144.9700  139.3890  143.6314 LP  0  0  0  0  0  0  0  0  0  0  0  0  # atno 17320 bound_to 7965
  146.3359  139.8793  142.8827 LP  0  0  0  0  0  0  0  0  0  0  0  0  # atno 17321 bound_to 7965
  140.4804  144.1458  150.5931 LP  0  0  0  0  0  0  0  0  0  0  0  0  # atno 17342 bound_to 10162
  140.4284  143.2579  151.9627 LP  0  0  0  0  0  0  0  0  0  0  0  0  # atno 17343 bound_to 10162
  157.0136  130.5646  149.5323 LP  0  0  0  0  0  0  0  0  0  0  0  0  # atno 17370 bound_to 10713
  156.0216  130.5310  150.8290 LP  0  0  0  0  0  0  0  0  0  0  0  0  # atno 17371 bound_to 10713
  140.1989  134.8911  157.3146 LP  0  0  0  0  0  0  0  0  0  0  0  0  # atno 17394 bound_to 11000
  140.2209  134.4025  155.7566 LP  0  0  0  0  0  0  0  0  0  0  0  0  # atno 17395 bound_to 11000

$$$$
