AV-unprocessed.smi:2453|AV-procd|sdf|9687|dock3
  -GOLD-   2272013323D 1   1.00000     0.00000
 Structure written by MMmdl.
 40 41  0  0  0  0  0  0  0  0  1 V2000
  150.4795  136.3762  154.9056 C   0  0  0  0  0  0  0  0  0  0  0  0
  150.6503  134.9490  155.3958 C   0  0  0  0  0  0  0  0  0  0  0  0
  151.5856  134.6615  156.4132 C   0  0  0  0  0  0  0  0  0  0  0  0
  151.7950  133.4238  156.9064 N   0  0  0  0  0  0  0  0  0  0  0  0
  151.0628  132.4121  156.3970 C   0  0  0  0  0  0  0  0  0  0  0  0
  150.1029  132.5848  155.3812 C   0  0  0  0  0  0  0  0  0  0  0  0
  149.8941  133.8818  154.8529 C   0  0  0  0  0  0  0  0  0  0  0  0
  148.9315  134.1677  153.8435 N   0  0  0  0  0  0  0  0  0  0  0  0
  147.8540  133.4510  153.4799 C   0  0  0  0  0  0  0  0  0  0  0  0
  147.5400  132.3538  153.9413 O   0  0  0  0  0  0  0  0  0  0  0  0
  147.1570  134.0829  152.5240 N   0  0  0  0  0  0  0  0  0  0  0  0
  145.9239  133.6034  151.8995 C   0  0  2  0  0  0  0  0  0  0  0  0
  146.2075  132.2435  151.2301 C   0  0  0  0  0  0  0  0  0  0  0  0
  144.9754  131.7031  150.4922 C   0  0  0  0  0  0  0  0  0  0  0  0
  144.4660  132.7208  149.4643 C   0  0  0  0  0  0  0  0  0  0  0  0
  144.1601  134.0697  150.1313 C   0  0  0  0  0  0  0  0  0  0  0  0
  145.3849  134.6428  150.8808 C   0  0  1  0  0  0  0  0  0  0  0  0
  145.0407  135.9921  151.5509 C   0  0  0  0  0  0  0  0  0  0  0  0
  146.2091  136.6406  152.0082 O   0  0  0  0  0  0  0  0  0  0  0  0
  151.1547  137.0576  155.4240 H   0  0  0  0  0  0  0  0  0  0  0  0
  149.4587  136.7180  155.0776 H   0  0  0  0  0  0  0  0  0  0  0  0
  150.6911  136.4397  153.8379 H   0  0  0  0  0  0  0  0  0  0  0  0
  152.1847  135.4480  156.8481 H   0  0  0  0  0  0  0  0  0  0  0  0
  151.2413  131.4338  156.8181 H   0  0  0  0  0  0  0  0  0  0  0  0
  149.5413  131.7282  155.0423 H   0  0  0  0  0  0  0  0  0  0  0  0
  149.1100  135.0021  153.3040 H   0  0  0  0  0  0  0  0  0  0  0  0
  147.4997  134.9781  152.2069 H   0  0  0  0  0  0  0  0  0  0  0  0
  145.1532  133.4479  152.6569 H   0  0  0  0  0  0  0  0  0  0  0  0
  147.0332  132.3434  150.5238 H   0  0  0  0  0  0  0  0  0  0  0  0
  146.5301  131.5196  151.9796 H   0  0  0  0  0  0  0  0  0  0  0  0
  145.2202  130.7634  149.9963 H   0  0  0  0  0  0  0  0  0  0  0  0
  144.1857  131.4785  151.2104 H   0  0  0  0  0  0  0  0  0  0  0  0
  145.2134  132.8595  148.6819 H   0  0  0  0  0  0  0  0  0  0  0  0
  143.5710  132.3373  148.9738 H   0  0  0  0  0  0  0  0  0  0  0  0
  143.8205  134.7724  149.3696 H   0  0  0  0  0  0  0  0  0  0  0  0
  143.3285  133.9476  150.8268 H   0  0  0  0  0  0  0  0  0  0  0  0
  146.1716  134.8248  150.1463 H   0  0  0  0  0  0  0  0  0  0  0  0
  144.5125  136.6453  150.8556 H   0  0  0  0  0  0  0  0  0  0  0  0
  144.3898  135.8527  152.4136 H   0  0  0  0  0  0  0  0  0  0  0  0
  146.9610  136.1624  151.6935 H   0  0  0  0  0  0  0  0  0  0  0  0
  1  2  1  0  0  0  0
  1 20  1  0  0  0  0
  1 21  1  0  0  0  0
  1 22  1  0  0  0  0
  2  7  1  0  0  0  0
  2  3  2  0  0  0  0
  3  4  1  0  0  0  0
  3 23  1  0  0  0  0
  4  5  2  0  0  0  0
  5  6  1  0  0  0  0
  5 24  1  0  0  0  0
  6  7  2  0  0  0  0
  6 25  1  0  0  0  0
  7  8  1  0  0  0  0
  8  9  1  0  0  0  0
  8 26  1  0  0  0  0
  9 10  2  0  0  0  0
  9 11  1  0  0  0  0
 11 12  1  0  0  0  0
 11 27  1  0  0  0  0
 12 17  1  0  0  0  0
 12 13  1  0  0  0  0
 12 28  1  0  0  0  0
 13 14  1  0  0  0  0
 13 29  1  0  0  0  0
 13 30  1  0  0  0  0
 14 15  1  0  0  0  0
 14 31  1  0  0  0  0
 14 32  1  0  0  0  0
 15 16  1  0  0  0  0
 15 33  1  0  0  0  0
 15 34  1  0  0  0  0
 16 17  1  0  0  0  0
 16 35  1  0  0  0  0
 16 36  1  0  0  0  0
 17 18  1  0  0  0  0
 17 37  1  0  0  0  0
 18 19  1  0  0  0  0
 18 38  1  0  0  0  0
 18 39  1  0  0  0  0
 19 40  1  0  0  0  0
M  END
> <s_m_source_file>
AV-unprocessed.smi

> <i_m_source_file_index>
2453

> <i_lp_mmshare_version>
43012

> <i_f3d_flags>
0

> <s_epik_input>
W0NIM11jMVtjSF1uW2NIXVtjSF1jMVtOSF1DKD1PKVtOSF1bQ0BASF0yW0NIMl1bQ0gyXVtDSDJdW0NIMl1bQ0BIXTJbQ0gyXVtPSF0=

> <s_epik_cmdline>
J2VwaWtfcHl0aG9uJywgJy1waCcsICc3LjAnLCAnLXRuJywgJzgnLCAnLW1hJywgJzIwMCcsICctbWV0YWxfYmluZGluZycsICctaW1hZScsICc8aW5maWxlLm1hZT4nLCAnLW9tYWUnLCAnPG91dGZpbGUubWFlPic=

> <r_epik_Ionization_Penalty>
0.210691

> <r_epik_Ionization_Penalty_Charging>
0

> <r_epik_Ionization_Penalty_Neutral>
0.210691

> <r_epik_State_Penalty>
0.200732

> <r_epik_Charging_Adjusted_Penalty>
0.200732

> <i_epik_Tot_Q>
0

> <i_epik_Tot_abs_Q>
0

> <r_epik_Metal_State_Penalty>
0.147519

> <b_epik_Metal_Only>
0

> <s_lp_Force_Field>
OPLS_2005

> <r_lp_Energy>
17.5687

> <b_lp_Chiralities_Consistent>
1

> <s_lp_Variant>
AV-unprocessed.smi:2453-1

> <Gold.Version>
5.8.1

> <Gold.Id.Protein>
6NUR|6NUR_protein|mol2

> <Gold.PLP.Fitness>
43.9736

> <Gold.PLP.PLP>
-34.9183

> <Gold.PLP.part.hbond>
-4.0000

> <Gold.PLP.part.metal>
0.0000

> <Gold.PLP.part.buried>
-3.6225

> <Gold.PLP.part.nonpolar>
-27.5212

> <Gold.PLP.part.repulsive>
0.0644

> <Gold.PLP.ligand.clash>
0.0000

> <Gold.PLP.ligand.torsion>
0.1490

> <Gold.PLP.Chemscore.Hbond>
3.1141

> <Gold.PLP.Chemscore.CHOScore>
0.0000

> <Gold.PLP.Chemscore.Metal>
0.0000

> <Gold.Chemscore.Hbonds>
donor molecule, donor type, donor heavy atom, donor atom, acceptor molecule, acceptor atom, score
      L1  H     8    26       P1  7948  0.85
      L1  H    11    27       P1  7948  1.00
      L1  H    19    40       P1  7948  0.80
      P1  H  6896  6908       L1     4  0.13

> <Gold.PLP.Chemscore.Internal.Correction>
0.0109

> <Gold.Rescore>
     Score         DG    S(hbond)    S(metal)    S(lipo)     H(rot)  DE(clash)    DE(int)     intcor
     15.04     -18.08       2.40        0.00      77.30       1.75       0.27       2.77       ----

> <Gold.Chemscore.Fitness>
15.0364

> <Gold.Chemscore.DG>
-18.0773

> <Gold.Chemscore.ZeroCoef>
-5.4800

> <Gold.Chemscore.Hbond>
2.4047

> <Gold.Chemscore.Metal>
0.0000

> <Gold.Chemscore.Lipo>
77.2968

> <Gold.Chemscore.Internal_Hbond>
0.0000

> <Gold.Chemscore.DEClash>
0.2740

> <Gold.Chemscore.DEInternal>
2.7669

> <Gold.Chemscore.Rot>
1.7493

> <Gold.Chemscore.Internal.Correction>
   9.000000E+99

> <Gold.Chemscore.Hbonds>
donor molecule, donor type, donor heavy atom, donor atom, acceptor molecule, acceptor atom, score
      L1  H     8    26       P1  7948  0.14
      L1  H    11    27       P1  7948  0.90
      L1  H    19    40       P1  7948  0.78
      P1  H  6896  6908       L1     4  0.07

> <Gold.Chemscore.Hbond.Weighted>
-8.0317

> <Gold.Chemscore.Metal.Weighted>
-0.0000

> <Gold.Chemscore.Lipo.Weighted>
-9.0437

> <Gold.Chemscore.Internal_Hbond.Weighted>
0.0000

> <Gold.Chemscore.DEClash.Weighted>
0.2740

> <Gold.Chemscore.DEInternal.Weighted>
2.7669

> <Gold.Chemscore.Rot.Weighted>
4.4782

> <Gold.Chemscore.Internal.Correction.Weighted>
   9.000000E+99

> <Gold.Protein.RotatedTorsions>
[ 6907 6896 6895 6894 ] final   65.01 input  -60.11 | X-H torsion
[ 7974 7965 7964 7962 ] final -159.99 input  175.53 | X-H torsion
[ 8008 7997 7996 7995 ] final  -90.01 input   59.86 | X-H torsion
[ 10167 10162 10161 10158 ] final   36.34 input  -65.29 | X-H torsion
[ 10718 10713 10712 10709 ] final  154.22 input   66.30 | X-H torsion
[ 10763 10752 10751 10750 ] final  143.30 input  -60.55 | X-H torsion
[ 11005 11000 10999 10996 ] final -174.41 input  -57.11 | X-H torsion

> <Gold.Protein.ActiveResidues>
 VAL166  LYS551  ARG553  GLY616  TRP617  ASP618  TYR619  PRO620  LYS621  CYS622 
 ASP623  PHE694  ASN695  SER759  ASP760  ASP761  ALA762  ILE779  LEU786  VAL792 
 PHE793  MET794  SER795  GLU796  ALA797  LYS798  CYS799  TRP800  GLU811  SER814 

> <Gold.Protein.RotatedAtoms>
  152.4375  134.5656  159.9906 H   0  0  0  0  0  0  0  0  0  0  0  0  # atno 6907 bound_to 6896
  151.5763  133.3377  159.3007 H   0  0  0  0  0  0  0  0  0  0  0  0  # atno 6908 bound_to 6896
  150.8276  134.7549  159.6890 H   0  0  0  0  0  0  0  0  0  0  0  0  # atno 6909 bound_to 6896
  144.7444  140.3606  143.6097 H   0  0  0  0  0  0  0  0  0  0  0  0  # atno 7974 bound_to 7965
  154.6934  140.0535  157.0386 H   0  0  0  0  0  0  0  0  0  0  0  0  # atno 8008 bound_to 7997
  155.0785  140.3207  155.4590 H   0  0  0  0  0  0  0  0  0  0  0  0  # atno 8009 bound_to 7997
  156.2736  140.2069  156.5913 H   0  0  0  0  0  0  0  0  0  0  0  0  # atno 8010 bound_to 7997
  140.4137  144.1557  150.6141 H   0  0  0  0  0  0  0  0  0  0  0  0  # atno 10167 bound_to 10162
  157.2344  131.0746  151.1832 H   0  0  0  0  0  0  0  0  0  0  0  0  # atno 10718 bound_to 10713
  153.9700  135.2951  155.3428 H   0  0  0  0  0  0  0  0  0  0  0  0  # atno 10763 bound_to 10752
  154.7327  135.5060  153.8994 H   0  0  0  0  0  0  0  0  0  0  0  0  # atno 10764 bound_to 10752
  153.0904  135.6706  153.9977 H   0  0  0  0  0  0  0  0  0  0  0  0  # atno 10765 bound_to 10752
  140.4748  134.6131  157.4896 H   0  0  0  0  0  0  0  0  0  0  0  0  # atno 11005 bound_to 11000
  145.7181  139.1702  143.2500 LP  0  0  0  0  0  0  0  0  0  0  0  0  # atno 17320 bound_to 7965
  146.1297  140.7201  142.9418 LP  0  0  0  0  0  0  0  0  0  0  0  0  # atno 17321 bound_to 7965
  140.4610  143.2449  151.9220 LP  0  0  0  0  0  0  0  0  0  0  0  0  # atno 17342 bound_to 10162
  139.4782  144.5467  151.8447 LP  0  0  0  0  0  0  0  0  0  0  0  0  # atno 17343 bound_to 10162
  157.3444  130.7050  149.6401 LP  0  0  0  0  0  0  0  0  0  0  0  0  # atno 17370 bound_to 10713
  155.9673  130.4270  150.4726 LP  0  0  0  0  0  0  0  0  0  0  0  0  # atno 17371 bound_to 10713
  139.9863  134.7057  155.9769 LP  0  0  0  0  0  0  0  0  0  0  0  0  # atno 17394 bound_to 11000
  141.1559  133.6543  156.4162 LP  0  0  0  0  0  0  0  0  0  0  0  0  # atno 17395 bound_to 11000

$$$$
