AV-unprocessed.smi:261|AV-procd|sdf|1991|dock3
  -GOLD-   2262021173D 1   1.00000     0.00000
 Structure written by MMmdl.
 51 54  0  0  0  0  0  0  0  0  1 V2000
  153.3428  142.2977  160.7851 C   0  0  0  0  0  0  0  0  0  0  0  0
  152.5139  142.6590  159.6928 O   0  0  0  0  0  0  0  0  0  0  0  0
  151.7438  141.5800  159.1827 C   0  0  1  0  0  0  0  0  0  0  0  0
  150.8644  141.9684  157.9951 C   0  0  0  0  0  0  0  0  0  0  0  0
  150.6482  140.6416  157.2507 C   0  0  1  0  0  0  0  0  0  0  0  0
  150.3338  140.8941  155.7628 C   0  0  0  0  0  0  0  0  0  0  0  0
  149.2936  141.6722  155.4461 N   0  0  0  0  0  0  0  0  0  0  0  0
  151.0421  140.3845  154.8976 O   0  0  0  0  0  0  0  0  0  0  0  0
  151.8850  139.8910  157.5092 N   0  0  0  0  0  0  0  0  0  0  0  0
  151.9833  138.5490  157.3013 C   0  0  0  0  0  0  0  0  0  0  0  0
  152.9310  137.8389  157.9697 N   0  0  0  0  0  0  0  0  0  0  0  0
  153.0446  136.5197  157.7930 C   0  0  0  0  0  0  0  0  0  0  0  0
  152.3213  135.7182  157.0102 N   0  0  0  0  0  0  0  0  0  0  0  0
  151.3630  136.4190  156.3404 C   0  0  0  0  0  0  0  0  0  0  0  0
  151.1249  137.8209  156.4252 C   0  0  0  0  0  0  0  0  0  0  0  0
  150.0524  138.1617  155.6071 N   0  0  0  0  0  0  0  0  0  0  0  0
  149.6886  137.0326  155.0631 C   0  0  0  0  0  0  0  0  0  0  0  0
  150.4212  135.9347  155.4509 N   0  0  0  0  0  0  0  0  0  0  0  0
  150.2313  134.5599  155.0219 C   0  0  0  0  0  0  0  0  0  0  0  0
  148.8349  134.0150  155.3817 C   0  0  2  0  0  0  0  0  0  0  0  0
  148.9552  132.6644  155.7870 O   0  0  0  0  0  0  0  0  0  0  0  0
  147.8539  134.0951  154.1973 C   0  0  1  0  0  0  0  0  0  0  0  0
  148.2177  133.2008  153.0116 C   0  0  0  0  0  0  0  0  0  0  0  0
  146.8816  133.0526  152.3203 C   0  0  0  0  0  0  0  0  0  0  0  0
  145.9194  132.9698  153.5024 C   0  0  0  0  0  0  0  0  0  0  0  0
  146.5617  133.6366  154.5871 O   0  0  0  0  0  0  0  0  0  0  0  0
  152.6505  140.5017  158.5903 C   0  0  0  0  0  0  0  0  0  0  0  0
  151.1302  141.1334  159.9677 H   0  0  0  0  0  0  0  0  0  0  0  0
  149.8073  140.1180  157.7087 H   0  0  0  0  0  0  0  0  0  0  0  0
  153.9190  143.1653  161.1067 H   0  0  0  0  0  0  0  0  0  0  0  0
  154.0470  141.5139  160.5037 H   0  0  0  0  0  0  0  0  0  0  0  0
  152.7565  141.9525  161.6371 H   0  0  0  0  0  0  0  0  0  0  0  0
  149.9257  142.4303  158.3025 H   0  0  0  0  0  0  0  0  0  0  0  0
  151.3984  142.6834  157.3660 H   0  0  0  0  0  0  0  0  0  0  0  0
  149.0726  141.8444  154.4761 H   0  0  0  0  0  0  0  0  0  0  0  0
  148.7316  142.0812  156.1782 H   0  0  0  0  0  0  0  0  0  0  0  0
  153.8259  136.0377  158.3620 H   0  0  0  0  0  0  0  0  0  0  0  0
  148.8687  136.9693  154.3625 H   0  0  0  0  0  0  0  0  0  0  0  0
  150.3860  134.5233  153.9430 H   0  0  0  0  0  0  0  0  0  0  0  0
  151.0111  133.9413  155.4683 H   0  0  0  0  0  0  0  0  0  0  0  0
  148.4304  134.5834  156.2204 H   0  0  0  0  0  0  0  0  0  0  0  0
  149.4203  132.6385  156.6092 H   0  0  0  0  0  0  0  0  0  0  0  0
  147.7534  135.1264  153.8544 H   0  0  0  0  0  0  0  0  0  0  0  0
  148.9839  133.6346  152.3687 H   0  0  0  0  0  0  0  0  0  0  0  0
  148.5699  132.2274  153.3563 H   0  0  0  0  0  0  0  0  0  0  0  0
  146.6695  133.9419  151.7253 H   0  0  0  0  0  0  0  0  0  0  0  0
  146.8293  132.1823  151.6657 H   0  0  0  0  0  0  0  0  0  0  0  0
  144.9534  133.4218  153.2761 H   0  0  0  0  0  0  0  0  0  0  0  0
  145.7484  131.9315  153.7880 H   0  0  0  0  0  0  0  0  0  0  0  0
  153.5524  140.9429  158.1640 H   0  0  0  0  0  0  0  0  0  0  0  0
  152.9519  139.7902  159.3605 H   0  0  0  0  0  0  0  0  0  0  0  0
  1  2  1  0  0  0  0
  1 30  1  0  0  0  0
  1 31  1  0  0  0  0
  1 32  1  0  0  0  0
  2  3  1  0  0  0  0
  3 28  1  0  0  0  0
  3 27  1  0  0  0  0
  3  4  1  0  0  0  0
  4  5  1  0  0  0  0
  4 33  1  0  0  0  0
  4 34  1  0  0  0  0
  5 29  1  0  0  0  0
  5  6  1  0  0  0  0
  5  9  1  0  0  0  0
  6  7  1  0  0  0  0
  6  8  2  0  0  0  0
  7 35  1  0  0  0  0
  7 36  1  0  0  0  0
  9 10  1  0  0  0  0
  9 27  1  0  0  0  0
 10 15  1  0  0  0  0
 10 11  2  0  0  0  0
 11 12  1  0  0  0  0
 12 13  2  0  0  0  0
 12 37  1  0  0  0  0
 13 14  1  0  0  0  0
 14 18  1  0  0  0  0
 14 15  2  0  0  0  0
 15 16  1  0  0  0  0
 16 17  2  0  0  0  0
 17 18  1  0  0  0  0
 17 38  1  0  0  0  0
 18 19  1  0  0  0  0
 19 20  1  0  0  0  0
 19 39  1  0  0  0  0
 19 40  1  0  0  0  0
 20 21  1  0  0  0  0
 20 22  1  0  0  0  0
 20 41  1  0  0  0  0
 21 42  1  0  0  0  0
 22 26  1  0  0  0  0
 22 23  1  0  0  0  0
 22 43  1  0  0  0  0
 23 24  1  0  0  0  0
 23 44  1  0  0  0  0
 23 45  1  0  0  0  0
 24 25  1  0  0  0  0
 24 46  1  0  0  0  0
 24 47  1  0  0  0  0
 25 26  1  0  0  0  0
 25 48  1  0  0  0  0
 25 49  1  0  0  0  0
 27 50  1  0  0  0  0
 27 51  1  0  0  0  0
M  END
> <s_m_source_file>
AV-unprocessed.smi

> <i_m_source_file_index>
261

> <i_lp_mmshare_version>
43012

> <i_f3d_flags>
0

> <s_epik_input>
W0NIM11PW0NASF0xW0NIMl1bQ0BASF0oQyg9TylbTkgyXSlOKFtDSDJdMSljKG5bY0hdbjIpYyhjMjMpbltjSF1uM1tDSDJdW0NASF0oW09IXSlbQ0BASF00W0NIMl1bQ0gyXVtDSDJdTzQ=

> <s_epik_cmdline>
J2VwaWtfcHl0aG9uJywgJy1waCcsICc3LjAnLCAnLXRuJywgJzgnLCAnLW1hJywgJzIwMCcsICctbWV0YWxfYmluZGluZycsICctaW1hZScsICc8aW5maWxlLm1hZT4nLCAnLW9tYWUnLCAnPG91dGZpbGUubWFlPic=

> <r_lp_tautomer_probability>
1

> <r_epik_Ionization_Penalty>
0.000713824

> <r_epik_Ionization_Penalty_Charging>
0

> <r_epik_Ionization_Penalty_Neutral>
0.000713824

> <r_epik_State_Penalty>
0.000402132

> <r_epik_Charging_Adjusted_Penalty>
0.000402132

> <i_epik_Tot_Q>
0

> <i_epik_Tot_abs_Q>
0

> <r_epik_Metal_State_Penalty>
-0

> <b_epik_Metal_Only>
0

> <s_lp_Force_Field>
OPLS_2005

> <r_lp_Energy>
46.441

> <b_lp_Chiralities_Consistent>
1

> <s_lp_Variant>
AV-unprocessed.smi:261-9

> <Gold.Version>
5.8.1

> <Gold.Id.Protein>
6NUR|6NUR_protein|mol2

> <Gold.PLP.Fitness>
43.8529

> <Gold.PLP.PLP>
-35.9045

> <Gold.PLP.part.hbond>
-2.6567

> <Gold.PLP.part.metal>
0.0000

> <Gold.PLP.part.buried>
-5.5898

> <Gold.PLP.part.nonpolar>
-27.5493

> <Gold.PLP.part.repulsive>
0.3198

> <Gold.PLP.ligand.clash>
0.0000

> <Gold.PLP.ligand.torsion>
0.7284

> <Gold.PLP.Chemscore.Hbond>
2.0000

> <Gold.PLP.Chemscore.CHOScore>
0.9930

> <Gold.PLP.Chemscore.Metal>
0.0000

> <Gold.Chemscore.Hbonds>
donor molecule, donor type, donor heavy atom, donor atom, acceptor molecule, acceptor atom, score
      P1  H  7989  7998       L1     8  1.00
      P1  H 10752 10763       L1    13  0.66
      L1  C    17    38       P1  7948  0.79

> <Gold.PLP.Chemscore.Internal.Correction>
0.4262

> <Gold.Rescore>
     Score         DG    S(hbond)    S(metal)    S(lipo)     H(rot)  DE(clash)    DE(int)     intcor
      5.02     -10.75       1.38        0.00      75.30       3.18       0.22       5.51       ----

> <Gold.Chemscore.Fitness>
5.0188

> <Gold.Chemscore.DG>
-10.7522

> <Gold.Chemscore.ZeroCoef>
-5.4800

> <Gold.Chemscore.Hbond>
1.3804

> <Gold.Chemscore.Metal>
0.0000

> <Gold.Chemscore.Lipo>
75.3015

> <Gold.Chemscore.Internal_Hbond>
0.0000

> <Gold.Chemscore.DEClash>
0.2242

> <Gold.Chemscore.DEInternal>
5.5093

> <Gold.Chemscore.Rot>
3.1831

> <Gold.Chemscore.Internal.Correction>
   9.000000E+99

> <Gold.Chemscore.Hbonds>
donor molecule, donor type, donor heavy atom, donor atom, acceptor molecule, acceptor atom, score
      P1  H  7989  7998       L1     8  0.97
      P1  H 10752 10763       L1    13  0.06

> <Gold.Chemscore.Hbond.Weighted>
-4.6106

> <Gold.Chemscore.Metal.Weighted>
-0.0000

> <Gold.Chemscore.Lipo.Weighted>
-8.8103

> <Gold.Chemscore.Internal_Hbond.Weighted>
0.0000

> <Gold.Chemscore.DEClash.Weighted>
0.2242

> <Gold.Chemscore.DEInternal.Weighted>
5.5093

> <Gold.Chemscore.Rot.Weighted>
8.1486

> <Gold.Chemscore.Internal.Correction.Weighted>
   9.000000E+99

> <Gold.Protein.RotatedTorsions>
[ 6907 6896 6895 6894 ] final  -47.12 input  -60.11 | X-H torsion
[ 7974 7965 7964 7962 ] final   86.73 input  175.53 | X-H torsion
[ 8008 7997 7996 7995 ] final   54.90 input   59.86 | X-H torsion
[ 10167 10162 10161 10158 ] final -163.83 input  -65.29 | X-H torsion
[ 10718 10713 10712 10709 ] final  129.50 input   66.30 | X-H torsion
[ 10763 10752 10751 10750 ] final  129.14 input  -60.55 | X-H torsion
[ 11005 11000 10999 10996 ] final  -82.37 input  -57.11 | X-H torsion

> <Gold.Protein.ActiveResidues>
 VAL166  LYS551  ARG553  GLY616  TRP617  ASP618  TYR619  PRO620  LYS621  CYS622 
 ASP623  PHE694  ASN695  SER759  ASP760  ASP761  ALA762  ILE779  LEU786  VAL792 
 PHE793  MET794  SER795  GLU796  ALA797  LYS798  CYS799  TRP800  GLU811  SER814 

> <Gold.Protein.RotatedAtoms>
  150.9041  134.8455  159.7380 H   0  0  0  0  0  0  0  0  0  0  0  0  # atno 6907 bound_to 6896
  152.4909  134.4458  159.9568 H   0  0  0  0  0  0  0  0  0  0  0  0  # atno 6908 bound_to 6896
  151.4506  133.3579  159.2830 H   0  0  0  0  0  0  0  0  0  0  0  0  # atno 6909 bound_to 6896
  145.5684  139.2311  143.2420 H   0  0  0  0  0  0  0  0  0  0  0  0  # atno 7974 bound_to 7965
  155.4923  140.3472  155.4357 H   0  0  0  0  0  0  0  0  0  0  0  0  # atno 8008 bound_to 7997
  156.0969  140.1425  156.9547 H   0  0  0  0  0  0  0  0  0  0  0  0  # atno 8009 bound_to 7997
  154.4669  140.0914  156.7021 H   0  0  0  0  0  0  0  0  0  0  0  0  # atno 8010 bound_to 7997
  139.6293  144.0470  152.2002 H   0  0  0  0  0  0  0  0  0  0  0  0  # atno 10167 bound_to 10162
  157.5148  131.1097  150.9240 H   0  0  0  0  0  0  0  0  0  0  0  0  # atno 10718 bound_to 10713
  153.7370  135.3230  155.3297 H   0  0  0  0  0  0  0  0  0  0  0  0  # atno 10763 bound_to 10752
  154.8307  135.4535  154.1065 H   0  0  0  0  0  0  0  0  0  0  0  0  # atno 10764 bound_to 10752
  153.2228  135.6950  153.8061 H   0  0  0  0  0  0  0  0  0  0  0  0  # atno 10765 bound_to 10752
  141.1663  133.7241  156.8561 H   0  0  0  0  0  0  0  0  0  0  0  0  # atno 11005 bound_to 11000
  146.1802  140.6510  142.9193 LP  0  0  0  0  0  0  0  0  0  0  0  0  # atno 17320 bound_to 7965
  144.7449  140.5042  143.6842 LP  0  0  0  0  0  0  0  0  0  0  0  0  # atno 17321 bound_to 7965
  140.0132  144.6208  150.7630 LP  0  0  0  0  0  0  0  0  0  0  0  0  # atno 17342 bound_to 10162
  140.7430  143.2839  151.3518 LP  0  0  0  0  0  0  0  0  0  0  0  0  # atno 17343 bound_to 10162
  156.9869  130.5548  149.5300 LP  0  0  0  0  0  0  0  0  0  0  0  0  # atno 17370 bound_to 10713
  156.0313  130.5404  150.8541 LP  0  0  0  0  0  0  0  0  0  0  0  0  # atno 17371 bound_to 10713
  140.1881  134.8985  157.3028 LP  0  0  0  0  0  0  0  0  0  0  0  0  # atno 17394 bound_to 11000
  140.2320  134.3897  155.7517 LP  0  0  0  0  0  0  0  0  0  0  0  0  # atno 17395 bound_to 11000

$$$$
