AV-unprocessed.smi:2237|AV-procd|sdf|9048|dock4
  -GOLD-   2272012253D 1   1.00000     0.00000
 Structure written by MMmdl.
 55 57  0  0  0  0  0  0  0  0  3 V2000
  153.7085  141.4419  159.9756 C   0  0  0  0  0  0  0  0  0  0  0  0
  152.8782  142.5485  159.3599 C   0  0  0  0  0  0  0  0  0  0  0  0
  152.9703  143.8724  159.8321 C   0  0  0  0  0  0  0  0  0  0  0  0
  152.1703  144.8524  159.2178 C   0  0  0  0  0  0  0  0  0  0  0  0
  151.3180  144.4711  158.1633 C   0  0  0  0  0  0  0  0  0  0  0  0
  151.2882  143.1209  157.7473 C   0  0  0  0  0  0  0  0  0  0  0  0
  150.3966  142.8387  156.6784 N   0  0  0  0  0  0  0  0  0  0  0  0
  150.1625  141.6557  156.0832 C   0  0  0  0  0  0  0  0  0  0  0  0
  150.7210  140.5938  156.3604 O   0  0  0  0  0  0  0  0  0  0  0  0
  149.2311  141.7690  155.1247 N   0  0  0  0  0  0  0  0  0  0  0  0
  148.7453  140.6699  154.2955 C   0  0  2  0  0  0  0  0  0  0  0  0
  147.4093  141.0326  153.6298 C   0  0  0  0  0  0  0  0  0  0  0  0
  146.8545  139.8450  152.8284 C   0  0  0  0  0  0  0  0  0  0  0  0
  146.6669  138.6360  153.6829 N   0  3  1  0  0  0  0  0  0  0  0  0
  145.9646  137.5271  152.9511 C   0  0  2  0  0  0  0  0  0  0  0  0
  144.4323  137.7422  152.8973 C   0  0  0  0  0  0  0  0  0  0  0  0
  143.7691  137.5290  154.2710 C   0  0  0  0  0  0  0  0  0  0  0  0
  144.0534  136.1714  154.7977 N   0  3  2  0  0  0  0  0  0  0  0  0
  143.3525  135.9022  156.0719 C   0  0  0  0  0  0  0  0  0  0  0  0
  145.5091  135.8993  154.8853 C   0  0  0  0  0  0  0  0  0  0  0  0
  146.1937  136.1037  153.5201 C   0  0  0  0  0  0  0  0  0  0  0  0
  147.9584  138.2555  154.3278 C   0  0  0  0  0  0  0  0  0  0  0  0
  148.5506  139.4126  155.1512 C   0  0  0  0  0  0  0  0  0  0  0  0
  152.0634  142.1831  158.3468 N   0  0  0  0  0  0  0  0  0  0  0  0
  154.1755  141.7693  160.9048 H   0  0  0  0  0  0  0  0  0  0  0  0
  154.4952  141.1336  159.2867 H   0  0  0  0  0  0  0  0  0  0  0  0
  153.0854  140.5748  160.1968 H   0  0  0  0  0  0  0  0  0  0  0  0
  153.6346  144.1323  160.6432 H   0  0  0  0  0  0  0  0  0  0  0  0
  152.2086  145.8796  159.5492 H   0  0  0  0  0  0  0  0  0  0  0  0
  150.6964  145.2117  157.6814 H   0  0  0  0  0  0  0  0  0  0  0  0
  149.8723  143.6286  156.3327 H   0  0  0  0  0  0  0  0  0  0  0  0
  148.8251  142.6792  154.9633 H   0  0  0  0  0  0  0  0  0  0  0  0
  149.4842  140.4487  153.5225 H   0  0  0  0  0  0  0  0  0  0  0  0
  146.6828  141.3341  154.3860 H   0  0  0  0  0  0  0  0  0  0  0  0
  147.5397  141.8898  152.9680 H   0  0  0  0  0  0  0  0  0  0  0  0
  145.9171  140.1594  152.3746 H   0  0  0  0  0  0  0  0  0  0  0  0
  147.5306  139.6068  152.0055 H   0  0  0  0  0  0  0  0  0  0  0  0
  146.3517  137.5276  151.9307 H   0  0  0  0  0  0  0  0  0  0  0  0
  144.1634  138.7210  152.5052 H   0  0  0  0  0  0  0  0  0  0  0  0
  144.0024  137.0300  152.1912 H   0  0  0  0  0  0  0  0  0  0  0  0
  144.1169  138.2808  154.9813 H   0  0  0  0  0  0  0  0  0  0  0  0
  142.6902  137.6597  154.1765 H   0  0  0  0  0  0  0  0  0  0  0  0
  143.6994  136.5725  156.8595 H   0  0  0  0  0  0  0  0  0  0  0  0
  143.5237  134.8752  156.3963 H   0  0  0  0  0  0  0  0  0  0  0  0
  142.2767  136.0380  155.9562 H   0  0  0  0  0  0  0  0  0  0  0  0
  145.9563  136.5466  155.6407 H   0  0  0  0  0  0  0  0  0  0  0  0
  145.6641  134.8722  155.2183 H   0  0  0  0  0  0  0  0  0  0  0  0
  145.7711  135.3820  152.8191 H   0  0  0  0  0  0  0  0  0  0  0  0
  147.2503  135.8422  153.5664 H   0  0  0  0  0  0  0  0  0  0  0  0
  147.8239  137.4252  155.0180 H   0  0  0  0  0  0  0  0  0  0  0  0
  148.6676  137.9304  153.5648 H   0  0  0  0  0  0  0  0  0  0  0  0
  149.5039  139.1047  155.5827 H   0  0  0  0  0  0  0  0  0  0  0  0
  147.8894  139.6337  155.9907 H   0  0  0  0  0  0  0  0  0  0  0  0
  146.0553  138.9085  154.4389 H   0  0  0  0  0  0  0  0  0  0  0  0
  143.6784  135.5175  154.1247 H   0  0  0  0  0  0  0  0  0  0  0  0
  1  2  1  0  0  0  0
  1 25  1  0  0  0  0
  1 26  1  0  0  0  0
  1 27  1  0  0  0  0
  2 24  1  0  0  0  0
  2  3  2  0  0  0  0
  3  4  1  0  0  0  0
  3 28  1  0  0  0  0
  4  5  2  0  0  0  0
  4 29  1  0  0  0  0
  5  6  1  0  0  0  0
  5 30  1  0  0  0  0
  6  7  1  0  0  0  0
  6 24  2  0  0  0  0
  7  8  1  0  0  0  0
  7 31  1  0  0  0  0
  8  9  2  0  0  0  0
  8 10  1  0  0  0  0
 10 11  1  0  0  0  0
 10 32  1  0  0  0  0
 11 23  1  0  0  0  0
 11 12  1  0  0  0  0
 11 33  1  0  0  0  0
 12 13  1  0  0  0  0
 12 34  1  0  0  0  0
 12 35  1  0  0  0  0
 13 14  1  0  0  0  0
 13 36  1  0  0  0  0
 13 37  1  0  0  0  0
 14 15  1  0  0  0  0
 14 22  1  0  0  0  0
 14 54  1  0  0  0  0
 15 21  1  0  0  0  0
 15 16  1  0  0  0  0
 15 38  1  0  0  0  0
 16 17  1  0  0  0  0
 16 39  1  0  0  0  0
 16 40  1  0  0  0  0
 17 18  1  0  0  0  0
 17 41  1  0  0  0  0
 17 42  1  0  0  0  0
 18 19  1  0  0  0  0
 18 20  1  0  0  0  0
 18 55  1  0  0  0  0
 19 43  1  0  0  0  0
 19 44  1  0  0  0  0
 19 45  1  0  0  0  0
 20 21  1  0  0  0  0
 20 46  1  0  0  0  0
 20 47  1  0  0  0  0
 21 48  1  0  0  0  0
 21 49  1  0  0  0  0
 22 23  1  0  0  0  0
 22 50  1  0  0  0  0
 22 51  1  0  0  0  0
 23 52  1  0  0  0  0
 23 53  1  0  0  0  0
M  CHG  1  14   1
M  CHG  1  18   1
M  END
> <s_m_source_file>
AV-unprocessed.smi

> <i_m_source_file_index>
2237

> <i_lp_mmshare_version>
43012

> <i_f3d_flags>
0

> <s_epik_input>
W0NIM11jMVtjSF1bY0hdW2NIXWMobjEpW05IXUMoPU8pW05IXVtDSF0yW0NIMl1bQ0gyXU4oW0NIMl1bQ0gyXTIpW0NIXTNbQ0gyXVtDSDJdTihbQ0gzXSlbQ0gyXVtDSDJdMw==

> <s_epik_cmdline>
J2VwaWtfcHl0aG9uJywgJy1waCcsICc3LjAnLCAnLXRuJywgJzgnLCAnLW1hJywgJzIwMCcsICctbWV0YWxfYmluZGluZycsICctaW1hZScsICc8aW5maWxlLm1hZT4nLCAnLW9tYWUnLCAnPG91dGZpbGUubWFlPic=

> <r_epik_Ionization_Penalty>
0.180851

> <r_epik_Ionization_Penalty_Charging>
0.180787

> <r_epik_Ionization_Penalty_Neutral>
6.38624e-05

> <r_epik_State_Penalty>
0.153592

> <r_epik_Charging_Adjusted_Penalty>
0.334379

> <i_epik_Tot_Q>
2

> <i_epik_Tot_abs_Q>
2

> <r_epik_Metal_State_Penalty>
0.153595

> <b_epik_Metal_Only>
0

> <s_lp_Force_Field>
OPLS_2005

> <r_lp_Energy>
45.5508

> <b_lp_Chiralities_Consistent>
1

> <s_lp_Variant>
AV-unprocessed.smi:2237-3

> <Gold.Version>
5.8.1

> <Gold.Id.Protein>
6NUR|6NUR_protein|mol2

> <Gold.PLP.Fitness>
41.2458

> <Gold.PLP.PLP>
-37.9129

> <Gold.PLP.part.hbond>
-2.0000

> <Gold.PLP.part.metal>
0.0000

> <Gold.PLP.part.buried>
-2.1287

> <Gold.PLP.part.nonpolar>
-34.7825

> <Gold.PLP.part.repulsive>
0.2580

> <Gold.PLP.ligand.clash>
0.0000

> <Gold.PLP.ligand.torsion>
0.7979

> <Gold.PLP.Chemscore.Hbond>
1.6318

> <Gold.PLP.Chemscore.CHOScore>
0.0000

> <Gold.PLP.Chemscore.Metal>
0.0000

> <Gold.Chemscore.Hbonds>
donor molecule, donor type, donor heavy atom, donor atom, acceptor molecule, acceptor atom, score
      L1  H     7    31       P1  8028  1.00
      L1  H    10    32       P1  8028  0.62

> <Gold.PLP.Chemscore.Internal.Correction>
0.0333

> <Gold.Rescore>
     Score         DG    S(hbond)    S(metal)    S(lipo)     H(rot)  DE(clash)    DE(int)     intcor
     15.96     -21.26       1.88        0.00     108.16       1.23       1.87       3.42       ----

> <Gold.Chemscore.Fitness>
15.9605

> <Gold.Chemscore.DG>
-21.2555

> <Gold.Chemscore.ZeroCoef>
-5.4800

> <Gold.Chemscore.Hbond>
1.8767

> <Gold.Chemscore.Metal>
0.0000

> <Gold.Chemscore.Lipo>
108.1600

> <Gold.Chemscore.Internal_Hbond>
0.0000

> <Gold.Chemscore.DEClash>
1.8702

> <Gold.Chemscore.DEInternal>
3.4248

> <Gold.Chemscore.Rot>
1.2295

> <Gold.Chemscore.Internal.Correction>
   9.000000E+99

> <Gold.Chemscore.Hbonds>
donor molecule, donor type, donor heavy atom, donor atom, acceptor molecule, acceptor atom, score
      L1  H     7    31       P1  8028  0.99
      L1  H    10    32       P1  8028  0.60

> <Gold.Chemscore.Hbond.Weighted>
-6.2682

> <Gold.Chemscore.Metal.Weighted>
-0.0000

> <Gold.Chemscore.Lipo.Weighted>
-12.6547

> <Gold.Chemscore.Internal_Hbond.Weighted>
0.0000

> <Gold.Chemscore.DEClash.Weighted>
1.8702

> <Gold.Chemscore.DEInternal.Weighted>
3.4248

> <Gold.Chemscore.Rot.Weighted>
3.1474

> <Gold.Chemscore.Internal.Correction.Weighted>
   9.000000E+99

> <Gold.Protein.RotatedTorsions>
[ 6907 6896 6895 6894 ] final  -10.55 input  -60.11 | X-H torsion
[ 7974 7965 7964 7962 ] final   80.18 input  175.53 | X-H torsion
[ 8008 7997 7996 7995 ] final  117.73 input   59.86 | X-H torsion
[ 10167 10162 10161 10158 ] final -100.72 input  -65.29 | X-H torsion
[ 10718 10713 10712 10709 ] final -105.99 input   66.30 | X-H torsion
[ 10763 10752 10751 10750 ] final   45.46 input  -60.55 | X-H torsion
[ 11005 11000 10999 10996 ] final   17.38 input  -57.11 | X-H torsion

> <Gold.Protein.ActiveResidues>
 VAL166  LYS551  ARG553  GLY616  TRP617  ASP618  TYR619  PRO620  LYS621  CYS622 
 ASP623  PHE694  ASN695  SER759  ASP760  ASP761  ALA762  ILE779  LEU786  VAL792 
 PHE793  MET794  SER795  GLU796  ALA797  LYS798  CYS799  TRP800  GLU811  SER814 

> <Gold.Protein.RotatedAtoms>
  151.4002  135.0970  159.9553 H   0  0  0  0  0  0  0  0  0  0  0  0  # atno 6907 bound_to 6896
  152.5052  133.8895  159.7397 H   0  0  0  0  0  0  0  0  0  0  0  0  # atno 6908 bound_to 6896
  150.9368  133.6647  159.2827 H   0  0  0  0  0  0  0  0  0  0  0  0  # atno 6909 bound_to 6896
  145.6546  139.2456  143.1957 H   0  0  0  0  0  0  0  0  0  0  0  0  # atno 7974 bound_to 7965
  156.2510  140.2890  156.0724 H   0  0  0  0  0  0  0  0  0  0  0  0  # atno 8008 bound_to 7997
  155.1656  140.0400  157.2869 H   0  0  0  0  0  0  0  0  0  0  0  0  # atno 8009 bound_to 7997
  154.6362  140.2511  155.7382 H   0  0  0  0  0  0  0  0  0  0  0  0  # atno 8010 bound_to 7997
  140.2489  143.3486  152.0733 H   0  0  0  0  0  0  0  0  0  0  0  0  # atno 10167 bound_to 10162
  156.0370  130.5590  150.7617 H   0  0  0  0  0  0  0  0  0  0  0  0  # atno 10718 bound_to 10713
  152.9824  135.6039  154.3440 H   0  0  0  0  0  0  0  0  0  0  0  0  # atno 10763 bound_to 10752
  154.3135  135.2771  155.2556 H   0  0  0  0  0  0  0  0  0  0  0  0  # atno 10764 bound_to 10752
  154.4755  135.5930  153.6408 H   0  0  0  0  0  0  0  0  0  0  0  0  # atno 10765 bound_to 10752
  140.4366  134.1365  155.7686 H   0  0  0  0  0  0  0  0  0  0  0  0  # atno 11005 bound_to 11000
  146.1176  140.7350  142.9473 LP  0  0  0  0  0  0  0  0  0  0  0  0  # atno 17320 bound_to 7965
  144.7110  140.4039  143.7080 LP  0  0  0  0  0  0  0  0  0  0  0  0  # atno 17321 bound_to 7965
  139.5052  144.6791  151.6054 LP  0  0  0  0  0  0  0  0  0  0  0  0  # atno 17342 bound_to 10162
  140.6056  143.9531  150.6416 LP  0  0  0  0  0  0  0  0  0  0  0  0  # atno 17343 bound_to 10162
  157.5134  131.0927  151.0169 LP  0  0  0  0  0  0  0  0  0  0  0  0  # atno 17370 bound_to 10713
  157.0518  130.5790  149.5371 LP  0  0  0  0  0  0  0  0  0  0  0  0  # atno 17371 bound_to 10713
  141.1723  133.8583  157.1531 LP  0  0  0  0  0  0  0  0  0  0  0  0  # atno 17394 bound_to 11000
  140.0098  134.9993  157.0371 LP  0  0  0  0  0  0  0  0  0  0  0  0  # atno 17395 bound_to 11000

$$$$
