AV-unprocessed.smi:883|AV-procd|sdf|4040|dock2
  -GOLD-   22720 1533D 1   1.00000     0.00000
 Structure written by MMmdl.
 29 31  0  0  0  0  0  0  0  0  1 V2000
  151.9805  132.5315  157.5259 N   0  0  0  0  0  0  0  0  0  0  0  0
  151.2691  132.4857  156.6146 C   0  0  0  0  0  0  0  0  0  0  0  0
  150.3758  132.4287  155.4704 C   0  0  0  0  0  0  0  0  0  0  0  0
  149.8353  133.6058  154.9165 C   0  0  0  0  0  0  0  0  0  0  0  0
  148.9696  133.4989  153.8103 C   0  0  0  0  0  0  0  0  0  0  0  0
  148.6754  132.2183  153.2964 C   0  0  0  0  0  0  0  0  0  0  0  0
  147.8118  132.1206  152.1962 N   0  0  0  0  0  0  0  0  0  0  0  0
  146.8128  133.1490  151.9212 C   0  0  2  0  0  0  0  0  0  0  0  0
  145.4927  132.9154  152.6598 C   0  0  0  0  0  0  0  0  0  0  0  0
  144.4747  132.9722  151.5120 C   0  0  2  0  0  0  0  0  0  0  0  0
  144.5134  131.6962  150.6616 C   0  0  0  0  0  0  0  0  0  0  0  0
  145.8306  131.8662  149.9074 C   0  0  0  0  0  0  0  0  0  0  0  0
  146.3402  133.2107  150.4545 C   0  0  1  0  0  0  0  0  0  0  0  0
  145.1070  133.8870  150.6323 O   0  0  0  0  0  0  0  0  0  0  0  0
  149.1991  131.0864  153.8251 N   0  0  0  0  0  0  0  0  0  0  0  0
  150.0271  131.1941  154.8866 C   0  0  0  0  0  0  0  0  0  0  0  0
  150.0746  134.5758  155.3286 H   0  0  0  0  0  0  0  0  0  0  0  0
  148.5400  134.3863  153.3687 H   0  0  0  0  0  0  0  0  0  0  0  0
  147.9962  131.4287  151.4844 H   0  0  0  0  0  0  0  0  0  0  0  0
  147.2068  134.1223  152.2175 H   0  0  0  0  0  0  0  0  0  0  0  0
  145.4489  131.9662  153.1959 H   0  0  0  0  0  0  0  0  0  0  0  0
  145.3157  133.7167  153.3781 H   0  0  0  0  0  0  0  0  0  0  0  0
  143.4719  133.2653  151.8234 H   0  0  0  0  0  0  0  0  0  0  0  0
  144.4848  130.7907  151.2682 H   0  0  0  0  0  0  0  0  0  0  0  0
  143.6752  131.6675  149.9643 H   0  0  0  0  0  0  0  0  0  0  0  0
  146.5270  131.0441  150.0734 H   0  0  0  0  0  0  0  0  0  0  0  0
  145.6452  131.9360  148.8349 H   0  0  0  0  0  0  0  0  0  0  0  0
  147.0328  133.7229  149.7861 H   0  0  0  0  0  0  0  0  0  0  0  0
  150.4181  130.2657  155.2775 H   0  0  0  0  0  0  0  0  0  0  0  0
  1  2  3  0  0  0  0
  2  3  1  0  0  0  0
  3 16  1  0  0  0  0
  3  4  2  0  0  0  0
  4  5  1  0  0  0  0
  4 17  1  0  0  0  0
  5  6  2  0  0  0  0
  5 18  1  0  0  0  0
  6  7  1  0  0  0  0
  6 15  1  0  0  0  0
  7  8  1  0  0  0  0
  7 19  1  0  0  0  0
  8 13  1  0  0  0  0
  8  9  1  0  0  0  0
  8 20  1  0  0  0  0
  9 10  1  0  0  0  0
  9 21  1  0  0  0  0
  9 22  1  0  0  0  0
 10 14  1  0  0  0  0
 10 11  1  0  0  0  0
 10 23  1  0  0  0  0
 11 12  1  0  0  0  0
 11 24  1  0  0  0  0
 11 25  1  0  0  0  0
 12 13  1  0  0  0  0
 12 26  1  0  0  0  0
 12 27  1  0  0  0  0
 13 14  1  0  0  0  0
 13 28  1  0  0  0  0
 15 16  2  0  0  0  0
 16 29  1  0  0  0  0
M  END
> <s_m_source_file>
AV-unprocessed.smi

> <i_m_source_file_index>
883

> <i_lp_mmshare_version>
43012

> <i_f3d_flags>
0

> <s_epik_input>
TiNDYzFbY0hdW2NIXWMobltjSF0xKVtOSF1bQ0BIXShbQ0gyXVtDQEBIXTIzKVtDQEBIXShPMylbQ0gyXVtDSDJdMg==

> <s_epik_cmdline>
J2VwaWtfcHl0aG9uJywgJy1waCcsICc3LjAnLCAnLXRuJywgJzgnLCAnLW1hJywgJzIwMCcsICctbWV0YWxfYmluZGluZycsICctaW1hZScsICc8aW5maWxlLm1hZT4nLCAnLW9tYWUnLCAnPG91dGZpbGUubWFlPic=

> <r_lp_tautomer_probability>
1

> <r_epik_Ionization_Penalty>
1.50983e-05

> <r_epik_Ionization_Penalty_Charging>
0

> <r_epik_Ionization_Penalty_Neutral>
1.50983e-05

> <r_epik_State_Penalty>
-0

> <r_epik_Charging_Adjusted_Penalty>
0

> <i_epik_Tot_Q>
0

> <i_epik_Tot_abs_Q>
0

> <r_epik_Metal_State_Penalty>
-0

> <b_epik_Metal_Only>
0

> <s_lp_Force_Field>
OPLS_2005

> <r_lp_Energy>
39.3985

> <b_lp_Chiralities_Consistent>
1

> <s_lp_Variant>
AV-unprocessed.smi:883-3

> <Gold.Version>
5.8.1

> <Gold.Id.Protein>
6NUR|6NUR_protein|mol2

> <Gold.PLP.Fitness>
37.5717

> <Gold.PLP.PLP>
-32.5544

> <Gold.PLP.part.hbond>
-2.0000

> <Gold.PLP.part.metal>
0.0000

> <Gold.PLP.part.buried>
-5.2155

> <Gold.PLP.part.nonpolar>
-25.9536

> <Gold.PLP.part.repulsive>
0.2302

> <Gold.PLP.ligand.clash>
0.0000

> <Gold.PLP.ligand.torsion>
0.4839

> <Gold.PLP.Chemscore.Hbond>
1.9920

> <Gold.PLP.Chemscore.CHOScore>
0.0000

> <Gold.PLP.Chemscore.Metal>
0.0000

> <Gold.Chemscore.Hbonds>
donor molecule, donor type, donor heavy atom, donor atom, acceptor molecule, acceptor atom, score
      L1  H     7    19       P1 10747  0.98
      P1  H  6896  6907       L1     1  0.99

> <Gold.PLP.Chemscore.Internal.Correction>
0.0091

> <Gold.Rescore>
     Score         DG    S(hbond)    S(metal)    S(lipo)     H(rot)  DE(clash)    DE(int)     intcor
     16.95     -17.40       1.97        0.00      67.37       1.00       0.04       0.42       ----

> <Gold.Chemscore.Fitness>
16.9453

> <Gold.Chemscore.DG>
-17.3978

> <Gold.Chemscore.ZeroCoef>
-5.4800

> <Gold.Chemscore.Hbond>
1.9749

> <Gold.Chemscore.Metal>
0.0000

> <Gold.Chemscore.Lipo>
67.3657

> <Gold.Chemscore.Internal_Hbond>
0.0000

> <Gold.Chemscore.DEClash>
0.0353

> <Gold.Chemscore.DEInternal>
0.4172

> <Gold.Chemscore.Rot>
1.0000

> <Gold.Chemscore.Internal.Correction>
   9.000000E+99

> <Gold.Chemscore.Hbonds>
donor molecule, donor type, donor heavy atom, donor atom, acceptor molecule, acceptor atom, score
      L1  H     7    19       P1 10747  0.93
      P1  H  6896  6907       L1     1  0.94

> <Gold.Chemscore.Hbond.Weighted>
-6.5960

> <Gold.Chemscore.Metal.Weighted>
-0.0000

> <Gold.Chemscore.Lipo.Weighted>
-7.8818

> <Gold.Chemscore.Internal_Hbond.Weighted>
0.0000

> <Gold.Chemscore.DEClash.Weighted>
0.0353

> <Gold.Chemscore.DEInternal.Weighted>
0.4172

> <Gold.Chemscore.Rot.Weighted>
2.5600

> <Gold.Chemscore.Internal.Correction.Weighted>
   9.000000E+99

> <Gold.Protein.RotatedTorsions>
[ 6907 6896 6895 6894 ] final  168.92 input  -60.11 | X-H torsion
[ 7974 7965 7964 7962 ] final   82.55 input  175.53 | X-H torsion
[ 8008 7997 7996 7995 ] final -160.31 input   59.86 | X-H torsion
[ 10167 10162 10161 10158 ] final  -75.09 input  -65.29 | X-H torsion
[ 10718 10713 10712 10709 ] final  103.46 input   66.30 | X-H torsion
[ 10763 10752 10751 10750 ] final -145.31 input  -60.55 | X-H torsion
[ 11005 11000 10999 10996 ] final   75.98 input  -57.11 | X-H torsion

> <Gold.Protein.ActiveResidues>
 VAL166  LYS551  ARG553  GLY616  TRP617  ASP618  TYR619  PRO620  LYS621  CYS622 
 ASP623  PHE694  ASN695  SER759  ASP760  ASP761  ALA762  ILE779  LEU786  VAL792 
 PHE793  MET794  SER795  GLU796  ALA797  LYS798  CYS799  TRP800  GLU811  SER814 

> <Gold.Protein.RotatedAtoms>
  151.8401  133.3422  159.3640 H   0  0  0  0  0  0  0  0  0  0  0  0  # atno 6907 bound_to 6896
  150.7237  134.5399  159.5751 H   0  0  0  0  0  0  0  0  0  0  0  0  # atno 6908 bound_to 6896
  152.2871  134.7764  160.0436 H   0  0  0  0  0  0  0  0  0  0  0  0  # atno 6909 bound_to 6896
  145.6236  139.2390  143.2124 H   0  0  0  0  0  0  0  0  0  0  0  0  # atno 7974 bound_to 7965
  155.7756  140.0858  157.2086 H   0  0  0  0  0  0  0  0  0  0  0  0  # atno 8008 bound_to 7997
  154.3993  140.1517  156.3049 H   0  0  0  0  0  0  0  0  0  0  0  0  # atno 8009 bound_to 7997
  155.8704  140.3426  155.5820 H   0  0  0  0  0  0  0  0  0  0  0  0  # atno 8010 bound_to 7997
  140.4972  143.2368  151.7812 H   0  0  0  0  0  0  0  0  0  0  0  0  # atno 10167 bound_to 10162
  157.6771  131.0779  150.5559 H   0  0  0  0  0  0  0  0  0  0  0  0  # atno 10718 bound_to 10713
  154.8389  135.3416  154.6484 H   0  0  0  0  0  0  0  0  0  0  0  0  # atno 10763 bound_to 10752
  153.7097  135.6964  153.5045 H   0  0  0  0  0  0  0  0  0  0  0  0  # atno 10764 bound_to 10752
  153.2461  135.4368  155.0703 H   0  0  0  0  0  0  0  0  0  0  0  0  # atno 10765 bound_to 10752
  139.9319  134.7562  156.1338 H   0  0  0  0  0  0  0  0  0  0  0  0  # atno 11005 bound_to 11000
  146.1412  140.7055  142.9366 LP  0  0  0  0  0  0  0  0  0  0  0  0  # atno 17320 bound_to 7965
  144.7221  140.4408  143.7000 LP  0  0  0  0  0  0  0  0  0  0  0  0  # atno 17321 bound_to 7965
  139.4864  144.4571  151.9585 LP  0  0  0  0  0  0  0  0  0  0  0  0  # atno 17342 bound_to 10162
  140.3659  144.2915  150.5926 LP  0  0  0  0  0  0  0  0  0  0  0  0  # atno 17343 bound_to 10162
  156.5863  130.4317  149.5956 LP  0  0  0  0  0  0  0  0  0  0  0  0  # atno 17370 bound_to 10713
  156.2620  130.6968  151.1739 LP  0  0  0  0  0  0  0  0  0  0  0  0  # atno 17371 bound_to 10713
  141.0912  133.6713  156.2545 LP  0  0  0  0  0  0  0  0  0  0  0  0  # atno 17394 bound_to 11000
  140.6179  134.5392  157.5543 LP  0  0  0  0  0  0  0  0  0  0  0  0  # atno 17395 bound_to 11000

$$$$
