AV-unprocessed.smi:2156|AV-procd|sdf|8780|dock1
  -GOLD-   2272011563D 1   1.00000     0.00000
 Structure written by MMmdl.
 34 34  0  0  0  0  0  0  0  0  1 V2000
  153.9612  142.4224  162.1017 C   0  0  0  0  0  0  0  0  0  0  0  0
  152.7741  143.1259  161.4351 C   0  0  0  0  0  0  0  0  0  0  0  0
  152.6778  142.8209  159.9300 C   0  0  0  0  0  0  0  0  0  0  0  0
  151.3993  143.3619  159.2588 C   0  0  1  0  0  0  0  0  0  0  0  0
  151.3673  144.8964  159.2609 C   0  0  0  0  0  0  0  0  0  0  0  0
  151.2934  142.8855  157.8806 N   0  0  0  0  0  0  0  0  0  0  0  0
  150.2764  142.1760  157.3661 C   0  0  0  0  0  0  0  0  0  0  0  0
  149.2991  141.8175  158.0247 O   0  0  0  0  0  0  0  0  0  0  0  0
  150.4066  141.7927  155.8853 C   0  0  0  0  0  0  0  0  0  0  0  0
  150.6696  140.3604  155.6842 N   0  0  0  0  0  0  0  0  0  0  0  0
  149.9284  139.6347  154.7623 C   0  0  0  0  0  0  0  0  0  0  0  0
  150.1270  138.3179  154.5167 C   0  0  0  0  0  0  0  0  0  0  0  0
  151.1627  137.5810  155.2329 C   0  0  0  0  0  0  0  0  0  0  0  0
  151.4176  136.3882  155.0821 O   0  0  0  0  0  0  0  0  0  0  0  0
  151.8883  138.3464  156.1497 N   0  0  0  0  0  0  0  0  0  0  0  0
  151.6900  139.7040  156.4063 C   0  0  0  0  0  0  0  0  0  0  0  0
  152.3911  140.2858  157.2336 O   0  0  0  0  0  0  0  0  0  0  0  0
  152.6186  137.8798  156.6674 H   0  0  0  0  0  0  0  0  0  0  0  0
  154.0025  142.6553  163.1659 H   0  0  0  0  0  0  0  0  0  0  0  0
  154.9059  142.7352  161.6559 H   0  0  0  0  0  0  0  0  0  0  0  0
  153.8840  141.3396  162.0006 H   0  0  0  0  0  0  0  0  0  0  0  0
  151.8568  142.8204  161.9387 H   0  0  0  0  0  0  0  0  0  0  0  0
  152.8645  144.2024  161.5849 H   0  0  0  0  0  0  0  0  0  0  0  0
  153.5457  143.2544  159.4312 H   0  0  0  0  0  0  0  0  0  0  0  0
  152.7467  141.7436  159.7728 H   0  0  0  0  0  0  0  0  0  0  0  0
  150.5405  143.0219  159.8404 H   0  0  0  0  0  0  0  0  0  0  0  0
  151.4111  145.2883  160.2773 H   0  0  0  0  0  0  0  0  0  0  0  0
  150.4501  145.2705  158.8048 H   0  0  0  0  0  0  0  0  0  0  0  0
  152.2091  145.3132  158.7069 H   0  0  0  0  0  0  0  0  0  0  0  0
  152.0561  143.1233  157.2631 H   0  0  0  0  0  0  0  0  0  0  0  0
  149.5051  142.0891  155.3449 H   0  0  0  0  0  0  0  0  0  0  0  0
  151.2105  142.3889  155.4510 H   0  0  0  0  0  0  0  0  0  0  0  0
  149.1536  140.1412  154.2043 H   0  0  0  0  0  0  0  0  0  0  0  0
  149.5175  137.8077  153.7849 H   0  0  0  0  0  0  0  0  0  0  0  0
  1  2  1  0  0  0  0
  1 19  1  0  0  0  0
  1 20  1  0  0  0  0
  1 21  1  0  0  0  0
  2  3  1  0  0  0  0
  2 22  1  0  0  0  0
  2 23  1  0  0  0  0
  3  4  1  0  0  0  0
  3 24  1  0  0  0  0
  3 25  1  0  0  0  0
  4  5  1  0  0  0  0
  4  6  1  0  0  0  0
  4 26  1  0  0  0  0
  5 27  1  0  0  0  0
  5 28  1  0  0  0  0
  5 29  1  0  0  0  0
  6  7  1  0  0  0  0
  6 30  1  0  0  0  0
  7  8  2  0  0  0  0
  7  9  1  0  0  0  0
  9 10  1  0  0  0  0
  9 31  1  0  0  0  0
  9 32  1  0  0  0  0
 10 16  1  0  0  0  0
 10 11  1  0  0  0  0
 11 12  2  0  0  0  0
 11 33  1  0  0  0  0
 12 13  1  0  0  0  0
 12 34  1  0  0  0  0
 13 14  2  0  0  0  0
 13 15  1  0  0  0  0
 15 18  1  0  0  0  0
 15 16  1  0  0  0  0
 16 17  2  0  0  0  0
M  END
> <s_m_source_file>
AV-unprocessed.smi

> <i_m_source_file_index>
2156

> <i_lp_mmshare_version>
43012

> <i_f3d_flags>
0

> <s_epik_input>
W0NIM11bQ0gyXVtDSDJdW0NASF0oW0NIM10pW05IXUMoPU8pW0NIMl1uMVtjSF1bY0hdYyg9TylbbkhdYzE9Tw==

> <s_epik_cmdline>
J2VwaWtfcHl0aG9uJywgJy1waCcsICc3LjAnLCAnLXRuJywgJzgnLCAnLW1hJywgJzIwMCcsICctbWV0YWxfYmluZGluZycsICctaW1hZScsICc8aW5maWxlLm1hZT4nLCAnLW9tYWUnLCAnPG91dGZpbGUubWFlPic=

> <r_lp_tautomer_probability>
0.999537

> <r_epik_Ionization_Penalty>
0.00324917

> <r_epik_Ionization_Penalty_Charging>
0.00324916

> <r_epik_Ionization_Penalty_Neutral>
1.93017e-08

> <r_epik_State_Penalty>
0.00229371

> <r_epik_Charging_Adjusted_Penalty>
0.00554286

> <i_epik_Tot_Q>
0

> <i_epik_Tot_abs_Q>
0

> <r_epik_Metal_State_Penalty>
0.364744

> <b_epik_Metal_Only>
0

> <s_lp_Force_Field>
OPLS_2005

> <r_lp_Energy>
3.29576

> <b_lp_Chiralities_Consistent>
1

> <s_lp_Variant>
AV-unprocessed.smi:2156-2

> <Gold.Version>
5.8.1

> <Gold.Id.Protein>
6NUR|6NUR_protein|mol2

> <Gold.PLP.Fitness>
44.2353

> <Gold.PLP.PLP>
-37.6921

> <Gold.PLP.part.hbond>
-2.0000

> <Gold.PLP.part.metal>
0.0000

> <Gold.PLP.part.buried>
-2.6187

> <Gold.PLP.part.nonpolar>
-32.4494

> <Gold.PLP.part.repulsive>
0.3754

> <Gold.PLP.ligand.clash>
0.0000

> <Gold.PLP.ligand.torsion>
0.2785

> <Gold.PLP.Chemscore.Hbond>
2.0000

> <Gold.PLP.Chemscore.CHOScore>
0.3293

> <Gold.PLP.Chemscore.Metal>
0.0000

> <Gold.Chemscore.Hbonds>
donor molecule, donor type, donor heavy atom, donor atom, acceptor molecule, acceptor atom, score
      P1  H  7997  8008       L1    17  0.89
      P1  H 10752 10765       L1    14  1.00

> <Gold.PLP.Chemscore.Internal.Correction>
0.1123

> <Gold.Rescore>
     Score         DG    S(hbond)    S(metal)    S(lipo)     H(rot)  DE(clash)    DE(int)     intcor
     14.52     -14.83       1.86        0.00      74.81       2.19       0.03       0.28       ----

> <Gold.Chemscore.Fitness>
14.5236

> <Gold.Chemscore.DG>
-14.8348

> <Gold.Chemscore.ZeroCoef>
-5.4800

> <Gold.Chemscore.Hbond>
1.8625

> <Gold.Chemscore.Metal>
0.0000

> <Gold.Chemscore.Lipo>
74.8099

> <Gold.Chemscore.Internal_Hbond>
0.0000

> <Gold.Chemscore.DEClash>
0.0344

> <Gold.Chemscore.DEInternal>
0.2768

> <Gold.Chemscore.Rot>
2.1949

> <Gold.Chemscore.Internal.Correction>
   9.000000E+99

> <Gold.Chemscore.Hbonds>
donor molecule, donor type, donor heavy atom, donor atom, acceptor molecule, acceptor atom, score
      P1  H  7997  8008       L1    17  0.49
      P1  H 10752 10765       L1    14  1.00

> <Gold.Chemscore.Hbond.Weighted>
-6.2209

> <Gold.Chemscore.Metal.Weighted>
-0.0000

> <Gold.Chemscore.Lipo.Weighted>
-8.7528

> <Gold.Chemscore.Internal_Hbond.Weighted>
0.0000

> <Gold.Chemscore.DEClash.Weighted>
0.0344

> <Gold.Chemscore.DEInternal.Weighted>
0.2768

> <Gold.Chemscore.Rot.Weighted>
5.6188

> <Gold.Chemscore.Internal.Correction.Weighted>
   9.000000E+99

> <Gold.Protein.RotatedTorsions>
[ 6907 6896 6895 6894 ] final    0.17 input  -60.11 | X-H torsion
[ 7974 7965 7964 7962 ] final -121.35 input  175.53 | X-H torsion
[ 8008 7997 7996 7995 ] final  -58.02 input   59.86 | X-H torsion
[ 10167 10162 10161 10158 ] final   63.93 input  -65.29 | X-H torsion
[ 10718 10713 10712 10709 ] final  -91.98 input   66.30 | X-H torsion
[ 10763 10752 10751 10750 ] final -177.66 input  -60.55 | X-H torsion
[ 11005 11000 10999 10996 ] final  110.61 input  -57.11 | X-H torsion

> <Gold.Protein.ActiveResidues>
 VAL166  LYS551  ARG553  GLY616  TRP617  ASP618  TYR619  PRO620  LYS621  CYS622 
 ASP623  PHE694  ASN695  SER759  ASP760  ASP761  ALA762  ILE779  LEU786  VAL792 
 PHE793  MET794  SER795  GLU796  ALA797  LYS798  CYS799  TRP800  GLU811  SER814 

> <Gold.Protein.RotatedAtoms>
  151.5721  135.1062  159.9997 H   0  0  0  0  0  0  0  0  0  0  0  0  # atno 6907 bound_to 6896
  152.4395  133.7419  159.6656 H   0  0  0  0  0  0  0  0  0  0  0  0  # atno 6908 bound_to 6896
  150.8299  133.8040  159.3126 H   0  0  0  0  0  0  0  0  0  0  0  0  # atno 6909 bound_to 6896
  145.0413  140.8146  143.4265 H   0  0  0  0  0  0  0  0  0  0  0  0  # atno 7974 bound_to 7965
  154.4292  140.1093  156.5891 H   0  0  0  0  0  0  0  0  0  0  0  0  # atno 8008 bound_to 7997
  155.6031  140.3493  155.4581 H   0  0  0  0  0  0  0  0  0  0  0  0  # atno 8009 bound_to 7997
  156.0158  140.1229  157.0397 H   0  0  0  0  0  0  0  0  0  0  0  0  # atno 8010 bound_to 7997
  140.1276  144.4673  150.6883 H   0  0  0  0  0  0  0  0  0  0  0  0  # atno 10167 bound_to 10162
  155.9998  130.4969  150.5556 H   0  0  0  0  0  0  0  0  0  0  0  0  # atno 10718 bound_to 10713
  154.5573  135.2817  155.0952 H   0  0  0  0  0  0  0  0  0  0  0  0  # atno 10763 bound_to 10752
  154.2375  135.6363  153.5199 H   0  0  0  0  0  0  0  0  0  0  0  0  # atno 10764 bound_to 10752
  153.0019  135.5552  154.6157 H   0  0  0  0  0  0  0  0  0  0  0  0  # atno 10765 bound_to 10752
  139.8885  134.9488  156.6305 H   0  0  0  0  0  0  0  0  0  0  0  0  # atno 11005 bound_to 11000
  145.1644  139.2440  143.5374 LP  0  0  0  0  0  0  0  0  0  0  0  0  # atno 17320 bound_to 7965
  146.3509  140.1379  142.8595 LP  0  0  0  0  0  0  0  0  0  0  0  0  # atno 17321 bound_to 7965
  140.6835  143.2338  151.5321 LP  0  0  0  0  0  0  0  0  0  0  0  0  # atno 17342 bound_to 10162
  139.5536  144.2333  152.1573 LP  0  0  0  0  0  0  0  0  0  0  0  0  # atno 17343 bound_to 10162
  157.3472  131.0727  151.1741 LP  0  0  0  0  0  0  0  0  0  0  0  0  # atno 17370 bound_to 10713
  157.2570  130.6641  149.5957 LP  0  0  0  0  0  0  0  0  0  0  0  0  # atno 17371 bound_to 10713
  140.7670  133.8770  155.8462 LP  0  0  0  0  0  0  0  0  0  0  0  0  # atno 17394 bound_to 11000
  140.9874  134.1324  157.4439 LP  0  0  0  0  0  0  0  0  0  0  0  0  # atno 17395 bound_to 11000

$$$$
