AV-unprocessed.smi:1051|AV-procd|sdf|4615|dock8
  -GOLD-   22720 3113D 1   1.00000     0.00000
 Structure written by MMmdl.
 45 47  0  0  0  0  0  0  0  0  1 V2000
  143.3014  144.8623  154.4241 C   0  0  0  0  0  0  0  0  0  0  0  0
  144.6047  144.4311  153.7530 C   0  0  0  0  0  0  0  0  0  0  0  0
  144.9759  145.0333  152.7458 O   0  0  0  0  0  0  0  0  0  0  0  0
  145.3611  143.2977  154.3588 C   0  0  0  0  0  0  0  0  0  0  0  0
  144.8086  142.6119  155.4637 C   0  0  0  0  0  0  0  0  0  0  0  0
  145.4985  141.5379  156.0542 C   0  0  0  0  0  0  0  0  0  0  0  0
  146.7483  141.1403  155.5472 C   0  0  0  0  0  0  0  0  0  0  0  0
  147.3234  141.8083  154.4486 C   0  0  0  0  0  0  0  0  0  0  0  0
  148.5516  141.3537  154.0194 O   0  0  0  0  0  0  0  0  0  0  0  0
  148.8899  139.9922  154.2502 C   0  0  0  0  0  0  0  0  0  0  0  0
  149.9356  139.9288  155.3731 C   0  0  1  0  0  0  0  0  0  0  0  0
  151.1595  140.3853  154.8329 O   0  0  0  0  0  0  0  0  0  0  0  0
  149.5599  140.8251  156.5709 C   0  0  0  0  0  0  0  0  0  0  0  0
  150.5840  140.7893  157.6126 N   0  0  0  0  0  0  0  0  0  0  0  0
  151.1666  139.6816  158.1305 C   0  0  0  0  0  0  0  0  0  0  0  0
  150.9230  138.5197  157.8045 O   0  0  0  0  0  0  0  0  0  0  0  0
  152.0644  140.0777  159.0629 N   0  0  0  0  0  0  0  0  0  0  0  0
  152.9160  139.2234  159.8818 C   0  0  0  0  0  0  0  0  0  0  0  0
  152.0615  141.4764  159.1387 C   0  0  0  0  0  0  0  0  0  0  0  0
  152.8097  142.3584  159.9369 C   0  0  0  0  0  0  0  0  0  0  0  0
  152.5707  143.7426  159.7678 C   0  0  0  0  0  0  0  0  0  0  0  0
  151.6135  144.2058  158.8279 C   0  0  0  0  0  0  0  0  0  0  0  0
  150.8744  143.2951  158.0369 C   0  0  0  0  0  0  0  0  0  0  0  0
  151.1304  141.9257  158.2258 C   0  0  0  0  0  0  0  0  0  0  0  0
  146.6204  142.8886  153.8569 C   0  0  0  0  0  0  0  0  0  0  0  0
  142.5879  144.0382  154.4399 H   0  0  0  0  0  0  0  0  0  0  0  0
  142.8498  145.6928  153.8811 H   0  0  0  0  0  0  0  0  0  0  0  0
  143.4879  145.1862  155.4483 H   0  0  0  0  0  0  0  0  0  0  0  0
  143.8500  142.9009  155.8698 H   0  0  0  0  0  0  0  0  0  0  0  0
  145.0682  141.0188  156.8977 H   0  0  0  0  0  0  0  0  0  0  0  0
  147.2725  140.3154  156.0072 H   0  0  0  0  0  0  0  0  0  0  0  0
  147.9941  139.4452  154.5498 H   0  0  0  0  0  0  0  0  0  0  0  0
  149.2844  139.5297  153.3435 H   0  0  0  0  0  0  0  0  0  0  0  0
  150.0565  138.8899  155.6834 H   0  0  0  0  0  0  0  0  0  0  0  0
  151.7811  139.6736  154.8550 H   0  0  0  0  0  0  0  0  0  0  0  0
  149.3568  141.8484  156.2529 H   0  0  0  0  0  0  0  0  0  0  0  0
  148.6283  140.4729  157.0167 H   0  0  0  0  0  0  0  0  0  0  0  0
  152.6546  139.3327  160.9347 H   0  0  0  0  0  0  0  0  0  0  0  0
  153.9628  139.5027  159.7586 H   0  0  0  0  0  0  0  0  0  0  0  0
  152.8159  138.1700  159.6172 H   0  0  0  0  0  0  0  0  0  0  0  0
  153.5377  141.9980  160.6486 H   0  0  0  0  0  0  0  0  0  0  0  0
  153.1244  144.4559  160.3606 H   0  0  0  0  0  0  0  0  0  0  0  0
  151.4471  145.2668  158.7142 H   0  0  0  0  0  0  0  0  0  0  0  0
  150.1468  143.6426  157.3186 H   0  0  0  0  0  0  0  0  0  0  0  0
  147.0469  143.4064  153.0126 H   0  0  0  0  0  0  0  0  0  0  0  0
  1  2  1  0  0  0  0
  1 26  1  0  0  0  0
  1 27  1  0  0  0  0
  1 28  1  0  0  0  0
  2  3  2  0  0  0  0
  2  4  1  0  0  0  0
  4 25  1  0  0  0  0
  4  5  2  0  0  0  0
  5  6  1  0  0  0  0
  5 29  1  0  0  0  0
  6  7  2  0  0  0  0
  6 30  1  0  0  0  0
  7  8  1  0  0  0  0
  7 31  1  0  0  0  0
  8  9  1  0  0  0  0
  8 25  2  0  0  0  0
  9 10  1  0  0  0  0
 10 11  1  0  0  0  0
 10 32  1  0  0  0  0
 10 33  1  0  0  0  0
 11 12  1  0  0  0  0
 11 13  1  0  0  0  0
 11 34  1  0  0  0  0
 12 35  1  0  0  0  0
 13 14  1  0  0  0  0
 13 36  1  0  0  0  0
 13 37  1  0  0  0  0
 14 24  1  0  0  0  0
 14 15  1  0  0  0  0
 15 16  2  0  0  0  0
 15 17  1  0  0  0  0
 17 18  1  0  0  0  0
 17 19  1  0  0  0  0
 18 38  1  0  0  0  0
 18 39  1  0  0  0  0
 18 40  1  0  0  0  0
 19 24  2  0  0  0  0
 19 20  1  0  0  0  0
 20 21  2  0  0  0  0
 20 41  1  0  0  0  0
 21 22  1  0  0  0  0
 21 42  1  0  0  0  0
 22 23  2  0  0  0  0
 22 43  1  0  0  0  0
 23 24  1  0  0  0  0
 23 44  1  0  0  0  0
 25 45  1  0  0  0  0
M  END
> <s_m_source_file>
AV-unprocessed.smi

> <i_m_source_file_index>
1051

> <i_lp_mmshare_version>
43012

> <i_f3d_flags>
0

> <s_epik_input>
W0NIM11DKD1PKWMxW2NIXVtjSF1bY0hdYyhbY0hdMSlPW0NIMl1bQ0BIXShbT0hdKVtDSDJdbihjKD1PKW4yW0NIM10pYyhjMjMpW2NIXVtjSF1bY0hdW2NIXTM=

> <s_epik_cmdline>
J2VwaWtfcHl0aG9uJywgJy1waCcsICc3LjAnLCAnLXRuJywgJzgnLCAnLW1hJywgJzIwMCcsICctbWV0YWxfYmluZGluZycsICctaW1hZScsICc8aW5maWxlLm1hZT4nLCAnLW9tYWUnLCAnPG91dGZpbGUubWFlPic=

> <r_lp_tautomer_probability>
1

> <r_epik_Ionization_Penalty>
2.40143e-06

> <r_epik_Ionization_Penalty_Charging>
2.1343e-09

> <r_epik_Ionization_Penalty_Neutral>
2.3993e-06

> <r_epik_State_Penalty>
-0

> <r_epik_Charging_Adjusted_Penalty>
2.1343e-09

> <i_epik_Tot_Q>
0

> <i_epik_Tot_abs_Q>
0

> <r_epik_Metal_State_Penalty>
-0

> <b_epik_Metal_Only>
0

> <s_lp_Force_Field>
OPLS_2005

> <r_lp_Energy>
51.4738

> <b_lp_Chiralities_Consistent>
1

> <s_lp_Variant>
AV-unprocessed.smi:1051-2

> <Gold.Version>
5.8.1

> <Gold.Id.Protein>
6NUR|6NUR_protein|mol2

> <Gold.PLP.Fitness>
54.6092

> <Gold.PLP.PLP>
-52.7615

> <Gold.PLP.part.hbond>
-2.0354

> <Gold.PLP.part.metal>
0.0000

> <Gold.PLP.part.buried>
-7.7407

> <Gold.PLP.part.nonpolar>
-44.0099

> <Gold.PLP.part.repulsive>
0.3386

> <Gold.PLP.ligand.clash>
0.0000

> <Gold.PLP.ligand.torsion>
0.9234

> <Gold.PLP.Chemscore.Hbond>
1.1798

> <Gold.PLP.Chemscore.CHOScore>
0.0000

> <Gold.PLP.Chemscore.Metal>
0.0000

> <Gold.Chemscore.Hbonds>
donor molecule, donor type, donor heavy atom, donor atom, acceptor molecule, acceptor atom, score
      P1  H  7989  7998       L1    12  0.59
      P1  H  8011  8017       L1     9  0.15

> <Gold.PLP.Chemscore.Internal.Correction>
0.1551

> <Gold.Rescore>
     Score         DG    S(hbond)    S(metal)    S(lipo)     H(rot)  DE(clash)    DE(int)     intcor
     15.26     -17.56       1.03        0.00     124.00       2.30       0.03       2.27       ----

> <Gold.Chemscore.Fitness>
15.2570

> <Gold.Chemscore.DG>
-17.5588

> <Gold.Chemscore.ZeroCoef>
-5.4800

> <Gold.Chemscore.Hbond>
1.0342

> <Gold.Chemscore.Metal>
0.0000

> <Gold.Chemscore.Lipo>
124.0046

> <Gold.Chemscore.Internal_Hbond>
0.0000

> <Gold.Chemscore.DEClash>
0.0321

> <Gold.Chemscore.DEInternal>
2.2696

> <Gold.Chemscore.Rot>
2.2984

> <Gold.Chemscore.Internal.Correction>
   9.000000E+99

> <Gold.Chemscore.Hbonds>
donor molecule, donor type, donor heavy atom, donor atom, acceptor molecule, acceptor atom, score
      P1  H  7989  7998       L1    12  0.05
      P1  H  8011  8017       L1     9  0.15

> <Gold.Chemscore.Hbond.Weighted>
-3.4541

> <Gold.Chemscore.Metal.Weighted>
-0.0000

> <Gold.Chemscore.Lipo.Weighted>
-14.5085

> <Gold.Chemscore.Internal_Hbond.Weighted>
0.0000

> <Gold.Chemscore.DEClash.Weighted>
0.0321

> <Gold.Chemscore.DEInternal.Weighted>
2.2696

> <Gold.Chemscore.Rot.Weighted>
5.8839

> <Gold.Chemscore.Internal.Correction.Weighted>
   9.000000E+99

> <Gold.Protein.RotatedTorsions>
[ 6907 6896 6895 6894 ] final -179.01 input  -60.11 | X-H torsion
[ 7974 7965 7964 7962 ] final  114.06 input  175.53 | X-H torsion
[ 8008 7997 7996 7995 ] final    8.10 input   59.86 | X-H torsion
[ 10167 10162 10161 10158 ] final  -61.55 input  -65.29 | X-H torsion
[ 10718 10713 10712 10709 ] final   50.57 input   66.30 | X-H torsion
[ 10763 10752 10751 10750 ] final -167.35 input  -60.55 | X-H torsion
[ 11005 11000 10999 10996 ] final   -7.50 input  -57.11 | X-H torsion

> <Gold.Protein.ActiveResidues>
 VAL166  LYS551  ARG553  GLY616  TRP617  ASP618  TYR619  PRO620  LYS621  CYS622 
 ASP623  PHE694  ASN695  SER759  ASP760  ASP761  ALA762  ILE779  LEU786  VAL792 
 PHE793  MET794  SER795  GLU796  ALA797  LYS798  CYS799  TRP800  GLU811  SER814 

> <Gold.Protein.RotatedAtoms>
  151.6465  133.3323  159.3141 H   0  0  0  0  0  0  0  0  0  0  0  0  # atno 6907 bound_to 6896
  150.7982  134.7060  159.6586 H   0  0  0  0  0  0  0  0  0  0  0  0  # atno 6908 bound_to 6896
  152.4071  134.6192  160.0098 H   0  0  0  0  0  0  0  0  0  0  0  0  # atno 6909 bound_to 6896
  145.2091  139.2915  143.4278 H   0  0  0  0  0  0  0  0  0  0  0  0  # atno 7974 bound_to 7965
  154.7625  140.2787  155.6203 H   0  0  0  0  0  0  0  0  0  0  0  0  # atno 8008 bound_to 7997
  156.2918  140.2657  156.2334 H   0  0  0  0  0  0  0  0  0  0  0  0  # atno 8009 bound_to 7997
  155.0000  140.0373  157.2345 H   0  0  0  0  0  0  0  0  0  0  0  0  # atno 8010 bound_to 7997
  140.5999  143.2359  151.5953 H   0  0  0  0  0  0  0  0  0  0  0  0  # atno 10167 bound_to 10162
  157.4898  130.8368  149.8189 H   0  0  0  0  0  0  0  0  0  0  0  0  # atno 10718 bound_to 10713
  154.6740  135.2944  154.9703 H   0  0  0  0  0  0  0  0  0  0  0  0  # atno 10763 bound_to 10752
  154.0720  135.6616  153.4829 H   0  0  0  0  0  0  0  0  0  0  0  0  # atno 10764 bound_to 10752
  153.0505  135.5177  154.7751 H   0  0  0  0  0  0  0  0  0  0  0  0  # atno 10765 bound_to 10752
  140.7134  133.8889  155.8767 H   0  0  0  0  0  0  0  0  0  0  0  0  # atno 11005 bound_to 11000
  146.3401  140.2360  142.8594 LP  0  0  0  0  0  0  0  0  0  0  0  0  # atno 17320 bound_to 7965
  144.9873  140.8515  143.5360 LP  0  0  0  0  0  0  0  0  0  0  0  0  # atno 17321 bound_to 7965
  139.5283  144.2991  152.1088 LP  0  0  0  0  0  0  0  0  0  0  0  0  # atno 17342 bound_to 10162
  140.2170  144.4505  150.6359 LP  0  0  0  0  0  0  0  0  0  0  0  0  # atno 17343 bound_to 10162
  156.0167  130.3811  150.2089 LP  0  0  0  0  0  0  0  0  0  0  0  0  # atno 17370 bound_to 10713
  157.0278  130.9998  151.3321 LP  0  0  0  0  0  0  0  0  0  0  0  0  # atno 17371 bound_to 10713
  141.0065  134.1079  157.4265 LP  0  0  0  0  0  0  0  0  0  0  0  0  # atno 17394 bound_to 11000
  139.8866  135.0082  156.6507 LP  0  0  0  0  0  0  0  0  0  0  0  0  # atno 17395 bound_to 11000

$$$$
