AV-unprocessed.smi:3303|AV-procd|sdf|12658|dock8
  -GOLD-   2272018593D 1   1.00000     0.00000
 Structure written by MMmdl.
 45 46  0  0  0  0  0  0  0  0  3 V2000
  145.6166  136.0903  150.7931 C   0  0  0  0  0  0  0  0  0  0  0  0
  145.0154  134.8962  151.5641 C   0  0  1  0  0  0  0  0  0  0  0  0
  144.0588  134.0791  150.6741 C   0  0  0  0  0  0  0  0  0  0  0  0
  144.7828  133.3257  149.6152 N   0  3  2  0  0  0  0  0  0  0  0  0
  143.8280  132.6715  148.6875 C   0  0  0  0  0  0  0  0  0  0  0  0
  145.8101  132.3995  150.1820 C   0  0  1  0  0  0  0  0  0  0  0  0
  146.5999  131.6510  149.0901 C   0  0  0  0  0  0  0  0  0  0  0  0
  146.7937  133.1626  151.0979 C   0  0  0  0  0  0  0  0  0  0  0  0
  146.0614  133.9544  152.1986 C   0  0  1  0  0  0  0  0  0  0  0  0
  146.9883  134.7029  153.0811 N   0  3  0  0  0  0  0  0  0  0  0  0
  147.7797  133.8794  154.0188 C   0  0  0  0  0  0  0  0  0  0  0  0
  148.8785  133.1056  153.2774 C   0  0  0  0  0  0  0  0  0  0  0  0
  148.7864  131.6107  153.5175 C   0  0  0  0  0  0  0  0  0  0  0  0
  149.8466  130.9115  154.1328 C   0  0  0  0  0  0  0  0  0  0  0  0
  149.7093  129.5233  154.3284 C   0  0  0  0  0  0  0  0  0  0  0  0
  148.5249  128.8921  153.9019 C   0  0  0  0  0  0  0  0  0  0  0  0
  147.5260  129.6798  153.2960 C   0  0  0  0  0  0  0  0  0  0  0  0
  147.6477  131.0114  153.1035 N   0  0  0  0  0  0  0  0  0  0  0  0
  146.2247  135.7707  149.9468 H   0  0  0  0  0  0  0  0  0  0  0  0
  146.2421  136.7110  151.4349 H   0  0  0  0  0  0  0  0  0  0  0  0
  144.8285  136.7337  150.4009 H   0  0  0  0  0  0  0  0  0  0  0  0
  144.4197  135.3190  152.3746 H   0  0  0  0  0  0  0  0  0  0  0  0
  143.4924  133.3751  151.2863 H   0  0  0  0  0  0  0  0  0  0  0  0
  143.3269  134.7476  150.2181 H   0  0  0  0  0  0  0  0  0  0  0  0
  143.3217  131.8352  149.1713 H   0  0  0  0  0  0  0  0  0  0  0  0
  144.3268  132.3045  147.7910 H   0  0  0  0  0  0  0  0  0  0  0  0
  143.0682  133.3781  148.3518 H   0  0  0  0  0  0  0  0  0  0  0  0
  145.2891  131.6562  150.7881 H   0  0  0  0  0  0  0  0  0  0  0  0
  147.4013  131.0558  149.5285 H   0  0  0  0  0  0  0  0  0  0  0  0
  147.0555  132.3435  148.3816 H   0  0  0  0  0  0  0  0  0  0  0  0
  145.9722  130.9574  148.5310 H   0  0  0  0  0  0  0  0  0  0  0  0
  147.4776  132.4437  151.5489 H   0  0  0  0  0  0  0  0  0  0  0  0
  147.4132  133.8335  150.5016 H   0  0  0  0  0  0  0  0  0  0  0  0
  145.5216  133.2444  152.8281 H   0  0  0  0  0  0  0  0  0  0  0  0
  147.6170  135.2510  152.5112 H   0  0  0  0  0  0  0  0  0  0  0  0
  148.2284  134.5250  154.7750 H   0  0  0  0  0  0  0  0  0  0  0  0
  147.1269  133.1771  154.5372 H   0  0  0  0  0  0  0  0  0  0  0  0
  148.8153  133.3014  152.2060 H   0  0  0  0  0  0  0  0  0  0  0  0
  149.8628  133.4530  153.5954 H   0  0  0  0  0  0  0  0  0  0  0  0
  150.7437  131.4226  154.4501 H   0  0  0  0  0  0  0  0  0  0  0  0
  150.4979  128.9534  154.7967 H   0  0  0  0  0  0  0  0  0  0  0  0
  148.3848  127.8297  154.0364 H   0  0  0  0  0  0  0  0  0  0  0  0
  146.6059  129.2284  152.9557 H   0  0  0  0  0  0  0  0  0  0  0  0
  146.4324  135.3356  153.6390 H   0  0  0  0  0  0  0  0  0  0  0  0
  145.2813  134.0125  149.0673 H   0  0  0  0  0  0  0  0  0  0  0  0
  1  2  1  0  0  0  0
  1 19  1  0  0  0  0
  1 20  1  0  0  0  0
  1 21  1  0  0  0  0
  2  9  1  0  0  0  0
  2  3  1  0  0  0  0
  2 22  1  0  0  0  0
  3  4  1  0  0  0  0
  3 23  1  0  0  0  0
  3 24  1  0  0  0  0
  4  5  1  0  0  0  0
  4  6  1  0  0  0  0
  4 45  1  0  0  0  0
  5 25  1  0  0  0  0
  5 26  1  0  0  0  0
  5 27  1  0  0  0  0
  6  7  1  0  0  0  0
  6  8  1  0  0  0  0
  6 28  1  0  0  0  0
  7 29  1  0  0  0  0
  7 30  1  0  0  0  0
  7 31  1  0  0  0  0
  8  9  1  0  0  0  0
  8 32  1  0  0  0  0
  8 33  1  0  0  0  0
  9 10  1  0  0  0  0
  9 34  1  0  0  0  0
 10 11  1  0  0  0  0
 10 35  1  0  0  0  0
 10 44  1  0  0  0  0
 11 12  1  0  0  0  0
 11 36  1  0  0  0  0
 11 37  1  0  0  0  0
 12 13  1  0  0  0  0
 12 38  1  0  0  0  0
 12 39  1  0  0  0  0
 13 18  1  0  0  0  0
 13 14  2  0  0  0  0
 14 15  1  0  0  0  0
 14 40  1  0  0  0  0
 15 16  2  0  0  0  0
 15 41  1  0  0  0  0
 16 17  1  0  0  0  0
 16 42  1  0  0  0  0
 17 18  2  0  0  0  0
 17 43  1  0  0  0  0
M  CHG  1   4   1
M  CHG  1  10   1
M  END
> <s_m_source_file>
AV-unprocessed.smi

> <i_m_source_file_index>
3303

> <i_lp_mmshare_version>
43012

> <i_f3d_flags>
0

> <s_epik_input>
W0NIM11bQ0BASF0xW0NIMl1OKFtDSDNdKVtDQEBIXShbQ0gzXSlbQ0gyXVtDQEhdMVtOSF1bQ0gyXVtDSDJdYzJbY0hdW2NIXVtjSF1bY0hdbjI=

> <s_epik_cmdline>
J2VwaWtfcHl0aG9uJywgJy1waCcsICc3LjAnLCAnLXRuJywgJzgnLCAnLW1hJywgJzIwMCcsICctbWV0YWxfYmluZGluZycsICctaW1hZScsICc8aW5maWxlLm1hZT4nLCAnLW9tYWUnLCAnPG91dGZpbGUubWFlPic=

> <r_epik_Ionization_Penalty>
0.0769462

> <r_epik_Ionization_Penalty_Charging>
0.0759813

> <r_epik_Ionization_Penalty_Neutral>
0.000964829

> <r_epik_State_Penalty>
0.0654373

> <r_epik_Charging_Adjusted_Penalty>
0.141419

> <i_epik_Tot_Q>
2

> <i_epik_Tot_abs_Q>
2

> <r_epik_Metal_State_Penalty>
0.0656439

> <b_epik_Metal_Only>
0

> <s_lp_Force_Field>
OPLS_2005

> <r_lp_Energy>
30.9153

> <b_lp_Chiralities_Consistent>
1

> <s_lp_Variant>
AV-unprocessed.smi:3303-2

> <Gold.Version>
5.8.1

> <Gold.Id.Protein>
6NUR|6NUR_protein|mol2

> <Gold.PLP.Fitness>
44.7203

> <Gold.PLP.PLP>
-36.7375

> <Gold.PLP.part.hbond>
-2.0000

> <Gold.PLP.part.metal>
0.0000

> <Gold.PLP.part.buried>
-1.4234

> <Gold.PLP.part.nonpolar>
-33.5355

> <Gold.PLP.part.repulsive>
0.3633

> <Gold.PLP.ligand.clash>
0.0000

> <Gold.PLP.ligand.torsion>
0.5141

> <Gold.PLP.Chemscore.Hbond>
3.0000

> <Gold.PLP.Chemscore.CHOScore>
0.0000

> <Gold.PLP.Chemscore.Metal>
0.0000

> <Gold.Chemscore.Hbonds>
donor molecule, donor type, donor heavy atom, donor atom, acceptor molecule, acceptor atom, score
      L1  H     4    45       P1  7921  1.00
      L1  H    10    35       P1  7948  2.00

> <Gold.PLP.Chemscore.Internal.Correction>
0.0111

> <Gold.Rescore>
     Score         DG    S(hbond)    S(metal)    S(lipo)     H(rot)  DE(clash)    DE(int)     intcor
     18.24     -20.28       1.90        0.00     102.37       1.37       1.36       0.68       ----

> <Gold.Chemscore.Fitness>
18.2417

> <Gold.Chemscore.DG>
-20.2755

> <Gold.Chemscore.ZeroCoef>
-5.4800

> <Gold.Chemscore.Hbond>
1.8971

> <Gold.Chemscore.Metal>
0.0000

> <Gold.Chemscore.Lipo>
102.3722

> <Gold.Chemscore.Internal_Hbond>
0.0000

> <Gold.Chemscore.DEClash>
1.3573

> <Gold.Chemscore.DEInternal>
0.6765

> <Gold.Chemscore.Rot>
1.3744

> <Gold.Chemscore.Internal.Correction>
   9.000000E+99

> <Gold.Chemscore.Hbonds>
donor molecule, donor type, donor heavy atom, donor atom, acceptor molecule, acceptor atom, score
      L1  H     4    45       P1  7921  0.90
      L1  H    10    35       P1  7948  1.00

> <Gold.Chemscore.Hbond.Weighted>
-6.3364

> <Gold.Chemscore.Metal.Weighted>
-0.0000

> <Gold.Chemscore.Lipo.Weighted>
-11.9775

> <Gold.Chemscore.Internal_Hbond.Weighted>
0.0000

> <Gold.Chemscore.DEClash.Weighted>
1.3573

> <Gold.Chemscore.DEInternal.Weighted>
0.6765

> <Gold.Chemscore.Rot.Weighted>
3.5185

> <Gold.Chemscore.Internal.Correction.Weighted>
   9.000000E+99

> <Gold.Protein.RotatedTorsions>
[ 6907 6896 6895 6894 ] final  137.51 input  -60.11 | X-H torsion
[ 7974 7965 7964 7962 ] final   90.39 input  175.53 | X-H torsion
[ 8008 7997 7996 7995 ] final  111.16 input   59.86 | X-H torsion
[ 10167 10162 10161 10158 ] final   38.10 input  -65.29 | X-H torsion
[ 10718 10713 10712 10709 ] final   20.83 input   66.30 | X-H torsion
[ 10763 10752 10751 10750 ] final  -33.09 input  -60.55 | X-H torsion
[ 11005 11000 10999 10996 ] final  125.77 input  -57.11 | X-H torsion

> <Gold.Protein.ActiveResidues>
 VAL166  LYS551  ARG553  GLY616  TRP617  ASP618  TYR619  PRO620  LYS621  CYS622 
 ASP623  PHE694  ASN695  SER759  ASP760  ASP761  ALA762  ILE779  LEU786  VAL792 
 PHE793  MET794  SER795  GLU796  ALA797  LYS798  CYS799  TRP800  GLU811  SER814 

> <Gold.Protein.RotatedAtoms>
  152.2772  133.5437  159.5475 H   0  0  0  0  0  0  0  0  0  0  0  0  # atno 6907 bound_to 6896
  150.7182  134.0615  159.3842 H   0  0  0  0  0  0  0  0  0  0  0  0  # atno 6908 bound_to 6896
  151.8527  135.0552  160.0511 H   0  0  0  0  0  0  0  0  0  0  0  0  # atno 6909 bound_to 6896
  145.5197  139.2279  143.2679 H   0  0  0  0  0  0  0  0  0  0  0  0  # atno 7974 bound_to 7965
  156.2105  140.3024  155.9721 H   0  0  0  0  0  0  0  0  0  0  0  0  # atno 8008 bound_to 7997
  155.2736  140.0435  157.3026 H   0  0  0  0  0  0  0  0  0  0  0  0  # atno 8009 bound_to 7997
  154.5692  140.2343  155.8225 H   0  0  0  0  0  0  0  0  0  0  0  0  # atno 8010 bound_to 7997
  140.3969  144.1777  150.6132 H   0  0  0  0  0  0  0  0  0  0  0  0  # atno 10167 bound_to 10162
  157.1300  130.6587  149.5949 H   0  0  0  0  0  0  0  0  0  0  0  0  # atno 10718 bound_to 10713
  153.8246  135.6871  153.4822 H   0  0  0  0  0  0  0  0  0  0  0  0  # atno 10763 bound_to 10752
  153.1548  135.4603  154.9687 H   0  0  0  0  0  0  0  0  0  0  0  0  # atno 10764 bound_to 10752
  154.7913  135.3303  154.7715 H   0  0  0  0  0  0  0  0  0  0  0  0  # atno 10765 bound_to 10752
  139.9423  134.9634  156.8608 H   0  0  0  0  0  0  0  0  0  0  0  0  # atno 11005 bound_to 11000
  146.2114  140.6008  142.9058 LP  0  0  0  0  0  0  0  0  0  0  0  0  # atno 17320 bound_to 7965
  144.7683  140.5580  143.6688 LP  0  0  0  0  0  0  0  0  0  0  0  0  # atno 17321 bound_to 7965
  140.4781  143.2389  151.8994 LP  0  0  0  0  0  0  0  0  0  0  0  0  # atno 17342 bound_to 10162
  139.4786  144.5299  151.8682 LP  0  0  0  0  0  0  0  0  0  0  0  0  # atno 17343 bound_to 10162
  155.9810  130.4814  150.6803 LP  0  0  0  0  0  0  0  0  0  0  0  0  # atno 17370 bound_to 10713
  157.4401  131.0860  151.0952 LP  0  0  0  0  0  0  0  0  0  0  0  0  # atno 17371 bound_to 10713
  140.5921  134.0252  155.7504 LP  0  0  0  0  0  0  0  0  0  0  0  0  # atno 17394 bound_to 11000
  141.1062  133.9690  157.2993 LP  0  0  0  0  0  0  0  0  0  0  0  0  # atno 17395 bound_to 11000

$$$$
