AV-unprocessed.smi:838|AV-procd|sdf|3908|dock5
  -GOLD-   22720 1373D 1   1.00000     0.00000
 Structure written by MMmdl.
 45 46  0  0  0  0  0  0  0  0  1 V2000
  152.4339  138.3284  155.3062 C   0  0  0  0  0  0  0  0  0  0  0  0
  151.9005  139.7122  154.9291 C   0  0  0  0  0  0  0  0  0  0  0  0
  152.7078  140.5580  154.5433 O   0  0  0  0  0  0  0  0  0  0  0  0
  150.5735  139.9610  155.0330 N   0  0  0  0  0  0  0  0  0  0  0  0
  149.9636  141.2418  154.6649 C   0  0  0  0  0  0  0  0  0  0  0  0
  149.0052  141.0182  153.4792 C   0  0  0  0  0  0  0  0  0  0  0  0
  147.9697  140.0463  153.8410 N   0  0  0  0  0  0  0  0  0  0  0  0
  147.0493  139.8782  152.7163 C   0  0  0  0  0  0  0  0  0  0  0  0
  145.9601  138.8164  152.9737 C   0  0  0  0  0  0  0  0  0  0  0  0
  146.3625  137.4998  152.4875 N   0  0  0  0  0  0  0  0  0  0  0  0
  145.5272  136.4921  152.1949 C   0  0  0  0  0  0  0  0  0  0  0  0
  144.3049  136.5601  152.3299 O   0  0  0  0  0  0  0  0  0  0  0  0
  146.2013  135.4222  151.7377 N   0  0  0  0  0  0  0  0  0  0  0  0
  145.6870  134.1611  151.3240 C   0  0  0  0  0  0  0  0  0  0  0  0
  144.5504  134.0377  150.5934 N   0  0  0  0  0  0  0  0  0  0  0  0
  144.1179  132.8110  150.2376 C   0  0  0  0  0  0  0  0  0  0  0  0
  144.7915  131.6283  150.5879 C   0  0  0  0  0  0  0  0  0  0  0  0
  145.9709  131.7380  151.3440 C   0  0  0  0  0  0  0  0  0  0  0  0
  146.4312  133.0176  151.7207 C   0  0  0  0  0  0  0  0  0  0  0  0
  147.7086  133.1387  152.5360 C   0  0  0  0  0  0  0  0  0  0  0  0
  148.5928  138.7736  154.2251 C   0  0  0  0  0  0  0  0  0  0  0  0
  149.5434  138.9911  155.4178 C   0  0  0  0  0  0  0  0  0  0  0  0
  151.9946  137.5582  154.6716 H   0  0  0  0  0  0  0  0  0  0  0  0
  152.2113  138.0996  156.3486 H   0  0  0  0  0  0  0  0  0  0  0  0
  153.5162  138.2864  155.1804 H   0  0  0  0  0  0  0  0  0  0  0  0
  149.4204  141.6434  155.5216 H   0  0  0  0  0  0  0  0  0  0  0  0
  150.7018  141.9982  154.3968 H   0  0  0  0  0  0  0  0  0  0  0  0
  148.5391  141.9659  153.2077 H   0  0  0  0  0  0  0  0  0  0  0  0
  149.5590  140.6696  152.6059 H   0  0  0  0  0  0  0  0  0  0  0  0
  146.5517  140.8288  152.5185 H   0  0  0  0  0  0  0  0  0  0  0  0
  147.6108  139.6315  151.8140 H   0  0  0  0  0  0  0  0  0  0  0  0
  145.8067  138.7278  154.0492 H   0  0  0  0  0  0  0  0  0  0  0  0
  144.9940  139.1163  152.5676 H   0  0  0  0  0  0  0  0  0  0  0  0
  147.3509  137.3538  152.3440 H   0  0  0  0  0  0  0  0  0  0  0  0
  147.2035  135.5202  151.6737 H   0  0  0  0  0  0  0  0  0  0  0  0
  143.2085  132.7723  149.6566 H   0  0  0  0  0  0  0  0  0  0  0  0
  144.4135  130.6635  150.2837 H   0  0  0  0  0  0  0  0  0  0  0  0
  146.5133  130.8488  151.6297 H   0  0  0  0  0  0  0  0  0  0  0  0
  148.1389  132.1598  152.7485 H   0  0  0  0  0  0  0  0  0  0  0  0
  147.5093  133.6307  153.4885 H   0  0  0  0  0  0  0  0  0  0  0  0
  148.4531  133.7216  151.9929 H   0  0  0  0  0  0  0  0  0  0  0  0
  147.8331  138.0482  154.5120 H   0  0  0  0  0  0  0  0  0  0  0  0
  149.1373  138.3502  153.3796 H   0  0  0  0  0  0  0  0  0  0  0  0
  149.9456  138.0311  155.7366 H   0  0  0  0  0  0  0  0  0  0  0  0
  148.9884  139.3764  156.2748 H   0  0  0  0  0  0  0  0  0  0  0  0
  1  2  1  0  0  0  0
  1 23  1  0  0  0  0
  1 24  1  0  0  0  0
  1 25  1  0  0  0  0
  2  3  2  0  0  0  0
  2  4  1  0  0  0  0
  4 22  1  0  0  0  0
  4  5  1  0  0  0  0
  5  6  1  0  0  0  0
  5 26  1  0  0  0  0
  5 27  1  0  0  0  0
  6  7  1  0  0  0  0
  6 28  1  0  0  0  0
  6 29  1  0  0  0  0
  7  8  1  0  0  0  0
  7 21  1  0  0  0  0
  8  9  1  0  0  0  0
  8 30  1  0  0  0  0
  8 31  1  0  0  0  0
  9 10  1  0  0  0  0
  9 32  1  0  0  0  0
  9 33  1  0  0  0  0
 10 11  1  0  0  0  0
 10 34  1  0  0  0  0
 11 12  2  0  0  0  0
 11 13  1  0  0  0  0
 13 14  1  0  0  0  0
 13 35  1  0  0  0  0
 14 19  1  0  0  0  0
 14 15  2  0  0  0  0
 15 16  1  0  0  0  0
 16 17  2  0  0  0  0
 16 36  1  0  0  0  0
 17 18  1  0  0  0  0
 17 37  1  0  0  0  0
 18 19  2  0  0  0  0
 18 38  1  0  0  0  0
 19 20  1  0  0  0  0
 20 39  1  0  0  0  0
 20 40  1  0  0  0  0
 20 41  1  0  0  0  0
 21 22  1  0  0  0  0
 21 42  1  0  0  0  0
 21 43  1  0  0  0  0
 22 44  1  0  0  0  0
 22 45  1  0  0  0  0
M  END
> <s_m_source_file>
AV-unprocessed.smi

> <i_m_source_file_index>
838

> <i_lp_mmshare_version>
43012

> <i_f3d_flags>
0

> <s_epik_input>
W0NIM11DKD1PKU4xW0NIMl1bQ0gyXU4oW0NIMl1bQ0gyXTEpW0NIMl1bQ0gyXVtOSF1DKD1PKVtOSF1jMm5bY0hdW2NIXVtjSF1jMltDSDNd

> <s_epik_cmdline>
J2VwaWtfcHl0aG9uJywgJy1waCcsICc3LjAnLCAnLXRuJywgJzgnLCAnLW1hJywgJzIwMCcsICctbWV0YWxfYmluZGluZycsICctaW1hZScsICc8aW5maWxlLm1hZT4nLCAnLW9tYWUnLCAnPG91dGZpbGUubWFlPic=

> <r_epik_Ionization_Penalty>
0.25102

> <r_epik_Ionization_Penalty_Charging>
0

> <r_epik_Ionization_Penalty_Neutral>
0.25102

> <r_epik_State_Penalty>
0.242297

> <r_epik_Charging_Adjusted_Penalty>
0.242297

> <i_epik_Tot_Q>
0

> <i_epik_Tot_abs_Q>
0

> <r_epik_Metal_State_Penalty>
0.242294

> <b_epik_Metal_Only>
0

> <s_lp_Force_Field>
OPLS_2005

> <r_lp_Energy>
40.132

> <b_lp_Chiralities_Consistent>
1

> <s_lp_Variant>
AV-unprocessed.smi:838-1

> <Gold.Version>
5.8.1

> <Gold.Id.Protein>
6NUR|6NUR_protein|mol2

> <Gold.PLP.Fitness>
46.0896

> <Gold.PLP.PLP>
-34.5956

> <Gold.PLP.part.hbond>
-4.0000

> <Gold.PLP.part.metal>
0.0000

> <Gold.PLP.part.buried>
1.0626

> <Gold.PLP.part.nonpolar>
-32.3709

> <Gold.PLP.part.repulsive>
0.5693

> <Gold.PLP.ligand.clash>
0.0000

> <Gold.PLP.ligand.torsion>
0.6919

> <Gold.PLP.Chemscore.Hbond>
3.2864

> <Gold.PLP.Chemscore.CHOScore>
1.0000

> <Gold.PLP.Chemscore.Metal>
0.0000

> <Gold.Chemscore.Hbonds>
donor molecule, donor type, donor heavy atom, donor atom, acceptor molecule, acceptor atom, score
      L1  H    10    34       P1  7948  1.00
      L1  H    13    35       P1  7948  1.00
      P1  H  7989  7998       L1     3  0.05
      P1  H  7997  8008       L1     3  0.55
      L1  C    16    36       P1 10186  0.45

> <Gold.PLP.Chemscore.Internal.Correction>
0.0185

> <Gold.Rescore>
     Score         DG    S(hbond)    S(metal)    S(lipo)     H(rot)  DE(clash)    DE(int)     intcor
     20.01     -21.10       2.97        0.00      82.34       1.54       0.35       0.73       ----

> <Gold.Chemscore.Fitness>
20.0139

> <Gold.Chemscore.DG>
-21.0967

> <Gold.Chemscore.ZeroCoef>
-5.4800

> <Gold.Chemscore.Hbond>
2.9750

> <Gold.Chemscore.Metal>
0.0000

> <Gold.Chemscore.Lipo>
82.3355

> <Gold.Chemscore.Internal_Hbond>
0.0000

> <Gold.Chemscore.DEClash>
0.3482

> <Gold.Chemscore.DEInternal>
0.7345

> <Gold.Chemscore.Rot>
1.5441

> <Gold.Chemscore.Internal.Correction>
   9.000000E+99

> <Gold.Chemscore.Hbonds>
donor molecule, donor type, donor heavy atom, donor atom, acceptor molecule, acceptor atom, score
      L1  H    10    34       P1  7948  0.93
      L1  H    13    35       P1  7948  0.99
      P1  H  7997  8008       L1     3  0.29

> <Gold.Chemscore.Hbond.Weighted>
-9.9365

> <Gold.Chemscore.Metal.Weighted>
-0.0000

> <Gold.Chemscore.Lipo.Weighted>
-9.6333

> <Gold.Chemscore.Internal_Hbond.Weighted>
0.0000

> <Gold.Chemscore.DEClash.Weighted>
0.3482

> <Gold.Chemscore.DEInternal.Weighted>
0.7345

> <Gold.Chemscore.Rot.Weighted>
3.9530

> <Gold.Chemscore.Internal.Correction.Weighted>
   9.000000E+99

> <Gold.Protein.RotatedTorsions>
[ 6907 6896 6895 6894 ] final -163.63 input  -60.11 | X-H torsion
[ 7974 7965 7964 7962 ] final   74.71 input  175.53 | X-H torsion
[ 8008 7997 7996 7995 ] final   -7.16 input   59.86 | X-H torsion
[ 10167 10162 10161 10158 ] final -126.16 input  -65.29 | X-H torsion
[ 10718 10713 10712 10709 ] final  129.84 input   66.30 | X-H torsion
[ 10763 10752 10751 10750 ] final   13.65 input  -60.55 | X-H torsion
[ 11005 11000 10999 10996 ] final   83.70 input  -57.11 | X-H torsion

> <Gold.Protein.ActiveResidues>
 VAL166  LYS551  ARG553  GLY616  TRP617  ASP618  TYR619  PRO620  LYS621  CYS622 
 ASP623  PHE694  ASN695  SER759  ASP760  ASP761  ALA762  ILE779  LEU786  VAL792 
 PHE793  MET794  SER795  GLU796  ALA797  LYS798  CYS799  TRP800  GLU811  SER814 

> <Gold.Protein.RotatedAtoms>
  151.3991  133.3763  159.2729 H   0  0  0  0  0  0  0  0  0  0  0  0  # atno 6907 bound_to 6896
  150.9447  134.8854  159.7645 H   0  0  0  0  0  0  0  0  0  0  0  0  # atno 6908 bound_to 6896
  152.5086  134.3943  159.9447 H   0  0  0  0  0  0  0  0  0  0  0  0  # atno 6909 bound_to 6896
  145.7248  139.2661  143.1575 H   0  0  0  0  0  0  0  0  0  0  0  0  # atno 7974 bound_to 7965
  154.5866  140.2414  155.7979 H   0  0  0  0  0  0  0  0  0  0  0  0  # atno 8008 bound_to 7997
  156.2217  140.2995  155.9924 H   0  0  0  0  0  0  0  0  0  0  0  0  # atno 8009 bound_to 7997
  155.2448  140.0408  157.2970 H   0  0  0  0  0  0  0  0  0  0  0  0  # atno 8010 bound_to 7997
  139.9744  143.5810  152.2401 H   0  0  0  0  0  0  0  0  0  0  0  0  # atno 10167 bound_to 10162
  157.5118  131.1097  150.9282 H   0  0  0  0  0  0  0  0  0  0  0  0  # atno 10718 bound_to 10713
  153.1699  135.6810  153.8622 H   0  0  0  0  0  0  0  0  0  0  0  0  # atno 10763 bound_to 10752
  153.7989  135.3158  155.3389 H   0  0  0  0  0  0  0  0  0  0  0  0  # atno 10764 bound_to 10752
  154.7991  135.4789  154.0324 H   0  0  0  0  0  0  0  0  0  0  0  0  # atno 10765 bound_to 10752
  139.9023  134.8163  156.2345 H   0  0  0  0  0  0  0  0  0  0  0  0  # atno 11005 bound_to 11000
  146.0592  140.7988  142.9743 LP  0  0  0  0  0  0  0  0  0  0  0  0  # atno 17320 bound_to 7965
  144.6907  140.3171  143.7238 LP  0  0  0  0  0  0  0  0  0  0  0  0  # atno 17321 bound_to 7965
  139.6457  144.7658  151.2249 LP  0  0  0  0  0  0  0  0  0  0  0  0  # atno 17342 bound_to 10162
  140.7511  143.6244  150.8483 LP  0  0  0  0  0  0  0  0  0  0  0  0  # atno 17343 bound_to 10162
  156.9920  130.5567  149.5304 LP  0  0  0  0  0  0  0  0  0  0  0  0  # atno 17370 bound_to 10713
  156.0294  130.5386  150.8493 LP  0  0  0  0  0  0  0  0  0  0  0  0  # atno 17371 bound_to 10713
  141.0324  133.6981  156.1454 LP  0  0  0  0  0  0  0  0  0  0  0  0  # atno 17394 bound_to 11000
  140.7076  134.4496  157.5583 LP  0  0  0  0  0  0  0  0  0  0  0  0  # atno 17395 bound_to 11000

$$$$
