AV-unprocessed.smi:1417|AV-procd|sdf|5765|dock7
  -GOLD-   22720 5403D 1   1.00000     0.00000
 Structure written by MMmdl.
 39 40  0  0  0  0  0  0  0  0  1 V2000
  153.4981  142.0498  161.1583 C   0  0  0  0  0  0  0  0  0  0  0  0
  152.7060  142.5174  159.9855 C   0  0  0  0  0  0  0  0  0  0  0  0
  151.8415  141.8870  159.1355 C   0  0  0  0  0  0  0  0  0  0  0  0
  151.4501  142.9301  158.2462 C   0  0  0  0  0  0  0  0  0  0  0  0
  150.5561  142.8109  157.1508 N   0  0  0  0  0  0  0  0  0  0  0  0
  150.3470  141.7491  156.3544 C   0  0  0  0  0  0  0  0  0  0  0  0
  150.8988  140.6544  156.4648 O   0  0  0  0  0  0  0  0  0  0  0  0
  149.4440  142.0288  155.4033 N   0  0  0  0  0  0  0  0  0  0  0  0
  148.9929  141.1020  154.3694 C   0  0  0  0  0  0  0  0  0  0  0  0
  147.6987  141.6040  153.7070 C   0  0  0  0  0  0  0  0  0  0  0  0
  147.1303  140.5644  152.7254 C   0  0  0  0  0  0  0  0  0  0  0  0
  146.8776  139.2900  153.4135 N   0  0  0  0  0  0  0  0  0  0  0  0
  146.2553  138.2817  152.5246 C   0  0  0  0  0  0  0  0  0  0  0  0
  145.8402  136.9806  153.2221 C   0  0  0  0  0  0  0  0  0  0  0  0
  146.5303  135.8790  152.9153 N   0  0  0  0  0  0  0  0  0  0  0  0
  144.9049  136.9707  154.0191 O   0  0  0  0  0  0  0  0  0  0  0  0
  148.1303  138.7525  153.9542 C   0  0  0  0  0  0  0  0  0  0  0  0
  148.7327  139.7207  154.9873 C   0  0  0  0  0  0  0  0  0  0  0  0
  152.0260  144.0835  158.5312 N   0  0  0  0  0  0  0  0  0  0  0  0
  152.8314  143.8285  159.6473 O   0  0  0  0  0  0  0  0  0  0  0  0
  153.4976  140.9615  161.2203 H   0  0  0  0  0  0  0  0  0  0  0  0
  153.0816  142.4420  162.0862 H   0  0  0  0  0  0  0  0  0  0  0  0
  154.5334  142.3830  161.0840 H   0  0  0  0  0  0  0  0  0  0  0  0
  151.5505  140.8477  159.1593 H   0  0  0  0  0  0  0  0  0  0  0  0
  150.0138  143.6372  156.9467 H   0  0  0  0  0  0  0  0  0  0  0  0
  149.0402  142.9539  155.3891 H   0  0  0  0  0  0  0  0  0  0  0  0
  149.7708  141.0010  153.6097 H   0  0  0  0  0  0  0  0  0  0  0  0
  146.9512  141.8257  154.4706 H   0  0  0  0  0  0  0  0  0  0  0  0
  147.8851  142.5392  153.1781 H   0  0  0  0  0  0  0  0  0  0  0  0
  146.2111  140.9693  152.3025 H   0  0  0  0  0  0  0  0  0  0  0  0
  147.8195  140.4132  151.8926 H   0  0  0  0  0  0  0  0  0  0  0  0
  145.3838  138.7148  152.0298 H   0  0  0  0  0  0  0  0  0  0  0  0
  146.9569  138.0111  151.7341 H   0  0  0  0  0  0  0  0  0  0  0  0
  146.2859  134.9988  153.3452 H   0  0  0  0  0  0  0  0  0  0  0  0
  147.2877  135.9290  152.2496 H   0  0  0  0  0  0  0  0  0  0  0  0
  147.9417  137.7945  154.4408 H   0  0  0  0  0  0  0  0  0  0  0  0
  148.8437  138.5644  153.1497 H   0  0  0  0  0  0  0  0  0  0  0  0
  149.6617  139.3075  155.3818 H   0  0  0  0  0  0  0  0  0  0  0  0
  148.0512  139.8126  155.8346 H   0  0  0  0  0  0  0  0  0  0  0  0
  1  2  1  0  0  0  0
  1 21  1  0  0  0  0
  1 22  1  0  0  0  0
  1 23  1  0  0  0  0
  2 20  1  0  0  0  0
  2  3  2  0  0  0  0
  3  4  1  0  0  0  0
  3 24  1  0  0  0  0
  4  5  1  0  0  0  0
  4 19  2  0  0  0  0
  5  6  1  0  0  0  0
  5 25  1  0  0  0  0
  6  7  2  0  0  0  0
  6  8  1  0  0  0  0
  8  9  1  0  0  0  0
  8 26  1  0  0  0  0
  9 18  1  0  0  0  0
  9 10  1  0  0  0  0
  9 27  1  0  0  0  0
 10 11  1  0  0  0  0
 10 28  1  0  0  0  0
 10 29  1  0  0  0  0
 11 12  1  0  0  0  0
 11 30  1  0  0  0  0
 11 31  1  0  0  0  0
 12 13  1  0  0  0  0
 12 17  1  0  0  0  0
 13 14  1  0  0  0  0
 13 32  1  0  0  0  0
 13 33  1  0  0  0  0
 14 15  1  0  0  0  0
 14 16  2  0  0  0  0
 15 34  1  0  0  0  0
 15 35  1  0  0  0  0
 17 18  1  0  0  0  0
 17 36  1  0  0  0  0
 17 37  1  0  0  0  0
 18 38  1  0  0  0  0
 18 39  1  0  0  0  0
 19 20  1  0  0  0  0
M  END
> <s_m_source_file>
AV-unprocessed.smi

> <i_m_source_file_index>
1417

> <i_lp_mmshare_version>
43012

> <i_f3d_flags>
0

> <s_epik_input>
W0NIM11jMVtjSF1jKG5vMSlbTkhdQyg9TylbTkhdW0NIXTJbQ0gyXVtDSDJdTihbQ0gyXVtDSDJdMilbQ0gyXUMoPU8pW05IMl0=

> <s_epik_cmdline>
J2VwaWtfcHl0aG9uJywgJy1waCcsICc3LjAnLCAnLXRuJywgJzgnLCAnLW1hJywgJzIwMCcsICctbWV0YWxfYmluZGluZycsICctaW1hZScsICc8aW5maWxlLm1hZT4nLCAnLW9tYWUnLCAnPG91dGZpbGUubWFlPic=

> <r_epik_Ionization_Penalty>
0.155825

> <r_epik_Ionization_Penalty_Charging>
0

> <r_epik_Ionization_Penalty_Neutral>
0.155825

> <r_epik_State_Penalty>
0.145092

> <r_epik_Charging_Adjusted_Penalty>
0.145092

> <i_epik_Tot_Q>
0

> <i_epik_Tot_abs_Q>
0

> <r_epik_Metal_State_Penalty>
0.171119

> <b_epik_Metal_Only>
0

> <s_lp_Force_Field>
OPLS_2005

> <r_lp_Energy>
11.4398

> <b_lp_Chiralities_Consistent>
1

> <s_lp_Variant>
AV-unprocessed.smi:1417-1

> <Gold.Version>
5.8.1

> <Gold.Id.Protein>
6NUR|6NUR_protein|mol2

> <Gold.PLP.Fitness>
42.1251

> <Gold.PLP.PLP>
-34.1772

> <Gold.PLP.part.hbond>
-3.0000

> <Gold.PLP.part.metal>
0.0000

> <Gold.PLP.part.buried>
-6.7712

> <Gold.PLP.part.nonpolar>
-26.3367

> <Gold.PLP.part.repulsive>
0.5593

> <Gold.PLP.ligand.clash>
0.0000

> <Gold.PLP.ligand.torsion>
0.5077

> <Gold.PLP.Chemscore.Hbond>
2.9833

> <Gold.PLP.Chemscore.CHOScore>
0.0000

> <Gold.PLP.Chemscore.Metal>
0.0000

> <Gold.Chemscore.Hbonds>
donor molecule, donor type, donor heavy atom, donor atom, acceptor molecule, acceptor atom, score
      L1  H     5    25       P1  8028  1.00
      L1  H     8    26       P1  8028  1.00
      L1  H    15    35       P1  7948  1.00

> <Gold.PLP.Chemscore.Internal.Correction>
0.0136

> <Gold.Rescore>
     Score         DG    S(hbond)    S(metal)    S(lipo)     H(rot)  DE(clash)    DE(int)     intcor
     16.51     -18.60       2.94        0.00      72.55       2.02       0.13       1.96       ----

> <Gold.Chemscore.Fitness>
16.5112

> <Gold.Chemscore.DG>
-18.5965

> <Gold.Chemscore.ZeroCoef>
-5.4800

> <Gold.Chemscore.Hbond>
2.9353

> <Gold.Chemscore.Metal>
0.0000

> <Gold.Chemscore.Lipo>
72.5476

> <Gold.Chemscore.Internal_Hbond>
0.0000

> <Gold.Chemscore.DEClash>
0.1290

> <Gold.Chemscore.DEInternal>
1.9563

> <Gold.Chemscore.Rot>
2.0217

> <Gold.Chemscore.Internal.Correction>
   9.000000E+99

> <Gold.Chemscore.Hbonds>
donor molecule, donor type, donor heavy atom, donor atom, acceptor molecule, acceptor atom, score
      L1  H     5    25       P1  8028  0.90
      L1  H     8    26       P1  8028  1.00
      L1  H    15    35       P1  7948  0.97

> <Gold.Chemscore.Hbond.Weighted>
-9.8039

> <Gold.Chemscore.Metal.Weighted>
-0.0000

> <Gold.Chemscore.Lipo.Weighted>
-8.4881

> <Gold.Chemscore.Internal_Hbond.Weighted>
0.0000

> <Gold.Chemscore.DEClash.Weighted>
0.1290

> <Gold.Chemscore.DEInternal.Weighted>
1.9563

> <Gold.Chemscore.Rot.Weighted>
5.1755

> <Gold.Chemscore.Internal.Correction.Weighted>
   9.000000E+99

> <Gold.Protein.RotatedTorsions>
[ 6907 6896 6895 6894 ] final   55.30 input  -60.11 | X-H torsion
[ 7974 7965 7964 7962 ] final -167.24 input  175.53 | X-H torsion
[ 8008 7997 7996 7995 ] final   53.59 input   59.86 | X-H torsion
[ 10167 10162 10161 10158 ] final -115.93 input  -65.29 | X-H torsion
[ 10718 10713 10712 10709 ] final  110.58 input   66.30 | X-H torsion
[ 10763 10752 10751 10750 ] final  -94.68 input  -60.55 | X-H torsion
[ 11005 11000 10999 10996 ] final   13.95 input  -57.11 | X-H torsion

> <Gold.Protein.ActiveResidues>
 VAL166  LYS551  ARG553  GLY616  TRP617  ASP618  TYR619  PRO620  LYS621  CYS622 
 ASP623  PHE694  ASN695  SER759  ASP760  ASP761  ALA762  ILE779  LEU786  VAL792 
 PHE793  MET794  SER795  GLU796  ALA797  LYS798  CYS799  TRP800  GLU811  SER814 

> <Gold.Protein.RotatedAtoms>
  152.3524  134.6986  160.0231 H   0  0  0  0  0  0  0  0  0  0  0  0  # atno 6907 bound_to 6896
  151.7336  133.3313  159.3355 H   0  0  0  0  0  0  0  0  0  0  0  0  # atno 6908 bound_to 6896
  150.7549  134.6275  159.6213 H   0  0  0  0  0  0  0  0  0  0  0  0  # atno 6909 bound_to 6896
  144.7227  140.2548  143.6273 H   0  0  0  0  0  0  0  0  0  0  0  0  # atno 7974 bound_to 7965
  155.4708  140.3465  155.4325 H   0  0  0  0  0  0  0  0  0  0  0  0  # atno 8008 bound_to 7997
  156.1101  140.1458  156.9379 H   0  0  0  0  0  0  0  0  0  0  0  0  # atno 8009 bound_to 7997
  154.4751  140.0888  156.7220 H   0  0  0  0  0  0  0  0  0  0  0  0  # atno 8010 bound_to 7997
  140.0847  143.4755  152.1905 H   0  0  0  0  0  0  0  0  0  0  0  0  # atno 10167 bound_to 10162
  157.6487  131.0935  150.6622 H   0  0  0  0  0  0  0  0  0  0  0  0  # atno 10718 bound_to 10713
  154.7078  135.5148  153.8621 H   0  0  0  0  0  0  0  0  0  0  0  0  # atno 10763 bound_to 10752
  153.0755  135.6615  154.0163 H   0  0  0  0  0  0  0  0  0  0  0  0  # atno 10764 bound_to 10752
  154.0011  135.3011  155.3382 H   0  0  0  0  0  0  0  0  0  0  0  0  # atno 10765 bound_to 10752
  140.4750  134.0992  155.7740 H   0  0  0  0  0  0  0  0  0  0  0  0  # atno 11005 bound_to 11000
  145.8193  139.2036  143.1947 LP  0  0  0  0  0  0  0  0  0  0  0  0  # atno 17320 bound_to 7965
  146.0528  140.8052  142.9773 LP  0  0  0  0  0  0  0  0  0  0  0  0  # atno 17321 bound_to 7965
  139.5759  144.7487  151.3766 LP  0  0  0  0  0  0  0  0  0  0  0  0  # atno 17342 bound_to 10162
  140.7060  143.7513  150.7482 LP  0  0  0  0  0  0  0  0  0  0  0  0  # atno 17343 bound_to 10162
  156.6936  130.4602  149.5593 LP  0  0  0  0  0  0  0  0  0  0  0  0  # atno 17370 bound_to 10713
  156.1844  130.6520  151.0990 LP  0  0  0  0  0  0  0  0  0  0  0  0  # atno 17371 bound_to 10713
  141.1558  133.8884  157.1979 LP  0  0  0  0  0  0  0  0  0  0  0  0  # atno 17394 bound_to 11000
  139.9861  135.0081  156.9866 LP  0  0  0  0  0  0  0  0  0  0  0  0  # atno 17395 bound_to 11000

$$$$
