AV-unprocessed.smi:2821|AV-procd|sdf|10857|dock10
  -GOLD-   2272015303D 1   1.00000     0.00000
 Structure written by MMmdl.
 36 37  0  0  0  0  0  0  0  0  1 V2000
  152.8301  142.7144  162.4956 C   0  0  0  0  0  0  0  0  0  0  0  0
  153.5481  141.9128  161.4077 C   0  0  0  0  0  0  0  0  0  0  0  0
  152.5846  141.4554  160.4632 O   0  0  0  0  0  0  0  0  0  0  0  0
  152.1899  142.3206  159.4636 C   0  0  0  0  0  0  0  0  0  0  0  0
  152.7790  143.5998  159.3742 C   0  0  0  0  0  0  0  0  0  0  0  0
  152.4389  144.4774  158.4045 N   0  0  0  0  0  0  0  0  0  0  0  0
  151.5048  144.0682  157.5176 C   0  0  0  0  0  0  0  0  0  0  0  0
  150.9046  142.7920  157.5951 C   0  0  0  0  0  0  0  0  0  0  0  0
  149.9424  142.4254  156.6417 N   0  0  0  0  0  0  0  0  0  0  0  0
  149.4924  141.0452  156.4791 C   0  0  1  0  0  0  0  0  0  0  0  0
  147.9639  141.0407  156.3132 C   0  0  0  0  0  0  0  0  0  0  0  0
  150.2003  140.3650  155.2836 C   0  0  2  0  0  0  0  0  0  0  0  0
  149.8019  138.9034  155.0629 C   0  0  0  0  0  0  0  0  0  0  0  0
  151.0039  138.3552  154.3304 C   0  0  0  0  0  0  0  0  0  0  0  0
  152.1460  139.0662  155.0452 C   0  0  0  0  0  0  0  0  0  0  0  0
  151.6143  140.3153  155.4766 O   0  0  0  0  0  0  0  0  0  0  0  0
  151.2438  141.9227  158.5767 N   0  0  0  0  0  0  0  0  0  0  0  0
  153.5377  143.0816  163.2392 H   0  0  0  0  0  0  0  0  0  0  0  0
  152.0912  142.1004  163.0109 H   0  0  0  0  0  0  0  0  0  0  0  0
  152.3145  143.5759  162.0706 H   0  0  0  0  0  0  0  0  0  0  0  0
  154.2910  142.5455  160.9190 H   0  0  0  0  0  0  0  0  0  0  0  0
  154.0694  141.0670  161.8588 H   0  0  0  0  0  0  0  0  0  0  0  0
  153.5308  143.9182  160.0810 H   0  0  0  0  0  0  0  0  0  0  0  0
  151.2360  144.7671  156.7389 H   0  0  0  0  0  0  0  0  0  0  0  0
  149.6399  143.1094  155.9634 H   0  0  0  0  0  0  0  0  0  0  0  0
  149.7166  140.4837  157.3865 H   0  0  0  0  0  0  0  0  0  0  0  0
  147.5678  140.0264  156.2648 H   0  0  0  0  0  0  0  0  0  0  0  0
  147.6605  141.5606  155.4037 H   0  0  0  0  0  0  0  0  0  0  0  0
  147.4778  141.5338  157.1557 H   0  0  0  0  0  0  0  0  0  0  0  0
  150.0126  140.9245  154.3657 H   0  0  0  0  0  0  0  0  0  0  0  0
  149.6829  138.3891  156.0178 H   0  0  0  0  0  0  0  0  0  0  0  0
  148.8759  138.7947  154.4975 H   0  0  0  0  0  0  0  0  0  0  0  0
  151.0801  137.2685  154.3785 H   0  0  0  0  0  0  0  0  0  0  0  0
  150.9714  138.6528  153.2815 H   0  0  0  0  0  0  0  0  0  0  0  0
  152.4571  138.5013  155.9248 H   0  0  0  0  0  0  0  0  0  0  0  0
  153.0169  139.2032  154.4041 H   0  0  0  0  0  0  0  0  0  0  0  0
  1  2  1  0  0  0  0
  1 18  1  0  0  0  0
  1 19  1  0  0  0  0
  1 20  1  0  0  0  0
  2  3  1  0  0  0  0
  2 21  1  0  0  0  0
  2 22  1  0  0  0  0
  3  4  1  0  0  0  0
  4 17  1  0  0  0  0
  4  5  2  0  0  0  0
  5  6  1  0  0  0  0
  5 23  1  0  0  0  0
  6  7  2  0  0  0  0
  7  8  1  0  0  0  0
  7 24  1  0  0  0  0
  8  9  1  0  0  0  0
  8 17  2  0  0  0  0
  9 10  1  0  0  0  0
  9 25  1  0  0  0  0
 10 11  1  0  0  0  0
 10 12  1  0  0  0  0
 10 26  1  0  0  0  0
 11 27  1  0  0  0  0
 11 28  1  0  0  0  0
 11 29  1  0  0  0  0
 12 16  1  0  0  0  0
 12 13  1  0  0  0  0
 12 30  1  0  0  0  0
 13 14  1  0  0  0  0
 13 31  1  0  0  0  0
 13 32  1  0  0  0  0
 14 15  1  0  0  0  0
 14 33  1  0  0  0  0
 14 34  1  0  0  0  0
 15 16  1  0  0  0  0
 15 35  1  0  0  0  0
 15 36  1  0  0  0  0
M  END
> <s_m_source_file>
AV-unprocessed.smi

> <i_m_source_file_index>
2821

> <i_lp_mmshare_version>
43012

> <i_f3d_flags>
0

> <s_epik_input>
W0NIM11bQ0gyXU9jMVtjSF1uW2NIXWMobjEpW05IXVtDQEhdKFtDSDNdKVtDQEBIXTJbQ0gyXVtDSDJdW0NIMl1PMg==

> <s_epik_cmdline>
J2VwaWtfcHl0aG9uJywgJy1waCcsICc3LjAnLCAnLXRuJywgJzgnLCAnLW1hJywgJzIwMCcsICctbWV0YWxfYmluZGluZycsICctaW1hZScsICc8aW5maWxlLm1hZT4nLCAnLW9tYWUnLCAnPG91dGZpbGUubWFlPic=

> <r_lp_tautomer_probability>
1

> <r_epik_Ionization_Penalty>
4.69533e-05

> <r_epik_Ionization_Penalty_Charging>
0

> <r_epik_Ionization_Penalty_Neutral>
4.69533e-05

> <r_epik_State_Penalty>
-0

> <r_epik_Charging_Adjusted_Penalty>
0

> <i_epik_Tot_Q>
0

> <i_epik_Tot_abs_Q>
0

> <r_epik_Metal_State_Penalty>
-0

> <b_epik_Metal_Only>
0

> <s_lp_Force_Field>
OPLS_2005

> <r_lp_Energy>
28.2268

> <b_lp_Chiralities_Consistent>
1

> <s_lp_Variant>
AV-unprocessed.smi:2821-2

> <Gold.Version>
5.8.1

> <Gold.Id.Protein>
6NUR|6NUR_protein|mol2

> <Gold.PLP.Fitness>
43.7104

> <Gold.PLP.PLP>
-38.9063

> <Gold.PLP.part.hbond>
-2.0000

> <Gold.PLP.part.metal>
0.0000

> <Gold.PLP.part.buried>
-6.3212

> <Gold.PLP.part.nonpolar>
-32.0028

> <Gold.PLP.part.repulsive>
0.1007

> <Gold.PLP.ligand.clash>
0.0000

> <Gold.PLP.ligand.torsion>
0.4231

> <Gold.PLP.Chemscore.Hbond>
1.0356

> <Gold.PLP.Chemscore.CHOScore>
0.8402

> <Gold.PLP.Chemscore.Metal>
0.0000

> <Gold.Chemscore.Hbonds>
donor molecule, donor type, donor heavy atom, donor atom, acceptor molecule, acceptor atom, score
      L1  H     9    25       P1  8028  0.96
      P1  H  7989  7998       L1    16  0.04
      L1  C     7    24       P1  8028  0.81

> <Gold.PLP.Chemscore.Internal.Correction>
0.0230

> <Gold.Rescore>
     Score         DG    S(hbond)    S(metal)    S(lipo)     H(rot)  DE(clash)    DE(int)     intcor
     14.28     -14.64       0.98        0.00      84.25       1.55       0.02       0.33       ----

> <Gold.Chemscore.Fitness>
14.2833

> <Gold.Chemscore.DG>
-14.6368

> <Gold.Chemscore.ZeroCoef>
-5.4800

> <Gold.Chemscore.Hbond>
0.9795

> <Gold.Chemscore.Metal>
0.0000

> <Gold.Chemscore.Lipo>
84.2450

> <Gold.Chemscore.Internal_Hbond>
0.0000

> <Gold.Chemscore.DEClash>
0.0202

> <Gold.Chemscore.DEInternal>
0.3333

> <Gold.Chemscore.Rot>
1.5514

> <Gold.Chemscore.Internal.Correction>
   9.000000E+99

> <Gold.Chemscore.Hbonds>
donor molecule, donor type, donor heavy atom, donor atom, acceptor molecule, acceptor atom, score
      L1  H     9    25       P1  8028  0.92

> <Gold.Chemscore.Hbond.Weighted>
-3.2717

> <Gold.Chemscore.Metal.Weighted>
-0.0000

> <Gold.Chemscore.Lipo.Weighted>
-9.8567

> <Gold.Chemscore.Internal_Hbond.Weighted>
0.0000

> <Gold.Chemscore.DEClash.Weighted>
0.0202

> <Gold.Chemscore.DEInternal.Weighted>
0.3333

> <Gold.Chemscore.Rot.Weighted>
3.9715

> <Gold.Chemscore.Internal.Correction.Weighted>
   9.000000E+99

> <Gold.Protein.RotatedTorsions>
[ 6907 6896 6895 6894 ] final  -57.89 input  -60.11 | X-H torsion
[ 7974 7965 7964 7962 ] final  167.33 input  175.53 | X-H torsion
[ 8008 7997 7996 7995 ] final   54.93 input   59.86 | X-H torsion
[ 10167 10162 10161 10158 ] final   56.39 input  -65.29 | X-H torsion
[ 10718 10713 10712 10709 ] final  176.32 input   66.30 | X-H torsion
[ 10763 10752 10751 10750 ] final   53.43 input  -60.55 | X-H torsion
[ 11005 11000 10999 10996 ] final   -4.03 input  -57.11 | X-H torsion

> <Gold.Protein.ActiveResidues>
 VAL166  LYS551  ARG553  GLY616  TRP617  ASP618  TYR619  PRO620  LYS621  CYS622 
 ASP623  PHE694  ASN695  SER759  ASP760  ASP761  ALA762  ILE779  LEU786  VAL792 
 PHE793  MET794  SER795  GLU796  ALA797  LYS798  CYS799  TRP800  GLU811  SER814 

> <Gold.Protein.RotatedAtoms>
  150.8050  134.7169  159.6635 H   0  0  0  0  0  0  0  0  0  0  0  0  # atno 6907 bound_to 6896
  152.4169  134.6022  160.0013 H   0  0  0  0  0  0  0  0  0  0  0  0  # atno 6908 bound_to 6896
  151.6249  133.3299  159.3132 H   0  0  0  0  0  0  0  0  0  0  0  0  # atno 6909 bound_to 6896
  144.7428  139.8745  143.6391 H   0  0  0  0  0  0  0  0  0  0  0  0  # atno 7974 bound_to 7965
  155.4928  140.3472  155.4358 H   0  0  0  0  0  0  0  0  0  0  0  0  # atno 8008 bound_to 7997
  156.0966  140.1424  156.9551 H   0  0  0  0  0  0  0  0  0  0  0  0  # atno 8009 bound_to 7997
  154.4667  140.0915  156.7016 H   0  0  0  0  0  0  0  0  0  0  0  0  # atno 8010 bound_to 7997
  140.2093  144.3906  150.6496 H   0  0  0  0  0  0  0  0  0  0  0  0  # atno 10167 bound_to 10162
  156.9219  130.9943  151.3003 H   0  0  0  0  0  0  0  0  0  0  0  0  # atno 10718 bound_to 10713
  152.9795  135.5779  154.4740 H   0  0  0  0  0  0  0  0  0  0  0  0  # atno 10763 bound_to 10752
  154.4299  135.2773  155.1921 H   0  0  0  0  0  0  0  0  0  0  0  0  # atno 10764 bound_to 10752
  154.3634  135.6183  153.5756 H   0  0  0  0  0  0  0  0  0  0  0  0  # atno 10765 bound_to 10752
  140.6758  133.9197  155.8523 H   0  0  0  0  0  0  0  0  0  0  0  0  # atno 11005 bound_to 11000
  146.1256  139.4282  143.0201 LP  0  0  0  0  0  0  0  0  0  0  0  0  # atno 17320 bound_to 7965
  145.7239  141.0065  143.1387 LP  0  0  0  0  0  0  0  0  0  0  0  0  # atno 17321 bound_to 7965
  140.6335  143.2191  151.6445 LP  0  0  0  0  0  0  0  0  0  0  0  0  # atno 17342 bound_to 10162
  139.5186  144.3278  152.0853 LP  0  0  0  0  0  0  0  0  0  0  0  0  # atno 17343 bound_to 10162
  157.5902  130.8438  149.8648 LP  0  0  0  0  0  0  0  0  0  0  0  0  # atno 17370 bound_to 10713
  156.0487  130.3722  150.1254 LP  0  0  0  0  0  0  0  0  0  0  0  0  # atno 17371 bound_to 10713
  141.0357  134.0693  157.3962 LP  0  0  0  0  0  0  0  0  0  0  0  0  # atno 17394 bound_to 11000
  139.8967  135.0147  156.7065 LP  0  0  0  0  0  0  0  0  0  0  0  0  # atno 17395 bound_to 11000

$$$$
