AV-unprocessed.smi:2702|AV-procd|sdf|10436|dock8
  -GOLD-   2272014473D 1   1.00000     0.00000
 Structure written by MMmdl.
 47 48  0  0  0  0  0  0  0  0  1 V2000
  151.2506  136.8551  154.3867 C   0  0  0  0  0  0  0  0  0  0  0  0
  152.1623  136.6398  155.4492 O   0  0  0  0  0  0  0  0  0  0  0  0
  151.5146  136.5089  156.7031 C   0  0  0  0  0  0  0  0  0  0  0  0
  152.3808  137.0803  157.8072 C   0  0  0  0  0  0  0  0  0  0  0  0
  153.5152  137.7685  157.5417 C   0  0  0  0  0  0  0  0  0  0  0  0
  154.3380  138.2987  158.6286 C   0  0  0  0  0  0  0  0  0  0  0  0
  155.3718  138.9371  158.4275 O   0  0  0  0  0  0  0  0  0  0  0  0
  153.8716  138.0339  159.8850 N   0  0  0  0  0  0  0  0  0  0  0  0
  154.5909  138.5084  161.0811 C   0  0  0  0  0  0  0  0  0  0  0  0
  154.6448  140.0392  161.1755 C   0  0  0  0  0  0  0  0  0  0  0  0
  155.6363  140.6027  161.6402 O   0  0  0  0  0  0  0  0  0  0  0  0
  153.5596  140.6964  160.7393 N   0  0  0  0  0  0  0  0  0  0  0  0
  153.4082  142.1489  160.7029 C   0  0  2  0  0  0  0  0  0  0  0  0
  152.3852  142.5931  161.7663 C   0  0  0  0  0  0  0  0  0  0  0  0
  152.2257  144.1207  161.7813 C   0  0  0  0  0  0  0  0  0  0  0  0
  151.8627  144.6641  160.3904 C   0  0  0  0  0  0  0  0  0  0  0  0
  152.8814  144.2125  159.3243 C   0  0  2  0  0  0  0  0  0  0  0  0
  152.5833  144.8340  157.9498 C   0  0  0  0  0  0  0  0  0  0  0  0
  153.0251  142.6679  159.2885 C   0  0  2  0  0  0  0  0  0  0  0  0
  151.7981  141.9445  158.6851 C   0  0  0  0  0  0  0  0  0  0  0  0
  152.6927  137.2941  160.1056 C   0  0  0  0  0  0  0  0  0  0  0  0
  151.9796  136.8386  159.1251 N   0  0  0  0  0  0  0  0  0  0  0  0
  151.7966  136.9410  153.4473 H   0  0  0  0  0  0  0  0  0  0  0  0
  150.6853  137.7765  154.5329 H   0  0  0  0  0  0  0  0  0  0  0  0
  150.5492  136.0248  154.2937 H   0  0  0  0  0  0  0  0  0  0  0  0
  150.5582  137.0344  156.6886 H   0  0  0  0  0  0  0  0  0  0  0  0
  151.3025  135.4586  156.9095 H   0  0  0  0  0  0  0  0  0  0  0  0
  153.8193  137.9371  156.5189 H   0  0  0  0  0  0  0  0  0  0  0  0
  154.1138  138.1022  161.9754 H   0  0  0  0  0  0  0  0  0  0  0  0
  155.6152  138.1331  161.1133 H   0  0  0  0  0  0  0  0  0  0  0  0
  152.7896  140.1509  160.3800 H   0  0  0  0  0  0  0  0  0  0  0  0
  154.3694  142.5877  160.9783 H   0  0  0  0  0  0  0  0  0  0  0  0
  151.4177  142.1261  161.5792 H   0  0  0  0  0  0  0  0  0  0  0  0
  152.7016  142.2532  162.7530 H   0  0  0  0  0  0  0  0  0  0  0  0
  151.4617  144.4083  162.5041 H   0  0  0  0  0  0  0  0  0  0  0  0
  153.1564  144.5786  162.1185 H   0  0  0  0  0  0  0  0  0  0  0  0
  150.8602  144.3345  160.1164 H   0  0  0  0  0  0  0  0  0  0  0  0
  151.8241  145.7532  160.4288 H   0  0  0  0  0  0  0  0  0  0  0  0
  153.8525  144.6082  159.6272 H   0  0  0  0  0  0  0  0  0  0  0  0
  151.5780  144.5926  157.6052 H   0  0  0  0  0  0  0  0  0  0  0  0
  153.2909  144.4843  157.1977 H   0  0  0  0  0  0  0  0  0  0  0  0
  152.6593  145.9210  157.9911 H   0  0  0  0  0  0  0  0  0  0  0  0
  153.8625  142.4458  158.6255 H   0  0  0  0  0  0  0  0  0  0  0  0
  150.8926  142.1178  159.2653 H   0  0  0  0  0  0  0  0  0  0  0  0
  151.9530  140.8668  158.6341 H   0  0  0  0  0  0  0  0  0  0  0  0
  151.6030  142.2716  157.6646 H   0  0  0  0  0  0  0  0  0  0  0  0
  152.4291  137.1313  161.1520 H   0  0  0  0  0  0  0  0  0  0  0  0
  1  2  1  0  0  0  0
  1 23  1  0  0  0  0
  1 24  1  0  0  0  0
  1 25  1  0  0  0  0
  2  3  1  0  0  0  0
  3  4  1  0  0  0  0
  3 26  1  0  0  0  0
  3 27  1  0  0  0  0
  4 22  1  0  0  0  0
  4  5  2  0  0  0  0
  5  6  1  0  0  0  0
  5 28  1  0  0  0  0
  6  7  2  0  0  0  0
  6  8  1  0  0  0  0
  8  9  1  0  0  0  0
  8 21  1  0  0  0  0
  9 10  1  0  0  0  0
  9 29  1  0  0  0  0
  9 30  1  0  0  0  0
 10 11  2  0  0  0  0
 10 12  1  0  0  0  0
 12 13  1  0  0  0  0
 12 31  1  0  0  0  0
 13 19  1  0  0  0  0
 13 14  1  0  0  0  0
 13 32  1  0  0  0  0
 14 15  1  0  0  0  0
 14 33  1  0  0  0  0
 14 34  1  0  0  0  0
 15 16  1  0  0  0  0
 15 35  1  0  0  0  0
 15 36  1  0  0  0  0
 16 17  1  0  0  0  0
 16 37  1  0  0  0  0
 16 38  1  0  0  0  0
 17 18  1  0  0  0  0
 17 19  1  0  0  0  0
 17 39  1  0  0  0  0
 18 40  1  0  0  0  0
 18 41  1  0  0  0  0
 18 42  1  0  0  0  0
 19 20  1  0  0  0  0
 19 43  1  0  0  0  0
 20 44  1  0  0  0  0
 20 45  1  0  0  0  0
 20 46  1  0  0  0  0
 21 22  2  0  0  0  0
 21 47  1  0  0  0  0
M  END
> <s_m_source_file>
AV-unprocessed.smi

> <i_m_source_file_index>
2702

> <i_lp_mmshare_version>
43012

> <i_f3d_flags>
0

> <s_epik_input>
W0NIM11PW0NIMl1jMVtjSF1jKD1PKW4oW2NIXW4xKVtDSDJdQyg9TylbTkhdW0NAQEhdMltDSDJdW0NIMl1bQ0gyXVtDQEBIXShbQ0gzXSlbQ0BIXTJbQ0gzXQ==

> <s_epik_cmdline>
J2VwaWtfcHl0aG9uJywgJy1waCcsICc3LjAnLCAnLXRuJywgJzgnLCAnLW1hJywgJzIwMCcsICctbWV0YWxfYmluZGluZycsICctaW1hZScsICc8aW5maWxlLm1hZT4nLCAnLW9tYWUnLCAnPG91dGZpbGUubWFlPic=

> <r_lp_tautomer_probability>
1

> <r_epik_Ionization_Penalty>
1.22164e-06

> <r_epik_Ionization_Penalty_Charging>
3.17988e-07

> <r_epik_Ionization_Penalty_Neutral>
9.03656e-07

> <r_epik_State_Penalty>
-0

> <r_epik_Charging_Adjusted_Penalty>
3.17988e-07

> <i_epik_Tot_Q>
0

> <i_epik_Tot_abs_Q>
0

> <r_epik_Metal_State_Penalty>
-0

> <b_epik_Metal_Only>
0

> <s_lp_Force_Field>
OPLS_2005

> <r_lp_Energy>
18.8167

> <b_lp_Chiralities_Consistent>
1

> <s_lp_Variant>
AV-unprocessed.smi:2702-7

> <Gold.Version>
5.8.1

> <Gold.Id.Protein>
6NUR|6NUR_protein|mol2

> <Gold.PLP.Fitness>
52.6729

> <Gold.PLP.PLP>
-45.4519

> <Gold.PLP.part.hbond>
-3.9093

> <Gold.PLP.part.metal>
0.0000

> <Gold.PLP.part.buried>
-5.6694

> <Gold.PLP.part.nonpolar>
-36.3902

> <Gold.PLP.part.repulsive>
0.0814

> <Gold.PLP.ligand.clash>
0.0000

> <Gold.PLP.ligand.torsion>
0.7210

> <Gold.PLP.Chemscore.Hbond>
2.8713

> <Gold.PLP.Chemscore.CHOScore>
0.0000

> <Gold.PLP.Chemscore.Metal>
0.0000

> <Gold.Chemscore.Hbonds>
donor molecule, donor type, donor heavy atom, donor atom, acceptor molecule, acceptor atom, score
      P1  H  6896  6907       L1    22  0.29
      P1  H  7997  8009       L1     7  0.96
      P1  H 10752 10764       L1     2  0.72

> <Gold.PLP.Chemscore.Internal.Correction>
0.0494

> <Gold.Rescore>
     Score         DG    S(hbond)    S(metal)    S(lipo)     H(rot)  DE(clash)    DE(int)     intcor
     18.51     -21.93       2.30        0.00     117.05       1.93       1.51       1.90       ----

> <Gold.Chemscore.Fitness>
18.5144

> <Gold.Chemscore.DG>
-21.9262

> <Gold.Chemscore.ZeroCoef>
-5.4800

> <Gold.Chemscore.Hbond>
2.3020

> <Gold.Chemscore.Metal>
0.0000

> <Gold.Chemscore.Lipo>
117.0467

> <Gold.Chemscore.Internal_Hbond>
0.0000

> <Gold.Chemscore.DEClash>
1.5133

> <Gold.Chemscore.DEInternal>
1.8986

> <Gold.Chemscore.Rot>
1.9284

> <Gold.Chemscore.Internal.Correction>
   9.000000E+99

> <Gold.Chemscore.Hbonds>
donor molecule, donor type, donor heavy atom, donor atom, acceptor molecule, acceptor atom, score
      P1  H  6896  6907       L1    22  0.01
      P1  H  7997  8009       L1     7  0.81
      P1  H 10752 10764       L1     2  0.54

> <Gold.Chemscore.Hbond.Weighted>
-7.6886

> <Gold.Chemscore.Metal.Weighted>
-0.0000

> <Gold.Chemscore.Lipo.Weighted>
-13.6945

> <Gold.Chemscore.Internal_Hbond.Weighted>
0.0000

> <Gold.Chemscore.DEClash.Weighted>
1.5133

> <Gold.Chemscore.DEInternal.Weighted>
1.8986

> <Gold.Chemscore.Rot.Weighted>
4.9368

> <Gold.Chemscore.Internal.Correction.Weighted>
   9.000000E+99

> <Gold.Protein.RotatedTorsions>
[ 6907 6896 6895 6894 ] final   30.31 input  -60.11 | X-H torsion
[ 7974 7965 7964 7962 ] final  109.30 input  175.53 | X-H torsion
[ 8008 7997 7996 7995 ] final  111.33 input   59.86 | X-H torsion
[ 10167 10162 10161 10158 ] final   57.43 input  -65.29 | X-H torsion
[ 10718 10713 10712 10709 ] final    1.52 input   66.30 | X-H torsion
[ 10763 10752 10751 10750 ] final  -20.06 input  -60.55 | X-H torsion
[ 11005 11000 10999 10996 ] final  108.43 input  -57.11 | X-H torsion

> <Gold.Protein.ActiveResidues>
 VAL166  LYS551  ARG553  GLY616  TRP617  ASP618  TYR619  PRO620  LYS621  CYS622 
 ASP623  PHE694  ASN695  SER759  ASP760  ASP761  ALA762  ILE779  LEU786  VAL792 
 PHE793  MET794  SER795  GLU796  ALA797  LYS798  CYS799  TRP800  GLU811  SER814 

> <Gold.Protein.RotatedAtoms>
  152.0441  134.9693  160.0573 H   0  0  0  0  0  0  0  0  0  0  0  0  # atno 6907 bound_to 6896
  152.1120  133.4301  159.4643 H   0  0  0  0  0  0  0  0  0  0  0  0  # atno 6908 bound_to 6896
  150.6844  134.2556  159.4571 H   0  0  0  0  0  0  0  0  0  0  0  0  # atno 6909 bound_to 6896
  145.2696  139.2671  143.3973 H   0  0  0  0  0  0  0  0  0  0  0  0  # atno 7974 bound_to 7965
  156.2116  140.3021  155.9746 H   0  0  0  0  0  0  0  0  0  0  0  0  # atno 8008 bound_to 7997
  155.2709  140.0433  157.3024 H   0  0  0  0  0  0  0  0  0  0  0  0  # atno 8009 bound_to 7997
  154.5708  140.2347  155.8203 H   0  0  0  0  0  0  0  0  0  0  0  0  # atno 8010 bound_to 7997
  140.1980  144.4017  150.6541 H   0  0  0  0  0  0  0  0  0  0  0  0  # atno 10167 bound_to 10162
  156.8494  130.5548  149.5671 H   0  0  0  0  0  0  0  0  0  0  0  0  # atno 10718 bound_to 10713
  153.6145  135.6995  153.5334 H   0  0  0  0  0  0  0  0  0  0  0  0  # atno 10763 bound_to 10752
  153.2989  135.4135  155.1234 H   0  0  0  0  0  0  0  0  0  0  0  0  # atno 10764 bound_to 10752
  154.8556  135.3644  154.5684 H   0  0  0  0  0  0  0  0  0  0  0  0  # atno 10765 bound_to 10752
  139.8844  134.9430  156.5971 H   0  0  0  0  0  0  0  0  0  0  0  0  # atno 11005 bound_to 11000
  146.3250  140.3135  142.8628 LP  0  0  0  0  0  0  0  0  0  0  0  0  # atno 17320 bound_to 7965
  144.9347  140.8013  143.5668 LP  0  0  0  0  0  0  0  0  0  0  0  0  # atno 17321 bound_to 7965
  140.6410  143.2203  151.6291 LP  0  0  0  0  0  0  0  0  0  0  0  0  # atno 17342 bound_to 10162
  139.5228  144.3151  152.0959 LP  0  0  0  0  0  0  0  0  0  0  0  0  # atno 17343 bound_to 10162
  156.0836  130.5840  150.9608 LP  0  0  0  0  0  0  0  0  0  0  0  0  # atno 17370 bound_to 10713
  157.6312  131.0921  150.8438 LP  0  0  0  0  0  0  0  0  0  0  0  0  # atno 17371 bound_to 10713
  140.7912  133.8581  155.8647 LP  0  0  0  0  0  0  0  0  0  0  0  0  # atno 17394 bound_to 11000
  140.9676  134.1574  157.4603 LP  0  0  0  0  0  0  0  0  0  0  0  0  # atno 17395 bound_to 11000

$$$$
