AV-unprocessed.smi:2061|AV-procd|sdf|8381|dock1
  -GOLD-   2272011 63D 1   1.00000     0.00000
 Structure written by MMmdl.
 45 46  0  0  0  0  0  0  0  0  3 V2000
  148.9249  140.8914  154.2924 C   0  0  0  0  0  0  0  0  0  0  0  0
  149.8664  139.7472  154.4537 C   0  0  0  0  0  0  0  0  0  0  0  0
  149.6960  138.3925  154.4102 C   0  0  0  0  0  0  0  0  0  0  0  0
  151.0039  137.8923  154.6558 C   0  0  0  0  0  0  0  0  0  0  0  0
  151.3584  136.5988  154.7024 N   0  5  0  0  0  0  0  0  0  0  0  0
  150.5171  135.6802  155.2286 C   0  0  0  0  0  0  0  0  0  0  0  0
  150.5364  135.2435  156.3819 O   0  0  0  0  0  0  0  0  0  0  0  0
  149.5887  135.2439  154.3658 N   0  0  0  0  0  0  0  0  0  0  0  0
  148.5386  134.2747  154.6637 C   0  0  0  0  0  0  0  0  0  0  0  0
  148.1160  133.4391  153.4264 C   0  0  1  0  0  0  0  0  0  0  0  0
  147.6220  132.0405  153.8706 C   0  0  0  0  0  0  0  0  0  0  0  0
  147.1136  134.1988  152.6107 N   0  3  1  0  0  0  0  0  0  0  0  0
  146.3334  133.3169  151.7013 C   0  0  0  0  0  0  0  0  0  0  0  0
  145.4035  134.1426  150.7943 C   0  0  1  0  0  0  0  0  0  0  0  0
  144.5475  133.2573  149.8815 C   0  0  0  0  0  0  0  0  0  0  0  0
  144.5296  134.9097  151.6117 O   0  0  0  0  0  0  0  0  0  0  0  0
  145.2321  135.8342  152.4315 C   0  0  1  0  0  0  0  0  0  0  0  0
  144.1991  136.6673  153.1985 C   0  0  0  0  0  0  0  0  0  0  0  0
  146.1782  135.0677  153.3767 C   0  0  0  0  0  0  0  0  0  0  0  0
  151.8928  138.8582  154.8150 N   0  0  0  0  0  0  0  0  0  0  0  0
  151.1702  140.0512  154.6943 O   0  0  0  0  0  0  0  0  0  0  0  0
  148.3015  140.7566  153.4086 H   0  0  0  0  0  0  0  0  0  0  0  0
  149.4642  141.8327  154.1844 H   0  0  0  0  0  0  0  0  0  0  0  0
  148.2695  140.9749  155.1595 H   0  0  0  0  0  0  0  0  0  0  0  0
  148.7816  137.8459  154.2355 H   0  0  0  0  0  0  0  0  0  0  0  0
  149.6114  135.6229  153.4304 H   0  0  0  0  0  0  0  0  0  0  0  0
  148.9114  133.6117  155.4448 H   0  0  0  0  0  0  0  0  0  0  0  0
  147.6992  134.8123  155.1032 H   0  0  0  0  0  0  0  0  0  0  0  0
  148.9908  133.2735  152.7957 H   0  0  0  0  0  0  0  0  0  0  0  0
  148.3633  131.5263  154.4824 H   0  0  0  0  0  0  0  0  0  0  0  0
  147.4373  131.3831  153.0210 H   0  0  0  0  0  0  0  0  0  0  0  0
  146.7064  132.1084  154.4586 H   0  0  0  0  0  0  0  0  0  0  0  0
  146.9926  132.7197  151.0739 H   0  0  0  0  0  0  0  0  0  0  0  0
  145.7459  132.6144  152.2952 H   0  0  0  0  0  0  0  0  0  0  0  0
  145.9969  134.8121  150.1689 H   0  0  0  0  0  0  0  0  0  0  0  0
  145.1717  132.6494  149.2262 H   0  0  0  0  0  0  0  0  0  0  0  0
  143.8967  133.8634  149.2505 H   0  0  0  0  0  0  0  0  0  0  0  0
  143.9159  132.5840  150.4618 H   0  0  0  0  0  0  0  0  0  0  0  0
  145.8136  136.5055  151.7971 H   0  0  0  0  0  0  0  0  0  0  0  0
  144.6841  137.4084  153.8340 H   0  0  0  0  0  0  0  0  0  0  0  0
  143.5766  136.0371  153.8345 H   0  0  0  0  0  0  0  0  0  0  0  0
  143.5403  137.1993  152.5117 H   0  0  0  0  0  0  0  0  0  0  0  0
  145.6050  134.4570  154.0763 H   0  0  0  0  0  0  0  0  0  0  0  0
  146.7272  135.8070  153.9592 H   0  0  0  0  0  0  0  0  0  0  0  0
  147.6496  134.8236  152.0254 H   0  0  0  0  0  0  0  0  0  0  0  0
  1  2  1  0  0  0  0
  1 22  1  0  0  0  0
  1 23  1  0  0  0  0
  1 24  1  0  0  0  0
  2 21  1  0  0  0  0
  2  3  2  0  0  0  0
  3  4  1  0  0  0  0
  3 25  1  0  0  0  0
  4  5  1  0  0  0  0
  4 20  2  0  0  0  0
  5  6  1  0  0  0  0
  6  7  2  0  0  0  0
  6  8  1  0  0  0  0
  8  9  1  0  0  0  0
  8 26  1  0  0  0  0
  9 10  1  0  0  0  0
  9 27  1  0  0  0  0
  9 28  1  0  0  0  0
 10 11  1  0  0  0  0
 10 12  1  0  0  0  0
 10 29  1  0  0  0  0
 11 30  1  0  0  0  0
 11 31  1  0  0  0  0
 11 32  1  0  0  0  0
 12 19  1  0  0  0  0
 12 13  1  0  0  0  0
 12 45  1  0  0  0  0
 13 14  1  0  0  0  0
 13 33  1  0  0  0  0
 13 34  1  0  0  0  0
 14 15  1  0  0  0  0
 14 16  1  0  0  0  0
 14 35  1  0  0  0  0
 15 36  1  0  0  0  0
 15 37  1  0  0  0  0
 15 38  1  0  0  0  0
 16 17  1  0  0  0  0
 17 18  1  0  0  0  0
 17 19  1  0  0  0  0
 17 39  1  0  0  0  0
 18 40  1  0  0  0  0
 18 41  1  0  0  0  0
 18 42  1  0  0  0  0
 19 43  1  0  0  0  0
 19 44  1  0  0  0  0
 20 21  1  0  0  0  0
M  CHG  1   5  -1
M  CHG  1  12   1
M  END
> <s_m_source_file>
AV-unprocessed.smi

> <i_m_source_file_index>
2061

> <i_lp_mmshare_version>
43012

> <i_f3d_flags>
0

> <s_epik_input>
W0NIM11jMVtjSF1jKG5vMSlbTkhdQyg9TylbTkhdW0NIMl1bQ0BIXShbQ0gzXSlOMltDSDJdW0NAQEhdKFtDSDNdKU9bQ0BASF0oW0NIM10pW0NIMl0y

> <s_epik_cmdline>
J2VwaWtfcHl0aG9uJywgJy1waCcsICc3LjAnLCAnLXRuJywgJzgnLCAnLW1hJywgJzIwMCcsICctbWV0YWxfYmluZGluZycsICctaW1hZScsICc8aW5maWxlLm1hZT4nLCAnLW9tYWUnLCAnPG91dGZpbGUubWFlPic=

> <r_epik_Ionization_Penalty>
6.73511

> <r_epik_Ionization_Penalty_Charging>
6.73502

> <r_epik_Ionization_Penalty_Neutral>
9.50841e-05

> <r_epik_State_Penalty>
6.93549

> <r_epik_Charging_Adjusted_Penalty>
13.6705

> <i_epik_Tot_Q>
0

> <i_epik_Tot_abs_Q>
2

> <r_epik_Metal_State_Penalty>
2.87211

> <b_epik_Metal_Only>
1

> <s_lp_Force_Field>
OPLS_2005

> <r_lp_Energy>
8.02842

> <b_lp_Chiralities_Consistent>
1

> <s_lp_Variant>
AV-unprocessed.smi:2061-22

> <Gold.Version>
5.8.1

> <Gold.Id.Protein>
6NUR|6NUR_protein|mol2

> <Gold.PLP.Fitness>
47.5789

> <Gold.PLP.PLP>
-34.0493

> <Gold.PLP.part.hbond>
-4.1153

> <Gold.PLP.part.metal>
0.0000

> <Gold.PLP.part.buried>
-5.4694

> <Gold.PLP.part.nonpolar>
-25.3249

> <Gold.PLP.part.repulsive>
0.4922

> <Gold.PLP.ligand.clash>
0.0000

> <Gold.PLP.ligand.torsion>
2.0395

> <Gold.PLP.Chemscore.Hbond>
5.8000

> <Gold.PLP.Chemscore.CHOScore>
0.0000

> <Gold.PLP.Chemscore.Metal>
0.0000

> <Gold.Chemscore.Hbonds>
donor molecule, donor type, donor heavy atom, donor atom, acceptor molecule, acceptor atom, score
      L1  H     8    26       P1  7948  0.75
      L1  H    12    45       P1  7948  2.00
      P1  H  7989  7998       L1    21  0.98
      P1  H 10752 10763       L1     5  2.00

> <Gold.PLP.Chemscore.Internal.Correction>
0.2085

> <Gold.Rescore>
     Score         DG    S(hbond)    S(metal)    S(lipo)     H(rot)  DE(clash)    DE(int)     intcor
     16.50     -18.41       2.94        0.00      60.72       1.56       0.05       1.86       ----

> <Gold.Chemscore.Fitness>
16.5005

> <Gold.Chemscore.DG>
-18.4124

> <Gold.Chemscore.ZeroCoef>
-5.4800

> <Gold.Chemscore.Hbond>
2.9367

> <Gold.Chemscore.Metal>
0.0000

> <Gold.Chemscore.Lipo>
60.7250

> <Gold.Chemscore.Internal_Hbond>
0.0000

> <Gold.Chemscore.DEClash>
0.0515

> <Gold.Chemscore.DEInternal>
1.8604

> <Gold.Chemscore.Rot>
1.5550

> <Gold.Chemscore.Internal.Correction>
   9.000000E+99

> <Gold.Chemscore.Hbonds>
donor molecule, donor type, donor heavy atom, donor atom, acceptor molecule, acceptor atom, score
      L1  H     8    26       P1  7948  0.09
      L1  H    12    45       P1  7948  0.67
      P1  H  7989  7998       L1    21  0.40
      P1  H 10752 10763       L1     5  0.45

> <Gold.Chemscore.Hbond.Weighted>
-9.8084

> <Gold.Chemscore.Metal.Weighted>
-0.0000

> <Gold.Chemscore.Lipo.Weighted>
-7.1048

> <Gold.Chemscore.Internal_Hbond.Weighted>
0.0000

> <Gold.Chemscore.DEClash.Weighted>
0.0515

> <Gold.Chemscore.DEInternal.Weighted>
1.8604

> <Gold.Chemscore.Rot.Weighted>
3.9809

> <Gold.Chemscore.Internal.Correction.Weighted>
   9.000000E+99

> <Gold.Protein.RotatedTorsions>
[ 6907 6896 6895 6894 ] final  -48.88 input  -60.11 | X-H torsion
[ 7974 7965 7964 7962 ] final   31.97 input  175.53 | X-H torsion
[ 8008 7997 7996 7995 ] final -140.79 input   59.86 | X-H torsion
[ 10167 10162 10161 10158 ] final   84.23 input  -65.29 | X-H torsion
[ 10718 10713 10712 10709 ] final   69.83 input   66.30 | X-H torsion
[ 10763 10752 10751 10750 ] final   47.46 input  -60.55 | X-H torsion
[ 11005 11000 10999 10996 ] final  166.25 input  -57.11 | X-H torsion

> <Gold.Protein.ActiveResidues>
 VAL166  LYS551  ARG553  GLY616  TRP617  ASP618  TYR619  PRO620  LYS621  CYS622 
 ASP623  PHE694  ASN695  SER759  ASP760  ASP761  ALA762  ILE779  LEU786  VAL792 
 PHE793  MET794  SER795  GLU796  ALA797  LYS798  CYS799  TRP800  GLU811  SER814 

> <Gold.Protein.RotatedAtoms>
  150.8861  134.8259  159.7259 H   0  0  0  0  0  0  0  0  0  0  0  0  # atno 6907 bound_to 6896
  152.4808  134.4721  159.9648 H   0  0  0  0  0  0  0  0  0  0  0  0  # atno 6908 bound_to 6896
  151.4789  133.3512  159.2870 H   0  0  0  0  0  0  0  0  0  0  0  0  # atno 6909 bound_to 6896
  146.1516  139.6587  142.9095 H   0  0  0  0  0  0  0  0  0  0  0  0  # atno 7974 bound_to 7965
  155.4671  140.0550  157.2984 H   0  0  0  0  0  0  0  0  0  0  0  0  # atno 8008 bound_to 7997
  154.4713  140.2041  155.9941 H   0  0  0  0  0  0  0  0  0  0  0  0  # atno 8009 bound_to 7997
  156.1061  140.3211  155.8012 H   0  0  0  0  0  0  0  0  0  0  0  0  # atno 8010 bound_to 7997
  139.9102  144.6276  150.8545 H   0  0  0  0  0  0  0  0  0  0  0  0  # atno 10167 bound_to 10162
  157.6367  130.9446  150.0567 H   0  0  0  0  0  0  0  0  0  0  0  0  # atno 10718 bound_to 10713
  152.9800  135.5975  154.3766 H   0  0  0  0  0  0  0  0  0  0  0  0  # atno 10763 bound_to 10752
  154.3434  135.2767  155.2412 H   0  0  0  0  0  0  0  0  0  0  0  0  # atno 10764 bound_to 10752
  154.4484  135.5996  153.6230 H   0  0  0  0  0  0  0  0  0  0  0  0  # atno 10765 bound_to 10752
  140.2645  134.7875  157.3620 H   0  0  0  0  0  0  0  0  0  0  0  0  # atno 11005 bound_to 11000
  145.4809  141.0438  143.2646 LP  0  0  0  0  0  0  0  0  0  0  0  0  # atno 17320 bound_to 7965
  144.7911  139.6326  143.7113 LP  0  0  0  0  0  0  0  0  0  0  0  0  # atno 17321 bound_to 7965
  140.7687  143.3371  151.2285 LP  0  0  0  0  0  0  0  0  0  0  0  0  # atno 17342 bound_to 10162
  139.6949  143.9629  152.2878 LP  0  0  0  0  0  0  0  0  0  0  0  0  # atno 17343 bound_to 10162
  156.1612  130.3644  149.9296 LP  0  0  0  0  0  0  0  0  0  0  0  0  # atno 17370 bound_to 10713
  156.7293  130.9037  151.3624 LP  0  0  0  0  0  0  0  0  0  0  0  0  # atno 17371 bound_to 10713
  140.1432  134.4945  155.8016 LP  0  0  0  0  0  0  0  0  0  0  0  0  # atno 17394 bound_to 11000
  141.2186  133.6833  156.7247 LP  0  0  0  0  0  0  0  0  0  0  0  0  # atno 17395 bound_to 11000

$$$$
