AV-unprocessed.smi:1485|AV-procd|sdf|6004|dock7
  -GOLD-   22720 6103D 1   1.00000     0.00000
 Structure written by MMmdl.
 44 45  0  0  0  0  0  0  0  0  1 V2000
  147.4415  136.2320  161.6017 C   0  0  0  0  0  0  0  0  0  0  0  0
  148.0850  137.0731  160.6608 O   0  0  0  0  0  0  0  0  0  0  0  0
  147.6825  136.8040  159.3273 C   0  0  0  0  0  0  0  0  0  0  0  0
  148.8210  137.1811  158.3571 C   0  0  0  0  0  0  0  0  0  0  0  0
  148.8719  138.6165  158.0248 N   0  0  0  0  0  0  0  0  0  0  0  0
  150.0826  139.2313  158.3014 N   0  0  0  0  0  0  0  0  0  0  0  0
  150.2679  140.4783  158.0145 C   0  0  0  0  0  0  0  0  0  0  0  0
  151.5798  141.1427  158.2425 C   0  0  0  0  0  0  0  0  0  0  0  0
  152.6115  140.5005  158.4448 O   0  0  0  0  0  0  0  0  0  0  0  0
  151.5406  142.4869  158.2357 N   0  0  0  0  0  0  0  0  0  0  0  0
  152.6491  143.3839  158.5500 C   0  0  1  0  0  0  0  0  0  0  0  0
  152.1402  144.8324  158.6778 C   0  0  0  0  0  0  0  0  0  0  0  0
  151.2641  145.0315  159.9271 C   0  0  0  0  0  0  0  0  0  0  0  0
  151.9960  144.5831  161.2018 C   0  0  0  0  0  0  0  0  0  0  0  0
  152.4742  143.1225  161.0968 C   0  0  2  0  0  0  0  0  0  0  0  0
  153.2024  142.6770  162.3725 C   0  0  0  0  0  0  0  0  0  0  0  0
  153.3584  142.9336  159.8450 C   0  0  0  0  0  0  0  0  0  0  0  0
  149.1994  141.2743  157.4380 C   0  0  0  0  0  0  0  0  0  0  0  0
  148.0116  140.6748  157.2042 C   0  0  0  0  0  0  0  0  0  0  0  0
  147.7807  139.2606  157.5076 C   0  0  0  0  0  0  0  0  0  0  0  0
  146.6985  138.7063  157.3173 O   0  0  0  0  0  0  0  0  0  0  0  0
  147.7886  136.4727  162.6064 H   0  0  0  0  0  0  0  0  0  0  0  0
  147.6645  135.1817  161.4105 H   0  0  0  0  0  0  0  0  0  0  0  0
  146.3597  136.3709  161.5783 H   0  0  0  0  0  0  0  0  0  0  0  0
  147.4550  135.7418  159.2252 H   0  0  0  0  0  0  0  0  0  0  0  0
  146.7656  137.3443  159.0849 H   0  0  0  0  0  0  0  0  0  0  0  0
  149.7571  136.8392  158.8010 H   0  0  0  0  0  0  0  0  0  0  0  0
  148.7059  136.6216  157.4282 H   0  0  0  0  0  0  0  0  0  0  0  0
  150.6481  142.9236  158.0544 H   0  0  0  0  0  0  0  0  0  0  0  0
  153.3674  143.3541  157.7290 H   0  0  0  0  0  0  0  0  0  0  0  0
  152.9958  145.5069  158.7326 H   0  0  0  0  0  0  0  0  0  0  0  0
  151.5863  145.1183  157.7827 H   0  0  0  0  0  0  0  0  0  0  0  0
  150.9789  146.0803  160.0139 H   0  0  0  0  0  0  0  0  0  0  0  0
  150.3353  144.4695  159.8222 H   0  0  0  0  0  0  0  0  0  0  0  0
  152.8496  145.2386  161.3794 H   0  0  0  0  0  0  0  0  0  0  0  0
  151.3345  144.6988  162.0608 H   0  0  0  0  0  0  0  0  0  0  0  0
  151.5928  142.4884  160.9916 H   0  0  0  0  0  0  0  0  0  0  0  0
  154.1089  143.2604  162.5368 H   0  0  0  0  0  0  0  0  0  0  0  0
  153.4876  141.6263  162.3140 H   0  0  0  0  0  0  0  0  0  0  0  0
  152.5655  142.7962  163.2496 H   0  0  0  0  0  0  0  0  0  0  0  0
  153.6664  141.8908  159.7575 H   0  0  0  0  0  0  0  0  0  0  0  0
  154.2773  143.5093  159.9631 H   0  0  0  0  0  0  0  0  0  0  0  0
  149.3422  142.3195  157.2040 H   0  0  0  0  0  0  0  0  0  0  0  0
  147.2060  141.2547  156.7780 H   0  0  0  0  0  0  0  0  0  0  0  0
  1  2  1  0  0  0  0
  1 22  1  0  0  0  0
  1 23  1  0  0  0  0
  1 24  1  0  0  0  0
  2  3  1  0  0  0  0
  3  4  1  0  0  0  0
  3 25  1  0  0  0  0
  3 26  1  0  0  0  0
  4  5  1  0  0  0  0
  4 27  1  0  0  0  0
  4 28  1  0  0  0  0
  5 20  1  0  0  0  0
  5  6  1  0  0  0  0
  6  7  2  0  0  0  0
  7  8  1  0  0  0  0
  7 18  1  0  0  0  0
  8  9  2  0  0  0  0
  8 10  1  0  0  0  0
 10 11  1  0  0  0  0
 10 29  1  0  0  0  0
 11 17  1  0  0  0  0
 11 12  1  0  0  0  0
 11 30  1  0  0  0  0
 12 13  1  0  0  0  0
 12 31  1  0  0  0  0
 12 32  1  0  0  0  0
 13 14  1  0  0  0  0
 13 33  1  0  0  0  0
 13 34  1  0  0  0  0
 14 15  1  0  0  0  0
 14 35  1  0  0  0  0
 14 36  1  0  0  0  0
 15 16  1  0  0  0  0
 15 17  1  0  0  0  0
 15 37  1  0  0  0  0
 16 38  1  0  0  0  0
 16 39  1  0  0  0  0
 16 40  1  0  0  0  0
 17 41  1  0  0  0  0
 17 42  1  0  0  0  0
 18 19  2  0  0  0  0
 18 43  1  0  0  0  0
 19 20  1  0  0  0  0
 19 44  1  0  0  0  0
 20 21  2  0  0  0  0
M  END
> <s_m_source_file>
AV-unprocessed.smi

> <i_m_source_file_index>
1485

> <i_lp_mmshare_version>
43012

> <i_f3d_flags>
0

> <s_epik_input>
W0NIM11PW0NIMl1bQ0gyXW4xbmMoW2NIXVtjSF1jMT1PKUMoPU8pW05IXVtDQEBIXTJbQ0gyXVtDSDJdW0NIMl1bQ0BASF0oW0NIM10pW0NIMl0y

> <s_epik_cmdline>
J2VwaWtfcHl0aG9uJywgJy1waCcsICc3LjAnLCAnLXRuJywgJzgnLCAnLW1hJywgJzIwMCcsICctbWV0YWxfYmluZGluZycsICctaW1hZScsICc8aW5maWxlLm1hZT4nLCAnLW9tYWUnLCAnPG91dGZpbGUubWFlPic=

> <r_lp_tautomer_probability>
1

> <r_epik_Ionization_Penalty>
6.4688e-07

> <r_epik_Ionization_Penalty_Charging>
6.63567e-09

> <r_epik_Ionization_Penalty_Neutral>
6.40245e-07

> <r_epik_State_Penalty>
-0

> <r_epik_Charging_Adjusted_Penalty>
6.63567e-09

> <i_epik_Tot_Q>
0

> <i_epik_Tot_abs_Q>
0

> <r_epik_Metal_State_Penalty>
-0

> <b_epik_Metal_Only>
0

> <s_lp_Force_Field>
OPLS_2005

> <r_lp_Energy>
30.8996

> <b_lp_Chiralities_Consistent>
1

> <s_lp_Variant>
AV-unprocessed.smi:1485-4

> <Gold.Version>
5.8.1

> <Gold.Id.Protein>
6NUR|6NUR_protein|mol2

> <Gold.PLP.Fitness>
46.3739

> <Gold.PLP.PLP>
-42.5707

> <Gold.PLP.part.hbond>
-2.0000

> <Gold.PLP.part.metal>
0.0000

> <Gold.PLP.part.buried>
-5.6732

> <Gold.PLP.part.nonpolar>
-34.8189

> <Gold.PLP.part.repulsive>
0.0513

> <Gold.PLP.ligand.clash>
0.0000

> <Gold.PLP.ligand.torsion>
0.5383

> <Gold.PLP.Chemscore.Hbond>
1.6160

> <Gold.PLP.Chemscore.CHOScore>
0.0000

> <Gold.PLP.Chemscore.Metal>
0.0000

> <Gold.Chemscore.Hbonds>
donor molecule, donor type, donor heavy atom, donor atom, acceptor molecule, acceptor atom, score
      P1  H  6931  6943       L1     2  0.86
      P1  H  6934  6947       L1     2  0.51

> <Gold.PLP.Chemscore.Internal.Correction>
0.0318

> <Gold.Rescore>
     Score         DG    S(hbond)    S(metal)    S(lipo)     H(rot)  DE(clash)    DE(int)     intcor
     14.04     -17.35       0.95        0.00     108.12       1.55       0.03       3.28       ----

> <Gold.Chemscore.Fitness>
14.0375

> <Gold.Chemscore.DG>
-17.3538

> <Gold.Chemscore.ZeroCoef>
-5.4800

> <Gold.Chemscore.Hbond>
0.9538

> <Gold.Chemscore.Metal>
0.0000

> <Gold.Chemscore.Lipo>
108.1236

> <Gold.Chemscore.Internal_Hbond>
0.0000

> <Gold.Chemscore.DEClash>
0.0348

> <Gold.Chemscore.DEInternal>
3.2815

> <Gold.Chemscore.Rot>
1.5478

> <Gold.Chemscore.Internal.Correction>
   9.000000E+99

> <Gold.Chemscore.Hbonds>
donor molecule, donor type, donor heavy atom, donor atom, acceptor molecule, acceptor atom, score
      P1  H  6931  6943       L1     2  0.21
      P1  H  6934  6947       L1     2  0.07

> <Gold.Chemscore.Hbond.Weighted>
-3.1856

> <Gold.Chemscore.Metal.Weighted>
-0.0000

> <Gold.Chemscore.Lipo.Weighted>
-12.6505

> <Gold.Chemscore.Internal_Hbond.Weighted>
0.0000

> <Gold.Chemscore.DEClash.Weighted>
0.0348

> <Gold.Chemscore.DEInternal.Weighted>
3.2815

> <Gold.Chemscore.Rot.Weighted>
3.9623

> <Gold.Chemscore.Internal.Correction.Weighted>
   9.000000E+99

> <Gold.Protein.RotatedTorsions>
[ 6907 6896 6895 6894 ] final  -26.82 input  -60.11 | X-H torsion
[ 7974 7965 7964 7962 ] final  -40.02 input  175.53 | X-H torsion
[ 8008 7997 7996 7995 ] final   20.42 input   59.86 | X-H torsion
[ 10167 10162 10161 10158 ] final -114.30 input  -65.29 | X-H torsion
[ 10718 10713 10712 10709 ] final  -23.90 input   66.30 | X-H torsion
[ 10763 10752 10751 10750 ] final  162.45 input  -60.55 | X-H torsion
[ 11005 11000 10999 10996 ] final -152.49 input  -57.11 | X-H torsion

> <Gold.Protein.ActiveResidues>
 VAL166  LYS551  ARG553  GLY616  TRP617  ASP618  TYR619  PRO620  LYS621  CYS622 
 ASP623  PHE694  ASN695  SER759  ASP760  ASP761  ALA762  ILE779  LEU786  VAL792 
 PHE793  MET794  SER795  GLU796  ALA797  LYS798  CYS799  TRP800  GLU811  SER814 

> <Gold.Protein.RotatedAtoms>
  151.1556  135.0249  159.8687 H   0  0  0  0  0  0  0  0  0  0  0  0  # atno 6907 bound_to 6896
  152.5452  134.1338  159.8460 H   0  0  0  0  0  0  0  0  0  0  0  0  # atno 6908 bound_to 6896
  151.1427  133.4914  159.2629 H   0  0  0  0  0  0  0  0  0  0  0  0  # atno 6909 bound_to 6896
  146.0343  140.6691  142.9117 H   0  0  0  0  0  0  0  0  0  0  0  0  # atno 7974 bound_to 7965
  154.9353  140.3046  155.5147 H   0  0  0  0  0  0  0  0  0  0  0  0  # atno 8008 bound_to 7997
  156.3000  140.2346  156.4354 H   0  0  0  0  0  0  0  0  0  0  0  0  # atno 8009 bound_to 7997
  154.8198  140.0424  157.1391 H   0  0  0  0  0  0  0  0  0  0  0  0  # atno 8010 bound_to 7997
  140.1025  143.4600  152.1803 H   0  0  0  0  0  0  0  0  0  0  0  0  # atno 10167 bound_to 10162
  156.4849  130.4553  149.6789 H   0  0  0  0  0  0  0  0  0  0  0  0  # atno 10718 bound_to 10713
  154.2786  135.2764  155.2707 H   0  0  0  0  0  0  0  0  0  0  0  0  # atno 10763 bound_to 10752
  154.5239  135.5749  153.6706 H   0  0  0  0  0  0  0  0  0  0  0  0  # atno 10764 bound_to 10752
  152.9933  135.6211  154.2944 H   0  0  0  0  0  0  0  0  0  0  0  0  # atno 10765 bound_to 10752
  140.7183  134.3756  157.5187 H   0  0  0  0  0  0  0  0  0  0  0  0  # atno 11005 bound_to 11000
  144.7044  140.3792  143.7129 LP  0  0  0  0  0  0  0  0  0  0  0  0  # atno 17320 bound_to 7965
  145.6989  139.1656  143.2604 LP  0  0  0  0  0  0  0  0  0  0  0  0  # atno 17321 bound_to 7965
  139.5663  144.7437  151.4013 LP  0  0  0  0  0  0  0  0  0  0  0  0  # atno 17342 bound_to 10162
  140.6970  143.7725  150.7342 LP  0  0  0  0  0  0  0  0  0  0  0  0  # atno 17343 bound_to 10162
  156.3484  130.7419  151.2375 LP  0  0  0  0  0  0  0  0  0  0  0  0  # atno 17370 bound_to 10713
  157.7479  131.0384  150.4500 LP  0  0  0  0  0  0  0  0  0  0  0  0  # atno 17371 bound_to 10713
  139.8854  134.8937  156.2643 LP  0  0  0  0  0  0  0  0  0  0  0  0  # atno 17394 bound_to 11000
  141.0025  133.7143  156.0983 LP  0  0  0  0  0  0  0  0  0  0  0  0  # atno 17395 bound_to 11000

$$$$
