AV-unprocessed.smi:998|AV-procd|sdf|4349|dock6
  -GOLD-   22720 2253D 1   1.00000     0.00000
 Structure written by MMmdl.
 44 46  0  0  0  0  0  0  0  0  1 V2000
  145.2595  133.8610  151.3544 C   0  0  0  0  0  0  0  0  0  0  0  0
  144.2845  135.4173  151.2355 S   0  0  0  0  0  0  0  0  0  0  0  0
  144.1506  135.7969  149.8210 O   0  0  0  0  0  0  0  0  0  0  0  0
  143.0840  135.2568  152.0703 O   0  0  0  0  0  0  0  0  0  0  0  0
  145.3096  136.5858  152.0018 N   0  0  0  0  0  0  0  0  0  0  0  0
  146.3751  136.0806  152.8912 C   0  0  0  0  0  0  0  0  0  0  0  0
  146.9678  137.2120  153.7479 C   0  0  0  0  0  0  0  0  0  0  0  0
  147.4221  138.3114  152.9068 N   0  0  0  0  0  0  0  0  0  0  0  0
  148.1268  139.2911  153.6209 C   0  0  0  0  0  0  0  0  0  0  0  0
  149.4223  138.9953  154.0923 C   0  0  0  0  0  0  0  0  0  0  0  0
  150.1250  139.9794  154.8141 C   0  0  0  0  0  0  0  0  0  0  0  0
  149.5090  141.2341  155.0373 C   0  0  0  0  0  0  0  0  0  0  0  0
  150.0987  142.3006  155.7684 N   0  0  0  0  0  0  0  0  0  0  0  0
  151.1251  142.2594  156.6355 C   0  0  0  0  0  0  0  0  0  0  0  0
  151.7741  141.2538  156.9227 O   0  0  0  0  0  0  0  0  0  0  0  0
  151.3733  143.4736  157.1448 N   0  0  0  0  0  0  0  0  0  0  0  0
  152.4011  143.7841  158.0854 C   0  0  0  0  0  0  0  0  0  0  0  0
  152.4683  142.9567  159.3510 C   0  0  0  0  0  0  0  0  0  0  0  0
  151.9827  144.3783  159.4131 C   0  0  0  0  0  0  0  0  0  0  0  0
  148.2052  141.4230  154.5347 C   0  0  0  0  0  0  0  0  0  0  0  0
  147.5271  140.4848  153.8413 N   0  0  0  0  0  0  0  0  0  0  0  0
  146.3366  138.8499  152.0972 C   0  0  0  0  0  0  0  0  0  0  0  0
  145.7267  137.7559  151.2030 C   0  0  0  0  0  0  0  0  0  0  0  0
  144.6632  133.0338  150.9705 H   0  0  0  0  0  0  0  0  0  0  0  0
  145.5128  133.6687  152.3967 H   0  0  0  0  0  0  0  0  0  0  0  0
  146.1714  133.9440  150.7652 H   0  0  0  0  0  0  0  0  0  0  0  0
  145.9790  135.3021  153.5413 H   0  0  0  0  0  0  0  0  0  0  0  0
  147.1554  135.6200  152.2835 H   0  0  0  0  0  0  0  0  0  0  0  0
  146.2169  137.5737  154.4525 H   0  0  0  0  0  0  0  0  0  0  0  0
  147.8019  136.8310  154.3384 H   0  0  0  0  0  0  0  0  0  0  0  0
  149.8707  138.0296  153.9095 H   0  0  0  0  0  0  0  0  0  0  0  0
  151.1083  139.7452  155.1909 H   0  0  0  0  0  0  0  0  0  0  0  0
  149.7209  143.2163  155.5738 H   0  0  0  0  0  0  0  0  0  0  0  0
  150.7893  144.2404  156.8448 H   0  0  0  0  0  0  0  0  0  0  0  0
  153.3554  144.1277  157.6887 H   0  0  0  0  0  0  0  0  0  0  0  0
  151.7302  142.1681  159.4846 H   0  0  0  0  0  0  0  0  0  0  0  0
  153.4544  142.7448  159.7598 H   0  0  0  0  0  0  0  0  0  0  0  0
  152.6442  145.1156  159.8633 H   0  0  0  0  0  0  0  0  0  0  0  0
  150.9205  144.5376  159.5891 H   0  0  0  0  0  0  0  0  0  0  0  0
  147.6879  142.3584  154.6911 H   0  0  0  0  0  0  0  0  0  0  0  0
  145.5640  139.2665  152.7452 H   0  0  0  0  0  0  0  0  0  0  0  0
  146.7098  139.6679  151.4797 H   0  0  0  0  0  0  0  0  0  0  0  0
  146.4465  137.4329  150.4497 H   0  0  0  0  0  0  0  0  0  0  0  0
  144.8695  138.1668  150.6704 H   0  0  0  0  0  0  0  0  0  0  0  0
  1  2  1  0  0  0  0
  1 24  1  0  0  0  0
  1 25  1  0  0  0  0
  1 26  1  0  0  0  0
  2  3  2  0  0  0  0
  2  4  2  0  0  0  0
  2  5  1  0  0  0  0
  5 23  1  0  0  0  0
  5  6  1  0  0  0  0
  6  7  1  0  0  0  0
  6 27  1  0  0  0  0
  6 28  1  0  0  0  0
  7  8  1  0  0  0  0
  7 29  1  0  0  0  0
  7 30  1  0  0  0  0
  8  9  1  0  0  0  0
  8 22  1  0  0  0  0
  9 21  1  0  0  0  0
  9 10  2  0  0  0  0
 10 11  1  0  0  0  0
 10 31  1  0  0  0  0
 11 12  2  0  0  0  0
 11 32  1  0  0  0  0
 12 13  1  0  0  0  0
 12 20  1  0  0  0  0
 13 14  1  0  0  0  0
 13 33  1  0  0  0  0
 14 15  2  0  0  0  0
 14 16  1  0  0  0  0
 16 17  1  0  0  0  0
 16 34  1  0  0  0  0
 17 19  1  0  0  0  0
 17 18  1  0  0  0  0
 17 35  1  0  0  0  0
 18 19  1  0  0  0  0
 18 36  1  0  0  0  0
 18 37  1  0  0  0  0
 19 38  1  0  0  0  0
 19 39  1  0  0  0  0
 20 21  2  0  0  0  0
 20 40  1  0  0  0  0
 22 23  1  0  0  0  0
 22 41  1  0  0  0  0
 22 42  1  0  0  0  0
 23 43  1  0  0  0  0
 23 44  1  0  0  0  0
M  END
> <s_m_source_file>
AV-unprocessed.smi

> <i_m_source_file_index>
998

> <i_lp_mmshare_version>
43012

> <i_f3d_flags>
0

> <s_epik_input>
W0NIM11TKD1PKSg9TylOMVtDSDJdW0NIMl1OKFtDSDJdW0NIMl0xKWMyW2NIXVtjSF1jKFtjSF1uMilbTkhdQyg9TylbTkhdW0NIXTNbQ0gyXVtDSDJdMw==

> <s_epik_cmdline>
J2VwaWtfcHl0aG9uJywgJy1waCcsICc3LjAnLCAnLXRuJywgJzgnLCAnLW1hJywgJzIwMCcsICctbWV0YWxfYmluZGluZycsICctaW1hZScsICc8aW5maWxlLm1hZT4nLCAnLW9tYWUnLCAnPG91dGZpbGUubWFlPic=

> <r_lp_tautomer_probability>
1

> <r_epik_Ionization_Penalty>
0.0538093

> <r_epik_Ionization_Penalty_Charging>
0

> <r_epik_Ionization_Penalty_Neutral>
0.0538093

> <r_epik_State_Penalty>
0.0462087

> <r_epik_Charging_Adjusted_Penalty>
0.0462087

> <i_epik_Tot_Q>
0

> <i_epik_Tot_abs_Q>
0

> <r_epik_Metal_State_Penalty>
0.0423268

> <b_epik_Metal_Only>
0

> <s_lp_Force_Field>
OPLS_2005

> <r_lp_Energy>
34.3098

> <b_lp_Chiralities_Consistent>
1

> <s_lp_Variant>
AV-unprocessed.smi:998-1

> <Gold.Version>
5.8.1

> <Gold.Id.Protein>
6NUR|6NUR_protein|mol2

> <Gold.PLP.Fitness>
43.4914

> <Gold.PLP.PLP>
-37.9342

> <Gold.PLP.part.hbond>
-1.7438

> <Gold.PLP.part.metal>
0.0000

> <Gold.PLP.part.buried>
-3.0269

> <Gold.PLP.part.nonpolar>
-36.7957

> <Gold.PLP.part.repulsive>
2.3284

> <Gold.PLP.ligand.clash>
0.0000

> <Gold.PLP.ligand.torsion>
0.9479

> <Gold.PLP.Chemscore.Hbond>
1.4839

> <Gold.PLP.Chemscore.CHOScore>
0.7508

> <Gold.PLP.Chemscore.Metal>
0.0000

> <Gold.Chemscore.Hbonds>
donor molecule, donor type, donor heavy atom, donor atom, acceptor molecule, acceptor atom, score
      L1  H    13    33       P1  8028  1.00
      L1  H    16    34       P1  8028  0.36
      L1  C    20    40       P1  8028  0.32

> <Gold.PLP.Chemscore.Internal.Correction>
0.7486

> <Gold.Rescore>
     Score         DG    S(hbond)    S(metal)    S(lipo)     H(rot)  DE(clash)    DE(int)     intcor
     13.46     -18.53       1.89        0.00      91.39       1.55       2.48       2.60       ----

> <Gold.Chemscore.Fitness>
13.4584

> <Gold.Chemscore.DG>
-18.5313

> <Gold.Chemscore.ZeroCoef>
-5.4800

> <Gold.Chemscore.Hbond>
1.8931

> <Gold.Chemscore.Metal>
0.0000

> <Gold.Chemscore.Lipo>
91.3929

> <Gold.Chemscore.Internal_Hbond>
0.0000

> <Gold.Chemscore.DEClash>
2.4776

> <Gold.Chemscore.DEInternal>
2.5952

> <Gold.Chemscore.Rot>
1.5486

> <Gold.Chemscore.Internal.Correction>
   9.000000E+99

> <Gold.Chemscore.Hbonds>
donor molecule, donor type, donor heavy atom, donor atom, acceptor molecule, acceptor atom, score
      L1  H    13    33       P1  8028  1.00
      L1  H    16    34       P1  8028  0.35

> <Gold.Chemscore.Hbond.Weighted>
-6.3228

> <Gold.Chemscore.Metal.Weighted>
-0.0000

> <Gold.Chemscore.Lipo.Weighted>
-10.6930

> <Gold.Chemscore.Internal_Hbond.Weighted>
0.0000

> <Gold.Chemscore.DEClash.Weighted>
2.4776

> <Gold.Chemscore.DEInternal.Weighted>
2.5952

> <Gold.Chemscore.Rot.Weighted>
3.9645

> <Gold.Chemscore.Internal.Correction.Weighted>
   9.000000E+99

> <Gold.Protein.RotatedTorsions>
[ 6907 6896 6895 6894 ] final -110.09 input  -60.11 | X-H torsion
[ 7974 7965 7964 7962 ] final  147.24 input  175.53 | X-H torsion
[ 8008 7997 7996 7995 ] final  -20.76 input   59.86 | X-H torsion
[ 10167 10162 10161 10158 ] final -100.68 input  -65.29 | X-H torsion
[ 10718 10713 10712 10709 ] final -119.92 input   66.30 | X-H torsion
[ 10763 10752 10751 10750 ] final -137.39 input  -60.55 | X-H torsion
[ 11005 11000 10999 10996 ] final  -57.42 input  -57.11 | X-H torsion

> <Gold.Protein.ActiveResidues>
 VAL166  LYS551  ARG553  GLY616  TRP617  ASP618  TYR619  PRO620  LYS621  CYS622 
 ASP623  PHE694  ASN695  SER759  ASP760  ASP761  ALA762  ILE779  LEU786  VAL792 
 PHE793  MET794  SER795  GLU796  ALA797  LYS798  CYS799  TRP800  GLU811  SER814 

> <Gold.Protein.RotatedAtoms>
  150.7603  133.9433  159.3462 H   0  0  0  0  0  0  0  0  0  0  0  0  # atno 6907 bound_to 6896
  151.7343  135.0866  160.0314 H   0  0  0  0  0  0  0  0  0  0  0  0  # atno 6908 bound_to 6896
  152.3570  133.6211  159.6022 H   0  0  0  0  0  0  0  0  0  0  0  0  # atno 6909 bound_to 6896
  144.8607  139.6004  143.5932 H   0  0  0  0  0  0  0  0  0  0  0  0  # atno 7974 bound_to 7965
  154.4749  140.2053  155.9904 H   0  0  0  0  0  0  0  0  0  0  0  0  # atno 8008 bound_to 7997
  156.1072  140.3235  155.7992 H   0  0  0  0  0  0  0  0  0  0  0  0  # atno 8009 bound_to 7997
  155.4697  140.0530  157.2972 H   0  0  0  0  0  0  0  0  0  0  0  0  # atno 8010 bound_to 7997
  140.2494  143.3483  152.0729 H   0  0  0  0  0  0  0  0  0  0  0  0  # atno 10167 bound_to 10162
  156.1218  130.6329  150.9476 H   0  0  0  0  0  0  0  0  0  0  0  0  # atno 10718 bound_to 10713
  154.8663  135.3644  154.5215 H   0  0  0  0  0  0  0  0  0  0  0  0  # atno 10763 bound_to 10752
  153.5845  135.7017  153.5454 H   0  0  0  0  0  0  0  0  0  0  0  0  # atno 10764 bound_to 10752
  153.3428  135.4093  155.1547 H   0  0  0  0  0  0  0  0  0  0  0  0  # atno 10765 bound_to 10752
  141.1164  133.6610  156.4766 H   0  0  0  0  0  0  0  0  0  0  0  0  # atno 11005 bound_to 11000
  146.2858  139.7001  142.9196 LP  0  0  0  0  0  0  0  0  0  0  0  0  # atno 17320 bound_to 7965
  145.4317  141.0415  143.2907 LP  0  0  0  0  0  0  0  0  0  0  0  0  # atno 17321 bound_to 7965
  139.5051  144.6789  151.6060 LP  0  0  0  0  0  0  0  0  0  0  0  0  # atno 17342 bound_to 10162
  140.6052  143.9536  150.6414 LP  0  0  0  0  0  0  0  0  0  0  0  0  # atno 17343 bound_to 10162
  157.6401  131.0911  150.8268 LP  0  0  0  0  0  0  0  0  0  0  0  0  # atno 17370 bound_to 10713
  156.8364  130.5033  149.5326 LP  0  0  0  0  0  0  0  0  0  0  0  0  # atno 17371 bound_to 10713
  140.4635  134.6820  157.5096 LP  0  0  0  0  0  0  0  0  0  0  0  0  # atno 17394 bound_to 11000
  140.0089  134.6722  155.9412 LP  0  0  0  0  0  0  0  0  0  0  0  0  # atno 17395 bound_to 11000

$$$$
