AV-unprocessed.smi:819|AV-procd|sdf|3834|dock6
  -GOLD-   22720 1273D 1   1.00000     0.00000
 Structure written by MMmdl.
 40 41  0  0  0  0  0  0  0  0  1 V2000
  150.4052  132.7846  155.0583 C   0  0  0  0  0  0  0  0  0  0  0  0
  149.6371  134.1161  155.1105 C   0  0  2  0  0  0  0  0  0  0  0  0
  148.8879  134.2615  153.8635 N   0  0  0  0  0  0  0  0  0  0  0  0
  147.7034  133.6860  153.6058 C   0  0  0  0  0  0  0  0  0  0  0  0
  147.1278  132.9388  154.3968 O   0  0  0  0  0  0  0  0  0  0  0  0
  147.2351  134.0534  152.4008 N   0  0  0  0  0  0  0  0  0  0  0  0
  146.0158  133.6760  151.7759 C   0  0  0  0  0  0  0  0  0  0  0  0
  145.4550  134.5606  150.8320 C   0  0  0  0  0  0  0  0  0  0  0  0
  144.2553  134.2054  150.1866 C   0  0  0  0  0  0  0  0  0  0  0  0
  143.6644  132.9676  150.5055 C   0  0  0  0  0  0  0  0  0  0  0  0
  144.1951  132.1018  151.3943 N   0  0  0  0  0  0  0  0  0  0  0  0
  145.3453  132.4496  152.0110 C   0  0  0  0  0  0  0  0  0  0  0  0
  150.6498  135.2631  155.2523 C   0  0  0  0  0  0  0  0  0  0  0  0
  151.5823  135.1787  156.0531 O   0  0  0  0  0  0  0  0  0  0  0  0
  150.4534  136.3277  154.4603 N   0  0  0  0  0  0  0  0  0  0  0  0
  151.3160  137.5042  154.4049 C   0  0  0  0  0  0  0  0  0  0  0  0
  151.7761  137.9119  155.8179 C   0  0  0  0  0  0  0  0  0  0  0  0
  151.5391  139.4194  155.9223 C   0  0  0  0  0  0  0  0  0  0  0  0
  150.3491  139.6783  155.0043 C   0  0  0  0  0  0  0  0  0  0  0  0
  150.5706  138.7263  153.8289 C   0  0  0  0  0  0  0  0  0  0  0  0
  150.9922  132.6311  155.9649 H   0  0  0  0  0  0  0  0  0  0  0  0
  151.0880  132.7395  154.2082 H   0  0  0  0  0  0  0  0  0  0  0  0
  149.7176  131.9427  154.9722 H   0  0  0  0  0  0  0  0  0  0  0  0
  148.9497  134.1060  155.9589 H   0  0  0  0  0  0  0  0  0  0  0  0
  149.2861  134.8689  153.1626 H   0  0  0  0  0  0  0  0  0  0  0  0
  147.7843  134.7376  151.9015 H   0  0  0  0  0  0  0  0  0  0  0  0
  145.9333  135.5028  150.6068 H   0  0  0  0  0  0  0  0  0  0  0  0
  143.7990  134.8655  149.4637 H   0  0  0  0  0  0  0  0  0  0  0  0
  142.7443  132.6621  150.0296 H   0  0  0  0  0  0  0  0  0  0  0  0
  145.7326  131.7063  152.6900 H   0  0  0  0  0  0  0  0  0  0  0  0
  149.6642  136.3102  153.8308 H   0  0  0  0  0  0  0  0  0  0  0  0
  152.1892  137.2851  153.7871 H   0  0  0  0  0  0  0  0  0  0  0  0
  151.1770  137.4079  156.5782 H   0  0  0  0  0  0  0  0  0  0  0  0
  152.8180  137.6492  156.0042 H   0  0  0  0  0  0  0  0  0  0  0  0
  151.3589  139.7466  156.9468 H   0  0  0  0  0  0  0  0  0  0  0  0
  152.4124  139.9559  155.5492 H   0  0  0  0  0  0  0  0  0  0  0  0
  149.4235  139.4178  155.5194 H   0  0  0  0  0  0  0  0  0  0  0  0
  150.2758  140.7206  154.6925 H   0  0  0  0  0  0  0  0  0  0  0  0
  151.2030  139.2138  153.0860 H   0  0  0  0  0  0  0  0  0  0  0  0
  149.6335  138.4728  153.3311 H   0  0  0  0  0  0  0  0  0  0  0  0
  1  2  1  0  0  0  0
  1 21  1  0  0  0  0
  1 22  1  0  0  0  0
  1 23  1  0  0  0  0
  2  3  1  0  0  0  0
  2 13  1  0  0  0  0
  2 24  1  0  0  0  0
  3  4  1  0  0  0  0
  3 25  1  0  0  0  0
  4  5  2  0  0  0  0
  4  6  1  0  0  0  0
  6  7  1  0  0  0  0
  6 26  1  0  0  0  0
  7 12  1  0  0  0  0
  7  8  2  0  0  0  0
  8  9  1  0  0  0  0
  8 27  1  0  0  0  0
  9 10  2  0  0  0  0
  9 28  1  0  0  0  0
 10 11  1  0  0  0  0
 10 29  1  0  0  0  0
 11 12  2  0  0  0  0
 12 30  1  0  0  0  0
 13 14  2  0  0  0  0
 13 15  1  0  0  0  0
 15 16  1  0  0  0  0
 15 31  1  0  0  0  0
 16 20  1  0  0  0  0
 16 17  1  0  0  0  0
 16 32  1  0  0  0  0
 17 18  1  0  0  0  0
 17 33  1  0  0  0  0
 17 34  1  0  0  0  0
 18 19  1  0  0  0  0
 18 35  1  0  0  0  0
 18 36  1  0  0  0  0
 19 20  1  0  0  0  0
 19 37  1  0  0  0  0
 19 38  1  0  0  0  0
 20 39  1  0  0  0  0
 20 40  1  0  0  0  0
M  END
> <s_m_source_file>
AV-unprocessed.smi

> <i_m_source_file_index>
819

> <i_lp_mmshare_version>
43012

> <i_f3d_flags>
0

> <s_epik_input>
W0NIMl0xW0NIMl1bQ0gyXVtDSDJdW0NIXTFbTkhdQyg9TylbQ0BIXShbQ0gzXSlbTkhdQyg9TylbTkhdYzJbY0hdW2NIXVtjSF1uW2NIXTI=

> <s_epik_cmdline>
J2VwaWtfcHl0aG9uJywgJy1waCcsICc3LjAnLCAnLXRuJywgJzgnLCAnLW1hJywgJzIwMCcsICctbWV0YWxfYmluZGluZycsICctaW1hZScsICc8aW5maWxlLm1hZT4nLCAnLW9tYWUnLCAnPG91dGZpbGUubWFlPic=

> <r_epik_Ionization_Penalty>
0.00416979

> <r_epik_Ionization_Penalty_Charging>
0

> <r_epik_Ionization_Penalty_Neutral>
0.00416979

> <r_epik_State_Penalty>
0.00297037

> <r_epik_Charging_Adjusted_Penalty>
0.00297037

> <i_epik_Tot_Q>
0

> <i_epik_Tot_abs_Q>
0

> <r_epik_Metal_State_Penalty>
-0

> <b_epik_Metal_Only>
0

> <s_lp_Force_Field>
OPLS_2005

> <r_lp_Energy>
20.2836

> <b_lp_Chiralities_Consistent>
1

> <s_lp_Variant>
AV-unprocessed.smi:819-1

> <Gold.Version>
5.8.1

> <Gold.Id.Protein>
6NUR|6NUR_protein|mol2

> <Gold.PLP.Fitness>
43.8737

> <Gold.PLP.PLP>
-33.7676

> <Gold.PLP.part.hbond>
-4.8652

> <Gold.PLP.part.metal>
0.0000

> <Gold.PLP.part.buried>
-1.1403

> <Gold.PLP.part.nonpolar>
-26.6450

> <Gold.PLP.part.repulsive>
0.3255

> <Gold.PLP.ligand.clash>
0.0000

> <Gold.PLP.ligand.torsion>
1.1384

> <Gold.PLP.Chemscore.Hbond>
3.3612

> <Gold.PLP.Chemscore.CHOScore>
0.7620

> <Gold.PLP.Chemscore.Metal>
0.0000

> <Gold.Chemscore.Hbonds>
donor molecule, donor type, donor heavy atom, donor atom, acceptor molecule, acceptor atom, score
      L1  H     3    25       P1  7948  0.48
      L1  H     6    26       P1  7948  1.00
      L1  H    15    31       P1  7948  0.87
      P1  H 10752 10763       L1    14  1.00
      L1  C    10    29       P1 10186  0.78

> <Gold.PLP.Chemscore.Internal.Correction>
0.0134

> <Gold.Rescore>
     Score         DG    S(hbond)    S(metal)    S(lipo)     H(rot)  DE(clash)    DE(int)     intcor
     13.56     -18.25       2.30        0.00      76.72       1.52       1.17       3.53       ----

> <Gold.Chemscore.Fitness>
13.5572

> <Gold.Chemscore.DG>
-18.2514

> <Gold.Chemscore.ZeroCoef>
-5.4800

> <Gold.Chemscore.Hbond>
2.3032

> <Gold.Chemscore.Metal>
0.0000

> <Gold.Chemscore.Lipo>
76.7221

> <Gold.Chemscore.Internal_Hbond>
0.0000

> <Gold.Chemscore.DEClash>
1.1667

> <Gold.Chemscore.DEInternal>
3.5274

> <Gold.Chemscore.Rot>
1.5225

> <Gold.Chemscore.Internal.Correction>
   9.000000E+99

> <Gold.Chemscore.Hbonds>
donor molecule, donor type, donor heavy atom, donor atom, acceptor molecule, acceptor atom, score
      L1  H     3    25       P1  7948  0.02
      L1  H     6    26       P1  7948  0.43
      L1  H    15    31       P1  7948  0.40
      P1  H 10752 10763       L1    14  0.34

> <Gold.Chemscore.Hbond.Weighted>
-7.6926

> <Gold.Chemscore.Metal.Weighted>
-0.0000

> <Gold.Chemscore.Lipo.Weighted>
-8.9765

> <Gold.Chemscore.Internal_Hbond.Weighted>
0.0000

> <Gold.Chemscore.DEClash.Weighted>
1.1667

> <Gold.Chemscore.DEInternal.Weighted>
3.5274

> <Gold.Chemscore.Rot.Weighted>
3.8977

> <Gold.Chemscore.Internal.Correction.Weighted>
   9.000000E+99

> <Gold.Protein.RotatedTorsions>
[ 6907 6896 6895 6894 ] final  152.67 input  -60.11 | X-H torsion
[ 7974 7965 7964 7962 ] final   43.96 input  175.53 | X-H torsion
[ 8008 7997 7996 7995 ] final  -72.60 input   59.86 | X-H torsion
[ 10167 10162 10161 10158 ] final  -80.17 input  -65.29 | X-H torsion
[ 10718 10713 10712 10709 ] final   -3.58 input   66.30 | X-H torsion
[ 10763 10752 10751 10750 ] final   81.51 input  -60.55 | X-H torsion
[ 11005 11000 10999 10996 ] final -111.87 input  -57.11 | X-H torsion

> <Gold.Protein.ActiveResidues>
 VAL166  LYS551  ARG553  GLY616  TRP617  ASP618  TYR619  PRO620  LYS621  CYS622 
 ASP623  PHE694  ASN695  SER759  ASP760  ASP761  ALA762  ILE779  LEU786  VAL792 
 PHE793  MET794  SER795  GLU796  ALA797  LYS798  CYS799  TRP800  GLU811  SER814 

> <Gold.Protein.RotatedAtoms>
  152.0834  133.4164  159.4511 H   0  0  0  0  0  0  0  0  0  0  0  0  # atno 6907 bound_to 6896
  150.6862  134.2955  159.4694 H   0  0  0  0  0  0  0  0  0  0  0  0  # atno 6908 bound_to 6896
  152.0799  134.9477  160.0624 H   0  0  0  0  0  0  0  0  0  0  0  0  # atno 6909 bound_to 6896
  146.0610  139.5128  142.9658 H   0  0  0  0  0  0  0  0  0  0  0  0  # atno 7974 bound_to 7965
  154.5179  140.0794  156.8117 H   0  0  0  0  0  0  0  0  0  0  0  0  # atno 8008 bound_to 7997
  155.3639  140.3419  155.4223 H   0  0  0  0  0  0  0  0  0  0  0  0  # atno 8009 bound_to 7997
  156.1649  140.1600  156.8536 H   0  0  0  0  0  0  0  0  0  0  0  0  # atno 8010 bound_to 7997
  140.4527  143.2478  151.8465 H   0  0  0  0  0  0  0  0  0  0  0  0  # atno 10167 bound_to 10162
  156.7740  130.5309  149.5762 H   0  0  0  0  0  0  0  0  0  0  0  0  # atno 10718 bound_to 10713
  153.1123  135.4763  154.9056 H   0  0  0  0  0  0  0  0  0  0  0  0  # atno 10763 bound_to 10752
  154.7493  135.3102  154.8590 H   0  0  0  0  0  0  0  0  0  0  0  0  # atno 10764 bound_to 10752
  153.9175  135.6858  153.4802 H   0  0  0  0  0  0  0  0  0  0  0  0  # atno 10765 bound_to 10752
  141.0709  133.9382  157.2487 H   0  0  0  0  0  0  0  0  0  0  0  0  # atno 11005 bound_to 11000
  145.6560  141.0252  143.1734 LP  0  0  0  0  0  0  0  0  0  0  0  0  # atno 17320 bound_to 7965
  144.7175  139.8146  143.7393 LP  0  0  0  0  0  0  0  0  0  0  0  0  # atno 17321 bound_to 7965
  139.4798  144.5101  151.8944 LP  0  0  0  0  0  0  0  0  0  0  0  0  # atno 17342 bound_to 10162
  140.4188  144.2271  150.5887 LP  0  0  0  0  0  0  0  0  0  0  0  0  # atno 17343 bound_to 10162
  156.1260  130.6144  151.0264 LP  0  0  0  0  0  0  0  0  0  0  0  0  # atno 17370 bound_to 10713
  157.6678  131.0868  150.7687 LP  0  0  0  0  0  0  0  0  0  0  0  0  # atno 17371 bound_to 10713
  139.9522  135.0173  156.9027 LP  0  0  0  0  0  0  0  0  0  0  0  0  # atno 17394 bound_to 11000
  140.5676  134.0475  155.7419 LP  0  0  0  0  0  0  0  0  0  0  0  0  # atno 17395 bound_to 11000

$$$$
