AV-unprocessed.smi:3284|AV-procd|sdf|12575|dock10
  -GOLD-   2272018493D 1   1.00000     0.00000
 Structure written by MMmdl.
 44 45  0  0  0  0  0  0  0  0  2 V2000
  154.1988  140.2756  160.2361 C   0  0  0  0  0  0  0  0  0  0  0  0
  153.4914  141.5784  160.5677 C   0  0  0  0  0  0  0  0  0  0  0  0
  153.4462  142.0492  161.8295 C   0  0  0  0  0  0  0  0  0  0  0  0
  152.7995  143.3596  162.2403 C   0  0  0  0  0  0  0  0  0  0  0  0
  152.0102  144.0238  161.1006 C   0  0  0  0  0  0  0  0  0  0  0  0
  152.7147  143.8426  159.7439 C   0  0  2  0  0  0  0  0  0  0  0  0
  152.0752  144.7108  158.6474 C   0  0  0  0  0  0  0  0  0  0  0  0
  152.8775  142.3336  159.3863 C   0  0  2  0  0  0  0  0  0  0  0  0
  151.5736  141.6293  158.9304 C   0  0  0  0  0  0  0  0  0  0  0  0
  151.1557  142.0392  157.5754 N   0  3  0  0  0  0  0  0  0  0  0  0
  149.8746  141.4538  157.1314 C   0  0  0  0  0  0  0  0  0  0  0  0
  149.8188  141.3112  155.6028 C   0  0  0  0  0  0  0  0  0  0  0  0
  150.6020  140.1390  155.0916 C   0  0  0  0  0  0  0  0  0  0  0  0
  151.9087  139.9863  155.2856 N   0  0  0  0  0  0  0  0  0  0  0  0
  152.2189  138.7737  154.6790 C   0  0  0  0  0  0  0  0  0  0  0  0
  151.0774  138.2280  154.1432 C   0  0  0  0  0  0  0  0  0  0  0  0
  150.0442  139.1136  154.4196 N   0  0  0  0  0  0  0  0  0  0  0  0
  148.6534  138.9413  154.0471 C   0  0  0  0  0  0  0  0  0  0  0  0
  154.9901  140.4507  159.5068 H   0  0  0  0  0  0  0  0  0  0  0  0
  153.5080  139.5418  159.8228 H   0  0  0  0  0  0  0  0  0  0  0  0
  154.6556  139.8363  161.1238 H   0  0  0  0  0  0  0  0  0  0  0  0
  153.9169  141.4906  162.6255 H   0  0  0  0  0  0  0  0  0  0  0  0
  152.1487  143.1907  163.0988 H   0  0  0  0  0  0  0  0  0  0  0  0
  153.5949  144.0263  162.5744 H   0  0  0  0  0  0  0  0  0  0  0  0
  151.0060  143.6025  161.0562 H   0  0  0  0  0  0  0  0  0  0  0  0
  151.8800  145.0832  161.3254 H   0  0  0  0  0  0  0  0  0  0  0  0
  153.7255  144.2357  159.8669 H   0  0  0  0  0  0  0  0  0  0  0  0
  151.0118  144.5009  158.5322 H   0  0  0  0  0  0  0  0  0  0  0  0
  152.5631  144.5557  157.6848 H   0  0  0  0  0  0  0  0  0  0  0  0
  152.1672  145.7696  158.8911 H   0  0  0  0  0  0  0  0  0  0  0  0
  153.6004  142.2684  158.5714 H   0  0  0  0  0  0  0  0  0  0  0  0
  151.7099  140.5488  158.9028 H   0  0  0  0  0  0  0  0  0  0  0  0
  150.7664  141.8162  159.6385 H   0  0  0  0  0  0  0  0  0  0  0  0
  151.0684  143.0453  157.5600 H   0  0  0  0  0  0  0  0  0  0  0  0
  149.7336  140.4804  157.6033 H   0  0  0  0  0  0  0  0  0  0  0  0
  149.0590  142.0951  157.4680 H   0  0  0  0  0  0  0  0  0  0  0  0
  148.7818  141.2258  155.2780 H   0  0  0  0  0  0  0  0  0  0  0  0
  150.2035  142.2172  155.1324 H   0  0  0  0  0  0  0  0  0  0  0  0
  153.2287  138.3903  154.6766 H   0  0  0  0  0  0  0  0  0  0  0  0
  150.9198  137.3055  153.6035 H   0  0  0  0  0  0  0  0  0  0  0  0
  148.5093  137.9725  153.5677 H   0  0  0  0  0  0  0  0  0  0  0  0
  148.3585  139.7255  153.3493 H   0  0  0  0  0  0  0  0  0  0  0  0
  148.0225  138.9920  154.9350 H   0  0  0  0  0  0  0  0  0  0  0  0
  151.8767  141.7708  156.9201 H   0  0  0  0  0  0  0  0  0  0  0  0
  1  2  1  0  0  0  0
  1 19  1  0  0  0  0
  1 20  1  0  0  0  0
  1 21  1  0  0  0  0
  2  8  1  0  0  0  0
  2  3  2  0  0  0  0
  3  4  1  0  0  0  0
  3 22  1  0  0  0  0
  4  5  1  0  0  0  0
  4 23  1  0  0  0  0
  4 24  1  0  0  0  0
  5  6  1  0  0  0  0
  5 25  1  0  0  0  0
  5 26  1  0  0  0  0
  6  7  1  0  0  0  0
  6  8  1  0  0  0  0
  6 27  1  0  0  0  0
  7 28  1  0  0  0  0
  7 29  1  0  0  0  0
  7 30  1  0  0  0  0
  8  9  1  0  0  0  0
  8 31  1  0  0  0  0
  9 10  1  0  0  0  0
  9 32  1  0  0  0  0
  9 33  1  0  0  0  0
 10 11  1  0  0  0  0
 10 34  1  0  0  0  0
 10 44  1  0  0  0  0
 11 12  1  0  0  0  0
 11 35  1  0  0  0  0
 11 36  1  0  0  0  0
 12 13  1  0  0  0  0
 12 37  1  0  0  0  0
 12 38  1  0  0  0  0
 13 17  1  0  0  0  0
 13 14  2  0  0  0  0
 14 15  1  0  0  0  0
 15 16  2  0  0  0  0
 15 39  1  0  0  0  0
 16 17  1  0  0  0  0
 16 40  1  0  0  0  0
 17 18  1  0  0  0  0
 18 41  1  0  0  0  0
 18 42  1  0  0  0  0
 18 43  1  0  0  0  0
M  CHG  1  10   1
M  END
> <s_m_source_file>
AV-unprocessed.smi

> <i_m_source_file_index>
3284

> <i_lp_mmshare_version>
43012

> <i_f3d_flags>
0

> <s_epik_input>
W0NIM11DMT1bQ0hdW0NIMl1bQ0gyXVtDQEBIXShbQ0gzXSlbQ0BIXTFbQ0gyXVtOSF1bQ0gyXVtDSDJdYzJuW2NIXVtjSF1uMltDSDNd

> <s_epik_cmdline>
J2VwaWtfcHl0aG9uJywgJy1waCcsICc3LjAnLCAnLXRuJywgJzgnLCAnLW1hJywgJzIwMCcsICctbWV0YWxfYmluZGluZycsICctaW1hZScsICc8aW5maWxlLm1hZT4nLCAnLW9tYWUnLCAnPG91dGZpbGUubWFlPic=

> <r_lp_tautomer_probability>
1

> <r_epik_Ionization_Penalty>
0.150779

> <r_epik_Ionization_Penalty_Charging>
0.150779

> <r_epik_Ionization_Penalty_Neutral>
1.39452e-13

> <r_epik_State_Penalty>
0.349447

> <r_epik_Charging_Adjusted_Penalty>
0.500226

> <i_epik_Tot_Q>
1

> <i_epik_Tot_abs_Q>
1

> <r_epik_Metal_State_Penalty>
0.000470967

> <b_epik_Metal_Only>
0

> <s_lp_Force_Field>
OPLS_2005

> <r_lp_Energy>
16.0755

> <b_lp_Chiralities_Consistent>
1

> <s_lp_Variant>
AV-unprocessed.smi:3284-4

> <Gold.Version>
5.8.1

> <Gold.Id.Protein>
6NUR|6NUR_protein|mol2

> <Gold.PLP.Fitness>
55.1522

> <Gold.PLP.PLP>
-52.5121

> <Gold.PLP.part.hbond>
-1.0000

> <Gold.PLP.part.metal>
0.0000

> <Gold.PLP.part.buried>
-5.2108

> <Gold.PLP.part.nonpolar>
-46.4203

> <Gold.PLP.part.repulsive>
0.0572

> <Gold.PLP.ligand.clash>
0.0000

> <Gold.PLP.ligand.torsion>
0.3619

> <Gold.PLP.Chemscore.Hbond>
0.0000

> <Gold.PLP.Chemscore.CHOScore>
1.1107

> <Gold.PLP.Chemscore.Metal>
0.0000

> <Gold.Chemscore.Hbonds>
donor molecule, donor type, donor heavy atom, donor atom, acceptor molecule, acceptor atom, score
      L1  C    16    40       P1  7948  0.13
      L1  C    16    40       P1  7949  0.99

> <Gold.PLP.Chemscore.Internal.Correction>
0.0318

> <Gold.Rescore>
     Score         DG    S(hbond)    S(metal)    S(lipo)     H(rot)  DE(clash)    DE(int)     intcor
     16.70     -17.25       0.00        0.00     135.81       1.61       0.05       0.49       ----

> <Gold.Chemscore.Fitness>
16.7010

> <Gold.Chemscore.DG>
-17.2471

> <Gold.Chemscore.ZeroCoef>
-5.4800

> <Gold.Chemscore.Hbond>
0.0000

> <Gold.Chemscore.Metal>
0.0000

> <Gold.Chemscore.Lipo>
135.8132

> <Gold.Chemscore.Internal_Hbond>
0.0000

> <Gold.Chemscore.DEClash>
0.0516

> <Gold.Chemscore.DEInternal>
0.4946

> <Gold.Chemscore.Rot>
1.6105

> <Gold.Chemscore.Internal.Correction>
   9.000000E+99

> <Gold.Chemscore.Hbond.Weighted>
-0.0000

> <Gold.Chemscore.Metal.Weighted>
-0.0000

> <Gold.Chemscore.Lipo.Weighted>
-15.8901

> <Gold.Chemscore.Internal_Hbond.Weighted>
0.0000

> <Gold.Chemscore.DEClash.Weighted>
0.0516

> <Gold.Chemscore.DEInternal.Weighted>
0.4946

> <Gold.Chemscore.Rot.Weighted>
4.1230

> <Gold.Chemscore.Internal.Correction.Weighted>
   9.000000E+99

> <Gold.Protein.RotatedTorsions>
[ 6907 6896 6895 6894 ] final   55.59 input  -60.11 | X-H torsion
[ 7974 7965 7964 7962 ] final  -31.09 input  175.53 | X-H torsion
[ 8008 7997 7996 7995 ] final  171.64 input   59.86 | X-H torsion
[ 10167 10162 10161 10158 ] final  113.28 input  -65.29 | X-H torsion
[ 10718 10713 10712 10709 ] final  -19.10 input   66.30 | X-H torsion
[ 10763 10752 10751 10750 ] final -116.07 input  -60.55 | X-H torsion
[ 11005 11000 10999 10996 ] final  -88.29 input  -57.11 | X-H torsion

> <Gold.Protein.ActiveResidues>
 VAL166  LYS551  ARG553  GLY616  TRP617  ASP618  TYR619  PRO620  LYS621  CYS622 
 ASP623  PHE694  ASN695  SER759  ASP760  ASP761  ALA762  ILE779  LEU786  VAL792 
 PHE793  MET794  SER795  GLU796  ALA797  LYS798  CYS799  TRP800  GLU811  SER814 

> <Gold.Protein.RotatedAtoms>
  152.3554  134.6948  160.0223 H   0  0  0  0  0  0  0  0  0  0  0  0  # atno 6907 bound_to 6896
  151.7288  133.3311  159.3343 H   0  0  0  0  0  0  0  0  0  0  0  0  # atno 6908 bound_to 6896
  150.7568  134.6315  159.6233 H   0  0  0  0  0  0  0  0  0  0  0  0  # atno 6909 bound_to 6896
  146.1093  140.5623  142.8785 H   0  0  0  0  0  0  0  0  0  0  0  0  # atno 7974 bound_to 7965
  156.1252  140.1506  156.9147 H   0  0  0  0  0  0  0  0  0  0  0  0  # atno 8008 bound_to 7997
  154.4866  140.0863  156.7540 H   0  0  0  0  0  0  0  0  0  0  0  0  # atno 8009 bound_to 7997
  155.4357  140.3429  155.4287 H   0  0  0  0  0  0  0  0  0  0  0  0  # atno 8010 bound_to 7997
  139.6473  144.7127  151.2117 H   0  0  0  0  0  0  0  0  0  0  0  0  # atno 10167 bound_to 10162
  156.5503  130.4700  149.6455 H   0  0  0  0  0  0  0  0  0  0  0  0  # atno 10718 bound_to 10713
  154.8505  135.4359  154.1763 H   0  0  0  0  0  0  0  0  0  0  0  0  # atno 10763 bound_to 10752
  153.2864  135.6958  153.7341 H   0  0  0  0  0  0  0  0  0  0  0  0  # atno 10764 bound_to 10752
  153.6525  135.3449  155.3079 H   0  0  0  0  0  0  0  0  0  0  0  0  # atno 10765 bound_to 10752
  141.1604  133.7561  156.9429 H   0  0  0  0  0  0  0  0  0  0  0  0  # atno 11005 bound_to 11000
  144.7498  140.5162  143.6810 LP  0  0  0  0  0  0  0  0  0  0  0  0  # atno 17320 bound_to 7965
  145.5695  139.1483  143.3296 LP  0  0  0  0  0  0  0  0  0  0  0  0  # atno 17321 bound_to 7965
  140.7521  143.6209  150.8514 LP  0  0  0  0  0  0  0  0  0  0  0  0  # atno 17342 bound_to 10162
  139.9854  143.5905  152.2929 LP  0  0  0  0  0  0  0  0  0  0  0  0  # atno 17343 bound_to 10162
  156.2890  130.7114  151.1958 LP  0  0  0  0  0  0  0  0  0  0  0  0  # atno 17370 bound_to 10713
  157.7389  131.0536  150.5268 LP  0  0  0  0  0  0  0  0  0  0  0  0  # atno 17371 bound_to 10713
  140.1309  134.9356  157.2335 LP  0  0  0  0  0  0  0  0  0  0  0  0  # atno 17394 bound_to 11000
  140.2954  134.3192  155.7304 LP  0  0  0  0  0  0  0  0  0  0  0  0  # atno 17395 bound_to 11000

$$$$
