AV-unprocessed.smi:2153|AV-procd|sdf|8769|dock3
  -GOLD-   2272011553D 1   1.00000     0.00000
 Structure written by MMmdl.
 48 49  0  0  0  0  0  0  0  0  1 V2000
  150.3055  141.4528  157.0149 C   0  0  0  0  0  0  0  0  0  0  0  0
  151.4780  142.1648  157.7084 C   0  0  1  0  0  0  0  0  0  0  0  0
  151.0977  143.6147  158.0710 C   0  0  0  0  0  0  0  0  0  0  0  0
  152.2526  144.3514  158.7659 C   0  0  0  0  0  0  0  0  0  0  0  0
  152.7132  143.5915  160.0160 C   0  0  0  0  0  0  0  0  0  0  0  0
  153.1021  142.1492  159.6665 C   0  0  0  0  0  0  0  0  0  0  0  0
  151.9581  141.3918  158.9581 C   0  0  2  0  0  0  0  0  0  0  0  0
  152.4455  140.1293  158.5226 O   0  0  0  0  0  0  0  0  0  0  0  0
  151.5884  139.0309  158.8028 C   0  0  0  0  0  0  0  0  0  0  0  0
  151.9763  137.8564  157.8896 C   0  0  0  0  0  0  0  0  0  0  0  0
  150.7986  137.1807  157.3536 N   0  0  0  0  0  0  0  0  0  0  0  0
  150.8088  136.0380  156.6505 C   0  0  0  0  0  0  0  0  0  0  0  0
  151.8255  135.3756  156.4454 O   0  0  0  0  0  0  0  0  0  0  0  0
  149.4628  135.5783  156.0814 C   0  0  0  0  0  0  0  0  0  0  0  0
  149.5253  134.1818  155.6323 N   0  0  0  0  0  0  0  0  0  0  0  0
  149.0574  133.8527  154.3726 C   0  0  0  0  0  0  0  0  0  0  0  0
  149.1066  132.6034  153.8608 C   0  0  0  0  0  0  0  0  0  0  0  0
  149.6797  131.5026  154.6256 C   0  0  0  0  0  0  0  0  0  0  0  0
  149.7434  130.3503  154.1965 O   0  0  0  0  0  0  0  0  0  0  0  0
  150.1575  131.8672  155.9075 N   0  0  0  0  0  0  0  0  0  0  0  0
  150.7498  130.8474  156.7480 C   0  0  0  0  0  0  0  0  0  0  0  0
  150.0810  133.1709  156.4465 C   0  0  0  0  0  0  0  0  0  0  0  0
  150.4856  133.4285  157.5827 O   0  0  0  0  0  0  0  0  0  0  0  0
  149.4470  141.3628  157.6812 H   0  0  0  0  0  0  0  0  0  0  0  0
  150.5838  140.4485  156.6945 H   0  0  0  0  0  0  0  0  0  0  0  0
  149.9835  141.9996  156.1285 H   0  0  0  0  0  0  0  0  0  0  0  0
  152.3060  142.2070  156.9988 H   0  0  0  0  0  0  0  0  0  0  0  0
  150.8089  144.1603  157.1721 H   0  0  0  0  0  0  0  0  0  0  0  0
  150.2243  143.6139  158.7245 H   0  0  0  0  0  0  0  0  0  0  0  0
  153.0886  144.4610  158.0740 H   0  0  0  0  0  0  0  0  0  0  0  0
  151.9417  145.3604  159.0380 H   0  0  0  0  0  0  0  0  0  0  0  0
  153.5611  144.1042  160.4709 H   0  0  0  0  0  0  0  0  0  0  0  0
  151.9161  143.5866  160.7606 H   0  0  0  0  0  0  0  0  0  0  0  0
  153.9694  142.1631  159.0100 H   0  0  0  0  0  0  0  0  0  0  0  0
  153.4157  141.6338  160.5734 H   0  0  0  0  0  0  0  0  0  0  0  0
  151.1161  141.2598  159.6406 H   0  0  0  0  0  0  0  0  0  0  0  0
  151.6522  138.7215  159.8455 H   0  0  0  0  0  0  0  0  0  0  0  0
  150.5538  139.3270  158.6279 H   0  0  0  0  0  0  0  0  0  0  0  0
  152.6121  138.2016  157.0733 H   0  0  0  0  0  0  0  0  0  0  0  0
  152.5573  137.1267  158.4538 H   0  0  0  0  0  0  0  0  0  0  0  0
  149.9138  137.6514  157.4752 H   0  0  0  0  0  0  0  0  0  0  0  0
  148.6866  135.7049  156.8381 H   0  0  0  0  0  0  0  0  0  0  0  0
  149.1733  136.2292  155.2547 H   0  0  0  0  0  0  0  0  0  0  0  0
  148.6326  134.6355  153.7609 H   0  0  0  0  0  0  0  0  0  0  0  0
  148.7227  132.4168  152.8685 H   0  0  0  0  0  0  0  0  0  0  0  0
  151.6637  131.2551  157.1839 H   0  0  0  0  0  0  0  0  0  0  0  0
  151.0118  129.9657  156.1634 H   0  0  0  0  0  0  0  0  0  0  0  0
  150.0141  130.6031  157.5159 H   0  0  0  0  0  0  0  0  0  0  0  0
  1  2  1  0  0  0  0
  1 24  1  0  0  0  0
  1 25  1  0  0  0  0
  1 26  1  0  0  0  0
  2  7  1  0  0  0  0
  2  3  1  0  0  0  0
  2 27  1  0  0  0  0
  3  4  1  0  0  0  0
  3 28  1  0  0  0  0
  3 29  1  0  0  0  0
  4  5  1  0  0  0  0
  4 30  1  0  0  0  0
  4 31  1  0  0  0  0
  5  6  1  0  0  0  0
  5 32  1  0  0  0  0
  5 33  1  0  0  0  0
  6  7  1  0  0  0  0
  6 34  1  0  0  0  0
  6 35  1  0  0  0  0
  7  8  1  0  0  0  0
  7 36  1  0  0  0  0
  8  9  1  0  0  0  0
  9 10  1  0  0  0  0
  9 37  1  0  0  0  0
  9 38  1  0  0  0  0
 10 11  1  0  0  0  0
 10 39  1  0  0  0  0
 10 40  1  0  0  0  0
 11 12  1  0  0  0  0
 11 41  1  0  0  0  0
 12 13  2  0  0  0  0
 12 14  1  0  0  0  0
 14 15  1  0  0  0  0
 14 42  1  0  0  0  0
 14 43  1  0  0  0  0
 15 22  1  0  0  0  0
 15 16  1  0  0  0  0
 16 17  2  0  0  0  0
 16 44  1  0  0  0  0
 17 18  1  0  0  0  0
 17 45  1  0  0  0  0
 18 19  2  0  0  0  0
 18 20  1  0  0  0  0
 20 21  1  0  0  0  0
 20 22  1  0  0  0  0
 21 46  1  0  0  0  0
 21 47  1  0  0  0  0
 21 48  1  0  0  0  0
 22 23  2  0  0  0  0
M  END
> <s_m_source_file>
AV-unprocessed.smi

> <i_m_source_file_index>
2153

> <i_lp_mmshare_version>
43012

> <i_f3d_flags>
0

> <s_epik_input>
W0NIM11bQ0BASF0xW0NIMl1bQ0gyXVtDSDJdW0NIMl1bQ0BIXTFPW0NIMl1bQ0gyXVtOSF1DKD1PKVtDSDJdbjJbY0hdW2NIXWMoPU8pbihbQ0gzXSljMj1P

> <s_epik_cmdline>
J2VwaWtfcHl0aG9uJywgJy1waCcsICc3LjAnLCAnLXRuJywgJzgnLCAnLW1hJywgJzIwMCcsICctbWV0YWxfYmluZGluZycsICctaW1hZScsICc8aW5maWxlLm1hZT4nLCAnLW9tYWUnLCAnPG91dGZpbGUubWFlPic=

> <r_lp_tautomer_probability>
1

> <r_epik_Ionization_Penalty>
4.02205e-08

> <r_epik_Ionization_Penalty_Charging>
1.23606e-08

> <r_epik_Ionization_Penalty_Neutral>
2.78599e-08

> <r_epik_State_Penalty>
-0

> <r_epik_Charging_Adjusted_Penalty>
1.23606e-08

> <i_epik_Tot_Q>
0

> <i_epik_Tot_abs_Q>
0

> <r_epik_Metal_State_Penalty>
-0

> <b_epik_Metal_Only>
0

> <s_lp_Force_Field>
OPLS_2005

> <r_lp_Energy>
17.7366

> <b_lp_Chiralities_Consistent>
1

> <s_lp_Variant>
AV-unprocessed.smi:2153-4

> <Gold.Version>
5.8.1

> <Gold.Id.Protein>
6NUR|6NUR_protein|mol2

> <Gold.PLP.Fitness>
47.7128

> <Gold.PLP.PLP>
-41.3858

> <Gold.PLP.part.hbond>
-2.0000

> <Gold.PLP.part.metal>
0.0000

> <Gold.PLP.part.buried>
-5.8933

> <Gold.PLP.part.nonpolar>
-34.0614

> <Gold.PLP.part.repulsive>
0.1590

> <Gold.PLP.ligand.clash>
0.0000

> <Gold.PLP.ligand.torsion>
1.3560

> <Gold.PLP.Chemscore.Hbond>
1.9920

> <Gold.PLP.Chemscore.CHOScore>
1.0000

> <Gold.PLP.Chemscore.Metal>
0.0000

> <Gold.Chemscore.Hbonds>
donor molecule, donor type, donor heavy atom, donor atom, acceptor molecule, acceptor atom, score
      P1  H  6896  6909       L1    23  0.98
      P1  H 10752 10764       L1    13  1.00
      L1  C    16    44       P1  7948  1.00

> <Gold.PLP.Chemscore.Internal.Correction>
0.0629

> <Gold.Rescore>
     Score         DG    S(hbond)    S(metal)    S(lipo)     H(rot)  DE(clash)    DE(int)     intcor
     16.92     -18.23       1.99        0.00     100.26       2.20       0.05       1.26       ----

> <Gold.Chemscore.Fitness>
16.9228

> <Gold.Chemscore.DG>
-18.2267

> <Gold.Chemscore.ZeroCoef>
-5.4800

> <Gold.Chemscore.Hbond>
1.9882

> <Gold.Chemscore.Metal>
0.0000

> <Gold.Chemscore.Lipo>
100.2551

> <Gold.Chemscore.Internal_Hbond>
0.0000

> <Gold.Chemscore.DEClash>
0.0471

> <Gold.Chemscore.DEInternal>
1.2568

> <Gold.Chemscore.Rot>
2.1968

> <Gold.Chemscore.Internal.Correction>
   9.000000E+99

> <Gold.Chemscore.Hbonds>
donor molecule, donor type, donor heavy atom, donor atom, acceptor molecule, acceptor atom, score
      P1  H  6896  6909       L1    23  0.93
      P1  H 10752 10764       L1    13  1.00

> <Gold.Chemscore.Hbond.Weighted>
-6.6406

> <Gold.Chemscore.Metal.Weighted>
-0.0000

> <Gold.Chemscore.Lipo.Weighted>
-11.7298

> <Gold.Chemscore.Internal_Hbond.Weighted>
0.0000

> <Gold.Chemscore.DEClash.Weighted>
0.0471

> <Gold.Chemscore.DEInternal.Weighted>
1.2568

> <Gold.Chemscore.Rot.Weighted>
5.6238

> <Gold.Chemscore.Internal.Correction.Weighted>
   9.000000E+99

> <Gold.Protein.RotatedTorsions>
[ 6907 6896 6895 6894 ] final  -13.53 input  -60.11 | X-H torsion
[ 7974 7965 7964 7962 ] final  -19.73 input  175.53 | X-H torsion
[ 8008 7997 7996 7995 ] final  -24.13 input   59.86 | X-H torsion
[ 10167 10162 10161 10158 ] final  -93.41 input  -65.29 | X-H torsion
[ 10718 10713 10712 10709 ] final -156.00 input   66.30 | X-H torsion
[ 10763 10752 10751 10750 ] final  -22.90 input  -60.55 | X-H torsion
[ 11005 11000 10999 10996 ] final  -88.08 input  -57.11 | X-H torsion

> <Gold.Protein.ActiveResidues>
 VAL166  LYS551  ARG553  GLY616  TRP617  ASP618  TYR619  PRO620  LYS621  CYS622 
 ASP623  PHE694  ASN695  SER759  ASP760  ASP761  ALA762  ILE779  LEU786  VAL792 
 PHE793  MET794  SER795  GLU796  ALA797  LYS798  CYS799  TRP800  GLU811  SER814 

> <Gold.Protein.RotatedAtoms>
  151.3535  135.0889  159.9410 H   0  0  0  0  0  0  0  0  0  0  0  0  # atno 6907 bound_to 6896
  152.5181  133.9329  159.7599 H   0  0  0  0  0  0  0  0  0  0  0  0  # atno 6908 bound_to 6896
  150.9709  133.6291  159.2767 H   0  0  0  0  0  0  0  0  0  0  0  0  # atno 6909 bound_to 6896
  146.1826  140.4103  142.8489 H   0  0  0  0  0  0  0  0  0  0  0  0  # atno 7974 bound_to 7965
  154.4546  140.1962  156.0416 H   0  0  0  0  0  0  0  0  0  0  0  0  # atno 8008 bound_to 7997
  156.0720  140.3283  155.7560 H   0  0  0  0  0  0  0  0  0  0  0  0  # atno 8009 bound_to 7997
  155.5248  140.0573  157.2891 H   0  0  0  0  0  0  0  0  0  0  0  0  # atno 8010 bound_to 7997
  140.3249  143.3028  152.0006 H   0  0  0  0  0  0  0  0  0  0  0  0  # atno 10167 bound_to 10162
  156.5206  130.8476  151.2680 H   0  0  0  0  0  0  0  0  0  0  0  0  # atno 10718 bound_to 10713
  153.6592  135.6977  153.5183 H   0  0  0  0  0  0  0  0  0  0  0  0  # atno 10763 bound_to 10752
  153.2645  135.4234  155.0926 H   0  0  0  0  0  0  0  0  0  0  0  0  # atno 10764 bound_to 10752
  154.8456  135.3563  154.6137 H   0  0  0  0  0  0  0  0  0  0  0  0  # atno 10765 bound_to 10752
  141.1607  133.7549  156.9399 H   0  0  0  0  0  0  0  0  0  0  0  0  # atno 11005 bound_to 11000
  144.8341  140.6754  143.6272 LP  0  0  0  0  0  0  0  0  0  0  0  0  # atno 17320 bound_to 7965
  145.4032  139.1593  143.4166 LP  0  0  0  0  0  0  0  0  0  0  0  0  # atno 17321 bound_to 7965
  139.4867  144.6281  151.7123 LP  0  0  0  0  0  0  0  0  0  0  0  0  # atno 17342 bound_to 10162
  140.5450  144.0518  150.6103 LP  0  0  0  0  0  0  0  0  0  0  0  0  # atno 17343 bound_to 10162
  157.7437  130.9919  150.2616 LP  0  0  0  0  0  0  0  0  0  0  0  0  # atno 17370 bound_to 10713
  156.3153  130.3778  149.7624 LP  0  0  0  0  0  0  0  0  0  0  0  0  # atno 17371 bound_to 10713
  140.1328  134.9344  157.2361 LP  0  0  0  0  0  0  0  0  0  0  0  0  # atno 17394 bound_to 11000
  140.2932  134.3217  155.7309 LP  0  0  0  0  0  0  0  0  0  0  0  0  # atno 17395 bound_to 11000

$$$$
