AV-unprocessed.smi:1812|AV-procd|sdf|7336|dock2
  -GOLD-   22720 8593D 1   1.00000     0.00000
 Structure written by MMmdl.
 34 36  0  0  0  0  0  0  0  0  1 V2000
  149.5597  133.3632  155.4835 O   0  0  0  0  0  0  0  0  0  0  0  0
  149.3638  134.1665  154.5711 C   0  0  0  0  0  0  0  0  0  0  0  0
  149.8648  135.4100  154.5624 N   0  0  0  0  0  0  0  0  0  0  0  0
  150.7143  135.9755  155.6044 C   0  0  0  0  0  0  0  0  0  0  0  0
  150.7101  137.5126  155.5647 C   0  0  2  0  0  0  0  0  0  0  0  0
  151.6215  138.1019  154.4895 C   0  0  0  0  0  0  0  0  0  0  0  0
  151.9172  139.4706  155.0587 C   0  0  0  0  0  0  0  0  0  0  0  0
  152.0491  139.1634  156.5471 C   0  0  0  0  0  0  0  0  0  0  0  0
  151.1965  138.0480  156.7942 O   0  0  0  0  0  0  0  0  0  0  0  0
  148.6369  133.9268  153.4655 N   0  0  0  0  0  0  0  0  0  0  0  0
  147.9524  132.7362  153.1038 C   0  0  0  0  0  0  0  0  0  0  0  0
  146.9484  132.6941  152.2173 N   0  0  0  0  0  0  0  0  0  0  0  0
  146.4594  131.4062  152.0493 N   0  0  0  0  0  0  0  0  0  0  0  0
  147.1055  130.5140  152.8096 C   0  0  0  0  0  0  0  0  0  0  0  0
  146.7591  129.0623  152.8011 C   0  0  0  0  0  0  0  0  0  0  0  0
  147.0101  128.1938  151.5876 C   0  0  0  0  0  0  0  0  0  0  0  0
  145.5987  128.5498  151.9792 C   0  0  0  0  0  0  0  0  0  0  0  0
  148.3854  131.1898  153.8123 S   0  0  0  0  0  0  0  0  0  0  0  0
  149.6593  136.0039  153.7724 H   0  0  0  0  0  0  0  0  0  0  0  0
  150.3535  135.6244  156.5714 H   0  0  0  0  0  0  0  0  0  0  0  0
  151.7325  135.5972  155.4979 H   0  0  0  0  0  0  0  0  0  0  0  0
  149.6977  137.8904  155.4112 H   0  0  0  0  0  0  0  0  0  0  0  0
  152.5446  137.5261  154.4059 H   0  0  0  0  0  0  0  0  0  0  0  0
  151.1503  138.1390  153.5070 H   0  0  0  0  0  0  0  0  0  0  0  0
  152.8110  139.9300  154.6358 H   0  0  0  0  0  0  0  0  0  0  0  0
  151.0725  140.1385  154.8850 H   0  0  0  0  0  0  0  0  0  0  0  0
  153.0730  138.8737  156.7870 H   0  0  0  0  0  0  0  0  0  0  0  0
  151.7831  140.0156  157.1728 H   0  0  0  0  0  0  0  0  0  0  0  0
  148.5676  134.6844  152.8025 H   0  0  0  0  0  0  0  0  0  0  0  0
  146.9214  128.6229  153.7834 H   0  0  0  0  0  0  0  0  0  0  0  0
  147.4090  128.6626  150.6904 H   0  0  0  0  0  0  0  0  0  0  0  0
  147.3365  127.1705  151.7624 H   0  0  0  0  0  0  0  0  0  0  0  0
  144.9839  127.7645  152.4144 H   0  0  0  0  0  0  0  0  0  0  0  0
  145.0690  129.2638  151.3515 H   0  0  0  0  0  0  0  0  0  0  0  0
  1  2  2  0  0  0  0
  2  3  1  0  0  0  0
  2 10  1  0  0  0  0
  3  4  1  0  0  0  0
  3 19  1  0  0  0  0
  4  5  1  0  0  0  0
  4 20  1  0  0  0  0
  4 21  1  0  0  0  0
  5  9  1  0  0  0  0
  5  6  1  0  0  0  0
  5 22  1  0  0  0  0
  6  7  1  0  0  0  0
  6 23  1  0  0  0  0
  6 24  1  0  0  0  0
  7  8  1  0  0  0  0
  7 25  1  0  0  0  0
  7 26  1  0  0  0  0
  8  9  1  0  0  0  0
  8 27  1  0  0  0  0
  8 28  1  0  0  0  0
 10 11  1  0  0  0  0
 10 29  1  0  0  0  0
 11 18  1  0  0  0  0
 11 12  2  0  0  0  0
 12 13  1  0  0  0  0
 13 14  2  0  0  0  0
 14 15  1  0  0  0  0
 14 18  1  0  0  0  0
 15 17  1  0  0  0  0
 15 16  1  0  0  0  0
 15 30  1  0  0  0  0
 16 17  1  0  0  0  0
 16 31  1  0  0  0  0
 16 32  1  0  0  0  0
 17 33  1  0  0  0  0
 17 34  1  0  0  0  0
M  END
> <s_m_source_file>
AV-unprocessed.smi

> <i_m_source_file_index>
1812

> <i_lp_mmshare_version>
43012

> <i_f3d_flags>
0

> <s_epik_input>
TzFbQ0gyXVtDSDJdW0NIMl1bQ0BIXTFbQ0gyXVtOSF1DKD1PKVtOSF1jMm5uYyhzMilbQ0hdM1tDSDJdW0NIMl0z

> <s_epik_cmdline>
J2VwaWtfcHl0aG9uJywgJy1waCcsICc3LjAnLCAnLXRuJywgJzgnLCAnLW1hJywgJzIwMCcsICctbWV0YWxfYmluZGluZycsICctaW1hZScsICc8aW5maWxlLm1hZT4nLCAnLW9tYWUnLCAnPG91dGZpbGUubWFlPic=

> <r_lp_tautomer_probability>
1

> <r_epik_Ionization_Penalty>
0.000281817

> <r_epik_Ionization_Penalty_Charging>
0

> <r_epik_Ionization_Penalty_Neutral>
0.000281817

> <r_epik_State_Penalty>
-0

> <r_epik_Charging_Adjusted_Penalty>
0

> <i_epik_Tot_Q>
0

> <i_epik_Tot_abs_Q>
0

> <r_epik_Metal_State_Penalty>
0.157535

> <b_epik_Metal_Only>
0

> <s_lp_Force_Field>
OPLS_2005

> <r_lp_Energy>
14.57

> <b_lp_Chiralities_Consistent>
1

> <s_lp_Variant>
AV-unprocessed.smi:1812-1

> <Gold.Version>
5.8.1

> <Gold.Id.Protein>
6NUR|6NUR_protein|mol2

> <Gold.PLP.Fitness>
36.0829

> <Gold.PLP.PLP>
-31.0620

> <Gold.PLP.part.hbond>
-2.0635

> <Gold.PLP.part.metal>
0.0000

> <Gold.PLP.part.buried>
-2.0786

> <Gold.PLP.part.nonpolar>
-27.0881

> <Gold.PLP.part.repulsive>
0.3489

> <Gold.PLP.ligand.clash>
0.0000

> <Gold.PLP.ligand.torsion>
0.4702

> <Gold.PLP.Chemscore.Hbond>
1.9420

> <Gold.PLP.Chemscore.CHOScore>
0.0000

> <Gold.PLP.Chemscore.Metal>
0.0000

> <Gold.Chemscore.Hbonds>
donor molecule, donor type, donor heavy atom, donor atom, acceptor molecule, acceptor atom, score
      L1  H     3    19       P1  7948  0.99
      L1  H    10    29       P1  7948  0.95

> <Gold.PLP.Chemscore.Internal.Correction>
0.1352

> <Gold.Rescore>
     Score         DG    S(hbond)    S(metal)    S(lipo)     H(rot)  DE(clash)    DE(int)     intcor
     13.25     -15.06       1.53        0.00      70.42       1.47       0.11       1.70       ----

> <Gold.Chemscore.Fitness>
13.2500

> <Gold.Chemscore.DG>
-15.0607

> <Gold.Chemscore.ZeroCoef>
-5.4800

> <Gold.Chemscore.Hbond>
1.5304

> <Gold.Chemscore.Metal>
0.0000

> <Gold.Chemscore.Lipo>
70.4172

> <Gold.Chemscore.Internal_Hbond>
0.0000

> <Gold.Chemscore.DEClash>
0.1120

> <Gold.Chemscore.DEInternal>
1.6987

> <Gold.Chemscore.Rot>
1.4725

> <Gold.Chemscore.Internal.Correction>
   9.000000E+99

> <Gold.Chemscore.Hbonds>
donor molecule, donor type, donor heavy atom, donor atom, acceptor molecule, acceptor atom, score
      L1  H     3    19       P1  7948  0.31
      L1  H    10    29       P1  7948  0.21

> <Gold.Chemscore.Hbond.Weighted>
-5.1114

> <Gold.Chemscore.Metal.Weighted>
-0.0000

> <Gold.Chemscore.Lipo.Weighted>
-8.2388

> <Gold.Chemscore.Internal_Hbond.Weighted>
0.0000

> <Gold.Chemscore.DEClash.Weighted>
0.1120

> <Gold.Chemscore.DEInternal.Weighted>
1.6987

> <Gold.Chemscore.Rot.Weighted>
3.7695

> <Gold.Chemscore.Internal.Correction.Weighted>
   9.000000E+99

> <Gold.Protein.RotatedTorsions>
[ 6907 6896 6895 6894 ] final  -55.48 input  -60.11 | X-H torsion
[ 7974 7965 7964 7962 ] final  164.69 input  175.53 | X-H torsion
[ 8008 7997 7996 7995 ] final  123.62 input   59.86 | X-H torsion
[ 10167 10162 10161 10158 ] final  -98.09 input  -65.29 | X-H torsion
[ 10718 10713 10712 10709 ] final  143.35 input   66.30 | X-H torsion
[ 10763 10752 10751 10750 ] final  -67.23 input  -60.55 | X-H torsion
[ 11005 11000 10999 10996 ] final   58.99 input  -57.11 | X-H torsion

> <Gold.Protein.ActiveResidues>
 VAL166  LYS551  ARG553  GLY616  TRP617  ASP618  TYR619  PRO620  LYS621  CYS622 
 ASP623  PHE694  ASN695  SER759  ASP760  ASP761  ALA762  ILE779  LEU786  VAL792 
 PHE793  MET794  SER795  GLU796  ALA797  LYS798  CYS799  TRP800  GLU811  SER814 

> <Gold.Protein.RotatedAtoms>
  150.8248  134.7473  159.6802 H   0  0  0  0  0  0  0  0  0  0  0  0  # atno 6907 bound_to 6896
  152.4360  134.5683  159.9923 H   0  0  0  0  0  0  0  0  0  0  0  0  # atno 6908 bound_to 6896
  151.5858  133.3335  159.3053 H   0  0  0  0  0  0  0  0  0  0  0  0  # atno 6909 bound_to 6896
  144.7534  139.8363  143.6358 H   0  0  0  0  0  0  0  0  0  0  0  0  # atno 7974 bound_to 7965
  156.2772  140.2758  156.1657 H   0  0  0  0  0  0  0  0  0  0  0  0  # atno 8008 bound_to 7997
  155.0707  140.0387  157.2625 H   0  0  0  0  0  0  0  0  0  0  0  0  # atno 8009 bound_to 7997
  154.7042  140.2655  155.6696 H   0  0  0  0  0  0  0  0  0  0  0  0  # atno 8010 bound_to 7997
  140.2766  143.3309  152.0482 H   0  0  0  0  0  0  0  0  0  0  0  0  # atno 10167 bound_to 10162
  157.3699  131.0977  151.0837 H   0  0  0  0  0  0  0  0  0  0  0  0  # atno 10718 bound_to 10713
  154.3714  135.6094  153.5742 H   0  0  0  0  0  0  0  0  0  0  0  0  # atno 10763 bound_to 10752
  152.9790  135.5839  154.4518 H   0  0  0  0  0  0  0  0  0  0  0  0  # atno 10764 bound_to 10752
  154.4272  135.2847  155.1914 H   0  0  0  0  0  0  0  0  0  0  0  0  # atno 10765 bound_to 10752
  140.0336  134.5975  155.9473 H   0  0  0  0  0  0  0  0  0  0  0  0  # atno 11005 bound_to 11000
  146.1514  139.4598  143.0046 LP  0  0  0  0  0  0  0  0  0  0  0  0  # atno 17320 bound_to 7965
  145.6863  141.0177  143.1579 LP  0  0  0  0  0  0  0  0  0  0  0  0  # atno 17321 bound_to 7965
  139.4974  144.6620  151.6442 LP  0  0  0  0  0  0  0  0  0  0  0  0  # atno 17342 bound_to 10162
  140.5846  143.9886  150.6288 LP  0  0  0  0  0  0  0  0  0  0  0  0  # atno 17343 bound_to 10162
  157.1945  130.6367  149.5716 LP  0  0  0  0  0  0  0  0  0  0  0  0  # atno 17370 bound_to 10713
  155.9753  130.4711  150.6453 LP  0  0  0  0  0  0  0  0  0  0  0  0  # atno 17371 bound_to 10713
  141.1845  133.6553  156.5160 LP  0  0  0  0  0  0  0  0  0  0  0  0  # atno 17394 bound_to 11000
  140.4184  134.7210  157.4876 LP  0  0  0  0  0  0  0  0  0  0  0  0  # atno 17395 bound_to 11000

$$$$
