AV-unprocessed.smi:1380|AV-procd|sdf|5601|dock8
  -GOLD-   22720 5203D 1   1.00000     0.00000
 Structure written by MMmdl.
 34 35  0  0  0  0  0  0  0  0  2 V2000
  148.7524  134.1258  155.8458 O   0  0  0  0  0  0  0  0  0  0  0  0
  148.7745  134.6975  154.7561 C   0  0  0  0  0  0  0  0  0  0  0  0
  148.0579  134.3090  153.6921 N   0  0  0  0  0  0  0  0  0  0  0  0
  147.1535  133.1626  153.6663 C   0  0  0  0  0  0  0  0  0  0  0  0
  145.6757  133.5581  153.4692 C   0  0  0  0  0  0  0  0  0  0  0  0
  145.1412  133.2451  152.0823 C   0  0  0  0  0  0  0  0  0  0  0  0
  145.9309  132.5326  151.1535 C   0  0  0  0  0  0  0  0  0  0  0  0
  145.4089  132.2518  149.8734 C   0  0  0  0  0  0  0  0  0  0  0  0
  144.1082  132.6907  149.5513 C   0  0  0  0  0  0  0  0  0  0  0  0
  143.3818  133.3702  150.4660 N   0  3  0  0  0  0  0  0  0  0  0  0
  143.8458  133.6595  151.7014 C   0  0  0  0  0  0  0  0  0  0  0  0
  149.5302  135.7700  154.4848 N   0  0  0  0  0  0  0  0  0  0  0  0
  150.4491  136.3959  155.4266 C   0  0  0  0  0  0  0  0  0  0  0  0
  151.4041  137.4020  154.8125 C   0  0  0  0  0  0  0  0  0  0  0  0
  151.7843  138.6684  155.5445 C   0  0  0  0  0  0  0  0  0  0  0  0
  150.8954  138.7392  154.3271 C   0  0  0  0  0  0  0  0  0  0  0  0
  148.1401  134.8450  152.8405 H   0  0  0  0  0  0  0  0  0  0  0  0
  147.4644  132.4600  152.8916 H   0  0  0  0  0  0  0  0  0  0  0  0
  147.2653  132.6405  154.6168 H   0  0  0  0  0  0  0  0  0  0  0  0
  145.0545  133.0513  154.2089 H   0  0  0  0  0  0  0  0  0  0  0  0
  145.5542  134.6246  153.6618 H   0  0  0  0  0  0  0  0  0  0  0  0
  146.9252  132.2032  151.4186 H   0  0  0  0  0  0  0  0  0  0  0  0
  145.9982  131.7078  149.1496 H   0  0  0  0  0  0  0  0  0  0  0  0
  143.6306  132.5200  148.5975 H   0  0  0  0  0  0  0  0  0  0  0  0
  143.1698  134.2044  152.3447 H   0  0  0  0  0  0  0  0  0  0  0  0
  149.4767  136.1746  153.5614 H   0  0  0  0  0  0  0  0  0  0  0  0
  149.8506  136.9117  156.1777 H   0  0  0  0  0  0  0  0  0  0  0  0
  151.0147  135.6303  155.9607 H   0  0  0  0  0  0  0  0  0  0  0  0
  152.1805  136.9492  154.1986 H   0  0  0  0  0  0  0  0  0  0  0  0
  151.3237  138.8538  156.5127 H   0  0  0  0  0  0  0  0  0  0  0  0
  152.8094  139.0180  155.4420 H   0  0  0  0  0  0  0  0  0  0  0  0
  151.3271  139.1400  153.4124 H   0  0  0  0  0  0  0  0  0  0  0  0
  149.8446  138.9722  154.4880 H   0  0  0  0  0  0  0  0  0  0  0  0
  142.4428  133.6788  150.2127 H   0  0  0  0  0  0  0  0  0  0  0  0
  1  2  2  0  0  0  0
  2  3  1  0  0  0  0
  2 12  1  0  0  0  0
  3  4  1  0  0  0  0
  3 17  1  0  0  0  0
  4  5  1  0  0  0  0
  4 18  1  0  0  0  0
  4 19  1  0  0  0  0
  5  6  1  0  0  0  0
  5 20  1  0  0  0  0
  5 21  1  0  0  0  0
  6 11  1  0  0  0  0
  6  7  2  0  0  0  0
  7  8  1  0  0  0  0
  7 22  1  0  0  0  0
  8  9  2  0  0  0  0
  8 23  1  0  0  0  0
  9 10  1  0  0  0  0
  9 24  1  0  0  0  0
 10 11  2  0  0  0  0
 10 34  1  0  0  0  0
 11 25  1  0  0  0  0
 12 13  1  0  0  0  0
 12 26  1  0  0  0  0
 13 14  1  0  0  0  0
 13 27  1  0  0  0  0
 13 28  1  0  0  0  0
 14 16  1  0  0  0  0
 14 15  1  0  0  0  0
 14 29  1  0  0  0  0
 15 16  1  0  0  0  0
 15 30  1  0  0  0  0
 15 31  1  0  0  0  0
 16 32  1  0  0  0  0
 16 33  1  0  0  0  0
M  CHG  1  10   1
M  END
> <s_m_source_file>
AV-unprocessed.smi

> <i_m_source_file_index>
1380

> <i_lp_mmshare_version>
43012

> <i_f3d_flags>
0

> <s_epik_input>
W0NIMl0xW0NIMl1bQ0hdMVtDSDJdW05IXUMoPU8pW05IXVtDSDJdW0NIMl1jMltjSF1bY0hdW2NIXW5bY0hdMg==

> <s_epik_cmdline>
J2VwaWtfcHl0aG9uJywgJy1waCcsICc3LjAnLCAnLXRuJywgJzgnLCAnLW1hJywgJzIwMCcsICctbWV0YWxfYmluZGluZycsICctaW1hZScsICc8aW5maWxlLm1hZT4nLCAnLW9tYWUnLCAnPG91dGZpbGUubWFlPic=

> <r_epik_Ionization_Penalty>
2.21218

> <r_epik_Ionization_Penalty_Charging>
2.21212

> <r_epik_Ionization_Penalty_Neutral>
5.76468e-05

> <r_epik_State_Penalty>
2.35642

> <r_epik_Charging_Adjusted_Penalty>
4.56854

> <i_epik_Tot_Q>
1

> <i_epik_Tot_abs_Q>
1

> <r_epik_Metal_State_Penalty>
2.37048

> <b_epik_Metal_Only>
0

> <s_lp_Force_Field>
OPLS_2005

> <r_lp_Energy>
16.6962

> <b_lp_Chiralities_Consistent>
1

> <s_lp_Variant>
AV-unprocessed.smi:1380-2

> <Gold.Version>
5.8.1

> <Gold.Id.Protein>
6NUR|6NUR_protein|mol2

> <Gold.PLP.Fitness>
42.4711

> <Gold.PLP.PLP>
-31.5113

> <Gold.PLP.part.hbond>
-3.1550

> <Gold.PLP.part.metal>
0.0000

> <Gold.PLP.part.buried>
-4.1419

> <Gold.PLP.part.nonpolar>
-24.1984

> <Gold.PLP.part.repulsive>
0.1004

> <Gold.PLP.ligand.clash>
0.0000

> <Gold.PLP.ligand.torsion>
0.7409

> <Gold.PLP.Chemscore.Hbond>
3.9600

> <Gold.PLP.Chemscore.CHOScore>
0.0000

> <Gold.PLP.Chemscore.Metal>
0.0000

> <Gold.Chemscore.Hbonds>
donor molecule, donor type, donor heavy atom, donor atom, acceptor molecule, acceptor atom, score
      L1  H     3    17       P1  7948  1.00
      L1  H    10    34       P1 10186  2.00
      L1  H    12    26       P1  7948  1.00

> <Gold.PLP.Chemscore.Internal.Correction>
0.5617

> <Gold.Rescore>
     Score         DG    S(hbond)    S(metal)    S(lipo)     H(rot)  DE(clash)    DE(int)     intcor
     17.72     -18.77       2.68        0.00      76.62       1.80       0.02       1.03       ----

> <Gold.Chemscore.Fitness>
17.7192

> <Gold.Chemscore.DG>
-18.7654

> <Gold.Chemscore.ZeroCoef>
-5.4800

> <Gold.Chemscore.Hbond>
2.6771

> <Gold.Chemscore.Metal>
0.0000

> <Gold.Chemscore.Lipo>
76.6152

> <Gold.Chemscore.Internal_Hbond>
0.0000

> <Gold.Chemscore.DEClash>
0.0153

> <Gold.Chemscore.DEInternal>
1.0309

> <Gold.Chemscore.Rot>
1.8047

> <Gold.Chemscore.Internal.Correction>
   9.000000E+99

> <Gold.Chemscore.Hbonds>
donor molecule, donor type, donor heavy atom, donor atom, acceptor molecule, acceptor atom, score
      L1  H     3    17       P1  7948  0.74
      L1  H    10    34       P1 10186  1.00
      L1  H    12    26       P1  7948  0.59

> <Gold.Chemscore.Hbond.Weighted>
-8.9414

> <Gold.Chemscore.Metal.Weighted>
-0.0000

> <Gold.Chemscore.Lipo.Weighted>
-8.9640

> <Gold.Chemscore.Internal_Hbond.Weighted>
0.0000

> <Gold.Chemscore.DEClash.Weighted>
0.0153

> <Gold.Chemscore.DEInternal.Weighted>
1.0309

> <Gold.Chemscore.Rot.Weighted>
4.6199

> <Gold.Chemscore.Internal.Correction.Weighted>
   9.000000E+99

> <Gold.Protein.RotatedTorsions>
[ 6907 6896 6895 6894 ] final  169.22 input  -60.11 | X-H torsion
[ 7974 7965 7964 7962 ] final  -58.94 input  175.53 | X-H torsion
[ 8008 7997 7996 7995 ] final   48.46 input   59.86 | X-H torsion
[ 10167 10162 10161 10158 ] final -121.16 input  -65.29 | X-H torsion
[ 10718 10713 10712 10709 ] final  -46.56 input   66.30 | X-H torsion
[ 10763 10752 10751 10750 ] final  -93.17 input  -60.55 | X-H torsion
[ 11005 11000 10999 10996 ] final    2.94 input  -57.11 | X-H torsion

> <Gold.Protein.ActiveResidues>
 VAL166  LYS551  ARG553  GLY616  TRP617  ASP618  TYR619  PRO620  LYS621  CYS622 
 ASP623  PHE694  ASN695  SER759  ASP760  ASP761  ALA762  ILE779  LEU786  VAL792 
 PHE793  MET794  SER795  GLU796  ALA797  LYS798  CYS799  TRP800  GLU811  SER814 

> <Gold.Protein.RotatedAtoms>
  151.8353  133.3415  159.3625 H   0  0  0  0  0  0  0  0  0  0  0  0  # atno 6907 bound_to 6896
  150.7251  134.5443  159.5772 H   0  0  0  0  0  0  0  0  0  0  0  0  # atno 6908 bound_to 6896
  152.2905  134.7727  160.0430 H   0  0  0  0  0  0  0  0  0  0  0  0  # atno 6909 bound_to 6896
  145.8334  140.8465  143.0072 H   0  0  0  0  0  0  0  0  0  0  0  0  # atno 7974 bound_to 7965
  155.3859  140.3431  155.4249 H   0  0  0  0  0  0  0  0  0  0  0  0  # atno 8008 bound_to 7997
  156.1584  140.1593  156.8686 H   0  0  0  0  0  0  0  0  0  0  0  0  # atno 8009 bound_to 7997
  154.5117  140.0788  156.7983 H   0  0  0  0  0  0  0  0  0  0  0  0  # atno 8010 bound_to 7997
  140.0280  143.5277  152.2190 H   0  0  0  0  0  0  0  0  0  0  0  0  # atno 10167 bound_to 10162
  156.2171  130.4164  149.9040 H   0  0  0  0  0  0  0  0  0  0  0  0  # atno 10718 bound_to 10713
  154.6933  135.5204  153.8422 H   0  0  0  0  0  0  0  0  0  0  0  0  # atno 10763 bound_to 10752
  153.0648  135.6581  154.0389 H   0  0  0  0  0  0  0  0  0  0  0  0  # atno 10764 bound_to 10752
  154.0260  135.2989  155.3354 H   0  0  0  0  0  0  0  0  0  0  0  0  # atno 10765 bound_to 10752
  140.5987  133.9856  155.8122 H   0  0  0  0  0  0  0  0  0  0  0  0  # atno 11005 bound_to 11000
  144.6738  140.0706  143.7473 LP  0  0  0  0  0  0  0  0  0  0  0  0  # atno 17320 bound_to 7965
  145.9545  139.2757  143.1192 LP  0  0  0  0  0  0  0  0  0  0  0  0  # atno 17321 bound_to 7965
  139.6095  144.7605  151.2985 LP  0  0  0  0  0  0  0  0  0  0  0  0  # atno 17342 bound_to 10162
  140.7314  143.6852  150.7967 LP  0  0  0  0  0  0  0  0  0  0  0  0  # atno 17343 bound_to 10162
  156.6699  130.8816  151.3560 LP  0  0  0  0  0  0  0  0  0  0  0  0  # atno 17370 bound_to 10713
  157.7069  130.9395  150.0959 LP  0  0  0  0  0  0  0  0  0  0  0  0  # atno 17371 bound_to 10713
  141.0887  133.9951  157.3272 LP  0  0  0  0  0  0  0  0  0  0  0  0  # atno 17394 bound_to 11000
  139.9242  135.0201  156.8174 LP  0  0  0  0  0  0  0  0  0  0  0  0  # atno 17395 bound_to 11000

$$$$
