AV-unprocessed.smi:53|AV-procd|sdf|517|dock2
  -GOLD-   2262016393D 1   1.00000     0.00000
 Structure written by MMmdl.
 30 31  0  0  0  0  0  0  0  0  1 V2000
  154.1781  138.3236  154.4735 N   0  0  0  0  0  0  0  0  0  0  0  0
  152.9000  138.6737  154.6741 C   0  0  0  0  0  0  0  0  0  0  0  0
  151.8453  138.0614  153.8982 C   0  0  0  0  0  0  0  0  0  0  0  0
  150.5830  138.4657  154.1599 C   0  0  0  0  0  0  0  0  0  0  0  0
  150.2967  139.4169  155.1290 N   0  0  0  0  0  0  0  0  0  0  0  0
  148.8704  139.8534  155.3918 C   0  0  2  0  0  0  0  0  0  0  0  0
  148.0803  138.7143  155.5602 O   0  0  0  0  0  0  0  0  0  0  0  0
  146.8340  138.9058  154.9031 C   0  0  2  0  0  0  0  0  0  0  0  0
  146.1267  137.5629  154.6487 C   0  0  0  0  0  0  0  0  0  0  0  0
  145.7792  136.9535  155.8739 O   0  0  0  0  0  0  0  0  0  0  0  0
  147.1927  139.7529  153.6738 C   0  0  2  0  0  0  0  0  0  0  0  0
  147.6707  138.9412  152.6136 O   0  0  0  0  0  0  0  0  0  0  0  0
  148.2693  140.6802  154.2322 C   0  0  2  0  0  0  0  0  0  0  0  0
  149.1894  141.1287  153.2503 O   0  0  0  0  0  0  0  0  0  0  0  0
  151.3527  140.0094  155.8630 C   0  0  0  0  0  0  0  0  0  0  0  0
  151.1493  140.8813  156.7071 O   0  0  0  0  0  0  0  0  0  0  0  0
  152.6249  139.5857  155.5866 N   0  0  0  0  0  0  0  0  0  0  0  0
  148.8724  140.3952  156.3391 H   0  0  0  0  0  0  0  0  0  0  0  0
  146.2179  139.5086  155.5734 H   0  0  0  0  0  0  0  0  0  0  0  0
  146.3308  140.3115  153.3073 H   0  0  0  0  0  0  0  0  0  0  0  0
  147.7902  141.5532  154.6775 H   0  0  0  0  0  0  0  0  0  0  0  0
  154.9133  138.7543  155.0149 H   0  0  0  0  0  0  0  0  0  0  0  0
  154.4035  137.6253  153.7795 H   0  0  0  0  0  0  0  0  0  0  0  0
  152.0224  137.3140  153.1381 H   0  0  0  0  0  0  0  0  0  0  0  0
  149.7828  138.0226  153.5859 H   0  0  0  0  0  0  0  0  0  0  0  0
  145.2378  137.6840  154.0295 H   0  0  0  0  0  0  0  0  0  0  0  0
  146.7947  136.8890  154.1121 H   0  0  0  0  0  0  0  0  0  0  0  0
  146.1820  136.0992  155.9094 H   0  0  0  0  0  0  0  0  0  0  0  0
  148.4632  139.3288  152.2753 H   0  0  0  0  0  0  0  0  0  0  0  0
  149.1603  140.5306  152.5188 H   0  0  0  0  0  0  0  0  0  0  0  0
  1  2  1  0  0  0  0
  1 22  1  0  0  0  0
  1 23  1  0  0  0  0
  2 17  2  0  0  0  0
  2  3  1  0  0  0  0
  3  4  2  0  0  0  0
  3 24  1  0  0  0  0
  4  5  1  0  0  0  0
  4 25  1  0  0  0  0
  5  6  1  0  0  0  0
  5 15  1  0  0  0  0
  6 18  1  0  0  0  0
  6 13  1  0  0  0  0
  6  7  1  0  0  0  0
  7  8  1  0  0  0  0
  8 19  1  0  0  0  0
  8  9  1  0  0  0  0
  8 11  1  0  0  0  0
  9 10  1  0  0  0  0
  9 26  1  0  0  0  0
  9 27  1  0  0  0  0
 10 28  1  0  0  0  0
 11 20  1  0  0  0  0
 11 12  1  0  0  0  0
 11 13  1  0  0  0  0
 12 29  1  0  0  0  0
 13 21  1  0  0  0  0
 13 14  1  0  0  0  0
 14 30  1  0  0  0  0
 15 16  2  0  0  0  0
 15 17  1  0  0  0  0
M  END
> <s_m_source_file>
AV-unprocessed.smi

> <i_m_source_file_index>
53

> <i_lp_mmshare_version>
43012

> <i_f3d_flags>
0

> <s_epik_input>
W05IMl1jMVtjSF1bY0hdbihjKD1PKW4xKVtDQEBIXTJPW0NASF0oW0NIMl1bT0hdKVtDQEBIXShbT0hdKVtDQEBIXTJbT0hd

> <s_epik_cmdline>
J2VwaWtfcHl0aG9uJywgJy1waCcsICc3LjAnLCAnLXRuJywgJzgnLCAnLW1hJywgJzIwMCcsICctbWV0YWxfYmluZGluZycsICctaW1hZScsICc8aW5maWxlLm1hZT4nLCAnLW9tYWUnLCAnPG91dGZpbGUubWFlPic=

> <r_lp_tautomer_probability>
0.99996

> <r_epik_Ionization_Penalty>
0.00069087

> <r_epik_Ionization_Penalty_Charging>
2.61959e-08

> <r_epik_Ionization_Penalty_Neutral>
0.000690844

> <r_epik_State_Penalty>
1.15523e-05

> <r_epik_Charging_Adjusted_Penalty>
1.15785e-05

> <i_epik_Tot_Q>
0

> <i_epik_Tot_abs_Q>
0

> <r_epik_Metal_State_Penalty>
-0

> <b_epik_Metal_Only>
0

> <s_epik_Chemistry_Notes>
This compound contains an acetal/aminal-like group ( X-CH(R)-Y where X, Y are N, S, or O) that may be acid/base labile, releasing an aldehyde.

> <s_lp_Force_Field>
OPLS_2005

> <r_lp_Energy>
39.6979

> <b_lp_Chiralities_Consistent>
1

> <s_lp_Variant>
AV-unprocessed.smi:53-5

> <Gold.Version>
5.8.1

> <Gold.Id.Protein>
6NUR|6NUR_protein|mol2

> <Gold.PLP.Fitness>
38.9642

> <Gold.PLP.PLP>
-25.8921

> <Gold.PLP.part.hbond>
-5.3167

> <Gold.PLP.part.metal>
0.0000

> <Gold.PLP.part.buried>
-6.6740

> <Gold.PLP.part.nonpolar>
-15.8554

> <Gold.PLP.part.repulsive>
0.9862

> <Gold.PLP.ligand.clash>
0.0000

> <Gold.PLP.ligand.torsion>
0.2085

> <Gold.PLP.Chemscore.Hbond>
3.7342

> <Gold.PLP.Chemscore.CHOScore>
0.7555

> <Gold.PLP.Chemscore.Metal>
0.0000

> <Gold.Chemscore.Hbonds>
donor molecule, donor type, donor heavy atom, donor atom, acceptor molecule, acceptor atom, score
      L1  H    12    29       P1  7957  1.00
      L1  H    14    30       P1  7957  0.94
      P1  H  7997  8008       L1    17  1.00
      P1  H  8011  8017       L1    14  0.70
      L1  C     4    25       P1  7948  0.87

> <Gold.PLP.Chemscore.Internal.Correction>
0.0200

> <Gold.Rescore>
     Score         DG    S(hbond)    S(metal)    S(lipo)     H(rot)  DE(clash)    DE(int)     intcor
      8.50     -10.19       3.12        0.00      32.32       3.71       1.45       0.23       ----

> <Gold.Chemscore.Fitness>
8.5037

> <Gold.Chemscore.DG>
-10.1860

> <Gold.Chemscore.ZeroCoef>
-5.4800

> <Gold.Chemscore.Hbond>
3.1199

> <Gold.Chemscore.Metal>
0.0000

> <Gold.Chemscore.Lipo>
32.3236

> <Gold.Chemscore.Internal_Hbond>
0.0000

> <Gold.Chemscore.DEClash>
1.4492

> <Gold.Chemscore.DEInternal>
0.2332

> <Gold.Chemscore.Rot>
3.7095

> <Gold.Chemscore.Internal.Correction>
   9.000000E+99

> <Gold.Chemscore.Hbonds>
donor molecule, donor type, donor heavy atom, donor atom, acceptor molecule, acceptor atom, score
      L1  H    12    29       P1  7957  0.99
      L1  H    14    30       P1  7957  0.87
      P1  H  7997  8008       L1    17  0.50
      P1  H  8011  8017       L1    14  0.07

> <Gold.Chemscore.Hbond.Weighted>
-10.4206

> <Gold.Chemscore.Metal.Weighted>
-0.0000

> <Gold.Chemscore.Lipo.Weighted>
-3.7819

> <Gold.Chemscore.Internal_Hbond.Weighted>
0.0000

> <Gold.Chemscore.DEClash.Weighted>
1.4492

> <Gold.Chemscore.DEInternal.Weighted>
0.2332

> <Gold.Chemscore.Rot.Weighted>
9.4964

> <Gold.Chemscore.Internal.Correction.Weighted>
   9.000000E+99

> <Gold.Protein.RotatedTorsions>
[ 6907 6896 6895 6894 ] final   -6.07 input  -60.11 | X-H torsion
[ 7974 7965 7964 7962 ] final  167.90 input  175.53 | X-H torsion
[ 8008 7997 7996 7995 ] final  -42.11 input   59.86 | X-H torsion
[ 10167 10162 10161 10158 ] final  -37.98 input  -65.29 | X-H torsion
[ 10718 10713 10712 10709 ] final  -92.44 input   66.30 | X-H torsion
[ 10763 10752 10751 10750 ] final  -85.28 input  -60.55 | X-H torsion
[ 11005 11000 10999 10996 ] final -169.12 input  -57.11 | X-H torsion

> <Gold.Protein.ActiveResidues>
 VAL166  LYS551  ARG553  GLY616  TRP617  ASP618  TYR619  PRO620  LYS621  CYS622 
 ASP623  PHE694  ASN695  SER759  ASP760  ASP761  ALA762  ILE779  LEU786  VAL792 
 PHE793  MET794  SER795  GLU796  ALA797  LYS798  CYS799  TRP800  GLU811  SER814 

> <Gold.Protein.RotatedAtoms>
  151.4715  135.1046  159.9752 H   0  0  0  0  0  0  0  0  0  0  0  0  # atno 6907 bound_to 6896
  152.4815  133.8261  159.7089 H   0  0  0  0  0  0  0  0  0  0  0  0  # atno 6908 bound_to 6896
  150.8890  133.7208  159.2937 H   0  0  0  0  0  0  0  0  0  0  0  0  # atno 6909 bound_to 6896
  144.7407  139.8829  143.6397 H   0  0  0  0  0  0  0  0  0  0  0  0  # atno 7974 bound_to 7965
  154.4000  140.1482  156.3302 H   0  0  0  0  0  0  0  0  0  0  0  0  # atno 8008 bound_to 7997
  155.8450  140.3460  155.5635 H   0  0  0  0  0  0  0  0  0  0  0  0  # atno 8009 bound_to 7997
  155.8045  140.0875  157.1929 H   0  0  0  0  0  0  0  0  0  0  0  0  # atno 8010 bound_to 7997
  140.7104  143.3307  151.2576 H   0  0  0  0  0  0  0  0  0  0  0  0  # atno 10167 bound_to 10162
  156.0002  130.4987  150.5626 H   0  0  0  0  0  0  0  0  0  0  0  0  # atno 10718 bound_to 10713
  154.6093  135.5490  153.7456 H   0  0  0  0  0  0  0  0  0  0  0  0  # atno 10763 bound_to 10752
  153.0188  135.6385  154.1601 H   0  0  0  0  0  0  0  0  0  0  0  0  # atno 10764 bound_to 10752
  154.1539  135.2901  155.3107 H   0  0  0  0  0  0  0  0  0  0  0  0  # atno 10765 bound_to 10752
  140.5344  134.5585  157.5083 H   0  0  0  0  0  0  0  0  0  0  0  0  # atno 11005 bound_to 11000
  146.1198  139.4214  143.0235 LP  0  0  0  0  0  0  0  0  0  0  0  0  # atno 17320 bound_to 7965
  145.7321  141.0038  143.1346 LP  0  0  0  0  0  0  0  0  0  0  0  0  # atno 17321 bound_to 7965
  139.6788  143.9891  152.2796 LP  0  0  0  0  0  0  0  0  0  0  0  0  # atno 17342 bound_to 10162
  139.9514  144.6618  150.8168 LP  0  0  0  0  0  0  0  0  0  0  0  0  # atno 17343 bound_to 10162
  157.3533  131.0737  151.1696 LP  0  0  0  0  0  0  0  0  0  0  0  0  # atno 17370 bound_to 10713
  157.2505  130.6611  149.5929 LP  0  0  0  0  0  0  0  0  0  0  0  0  # atno 17371 bound_to 10713
  139.9537  134.7572  156.0390 LP  0  0  0  0  0  0  0  0  0  0  0  0  # atno 17394 bound_to 11000
  141.1263  133.6598  156.3346 LP  0  0  0  0  0  0  0  0  0  0  0  0  # atno 17395 bound_to 11000

$$$$
