AV-unprocessed.smi:2046|AV-procd|sdf|8311|dock8
  -GOLD-   2272010573D 1   1.00000     0.00000
 Structure written by MMmdl.
 30 31  0  0  0  0  0  0  0  0  1 V2000
  147.7542  140.8724  158.3285 O   0  0  0  0  0  0  0  0  0  0  0  0
  148.0638  141.9356  157.7895 C   0  0  0  0  0  0  0  0  0  0  0  0
  147.6439  143.1539  158.1736 N   0  0  0  0  0  0  0  0  0  0  0  0
  146.7786  143.4888  159.2487 C   0  0  0  0  0  0  0  0  0  0  0  0
  146.8139  142.8875  160.4485 N   0  0  0  0  0  0  0  0  0  0  0  0
  145.8611  143.4045  161.3169 N   0  0  0  0  0  0  0  0  0  0  0  0
  145.1460  144.3739  160.7391 C   0  0  0  0  0  0  0  0  0  0  0  0
  145.5664  144.7502  159.0771 S   0  0  0  0  0  0  0  0  0  0  0  0
  148.8781  142.0171  156.7271 N   0  0  0  0  0  0  0  0  0  0  0  0
  149.4936  140.8853  156.0338 C   0  0  2  0  0  0  0  0  0  0  0  0
  150.9630  140.6955  156.4910 C   0  0  0  0  0  0  0  0  0  0  0  0
  151.8950  139.9732  155.4956 C   0  0  0  0  0  0  0  0  0  0  0  0
  151.3943  138.6052  154.9892 C   0  0  0  0  0  0  0  0  0  0  0  0
  149.9933  138.5763  154.3319 C   0  0  0  0  0  0  0  0  0  0  0  0
  149.5544  139.8602  153.7858 N   0  0  0  0  0  0  0  0  0  0  0  0
  149.2815  140.9598  154.5094 C   0  0  0  0  0  0  0  0  0  0  0  0
  148.8965  142.0000  153.9766 O   0  0  0  0  0  0  0  0  0  0  0  0
  147.9820  143.9350  157.6311 H   0  0  0  0  0  0  0  0  0  0  0  0
  144.3651  144.8708  161.2956 H   0  0  0  0  0  0  0  0  0  0  0  0
  149.0743  142.9320  156.3475 H   0  0  0  0  0  0  0  0  0  0  0  0
  148.9376  140.0026  156.3525 H   0  0  0  0  0  0  0  0  0  0  0  0
  151.4043  141.6706  156.7022 H   0  0  0  0  0  0  0  0  0  0  0  0
  150.9696  140.1598  157.4411 H   0  0  0  0  0  0  0  0  0  0  0  0
  152.0876  140.6242  154.6417 H   0  0  0  0  0  0  0  0  0  0  0  0
  152.8678  139.8350  155.9682 H   0  0  0  0  0  0  0  0  0  0  0  0
  152.1207  138.2395  154.2626 H   0  0  0  0  0  0  0  0  0  0  0  0
  151.4147  137.8843  155.8070 H   0  0  0  0  0  0  0  0  0  0  0  0
  149.9847  137.8404  153.5274 H   0  0  0  0  0  0  0  0  0  0  0  0
  149.2519  138.2230  155.0493 H   0  0  0  0  0  0  0  0  0  0  0  0
  149.4297  139.9120  152.7851 H   0  0  0  0  0  0  0  0  0  0  0  0
  1  2  2  0  0  0  0
  2  3  1  0  0  0  0
  2  9  1  0  0  0  0
  3  4  1  0  0  0  0
  3 18  1  0  0  0  0
  4  8  1  0  0  0  0
  4  5  2  0  0  0  0
  5  6  1  0  0  0  0
  6  7  2  0  0  0  0
  7  8  1  0  0  0  0
  7 19  1  0  0  0  0
  9 10  1  0  0  0  0
  9 20  1  0  0  0  0
 10 16  1  0  0  0  0
 10 11  1  0  0  0  0
 10 21  1  0  0  0  0
 11 12  1  0  0  0  0
 11 22  1  0  0  0  0
 11 23  1  0  0  0  0
 12 13  1  0  0  0  0
 12 24  1  0  0  0  0
 12 25  1  0  0  0  0
 13 14  1  0  0  0  0
 13 26  1  0  0  0  0
 13 27  1  0  0  0  0
 14 15  1  0  0  0  0
 14 28  1  0  0  0  0
 14 29  1  0  0  0  0
 15 16  1  0  0  0  0
 15 30  1  0  0  0  0
 16 17  2  0  0  0  0
M  END
> <s_m_source_file>
AV-unprocessed.smi

> <i_m_source_file_index>
2046

> <i_lp_mmshare_version>
43012

> <i_f3d_flags>
0

> <s_epik_input>
czFbY0hdbm5jMVtOSF1DKD1PKVtOSF1bQ0BASF0yW0NIMl1bQ0gyXVtDSDJdW0NIMl1bTkhdQzI9Tw==

> <s_epik_cmdline>
J2VwaWtfcHl0aG9uJywgJy1waCcsICc3LjAnLCAnLXRuJywgJzgnLCAnLW1hJywgJzIwMCcsICctbWV0YWxfYmluZGluZycsICctaW1hZScsICc8aW5maWxlLm1hZT4nLCAnLW9tYWUnLCAnPG91dGZpbGUubWFlPic=

> <r_lp_tautomer_probability>
1

> <r_epik_Ionization_Penalty>
0.000691558

> <r_epik_Ionization_Penalty_Charging>
0

> <r_epik_Ionization_Penalty_Neutral>
0.000691558

> <r_epik_State_Penalty>
-0

> <r_epik_Charging_Adjusted_Penalty>
0

> <i_epik_Tot_Q>
0

> <i_epik_Tot_abs_Q>
0

> <r_epik_Metal_State_Penalty>
0.252698

> <b_epik_Metal_Only>
0

> <s_lp_Force_Field>
OPLS_2005

> <r_lp_Energy>
13.4172

> <b_lp_Chiralities_Consistent>
1

> <s_lp_Variant>
AV-unprocessed.smi:2046-1

> <Gold.Version>
5.8.1

> <Gold.Id.Protein>
6NUR|6NUR_protein|mol2

> <Gold.PLP.Fitness>
40.4473

> <Gold.PLP.PLP>
-27.6819

> <Gold.PLP.part.hbond>
-7.5057

> <Gold.PLP.part.metal>
0.0000

> <Gold.PLP.part.buried>
-2.6968

> <Gold.PLP.part.nonpolar>
-18.1912

> <Gold.PLP.part.repulsive>
0.5221

> <Gold.PLP.ligand.clash>
0.0000

> <Gold.PLP.ligand.torsion>
0.4953

> <Gold.PLP.Chemscore.Hbond>
4.5679

> <Gold.PLP.Chemscore.CHOScore>
0.0000

> <Gold.PLP.Chemscore.Metal>
0.0000

> <Gold.Chemscore.Hbonds>
donor molecule, donor type, donor heavy atom, donor atom, acceptor molecule, acceptor atom, score
      L1  H     3    18       P1  8029  0.29
      L1  H     9    20       P1  8028  1.00
      L1  H    15    30       P1  7957  1.00
      P1  H  6933  6944       L1     5  0.93
      P1  H  6934  6946       L1     5  0.89
      P1  H  8011  8017       L1    17  0.43

> <Gold.PLP.Chemscore.Internal.Correction>
0.0524

> <Gold.Rescore>
     Score         DG    S(hbond)    S(metal)    S(lipo)     H(rot)  DE(clash)    DE(int)     intcor
     19.47     -20.17       3.73        0.00      40.97       1.00       0.17       0.54       ----

> <Gold.Chemscore.Fitness>
19.4659

> <Gold.Chemscore.DG>
-20.1704

> <Gold.Chemscore.ZeroCoef>
-5.4800

> <Gold.Chemscore.Hbond>
3.7296

> <Gold.Chemscore.Metal>
0.0000

> <Gold.Chemscore.Lipo>
40.9687

> <Gold.Chemscore.Internal_Hbond>
0.0000

> <Gold.Chemscore.DEClash>
0.1669

> <Gold.Chemscore.DEInternal>
0.5376

> <Gold.Chemscore.Rot>
1.0000

> <Gold.Chemscore.Internal.Correction>
   9.000000E+99

> <Gold.Chemscore.Hbonds>
donor molecule, donor type, donor heavy atom, donor atom, acceptor molecule, acceptor atom, score
      L1  H     9    20       P1  8028  0.99
      L1  H    15    30       P1  7957  1.00
      P1  H  6933  6944       L1     5  0.66
      P1  H  6934  6946       L1     5  0.58
      P1  H  8011  8017       L1    17  0.38

> <Gold.Chemscore.Hbond.Weighted>
-12.4570

> <Gold.Chemscore.Metal.Weighted>
-0.0000

> <Gold.Chemscore.Lipo.Weighted>
-4.7933

> <Gold.Chemscore.Internal_Hbond.Weighted>
0.0000

> <Gold.Chemscore.DEClash.Weighted>
0.1669

> <Gold.Chemscore.DEInternal.Weighted>
0.5376

> <Gold.Chemscore.Rot.Weighted>
2.5600

> <Gold.Chemscore.Internal.Correction.Weighted>
   9.000000E+99

> <Gold.Protein.RotatedTorsions>
[ 6907 6896 6895 6894 ] final -104.19 input  -60.11 | X-H torsion
[ 7974 7965 7964 7962 ] final -129.56 input  175.53 | X-H torsion
[ 8008 7997 7996 7995 ] final  -37.04 input   59.86 | X-H torsion
[ 10167 10162 10161 10158 ] final  127.35 input  -65.29 | X-H torsion
[ 10718 10713 10712 10709 ] final  -59.33 input   66.30 | X-H torsion
[ 10763 10752 10751 10750 ] final    5.06 input  -60.55 | X-H torsion
[ 11005 11000 10999 10996 ] final   14.40 input  -57.11 | X-H torsion

> <Gold.Protein.ActiveResidues>
 VAL166  LYS551  ARG553  GLY616  TRP617  ASP618  TYR619  PRO620  LYS621  CYS622 
 ASP623  PHE694  ASN695  SER759  ASP760  ASP761  ALA762  ILE779  LEU786  VAL792 
 PHE793  MET794  SER795  GLU796  ALA797  LYS798  CYS799  TRP800  GLU811  SER814 

> <Gold.Protein.RotatedAtoms>
  150.7275  134.0315  159.3734 H   0  0  0  0  0  0  0  0  0  0  0  0  # atno 6907 bound_to 6896
  151.8284  135.0627  160.0443 H   0  0  0  0  0  0  0  0  0  0  0  0  # atno 6908 bound_to 6896
  152.2951  133.5564  159.5619 H   0  0  0  0  0  0  0  0  0  0  0  0  # atno 6909 bound_to 6896
  144.9560  140.7396  143.4758 H   0  0  0  0  0  0  0  0  0  0  0  0  # atno 7974 bound_to 7965
  154.4061  140.1614  156.2472 H   0  0  0  0  0  0  0  0  0  0  0  0  # atno 8008 bound_to 7997
  155.9150  140.3425  155.6105 H   0  0  0  0  0  0  0  0  0  0  0  0  # atno 8009 bound_to 7997
  155.7290  140.0778  157.2288 H   0  0  0  0  0  0  0  0  0  0  0  0  # atno 8010 bound_to 7997
  139.5583  144.6864  151.4117 H   0  0  0  0  0  0  0  0  0  0  0  0  # atno 10167 bound_to 10162
  156.1070  130.4179  150.0700 H   0  0  0  0  0  0  0  0  0  0  0  0  # atno 10718 bound_to 10713
  153.2638  135.6926  153.7551 H   0  0  0  0  0  0  0  0  0  0  0  0  # atno 10763 bound_to 10752
  153.6600  135.3362  155.3125 H   0  0  0  0  0  0  0  0  0  0  0  0  # atno 10764 bound_to 10752
  154.8440  135.4475  154.1638 H   0  0  0  0  0  0  0  0  0  0  0  0  # atno 10765 bound_to 10752
  140.4700  134.1041  155.7731 H   0  0  0  0  0  0  0  0  0  0  0  0  # atno 11005 bound_to 11000
  145.2772  139.1932  143.4810 LP  0  0  0  0  0  0  0  0  0  0  0  0  # atno 17320 bound_to 7965
  146.3337  140.2728  142.8606 LP  0  0  0  0  0  0  0  0  0  0  0  0  # atno 17321 bound_to 7965
  140.6859  143.7974  150.7186 LP  0  0  0  0  0  0  0  0  0  0  0  0  # atno 17342 bound_to 10162
  140.1442  143.4414  152.2174 LP  0  0  0  0  0  0  0  0  0  0  0  0  # atno 17343 bound_to 10162
  156.8673  130.9512  151.3612 LP  0  0  0  0  0  0  0  0  0  0  0  0  # atno 17370 bound_to 10713
  157.6247  130.8682  149.9169 LP  0  0  0  0  0  0  0  0  0  0  0  0  # atno 17371 bound_to 10713
  141.1581  133.8844  157.1922 LP  0  0  0  0  0  0  0  0  0  0  0  0  # atno 17394 bound_to 11000
  139.9891  135.0071  156.9933 LP  0  0  0  0  0  0  0  0  0  0  0  0  # atno 17395 bound_to 11000

$$$$
