AV-unprocessed.smi:40|AV-procd|sdf|378|dock6
  -GOLD-   2262016233D 1   1.00000     0.00000
 Structure written by MMmdl.
 47 48  0  0  0  0  0  0  0  0  1 V2000
  152.9683  143.3932  159.9545 C   0  0  0  0  0  0  0  0  0  0  0  0
  151.8565  143.1074  158.9396 C   0  0  0  0  0  0  0  0  0  0  0  0
  152.1042  141.8193  158.1415 C   0  0  0  0  0  0  0  0  0  0  0  0
  150.9906  141.5339  157.1257 C   0  0  0  0  0  0  0  0  0  0  0  0
  151.3618  140.4014  156.1563 C   0  0  0  0  0  0  0  0  0  0  0  0
  150.3575  140.2431  155.1634 O   0  0  0  0  0  0  0  0  0  0  0  0
  149.4069  139.2899  155.2873 C   0  0  0  0  0  0  0  0  0  0  0  0
  149.2127  138.6304  156.3081 O   0  0  0  0  0  0  0  0  0  0  0  0
  148.6270  139.1745  154.0721 N   0  0  0  0  0  0  0  0  0  0  0  0
  147.6003  138.3261  153.8481 C   0  0  0  0  0  0  0  0  0  0  0  0
  147.4580  137.3120  154.6799 N   0  0  0  0  0  0  0  0  0  0  0  0
  146.4638  136.3768  154.5748 C   0  0  0  0  0  0  0  0  0  0  0  0
  146.3526  135.4888  155.4186 O   0  0  0  0  0  0  0  0  0  0  0  0
  145.5739  136.4805  153.4763 N   0  0  0  0  0  0  0  0  0  0  0  0
  144.4396  135.4734  153.3626 C   0  0  1  0  0  0  0  0  0  0  0  0
  143.5782  135.8498  152.3229 O   0  0  0  0  0  0  0  0  0  0  0  0
  143.7586  135.0207  151.1783 C   0  0  1  0  0  0  0  0  0  0  0  0
  144.8147  135.6199  150.2283 C   0  0  0  0  0  0  0  0  0  0  0  0
  144.1235  133.6701  151.7978 C   0  0  1  0  0  0  0  0  0  0  0  0
  144.8522  132.8420  150.9123 O   0  0  0  0  0  0  0  0  0  0  0  0
  144.9476  134.0497  153.0220 C   0  0  2  0  0  0  0  0  0  0  0  0
  144.6853  133.1330  154.0658 O   0  0  0  0  0  0  0  0  0  0  0  0
  145.6908  137.5642  152.6134 C   0  0  0  0  0  0  0  0  0  0  0  0
  146.6718  138.4827  152.7434 C   0  0  0  0  0  0  0  0  0  0  0  0
  146.7766  139.4929  151.8620 F   0  0  0  0  0  0  0  0  0  0  0  0
  143.9148  135.5453  154.3168 H   0  0  0  0  0  0  0  0  0  0  0  0
  142.8132  134.9483  150.6397 H   0  0  0  0  0  0  0  0  0  0  0  0
  143.2046  133.1632  152.0977 H   0  0  0  0  0  0  0  0  0  0  0  0
  146.0115  134.0740  152.7804 H   0  0  0  0  0  0  0  0  0  0  0  0
  152.7652  144.3127  160.5039 H   0  0  0  0  0  0  0  0  0  0  0  0
  153.9329  143.5086  159.4592 H   0  0  0  0  0  0  0  0  0  0  0  0
  153.0576  142.5841  160.6798 H   0  0  0  0  0  0  0  0  0  0  0  0
  150.9018  143.0365  159.4619 H   0  0  0  0  0  0  0  0  0  0  0  0
  151.7718  143.9519  158.2546 H   0  0  0  0  0  0  0  0  0  0  0  0
  153.0588  141.8944  157.6191 H   0  0  0  0  0  0  0  0  0  0  0  0
  152.1939  140.9772  158.8290 H   0  0  0  0  0  0  0  0  0  0  0  0
  150.0726  141.2705  157.6526 H   0  0  0  0  0  0  0  0  0  0  0  0
  150.7742  142.4432  156.5636 H   0  0  0  0  0  0  0  0  0  0  0  0
  152.3365  140.5819  155.7002 H   0  0  0  0  0  0  0  0  0  0  0  0
  151.4449  139.4635  156.7059 H   0  0  0  0  0  0  0  0  0  0  0  0
  148.9298  139.7689  153.3145 H   0  0  0  0  0  0  0  0  0  0  0  0
  144.9127  135.0208  149.3229 H   0  0  0  0  0  0  0  0  0  0  0  0
  145.7986  135.6753  150.6935 H   0  0  0  0  0  0  0  0  0  0  0  0
  144.5317  136.6259  149.9190 H   0  0  0  0  0  0  0  0  0  0  0  0
  145.4706  132.3373  151.4185 H   0  0  0  0  0  0  0  0  0  0  0  0
  143.8785  132.6813  153.8675 H   0  0  0  0  0  0  0  0  0  0  0  0
  144.9965  137.7040  151.7992 H   0  0  0  0  0  0  0  0  0  0  0  0
  1  2  1  0  0  0  0
  1 30  1  0  0  0  0
  1 31  1  0  0  0  0
  1 32  1  0  0  0  0
  2  3  1  0  0  0  0
  2 33  1  0  0  0  0
  2 34  1  0  0  0  0
  3  4  1  0  0  0  0
  3 35  1  0  0  0  0
  3 36  1  0  0  0  0
  4  5  1  0  0  0  0
  4 37  1  0  0  0  0
  4 38  1  0  0  0  0
  5  6  1  0  0  0  0
  5 39  1  0  0  0  0
  5 40  1  0  0  0  0
  6  7  1  0  0  0  0
  7  8  2  0  0  0  0
  7  9  1  0  0  0  0
  9 10  1  0  0  0  0
  9 41  1  0  0  0  0
 10 24  1  0  0  0  0
 10 11  2  0  0  0  0
 11 12  1  0  0  0  0
 12 13  2  0  0  0  0
 12 14  1  0  0  0  0
 14 15  1  0  0  0  0
 14 23  1  0  0  0  0
 15 26  1  0  0  0  0
 15 21  1  0  0  0  0
 15 16  1  0  0  0  0
 16 17  1  0  0  0  0
 17 27  1  0  0  0  0
 17 18  1  0  0  0  0
 17 19  1  0  0  0  0
 18 42  1  0  0  0  0
 18 43  1  0  0  0  0
 18 44  1  0  0  0  0
 19 28  1  0  0  0  0
 19 20  1  0  0  0  0
 19 21  1  0  0  0  0
 20 45  1  0  0  0  0
 21 29  1  0  0  0  0
 21 22  1  0  0  0  0
 22 46  1  0  0  0  0
 23 24  2  0  0  0  0
 23 47  1  0  0  0  0
 24 25  1  0  0  0  0
M  END
> <s_m_source_file>
AV-unprocessed.smi

> <i_m_source_file_index>
40

> <i_lp_mmshare_version>
43012

> <i_f3d_flags>
0

> <s_epik_input>
W0NIM11bQ0gyXVtDSDJdW0NIMl1bQ0gyXU9DKD1PKVtOSF1jMW5jKD1PKW4oW2NIXWMxRilbQ0BASF0yT1tDQEhdKFtDSDNdKVtDQEBIXShbT0hdKVtDQEhdMltPSF0=

> <s_epik_cmdline>
J2VwaWtfcHl0aG9uJywgJy1waCcsICc3LjAnLCAnLXRuJywgJzgnLCAnLW1hJywgJzIwMCcsICctbWV0YWxfYmluZGluZycsICctaW1hZScsICc8aW5maWxlLm1hZT4nLCAnLW9tYWUnLCAnPG91dGZpbGUubWFlPic=

> <r_lp_tautomer_probability>
1

> <r_epik_Ionization_Penalty>
2.29506e-06

> <r_epik_Ionization_Penalty_Charging>
8.26867e-09

> <r_epik_Ionization_Penalty_Neutral>
2.2868e-06

> <r_epik_State_Penalty>
-0

> <r_epik_Charging_Adjusted_Penalty>
8.26867e-09

> <i_epik_Tot_Q>
0

> <i_epik_Tot_abs_Q>
0

> <r_epik_Metal_State_Penalty>
-0

> <b_epik_Metal_Only>
0

> <s_epik_Chemistry_Notes>
This compound has an ester and may undergo hydrolysis at high or low pH. This compound contains an acetal/aminal-like group ( X-CH(R)-Y where X, Y are N, S, or O) that may be acid/base labile, releasing an aldehyde.

> <s_lp_Force_Field>
OPLS_2005

> <r_lp_Energy>
34.9505

> <b_lp_Chiralities_Consistent>
1

> <s_lp_Variant>
AV-unprocessed.smi:40-12

> <Gold.Version>
5.8.1

> <Gold.Id.Protein>
6NUR|6NUR_protein|mol2

> <Gold.PLP.Fitness>
43.7890

> <Gold.PLP.PLP>
-35.6728

> <Gold.PLP.part.hbond>
-3.0000

> <Gold.PLP.part.metal>
0.0000

> <Gold.PLP.part.buried>
-0.0256

> <Gold.PLP.part.nonpolar>
-33.2402

> <Gold.PLP.part.repulsive>
0.4276

> <Gold.PLP.ligand.clash>
0.0000

> <Gold.PLP.ligand.torsion>
0.5217

> <Gold.PLP.Chemscore.Hbond>
2.0000

> <Gold.PLP.Chemscore.CHOScore>
1.0000

> <Gold.PLP.Chemscore.Metal>
0.0000

> <Gold.Chemscore.Hbonds>
donor molecule, donor type, donor heavy atom, donor atom, acceptor molecule, acceptor atom, score
      L1  H     9    41       P1  7957  0.39
      L1  H    22    46       P1 10957  0.74
      L1  C    23    47       P1 10171  1.00

> <Gold.PLP.Chemscore.Internal.Correction>
0.1596

> <Gold.Rescore>
     Score         DG    S(hbond)    S(metal)    S(lipo)     H(rot)  DE(clash)    DE(int)     intcor
      8.32     -10.96       1.68        0.00      79.64       3.70       0.45       2.19       ----

> <Gold.Chemscore.Fitness>
8.3209

> <Gold.Chemscore.DG>
-10.9617

> <Gold.Chemscore.ZeroCoef>
-5.4800

> <Gold.Chemscore.Hbond>
1.6840

> <Gold.Chemscore.Metal>
0.0000

> <Gold.Chemscore.Lipo>
79.6413

> <Gold.Chemscore.Internal_Hbond>
0.0000

> <Gold.Chemscore.DEClash>
0.4524

> <Gold.Chemscore.DEInternal>
2.1884

> <Gold.Chemscore.Rot>
3.6957

> <Gold.Chemscore.Internal.Correction>
   9.000000E+99

> <Gold.Chemscore.Hbonds>
donor molecule, donor type, donor heavy atom, donor atom, acceptor molecule, acceptor atom, score
      L1  H     9    41       P1  7957  0.37
      L1  H    22    46       P1 10957  0.56

> <Gold.Chemscore.Hbond.Weighted>
-5.6246

> <Gold.Chemscore.Metal.Weighted>
-0.0000

> <Gold.Chemscore.Lipo.Weighted>
-9.3180

> <Gold.Chemscore.Internal_Hbond.Weighted>
0.0000

> <Gold.Chemscore.DEClash.Weighted>
0.4524

> <Gold.Chemscore.DEInternal.Weighted>
2.1884

> <Gold.Chemscore.Rot.Weighted>
9.4610

> <Gold.Chemscore.Internal.Correction.Weighted>
   9.000000E+99

> <Gold.Protein.RotatedTorsions>
[ 6907 6896 6895 6894 ] final   74.19 input  -60.11 | X-H torsion
[ 7974 7965 7964 7962 ] final -153.01 input  175.53 | X-H torsion
[ 8008 7997 7996 7995 ] final  -57.26 input   59.86 | X-H torsion
[ 10167 10162 10161 10158 ] final  -30.23 input  -65.29 | X-H torsion
[ 10718 10713 10712 10709 ] final  102.22 input   66.30 | X-H torsion
[ 10763 10752 10751 10750 ] final -127.36 input  -60.55 | X-H torsion
[ 11005 11000 10999 10996 ] final   43.44 input  -57.11 | X-H torsion

> <Gold.Protein.ActiveResidues>
 VAL166  LYS551  ARG553  GLY616  TRP617  ASP618  TYR619  PRO620  LYS621  CYS622 
 ASP623  PHE694  ASN695  SER759  ASP760  ASP761  ALA762  ILE779  LEU786  VAL792 
 PHE793  MET794  SER795  GLU796  ALA797  LYS798  CYS799  TRP800  GLU811  SER814 

> <Gold.Protein.RotatedAtoms>
  152.4963  134.4309  159.9511 H   0  0  0  0  0  0  0  0  0  0  0  0  # atno 6907 bound_to 6896
  151.4287  133.3670  159.2773 H   0  0  0  0  0  0  0  0  0  0  0  0  # atno 6908 bound_to 6896
  150.9170  134.8610  159.7523 H   0  0  0  0  0  0  0  0  0  0  0  0  # atno 6909 bound_to 6896
  144.7763  140.4583  143.5871 H   0  0  0  0  0  0  0  0  0  0  0  0  # atno 7974 bound_to 7965
  154.4261  140.1111  156.5770 H   0  0  0  0  0  0  0  0  0  0  0  0  # atno 8008 bound_to 7997
  155.6152  140.3494  155.4616 H   0  0  0  0  0  0  0  0  0  0  0  0  # atno 8009 bound_to 7997
  156.0067  140.1210  157.0483 H   0  0  0  0  0  0  0  0  0  0  0  0  # atno 8010 bound_to 7997
  140.7252  143.3865  151.1506 H   0  0  0  0  0  0  0  0  0  0  0  0  # atno 10167 bound_to 10162
  157.6808  131.0747  150.5370 H   0  0  0  0  0  0  0  0  0  0  0  0  # atno 10718 bound_to 10713
  154.8752  135.3964  154.3581 H   0  0  0  0  0  0  0  0  0  0  0  0  # atno 10763 bound_to 10752
  153.4357  135.7026  153.6207 H   0  0  0  0  0  0  0  0  0  0  0  0  # atno 10764 bound_to 10752
  153.4809  135.3769  155.2411 H   0  0  0  0  0  0  0  0  0  0  0  0  # atno 10765 bound_to 10752
  140.1644  134.4300  155.8296 H   0  0  0  0  0  0  0  0  0  0  0  0  # atno 11005 bound_to 11000
  145.6177  139.1520  143.3040 LP  0  0  0  0  0  0  0  0  0  0  0  0  # atno 17320 bound_to 7965
  146.1944  140.6289  142.9131 LP  0  0  0  0  0  0  0  0  0  0  0  0  # atno 17321 bound_to 7965
  139.7463  143.8846  152.3064 LP  0  0  0  0  0  0  0  0  0  0  0  0  # atno 17342 bound_to 10162
  139.8685  144.7080  150.9015 LP  0  0  0  0  0  0  0  0  0  0  0  0  # atno 17343 bound_to 10162
  156.5678  130.4272  149.6033 LP  0  0  0  0  0  0  0  0  0  0  0  0  # atno 17370 bound_to 10713
  156.2766  130.7047  151.1859 LP  0  0  0  0  0  0  0  0  0  0  0  0  # atno 17371 bound_to 10713
  141.2212  133.6928  156.7652 LP  0  0  0  0  0  0  0  0  0  0  0  0  # atno 17394 bound_to 11000
  140.2451  134.8584  157.3612 LP  0  0  0  0  0  0  0  0  0  0  0  0  # atno 17395 bound_to 11000

$$$$
