AV-unprocessed.smi:196|AV-procd|sdf|1538|dock2
  -GOLD-   2262019393D 1   1.00000     0.00000
 Structure written by MMmdl.
 47 50  0  0  0  0  0  0  0  0  1 V2000
  137.8634  136.8991  155.5677 C   0  0  0  0  0  0  0  0  0  0  0  0
  138.7480  137.9307  154.8488 C   0  0  2  0  0  0  0  0  0  0  0  0
  137.9689  138.7426  153.9824 O   0  0  0  0  0  0  0  0  0  0  0  0
  138.8685  139.3793  153.0935 C   0  0  0  0  0  0  0  0  0  0  0  0
  139.8067  138.2451  152.6984 C   0  0  0  0  0  0  0  0  0  0  0  0
  139.8974  137.3825  153.9612 C   0  0  2  0  0  0  0  0  0  0  0  0
  139.6771  136.0317  153.5890 O   0  0  0  0  0  0  0  0  0  0  0  0
  141.2892  137.4790  154.6334 C   0  0  0  0  0  0  0  0  0  0  0  0
  142.3727  136.9821  153.7986 N   0  0  0  0  0  0  0  0  0  0  0  0
  142.7607  137.4729  152.5713 C   0  0  0  0  0  0  0  0  0  0  0  0
  143.7609  136.8492  152.0112 N   0  0  0  0  0  0  0  0  0  0  0  0
  144.0946  135.8608  152.9275 C   0  0  0  0  0  0  0  0  0  0  0  0
  145.0814  134.8407  152.9572 C   0  0  0  0  0  0  0  0  0  0  0  0
  145.9434  134.6678  151.9204 N   0  0  0  0  0  0  0  0  0  0  0  0
  145.2305  134.4800  150.6613 C   0  0  0  0  0  0  0  0  0  0  0  0
  145.2477  132.9705  150.3703 C   0  0  2  0  0  0  0  0  0  0  0  0
  144.0428  132.4304  150.5550 F   0  0  0  0  0  0  0  0  0  0  0  0
  146.2555  132.3786  151.3636 C   0  0  0  0  0  0  0  0  0  0  0  0
  146.9676  133.6136  151.9400 C   0  0  2  0  0  0  0  0  0  0  0  0
  147.7296  133.3879  153.2637 C   0  0  0  0  0  0  0  0  0  0  0  0
  148.4493  134.4108  153.7317 N   0  0  0  0  0  0  0  0  0  0  0  0
  147.6395  132.3288  153.8826 O   0  0  0  0  0  0  0  0  0  0  0  0
  145.1074  134.0207  154.0421 N   0  0  0  0  0  0  0  0  0  0  0  0
  144.2401  134.2029  155.0419 C   0  0  0  0  0  0  0  0  0  0  0  0
  143.2759  135.1188  155.1538 N   0  0  0  0  0  0  0  0  0  0  0  0
  143.2363  135.9323  154.0597 C   0  0  0  0  0  0  0  0  0  0  0  0
  145.5327  132.7752  149.3360 H   0  0  0  0  0  0  0  0  0  0  0  0
  147.7276  133.9288  151.2225 H   0  0  0  0  0  0  0  0  0  0  0  0
  138.4552  136.2675  156.2308 H   0  0  0  0  0  0  0  0  0  0  0  0
  137.3420  136.2540  154.8603 H   0  0  0  0  0  0  0  0  0  0  0  0
  137.1074  137.3973  156.1747 H   0  0  0  0  0  0  0  0  0  0  0  0
  139.1616  138.6088  155.5957 H   0  0  0  0  0  0  0  0  0  0  0  0
  138.3515  139.8172  152.2395 H   0  0  0  0  0  0  0  0  0  0  0  0
  139.4076  140.1713  153.6164 H   0  0  0  0  0  0  0  0  0  0  0  0
  139.3546  137.6892  151.8749 H   0  0  0  0  0  0  0  0  0  0  0  0
  140.7730  138.6114  152.3500 H   0  0  0  0  0  0  0  0  0  0  0  0
  139.5596  135.9940  152.6522 H   0  0  0  0  0  0  0  0  0  0  0  0
  141.5117  138.5130  154.9011 H   0  0  0  0  0  0  0  0  0  0  0  0
  141.2923  136.9171  155.5682 H   0  0  0  0  0  0  0  0  0  0  0  0
  142.2699  138.3100  152.0967 H   0  0  0  0  0  0  0  0  0  0  0  0
  144.2142  134.8802  150.6705 H   0  0  0  0  0  0  0  0  0  0  0  0
  145.7726  135.0196  149.8838 H   0  0  0  0  0  0  0  0  0  0  0  0
  145.7397  131.8217  152.1472 H   0  0  0  0  0  0  0  0  0  0  0  0
  146.9497  131.6927  150.8769 H   0  0  0  0  0  0  0  0  0  0  0  0
  148.9615  134.3139  154.5963 H   0  0  0  0  0  0  0  0  0  0  0  0
  148.4738  135.2806  153.2195 H   0  0  0  0  0  0  0  0  0  0  0  0
  144.3306  133.5149  155.8694 H   0  0  0  0  0  0  0  0  0  0  0  0
  1  2  1  0  0  0  0
  1 29  1  0  0  0  0
  1 30  1  0  0  0  0
  1 31  1  0  0  0  0
  2  6  1  0  0  0  0
  2  3  1  0  0  0  0
  2 32  1  0  0  0  0
  3  4  1  0  0  0  0
  4  5  1  0  0  0  0
  4 33  1  0  0  0  0
  4 34  1  0  0  0  0
  5  6  1  0  0  0  0
  5 35  1  0  0  0  0
  5 36  1  0  0  0  0
  6  7  1  0  0  0  0
  6  8  1  0  0  0  0
  7 37  1  0  0  0  0
  8  9  1  0  0  0  0
  8 38  1  0  0  0  0
  8 39  1  0  0  0  0
  9 26  1  0  0  0  0
  9 10  1  0  0  0  0
 10 11  2  0  0  0  0
 10 40  1  0  0  0  0
 11 12  1  0  0  0  0
 12 26  2  0  0  0  0
 12 13  1  0  0  0  0
 13 14  1  0  0  0  0
 13 23  2  0  0  0  0
 14 19  1  0  0  0  0
 14 15  1  0  0  0  0
 15 16  1  0  0  0  0
 15 41  1  0  0  0  0
 15 42  1  0  0  0  0
 16 27  1  0  0  0  0
 16 17  1  0  0  0  0
 16 18  1  0  0  0  0
 18 19  1  0  0  0  0
 18 43  1  0  0  0  0
 18 44  1  0  0  0  0
 19 28  1  0  0  0  0
 19 20  1  0  0  0  0
 20 21  1  0  0  0  0
 20 22  2  0  0  0  0
 21 45  1  0  0  0  0
 21 46  1  0  0  0  0
 23 24  1  0  0  0  0
 24 25  2  0  0  0  0
 24 47  1  0  0  0  0
 25 26  1  0  0  0  0
M  END
> <s_m_source_file>
AV-unprocessed.smi

> <i_m_source_file_index>
196

> <i_lp_mmshare_version>
43012

> <i_f3d_flags>
0

> <s_epik_input>
W0NIMl0xW0NIMl1PW0NAQEhdKFtDSDNdKVtDQEBdMShbT0hdKVtDSDJdbihbY0hdbjIpYyhjMjMpbltjSF1uYzNONFtDSDJdW0NASF0oRilbQ0gyXVtDQEhdNEMoPU8pW05IMl0=

> <s_epik_cmdline>
J2VwaWtfcHl0aG9uJywgJy1waCcsICc3LjAnLCAnLXRuJywgJzgnLCAnLW1hJywgJzIwMCcsICctbWV0YWxfYmluZGluZycsICctaW1hZScsICc8aW5maWxlLm1hZT4nLCAnLW9tYWUnLCAnPG91dGZpbGUubWFlPic=

> <r_lp_tautomer_probability>
1

> <r_epik_Ionization_Penalty>
0.000857933

> <r_epik_Ionization_Penalty_Charging>
0

> <r_epik_Ionization_Penalty_Neutral>
0.000857933

> <r_epik_State_Penalty>
0.000462053

> <r_epik_Charging_Adjusted_Penalty>
0.000462053

> <i_epik_Tot_Q>
0

> <i_epik_Tot_abs_Q>
0

> <r_epik_Metal_State_Penalty>
-0

> <b_epik_Metal_Only>
0

> <s_lp_Force_Field>
OPLS_2005

> <r_lp_Energy>
50.5725

> <b_lp_Chiralities_Consistent>
1

> <s_lp_Variant>
AV-unprocessed.smi:196-11

> <Gold.Version>
5.8.1

> <Gold.Id.Protein>
6NUR|6NUR_protein|mol2

> <Gold.PLP.Fitness>
39.7865

> <Gold.PLP.PLP>
-30.7770

> <Gold.PLP.part.hbond>
-2.0773

> <Gold.PLP.part.metal>
0.0000

> <Gold.PLP.part.buried>
1.2069

> <Gold.PLP.part.nonpolar>
-30.0796

> <Gold.PLP.part.repulsive>
2.3303

> <Gold.PLP.ligand.clash>
0.0000

> <Gold.PLP.ligand.torsion>
0.0781

> <Gold.PLP.Chemscore.Hbond>
1.9263

> <Gold.PLP.Chemscore.CHOScore>
1.1056

> <Gold.PLP.Chemscore.Metal>
0.0000

> <Gold.Chemscore.Hbonds>
donor molecule, donor type, donor heavy atom, donor atom, acceptor molecule, acceptor atom, score
      L1  H     7    37       P1 10187  0.89
      L1  H    21    46       P1  7948  1.00
      L1  C    10    40       P1 10171  0.08
      L1  C    10    40       P1 10175  0.62
      L1  C    24    47       P1 10957  0.21

> <Gold.PLP.Chemscore.Internal.Correction>
0.0703

> <Gold.Rescore>
     Score         DG    S(hbond)    S(metal)    S(lipo)     H(rot)  DE(clash)    DE(int)     intcor
      6.26     -10.91       1.48        0.00      70.82       3.04       2.55       2.11       ----

> <Gold.Chemscore.Fitness>
6.2554

> <Gold.Chemscore.DG>
-10.9146

> <Gold.Chemscore.ZeroCoef>
-5.4800

> <Gold.Chemscore.Hbond>
1.4772

> <Gold.Chemscore.Metal>
0.0000

> <Gold.Chemscore.Lipo>
70.8228

> <Gold.Chemscore.Internal_Hbond>
0.0000

> <Gold.Chemscore.DEClash>
2.5535

> <Gold.Chemscore.DEInternal>
2.1056

> <Gold.Chemscore.Rot>
3.0413

> <Gold.Chemscore.Internal.Correction>
   9.000000E+99

> <Gold.Chemscore.Hbonds>
donor molecule, donor type, donor heavy atom, donor atom, acceptor molecule, acceptor atom, score
      L1  H     7    37       P1 10187  0.43
      L1  H    21    46       P1  7948  0.89

> <Gold.Chemscore.Hbond.Weighted>
-4.9339

> <Gold.Chemscore.Metal.Weighted>
-0.0000

> <Gold.Chemscore.Lipo.Weighted>
-8.2863

> <Gold.Chemscore.Internal_Hbond.Weighted>
0.0000

> <Gold.Chemscore.DEClash.Weighted>
2.5535

> <Gold.Chemscore.DEInternal.Weighted>
2.1056

> <Gold.Chemscore.Rot.Weighted>
7.7856

> <Gold.Chemscore.Internal.Correction.Weighted>
   9.000000E+99

> <Gold.Protein.RotatedTorsions>
[ 6907 6896 6895 6894 ] final  -80.97 input  -60.11 | X-H torsion
[ 7974 7965 7964 7962 ] final  106.12 input  175.53 | X-H torsion
[ 8008 7997 7996 7995 ] final   13.45 input   59.86 | X-H torsion
[ 10167 10162 10161 10158 ] final  -21.53 input  -65.29 | X-H torsion
[ 10718 10713 10712 10709 ] final  106.09 input   66.30 | X-H torsion
[ 10763 10752 10751 10750 ] final    8.52 input  -60.55 | X-H torsion
[ 11005 11000 10999 10996 ] final   77.92 input  -57.11 | X-H torsion

> <Gold.Protein.ActiveResidues>
 VAL166  LYS551  ARG553  GLY616  TRP617  ASP618  TYR619  PRO620  LYS621  CYS622 
 ASP623  PHE694  ASN695  SER759  ASP760  ASP761  ALA762  ILE779  LEU786  VAL792 
 PHE793  MET794  SER795  GLU796  ALA797  LYS798  CYS799  TRP800  GLU811  SER814 

> <Gold.Protein.RotatedAtoms>
  150.6920  134.3888  159.5066 H   0  0  0  0  0  0  0  0  0  0  0  0  # atno 6907 bound_to 6896
  152.1679  134.8855  160.0546 H   0  0  0  0  0  0  0  0  0  0  0  0  # atno 6908 bound_to 6896
  151.9892  133.3750  159.4175 H   0  0  0  0  0  0  0  0  0  0  0  0  # atno 6909 bound_to 6896
  145.3107  139.2541  143.3764 H   0  0  0  0  0  0  0  0  0  0  0  0  # atno 7974 bound_to 7965
  154.8346  140.2905  155.5699 H   0  0  0  0  0  0  0  0  0  0  0  0  # atno 8008 bound_to 7997
  156.3008  140.2525  156.3209 H   0  0  0  0  0  0  0  0  0  0  0  0  # atno 8009 bound_to 7997
  154.9193  140.0386  157.1978 H   0  0  0  0  0  0  0  0  0  0  0  0  # atno 8010 bound_to 7997
  140.7282  143.4620  151.0367 H   0  0  0  0  0  0  0  0  0  0  0  0  # atno 10167 bound_to 10162
  157.6681  131.0843  150.5955 H   0  0  0  0  0  0  0  0  0  0  0  0  # atno 10718 bound_to 10713
  153.2241  135.6885  153.7965 H   0  0  0  0  0  0  0  0  0  0  0  0  # atno 10763 bound_to 10752
  153.7153  135.3276  155.3256 H   0  0  0  0  0  0  0  0  0  0  0  0  # atno 10764 bound_to 10752
  154.8284  135.4600  154.1101 H   0  0  0  0  0  0  0  0  0  0  0  0  # atno 10765 bound_to 10752
  139.9234  134.7722  156.1583 H   0  0  0  0  0  0  0  0  0  0  0  0  # atno 11005 bound_to 11000
  146.3119  140.3643  142.8668 LP  0  0  0  0  0  0  0  0  0  0  0  0  # atno 17320 bound_to 7965
  144.9018  140.7651  143.5862 LP  0  0  0  0  0  0  0  0  0  0  0  0  # atno 17321 bound_to 7965
  139.8305  143.7698  152.3179 LP  0  0  0  0  0  0  0  0  0  0  0  0  # atno 17342 bound_to 10162
  139.7812  144.7444  151.0086 LP  0  0  0  0  0  0  0  0  0  0  0  0  # atno 17343 bound_to 10162
  156.6255  130.4417  149.5806 LP  0  0  0  0  0  0  0  0  0  0  0  0  # atno 17370 bound_to 10713
  156.2322  130.6801  151.1475 LP  0  0  0  0  0  0  0  0  0  0  0  0  # atno 17371 bound_to 10713
  141.0773  133.6770  156.2263 LP  0  0  0  0  0  0  0  0  0  0  0  0  # atno 17394 bound_to 11000
  140.6407  134.5169  157.5569 LP  0  0  0  0  0  0  0  0  0  0  0  0  # atno 17395 bound_to 11000

$$$$
