AV-unprocessed.smi:761|AV-procd|sdf|3630|dock7
  -GOLD-   22720 1 23D 1   1.00000     0.00000
 Structure written by MMmdl.
 34 35  0  0  0  0  0  0  0  0  2 V2000
  150.4473  140.5409  156.2199 O   0  0  0  0  0  0  0  0  0  0  0  0
  150.0970  141.7043  156.0223 C   0  0  0  0  0  0  0  0  0  0  0  0
  149.2404  142.0574  155.0530 N   0  0  0  0  0  0  0  0  0  0  0  0
  148.6042  141.1250  154.1298 C   0  0  0  0  0  0  0  0  0  0  0  0
  147.1169  141.4647  153.9205 C   0  0  0  0  0  0  0  0  0  0  0  0
  146.3864  140.3671  153.2460 N   0  3  0  0  0  0  0  0  0  0  0  0
  146.4467  139.0528  153.9488 C   0  0  0  0  0  0  0  0  0  0  0  0
  146.5834  138.0658  152.8243 C   0  0  0  0  0  0  0  0  0  0  0  0
  146.7592  138.6782  151.6590 C   0  0  0  0  0  0  0  0  0  0  0  0
  146.7695  140.1721  151.8192 C   0  0  0  0  0  0  0  0  0  0  0  0
  150.5238  142.7768  156.7112 N   0  0  0  0  0  0  0  0  0  0  0  0
  151.4090  142.8236  157.8226 C   0  0  0  0  0  0  0  0  0  0  0  0
  151.8544  144.0902  158.2540 C   0  0  0  0  0  0  0  0  0  0  0  0
  152.7187  144.1648  159.3645 C   0  0  0  0  0  0  0  0  0  0  0  0
  153.1404  143.0815  160.0500 N   0  0  0  0  0  0  0  0  0  0  0  0
  152.7014  141.8711  159.6453 C   0  0  0  0  0  0  0  0  0  0  0  0
  151.8370  141.6853  158.5477 C   0  0  0  0  0  0  0  0  0  0  0  0
  149.0076  143.0348  154.9522 H   0  0  0  0  0  0  0  0  0  0  0  0
  149.1458  141.1257  153.1823 H   0  0  0  0  0  0  0  0  0  0  0  0
  148.7021  140.1200  154.5412 H   0  0  0  0  0  0  0  0  0  0  0  0
  146.6562  141.6450  154.8929 H   0  0  0  0  0  0  0  0  0  0  0  0
  147.0005  142.3835  153.3436 H   0  0  0  0  0  0  0  0  0  0  0  0
  147.3121  138.9743  154.6086 H   0  0  0  0  0  0  0  0  0  0  0  0
  145.5390  138.8771  154.5266 H   0  0  0  0  0  0  0  0  0  0  0  0
  146.5592  136.9967  152.9781 H   0  0  0  0  0  0  0  0  0  0  0  0
  146.9019  138.1915  150.7052 H   0  0  0  0  0  0  0  0  0  0  0  0
  146.0514  140.6517  151.1535 H   0  0  0  0  0  0  0  0  0  0  0  0
  147.7687  140.5537  151.6037 H   0  0  0  0  0  0  0  0  0  0  0  0
  150.2116  143.6750  156.3725 H   0  0  0  0  0  0  0  0  0  0  0  0
  151.5463  144.9915  157.7443 H   0  0  0  0  0  0  0  0  0  0  0  0
  153.0787  145.1217  159.7124 H   0  0  0  0  0  0  0  0  0  0  0  0
  153.0444  141.0222  160.2180 H   0  0  0  0  0  0  0  0  0  0  0  0
  151.5147  140.6866  158.2979 H   0  0  0  0  0  0  0  0  0  0  0  0
  145.4110  140.6284  153.2285 H   0  0  0  0  0  0  0  0  0  0  0  0
  1  2  2  0  0  0  0
  2  3  1  0  0  0  0
  2 11  1  0  0  0  0
  3  4  1  0  0  0  0
  3 18  1  0  0  0  0
  4  5  1  0  0  0  0
  4 19  1  0  0  0  0
  4 20  1  0  0  0  0
  5  6  1  0  0  0  0
  5 21  1  0  0  0  0
  5 22  1  0  0  0  0
  6 10  1  0  0  0  0
  6  7  1  0  0  0  0
  6 34  1  0  0  0  0
  7  8  1  0  0  0  0
  7 23  1  0  0  0  0
  7 24  1  0  0  0  0
  8  9  2  0  0  0  0
  8 25  1  0  0  0  0
  9 10  1  0  0  0  0
  9 26  1  0  0  0  0
 10 27  1  0  0  0  0
 10 28  1  0  0  0  0
 11 12  1  0  0  0  0
 11 29  1  0  0  0  0
 12 17  1  0  0  0  0
 12 13  2  0  0  0  0
 13 14  1  0  0  0  0
 13 30  1  0  0  0  0
 14 15  2  0  0  0  0
 14 31  1  0  0  0  0
 15 16  1  0  0  0  0
 16 17  2  0  0  0  0
 16 32  1  0  0  0  0
 17 33  1  0  0  0  0
M  CHG  1   6   1
M  END
> <s_m_source_file>
AV-unprocessed.smi

> <i_m_source_file_index>
761

> <i_lp_mmshare_version>
43012

> <i_f3d_flags>
0

> <s_epik_input>
W2NIXTFbY0hdbltjSF1bY0hdYzFbTkhdQyg9TylbTkhdW0NIMl1bQ0gyXU4yW0NIMl1bQ0hdPVtDSF1bQ0gyXTI=

> <s_epik_cmdline>
J2VwaWtfcHl0aG9uJywgJy1waCcsICc3LjAnLCAnLXRuJywgJzgnLCAnLW1hJywgJzIwMCcsICctbWV0YWxfYmluZGluZycsICctaW1hZScsICc8aW5maWxlLm1hZT4nLCAnLW9tYWUnLCAnPG91dGZpbGUubWFlPic=

> <r_epik_Ionization_Penalty>
0.100973

> <r_epik_Ionization_Penalty_Charging>
0.00265978

> <r_epik_Ionization_Penalty_Neutral>
0.098313

> <r_epik_State_Penalty>
0.0959991

> <r_epik_Charging_Adjusted_Penalty>
0.0986589

> <i_epik_Tot_Q>
1

> <i_epik_Tot_abs_Q>
1

> <r_epik_Metal_State_Penalty>
0.0816347

> <b_epik_Metal_Only>
0

> <s_lp_Force_Field>
OPLS_2005

> <r_lp_Energy>
25.6578

> <b_lp_Chiralities_Consistent>
1

> <s_lp_Variant>
AV-unprocessed.smi:761-1

> <Gold.Version>
5.8.1

> <Gold.Id.Protein>
6NUR|6NUR_protein|mol2

> <Gold.PLP.Fitness>
48.7952

> <Gold.PLP.PLP>
-37.5286

> <Gold.PLP.part.hbond>
-3.0000

> <Gold.PLP.part.metal>
0.0000

> <Gold.PLP.part.buried>
-1.4449

> <Gold.PLP.part.nonpolar>
-34.0036

> <Gold.PLP.part.repulsive>
0.3030

> <Gold.PLP.ligand.clash>
0.0000

> <Gold.PLP.ligand.torsion>
0.2073

> <Gold.PLP.Chemscore.Hbond>
3.8880

> <Gold.PLP.Chemscore.CHOScore>
0.0000

> <Gold.PLP.Chemscore.Metal>
0.0000

> <Gold.Chemscore.Hbonds>
donor molecule, donor type, donor heavy atom, donor atom, acceptor molecule, acceptor atom, score
      L1  H     3    18       P1  8028  1.00
      L1  H     6    34       P1 10175  2.00
      L1  H    11    29       P1  8028  1.00

> <Gold.PLP.Chemscore.Internal.Correction>
0.0171

> <Gold.Rescore>
     Score         DG    S(hbond)    S(metal)    S(lipo)     H(rot)  DE(clash)    DE(int)     intcor
     19.95     -22.39       2.75        0.00      99.18       1.51       1.10       1.35       ----

> <Gold.Chemscore.Fitness>
19.9482

> <Gold.Chemscore.DG>
-22.3948

> <Gold.Chemscore.ZeroCoef>
-5.4800

> <Gold.Chemscore.Hbond>
2.7487

> <Gold.Chemscore.Metal>
0.0000

> <Gold.Chemscore.Lipo>
99.1815

> <Gold.Chemscore.Internal_Hbond>
0.0000

> <Gold.Chemscore.DEClash>
1.0959

> <Gold.Chemscore.DEInternal>
1.3507

> <Gold.Chemscore.Rot>
1.5117

> <Gold.Chemscore.Internal.Correction>
   9.000000E+99

> <Gold.Chemscore.Hbonds>
donor molecule, donor type, donor heavy atom, donor atom, acceptor molecule, acceptor atom, score
      L1  H     3    18       P1  8028  0.95
      L1  H     6    34       P1 10175  0.84
      L1  H    11    29       P1  8028  0.95

> <Gold.Chemscore.Hbond.Weighted>
-9.1806

> <Gold.Chemscore.Metal.Weighted>
-0.0000

> <Gold.Chemscore.Lipo.Weighted>
-11.6042

> <Gold.Chemscore.Internal_Hbond.Weighted>
0.0000

> <Gold.Chemscore.DEClash.Weighted>
1.0959

> <Gold.Chemscore.DEInternal.Weighted>
1.3507

> <Gold.Chemscore.Rot.Weighted>
3.8700

> <Gold.Chemscore.Internal.Correction.Weighted>
   9.000000E+99

> <Gold.Protein.RotatedTorsions>
[ 6907 6896 6895 6894 ] final -144.27 input  -60.11 | X-H torsion
[ 7974 7965 7964 7962 ] final -115.98 input  175.53 | X-H torsion
[ 8008 7997 7996 7995 ] final  100.86 input   59.86 | X-H torsion
[ 10167 10162 10161 10158 ] final  -28.51 input  -65.29 | X-H torsion
[ 10718 10713 10712 10709 ] final -128.54 input   66.30 | X-H torsion
[ 10763 10752 10751 10750 ] final  -35.75 input  -60.55 | X-H torsion
[ 11005 11000 10999 10996 ] final  112.97 input  -57.11 | X-H torsion

> <Gold.Protein.ActiveResidues>
 VAL166  LYS551  ARG553  GLY616  TRP617  ASP618  TYR619  PRO620  LYS621  CYS622 
 ASP623  PHE694  ASN695  SER759  ASP760  ASP761  ALA762  ILE779  LEU786  VAL792 
 PHE793  MET794  SER795  GLU796  ALA797  LYS798  CYS799  TRP800  GLU811  SER814 

> <Gold.Protein.RotatedAtoms>
  151.1117  133.5168  159.2605 H   0  0  0  0  0  0  0  0  0  0  0  0  # atno 6907 bound_to 6896
  151.1959  135.0422  159.8862 H   0  0  0  0  0  0  0  0  0  0  0  0  # atno 6908 bound_to 6896
  152.5450  134.0952  159.8347 H   0  0  0  0  0  0  0  0  0  0  0  0  # atno 6909 bound_to 6896
  145.1021  140.8558  143.3920 H   0  0  0  0  0  0  0  0  0  0  0  0  # atno 7974 bound_to 7965
  156.1244  140.3206  155.8255 H   0  0  0  0  0  0  0  0  0  0  0  0  # atno 8008 bound_to 7997
  155.4446  140.0528  157.3024 H   0  0  0  0  0  0  0  0  0  0  0  0  # atno 8009 bound_to 7997
  154.4851  140.2069  155.9687 H   0  0  0  0  0  0  0  0  0  0  0  0  # atno 8010 bound_to 7997
  140.7269  143.4004  151.1275 H   0  0  0  0  0  0  0  0  0  0  0  0  # atno 10167 bound_to 10162
  156.1961  130.6827  151.0483 H   0  0  0  0  0  0  0  0  0  0  0  0  # atno 10718 bound_to 10713
  153.8684  135.6833  153.4776 H   0  0  0  0  0  0  0  0  0  0  0  0  # atno 10763 bound_to 10752
  153.1301  135.4701  154.9334 H   0  0  0  0  0  0  0  0  0  0  0  0  # atno 10764 bound_to 10752
  154.7726  135.3243  154.8109 H   0  0  0  0  0  0  0  0  0  0  0  0  # atno 10765 bound_to 10752
  139.8941  134.9540  156.6667 H   0  0  0  0  0  0  0  0  0  0  0  0  # atno 11005 bound_to 11000
  145.0944  139.2867  143.5718 LP  0  0  0  0  0  0  0  0  0  0  0  0  # atno 17320 bound_to 7965
  146.3529  140.0491  142.8637 LP  0  0  0  0  0  0  0  0  0  0  0  0  # atno 17321 bound_to 7965
  139.7623  143.8617  152.3103 LP  0  0  0  0  0  0  0  0  0  0  0  0  # atno 17342 bound_to 10162
  139.8507  144.7165  150.9217 LP  0  0  0  0  0  0  0  0  0  0  0  0  # atno 17343 bound_to 10162
  157.6958  131.0794  150.6973 LP  0  0  0  0  0  0  0  0  0  0  0  0  # atno 17370 bound_to 10713
  156.7030  130.4629  149.5568 LP  0  0  0  0  0  0  0  0  0  0  0  0  # atno 17371 bound_to 10713
  140.7405  133.8982  155.8274 LP  0  0  0  0  0  0  0  0  0  0  0  0  # atno 17394 bound_to 11000
  141.0081  134.1058  157.4249 LP  0  0  0  0  0  0  0  0  0  0  0  0  # atno 17395 bound_to 11000

$$$$
