AV-unprocessed.smi:160|AV-procd|sdf|1371|dock6
  -GOLD-   2262019 93D 1   1.00000     0.00000
 Structure written by MMmdl.
 28 29  0  0  0  0  0  0  0  0  2 V2000
  149.1174  135.5047  159.3533 N   0  5  0  0  0  0  0  0  0  0  0  0
  148.7745  136.7898  159.5893 C   0  0  0  0  0  0  0  0  0  0  0  0
  148.4434  137.2668  160.6742 O   0  0  0  0  0  0  0  0  0  0  0  0
  148.8194  137.6845  158.3734 C   0  0  0  0  0  0  0  0  0  0  0  0
  149.3870  137.2483  157.2078 N   0  0  0  0  0  0  0  0  0  0  0  0
  149.1989  138.3289  156.4626 C   0  0  0  0  0  0  0  0  0  0  0  0
  148.5740  139.3273  157.0929 N   0  0  0  0  0  0  0  0  0  0  0  0
  148.2018  140.6903  156.6002 C   0  0  2  0  0  0  0  0  0  0  0  0
  147.2695  140.5263  155.5741 O   0  0  0  0  0  0  0  0  0  0  0  0
  147.6318  141.3131  154.4419 C   0  0  2  0  0  0  0  0  0  0  0  0
  147.0629  140.7083  153.1461 C   0  0  0  0  0  0  0  0  0  0  0  0
  147.4227  139.3466  153.0452 O   0  0  0  0  0  0  0  0  0  0  0  0
  149.1628  141.3981  154.5183 C   0  0  2  0  0  0  0  0  0  0  0  0
  149.7690  140.2630  153.9243 O   0  0  0  0  0  0  0  0  0  0  0  0
  149.3973  141.4748  156.0220 C   0  0  2  0  0  0  0  0  0  0  0  0
  150.6852  141.0332  156.4187 O   0  0  0  0  0  0  0  0  0  0  0  0
  148.3227  138.9252  158.3627 N   0  0  0  0  0  0  0  0  0  0  0  0
  147.7503  141.1782  157.4649 H   0  0  0  0  0  0  0  0  0  0  0  0
  147.2352  142.3194  154.5910 H   0  0  0  0  0  0  0  0  0  0  0  0
  149.5434  142.2845  154.0100 H   0  0  0  0  0  0  0  0  0  0  0  0
  149.2779  142.5109  156.3411 H   0  0  0  0  0  0  0  0  0  0  0  0
  148.4509  134.7667  159.6103 H   0  0  0  0  0  0  0  0  0  0  0  0
  149.5226  138.3935  155.4343 H   0  0  0  0  0  0  0  0  0  0  0  0
  145.9737  140.7559  153.1552 H   0  0  0  0  0  0  0  0  0  0  0  0
  147.4057  141.2572  152.2682 H   0  0  0  0  0  0  0  0  0  0  0  0
  148.2064  139.2829  152.5211 H   0  0  0  0  0  0  0  0  0  0  0  0
  149.3475  140.1000  153.0940 H   0  0  0  0  0  0  0  0  0  0  0  0
  150.5963  140.5014  157.1946 H   0  0  0  0  0  0  0  0  0  0  0  0
  1  2  1  0  0  0  0
  1 22  1  0  0  0  0
  2  3  2  0  0  0  0
  2  4  1  0  0  0  0
  4 17  2  0  0  0  0
  4  5  1  0  0  0  0
  5  6  2  0  0  0  0
  6  7  1  0  0  0  0
  6 23  1  0  0  0  0
  7  8  1  0  0  0  0
  7 17  1  0  0  0  0
  8 18  1  0  0  0  0
  8 15  1  0  0  0  0
  8  9  1  0  0  0  0
  9 10  1  0  0  0  0
 10 19  1  0  0  0  0
 10 11  1  0  0  0  0
 10 13  1  0  0  0  0
 11 12  1  0  0  0  0
 11 24  1  0  0  0  0
 11 25  1  0  0  0  0
 12 26  1  0  0  0  0
 13 20  1  0  0  0  0
 13 14  1  0  0  0  0
 13 15  1  0  0  0  0
 14 27  1  0  0  0  0
 15 21  1  0  0  0  0
 15 16  1  0  0  0  0
 16 28  1  0  0  0  0
M  CHG  1   1  -1
M  END
> <s_m_source_file>
AV-unprocessed.smi

> <i_m_source_file_index>
160

> <i_lp_mmshare_version>
43012

> <i_f3d_flags>
0

> <s_epik_input>
W05IMl1DKD1PKWMxbltjSF1uKG4xKVtDQEBIXTJPW0NASF0oW0NIMl1bT0hdKVtDQEBIXShbT0hdKVtDQEhdMltPSF0=

> <s_epik_cmdline>
J2VwaWtfcHl0aG9uJywgJy1waCcsICc3LjAnLCAnLXRuJywgJzgnLCAnLW1hJywgJzIwMCcsICctbWV0YWxfYmluZGluZycsICctaW1hZScsICc8aW5maWxlLm1hZT4nLCAnLW9tYWUnLCAnPG91dGZpbGUubWFlPic=

> <r_lp_tautomer_probability>
1

> <r_epik_Ionization_Penalty>
6.6993

> <r_epik_Ionization_Penalty_Charging>
6.6993

> <r_epik_Ionization_Penalty_Neutral>
6.01698e-06

> <r_epik_State_Penalty>
6.69929

> <r_epik_Charging_Adjusted_Penalty>
13.3986

> <i_epik_Tot_Q>
-1

> <i_epik_Tot_abs_Q>
1

> <r_epik_Metal_State_Penalty>
2.62798

> <b_epik_Metal_Only>
1

> <s_epik_Chemistry_Notes>
This compound contains an acetal/aminal-like group ( X-CH(R)-Y where X, Y are N, S, or O) that may be acid/base labile, releasing an aldehyde.

> <s_lp_Force_Field>
OPLS_2005

> <r_lp_Energy>
51.4861

> <b_lp_Chiralities_Consistent>
1

> <s_lp_Variant>
AV-unprocessed.smi:160-29

> <Gold.Version>
5.8.1

> <Gold.Id.Protein>
6NUR|6NUR_protein|mol2

> <Gold.PLP.Fitness>
41.1889

> <Gold.PLP.PLP>
-22.8712

> <Gold.PLP.part.hbond>
-7.0000

> <Gold.PLP.part.metal>
0.0000

> <Gold.PLP.part.buried>
-3.6982

> <Gold.PLP.part.nonpolar>
-12.2786

> <Gold.PLP.part.repulsive>
0.0375

> <Gold.PLP.ligand.clash>
0.0000

> <Gold.PLP.ligand.torsion>
0.1128

> <Gold.PLP.Chemscore.Hbond>
6.1788

> <Gold.PLP.Chemscore.CHOScore>
0.0000

> <Gold.PLP.Chemscore.Metal>
0.0000

> <Gold.Chemscore.Hbonds>
donor molecule, donor type, donor heavy atom, donor atom, acceptor molecule, acceptor atom, score
      L1  H    12    26       P1  7957  0.88
      L1  H    14    27       P1  7957  0.90
      P1  H  6896  6909       L1     1  1.80
      P1  H  6931  6943       L1     3  0.77
      P1  H  6934  6947       L1     3  0.35
      P1  H  7989  7998       L1    14  0.74

> <Gold.PLP.Chemscore.Internal.Correction>
0.0072

> <Gold.Rescore>
     Score         DG    S(hbond)    S(metal)    S(lipo)     H(rot)  DE(clash)    DE(int)     intcor
     11.01     -11.33       3.83        0.00      29.01       4.04       0.17       0.15       ----

> <Gold.Chemscore.Fitness>
11.0134

> <Gold.Chemscore.DG>
-11.3347

> <Gold.Chemscore.ZeroCoef>
-5.4800

> <Gold.Chemscore.Hbond>
3.8334

> <Gold.Chemscore.Metal>
0.0000

> <Gold.Chemscore.Lipo>
29.0099

> <Gold.Chemscore.Internal_Hbond>
0.0000

> <Gold.Chemscore.DEClash>
0.1750

> <Gold.Chemscore.DEInternal>
0.1462

> <Gold.Chemscore.Rot>
4.0403

> <Gold.Chemscore.Internal.Correction>
   9.000000E+99

> <Gold.Chemscore.Hbonds>
donor molecule, donor type, donor heavy atom, donor atom, acceptor molecule, acceptor atom, score
      L1  H    12    26       P1  7957  0.83
      L1  H    14    27       P1  7957  0.86
      P1  H  6896  6909       L1     1  0.18
      P1  H  6931  6943       L1     3  0.78
      P1  H  6934  6947       L1     3  0.36
      P1  H  7989  7998       L1    14  0.16

> <Gold.Chemscore.Hbond.Weighted>
-12.8036

> <Gold.Chemscore.Metal.Weighted>
-0.0000

> <Gold.Chemscore.Lipo.Weighted>
-3.3942

> <Gold.Chemscore.Internal_Hbond.Weighted>
0.0000

> <Gold.Chemscore.DEClash.Weighted>
0.1750

> <Gold.Chemscore.DEInternal.Weighted>
0.1462

> <Gold.Chemscore.Rot.Weighted>
10.3431

> <Gold.Chemscore.Internal.Correction.Weighted>
   9.000000E+99

> <Gold.Protein.RotatedTorsions>
[ 6907 6896 6895 6894 ] final   45.98 input  -60.11 | X-H torsion
[ 7974 7965 7964 7962 ] final  -75.37 input  175.53 | X-H torsion
[ 8008 7997 7996 7995 ] final  -47.90 input   59.86 | X-H torsion
[ 10167 10162 10161 10158 ] final  134.92 input  -65.29 | X-H torsion
[ 10718 10713 10712 10709 ] final  107.88 input   66.30 | X-H torsion
[ 10763 10752 10751 10750 ] final  116.20 input  -60.55 | X-H torsion
[ 11005 11000 10999 10996 ] final   62.89 input  -57.11 | X-H torsion

> <Gold.Protein.ActiveResidues>
 VAL166  LYS551  ARG553  GLY616  TRP617  ASP618  TYR619  PRO620  LYS621  CYS622 
 ASP623  PHE694  ASN695  SER759  ASP760  ASP761  ALA762  ILE779  LEU786  VAL792 
 PHE793  MET794  SER795  GLU796  ALA797  LYS798  CYS799  TRP800  GLU811  SER814 

> <Gold.Protein.RotatedAtoms>
  152.2510  134.8132  160.0445 H   0  0  0  0  0  0  0  0  0  0  0  0  # atno 6907 bound_to 6896
  151.8813  133.3490  159.3775 H   0  0  0  0  0  0  0  0  0  0  0  0  # atno 6908 bound_to 6896
  150.7084  134.4943  159.5575 H   0  0  0  0  0  0  0  0  0  0  0  0  # atno 6909 bound_to 6896
  145.6269  140.9348  143.1108 H   0  0  0  0  0  0  0  0  0  0  0  0  # atno 7974 bound_to 7965
  154.4022  140.1335  156.4251 H   0  0  0  0  0  0  0  0  0  0  0  0  # atno 8008 bound_to 7997
  155.7605  140.3486  155.5175 H   0  0  0  0  0  0  0  0  0  0  0  0  # atno 8009 bound_to 7997
  155.8863  140.0996  157.1440 H   0  0  0  0  0  0  0  0  0  0  0  0  # atno 8010 bound_to 7997
  139.5237  144.6543  151.5209 H   0  0  0  0  0  0  0  0  0  0  0  0  # atno 10167 bound_to 10162
  157.6610  131.0882  150.6223 H   0  0  0  0  0  0  0  0  0  0  0  0  # atno 10718 bound_to 10713
  153.5336  135.3573  155.2687 H   0  0  0  0  0  0  0  0  0  0  0  0  # atno 10763 bound_to 10752
  154.8724  135.4074  154.3123 H   0  0  0  0  0  0  0  0  0  0  0  0  # atno 10764 bound_to 10752
  153.3817  135.7068  153.6628 H   0  0  0  0  0  0  0  0  0  0  0  0  # atno 10765 bound_to 10752
  140.0061  134.6367  155.9853 H   0  0  0  0  0  0  0  0  0  0  0  0  # atno 11005 bound_to 11000
  144.7209  139.8034  143.7382 LP  0  0  0  0  0  0  0  0  0  0  0  0  # atno 17320 bound_to 7965
  146.1387  139.4439  143.0122 LP  0  0  0  0  0  0  0  0  0  0  0  0  # atno 17321 bound_to 7965
  140.6362  143.8980  150.6649 LP  0  0  0  0  0  0  0  0  0  0  0  0  # atno 17342 bound_to 10162
  140.2300  143.3743  152.1574 LP  0  0  0  0  0  0  0  0  0  0  0  0  # atno 17343 bound_to 10162
  156.6526  130.4489  149.5714 LP  0  0  0  0  0  0  0  0  0  0  0  0  # atno 17370 bound_to 10713
  156.2126  130.6688  151.1286 LP  0  0  0  0  0  0  0  0  0  0  0  0  # atno 17371 bound_to 10713
  141.1678  133.6537  156.4541 LP  0  0  0  0  0  0  0  0  0  0  0  0  # atno 17394 bound_to 11000
  140.4639  134.6816  157.5098 LP  0  0  0  0  0  0  0  0  0  0  0  0  # atno 17395 bound_to 11000

$$$$
