AV-unprocessed.smi:1683|AV-procd|sdf|6747|dock2
  -GOLD-   22720 7503D 1   1.00000     0.00000
 Structure written by MMmdl.
 36 37  0  0  0  0  0  0  0  0  1 V2000
  146.5850  132.6856  153.1374 O   0  0  0  0  0  0  0  0  0  0  0  0
  147.1719  133.6875  152.7275 C   0  0  0  0  0  0  0  0  0  0  0  0
  148.3400  134.1199  153.2241 N   0  0  0  0  0  0  0  0  0  0  0  0
  149.0920  133.4810  154.2999 C   0  0  0  0  0  0  0  0  0  0  0  0
  150.4937  134.0974  154.4657 C   0  0  2  0  0  0  0  0  0  0  0  0
  151.2767  133.5337  155.6526 C   0  0  0  0  0  0  0  0  0  0  0  0
  151.8626  134.7598  156.3591 C   0  0  0  0  0  0  0  0  0  0  0  0
  151.7915  135.8229  155.3634 N   0  0  0  0  0  0  0  0  0  0  0  0
  151.8757  137.1653  155.9356 C   0  0  0  0  0  0  0  0  0  0  0  0
  151.9865  138.2731  154.8695 C   0  0  0  0  0  0  0  0  0  0  0  0
  152.5131  139.3576  155.4368 F   0  0  0  0  0  0  0  0  0  0  0  0
  152.7778  137.9064  153.8615 F   0  0  0  0  0  0  0  0  0  0  0  0
  150.7811  138.5871  154.3938 F   0  0  0  0  0  0  0  0  0  0  0  0
  150.5024  135.6064  154.7231 C   0  0  0  0  0  0  0  0  0  0  0  0
  146.7351  134.4880  151.7413 N   0  0  0  0  0  0  0  0  0  0  0  0
  145.5575  134.3354  150.9660 C   0  0  0  0  0  0  0  0  0  0  0  0
  145.1530  133.1258  150.3386 C   0  0  0  0  0  0  0  0  0  0  0  0
  144.0097  133.2782  149.6856 N   0  0  0  0  0  0  0  0  0  0  0  0
  143.6802  134.5736  149.8908 N   0  0  0  0  0  0  0  0  0  0  0  0
  144.5930  135.2557  150.6649 C   0  0  0  0  0  0  0  0  0  0  0  0
  142.8379  134.9727  149.5015 H   0  0  0  0  0  0  0  0  0  0  0  0
  148.7434  134.9552  152.8254 H   0  0  0  0  0  0  0  0  0  0  0  0
  148.5416  133.5231  155.2415 H   0  0  0  0  0  0  0  0  0  0  0  0
  149.1875  132.4235  154.0522 H   0  0  0  0  0  0  0  0  0  0  0  0
  151.0720  133.9057  153.5599 H   0  0  0  0  0  0  0  0  0  0  0  0
  150.6462  132.9663  156.3381 H   0  0  0  0  0  0  0  0  0  0  0  0
  152.0663  132.8669  155.3044 H   0  0  0  0  0  0  0  0  0  0  0  0
  151.2477  135.0154  157.2240 H   0  0  0  0  0  0  0  0  0  0  0  0
  152.8826  134.5866  156.7024 H   0  0  0  0  0  0  0  0  0  0  0  0
  150.9655  137.3383  156.5114 H   0  0  0  0  0  0  0  0  0  0  0  0
  152.7060  137.2286  156.6406 H   0  0  0  0  0  0  0  0  0  0  0  0
  150.4002  136.1880  153.8062 H   0  0  0  0  0  0  0  0  0  0  0  0
  149.6932  135.8848  155.4010 H   0  0  0  0  0  0  0  0  0  0  0  0
  147.3093  135.2870  151.5150 H   0  0  0  0  0  0  0  0  0  0  0  0
  145.6402  132.1619  150.3357 H   0  0  0  0  0  0  0  0  0  0  0  0
  144.4707  136.2981  150.9200 H   0  0  0  0  0  0  0  0  0  0  0  0
  1  2  2  0  0  0  0
  2  3  1  0  0  0  0
  2 15  1  0  0  0  0
  3  4  1  0  0  0  0
  3 22  1  0  0  0  0
  4  5  1  0  0  0  0
  4 23  1  0  0  0  0
  4 24  1  0  0  0  0
  5 14  1  0  0  0  0
  5  6  1  0  0  0  0
  5 25  1  0  0  0  0
  6  7  1  0  0  0  0
  6 26  1  0  0  0  0
  6 27  1  0  0  0  0
  7  8  1  0  0  0  0
  7 28  1  0  0  0  0
  7 29  1  0  0  0  0
  8  9  1  0  0  0  0
  8 14  1  0  0  0  0
  9 10  1  0  0  0  0
  9 30  1  0  0  0  0
  9 31  1  0  0  0  0
 10 11  1  0  0  0  0
 10 12  1  0  0  0  0
 10 13  1  0  0  0  0
 14 32  1  0  0  0  0
 14 33  1  0  0  0  0
 15 16  1  0  0  0  0
 15 34  1  0  0  0  0
 16 20  2  0  0  0  0
 16 17  1  0  0  0  0
 17 18  2  0  0  0  0
 17 35  1  0  0  0  0
 18 19  1  0  0  0  0
 19 21  1  0  0  0  0
 19 20  1  0  0  0  0
 20 36  1  0  0  0  0
M  END
> <s_m_source_file>
AV-unprocessed.smi

> <i_m_source_file_index>
1683

> <i_lp_mmshare_version>
43012

> <i_f3d_flags>
0

> <s_epik_input>
W2NIXTFbbkhdbltjSF1jMVtOSF1DKD1PKVtOSF1bQ0gyXVtDQEBIXTJbQ0gyXVtDSDJdTihbQ0gyXTIpW0NIMl1DKEYpKEYpRg==

> <s_epik_cmdline>
J2VwaWtfcHl0aG9uJywgJy1waCcsICc3LjAnLCAnLXRuJywgJzgnLCAnLW1hJywgJzIwMCcsICctbWV0YWxfYmluZGluZycsICctaW1hZScsICc8aW5maWxlLm1hZT4nLCAnLW9tYWUnLCAnPG91dGZpbGUubWFlPic=

> <r_lp_tautomer_probability>
0.5

> <r_epik_Ionization_Penalty>
0.244885

> <r_epik_Ionization_Penalty_Charging>
0

> <r_epik_Ionization_Penalty_Neutral>
0.244885

> <r_epik_State_Penalty>
0.235951

> <r_epik_Charging_Adjusted_Penalty>
0.235951

> <i_epik_Tot_Q>
0

> <i_epik_Tot_abs_Q>
0

> <r_epik_Metal_State_Penalty>
0.23595

> <b_epik_Metal_Only>
0

> <s_lp_Force_Field>
OPLS_2005

> <r_lp_Energy>
32.4259

> <b_lp_Chiralities_Consistent>
1

> <s_lp_Variant>
AV-unprocessed.smi:1683-1

> <Gold.Version>
5.8.1

> <Gold.Id.Protein>
6NUR|6NUR_protein|mol2

> <Gold.PLP.Fitness>
45.8857

> <Gold.PLP.PLP>
-33.4438

> <Gold.PLP.part.hbond>
-4.6312

> <Gold.PLP.part.metal>
0.0000

> <Gold.PLP.part.buried>
-4.1652

> <Gold.PLP.part.nonpolar>
-24.8268

> <Gold.PLP.part.repulsive>
0.5119

> <Gold.PLP.ligand.clash>
0.0000

> <Gold.PLP.ligand.torsion>
0.8305

> <Gold.PLP.Chemscore.Hbond>
3.5360

> <Gold.PLP.Chemscore.CHOScore>
0.9995

> <Gold.PLP.Chemscore.Metal>
0.0000

> <Gold.Chemscore.Hbonds>
donor molecule, donor type, donor heavy atom, donor atom, acceptor molecule, acceptor atom, score
      L1  H     3    22       P1  7948  0.95
      L1  H    15    34       P1  7948  0.93
      L1  H    19    21       P1 10186  0.67
      P1  H 10752 10764       L1     8  0.71
      L1  C    20    36       P1 10171  0.82

> <Gold.PLP.Chemscore.Internal.Correction>
0.4962

> <Gold.Rescore>
     Score         DG    S(hbond)    S(metal)    S(lipo)     H(rot)  DE(clash)    DE(int)     intcor
     14.90     -16.20       2.67        0.00      54.29       1.78       0.02       1.29       ----

> <Gold.Chemscore.Fitness>
14.8987

> <Gold.Chemscore.DG>
-16.2042

> <Gold.Chemscore.ZeroCoef>
-5.4800

> <Gold.Chemscore.Hbond>
2.6730

> <Gold.Chemscore.Metal>
0.0000

> <Gold.Chemscore.Lipo>
54.2860

> <Gold.Chemscore.Internal_Hbond>
0.0000

> <Gold.Chemscore.DEClash>
0.0155

> <Gold.Chemscore.DEInternal>
1.2900

> <Gold.Chemscore.Rot>
1.7793

> <Gold.Chemscore.Internal.Correction>
   9.000000E+99

> <Gold.Chemscore.Hbonds>
donor molecule, donor type, donor heavy atom, donor atom, acceptor molecule, acceptor atom, score
      L1  H     3    22       P1  7948  0.21
      L1  H    15    34       P1  7948  0.82
      L1  H    19    21       P1 10186  0.48
      P1  H 10752 10764       L1     8  0.19

> <Gold.Chemscore.Hbond.Weighted>
-8.9278

> <Gold.Chemscore.Metal.Weighted>
-0.0000

> <Gold.Chemscore.Lipo.Weighted>
-6.3515

> <Gold.Chemscore.Internal_Hbond.Weighted>
0.0000

> <Gold.Chemscore.DEClash.Weighted>
0.0155

> <Gold.Chemscore.DEInternal.Weighted>
1.2900

> <Gold.Chemscore.Rot.Weighted>
4.5551

> <Gold.Chemscore.Internal.Correction.Weighted>
   9.000000E+99

> <Gold.Protein.RotatedTorsions>
[ 6907 6896 6895 6894 ] final   89.27 input  -60.11 | X-H torsion
[ 7974 7965 7964 7962 ] final -142.45 input  175.53 | X-H torsion
[ 8008 7997 7996 7995 ] final -129.04 input   59.86 | X-H torsion
[ 10167 10162 10161 10158 ] final    2.37 input  -65.29 | X-H torsion
[ 10718 10713 10712 10709 ] final   10.74 input   66.30 | X-H torsion
[ 10763 10752 10751 10750 ] final  -63.99 input  -60.55 | X-H torsion
[ 11005 11000 10999 10996 ] final  -84.92 input  -57.11 | X-H torsion

> <Gold.Protein.ActiveResidues>
 VAL166  LYS551  ARG553  GLY616  TRP617  ASP618  TYR619  PRO620  LYS621  CYS622 
 ASP623  PHE694  ASN695  SER759  ASP760  ASP761  ALA762  ILE779  LEU786  VAL792 
 PHE793  MET794  SER795  GLU796  ALA797  LYS798  CYS799  TRP800  GLU811  SER814 

> <Gold.Protein.RotatedAtoms>
  152.5434  134.1993  159.8705 H   0  0  0  0  0  0  0  0  0  0  0  0  # atno 6907 bound_to 6896
  151.1983  133.4619  159.2603 H   0  0  0  0  0  0  0  0  0  0  0  0  # atno 6908 bound_to 6896
  151.1015  134.9987  159.8506 H   0  0  0  0  0  0  0  0  0  0  0  0  # atno 6909 bound_to 6896
  144.8442  140.5956  143.5432 H   0  0  0  0  0  0  0  0  0  0  0  0  # atno 7974 bound_to 7965
  155.2726  140.0440  157.3008 H   0  0  0  0  0  0  0  0  0  0  0  0  # atno 8008 bound_to 7997
  154.5644  140.2355  155.8254 H   0  0  0  0  0  0  0  0  0  0  0  0  # atno 8009 bound_to 7997
  156.2073  140.3009  155.9663 H   0  0  0  0  0  0  0  0  0  0  0  0  # atno 8010 bound_to 7997
  140.6638  143.7233  150.7789 H   0  0  0  0  0  0  0  0  0  0  0  0  # atno 10167 bound_to 10162
  156.9853  130.6021  149.5680 H   0  0  0  0  0  0  0  0  0  0  0  0  # atno 10718 bound_to 10713
  154.3234  135.6191  153.5518 H   0  0  0  0  0  0  0  0  0  0  0  0  # atno 10763 bound_to 10752
  152.9818  135.5729  154.5044 H   0  0  0  0  0  0  0  0  0  0  0  0  # atno 10764 bound_to 10752
  154.4716  135.2859  155.1615 H   0  0  0  0  0  0  0  0  0  0  0  0  # atno 10765 bound_to 10752
  141.1646  133.7372  156.8939 H   0  0  0  0  0  0  0  0  0  0  0  0  # atno 11005 bound_to 11000
  145.4631  139.1511  143.3855 LP  0  0  0  0  0  0  0  0  0  0  0  0  # atno 17320 bound_to 7965
  146.2730  140.4761  142.8807 LP  0  0  0  0  0  0  0  0  0  0  0  0  # atno 17321 bound_to 7965
  140.0907  143.4881  152.2480 LP  0  0  0  0  0  0  0  0  0  0  0  0  # atno 17342 bound_to 10162
  139.5880  144.7539  151.3471 LP  0  0  0  0  0  0  0  0  0  0  0  0  # atno 17343 bound_to 10162
  156.0228  130.5323  150.8324 LP  0  0  0  0  0  0  0  0  0  0  0  0  # atno 17370 bound_to 10713
  157.5497  131.0943  150.9713 LP  0  0  0  0  0  0  0  0  0  0  0  0  # atno 17371 bound_to 10713
  140.1629  134.9153  157.2738 LP  0  0  0  0  0  0  0  0  0  0  0  0  # atno 17394 bound_to 11000
  140.2590  134.3593  155.7413 LP  0  0  0  0  0  0  0  0  0  0  0  0  # atno 17395 bound_to 11000

$$$$
