AV-unprocessed.smi:3090|AV-procd|sdf|11774|dock4
  -GOLD-   2272017153D 1   1.00000     0.00000
 Structure written by MMmdl.
 22 22  0  0  0  0  0  0  0  0  2 V2000
  145.5175  143.8591  153.0680 C   0  0  0  0  0  0  0  0  0  0  0  0
  146.2257  142.7778  153.7188 N   0  0  0  0  0  0  0  0  0  0  0  0
  147.4748  142.2717  153.4321 C   0  0  0  0  0  0  0  0  0  0  0  0
  147.7208  141.2563  154.3152 C   0  0  0  0  0  0  0  0  0  0  0  0
  148.9303  140.3671  154.4353 C   0  0  2  0  0  0  0  0  0  0  0  0
  149.9474  140.7547  153.5326 O   0  0  0  0  0  0  0  0  0  0  0  0
  148.5570  138.9021  154.1485 C   0  0  0  0  0  0  0  0  0  0  0  0
  148.3327  138.6649  152.7118 N   0  3  0  0  0  0  0  0  0  0  0  0
  146.5393  141.2219  155.1104 C   0  0  0  0  0  0  0  0  0  0  0  0
  145.6485  142.1314  154.7518 N   0  0  0  0  0  0  0  0  0  0  0  0
  146.1212  144.2676  152.2570 H   0  0  0  0  0  0  0  0  0  0  0  0
  145.3099  144.6510  153.7882 H   0  0  0  0  0  0  0  0  0  0  0  0
  144.5766  143.4908  152.6580 H   0  0  0  0  0  0  0  0  0  0  0  0
  148.0798  142.6705  152.6309 H   0  0  0  0  0  0  0  0  0  0  0  0
  149.3458  140.4385  155.4414 H   0  0  0  0  0  0  0  0  0  0  0  0
  150.0227  140.0921  152.8622 H   0  0  0  0  0  0  0  0  0  0  0  0
  149.3609  138.2410  154.4747 H   0  0  0  0  0  0  0  0  0  0  0  0
  147.6629  138.6136  154.7030 H   0  0  0  0  0  0  0  0  0  0  0  0
  148.8483  139.3449  152.1716 H   0  0  0  0  0  0  0  0  0  0  0  0
  147.3472  138.7456  152.5062 H   0  0  0  0  0  0  0  0  0  0  0  0
  146.3042  140.5634  155.9339 H   0  0  0  0  0  0  0  0  0  0  0  0
  148.6499  137.7352  152.4762 H   0  0  0  0  0  0  0  0  0  0  0  0
  1  2  1  0  0  0  0
  1 11  1  0  0  0  0
  1 12  1  0  0  0  0
  1 13  1  0  0  0  0
  2 10  1  0  0  0  0
  2  3  1  0  0  0  0
  3  4  2  0  0  0  0
  3 14  1  0  0  0  0
  4  5  1  0  0  0  0
  4  9  1  0  0  0  0
  5  6  1  0  0  0  0
  5  7  1  0  0  0  0
  5 15  1  0  0  0  0
  6 16  1  0  0  0  0
  7  8  1  0  0  0  0
  7 17  1  0  0  0  0
  7 18  1  0  0  0  0
  8 19  1  0  0  0  0
  8 20  1  0  0  0  0
  8 22  1  0  0  0  0
  9 10  2  0  0  0  0
  9 21  1  0  0  0  0
M  CHG  1   8   1
M  END
> <s_m_source_file>
AV-unprocessed.smi

> <i_m_source_file_index>
3090

> <i_lp_mmshare_version>
43012

> <i_f3d_flags>
0

> <s_epik_input>
W0NIM11uMVtjSF1jKFtjSF1uMSlbQ0BIXShbT0hdKVtDSDJdW05IMl0=

> <s_epik_cmdline>
J2VwaWtfcHl0aG9uJywgJy1waCcsICc3LjAnLCAnLXRuJywgJzgnLCAnLW1hJywgJzIwMCcsICctbWV0YWxfYmluZGluZycsICctaW1hZScsICc8aW5maWxlLm1hZT4nLCAnLW9tYWUnLCAnPG91dGZpbGUubWFlPic=

> <r_lp_tautomer_probability>
1

> <r_epik_Ionization_Penalty>
0.014056

> <r_epik_Ionization_Penalty_Charging>
0.0140431

> <r_epik_Ionization_Penalty_Neutral>
1.29738e-05

> <r_epik_State_Penalty>
0.0109628

> <r_epik_Charging_Adjusted_Penalty>
0.0250059

> <i_epik_Tot_Q>
1

> <i_epik_Tot_abs_Q>
1

> <r_epik_Metal_State_Penalty>
0.0109636

> <b_epik_Metal_Only>
0

> <s_lp_Force_Field>
OPLS_2005

> <r_lp_Energy>
1.35566

> <b_lp_Chiralities_Consistent>
1

> <s_lp_Variant>
AV-unprocessed.smi:3090-1

> <Gold.Version>
5.8.1

> <Gold.Id.Protein>
6NUR|6NUR_protein|mol2

> <Gold.PLP.Fitness>
37.2946

> <Gold.PLP.PLP>
-22.3977

> <Gold.PLP.part.hbond>
-4.0149

> <Gold.PLP.part.metal>
0.0000

> <Gold.PLP.part.buried>
-3.2449

> <Gold.PLP.part.nonpolar>
-14.3323

> <Gold.PLP.part.repulsive>
0.2097

> <Gold.PLP.ligand.clash>
0.0000

> <Gold.PLP.ligand.torsion>
0.1145

> <Gold.PLP.Chemscore.Hbond>
5.0412

> <Gold.PLP.Chemscore.CHOScore>
0.0000

> <Gold.PLP.Chemscore.Metal>
0.0000

> <Gold.Chemscore.Hbonds>
donor molecule, donor type, donor heavy atom, donor atom, acceptor molecule, acceptor atom, score
      L1  H     6    16       P1  7957  0.67
      L1  H     8    19       P1  7957  0.75
      L1  H     8    22       P1  7948  2.00
      P1  H  7989  7998       L1     6  0.14
      P1  H  8011  8017       L1     6  0.91

> <Gold.PLP.Chemscore.Internal.Correction>
0.0024

> <Gold.Rescore>
     Score         DG    S(hbond)    S(metal)    S(lipo)     H(rot)  DE(clash)    DE(int)     intcor
     15.20     -15.73       3.37        0.00      34.12       1.96       0.17       0.35       ----

> <Gold.Chemscore.Fitness>
15.2022

> <Gold.Chemscore.DG>
-15.7283

> <Gold.Chemscore.ZeroCoef>
-5.4800

> <Gold.Chemscore.Hbond>
3.3718

> <Gold.Chemscore.Metal>
0.0000

> <Gold.Chemscore.Lipo>
34.1160

> <Gold.Chemscore.Internal_Hbond>
0.0000

> <Gold.Chemscore.DEClash>
0.1739

> <Gold.Chemscore.DEInternal>
0.3521

> <Gold.Chemscore.Rot>
1.9551

> <Gold.Chemscore.Internal.Correction>
   9.000000E+99

> <Gold.Chemscore.Hbonds>
donor molecule, donor type, donor heavy atom, donor atom, acceptor molecule, acceptor atom, score
      L1  H     6    16       P1  7957  0.68
      L1  H     8    19       P1  7957  0.75
      L1  H     8    22       P1  7948  0.99
      P1  H  8011  8017       L1     6  0.19

> <Gold.Chemscore.Hbond.Weighted>
-11.2618

> <Gold.Chemscore.Metal.Weighted>
-0.0000

> <Gold.Chemscore.Lipo.Weighted>
-3.9916

> <Gold.Chemscore.Internal_Hbond.Weighted>
0.0000

> <Gold.Chemscore.DEClash.Weighted>
0.1739

> <Gold.Chemscore.DEInternal.Weighted>
0.3521

> <Gold.Chemscore.Rot.Weighted>
5.0051

> <Gold.Chemscore.Internal.Correction.Weighted>
   9.000000E+99

> <Gold.Protein.RotatedTorsions>
[ 6907 6896 6895 6894 ] final  113.61 input  -60.11 | X-H torsion
[ 7974 7965 7964 7962 ] final  126.61 input  175.53 | X-H torsion
[ 8008 7997 7996 7995 ] final -175.04 input   59.86 | X-H torsion
[ 10167 10162 10161 10158 ] final  -42.01 input  -65.29 | X-H torsion
[ 10718 10713 10712 10709 ] final  129.14 input   66.30 | X-H torsion
[ 10763 10752 10751 10750 ] final    1.62 input  -60.55 | X-H torsion
[ 11005 11000 10999 10996 ] final    4.64 input  -57.11 | X-H torsion

> <Gold.Protein.ActiveResidues>
 VAL166  LYS551  ARG553  GLY616  TRP617  ASP618  TYR619  PRO620  LYS621  CYS622 
 ASP623  PHE694  ASN695  SER759  ASP760  ASP761  ALA762  ILE779  LEU786  VAL792 
 PHE793  MET794  SER795  GLU796  ALA797  LYS798  CYS799  TRP800  GLU811  SER814 

> <Gold.Protein.RotatedAtoms>
  152.4851  133.8351  159.7123 H   0  0  0  0  0  0  0  0  0  0  0  0  # atno 6907 bound_to 6896
  150.8930  133.7208  159.2906 H   0  0  0  0  0  0  0  0  0  0  0  0  # atno 6908 bound_to 6896
  151.4675  135.1047  159.9794 H   0  0  0  0  0  0  0  0  0  0  0  0  # atno 6909 bound_to 6896
  145.0598  139.3814  143.5011 H   0  0  0  0  0  0  0  0  0  0  0  0  # atno 7974 bound_to 7965
  155.9776  140.1175  157.0756 H   0  0  0  0  0  0  0  0  0  0  0  0  # atno 8008 bound_to 7997
  154.4173  140.1151  156.5459 H   0  0  0  0  0  0  0  0  0  0  0  0  # atno 8009 bound_to 7997
  155.6514  140.3473  155.4752 H   0  0  0  0  0  0  0  0  0  0  0  0  # atno 8010 bound_to 7997
  140.6983  143.3061  151.3149 H   0  0  0  0  0  0  0  0  0  0  0  0  # atno 10167 bound_to 10162
  157.5181  131.1098  150.9194 H   0  0  0  0  0  0  0  0  0  0  0  0  # atno 10718 bound_to 10713
  153.3058  135.6959  153.7161 H   0  0  0  0  0  0  0  0  0  0  0  0  # atno 10763 bound_to 10752
  153.6058  135.3453  155.2962 H   0  0  0  0  0  0  0  0  0  0  0  0  # atno 10764 bound_to 10752
  154.8562  135.4351  154.2181 H   0  0  0  0  0  0  0  0  0  0  0  0  # atno 10765 bound_to 10752
  140.5796  134.0025  155.8042 H   0  0  0  0  0  0  0  0  0  0  0  0  # atno 11005 bound_to 11000
  146.3523  140.0291  142.8652 LP  0  0  0  0  0  0  0  0  0  0  0  0  # atno 17320 bound_to 7965
  145.1422  140.9578  143.4481 LP  0  0  0  0  0  0  0  0  0  0  0  0  # atno 17321 bound_to 7965
  139.6468  144.0437  152.2596 LP  0  0  0  0  0  0  0  0  0  0  0  0  # atno 17342 bound_to 10162
  139.9960  144.6328  150.7772 LP  0  0  0  0  0  0  0  0  0  0  0  0  # atno 17343 bound_to 10162
  156.9814  130.5528  149.5296 LP  0  0  0  0  0  0  0  0  0  0  0  0  # atno 17370 bound_to 10713
  156.0334  130.5424  150.8593 LP  0  0  0  0  0  0  0  0  0  0  0  0  # atno 17371 bound_to 10713
  141.1004  133.9777  157.3088 LP  0  0  0  0  0  0  0  0  0  0  0  0  # atno 17394 bound_to 11000
  139.9323  135.0199  156.8442 LP  0  0  0  0  0  0  0  0  0  0  0  0  # atno 17395 bound_to 11000

$$$$
