AV-unprocessed.smi:2448|AV-procd|sdf|9657|dock10
  -GOLD-   2272013293D 1   1.00000     0.00000
 Structure written by MMmdl.
 38 39  0  0  0  0  0  0  0  0  2 V2000
  149.9922  142.7886  158.9785 O   0  0  0  0  0  0  0  0  0  0  0  0
  151.2599  142.4157  158.4657 C   0  0  1  0  0  0  0  0  0  0  0  0
  151.0529  141.8282  157.0550 C   0  0  0  0  0  0  0  0  0  0  0  0
  149.6461  141.9580  156.6129 N   0  3  0  0  0  0  0  0  0  0  0  0
  149.1616  140.9155  155.6781 C   0  0  1  0  0  0  0  0  0  0  0  0
  148.9603  139.5718  156.4215 C   0  0  0  0  0  0  0  0  0  0  0  0
  149.9545  138.4909  156.0375 C   0  0  0  0  0  0  0  0  0  0  0  0
  150.3306  138.3026  154.6913 C   0  0  0  0  0  0  0  0  0  0  0  0
  151.2621  137.2892  154.3893 C   0  0  0  0  0  0  0  0  0  0  0  0
  151.8131  136.4862  155.3247 N   0  0  0  0  0  0  0  0  0  0  0  0
  151.4452  136.6689  156.6110 C   0  0  0  0  0  0  0  0  0  0  0  0
  150.5227  137.6530  157.0198 C   0  0  0  0  0  0  0  0  0  0  0  0
  147.8879  141.4304  154.9685 C   0  0  0  0  0  0  0  0  0  0  0  0
  148.2089  142.4463  154.1662 F   0  0  0  0  0  0  0  0  0  0  0  0
  147.3275  140.4841  154.2166 F   0  0  0  0  0  0  0  0  0  0  0  0
  146.9992  141.8603  155.8645 F   0  0  0  0  0  0  0  0  0  0  0  0
  152.1488  143.6703  158.4477 C   0  0  0  0  0  0  0  0  0  0  0  0
  152.5496  143.9822  159.8931 C   0  0  0  0  0  0  0  0  0  0  0  0
  152.7251  142.4042  160.7620 S   0  0  0  0  0  0  0  0  0  0  0  0
  151.9436  141.4398  159.4411 C   0  0  0  0  0  0  0  0  0  0  0  0
  149.3238  142.5082  158.3717 H   0  0  0  0  0  0  0  0  0  0  0  0
  151.7052  142.3360  156.3431 H   0  0  0  0  0  0  0  0  0  0  0  0
  151.3393  140.7765  157.0523 H   0  0  0  0  0  0  0  0  0  0  0  0
  149.0405  141.9832  157.4207 H   0  0  0  0  0  0  0  0  0  0  0  0
  149.9257  140.7817  154.9109 H   0  0  0  0  0  0  0  0  0  0  0  0
  149.0472  139.7151  157.4984 H   0  0  0  0  0  0  0  0  0  0  0  0
  147.9481  139.2028  156.2497 H   0  0  0  0  0  0  0  0  0  0  0  0
  149.9216  138.9200  153.9049 H   0  0  0  0  0  0  0  0  0  0  0  0
  151.5734  137.1203  153.3689 H   0  0  0  0  0  0  0  0  0  0  0  0
  151.9007  136.0116  157.3367 H   0  0  0  0  0  0  0  0  0  0  0  0
  150.2630  137.7592  158.0628 H   0  0  0  0  0  0  0  0  0  0  0  0
  153.0528  143.4649  157.8726 H   0  0  0  0  0  0  0  0  0  0  0  0
  151.6599  144.5217  157.9720 H   0  0  0  0  0  0  0  0  0  0  0  0
  153.4694  144.5648  159.9488 H   0  0  0  0  0  0  0  0  0  0  0  0
  151.7638  144.5561  160.3855 H   0  0  0  0  0  0  0  0  0  0  0  0
  151.2545  140.7014  159.8531 H   0  0  0  0  0  0  0  0  0  0  0  0
  152.7371  140.8938  158.9295 H   0  0  0  0  0  0  0  0  0  0  0  0
  149.5712  142.8457  156.1358 H   0  0  0  0  0  0  0  0  0  0  0  0
  1  2  1  0  0  0  0
  1 21  1  0  0  0  0
  2 20  1  0  0  0  0
  2  3  1  0  0  0  0
  2 17  1  0  0  0  0
  3  4  1  0  0  0  0
  3 22  1  0  0  0  0
  3 23  1  0  0  0  0
  4  5  1  0  0  0  0
  4 24  1  0  0  0  0
  4 38  1  0  0  0  0
  5  6  1  0  0  0  0
  5 13  1  0  0  0  0
  5 25  1  0  0  0  0
  6  7  1  0  0  0  0
  6 26  1  0  0  0  0
  6 27  1  0  0  0  0
  7 12  1  0  0  0  0
  7  8  2  0  0  0  0
  8  9  1  0  0  0  0
  8 28  1  0  0  0  0
  9 10  2  0  0  0  0
  9 29  1  0  0  0  0
 10 11  1  0  0  0  0
 11 12  2  0  0  0  0
 11 30  1  0  0  0  0
 12 31  1  0  0  0  0
 13 14  1  0  0  0  0
 13 15  1  0  0  0  0
 13 16  1  0  0  0  0
 17 18  1  0  0  0  0
 17 32  1  0  0  0  0
 17 33  1  0  0  0  0
 18 19  1  0  0  0  0
 18 34  1  0  0  0  0
 18 35  1  0  0  0  0
 19 20  1  0  0  0  0
 20 36  1  0  0  0  0
 20 37  1  0  0  0  0
M  CHG  1   4   1
M  END
> <s_m_source_file>
AV-unprocessed.smi

> <i_m_source_file_index>
2448

> <i_lp_mmshare_version>
43012

> <i_f3d_flags>
0

> <s_epik_input>
W0NIMl0xU1tDSDJdW0NIMl1bQ0BAXTEoW09IXSlbQ0gyXVtOSF1bQ0BASF0oQyhGKShGKUYpW0NIMl1jMltjSF1bY0hdbltjSF1bY0hdMg==

> <s_epik_cmdline>
J2VwaWtfcHl0aG9uJywgJy1waCcsICc3LjAnLCAnLXRuJywgJzgnLCAnLW1hJywgJzIwMCcsICctbWV0YWxfYmluZGluZycsICctaW1hZScsICc8aW5maWxlLm1hZT4nLCAnLW9tYWUnLCAnPG91dGZpbGUubWFlPic=

> <r_epik_Ionization_Penalty>
1.19945

> <r_epik_Ionization_Penalty_Charging>
1.19892

> <r_epik_Ionization_Penalty_Neutral>
0.000532129

> <r_epik_State_Penalty>
0.752927

> <r_epik_Charging_Adjusted_Penalty>
1.95185

> <i_epik_Tot_Q>
1

> <i_epik_Tot_abs_Q>
1

> <r_epik_Metal_State_Penalty>
0.804507

> <b_epik_Metal_Only>
0

> <s_lp_Force_Field>
OPLS_2005

> <r_lp_Energy>
21.3844

> <b_lp_Chiralities_Consistent>
1

> <s_lp_Variant>
AV-unprocessed.smi:2448-7

> <Gold.Version>
5.8.1

> <Gold.Id.Protein>
6NUR|6NUR_protein|mol2

> <Gold.PLP.Fitness>
45.3051

> <Gold.PLP.PLP>
-37.7870

> <Gold.PLP.part.hbond>
-2.0809

> <Gold.PLP.part.metal>
0.0000

> <Gold.PLP.part.buried>
-4.7331

> <Gold.PLP.part.nonpolar>
-31.0404

> <Gold.PLP.part.repulsive>
0.1388

> <Gold.PLP.ligand.clash>
0.0000

> <Gold.PLP.ligand.torsion>
2.4936

> <Gold.PLP.Chemscore.Hbond>
2.9920

> <Gold.PLP.Chemscore.CHOScore>
1.0000

> <Gold.PLP.Chemscore.Metal>
0.0000

> <Gold.Chemscore.Hbonds>
donor molecule, donor type, donor heavy atom, donor atom, acceptor molecule, acceptor atom, score
      L1  H     4    38       P1  8028  1.89
      P1  H 10752 10763       L1    10  1.00
      L1  C     9    29       P1  7949  1.00

> <Gold.PLP.Chemscore.Internal.Correction>
0.5294

> <Gold.Rescore>
     Score         DG    S(hbond)    S(metal)    S(lipo)     H(rot)  DE(clash)    DE(int)     intcor
     15.42     -17.98       1.91        0.00     104.68       2.39       0.06       2.50       ----

> <Gold.Chemscore.Fitness>
15.4243

> <Gold.Chemscore.DG>
-17.9840

> <Gold.Chemscore.ZeroCoef>
-5.4800

> <Gold.Chemscore.Hbond>
1.9060

> <Gold.Chemscore.Metal>
0.0000

> <Gold.Chemscore.Lipo>
104.6794

> <Gold.Chemscore.Internal_Hbond>
0.0000

> <Gold.Chemscore.DEClash>
0.0555

> <Gold.Chemscore.DEInternal>
2.5042

> <Gold.Chemscore.Rot>
2.3866

> <Gold.Chemscore.Internal.Correction>
   9.000000E+99

> <Gold.Chemscore.Hbonds>
donor molecule, donor type, donor heavy atom, donor atom, acceptor molecule, acceptor atom, score
      L1  H     4    38       P1  8028  0.90
      P1  H 10752 10763       L1    10  0.64

> <Gold.Chemscore.Hbond.Weighted>
-6.3662

> <Gold.Chemscore.Metal.Weighted>
-0.0000

> <Gold.Chemscore.Lipo.Weighted>
-12.2475

> <Gold.Chemscore.Internal_Hbond.Weighted>
0.0000

> <Gold.Chemscore.DEClash.Weighted>
0.0555

> <Gold.Chemscore.DEInternal.Weighted>
2.5042

> <Gold.Chemscore.Rot.Weighted>
6.1096

> <Gold.Chemscore.Internal.Correction.Weighted>
   9.000000E+99

> <Gold.Protein.RotatedTorsions>
[ 6907 6896 6895 6894 ] final   90.67 input  -60.11 | X-H torsion
[ 7974 7965 7964 7962 ] final -172.49 input  175.53 | X-H torsion
[ 8008 7997 7996 7995 ] final  -85.53 input   59.86 | X-H torsion
[ 10167 10162 10161 10158 ] final   -4.17 input  -65.29 | X-H torsion
[ 10718 10713 10712 10709 ] final  -46.24 input   66.30 | X-H torsion
[ 10763 10752 10751 10750 ] final   59.33 input  -60.55 | X-H torsion
[ 11005 11000 10999 10996 ] final   65.88 input  -57.11 | X-H torsion

> <Gold.Protein.ActiveResidues>
 VAL166  LYS551  ARG553  GLY616  TRP617  ASP618  TYR619  PRO620  LYS621  CYS622 
 ASP623  PHE694  ASN695  SER759  ASP760  ASP761  ALA762  ILE779  LEU786  VAL792 
 PHE793  MET794  SER795  GLU796  ALA797  LYS798  CYS799  TRP800  GLU811  SER814 

> <Gold.Protein.RotatedAtoms>
  152.5446  134.1775  159.8621 H   0  0  0  0  0  0  0  0  0  0  0  0  # atno 6907 bound_to 6896
  151.1780  133.4735  159.2601 H   0  0  0  0  0  0  0  0  0  0  0  0  # atno 6908 bound_to 6896
  151.1207  135.0089  159.8592 H   0  0  0  0  0  0  0  0  0  0  0  0  # atno 6909 bound_to 6896
  144.7146  140.1764  143.6362 H   0  0  0  0  0  0  0  0  0  0  0  0  # atno 7974 bound_to 7965
  154.6417  140.0590  156.9853 H   0  0  0  0  0  0  0  0  0  0  0  0  # atno 8008 bound_to 7997
  155.1507  140.3274  155.4413 H   0  0  0  0  0  0  0  0  0  0  0  0  # atno 8009 bound_to 7997
  156.2534  140.1948  156.6618 H   0  0  0  0  0  0  0  0  0  0  0  0  # atno 8010 bound_to 7997
  140.6918  143.6454  150.8397 H   0  0  0  0  0  0  0  0  0  0  0  0  # atno 10167 bound_to 10162
  156.2203  130.4166  149.9002 H   0  0  0  0  0  0  0  0  0  0  0  0  # atno 10718 bound_to 10713
  152.9892  135.5575  154.5696 H   0  0  0  0  0  0  0  0  0  0  0  0  # atno 10763 bound_to 10752
  154.5099  135.2801  155.1353 H   0  0  0  0  0  0  0  0  0  0  0  0  # atno 10764 bound_to 10752
  154.2749  135.6356  153.5377 H   0  0  0  0  0  0  0  0  0  0  0  0  # atno 10765 bound_to 10752
  139.9866  134.6658  156.0165 H   0  0  0  0  0  0  0  0  0  0  0  0  # atno 11005 bound_to 11000
  145.8897  139.2368  143.1557 LP  0  0  0  0  0  0  0  0  0  0  0  0  # atno 17320 bound_to 7965
  145.9916  140.8598  143.0064 LP  0  0  0  0  0  0  0  0  0  0  0  0  # atno 17321 bound_to 7965
  140.0168  143.5584  152.2817 LP  0  0  0  0  0  0  0  0  0  0  0  0  # atno 17342 bound_to 10162
  139.6328  144.7646  151.2500 LP  0  0  0  0  0  0  0  0  0  0  0  0  # atno 17343 bound_to 10162
  156.6650  130.8797  151.3553 LP  0  0  0  0  0  0  0  0  0  0  0  0  # atno 17370 bound_to 10713
  157.7084  130.9411  150.1006 LP  0  0  0  0  0  0  0  0  0  0  0  0  # atno 17371 bound_to 10713
  141.1530  133.6546  156.4072 LP  0  0  0  0  0  0  0  0  0  0  0  0  # atno 17394 bound_to 11000
  140.4990  134.6504  157.5241 LP  0  0  0  0  0  0  0  0  0  0  0  0  # atno 17395 bound_to 11000

$$$$
