AV-unprocessed.smi:2850|AV-procd|sdf|10966|dock6
  -GOLD-   2272015423D 1   1.00000     0.00000
 Structure written by MMmdl.
 45 46  0  0  0  0  0  0  0  0  2 V2000
  151.5745  144.5260  159.5289 C   0  0  0  0  0  0  0  0  0  0  0  0
  152.3606  143.4105  160.7243 S   0  0  0  0  0  0  0  0  0  0  0  0
  152.6244  141.8668  159.9060 C   0  0  0  0  0  0  0  0  0  0  0  0
  153.2994  140.8181  160.5559 C   0  0  0  0  0  0  0  0  0  0  0  0
  153.4639  139.6220  159.8363 C   0  0  0  0  0  0  0  0  0  0  0  0
  152.9421  139.5662  158.5280 C   0  0  0  0  0  0  0  0  0  0  0  0
  153.0900  138.3820  157.7917 N   0  0  0  0  0  0  0  0  0  0  0  0
  152.7729  138.3187  156.3699 C   0  0  0  0  0  0  0  0  0  0  0  0
  151.6069  137.3617  156.0679 C   0  0  1  0  0  0  0  0  0  0  0  0
  151.0269  137.5995  154.6587 C   0  0  0  0  0  0  0  0  0  0  0  0
  149.9517  136.6261  154.3466 N   0  3  2  0  0  0  0  0  0  0  0  0
  148.6546  136.9387  155.0063 C   0  0  0  0  0  0  0  0  0  0  0  0
  147.8769  138.0692  154.2990 C   0  0  0  0  0  0  0  0  0  0  0  0
  148.6505  139.3982  154.3176 C   0  0  0  0  0  0  0  0  0  0  0  0
  146.4909  138.2483  154.9360 C   0  0  0  0  0  0  0  0  0  0  0  0
  150.4348  135.2366  154.5516 C   0  0  0  0  0  0  0  0  0  0  0  0
  151.0736  135.0595  155.9424 C   0  0  0  0  0  0  0  0  0  0  0  0
  152.0998  136.0267  156.1263 O   0  0  0  0  0  0  0  0  0  0  0  0
  152.3024  140.6236  157.9656 N   0  0  0  0  0  0  0  0  0  0  0  0
  152.1421  141.7636  158.6465 N   0  0  0  0  0  0  0  0  0  0  0  0
  151.3944  145.4983  159.9871 H   0  0  0  0  0  0  0  0  0  0  0  0
  150.6191  144.1204  159.1959 H   0  0  0  0  0  0  0  0  0  0  0  0
  152.2173  144.6682  158.6600 H   0  0  0  0  0  0  0  0  0  0  0  0
  153.6755  140.9253  161.5627 H   0  0  0  0  0  0  0  0  0  0  0  0
  153.9727  138.7771  160.2769 H   0  0  0  0  0  0  0  0  0  0  0  0
  153.3329  137.5265  158.2706 H   0  0  0  0  0  0  0  0  0  0  0  0
  152.5445  139.3217  156.0072 H   0  0  0  0  0  0  0  0  0  0  0  0
  153.6650  137.9977  155.8315 H   0  0  0  0  0  0  0  0  0  0  0  0
  150.8216  137.4968  156.8132 H   0  0  0  0  0  0  0  0  0  0  0  0
  150.6571  138.6204  154.5559 H   0  0  0  0  0  0  0  0  0  0  0  0
  151.8174  137.4864  153.9152 H   0  0  0  0  0  0  0  0  0  0  0  0
  148.0427  136.0387  155.0689 H   0  0  0  0  0  0  0  0  0  0  0  0
  148.8360  137.2472  156.0370 H   0  0  0  0  0  0  0  0  0  0  0  0
  147.7107  137.7938  153.2579 H   0  0  0  0  0  0  0  0  0  0  0  0
  148.8445  139.7303  155.3380 H   0  0  0  0  0  0  0  0  0  0  0  0
  148.0881  140.1856  153.8147 H   0  0  0  0  0  0  0  0  0  0  0  0
  149.6098  139.3102  153.8073 H   0  0  0  0  0  0  0  0  0  0  0  0
  146.5700  138.5331  155.9857 H   0  0  0  0  0  0  0  0  0  0  0  0
  145.9116  137.3260  154.8843 H   0  0  0  0  0  0  0  0  0  0  0  0
  145.9191  139.0225  154.4237 H   0  0  0  0  0  0  0  0  0  0  0  0
  149.6362  134.5113  154.4013 H   0  0  0  0  0  0  0  0  0  0  0  0
  151.1840  135.0244  153.7875 H   0  0  0  0  0  0  0  0  0  0  0  0
  150.3321  135.1416  156.7380 H   0  0  0  0  0  0  0  0  0  0  0  0
  151.5118  134.0649  156.0263 H   0  0  0  0  0  0  0  0  0  0  0  0
  149.7707  136.7263  153.3578 H   0  0  0  0  0  0  0  0  0  0  0  0
  1  2  1  0  0  0  0
  1 21  1  0  0  0  0
  1 22  1  0  0  0  0
  1 23  1  0  0  0  0
  2  3  1  0  0  0  0
  3 20  1  0  0  0  0
  3  4  2  0  0  0  0
  4  5  1  0  0  0  0
  4 24  1  0  0  0  0
  5  6  2  0  0  0  0
  5 25  1  0  0  0  0
  6  7  1  0  0  0  0
  6 19  1  0  0  0  0
  7  8  1  0  0  0  0
  7 26  1  0  0  0  0
  8  9  1  0  0  0  0
  8 27  1  0  0  0  0
  8 28  1  0  0  0  0
  9 18  1  0  0  0  0
  9 10  1  0  0  0  0
  9 29  1  0  0  0  0
 10 11  1  0  0  0  0
 10 30  1  0  0  0  0
 10 31  1  0  0  0  0
 11 12  1  0  0  0  0
 11 16  1  0  0  0  0
 11 45  1  0  0  0  0
 12 13  1  0  0  0  0
 12 32  1  0  0  0  0
 12 33  1  0  0  0  0
 13 14  1  0  0  0  0
 13 15  1  0  0  0  0
 13 34  1  0  0  0  0
 14 35  1  0  0  0  0
 14 36  1  0  0  0  0
 14 37  1  0  0  0  0
 15 38  1  0  0  0  0
 15 39  1  0  0  0  0
 15 40  1  0  0  0  0
 16 17  1  0  0  0  0
 16 41  1  0  0  0  0
 16 42  1  0  0  0  0
 17 18  1  0  0  0  0
 17 43  1  0  0  0  0
 17 44  1  0  0  0  0
 19 20  2  0  0  0  0
M  CHG  1  11   1
M  END
> <s_m_source_file>
AV-unprocessed.smi

> <i_m_source_file_index>
2850

> <i_lp_mmshare_version>
43012

> <i_f3d_flags>
0

> <s_epik_input>
W0NIM11TYzFbY0hdW2NIXWMobm4xKVtOSF1bQ0gyXVtDQEBIXTJbQ0gyXU4oW0NIMl1bQ0gyXU8yKVtDSDJdW0NIXShbQ0gzXSlbQ0gzXQ==

> <s_epik_cmdline>
J2VwaWtfcHl0aG9uJywgJy1waCcsICc3LjAnLCAnLXRuJywgJzgnLCAnLW1hJywgJzIwMCcsICctbWV0YWxfYmluZGluZycsICctaW1hZScsICc8aW5maWxlLm1hZT4nLCAnLW9tYWUnLCAnPG91dGZpbGUubWFlPic=

> <r_lp_tautomer_probability>
0.999978

> <r_epik_Ionization_Penalty>
0.0874875

> <r_epik_Ionization_Penalty_Charging>
0.0831532

> <r_epik_Ionization_Penalty_Neutral>
0.00433433

> <r_epik_State_Penalty>
0.0738301

> <r_epik_Charging_Adjusted_Penalty>
0.156983

> <i_epik_Tot_Q>
1

> <i_epik_Tot_abs_Q>
1

> <r_epik_Metal_State_Penalty>
0.073888

> <b_epik_Metal_Only>
0

> <s_lp_Force_Field>
OPLS_2005

> <r_lp_Energy>
26.339

> <b_lp_Chiralities_Consistent>
1

> <s_lp_Variant>
AV-unprocessed.smi:2850-2

> <Gold.Version>
5.8.1

> <Gold.Id.Protein>
6NUR|6NUR_protein|mol2

> <Gold.PLP.Fitness>
40.5888

> <Gold.PLP.PLP>
-32.3128

> <Gold.PLP.part.hbond>
-2.5319

> <Gold.PLP.part.metal>
0.0000

> <Gold.PLP.part.buried>
-1.2446

> <Gold.PLP.part.nonpolar>
-27.6355

> <Gold.PLP.part.repulsive>
0.1388

> <Gold.PLP.ligand.clash>
0.0057

> <Gold.PLP.ligand.torsion>
0.4188

> <Gold.PLP.Chemscore.Hbond>
3.0000

> <Gold.PLP.Chemscore.CHOScore>
0.0000

> <Gold.PLP.Chemscore.Metal>
0.0000

> <Gold.Chemscore.Hbonds>
donor molecule, donor type, donor heavy atom, donor atom, acceptor molecule, acceptor atom, score
      L1  H    11    45       P1  7948  2.00
      P1  H 10752 10765       L1    18  0.95

> <Gold.PLP.Chemscore.Internal.Correction>
0.1194

> <Gold.Rescore>
     Score         DG    S(hbond)    S(metal)    S(lipo)     H(rot)  DE(clash)    DE(int)     intcor
     17.12     -17.72       1.77        0.00      89.06       1.60       0.09       0.51       ----

> <Gold.Chemscore.Fitness>
17.1153

> <Gold.Chemscore.DG>
-17.7165

> <Gold.Chemscore.ZeroCoef>
-5.4800

> <Gold.Chemscore.Hbond>
1.7706

> <Gold.Chemscore.Metal>
0.0000

> <Gold.Chemscore.Lipo>
89.0562

> <Gold.Chemscore.Internal_Hbond>
0.0000

> <Gold.Chemscore.DEClash>
0.0876

> <Gold.Chemscore.DEInternal>
0.5135

> <Gold.Chemscore.Rot>
1.6003

> <Gold.Chemscore.Internal.Correction>
   9.000000E+99

> <Gold.Chemscore.Hbonds>
donor molecule, donor type, donor heavy atom, donor atom, acceptor molecule, acceptor atom, score
      L1  H    11    45       P1  7948  0.34
      P1  H 10752 10765       L1    18  0.21

> <Gold.Chemscore.Hbond.Weighted>
-5.9137

> <Gold.Chemscore.Metal.Weighted>
-0.0000

> <Gold.Chemscore.Lipo.Weighted>
-10.4196

> <Gold.Chemscore.Internal_Hbond.Weighted>
0.0000

> <Gold.Chemscore.DEClash.Weighted>
0.0876

> <Gold.Chemscore.DEInternal.Weighted>
0.5135

> <Gold.Chemscore.Rot.Weighted>
4.0968

> <Gold.Chemscore.Internal.Correction.Weighted>
   9.000000E+99

> <Gold.Protein.RotatedTorsions>
[ 6907 6896 6895 6894 ] final  -78.26 input  -60.11 | X-H torsion
[ 7974 7965 7964 7962 ] final  -91.69 input  175.53 | X-H torsion
[ 8008 7997 7996 7995 ] final -170.49 input   59.86 | X-H torsion
[ 10167 10162 10161 10158 ] final   -9.94 input  -65.29 | X-H torsion
[ 10718 10713 10712 10709 ] final  121.35 input   66.30 | X-H torsion
[ 10763 10752 10751 10750 ] final -148.68 input  -60.55 | X-H torsion
[ 11005 11000 10999 10996 ] final  -49.84 input  -57.11 | X-H torsion

> <Gold.Protein.ActiveResidues>
 VAL166  LYS551  ARG553  GLY616  TRP617  ASP618  TYR619  PRO620  LYS621  CYS622 
 ASP623  PHE694  ASN695  SER759  ASP760  ASP761  ALA762  ILE779  LEU786  VAL792 
 PHE793  MET794  SER795  GLU796  ALA797  LYS798  CYS799  TRP800  GLU811  SER814 

> <Gold.Protein.RotatedAtoms>
  150.6977  134.4298  159.5242 H   0  0  0  0  0  0  0  0  0  0  0  0  # atno 6907 bound_to 6896
  152.2027  134.8571  160.0515 H   0  0  0  0  0  0  0  0  0  0  0  0  # atno 6908 bound_to 6896
  151.9485  133.3624  159.4028 H   0  0  0  0  0  0  0  0  0  0  0  0  # atno 6909 bound_to 6896
  145.4097  140.9544  143.2241 H   0  0  0  0  0  0  0  0  0  0  0  0  # atno 7974 bound_to 7965
  155.9190  140.1071  157.1221 H   0  0  0  0  0  0  0  0  0  0  0  0  # atno 8008 bound_to 7997
  154.4051  140.1259  156.4720 H   0  0  0  0  0  0  0  0  0  0  0  0  # atno 8009 bound_to 7997
  155.7219  140.3469  155.5022 H   0  0  0  0  0  0  0  0  0  0  0  0  # atno 8010 bound_to 7997
  140.7101  143.5802  150.9000 H   0  0  0  0  0  0  0  0  0  0  0  0  # atno 10167 bound_to 10162
  157.5824  131.1073  150.8161 H   0  0  0  0  0  0  0  0  0  0  0  0  # atno 10718 bound_to 10713
  154.8219  135.3328  154.7012 H   0  0  0  0  0  0  0  0  0  0  0  0  # atno 10763 bound_to 10752
  153.7643  135.6930  153.4923 H   0  0  0  0  0  0  0  0  0  0  0  0  # atno 10764 bound_to 10752
  153.2088  135.4489  155.0304 H   0  0  0  0  0  0  0  0  0  0  0  0  # atno 10765 bound_to 10752
  141.0782  133.6660  156.3643 H   0  0  0  0  0  0  0  0  0  0  0  0  # atno 11005 bound_to 11000
  144.8317  139.5617  143.6941 LP  0  0  0  0  0  0  0  0  0  0  0  0  # atno 17320 bound_to 7965
  146.2711  139.6637  142.9295 LP  0  0  0  0  0  0  0  0  0  0  0  0  # atno 17321 bound_to 7965
  139.9528  143.6252  152.3024 LP  0  0  0  0  0  0  0  0  0  0  0  0  # atno 17342 bound_to 10162
  139.6777  144.7657  151.1665 LP  0  0  0  0  0  0  0  0  0  0  0  0  # atno 17343 bound_to 10162
  156.8604  130.5111  149.5304 LP  0  0  0  0  0  0  0  0  0  0  0  0  # atno 17370 bound_to 10713
  156.0871  130.5866  150.9667 LP  0  0  0  0  0  0  0  0  0  0  0  0  # atno 17371 bound_to 10713
  140.5527  134.6012  157.5412 LP  0  0  0  0  0  0  0  0  0  0  0  0  # atno 17394 bound_to 11000
  139.9595  134.7478  156.0269 LP  0  0  0  0  0  0  0  0  0  0  0  0  # atno 17395 bound_to 11000

$$$$
