AV-unprocessed.smi:81|AV-procd|sdf|786|dock6
  -GOLD-   2262017153D 1   1.00000     0.00000
 Structure written by MMmdl.
 64 67  0  0  0  0  0  0  0  0  2 V2000
  151.9848  130.6471  156.0927 C   0  0  0  0  0  0  0  0  0  0  0  0
  151.7847  132.1705  156.1511 C   0  0  0  0  0  0  0  0  0  0  0  0
  152.8281  132.8148  157.0744 C   0  0  0  0  0  0  0  0  0  0  0  0
  150.3566  132.5469  156.6082 C   0  0  0  0  0  0  0  0  0  0  0  0
  149.8886  133.8421  156.1053 N   0  0  0  0  0  0  0  0  0  0  0  0
  149.8639  134.8331  157.0309 C   0  0  0  0  0  0  0  0  0  0  0  0
  148.9995  134.7647  158.0778 N   0  0  0  0  0  0  0  0  0  0  0  0
  148.9892  135.7313  159.0004 C   0  0  0  0  0  0  0  0  0  0  0  0
  149.7480  136.8271  159.0693 N   0  0  0  0  0  0  0  0  0  0  0  0
  150.6244  136.8908  158.0259 C   0  0  0  0  0  0  0  0  0  0  0  0
  150.7430  135.9468  156.9689 C   0  0  0  0  0  0  0  0  0  0  0  0
  151.7378  136.3424  156.0843 N   0  0  0  0  0  0  0  0  0  0  0  0
  152.1880  137.4564  156.5938 C   0  0  0  0  0  0  0  0  0  0  0  0
  151.5846  137.8529  157.7665 N   0  0  0  0  0  0  0  0  0  0  0  0
  151.9011  139.0347  158.5540 C   0  0  0  0  0  0  0  0  0  0  0  0
  151.3134  140.3420  157.9596 C   0  0  1  0  0  0  0  0  0  0  0  0
  151.7301  140.4340  156.6073 O   0  0  0  0  0  0  0  0  0  0  0  0
  149.7884  140.3910  157.9792 C   0  0  0  0  0  0  0  0  0  0  0  0
  149.4970  141.8825  158.0373 C   0  0  0  0  0  0  0  0  0  0  0  0
  150.4947  142.3556  158.9249 O   0  0  0  0  0  0  0  0  0  0  0  0
  151.7163  141.6670  158.6662 C   0  0  1  0  0  0  0  0  0  0  0  0
  152.4626  141.5377  160.0031 C   0  0  0  0  0  0  0  0  0  0  0  0
  148.7637  133.8089  155.1594 C   0  0  2  0  0  0  0  0  0  0  0  0
  149.1129  133.1735  153.7970 C   0  0  0  0  0  0  0  0  0  0  0  0
  147.8710  133.0939  152.8944 C   0  0  0  0  0  0  0  0  0  0  0  0
  147.2645  134.4349  152.7038 N   0  3  1  0  0  0  0  0  0  0  0  0
  146.1406  134.4118  151.7431 C   0  0  0  0  0  0  0  0  0  0  0  0
  146.8910  135.0659  153.9942 C   0  0  0  0  0  0  0  0  0  0  0  0
  148.1087  135.1875  154.9249 C   0  0  0  0  0  0  0  0  0  0  0  0
  151.8249  130.1888  157.0690 H   0  0  0  0  0  0  0  0  0  0  0  0
  152.9955  130.3965  155.7693 H   0  0  0  0  0  0  0  0  0  0  0  0
  151.2951  130.1801  155.3899 H   0  0  0  0  0  0  0  0  0  0  0  0
  151.9596  132.5712  155.1520 H   0  0  0  0  0  0  0  0  0  0  0  0
  152.7225  132.4613  158.1006 H   0  0  0  0  0  0  0  0  0  0  0  0
  152.7264  133.9003  157.0840 H   0  0  0  0  0  0  0  0  0  0  0  0
  153.8415  132.5839  156.7450 H   0  0  0  0  0  0  0  0  0  0  0  0
  149.6630  131.7709  156.2826 H   0  0  0  0  0  0  0  0  0  0  0  0
  150.3116  132.5501  157.6982 H   0  0  0  0  0  0  0  0  0  0  0  0
  148.2743  135.6073  159.8005 H   0  0  0  0  0  0  0  0  0  0  0  0
  152.9855  138.0185  156.1301 H   0  0  0  0  0  0  0  0  0  0  0  0
  151.5207  138.8675  159.5619 H   0  0  0  0  0  0  0  0  0  0  0  0
  152.9860  139.1086  158.6400 H   0  0  0  0  0  0  0  0  0  0  0  0
  152.6728  140.4951  156.5868 H   0  0  0  0  0  0  0  0  0  0  0  0
  149.3187  139.8933  157.1294 H   0  0  0  0  0  0  0  0  0  0  0  0
  149.4096  139.9236  158.8889 H   0  0  0  0  0  0  0  0  0  0  0  0
  149.6213  142.3473  157.0580 H   0  0  0  0  0  0  0  0  0  0  0  0
  148.4942  142.1041  158.4026 H   0  0  0  0  0  0  0  0  0  0  0  0
  152.3149  142.2889  157.9978 H   0  0  0  0  0  0  0  0  0  0  0  0
  153.4175  141.0269  159.8790 H   0  0  0  0  0  0  0  0  0  0  0  0
  151.8741  140.9897  160.7391 H   0  0  0  0  0  0  0  0  0  0  0  0
  152.6725  142.5223  160.4214 H   0  0  0  0  0  0  0  0  0  0  0  0
  148.0121  133.1665  155.6203 H   0  0  0  0  0  0  0  0  0  0  0  0
  149.8826  133.7533  153.2860 H   0  0  0  0  0  0  0  0  0  0  0  0
  149.5196  132.1725  153.9447 H   0  0  0  0  0  0  0  0  0  0  0  0
  148.1518  132.6785  151.9259 H   0  0  0  0  0  0  0  0  0  0  0  0
  147.1336  132.4168  153.3285 H   0  0  0  0  0  0  0  0  0  0  0  0
  145.3204  133.7962  152.1147 H   0  0  0  0  0  0  0  0  0  0  0  0
  146.4627  134.0089  150.7824 H   0  0  0  0  0  0  0  0  0  0  0  0
  145.7611  135.4193  151.5698 H   0  0  0  0  0  0  0  0  0  0  0  0
  146.4759  136.0574  153.8088 H   0  0  0  0  0  0  0  0  0  0  0  0
  146.1072  134.4791  154.4761 H   0  0  0  0  0  0  0  0  0  0  0  0
  147.7951  135.6292  155.8710 H   0  0  0  0  0  0  0  0  0  0  0  0
  148.8247  135.8795  154.4809 H   0  0  0  0  0  0  0  0  0  0  0  0
  147.9798  135.0188  152.2939 H   0  0  0  0  0  0  0  0  0  0  0  0
  1  2  1  0  0  0  0
  1 30  1  0  0  0  0
  1 31  1  0  0  0  0
  1 32  1  0  0  0  0
  2  3  1  0  0  0  0
  2  4  1  0  0  0  0
  2 33  1  0  0  0  0
  3 34  1  0  0  0  0
  3 35  1  0  0  0  0
  3 36  1  0  0  0  0
  4  5  1  0  0  0  0
  4 37  1  0  0  0  0
  4 38  1  0  0  0  0
  5  6  1  0  0  0  0
  5 23  1  0  0  0  0
  6 11  1  0  0  0  0
  6  7  2  0  0  0  0
  7  8  1  0  0  0  0
  8  9  2  0  0  0  0
  8 39  1  0  0  0  0
  9 10  1  0  0  0  0
 10 14  1  0  0  0  0
 10 11  2  0  0  0  0
 11 12  1  0  0  0  0
 12 13  2  0  0  0  0
 13 14  1  0  0  0  0
 13 40  1  0  0  0  0
 14 15  1  0  0  0  0
 15 16  1  0  0  0  0
 15 41  1  0  0  0  0
 15 42  1  0  0  0  0
 16 21  1  0  0  0  0
 16 17  1  0  0  0  0
 16 18  1  0  0  0  0
 17 43  1  0  0  0  0
 18 19  1  0  0  0  0
 18 44  1  0  0  0  0
 18 45  1  0  0  0  0
 19 20  1  0  0  0  0
 19 46  1  0  0  0  0
 19 47  1  0  0  0  0
 20 21  1  0  0  0  0
 21 22  1  0  0  0  0
 21 48  1  0  0  0  0
 22 49  1  0  0  0  0
 22 50  1  0  0  0  0
 22 51  1  0  0  0  0
 23 29  1  0  0  0  0
 23 24  1  0  0  0  0
 23 52  1  0  0  0  0
 24 25  1  0  0  0  0
 24 53  1  0  0  0  0
 24 54  1  0  0  0  0
 25 26  1  0  0  0  0
 25 55  1  0  0  0  0
 25 56  1  0  0  0  0
 26 27  1  0  0  0  0
 26 28  1  0  0  0  0
 26 64  1  0  0  0  0
 27 57  1  0  0  0  0
 27 58  1  0  0  0  0
 27 59  1  0  0  0  0
 28 29  1  0  0  0  0
 28 60  1  0  0  0  0
 28 61  1  0  0  0  0
 29 62  1  0  0  0  0
 29 63  1  0  0  0  0
M  CHG  1  26   1
M  END
> <s_m_source_file>
AV-unprocessed.smi

> <i_m_source_file_index>
81

> <i_lp_mmshare_version>
43012

> <i_f3d_flags>
0

> <s_epik_input>
W0NIMl0xW0NIMl1OKFtDSDNdKVtDSDJdW0NIMl1bQ0hdMU4oW0NIMl1bQ0hdKFtDSDNdKVtDSDNdKWMobltjSF1uMiljKGMyMyluW2NIXW4zW0NIMl1bQ0BAXTQoW09IXSlbQ0gyXVtDSDJdT1tDQEhdNFtDSDNd

> <s_epik_cmdline>
J2VwaWtfcHl0aG9uJywgJy1waCcsICc3LjAnLCAnLXRuJywgJzgnLCAnLW1hJywgJzIwMCcsICctbWV0YWxfYmluZGluZycsICctaW1hZScsICc8aW5maWxlLm1hZT4nLCAnLW9tYWUnLCAnPG91dGZpbGUubWFlPic=

> <r_lp_tautomer_probability>
1

> <r_epik_Ionization_Penalty>
0.00272708

> <r_epik_Ionization_Penalty_Charging>
0.00158983

> <r_epik_Ionization_Penalty_Neutral>
0.00113725

> <r_epik_State_Penalty>
-0

> <r_epik_Charging_Adjusted_Penalty>
0.00158983

> <i_epik_Tot_Q>
1

> <i_epik_Tot_abs_Q>
1

> <r_epik_Metal_State_Penalty>
-0

> <b_epik_Metal_Only>
0

> <s_lp_Force_Field>
OPLS_2005

> <r_lp_Energy>
44.8479

> <b_lp_Chiralities_Consistent>
1

> <s_lp_Variant>
AV-unprocessed.smi:81-1

> <Gold.Version>
5.8.1

> <Gold.Id.Protein>
6NUR|6NUR_protein|mol2

> <Gold.PLP.Fitness>
40.3271

> <Gold.PLP.PLP>
-34.1016

> <Gold.PLP.part.hbond>
-2.6870

> <Gold.PLP.part.metal>
0.0000

> <Gold.PLP.part.buried>
-4.0962

> <Gold.PLP.part.nonpolar>
-26.5469

> <Gold.PLP.part.repulsive>
0.0665

> <Gold.PLP.ligand.clash>
0.0000

> <Gold.PLP.ligand.torsion>
1.9016

> <Gold.PLP.Chemscore.Hbond>
3.0295

> <Gold.PLP.Chemscore.CHOScore>
0.0000

> <Gold.PLP.Chemscore.Metal>
0.0000

> <Gold.Chemscore.Hbonds>
donor molecule, donor type, donor heavy atom, donor atom, acceptor molecule, acceptor atom, score
      L1  H    26    64       P1  7948  2.00
      P1  H  6896  6909       L1     7  0.03
      P1  H 10752 10764       L1    12  1.00

> <Gold.PLP.Chemscore.Internal.Correction>
0.9401

> <Gold.Rescore>
     Score         DG    S(hbond)    S(metal)    S(lipo)     H(rot)  DE(clash)    DE(int)     intcor
     12.56     -14.56       1.84        0.00      81.39       2.58       0.03       1.97       ----

> <Gold.Chemscore.Fitness>
12.5608

> <Gold.Chemscore.DG>
-14.5593

> <Gold.Chemscore.ZeroCoef>
-5.4800

> <Gold.Chemscore.Hbond>
1.8429

> <Gold.Chemscore.Metal>
0.0000

> <Gold.Chemscore.Lipo>
81.3876

> <Gold.Chemscore.Internal_Hbond>
0.0000

> <Gold.Chemscore.DEClash>
0.0329

> <Gold.Chemscore.DEInternal>
1.9656

> <Gold.Chemscore.Rot>
2.5774

> <Gold.Chemscore.Internal.Correction>
   9.000000E+99

> <Gold.Chemscore.Hbonds>
donor molecule, donor type, donor heavy atom, donor atom, acceptor molecule, acceptor atom, score
      L1  H    26    64       P1  7948  0.76
      P1  H 10752 10764       L1    12  0.78

> <Gold.Chemscore.Hbond.Weighted>
-6.1552

> <Gold.Chemscore.Metal.Weighted>
-0.0000

> <Gold.Chemscore.Lipo.Weighted>
-9.5224

> <Gold.Chemscore.Internal_Hbond.Weighted>
0.0000

> <Gold.Chemscore.DEClash.Weighted>
0.0329

> <Gold.Chemscore.DEInternal.Weighted>
1.9656

> <Gold.Chemscore.Rot.Weighted>
6.5982

> <Gold.Chemscore.Internal.Correction.Weighted>
   9.000000E+99

> <Gold.Protein.RotatedTorsions>
[ 6907 6896 6895 6894 ] final    7.69 input  -60.11 | X-H torsion
[ 7974 7965 7964 7962 ] final    6.74 input  175.53 | X-H torsion
[ 8008 7997 7996 7995 ] final  157.10 input   59.86 | X-H torsion
[ 10167 10162 10161 10158 ] final  132.88 input  -65.29 | X-H torsion
[ 10718 10713 10712 10709 ] final  -34.66 input   66.30 | X-H torsion
[ 10763 10752 10751 10750 ] final  -35.89 input  -60.55 | X-H torsion
[ 11005 11000 10999 10996 ] final  -54.73 input  -57.11 | X-H torsion

> <Gold.Protein.ActiveResidues>
 VAL166  LYS551  ARG553  GLY616  TRP617  ASP618  TYR619  PRO620  LYS621  CYS622 
 ASP623  PHE694  ASN695  SER759  ASP760  ASP761  ALA762  ILE779  LEU786  VAL792 
 PHE793  MET794  SER795  GLU796  ALA797  LYS798  CYS799  TRP800  GLU811  SER814 

> <Gold.Protein.RotatedAtoms>
  151.6940  135.0941  160.0238 H   0  0  0  0  0  0  0  0  0  0  0  0  # atno 6907 bound_to 6896
  152.3761  133.6479  159.6133 H   0  0  0  0  0  0  0  0  0  0  0  0  # atno 6908 bound_to 6896
  150.7710  133.9107  159.3410 H   0  0  0  0  0  0  0  0  0  0  0  0  # atno 6909 bound_to 6896
  146.2432  140.0188  142.8400 H   0  0  0  0  0  0  0  0  0  0  0  0  # atno 7974 bound_to 7965
  156.2384  140.1894  156.7057 H   0  0  0  0  0  0  0  0  0  0  0  0  # atno 8008 bound_to 7997
  154.6149  140.0616  156.9569 H   0  0  0  0  0  0  0  0  0  0  0  0  # atno 8009 bound_to 7997
  155.1955  140.3288  155.4354 H   0  0  0  0  0  0  0  0  0  0  0  0  # atno 8010 bound_to 7997
  139.5320  144.6641  151.4916 H   0  0  0  0  0  0  0  0  0  0  0  0  # atno 10167 bound_to 10162
  156.3479  130.4303  149.7730 H   0  0  0  0  0  0  0  0  0  0  0  0  # atno 10718 bound_to 10713
  153.8707  135.6831  153.4774 H   0  0  0  0  0  0  0  0  0  0  0  0  # atno 10763 bound_to 10752
  153.1289  135.4706  154.9315 H   0  0  0  0  0  0  0  0  0  0  0  0  # atno 10764 bound_to 10752
  154.7716  135.3240  154.8129 H   0  0  0  0  0  0  0  0  0  0  0  0  # atno 10765 bound_to 10752
  141.1040  133.6615  156.4365 H   0  0  0  0  0  0  0  0  0  0  0  0  # atno 11005 bound_to 11000
  145.1260  140.9490  143.4572 LP  0  0  0  0  0  0  0  0  0  0  0  0  # atno 17320 bound_to 7965
  145.0434  139.3241  143.5965 LP  0  0  0  0  0  0  0  0  0  0  0  0  # atno 17321 bound_to 7965
  140.6505  143.8707  150.6780 LP  0  0  0  0  0  0  0  0  0  0  0  0  # atno 17342 bound_to 10162
  140.2070  143.3913  152.1748 LP  0  0  0  0  0  0  0  0  0  0  0  0  # atno 17343 bound_to 10162
  156.4942  130.8099  151.3107 LP  0  0  0  0  0  0  0  0  0  0  0  0  # atno 17370 bound_to 10713
  157.7457  130.9965  150.2784 LP  0  0  0  0  0  0  0  0  0  0  0  0  # atno 17371 bound_to 10713
  140.4949  134.6540  157.5226 LP  0  0  0  0  0  0  0  0  0  0  0  0  # atno 17394 bound_to 11000
  139.9903  134.6996  155.9702 LP  0  0  0  0  0  0  0  0  0  0  0  0  # atno 17395 bound_to 11000

$$$$
