AV-unprocessed.smi:2063|AV-procd|sdf|8412|dock4
  -GOLD-   2272011103D 1   1.00000     0.00000
 Structure written by MMmdl.
 38 39  0  0  0  0  0  0  0  0  2 V2000
  151.6868  143.8673  160.8387 C   0  0  0  0  0  0  0  0  0  0  0  0
  152.6011  143.2534  159.7684 C   0  0  0  0  0  0  0  0  0  0  0  0
  152.7656  144.1477  158.5312 C   0  0  0  0  0  0  0  0  0  0  0  0
  152.1900  141.8601  159.4072 C   0  0  0  0  0  0  0  0  0  0  0  0
  152.9208  140.7817  159.7067 N   0  0  0  0  0  0  0  0  0  0  0  0
  152.3301  139.6078  159.2631 N   0  0  0  0  0  0  0  0  0  0  0  0
  151.1585  139.8104  158.6441 C   0  0  0  0  0  0  0  0  0  0  0  0
  150.4275  138.8052  158.1347 N   0  5  0  0  0  0  0  0  0  0  0  0
  150.3982  137.6059  158.7593 C   0  0  0  0  0  0  0  0  0  0  0  0
  151.3697  136.8884  159.0074 O   0  0  0  0  0  0  0  0  0  0  0  0
  149.1662  137.2199  159.1213 N   0  0  0  0  0  0  0  0  0  0  0  0
  148.8124  135.9933  159.8341 C   0  0  2  0  0  0  0  0  0  0  0  0
  147.8337  135.1669  158.9855 C   0  0  0  0  0  0  0  0  0  0  0  0
  148.2245  136.3484  161.2129 C   0  0  2  0  0  0  0  0  0  0  0  0
  147.7325  135.1465  162.0248 C   0  0  0  0  0  0  0  0  0  0  0  0
  146.6287  135.7199  162.9013 C   0  0  0  0  0  0  0  0  0  0  0  0
  146.3976  137.1254  162.3421 C   0  0  0  0  0  0  0  0  0  0  0  0
  147.0428  137.1230  161.0776 O   0  0  0  0  0  0  0  0  0  0  0  0
  150.7002  141.5098  158.5457 S   0  0  0  0  0  0  0  0  0  0  0  0
  151.6558  143.2428  161.7323 H   0  0  0  0  0  0  0  0  0  0  0  0
  150.6655  143.9761  160.4725 H   0  0  0  0  0  0  0  0  0  0  0  0
  152.0394  144.8548  161.1374 H   0  0  0  0  0  0  0  0  0  0  0  0
  153.5902  143.1730  160.2214 H   0  0  0  0  0  0  0  0  0  0  0  0
  153.4888  143.7232  157.8342 H   0  0  0  0  0  0  0  0  0  0  0  0
  153.1187  145.1410  158.8089 H   0  0  0  0  0  0  0  0  0  0  0  0
  151.8210  144.2671  157.9997 H   0  0  0  0  0  0  0  0  0  0  0  0
  148.4061  137.8425  158.8901 H   0  0  0  0  0  0  0  0  0  0  0  0
  149.7101  135.3955  160.0007 H   0  0  0  0  0  0  0  0  0  0  0  0
  147.5681  134.2354  159.4862 H   0  0  0  0  0  0  0  0  0  0  0  0
  148.2729  134.9064  158.0220 H   0  0  0  0  0  0  0  0  0  0  0  0
  146.9119  135.7171  158.7941 H   0  0  0  0  0  0  0  0  0  0  0  0
  148.9497  136.9154  161.8004 H   0  0  0  0  0  0  0  0  0  0  0  0
  147.3128  134.3881  161.3622 H   0  0  0  0  0  0  0  0  0  0  0  0
  148.5314  134.6790  162.6013 H   0  0  0  0  0  0  0  0  0  0  0  0
  145.7277  135.1101  162.8267 H   0  0  0  0  0  0  0  0  0  0  0  0
  146.9213  135.7600  163.9511 H   0  0  0  0  0  0  0  0  0  0  0  0
  145.3398  137.3719  162.2475 H   0  0  0  0  0  0  0  0  0  0  0  0
  146.8666  137.8748  162.9816 H   0  0  0  0  0  0  0  0  0  0  0  0
  1  2  1  0  0  0  0
  1 20  1  0  0  0  0
  1 21  1  0  0  0  0
  1 22  1  0  0  0  0
  2  3  1  0  0  0  0
  2  4  1  0  0  0  0
  2 23  1  0  0  0  0
  3 24  1  0  0  0  0
  3 25  1  0  0  0  0
  3 26  1  0  0  0  0
  4 19  1  0  0  0  0
  4  5  2  0  0  0  0
  5  6  1  0  0  0  0
  6  7  2  0  0  0  0
  7  8  1  0  0  0  0
  7 19  1  0  0  0  0
  8  9  1  0  0  0  0
  9 10  2  0  0  0  0
  9 11  1  0  0  0  0
 11 12  1  0  0  0  0
 11 27  1  0  0  0  0
 12 13  1  0  0  0  0
 12 14  1  0  0  0  0
 12 28  1  0  0  0  0
 13 29  1  0  0  0  0
 13 30  1  0  0  0  0
 13 31  1  0  0  0  0
 14 18  1  0  0  0  0
 14 15  1  0  0  0  0
 14 32  1  0  0  0  0
 15 16  1  0  0  0  0
 15 33  1  0  0  0  0
 15 34  1  0  0  0  0
 16 17  1  0  0  0  0
 16 35  1  0  0  0  0
 16 36  1  0  0  0  0
 17 18  1  0  0  0  0
 17 37  1  0  0  0  0
 17 38  1  0  0  0  0
M  CHG  1   8  -1
M  END
> <s_m_source_file>
AV-unprocessed.smi

> <i_m_source_file_index>
2063

> <i_lp_mmshare_version>
43012

> <i_f3d_flags>
0

> <s_epik_input>
W0NIM11bQ0hdKFtDSDNdKWMxbm5jKHMxKVtOSF1DKD1PKVtOSF1bQ0BIXShbQ0gzXSlbQ0BASF0yW0NIMl1bQ0gyXVtDSDJdTzI=

> <s_epik_cmdline>
J2VwaWtfcHl0aG9uJywgJy1waCcsICc3LjAnLCAnLXRuJywgJzgnLCAnLW1hJywgJzIwMCcsICctbWV0YWxfYmluZGluZycsICctaW1hZScsICc8aW5maWxlLm1hZT4nLCAnLW9tYWUnLCAnPG91dGZpbGUubWFlPic=

> <r_lp_tautomer_probability>
1

> <r_epik_Ionization_Penalty>
4.37022

> <r_epik_Ionization_Penalty_Charging>
4.21437

> <r_epik_Ionization_Penalty_Neutral>
0.15585

> <r_epik_State_Penalty>
4.21389

> <r_epik_Charging_Adjusted_Penalty>
8.42826

> <i_epik_Tot_Q>
-1

> <i_epik_Tot_abs_Q>
1

> <r_epik_Metal_State_Penalty>
0.693772

> <b_epik_Metal_Only>
1

> <s_lp_Force_Field>
OPLS_2005

> <r_lp_Energy>
9.58619

> <b_lp_Chiralities_Consistent>
1

> <s_lp_Variant>
AV-unprocessed.smi:2063-5

> <Gold.Version>
5.8.1

> <Gold.Id.Protein>
6NUR|6NUR_protein|mol2

> <Gold.PLP.Fitness>
40.5127

> <Gold.PLP.PLP>
-36.1701

> <Gold.PLP.part.hbond>
-2.4323

> <Gold.PLP.part.metal>
0.0000

> <Gold.PLP.part.buried>
-5.1398

> <Gold.PLP.part.nonpolar>
-29.4280

> <Gold.PLP.part.repulsive>
0.2020

> <Gold.PLP.ligand.clash>
0.0000

> <Gold.PLP.ligand.torsion>
0.8795

> <Gold.PLP.Chemscore.Hbond>
1.9920

> <Gold.PLP.Chemscore.CHOScore>
0.0000

> <Gold.PLP.Chemscore.Metal>
0.0000

> <Gold.Chemscore.Hbonds>
donor molecule, donor type, donor heavy atom, donor atom, acceptor molecule, acceptor atom, score
      P1  H  6896  6909       L1    10  0.99
      P1  H  6934  6947       L1    18  0.75

> <Gold.PLP.Chemscore.Internal.Correction>
0.1257

> <Gold.Rescore>
     Score         DG    S(hbond)    S(metal)    S(lipo)     H(rot)  DE(clash)    DE(int)     intcor
     15.11     -17.38       1.25        0.00      96.42       1.39       0.21       2.07       ----

> <Gold.Chemscore.Fitness>
15.1064

> <Gold.Chemscore.DG>
-17.3829

> <Gold.Chemscore.ZeroCoef>
-5.4800

> <Gold.Chemscore.Hbond>
1.2510

> <Gold.Chemscore.Metal>
0.0000

> <Gold.Chemscore.Lipo>
96.4214

> <Gold.Chemscore.Internal_Hbond>
0.0000

> <Gold.Chemscore.DEClash>
0.2063

> <Gold.Chemscore.DEInternal>
2.0701

> <Gold.Chemscore.Rot>
1.3893

> <Gold.Chemscore.Internal.Correction>
   9.000000E+99

> <Gold.Chemscore.Hbonds>
donor molecule, donor type, donor heavy atom, donor atom, acceptor molecule, acceptor atom, score
      P1  H  6896  6909       L1    10  0.91
      P1  H  6934  6947       L1    18  0.09

> <Gold.Chemscore.Hbond.Weighted>
-4.1782

> <Gold.Chemscore.Metal.Weighted>
-0.0000

> <Gold.Chemscore.Lipo.Weighted>
-11.2813

> <Gold.Chemscore.Internal_Hbond.Weighted>
0.0000

> <Gold.Chemscore.DEClash.Weighted>
0.2063

> <Gold.Chemscore.DEInternal.Weighted>
2.0701

> <Gold.Chemscore.Rot.Weighted>
3.5567

> <Gold.Chemscore.Internal.Correction.Weighted>
   9.000000E+99

> <Gold.Protein.RotatedTorsions>
[ 6907 6896 6895 6894 ] final   99.57 input  -60.11 | X-H torsion
[ 7974 7965 7964 7962 ] final   52.54 input  175.53 | X-H torsion
[ 8008 7997 7996 7995 ] final  158.16 input   59.86 | X-H torsion
[ 10167 10162 10161 10158 ] final -129.19 input  -65.29 | X-H torsion
[ 10718 10713 10712 10709 ] final  -56.89 input   66.30 | X-H torsion
[ 10763 10752 10751 10750 ] final  -45.02 input  -60.55 | X-H torsion
[ 11005 11000 10999 10996 ] final  100.88 input  -57.11 | X-H torsion

> <Gold.Protein.ActiveResidues>
 VAL166  LYS551  ARG553  GLY616  TRP617  ASP618  TYR619  PRO620  LYS621  CYS622 
 ASP623  PHE694  ASN695  SER759  ASP760  ASP761  ALA762  ILE779  LEU786  VAL792 
 PHE793  MET794  SER795  GLU796  ALA797  LYS798  CYS799  TRP800  GLU811  SER814 

> <Gold.Protein.RotatedAtoms>
  152.5389  134.0408  159.8066 H   0  0  0  0  0  0  0  0  0  0  0  0  # atno 6907 bound_to 6896
  151.0564  133.5573  159.2645 H   0  0  0  0  0  0  0  0  0  0  0  0  # atno 6908 bound_to 6896
  151.2488  135.0622  159.9107 H   0  0  0  0  0  0  0  0  0  0  0  0  # atno 6909 bound_to 6896
  145.9803  139.4235  143.0136 H   0  0  0  0  0  0  0  0  0  0  0  0  # atno 7974 bound_to 7965
  156.2320  140.1866  156.7218 H   0  0  0  0  0  0  0  0  0  0  0  0  # atno 8008 bound_to 7997
  154.6039  140.0632  156.9432 H   0  0  0  0  0  0  0  0  0  0  0  0  # atno 8009 bound_to 7997
  155.2128  140.3301  155.4329 H   0  0  0  0  0  0  0  0  0  0  0  0  # atno 8010 bound_to 7997
  139.9424  143.6148  152.2499 H   0  0  0  0  0  0  0  0  0  0  0  0  # atno 10167 bound_to 10162
  156.1253  130.4163  150.0367 H   0  0  0  0  0  0  0  0  0  0  0  0  # atno 10718 bound_to 10713
  154.0217  135.6668  153.4773 H   0  0  0  0  0  0  0  0  0  0  0  0  # atno 10763 bound_to 10752
  153.0577  135.5046  154.8017 H   0  0  0  0  0  0  0  0  0  0  0  0  # atno 10764 bound_to 10752
  154.6933  135.3065  154.9412 H   0  0  0  0  0  0  0  0  0  0  0  0  # atno 10765 bound_to 10752
  139.8772  134.9159  156.4822 H   0  0  0  0  0  0  0  0  0  0  0  0  # atno 11005 bound_to 11000
  145.7779  140.9869  143.1115 LP  0  0  0  0  0  0  0  0  0  0  0  0  # atno 17320 bound_to 7965
  144.6859  139.9528  143.7478 LP  0  0  0  0  0  0  0  0  0  0  0  0  # atno 17321 bound_to 7965
  139.6694  144.7661  151.1812 LP  0  0  0  0  0  0  0  0  0  0  0  0  # atno 17342 bound_to 10162
  140.7607  143.5889  150.8817 LP  0  0  0  0  0  0  0  0  0  0  0  0  # atno 17343 bound_to 10162
  156.8294  130.9387  151.3638 LP  0  0  0  0  0  0  0  0  0  0  0  0  # atno 17370 bound_to 10713
  157.6435  130.8825  149.9493 LP  0  0  0  0  0  0  0  0  0  0  0  0  # atno 17371 bound_to 10713
  140.8719  133.7982  155.9373 LP  0  0  0  0  0  0  0  0  0  0  0  0  # atno 17394 bound_to 11000
  140.8944  134.2455  157.5077 LP  0  0  0  0  0  0  0  0  0  0  0  0  # atno 17395 bound_to 11000

$$$$
