AV-unprocessed.smi:2691|AV-procd|sdf|10392|dock1
  -GOLD-   2272014423D 1   1.00000     0.00000
 Structure written by MMmdl.
 50 52  0  0  0  0  0  0  0  0  2 V2000
  152.2216  144.3010  160.2930 C   0  0  0  0  0  0  0  0  0  0  0  0
  152.0217  143.1897  159.2765 C   0  0  0  0  0  0  0  0  0  0  0  0
  151.1611  143.4253  158.1802 C   0  0  0  0  0  0  0  0  0  0  0  0
  150.9999  142.3903  157.2664 C   0  0  0  0  0  0  0  0  0  0  0  0
  150.2370  142.3084  156.0989 N   0  3  0  0  0  0  0  0  0  0  0  0
  150.4035  141.0808  155.5325 C   0  0  0  0  0  0  0  0  0  0  0  0
  151.2601  140.3783  156.3224 N   0  0  0  0  0  0  0  0  0  0  0  0
  151.7821  139.0137  156.1722 C   0  0  0  0  0  0  0  0  0  0  0  0
  151.3193  138.0723  157.3018 C   0  0  2  0  0  0  0  0  0  0  0  0
  152.2955  137.0592  157.4503 O   0  0  0  0  0  0  0  0  0  0  0  0
  149.9576  137.4165  156.9832 C   0  0  0  0  0  0  0  0  0  0  0  0
  149.3143  136.8780  158.1927 N   0  0  0  0  0  0  0  0  0  0  0  0
  149.6581  137.4896  159.4144 C   0  0  0  0  0  0  0  0  0  0  0  0
  149.1662  137.0852  160.5419 N   0  0  0  0  0  0  0  0  0  0  0  0
  148.2680  136.0123  160.5637 C   0  0  0  0  0  0  0  0  0  0  0  0
  147.7306  135.5863  161.9239 C   0  0  0  0  0  0  0  0  0  0  0  0
  146.7827  134.3822  161.8060 C   0  0  0  0  0  0  0  0  0  0  0  0
  147.0670  136.7601  162.6608 C   0  0  0  0  0  0  0  0  0  0  0  0
  147.9105  135.3889  159.4147 C   0  0  0  0  0  0  0  0  0  0  0  0
  148.4545  135.8205  158.1274 C   0  0  0  0  0  0  0  0  0  0  0  0
  148.1644  135.2676  157.0664 O   0  0  0  0  0  0  0  0  0  0  0  0
  151.6585  141.1546  157.4150 C   0  0  0  0  0  0  0  0  0  0  0  0
  152.5091  140.9050  158.4889 C   0  0  0  0  0  0  0  0  0  0  0  0
  152.6865  141.9451  159.4291 C   0  0  0  0  0  0  0  0  0  0  0  0
  153.6080  141.7021  160.6121 C   0  0  0  0  0  0  0  0  0  0  0  0
  151.6579  145.1947  160.0238 H   0  0  0  0  0  0  0  0  0  0  0  0
  153.2742  144.5788  160.3565 H   0  0  0  0  0  0  0  0  0  0  0  0
  151.8869  143.9810  161.2800 H   0  0  0  0  0  0  0  0  0  0  0  0
  150.6511  144.3697  158.0579 H   0  0  0  0  0  0  0  0  0  0  0  0
  149.9441  140.7294  154.6197 H   0  0  0  0  0  0  0  0  0  0  0  0
  151.4738  138.6364  155.1963 H   0  0  0  0  0  0  0  0  0  0  0  0
  152.8710  139.0768  156.1498 H   0  0  0  0  0  0  0  0  0  0  0  0
  151.2577  138.6370  158.2328 H   0  0  0  0  0  0  0  0  0  0  0  0
  152.0783  136.5408  158.2107 H   0  0  0  0  0  0  0  0  0  0  0  0
  149.2947  138.1575  156.5315 H   0  0  0  0  0  0  0  0  0  0  0  0
  150.0633  136.6537  156.2091 H   0  0  0  0  0  0  0  0  0  0  0  0
  150.3673  138.3161  159.3419 H   0  0  0  0  0  0  0  0  0  0  0  0
  148.5814  135.2671  162.5283 H   0  0  0  0  0  0  0  0  0  0  0  0
  147.2707  133.5468  161.3027 H   0  0  0  0  0  0  0  0  0  0  0  0
  145.8825  134.6308  161.2430 H   0  0  0  0  0  0  0  0  0  0  0  0
  146.4692  134.0340  162.7906 H   0  0  0  0  0  0  0  0  0  0  0  0
  147.7579  137.5973  162.7667 H   0  0  0  0  0  0  0  0  0  0  0  0
  146.7532  136.4647  163.6621 H   0  0  0  0  0  0  0  0  0  0  0  0
  146.1848  137.1202  162.1312 H   0  0  0  0  0  0  0  0  0  0  0  0
  147.2175  134.5606  159.4401 H   0  0  0  0  0  0  0  0  0  0  0  0
  153.0154  139.9578  158.6028 H   0  0  0  0  0  0  0  0  0  0  0  0
  154.0161  140.6910  160.5985 H   0  0  0  0  0  0  0  0  0  0  0  0
  153.0698  141.8300  161.5515 H   0  0  0  0  0  0  0  0  0  0  0  0
  154.4455  142.3998  160.5938 H   0  0  0  0  0  0  0  0  0  0  0  0
  149.6481  143.0355  155.7130 H   0  0  0  0  0  0  0  0  0  0  0  0
  1  2  1  0  0  0  0
  1 26  1  0  0  0  0
  1 27  1  0  0  0  0
  1 28  1  0  0  0  0
  2 24  1  0  0  0  0
  2  3  2  0  0  0  0
  3  4  1  0  0  0  0
  3 29  1  0  0  0  0
  4 22  2  0  0  0  0
  4  5  1  0  0  0  0
  5  6  2  0  0  0  0
  5 50  1  0  0  0  0
  6  7  1  0  0  0  0
  6 30  1  0  0  0  0
  7  8  1  0  0  0  0
  7 22  1  0  0  0  0
  8  9  1  0  0  0  0
  8 31  1  0  0  0  0
  8 32  1  0  0  0  0
  9 10  1  0  0  0  0
  9 11  1  0  0  0  0
  9 33  1  0  0  0  0
 10 34  1  0  0  0  0
 11 12  1  0  0  0  0
 11 35  1  0  0  0  0
 11 36  1  0  0  0  0
 12 20  1  0  0  0  0
 12 13  1  0  0  0  0
 13 14  2  0  0  0  0
 13 37  1  0  0  0  0
 14 15  1  0  0  0  0
 15 16  1  0  0  0  0
 15 19  2  0  0  0  0
 16 17  1  0  0  0  0
 16 18  1  0  0  0  0
 16 38  1  0  0  0  0
 17 39  1  0  0  0  0
 17 40  1  0  0  0  0
 17 41  1  0  0  0  0
 18 42  1  0  0  0  0
 18 43  1  0  0  0  0
 18 44  1  0  0  0  0
 19 20  1  0  0  0  0
 19 45  1  0  0  0  0
 20 21  2  0  0  0  0
 22 23  1  0  0  0  0
 23 24  2  0  0  0  0
 23 46  1  0  0  0  0
 24 25  1  0  0  0  0
 25 47  1  0  0  0  0
 25 48  1  0  0  0  0
 25 49  1  0  0  0  0
M  CHG  1   5   1
M  END
> <s_m_source_file>
AV-unprocessed.smi

> <i_m_source_file_index>
2691

> <i_lp_mmshare_version>
43012

> <i_f3d_flags>
0

> <s_epik_input>
W0NIM11jKFtjSF0xKWMoW0NIM10pW2NIXWMoYzEyKW4oW2NIXW4yKVtDSDJdW0NASF0oW09IXSlbQ0gyXW4zW2NIXW5jKFtDSF0oW0NIM10pW0NIM10pW2NIXWMzPU8=

> <s_epik_cmdline>
J2VwaWtfcHl0aG9uJywgJy1waCcsICc3LjAnLCAnLXRuJywgJzgnLCAnLW1hJywgJzIwMCcsICctbWV0YWxfYmluZGluZycsICctaW1hZScsICc8aW5maWxlLm1hZT4nLCAnLW9tYWUnLCAnPG91dGZpbGUubWFlPic=

> <r_lp_tautomer_probability>
1

> <r_epik_Ionization_Penalty>
1.0357

> <r_epik_Ionization_Penalty_Charging>
1.03568

> <r_epik_Ionization_Penalty_Neutral>
1.29543e-05

> <r_epik_State_Penalty>
1.08724

> <r_epik_Charging_Adjusted_Penalty>
2.12292

> <i_epik_Tot_Q>
1

> <i_epik_Tot_abs_Q>
1

> <r_epik_Metal_State_Penalty>
1.18376

> <b_epik_Metal_Only>
0

> <s_lp_Force_Field>
OPLS_2005

> <r_lp_Energy>
24.5824

> <b_lp_Chiralities_Consistent>
1

> <s_lp_Variant>
AV-unprocessed.smi:2691-3

> <Gold.Version>
5.8.1

> <Gold.Id.Protein>
6NUR|6NUR_protein|mol2

> <Gold.PLP.Fitness>
54.4061

> <Gold.PLP.PLP>
-48.1513

> <Gold.PLP.part.hbond>
-2.0000

> <Gold.PLP.part.metal>
0.0000

> <Gold.PLP.part.buried>
-4.6665

> <Gold.PLP.part.nonpolar>
-42.1093

> <Gold.PLP.part.repulsive>
0.1167

> <Gold.PLP.ligand.clash>
0.0000

> <Gold.PLP.ligand.torsion>
0.8961

> <Gold.PLP.Chemscore.Hbond>
2.6240

> <Gold.PLP.Chemscore.CHOScore>
0.0000

> <Gold.PLP.Chemscore.Metal>
0.0000

> <Gold.Chemscore.Hbonds>
donor molecule, donor type, donor heavy atom, donor atom, acceptor molecule, acceptor atom, score
      L1  H     5    50       P1  8028  2.00
      P1  H  6931  6943       L1    14  0.62

> <Gold.PLP.Chemscore.Internal.Correction>
0.1750

> <Gold.Rescore>
     Score         DG    S(hbond)    S(metal)    S(lipo)     H(rot)  DE(clash)    DE(int)     intcor
     18.08     -19.03       1.58        0.00     125.92       2.52       0.04       0.91       ----

> <Gold.Chemscore.Fitness>
18.0804

> <Gold.Chemscore.DG>
-19.0325

> <Gold.Chemscore.ZeroCoef>
-5.4800

> <Gold.Chemscore.Hbond>
1.5782

> <Gold.Chemscore.Metal>
0.0000

> <Gold.Chemscore.Lipo>
125.9245

> <Gold.Chemscore.Internal_Hbond>
0.0000

> <Gold.Chemscore.DEClash>
0.0440

> <Gold.Chemscore.DEInternal>
0.9080

> <Gold.Chemscore.Rot>
2.5202

> <Gold.Chemscore.Internal.Correction>
   9.000000E+99

> <Gold.Chemscore.Hbonds>
donor molecule, donor type, donor heavy atom, donor atom, acceptor molecule, acceptor atom, score
      L1  H     5    50       P1  8028  0.98
      P1  H  6931  6943       L1    14  0.56

> <Gold.Chemscore.Hbond.Weighted>
-5.2710

> <Gold.Chemscore.Metal.Weighted>
-0.0000

> <Gold.Chemscore.Lipo.Weighted>
-14.7332

> <Gold.Chemscore.Internal_Hbond.Weighted>
0.0000

> <Gold.Chemscore.DEClash.Weighted>
0.0440

> <Gold.Chemscore.DEInternal.Weighted>
0.9080

> <Gold.Chemscore.Rot.Weighted>
6.4517

> <Gold.Chemscore.Internal.Correction.Weighted>
   9.000000E+99

> <Gold.Protein.RotatedTorsions>
[ 6907 6896 6895 6894 ] final   88.70 input  -60.11 | X-H torsion
[ 7974 7965 7964 7962 ] final  149.74 input  175.53 | X-H torsion
[ 8008 7997 7996 7995 ] final  158.16 input   59.86 | X-H torsion
[ 10167 10162 10161 10158 ] final  -80.26 input  -65.29 | X-H torsion
[ 10718 10713 10712 10709 ] final  -19.39 input   66.30 | X-H torsion
[ 10763 10752 10751 10750 ] final  130.36 input  -60.55 | X-H torsion
[ 11005 11000 10999 10996 ] final   35.25 input  -57.11 | X-H torsion

> <Gold.Protein.ActiveResidues>
 VAL166  LYS551  ARG553  GLY616  TRP617  ASP618  TYR619  PRO620  LYS621  CYS622 
 ASP623  PHE694  ASN695  SER759  ASP760  ASP761  ALA762  ILE779  LEU786  VAL792 
 PHE793  MET794  SER795  GLU796  ALA797  LYS798  CYS799  TRP800  GLU811  SER814 

> <Gold.Protein.RotatedAtoms>
  152.5428  134.2081  159.8738 H   0  0  0  0  0  0  0  0  0  0  0  0  # atno 6907 bound_to 6896
  151.2066  133.4573  159.2605 H   0  0  0  0  0  0  0  0  0  0  0  0  # atno 6908 bound_to 6896
  151.0938  134.9944  159.8471 H   0  0  0  0  0  0  0  0  0  0  0  0  # atno 6909 bound_to 6896
  144.8415  139.6320  143.6014 H   0  0  0  0  0  0  0  0  0  0  0  0  # atno 7974 bound_to 7965
  156.2320  140.1866  156.7218 H   0  0  0  0  0  0  0  0  0  0  0  0  # atno 8008 bound_to 7997
  154.6039  140.0632  156.9432 H   0  0  0  0  0  0  0  0  0  0  0  0  # atno 8009 bound_to 7997
  155.2129  140.3301  155.4329 H   0  0  0  0  0  0  0  0  0  0  0  0  # atno 8010 bound_to 7997
  140.4519  143.2480  151.8476 H   0  0  0  0  0  0  0  0  0  0  0  0  # atno 10167 bound_to 10162
  156.5463  130.4690  149.6474 H   0  0  0  0  0  0  0  0  0  0  0  0  # atno 10718 bound_to 10713
  153.7567  135.3202  155.3330 H   0  0  0  0  0  0  0  0  0  0  0  0  # atno 10763 bound_to 10752
  154.8244  135.4580  154.0878 H   0  0  0  0  0  0  0  0  0  0  0  0  # atno 10764 bound_to 10752
  153.2097  135.6934  153.8212 H   0  0  0  0  0  0  0  0  0  0  0  0  # atno 10765 bound_to 10752
  140.2446  134.3375  155.7913 H   0  0  0  0  0  0  0  0  0  0  0  0  # atno 11005 bound_to 11000
  146.2707  139.6628  142.9298 LP  0  0  0  0  0  0  0  0  0  0  0  0  # atno 17320 bound_to 7965
  145.4684  141.0435  143.2712 LP  0  0  0  0  0  0  0  0  0  0  0  0  # atno 17321 bound_to 7965
  139.4797  144.5110  151.8933 LP  0  0  0  0  0  0  0  0  0  0  0  0  # atno 17342 bound_to 10162
  140.4197  144.2260  150.5887 LP  0  0  0  0  0  0  0  0  0  0  0  0  # atno 17343 bound_to 10162
  156.2925  130.7132  151.1984 LP  0  0  0  0  0  0  0  0  0  0  0  0  # atno 17370 bound_to 10713
  157.7396  131.0527  150.5221 LP  0  0  0  0  0  0  0  0  0  0  0  0  # atno 17371 bound_to 10713
  141.2207  133.7318  156.8940 LP  0  0  0  0  0  0  0  0  0  0  0  0  # atno 17394 bound_to 11000
  140.1619  134.9160  157.2725 LP  0  0  0  0  0  0  0  0  0  0  0  0  # atno 17395 bound_to 11000

$$$$
