AV-unprocessed.smi:169|AV-procd|sdf|1403|dock5
  -GOLD-   2262019153D 1   1.00000     0.00000
 Structure written by MMmdl.
 56 60  0  0  0  0  0  0  0  0  2 V2000
  154.6983  133.2411  165.5575 C   0  0  0  0  0  0  0  0  0  0  0  0
  155.3777  134.1074  164.4862 C   0  0  0  0  0  0  0  0  0  0  0  0
  154.4114  134.8226  163.6058 N   0  3  1  0  0  0  0  0  0  0  0  0
  153.7362  136.0059  164.2574 C   0  0  0  0  0  0  0  0  0  0  0  0
  154.6406  137.2523  164.6038 C   0  0  0  0  0  0  0  0  0  0  0  0
  155.0886  138.1593  163.3998 C   0  0  1  0  0  0  0  0  0  0  0  0
  156.6371  138.2329  163.1543 C   0  0  0  0  0  0  0  0  0  0  0  0
  156.9483  137.1101  162.1059 C   0  0  0  0  0  0  0  0  0  0  0  0
  155.5645  136.4622  162.0162 C   0  0  3  0  0  0  0  0  0  0  0  0
  154.9595  135.0531  162.2129 C   0  0  0  0  0  0  0  0  0  0  0  0
  154.6103  137.5449  162.1737 N   0  0  0  0  0  0  0  0  0  0  0  0
  154.3347  138.2962  161.0709 C   0  0  0  0  0  0  0  0  0  0  0  0
  154.1990  137.6853  159.8640 N   0  0  0  0  0  0  0  0  0  0  0  0
  153.9229  138.3956  158.7672 C   0  0  0  0  0  0  0  0  0  0  0  0
  153.7486  139.7121  158.6496 N   0  0  0  0  0  0  0  0  0  0  0  0
  153.8950  140.3385  159.8515 C   0  0  0  0  0  0  0  0  0  0  0  0
  154.1906  139.7154  161.0981 C   0  0  0  0  0  0  0  0  0  0  0  0
  154.2800  140.6836  162.0921 N   0  0  0  0  0  0  0  0  0  0  0  0
  154.0448  141.8072  161.4727 C   0  0  0  0  0  0  0  0  0  0  0  0
  153.7866  141.6913  160.1260 N   0  0  0  0  0  0  0  0  0  0  0  0
  153.4925  142.7701  159.1928 C   0  0  0  0  0  0  0  0  0  0  0  0
  152.0667  143.3613  159.3105 C   0  0  0  0  0  0  0  0  0  0  0  0
  151.9419  144.0327  160.6847 C   0  0  0  0  0  0  0  0  0  0  0  0
  150.5935  144.3245  160.9913 O   0  0  0  0  0  0  0  0  0  0  0  0
  151.5538  144.1941  158.1216 C   0  0  0  0  0  0  0  0  0  0  0  0
  150.7712  143.0902  157.6196 O   0  0  0  0  0  0  0  0  0  0  0  0
  150.9036  142.4424  158.9025 C   0  0  0  0  0  0  0  0  0  0  0  0
  155.4354  132.6221  166.0696 H   0  0  0  0  0  0  0  0  0  0  0  0
  153.9577  132.5728  165.1168 H   0  0  0  0  0  0  0  0  0  0  0  0
  154.2049  133.8429  166.3203 H   0  0  0  0  0  0  0  0  0  0  0  0
  156.0729  134.8078  164.9489 H   0  0  0  0  0  0  0  0  0  0  0  0
  155.9838  133.4406  163.8718 H   0  0  0  0  0  0  0  0  0  0  0  0
  152.8955  136.3125  163.6337 H   0  0  0  0  0  0  0  0  0  0  0  0
  153.2605  135.6663  165.1759 H   0  0  0  0  0  0  0  0  0  0  0  0
  154.0689  137.8869  165.2818 H   0  0  0  0  0  0  0  0  0  0  0  0
  155.5031  136.9389  165.1916 H   0  0  0  0  0  0  0  0  0  0  0  0
  154.6856  139.1596  163.5594 H   0  0  0  0  0  0  0  0  0  0  0  0
  156.9099  139.2043  162.7400 H   0  0  0  0  0  0  0  0  0  0  0  0
  157.2027  138.1055  164.0778 H   0  0  0  0  0  0  0  0  0  0  0  0
  157.2187  137.5524  161.1461 H   0  0  0  0  0  0  0  0  0  0  0  0
  157.7636  136.4433  162.4026 H   0  0  0  0  0  0  0  0  0  0  0  0
  155.9511  136.1667  162.9832 H   0  0  0  0  0  0  0  0  0  0  0  0
  155.6750  134.2806  161.9271 H   0  0  0  0  0  0  0  0  0  0  0  0
  154.1215  134.9407  161.5251 H   0  0  0  0  0  0  0  0  0  0  0  0
  153.8262  137.8274  157.8539 H   0  0  0  0  0  0  0  0  0  0  0  0
  154.0534  142.7568  161.9871 H   0  0  0  0  0  0  0  0  0  0  0  0
  154.2410  143.5481  159.3486 H   0  0  0  0  0  0  0  0  0  0  0  0
  153.6668  142.3916  158.1849 H   0  0  0  0  0  0  0  0  0  0  0  0
  152.3555  143.4005  161.4710 H   0  0  0  0  0  0  0  0  0  0  0  0
  152.5018  144.9680  160.7139 H   0  0  0  0  0  0  0  0  0  0  0  0
  150.5613  145.1513  161.4484 H   0  0  0  0  0  0  0  0  0  0  0  0
  150.9191  145.0334  158.4114 H   0  0  0  0  0  0  0  0  0  0  0  0
  152.3195  144.5258  157.4222 H   0  0  0  0  0  0  0  0  0  0  0  0
  151.1654  141.3879  158.8245 H   0  0  0  0  0  0  0  0  0  0  0  0
  150.0069  142.5698  159.5117 H   0  0  0  0  0  0  0  0  0  0  0  0
  153.6728  134.1480  163.4656 H   0  0  0  0  0  0  0  0  0  0  0  0
  1  2  1  0  0  0  0
  1 28  1  0  0  0  0
  1 29  1  0  0  0  0
  1 30  1  0  0  0  0
  2  3  1  0  0  0  0
  2 31  1  0  0  0  0
  2 32  1  0  0  0  0
  3 10  1  0  0  0  0
  3  4  1  0  0  0  0
  3 56  1  0  0  0  0
  4  5  1  0  0  0  0
  4 33  1  0  0  0  0
  4 34  1  0  0  0  0
  5  6  1  0  0  0  0
  5 35  1  0  0  0  0
  5 36  1  0  0  0  0
  6 11  1  0  0  0  0
  6  7  1  0  0  0  0
  6 37  1  0  0  0  0
  7  8  1  0  0  0  0
  7 38  1  0  0  0  0
  7 39  1  0  0  0  0
  8  9  1  0  0  0  0
  8 40  1  0  0  0  0
  8 41  1  0  0  0  0
  9 10  1  0  0  0  0
  9 11  1  0  0  0  0
  9 42  1  0  0  0  0
 10 43  1  0  0  0  0
 10 44  1  0  0  0  0
 11 12  1  0  0  0  0
 12 17  1  0  0  0  0
 12 13  2  0  0  0  0
 13 14  1  0  0  0  0
 14 15  2  0  0  0  0
 14 45  1  0  0  0  0
 15 16  1  0  0  0  0
 16 20  1  0  0  0  0
 16 17  2  0  0  0  0
 17 18  1  0  0  0  0
 18 19  2  0  0  0  0
 19 20  1  0  0  0  0
 19 46  1  0  0  0  0
 20 21  1  0  0  0  0
 21 22  1  0  0  0  0
 21 47  1  0  0  0  0
 21 48  1  0  0  0  0
 22 27  1  0  0  0  0
 22 23  1  0  0  0  0
 22 25  1  0  0  0  0
 23 24  1  0  0  0  0
 23 49  1  0  0  0  0
 23 50  1  0  0  0  0
 24 51  1  0  0  0  0
 25 26  1  0  0  0  0
 25 52  1  0  0  0  0
 25 53  1  0  0  0  0
 26 27  1  0  0  0  0
 27 54  1  0  0  0  0
 27 55  1  0  0  0  0
M  CHG  1   3   1
M  END
> <s_m_source_file>
AV-unprocessed.smi

> <i_m_source_file_index>
169

> <i_lp_mmshare_version>
43012

> <i_f3d_flags>
0

> <s_epik_input>
W0NASF0xMltDSDJdW0NIMl1OKFtDSDJdW0NIM10pW0NIMl1bQ0BIXShbQ0gyXVtDSDJdMSlOMmMobltjSF1uMyljKGMzNCluW2NIXW40W0NIMl1DNShbQ0gyXVtPSF0pW0NIMl1PW0NIMl01

> <s_epik_cmdline>
J2VwaWtfcHl0aG9uJywgJy1waCcsICc3LjAnLCAnLXRuJywgJzgnLCAnLW1hJywgJzIwMCcsICctbWV0YWxfYmluZGluZycsICctaW1hZScsICc8aW5maWxlLm1hZT4nLCAnLW9tYWUnLCAnPG91dGZpbGUubWFlPic=

> <r_lp_tautomer_probability>
1

> <r_epik_Ionization_Penalty>
0.00274162

> <r_epik_Ionization_Penalty_Charging>
0.00243722

> <r_epik_Ionization_Penalty_Neutral>
0.000304399

> <r_epik_State_Penalty>
-0

> <r_epik_Charging_Adjusted_Penalty>
0.00243722

> <i_epik_Tot_Q>
1

> <i_epik_Tot_abs_Q>
1

> <r_epik_Metal_State_Penalty>
-0

> <b_epik_Metal_Only>
0

> <s_lp_Force_Field>
OPLS_2005

> <r_lp_Energy>
131.702

> <b_lp_Chiralities_Consistent>
1

> <s_lp_Variant>
AV-unprocessed.smi:169-6

> <Gold.Version>
5.8.1

> <Gold.Id.Protein>
6NUR|6NUR_protein|mol2

> <Gold.PLP.Fitness>
48.0297

> <Gold.PLP.PLP>
-47.0575

> <Gold.PLP.part.hbond>
-2.0987

> <Gold.PLP.part.metal>
0.0000

> <Gold.PLP.part.buried>
-5.1052

> <Gold.PLP.part.nonpolar>
-40.0437

> <Gold.PLP.part.repulsive>
0.1711

> <Gold.PLP.ligand.clash>
0.0000

> <Gold.PLP.ligand.torsion>
1.1596

> <Gold.PLP.Chemscore.Hbond>
0.9500

> <Gold.PLP.Chemscore.CHOScore>
0.0000

> <Gold.PLP.Chemscore.Metal>
0.0000

> <Gold.Chemscore.Hbonds>
donor molecule, donor type, donor heavy atom, donor atom, acceptor molecule, acceptor atom, score
      P1  H  7997  8008       L1    15  1.00

> <Gold.PLP.Chemscore.Internal.Correction>
0.4415

> <Gold.Rescore>
     Score         DG    S(hbond)    S(metal)    S(lipo)     H(rot)  DE(clash)    DE(int)     intcor
     12.46     -14.84       0.69        0.00     117.53       2.62       0.23       2.14       ----

> <Gold.Chemscore.Fitness>
12.4580

> <Gold.Chemscore.DG>
-14.8363

> <Gold.Chemscore.ZeroCoef>
-5.4800

> <Gold.Chemscore.Hbond>
0.6932

> <Gold.Chemscore.Metal>
0.0000

> <Gold.Chemscore.Lipo>
117.5310

> <Gold.Chemscore.Internal_Hbond>
0.0000

> <Gold.Chemscore.DEClash>
0.2333

> <Gold.Chemscore.DEInternal>
2.1450

> <Gold.Chemscore.Rot>
2.6212

> <Gold.Chemscore.Internal.Correction>
   9.000000E+99

> <Gold.Chemscore.Hbonds>
donor molecule, donor type, donor heavy atom, donor atom, acceptor molecule, acceptor atom, score
      P1  H  7997  8008       L1    15  0.25

> <Gold.Chemscore.Hbond.Weighted>
-2.3154

> <Gold.Chemscore.Metal.Weighted>
-0.0000

> <Gold.Chemscore.Lipo.Weighted>
-13.7511

> <Gold.Chemscore.Internal_Hbond.Weighted>
0.0000

> <Gold.Chemscore.DEClash.Weighted>
0.2333

> <Gold.Chemscore.DEInternal.Weighted>
2.1450

> <Gold.Chemscore.Rot.Weighted>
6.7102

> <Gold.Chemscore.Internal.Correction.Weighted>
   9.000000E+99

> <Gold.Protein.RotatedTorsions>
[ 6907 6896 6895 6894 ] final -158.07 input  -60.11 | X-H torsion
[ 7974 7965 7964 7962 ] final  -67.00 input  175.53 | X-H torsion
[ 8008 7997 7996 7995 ] final -102.68 input   59.86 | X-H torsion
[ 10167 10162 10161 10158 ] final -122.78 input  -65.29 | X-H torsion
[ 10718 10713 10712 10709 ] final  173.14 input   66.30 | X-H torsion
[ 10763 10752 10751 10750 ] final  -99.30 input  -60.55 | X-H torsion
[ 11005 11000 10999 10996 ] final  -41.86 input  -57.11 | X-H torsion

> <Gold.Protein.ActiveResidues>
 VAL166  LYS551  ARG553  GLY616  TRP617  ASP618  TYR619  PRO620  LYS621  CYS622 
 ASP623  PHE694  ASN695  SER759  ASP760  ASP761  ALA762  ILE779  LEU786  VAL792 
 PHE793  MET794  SER795  GLU796  ALA797  LYS798  CYS799  TRP800  GLU811  SER814 

> <Gold.Protein.RotatedAtoms>
  151.3125  133.4074  159.2647 H   0  0  0  0  0  0  0  0  0  0  0  0  # atno 6907 bound_to 6896
  151.0102  134.9391  159.8013 H   0  0  0  0  0  0  0  0  0  0  0  0  # atno 6908 bound_to 6896
  152.5298  134.3090  159.9159 H   0  0  0  0  0  0  0  0  0  0  0  0  # atno 6909 bound_to 6896
  145.7347  140.8981  143.0561 H   0  0  0  0  0  0  0  0  0  0  0  0  # atno 7974 bound_to 7965
  154.8602  140.0427  157.1660 H   0  0  0  0  0  0  0  0  0  0  0  0  # atno 8008 bound_to 7997
  154.8849  140.2978  155.5383 H   0  0  0  0  0  0  0  0  0  0  0  0  # atno 8009 bound_to 7997
  156.2998  140.2404  156.3856 H   0  0  0  0  0  0  0  0  0  0  0  0  # atno 8010 bound_to 7997
  140.0105  143.5446  152.2265 H   0  0  0  0  0  0  0  0  0  0  0  0  # atno 10167 bound_to 10162
  156.9687  131.0083  151.2910 H   0  0  0  0  0  0  0  0  0  0  0  0  # atno 10718 bound_to 10713
  154.7486  135.4977  153.9249 H   0  0  0  0  0  0  0  0  0  0  0  0  # atno 10763 bound_to 10752
  153.1119  135.6711  153.9493 H   0  0  0  0  0  0  0  0  0  0  0  0  # atno 10764 bound_to 10752
  153.9250  135.3084  155.3426 H   0  0  0  0  0  0  0  0  0  0  0  0  # atno 10765 bound_to 10752
  141.0275  133.6834  156.2515 H   0  0  0  0  0  0  0  0  0  0  0  0  # atno 11005 bound_to 11000
  144.6884  139.9379  143.7474 LP  0  0  0  0  0  0  0  0  0  0  0  0  # atno 17320 bound_to 7965
  146.0504  139.3506  143.0643 LP  0  0  0  0  0  0  0  0  0  0  0  0  # atno 17321 bound_to 7965
  139.6208  144.7628  151.2745 LP  0  0  0  0  0  0  0  0  0  0  0  0  # atno 17342 bound_to 10162
  140.7383  143.6652  150.8129 LP  0  0  0  0  0  0  0  0  0  0  0  0  # atno 17343 bound_to 10162
  157.5607  130.8244  149.8263 LP  0  0  0  0  0  0  0  0  0  0  0  0  # atno 17370 bound_to 10713
  156.0292  130.3770  150.1737 LP  0  0  0  0  0  0  0  0  0  0  0  0  # atno 17371 bound_to 10713
  140.6465  134.5112  157.5574 LP  0  0  0  0  0  0  0  0  0  0  0  0  # atno 17394 bound_to 11000
  139.9186  134.8195  156.1285 LP  0  0  0  0  0  0  0  0  0  0  0  0  # atno 17395 bound_to 11000

$$$$
