AV-unprocessed.smi:2378|AV-procd|sdf|9450|dock4
  -GOLD-   2272013 83D 1   1.00000     0.00000
 Structure written by MMmdl.
 40 41  0  0  0  0  0  0  0  0  1 V2000
  144.2711  132.9832  149.1619 C   0  0  0  0  0  0  0  0  0  0  0  0
  145.0387  132.4962  150.3731 C   0  0  0  0  0  0  0  0  0  0  0  0
  144.9467  131.1568  150.7971 C   0  0  0  0  0  0  0  0  0  0  0  0
  145.6837  130.7672  151.9307 C   0  0  0  0  0  0  0  0  0  0  0  0
  146.4705  131.6137  152.6275 N   0  0  0  0  0  0  0  0  0  0  0  0
  146.5671  132.9065  152.2291 C   0  0  0  0  0  0  0  0  0  0  0  0
  147.3669  133.8779  152.8881 N   0  0  0  0  0  0  0  0  0  0  0  0
  147.6537  133.9692  154.1989 C   0  0  0  0  0  0  0  0  0  0  0  0
  147.2480  133.2024  155.0728 O   0  0  0  0  0  0  0  0  0  0  0  0
  148.4471  135.0209  154.4491 N   0  0  0  0  0  0  0  0  0  0  0  0
  148.9297  135.4119  155.7687 C   0  0  0  0  0  0  0  0  0  0  0  0
  150.4407  135.6991  155.7531 C   0  0  0  0  0  0  0  0  0  0  0  0
  150.7819  137.0741  155.1577 C   0  0  1  0  0  0  0  0  0  0  0  0
  149.9761  138.2058  155.8249 C   0  0  0  0  0  0  0  0  0  0  0  0
  150.3941  139.5686  155.2618 C   0  0  0  0  0  0  0  0  0  0  0  0
  151.9132  139.7300  155.3772 C   0  0  0  0  0  0  0  0  0  0  0  0
  152.6278  138.5254  154.7440 C   0  0  0  0  0  0  0  0  0  0  0  0
  152.1742  137.3184  155.3491 O   0  0  0  0  0  0  0  0  0  0  0  0
  145.8604  133.3807  151.1007 C   0  0  0  0  0  0  0  0  0  0  0  0
  143.8155  132.1527  148.6218 H   0  0  0  0  0  0  0  0  0  0  0  0
  144.9368  133.5095  148.4774 H   0  0  0  0  0  0  0  0  0  0  0  0
  143.4795  133.6677  149.4674 H   0  0  0  0  0  0  0  0  0  0  0  0
  144.3291  130.4433  150.2715 H   0  0  0  0  0  0  0  0  0  0  0  0
  145.6402  129.7489  152.2880 H   0  0  0  0  0  0  0  0  0  0  0  0
  147.7662  134.5874  152.2918 H   0  0  0  0  0  0  0  0  0  0  0  0
  148.7330  135.5978  153.6717 H   0  0  0  0  0  0  0  0  0  0  0  0
  148.3750  136.2801  156.1287 H   0  0  0  0  0  0  0  0  0  0  0  0
  148.7132  134.5981  156.4608 H   0  0  0  0  0  0  0  0  0  0  0  0
  150.8205  135.6481  156.7744 H   0  0  0  0  0  0  0  0  0  0  0  0
  150.9619  134.9216  155.1929 H   0  0  0  0  0  0  0  0  0  0  0  0
  150.5634  137.0577  154.0883 H   0  0  0  0  0  0  0  0  0  0  0  0
  148.9076  138.0522  155.6719 H   0  0  0  0  0  0  0  0  0  0  0  0
  150.1427  138.1908  156.9028 H   0  0  0  0  0  0  0  0  0  0  0  0
  150.0944  139.6412  154.2157 H   0  0  0  0  0  0  0  0  0  0  0  0
  149.8837  140.3729  155.7923 H   0  0  0  0  0  0  0  0  0  0  0  0
  152.2327  140.6555  154.8974 H   0  0  0  0  0  0  0  0  0  0  0  0
  152.1942  139.8081  156.4282 H   0  0  0  0  0  0  0  0  0  0  0  0
  152.4556  138.4920  153.6671 H   0  0  0  0  0  0  0  0  0  0  0  0
  153.7048  138.6089  154.8909 H   0  0  0  0  0  0  0  0  0  0  0  0
  145.9458  134.4133  150.7938 H   0  0  0  0  0  0  0  0  0  0  0  0
  1  2  1  0  0  0  0
  1 20  1  0  0  0  0
  1 21  1  0  0  0  0
  1 22  1  0  0  0  0
  2 19  1  0  0  0  0
  2  3  2  0  0  0  0
  3  4  1  0  0  0  0
  3 23  1  0  0  0  0
  4  5  2  0  0  0  0
  4 24  1  0  0  0  0
  5  6  1  0  0  0  0
  6  7  1  0  0  0  0
  6 19  2  0  0  0  0
  7  8  1  0  0  0  0
  7 25  1  0  0  0  0
  8  9  2  0  0  0  0
  8 10  1  0  0  0  0
 10 11  1  0  0  0  0
 10 26  1  0  0  0  0
 11 12  1  0  0  0  0
 11 27  1  0  0  0  0
 11 28  1  0  0  0  0
 12 13  1  0  0  0  0
 12 29  1  0  0  0  0
 12 30  1  0  0  0  0
 13 18  1  0  0  0  0
 13 14  1  0  0  0  0
 13 31  1  0  0  0  0
 14 15  1  0  0  0  0
 14 32  1  0  0  0  0
 14 33  1  0  0  0  0
 15 16  1  0  0  0  0
 15 34  1  0  0  0  0
 15 35  1  0  0  0  0
 16 17  1  0  0  0  0
 16 36  1  0  0  0  0
 16 37  1  0  0  0  0
 17 18  1  0  0  0  0
 17 38  1  0  0  0  0
 17 39  1  0  0  0  0
 19 40  1  0  0  0  0
M  END
> <s_m_source_file>
AV-unprocessed.smi

> <i_m_source_file_index>
2378

> <i_lp_mmshare_version>
43012

> <i_f3d_flags>
0

> <s_epik_input>
W0NIM11jMVtjSF1bY0hdbmMoW2NIXTEpW05IXUMoPU8pW05IXVtDSDJdW0NIMl1bQ0BASF0yW0NIMl1bQ0gyXVtDSDJdW0NIMl1PMg==

> <s_epik_cmdline>
J2VwaWtfcHl0aG9uJywgJy1waCcsICc3LjAnLCAnLXRuJywgJzgnLCAnLW1hJywgJzIwMCcsICctbWV0YWxfYmluZGluZycsICctaW1hZScsICc8aW5maWxlLm1hZT4nLCAnLW9tYWUnLCAnPG91dGZpbGUubWFlPic=

> <r_lp_tautomer_probability>
1

> <r_epik_Ionization_Penalty>
8.60919e-05

> <r_epik_Ionization_Penalty_Charging>
0

> <r_epik_Ionization_Penalty_Neutral>
8.60919e-05

> <r_epik_State_Penalty>
-0

> <r_epik_Charging_Adjusted_Penalty>
0

> <i_epik_Tot_Q>
0

> <i_epik_Tot_abs_Q>
0

> <r_epik_Metal_State_Penalty>
-0

> <b_epik_Metal_Only>
0

> <s_lp_Force_Field>
OPLS_2005

> <r_lp_Energy>
10.7522

> <b_lp_Chiralities_Consistent>
1

> <s_lp_Variant>
AV-unprocessed.smi:2378-2

> <Gold.Version>
5.8.1

> <Gold.Id.Protein>
6NUR|6NUR_protein|mol2

> <Gold.PLP.Fitness>
40.6247

> <Gold.PLP.PLP>
-33.4395

> <Gold.PLP.part.hbond>
-3.0000

> <Gold.PLP.part.metal>
0.0000

> <Gold.PLP.part.buried>
-5.0874

> <Gold.PLP.part.nonpolar>
-26.4706

> <Gold.PLP.part.repulsive>
0.2084

> <Gold.PLP.ligand.clash>
0.0000

> <Gold.PLP.ligand.torsion>
0.3943

> <Gold.PLP.Chemscore.Hbond>
2.6536

> <Gold.PLP.Chemscore.CHOScore>
0.0000

> <Gold.PLP.Chemscore.Metal>
0.0000

> <Gold.Chemscore.Hbonds>
donor molecule, donor type, donor heavy atom, donor atom, acceptor molecule, acceptor atom, score
      L1  H     7    25       P1  7948  1.00
      L1  H    10    26       P1  7948  1.00
      P1  H 10752 10765       L1    18  0.82

> <Gold.PLP.Chemscore.Internal.Correction>
0.0130

> <Gold.Rescore>
     Score         DG    S(hbond)    S(metal)    S(lipo)     H(rot)  DE(clash)    DE(int)     intcor
     17.35     -18.98       2.07        0.00      87.56       1.42       0.26       1.37       ----

> <Gold.Chemscore.Fitness>
17.3471

> <Gold.Chemscore.DG>
-18.9812

> <Gold.Chemscore.ZeroCoef>
-5.4800

> <Gold.Chemscore.Hbond>
2.0672

> <Gold.Chemscore.Metal>
0.0000

> <Gold.Chemscore.Lipo>
87.5577

> <Gold.Chemscore.Internal_Hbond>
0.0000

> <Gold.Chemscore.DEClash>
0.2616

> <Gold.Chemscore.DEInternal>
1.3725

> <Gold.Chemscore.Rot>
1.4248

> <Gold.Chemscore.Internal.Correction>
   9.000000E+99

> <Gold.Chemscore.Hbonds>
donor molecule, donor type, donor heavy atom, donor atom, acceptor molecule, acceptor atom, score
      L1  H     7    25       P1  7948  0.56
      L1  H    10    26       P1  7948  0.95
      P1  H 10752 10765       L1    18  0.30

> <Gold.Chemscore.Hbond.Weighted>
-6.9045

> <Gold.Chemscore.Metal.Weighted>
-0.0000

> <Gold.Chemscore.Lipo.Weighted>
-10.2443

> <Gold.Chemscore.Internal_Hbond.Weighted>
0.0000

> <Gold.Chemscore.DEClash.Weighted>
0.2616

> <Gold.Chemscore.DEInternal.Weighted>
1.3725

> <Gold.Chemscore.Rot.Weighted>
3.6476

> <Gold.Chemscore.Internal.Correction.Weighted>
   9.000000E+99

> <Gold.Protein.RotatedTorsions>
[ 6907 6896 6895 6894 ] final  -10.30 input  -60.11 | X-H torsion
[ 7974 7965 7964 7962 ] final  -70.08 input  175.53 | X-H torsion
[ 8008 7997 7996 7995 ] final -106.44 input   59.86 | X-H torsion
[ 10167 10162 10161 10158 ] final  140.29 input  -65.29 | X-H torsion
[ 10718 10713 10712 10709 ] final   47.60 input   66.30 | X-H torsion
[ 10763 10752 10751 10750 ] final -168.01 input  -60.55 | X-H torsion
[ 11005 11000 10999 10996 ] final  132.60 input  -57.11 | X-H torsion

> <Gold.Protein.ActiveResidues>
 VAL166  LYS551  ARG553  GLY616  TRP617  ASP618  TYR619  PRO620  LYS621  CYS622 
 ASP623  PHE694  ASN695  SER759  ASP760  ASP761  ALA762  ILE779  LEU786  VAL792 
 PHE793  MET794  SER795  GLU796  ALA797  LYS798  CYS799  TRP800  GLU811  SER814 

> <Gold.Protein.RotatedAtoms>
  151.4041  135.0975  159.9564 H   0  0  0  0  0  0  0  0  0  0  0  0  # atno 6907 bound_to 6896
  152.5041  133.8860  159.7380 H   0  0  0  0  0  0  0  0  0  0  0  0  # atno 6908 bound_to 6896
  150.9340  133.6677  159.2833 H   0  0  0  0  0  0  0  0  0  0  0  0  # atno 6909 bound_to 6896
  145.6955  140.9137  143.0759 H   0  0  0  0  0  0  0  0  0  0  0  0  # atno 7974 bound_to 7965
  154.9146  140.0409  157.1965 H   0  0  0  0  0  0  0  0  0  0  0  0  # atno 8008 bound_to 7997
  154.8314  140.2900  155.5698 H   0  0  0  0  0  0  0  0  0  0  0  0  # atno 8009 bound_to 7997
  156.2987  140.2500  156.3240 H   0  0  0  0  0  0  0  0  0  0  0  0  # atno 8010 bound_to 7997
  139.5053  144.6243  151.5976 H   0  0  0  0  0  0  0  0  0  0  0  0  # atno 10167 bound_to 10162
  157.4601  130.8191  149.7877 H   0  0  0  0  0  0  0  0  0  0  0  0  # atno 10718 bound_to 10713
  154.6673  135.2934  154.9789 H   0  0  0  0  0  0  0  0  0  0  0  0  # atno 10763 bound_to 10752
  154.0828  135.6602  153.4844 H   0  0  0  0  0  0  0  0  0  0  0  0  # atno 10764 bound_to 10752
  153.0465  135.5201  154.7652 H   0  0  0  0  0  0  0  0  0  0  0  0  # atno 10765 bound_to 10752
  139.9800  134.9551  156.9605 H   0  0  0  0  0  0  0  0  0  0  0  0  # atno 11005 bound_to 11000
  144.6984  139.8878  143.7451 LP  0  0  0  0  0  0  0  0  0  0  0  0  # atno 17320 bound_to 7965
  146.0844  139.3832  143.0444 LP  0  0  0  0  0  0  0  0  0  0  0  0  # atno 17321 bound_to 7965
  140.5955  143.9704  150.6351 LP  0  0  0  0  0  0  0  0  0  0  0  0  # atno 17342 bound_to 10162
  140.2899  143.3332  152.1073 LP  0  0  0  0  0  0  0  0  0  0  0  0  # atno 17343 bound_to 10162
  156.0025  130.3873  150.2553 LP  0  0  0  0  0  0  0  0  0  0  0  0  # atno 17370 bound_to 10713
  157.0730  131.0122  151.3183 LP  0  0  0  0  0  0  0  0  0  0  0  0  # atno 17371 bound_to 10713
  140.5116  134.0996  155.7271 LP  0  0  0  0  0  0  0  0  0  0  0  0  # atno 17394 bound_to 11000
  141.1473  133.9032  157.2184 LP  0  0  0  0  0  0  0  0  0  0  0  0  # atno 17395 bound_to 11000

$$$$
