AV-unprocessed.smi:2865|AV-procd|sdf|11018|dock1
  -GOLD-   2272015483D 1   1.00000     0.00000
 Structure written by MMmdl.
 38 41  0  0  0  0  0  0  0  0  1 V2000
  145.8580  138.4388  154.1045 O   0  0  0  0  0  0  0  0  0  0  0  0
  146.6437  137.8473  153.3681 C   0  0  0  0  0  0  0  0  0  0  0  0
  147.9720  138.0698  153.3233 N   0  0  0  0  0  0  0  0  0  0  0  0
  148.7369  139.0389  154.0265 C   0  0  0  0  0  0  0  0  0  0  0  0
  148.0635  140.0930  154.6789 C   0  0  0  0  0  0  0  0  0  0  0  0
  148.7229  141.0402  155.3798 N   0  0  0  0  0  0  0  0  0  0  0  0
  150.0539  140.9383  155.4262 C   0  0  0  0  0  0  0  0  0  0  0  0
  150.7796  141.9663  156.2374 C   0  0  0  0  0  0  0  0  0  0  0  0
  151.6204  141.5616  157.4311 C   0  0  0  0  0  0  0  0  0  0  0  0
  150.3305  142.3034  157.6446 C   0  0  0  0  0  0  0  0  0  0  0  0
  150.7978  139.9776  154.8714 N   0  0  0  0  0  0  0  0  0  0  0  0
  150.1468  139.0266  154.1670 C   0  0  0  0  0  0  0  0  0  0  0  0
  146.2220  136.8747  152.5412 N   0  0  0  0  0  0  0  0  0  0  0  0
  144.8556  136.3870  152.3460 C   0  0  1  0  0  0  0  0  0  0  0  0
  144.7465  135.3468  151.2233 C   0  0  0  0  0  0  0  0  0  0  0  0
  144.1712  134.1350  151.9686 C   0  0  2  0  0  0  0  0  0  0  0  0
  142.7142  134.3583  152.4001 C   0  0  0  0  0  0  0  0  0  0  0  0
  142.8741  135.3570  153.5466 C   0  0  0  0  0  0  0  0  0  0  0  0
  144.3937  135.5682  153.5635 C   0  0  1  0  0  0  0  0  0  0  0  0
  144.8346  134.2668  153.2125 O   0  0  0  0  0  0  0  0  0  0  0  0
  148.5016  137.4516  152.7262 H   0  0  0  0  0  0  0  0  0  0  0  0
  146.9873  140.1787  154.6414 H   0  0  0  0  0  0  0  0  0  0  0  0
  151.1427  142.7792  155.6113 H   0  0  0  0  0  0  0  0  0  0  0  0
  151.6428  140.5083  157.7046 H   0  0  0  0  0  0  0  0  0  0  0  0
  152.5471  142.1064  157.5994 H   0  0  0  0  0  0  0  0  0  0  0  0
  150.3942  143.3442  157.9554 H   0  0  0  0  0  0  0  0  0  0  0  0
  149.4945  141.7436  158.0599 H   0  0  0  0  0  0  0  0  0  0  0  0
  150.7726  138.2569  153.7444 H   0  0  0  0  0  0  0  0  0  0  0  0
  146.9344  136.4013  152.0042 H   0  0  0  0  0  0  0  0  0  0  0  0
  144.1812  137.2302  152.1862 H   0  0  0  0  0  0  0  0  0  0  0  0
  144.1030  135.6750  150.4064 H   0  0  0  0  0  0  0  0  0  0  0  0
  145.7242  135.1028  150.8050 H   0  0  0  0  0  0  0  0  0  0  0  0
  144.3438  133.1834  151.4652 H   0  0  0  0  0  0  0  0  0  0  0  0
  142.0955  134.7404  151.5874 H   0  0  0  0  0  0  0  0  0  0  0  0
  142.2693  133.4307  152.7619 H   0  0  0  0  0  0  0  0  0  0  0  0
  142.3236  136.2842  153.3838 H   0  0  0  0  0  0  0  0  0  0  0  0
  142.5344  134.9186  154.4855 H   0  0  0  0  0  0  0  0  0  0  0  0
  144.7723  135.9294  154.5205 H   0  0  0  0  0  0  0  0  0  0  0  0
  1  2  2  0  0  0  0
  2  3  1  0  0  0  0
  2 13  1  0  0  0  0
  3  4  1  0  0  0  0
  3 21  1  0  0  0  0
  4 12  1  0  0  0  0
  4  5  2  0  0  0  0
  5  6  1  0  0  0  0
  5 22  1  0  0  0  0
  6  7  2  0  0  0  0
  7  8  1  0  0  0  0
  7 11  1  0  0  0  0
  8 10  1  0  0  0  0
  8  9  1  0  0  0  0
  8 23  1  0  0  0  0
  9 10  1  0  0  0  0
  9 24  1  0  0  0  0
  9 25  1  0  0  0  0
 10 26  1  0  0  0  0
 10 27  1  0  0  0  0
 11 12  2  0  0  0  0
 12 28  1  0  0  0  0
 13 14  1  0  0  0  0
 13 29  1  0  0  0  0
 14 19  1  0  0  0  0
 14 15  1  0  0  0  0
 14 30  1  0  0  0  0
 15 16  1  0  0  0  0
 15 31  1  0  0  0  0
 15 32  1  0  0  0  0
 16 20  1  0  0  0  0
 16 17  1  0  0  0  0
 16 33  1  0  0  0  0
 17 18  1  0  0  0  0
 17 34  1  0  0  0  0
 17 35  1  0  0  0  0
 18 19  1  0  0  0  0
 18 36  1  0  0  0  0
 18 37  1  0  0  0  0
 19 20  1  0  0  0  0
 19 38  1  0  0  0  0
M  END
> <s_m_source_file>
AV-unprocessed.smi

> <i_m_source_file_index>
2865

> <i_lp_mmshare_version>
43012

> <i_f3d_flags>
0

> <s_epik_input>
W0NIMl0xW0NIMl1bQ0BIXShPMilbQ0BASF0oW0NIMl1bQ0BASF0xMilbTkhdQyg9TylbTkhdYzNbY0hdbmMobltjSF0zKVtDSF00W0NIMl1bQ0gyXTQ=

> <s_epik_cmdline>
J2VwaWtfcHl0aG9uJywgJy1waCcsICc3LjAnLCAnLXRuJywgJzgnLCAnLW1hJywgJzIwMCcsICctbWV0YWxfYmluZGluZycsICctaW1hZScsICc8aW5maWxlLm1hZT4nLCAnLW9tYWUnLCAnPG91dGZpbGUubWFlPic=

> <r_lp_tautomer_probability>
1

> <r_epik_Ionization_Penalty>
2.43104e-05

> <r_epik_Ionization_Penalty_Charging>
0

> <r_epik_Ionization_Penalty_Neutral>
2.43104e-05

> <r_epik_State_Penalty>
-0

> <r_epik_Charging_Adjusted_Penalty>
0

> <i_epik_Tot_Q>
0

> <i_epik_Tot_abs_Q>
0

> <r_epik_Metal_State_Penalty>
-0

> <b_epik_Metal_Only>
0

> <s_lp_Force_Field>
OPLS_2005

> <r_lp_Energy>
45.9934

> <b_lp_Chiralities_Consistent>
1

> <s_lp_Variant>
AV-unprocessed.smi:2865-4

> <Gold.Version>
5.8.1

> <Gold.Id.Protein>
6NUR|6NUR_protein|mol2

> <Gold.PLP.Fitness>
37.8690

> <Gold.PLP.PLP>
-29.6323

> <Gold.PLP.part.hbond>
-3.0427

> <Gold.PLP.part.metal>
0.0000

> <Gold.PLP.part.buried>
-4.1151

> <Gold.PLP.part.nonpolar>
-22.3883

> <Gold.PLP.part.repulsive>
0.4359

> <Gold.PLP.ligand.clash>
0.0000

> <Gold.PLP.ligand.torsion>
0.2286

> <Gold.PLP.Chemscore.Hbond>
2.8480

> <Gold.PLP.Chemscore.CHOScore>
0.0000

> <Gold.PLP.Chemscore.Metal>
0.0000

> <Gold.Chemscore.Hbonds>
donor molecule, donor type, donor heavy atom, donor atom, acceptor molecule, acceptor atom, score
      L1  H     3    21       P1  7948  1.00
      L1  H    13    29       P1  7948  0.85
      P1  H  7989  7998       L1    11  1.00

> <Gold.PLP.Chemscore.Internal.Correction>
0.1500

> <Gold.Rescore>
     Score         DG    S(hbond)    S(metal)    S(lipo)     H(rot)  DE(clash)    DE(int)     intcor
     15.16     -16.70       1.94        0.00      66.69       1.20       0.04       1.51       ----

> <Gold.Chemscore.Fitness>
15.1575

> <Gold.Chemscore.DG>
-16.7040

> <Gold.Chemscore.ZeroCoef>
-5.4800

> <Gold.Chemscore.Hbond>
1.9449

> <Gold.Chemscore.Metal>
0.0000

> <Gold.Chemscore.Lipo>
66.6941

> <Gold.Chemscore.Internal_Hbond>
0.0000

> <Gold.Chemscore.DEClash>
0.0369

> <Gold.Chemscore.DEInternal>
1.5096

> <Gold.Chemscore.Rot>
1.2012

> <Gold.Chemscore.Internal.Correction>
   9.000000E+99

> <Gold.Chemscore.Hbonds>
donor molecule, donor type, donor heavy atom, donor atom, acceptor molecule, acceptor atom, score
      L1  H     3    21       P1  7948  0.95
      L1  H    13    29       P1  7948  0.79
      P1  H  7989  7998       L1    11  0.09

> <Gold.Chemscore.Hbond.Weighted>
-6.4960

> <Gold.Chemscore.Metal.Weighted>
-0.0000

> <Gold.Chemscore.Lipo.Weighted>
-7.8032

> <Gold.Chemscore.Internal_Hbond.Weighted>
0.0000

> <Gold.Chemscore.DEClash.Weighted>
0.0369

> <Gold.Chemscore.DEInternal.Weighted>
1.5096

> <Gold.Chemscore.Rot.Weighted>
3.0752

> <Gold.Chemscore.Internal.Correction.Weighted>
   9.000000E+99

> <Gold.Protein.RotatedTorsions>
[ 6907 6896 6895 6894 ] final -159.84 input  -60.11 | X-H torsion
[ 7974 7965 7964 7962 ] final  -61.56 input  175.53 | X-H torsion
[ 8008 7997 7996 7995 ] final -100.42 input   59.86 | X-H torsion
[ 10167 10162 10161 10158 ] final   57.38 input  -65.29 | X-H torsion
[ 10718 10713 10712 10709 ] final  113.53 input   66.30 | X-H torsion
[ 10763 10752 10751 10750 ] final  125.95 input  -60.55 | X-H torsion
[ 11005 11000 10999 10996 ] final  124.63 input  -57.11 | X-H torsion

> <Gold.Protein.ActiveResidues>
 VAL166  LYS551  ARG553  GLY616  TRP617  ASP618  TYR619  PRO620  LYS621  CYS622 
 ASP623  PHE694  ASN695  SER759  ASP760  ASP761  ALA762  ILE779  LEU786  VAL792 
 PHE793  MET794  SER795  GLU796  ALA797  LYS798  CYS799  TRP800  GLU811  SER814 

> <Gold.Protein.RotatedAtoms>
  151.3397  133.3967  159.2669 H   0  0  0  0  0  0  0  0  0  0  0  0  # atno 6907 bound_to 6896
  150.9888  134.9228  159.7897 H   0  0  0  0  0  0  0  0  0  0  0  0  # atno 6908 bound_to 6896
  152.5240  134.3362  159.9253 H   0  0  0  0  0  0  0  0  0  0  0  0  # atno 6909 bound_to 6896
  145.8020  140.8649  143.0226 H   0  0  0  0  0  0  0  0  0  0  0  0  # atno 7974 bound_to 7965
  154.8283  140.0441  157.1459 H   0  0  0  0  0  0  0  0  0  0  0  0  # atno 8008 bound_to 7997
  154.9181  140.3023  155.5210 H   0  0  0  0  0  0  0  0  0  0  0  0  # atno 8009 bound_to 7997
  156.2985  140.2345  156.4228 H   0  0  0  0  0  0  0  0  0  0  0  0  # atno 8010 bound_to 7997
  140.1986  144.4011  150.6539 H   0  0  0  0  0  0  0  0  0  0  0  0  # atno 10167 bound_to 10162
  157.6333  131.0985  150.7054 H   0  0  0  0  0  0  0  0  0  0  0  0  # atno 10718 bound_to 10713
  153.6855  135.3307  155.3189 H   0  0  0  0  0  0  0  0  0  0  0  0  # atno 10763 bound_to 10752
  154.8454  135.4419  154.1563 H   0  0  0  0  0  0  0  0  0  0  0  0  # atno 10764 bound_to 10752
  153.2590  135.6989  153.7676 H   0  0  0  0  0  0  0  0  0  0  0  0  # atno 10765 bound_to 10752
  139.9368  134.9639  156.8438 H   0  0  0  0  0  0  0  0  0  0  0  0  # atno 11005 bound_to 11000
  144.6767  140.0272  143.7483 LP  0  0  0  0  0  0  0  0  0  0  0  0  # atno 17320 bound_to 7965
  145.9868  139.2983  143.1009 LP  0  0  0  0  0  0  0  0  0  0  0  0  # atno 17321 bound_to 7965
  140.6406  143.2203  151.6299 LP  0  0  0  0  0  0  0  0  0  0  0  0  # atno 17342 bound_to 10162
  139.5226  144.3157  152.0954 LP  0  0  0  0  0  0  0  0  0  0  0  0  # atno 17343 bound_to 10162
  156.7389  130.4733  149.5482 LP  0  0  0  0  0  0  0  0  0  0  0  0  # atno 17370 bound_to 10713
  156.1552  130.6337  151.0648 LP  0  0  0  0  0  0  0  0  0  0  0  0  # atno 17371 bound_to 10713
  140.6056  134.0131  155.7555 LP  0  0  0  0  0  0  0  0  0  0  0  0  # atno 17394 bound_to 11000
  141.0985  133.9806  157.3120 LP  0  0  0  0  0  0  0  0  0  0  0  0  # atno 17395 bound_to 11000

$$$$
