AV-unprocessed.smi:2398|AV-procd|sdf|9497|dock4
  -GOLD-   2272013123D 1   1.00000     0.00000
 Structure written by MMmdl.
 34 35  0  0  0  0  0  0  0  0  1 V2000
  146.8826  132.5887  153.4194 O   0  0  0  0  0  0  0  0  0  0  0  0
  147.4737  133.6224  153.1100 C   0  0  0  0  0  0  0  0  0  0  0  0
  148.4803  134.1879  153.7990 N   0  0  0  0  0  0  0  0  0  0  0  0
  149.1046  133.7678  155.0070 C   0  0  0  0  0  0  0  0  0  0  0  0
  148.7350  132.6209  155.7526 C   0  0  0  0  0  0  0  0  0  0  0  0
  149.4486  132.3218  156.9307 C   0  0  0  0  0  0  0  0  0  0  0  0
  150.4746  133.0685  157.3904 N   0  0  0  0  0  0  0  0  0  0  0  0
  150.8292  134.1562  156.6748 C   0  0  0  0  0  0  0  0  0  0  0  0
  150.1818  134.5446  155.4847 C   0  0  0  0  0  0  0  0  0  0  0  0
  150.5915  135.6489  154.8144 F   0  0  0  0  0  0  0  0  0  0  0  0
  147.1775  134.3402  152.0165 N   0  0  0  0  0  0  0  0  0  0  0  0
  146.1389  134.0088  151.0455 C   0  0  1  0  0  0  0  0  0  0  0  0
  146.2928  132.5414  150.6026 C   0  0  0  0  0  0  0  0  0  0  0  0
  145.1826  132.1314  149.6215 C   0  0  0  0  0  0  0  0  0  0  0  0
  143.7901  132.3788  150.2268 C   0  0  2  0  0  0  0  0  0  0  0  0
  142.7979  132.0585  149.2747 O   0  0  0  0  0  0  0  0  0  0  0  0
  143.6283  133.8445  150.6644 C   0  0  0  0  0  0  0  0  0  0  0  0
  144.7388  134.2567  151.6439 C   0  0  0  0  0  0  0  0  0  0  0  0
  146.2614  134.6403  150.1633 H   0  0  0  0  0  0  0  0  0  0  0  0
  143.6500  131.7261  151.0896 H   0  0  0  0  0  0  0  0  0  0  0  0
  148.8352  135.0541  153.4210 H   0  0  0  0  0  0  0  0  0  0  0  0
  147.9347  131.9632  155.4542 H   0  0  0  0  0  0  0  0  0  0  0  0
  149.1888  131.4544  157.5191 H   0  0  0  0  0  0  0  0  0  0  0  0
  151.6548  134.7350  157.0616 H   0  0  0  0  0  0  0  0  0  0  0  0
  147.7119  135.1783  151.8396 H   0  0  0  0  0  0  0  0  0  0  0  0
  147.2672  132.3917  150.1357 H   0  0  0  0  0  0  0  0  0  0  0  0
  146.2636  131.8855  151.4742 H   0  0  0  0  0  0  0  0  0  0  0  0
  145.2917  132.6987  148.6960 H   0  0  0  0  0  0  0  0  0  0  0  0
  145.2952  131.0797  149.3557 H   0  0  0  0  0  0  0  0  0  0  0  0
  142.1781  132.7708  149.2354 H   0  0  0  0  0  0  0  0  0  0  0  0
  143.6575  134.4984  149.7915 H   0  0  0  0  0  0  0  0  0  0  0  0
  142.6531  133.9920  151.1298 H   0  0  0  0  0  0  0  0  0  0  0  0
  144.6287  133.6939  152.5720 H   0  0  0  0  0  0  0  0  0  0  0  0
  144.6212  135.3090  151.9055 H   0  0  0  0  0  0  0  0  0  0  0  0
  1  2  2  0  0  0  0
  2  3  1  0  0  0  0
  2 11  1  0  0  0  0
  3  4  1  0  0  0  0
  3 21  1  0  0  0  0
  4  9  1  0  0  0  0
  4  5  2  0  0  0  0
  5  6  1  0  0  0  0
  5 22  1  0  0  0  0
  6  7  2  0  0  0  0
  6 23  1  0  0  0  0
  7  8  1  0  0  0  0
  8  9  2  0  0  0  0
  8 24  1  0  0  0  0
  9 10  1  0  0  0  0
 11 12  1  0  0  0  0
 11 25  1  0  0  0  0
 12 19  1  0  0  0  0
 12 18  1  0  0  0  0
 12 13  1  0  0  0  0
 13 14  1  0  0  0  0
 13 26  1  0  0  0  0
 13 27  1  0  0  0  0
 14 15  1  0  0  0  0
 14 28  1  0  0  0  0
 14 29  1  0  0  0  0
 15 20  1  0  0  0  0
 15 16  1  0  0  0  0
 15 17  1  0  0  0  0
 16 30  1  0  0  0  0
 17 18  1  0  0  0  0
 17 31  1  0  0  0  0
 17 32  1  0  0  0  0
 18 33  1  0  0  0  0
 18 34  1  0  0  0  0
M  END
> <s_m_source_file>
AV-unprocessed.smi

> <i_m_source_file_index>
2398

> <i_lp_mmshare_version>
43012

> <i_f3d_flags>
0

> <s_epik_input>
W0NIMl0xW0NIMl1bQ0BASF0oW09IXSlbQ0gyXVtDSDJdW0NAQEhdMVtOSF1DKD1PKVtOSF1jMltjSF1bY0hdbltjSF1jMkY=

> <s_epik_cmdline>
J2VwaWtfcHl0aG9uJywgJy1waCcsICc3LjAnLCAnLXRuJywgJzgnLCAnLW1hJywgJzIwMCcsICctbWV0YWxfYmluZGluZycsICctaW1hZScsICc8aW5maWxlLm1hZT4nLCAnLW9tYWUnLCAnPG91dGZpbGUubWFlPic=

> <r_epik_Ionization_Penalty>
0.00343298

> <r_epik_Ionization_Penalty_Charging>
0

> <r_epik_Ionization_Penalty_Neutral>
0.00343298

> <r_epik_State_Penalty>
0.00240232

> <r_epik_Charging_Adjusted_Penalty>
0.00240232

> <i_epik_Tot_Q>
0

> <i_epik_Tot_abs_Q>
0

> <r_epik_Metal_State_Penalty>
-0

> <b_epik_Metal_Only>
0

> <s_lp_Force_Field>
OPLS_2005

> <r_lp_Energy>
13.0545

> <b_lp_Chiralities_Consistent>
1

> <s_lp_Variant>
AV-unprocessed.smi:2398-1

> <Gold.Version>
5.8.1

> <Gold.Id.Protein>
6NUR|6NUR_protein|mol2

> <Gold.PLP.Fitness>
44.4736

> <Gold.PLP.PLP>
-30.0362

> <Gold.PLP.part.hbond>
-6.0000

> <Gold.PLP.part.metal>
0.0000

> <Gold.PLP.part.buried>
-0.5479

> <Gold.PLP.part.nonpolar>
-24.1527

> <Gold.PLP.part.repulsive>
0.1390

> <Gold.PLP.ligand.clash>
0.0000

> <Gold.PLP.ligand.torsion>
0.1134

> <Gold.PLP.Chemscore.Hbond>
4.8870

> <Gold.PLP.Chemscore.CHOScore>
0.0000

> <Gold.PLP.Chemscore.Metal>
0.0000

> <Gold.Chemscore.Hbonds>
donor molecule, donor type, donor heavy atom, donor atom, acceptor molecule, acceptor atom, score
      L1  H     3    21       P1  7948  0.93
      L1  H    11    25       P1  7948  1.00
      L1  H    16    30       P1 10186  0.99
      P1  H  6896  6908       L1     7  1.00
      P1  H 10785 10796       L1    16  1.00

> <Gold.PLP.Chemscore.Internal.Correction>
0.0033

> <Gold.Rescore>
     Score         DG    S(hbond)    S(metal)    S(lipo)     H(rot)  DE(clash)    DE(int)     intcor
     18.17     -21.02       3.28        0.00      71.27       1.47       0.39       2.46       ----

> <Gold.Chemscore.Fitness>
18.1654

> <Gold.Chemscore.DG>
-21.0164

> <Gold.Chemscore.ZeroCoef>
-5.4800

> <Gold.Chemscore.Hbond>
3.2781

> <Gold.Chemscore.Metal>
0.0000

> <Gold.Chemscore.Lipo>
71.2692

> <Gold.Chemscore.Internal_Hbond>
0.0000

> <Gold.Chemscore.DEClash>
0.3939

> <Gold.Chemscore.DEInternal>
2.4571

> <Gold.Chemscore.Rot>
1.4653

> <Gold.Chemscore.Internal.Correction>
   9.000000E+99

> <Gold.Chemscore.Hbonds>
donor molecule, donor type, donor heavy atom, donor atom, acceptor molecule, acceptor atom, score
      L1  H     3    21       P1  7948  0.49
      L1  H    11    25       P1  7948  0.80
      L1  H    16    30       P1 10186  0.92
      P1  H  6896  6908       L1     7  0.39
      P1  H 10785 10796       L1    16  0.47

> <Gold.Chemscore.Hbond.Weighted>
-10.9490

> <Gold.Chemscore.Metal.Weighted>
-0.0000

> <Gold.Chemscore.Lipo.Weighted>
-8.3385

> <Gold.Chemscore.Internal_Hbond.Weighted>
0.0000

> <Gold.Chemscore.DEClash.Weighted>
0.3939

> <Gold.Chemscore.DEInternal.Weighted>
2.4571

> <Gold.Chemscore.Rot.Weighted>
3.7511

> <Gold.Chemscore.Internal.Correction.Weighted>
   9.000000E+99

> <Gold.Protein.RotatedTorsions>
[ 6907 6896 6895 6894 ] final   97.95 input  -60.11 | X-H torsion
[ 7974 7965 7964 7962 ] final  -62.37 input  175.53 | X-H torsion
[ 8008 7997 7996 7995 ] final  -83.49 input   59.86 | X-H torsion
[ 10167 10162 10161 10158 ] final -155.66 input  -65.29 | X-H torsion
[ 10718 10713 10712 10709 ] final  130.10 input   66.30 | X-H torsion
[ 10763 10752 10751 10750 ] final -129.55 input  -60.55 | X-H torsion
[ 11005 11000 10999 10996 ] final  -76.58 input  -57.11 | X-H torsion

> <Gold.Protein.ActiveResidues>
 VAL166  LYS551  ARG553  GLY616  TRP617  ASP618  TYR619  PRO620  LYS621  CYS622 
 ASP623  PHE694  ASN695  SER759  ASP760  ASP761  ALA762  ILE779  LEU786  VAL792 
 PHE793  MET794  SER795  GLU796  ALA797  LYS798  CYS799  TRP800  GLU811  SER814 

> <Gold.Protein.RotatedAtoms>
  152.5416  134.0655  159.8170 H   0  0  0  0  0  0  0  0  0  0  0  0  # atno 6907 bound_to 6896
  151.0777  133.5408  159.2630 H   0  0  0  0  0  0  0  0  0  0  0  0  # atno 6908 bound_to 6896
  151.2247  135.0540  159.9018 H   0  0  0  0  0  0  0  0  0  0  0  0  # atno 6909 bound_to 6896
  145.7921  140.8703  143.0275 H   0  0  0  0  0  0  0  0  0  0  0  0  # atno 7974 bound_to 7965
  154.6197  140.0618  156.9599 H   0  0  0  0  0  0  0  0  0  0  0  0  # atno 8008 bound_to 7997
  155.1838  140.3301  155.4352 H   0  0  0  0  0  0  0  0  0  0  0  0  # atno 8009 bound_to 7997
  156.2424  140.1893  156.6932 H   0  0  0  0  0  0  0  0  0  0  0  0  # atno 8010 bound_to 7997
  139.6913  143.9416  152.2386 H   0  0  0  0  0  0  0  0  0  0  0  0  # atno 10167 bound_to 10162
  157.5093  131.1096  150.9316 H   0  0  0  0  0  0  0  0  0  0  0  0  # atno 10718 bound_to 10713
  154.8757  135.3891  154.3938 H   0  0  0  0  0  0  0  0  0  0  0  0  # atno 10763 bound_to 10752
  153.4671  135.7029  153.6021 H   0  0  0  0  0  0  0  0  0  0  0  0  # atno 10764 bound_to 10752
  153.4494  135.3837  155.2243 H   0  0  0  0  0  0  0  0  0  0  0  0  # atno 10765 bound_to 10752
  141.1655  133.6989  156.7691 H   0  0  0  0  0  0  0  0  0  0  0  0  # atno 11005 bound_to 11000
  144.6780  140.0139  143.7484 LP  0  0  0  0  0  0  0  0  0  0  0  0  # atno 17320 bound_to 7965
  145.9965  139.3057  143.0953 LP  0  0  0  0  0  0  0  0  0  0  0  0  # atno 17321 bound_to 7965
  139.9233  144.6786  150.8439 LP  0  0  0  0  0  0  0  0  0  0  0  0  # atno 17342 bound_to 10162
  140.7683  143.3360  151.2309 LP  0  0  0  0  0  0  0  0  0  0  0  0  # atno 17343 bound_to 10162
  156.9961  130.5582  149.5307 LP  0  0  0  0  0  0  0  0  0  0  0  0  # atno 17370 bound_to 10713
  156.0278  130.5371  150.8455 LP  0  0  0  0  0  0  0  0  0  0  0  0  # atno 17371 bound_to 10713
  140.2477  134.8564  157.3637 LP  0  0  0  0  0  0  0  0  0  0  0  0  # atno 17394 bound_to 11000
  140.1733  134.4581  155.7818 LP  0  0  0  0  0  0  0  0  0  0  0  0  # atno 17395 bound_to 11000

$$$$
