AV-unprocessed.smi:1385|AV-procd|sdf|5630|dock1
  -GOLD-   22720 5243D 1   1.00000     0.00000
 Structure written by MMmdl.
 39 40  0  0  0  0  0  0  0  0  2 V2000
  150.6542  142.2206  155.9101 C   0  0  0  0  0  0  0  0  0  0  0  0
  150.2740  140.9341  155.2606 C   0  0  0  0  0  0  0  0  0  0  0  0
  151.1744  140.0131  154.8962 N   0  0  0  0  0  0  0  0  0  0  0  0
  150.5831  138.9013  154.3121 N   0  0  0  0  0  0  0  0  0  0  0  0
  149.2493  139.0168  154.2555 C   0  0  0  0  0  0  0  0  0  0  0  0
  148.3942  138.0256  153.7049 N   0  0  0  0  0  0  0  0  0  0  0  0
  147.1182  137.7532  154.0298 C   0  0  0  0  0  0  0  0  0  0  0  0
  146.4581  138.3433  154.8849 O   0  0  0  0  0  0  0  0  0  0  0  0
  146.6385  136.7350  153.3004 N   0  0  0  0  0  0  0  0  0  0  0  0
  145.2874  136.1846  153.4060 C   0  0  2  0  0  0  0  0  0  0  0  0
  145.3057  134.6913  153.7890 C   0  0  0  0  0  0  0  0  0  0  0  0
  145.8242  133.8091  152.6400 C   0  0  0  0  0  0  0  0  0  0  0  0
  145.0292  134.0214  151.4009 N   0  3  2  0  0  0  0  0  0  0  0  0
  145.4029  133.0926  150.3029 C   0  0  0  0  0  0  0  0  0  0  0  0
  144.2272  132.7509  149.3816 C   0  0  0  0  0  0  0  0  0  0  0  0
  144.1522  133.4182  148.2279 N   0  0  0  0  0  0  0  0  0  0  0  0
  143.3903  131.9114  149.7088 O   0  0  0  0  0  0  0  0  0  0  0  0
  145.0526  135.4436  150.9731 C   0  0  0  0  0  0  0  0  0  0  0  0
  144.5236  136.3705  152.0835 C   0  0  0  0  0  0  0  0  0  0  0  0
  148.6015  140.5070  154.9194 S   0  0  0  0  0  0  0  0  0  0  0  0
  151.6854  142.4808  155.6694 H   0  0  0  0  0  0  0  0  0  0  0  0
  150.5576  142.1335  156.9922 H   0  0  0  0  0  0  0  0  0  0  0  0
  150.0033  143.0235  155.5635 H   0  0  0  0  0  0  0  0  0  0  0  0
  148.8065  137.4525  152.9838 H   0  0  0  0  0  0  0  0  0  0  0  0
  147.2499  136.3161  152.6149 H   0  0  0  0  0  0  0  0  0  0  0  0
  144.7583  136.7408  154.1822 H   0  0  0  0  0  0  0  0  0  0  0  0
  145.9067  134.5305  154.6847 H   0  0  0  0  0  0  0  0  0  0  0  0
  144.2938  134.3771  154.0480 H   0  0  0  0  0  0  0  0  0  0  0  0
  146.8755  134.0246  152.4428 H   0  0  0  0  0  0  0  0  0  0  0  0
  145.7720  132.7636  152.9443 H   0  0  0  0  0  0  0  0  0  0  0  0
  146.1653  133.5545  149.6744 H   0  0  0  0  0  0  0  0  0  0  0  0
  145.8454  132.1838  150.7147 H   0  0  0  0  0  0  0  0  0  0  0  0
  143.4001  133.2315  147.5800 H   0  0  0  0  0  0  0  0  0  0  0  0
  144.8535  134.1097  148.0025 H   0  0  0  0  0  0  0  0  0  0  0  0
  146.0692  135.7244  150.6934 H   0  0  0  0  0  0  0  0  0  0  0  0
  144.4348  135.5694  150.0831 H   0  0  0  0  0  0  0  0  0  0  0  0
  143.4668  136.1568  152.2499 H   0  0  0  0  0  0  0  0  0  0  0  0
  144.5733  137.4109  151.7599 H   0  0  0  0  0  0  0  0  0  0  0  0
  144.0678  133.8099  151.6293 H   0  0  0  0  0  0  0  0  0  0  0  0
  1  2  1  0  0  0  0
  1 21  1  0  0  0  0
  1 22  1  0  0  0  0
  1 23  1  0  0  0  0
  2 20  1  0  0  0  0
  2  3  2  0  0  0  0
  3  4  1  0  0  0  0
  4  5  2  0  0  0  0
  5  6  1  0  0  0  0
  5 20  1  0  0  0  0
  6  7  1  0  0  0  0
  6 24  1  0  0  0  0
  7  8  2  0  0  0  0
  7  9  1  0  0  0  0
  9 10  1  0  0  0  0
  9 25  1  0  0  0  0
 10 19  1  0  0  0  0
 10 11  1  0  0  0  0
 10 26  1  0  0  0  0
 11 12  1  0  0  0  0
 11 27  1  0  0  0  0
 11 28  1  0  0  0  0
 12 13  1  0  0  0  0
 12 29  1  0  0  0  0
 12 30  1  0  0  0  0
 13 14  1  0  0  0  0
 13 18  1  0  0  0  0
 13 39  1  0  0  0  0
 14 15  1  0  0  0  0
 14 31  1  0  0  0  0
 14 32  1  0  0  0  0
 15 16  1  0  0  0  0
 15 17  2  0  0  0  0
 16 33  1  0  0  0  0
 16 34  1  0  0  0  0
 18 19  1  0  0  0  0
 18 35  1  0  0  0  0
 18 36  1  0  0  0  0
 19 37  1  0  0  0  0
 19 38  1  0  0  0  0
M  CHG  1  13   1
M  END
> <s_m_source_file>
AV-unprocessed.smi

> <i_m_source_file_index>
1385

> <i_lp_mmshare_version>
43012

> <i_f3d_flags>
0

> <s_epik_input>
W0NIM11jMW5uYyhzMSlbTkhdQyg9TylbTkhdW0NIXTJbQ0gyXVtDSDJdTihbQ0gyXVtDSDJdMilbQ0gyXUMoPU8pW05IMl0=

> <s_epik_cmdline>
J2VwaWtfcHl0aG9uJywgJy1waCcsICc3LjAnLCAnLXRuJywgJzgnLCAnLW1hJywgJzIwMCcsICctbWV0YWxfYmluZGluZycsICctaW1hZScsICc8aW5maWxlLm1hZT4nLCAnLW9tYWUnLCAnPG91dGZpbGUubWFlPic=

> <r_lp_tautomer_probability>
1

> <r_epik_Ionization_Penalty>
0.866317

> <r_epik_Ionization_Penalty_Charging>
0.862349

> <r_epik_Ionization_Penalty_Neutral>
0.00396799

> <r_epik_State_Penalty>
0.898939

> <r_epik_Charging_Adjusted_Penalty>
1.76129

> <i_epik_Tot_Q>
1

> <i_epik_Tot_abs_Q>
1

> <r_epik_Metal_State_Penalty>
1.25402

> <b_epik_Metal_Only>
0

> <s_lp_Force_Field>
OPLS_2005

> <r_lp_Energy>
11.903

> <b_lp_Chiralities_Consistent>
1

> <s_lp_Variant>
AV-unprocessed.smi:1385-3

> <Gold.Version>
5.8.1

> <Gold.Id.Protein>
6NUR|6NUR_protein|mol2

> <Gold.PLP.Fitness>
41.7144

> <Gold.PLP.PLP>
-28.5975

> <Gold.PLP.part.hbond>
-5.3582

> <Gold.PLP.part.metal>
0.0000

> <Gold.PLP.part.buried>
-7.3666

> <Gold.PLP.part.nonpolar>
-18.2151

> <Gold.PLP.part.repulsive>
1.5561

> <Gold.PLP.ligand.clash>
0.0000

> <Gold.PLP.ligand.torsion>
0.7810

> <Gold.PLP.Chemscore.Hbond>
4.8860

> <Gold.PLP.Chemscore.CHOScore>
0.0000

> <Gold.PLP.Chemscore.Metal>
0.0000

> <Gold.Chemscore.Hbonds>
donor molecule, donor type, donor heavy atom, donor atom, acceptor molecule, acceptor atom, score
      L1  H     6    24       P1  7948  1.00
      L1  H     9    25       P1  7948  0.98
      L1  H    16    34       P1  7921  0.89
      P1  H  7989  7998       L1     3  0.70
      P1  H 10785 10796       L1    17  1.00

> <Gold.PLP.Chemscore.Internal.Correction>
0.0209

> <Gold.Rescore>
     Score         DG    S(hbond)    S(metal)    S(lipo)     H(rot)  DE(clash)    DE(int)     intcor
     17.38     -18.26       3.85        0.00      44.65       2.07       0.05       0.84       ----

> <Gold.Chemscore.Fitness>
17.3756

> <Gold.Chemscore.DG>
-18.2621

> <Gold.Chemscore.ZeroCoef>
-5.4800

> <Gold.Chemscore.Hbond>
3.8458

> <Gold.Chemscore.Metal>
0.0000

> <Gold.Chemscore.Lipo>
44.6469

> <Gold.Chemscore.Internal_Hbond>
0.0000

> <Gold.Chemscore.DEClash>
0.0480

> <Gold.Chemscore.DEInternal>
0.8385

> <Gold.Chemscore.Rot>
2.0650

> <Gold.Chemscore.Internal.Correction>
   9.000000E+99

> <Gold.Chemscore.Hbonds>
donor molecule, donor type, donor heavy atom, donor atom, acceptor molecule, acceptor atom, score
      L1  H     6    24       P1  7948  0.99
      L1  H     9    25       P1  7948  0.93
      L1  H    16    34       P1  7921  0.85
      P1  H  7989  7998       L1     3  0.02
      P1  H 10785 10796       L1    17  0.90

> <Gold.Chemscore.Hbond.Weighted>
-12.8448

> <Gold.Chemscore.Metal.Weighted>
-0.0000

> <Gold.Chemscore.Lipo.Weighted>
-5.2237

> <Gold.Chemscore.Internal_Hbond.Weighted>
0.0000

> <Gold.Chemscore.DEClash.Weighted>
0.0480

> <Gold.Chemscore.DEInternal.Weighted>
0.8385

> <Gold.Chemscore.Rot.Weighted>
5.2864

> <Gold.Chemscore.Internal.Correction.Weighted>
   9.000000E+99

> <Gold.Protein.RotatedTorsions>
[ 6907 6896 6895 6894 ] final  -97.68 input  -60.11 | X-H torsion
[ 7974 7965 7964 7962 ] final -164.25 input  175.53 | X-H torsion
[ 8008 7997 7996 7995 ] final -106.10 input   59.86 | X-H torsion
[ 10167 10162 10161 10158 ] final   70.69 input  -65.29 | X-H torsion
[ 10718 10713 10712 10709 ] final -130.18 input   66.30 | X-H torsion
[ 10763 10752 10751 10750 ] final  113.69 input  -60.55 | X-H torsion
[ 11005 11000 10999 10996 ] final   80.16 input  -57.11 | X-H torsion

> <Gold.Protein.ActiveResidues>
 VAL166  LYS551  ARG553  GLY616  TRP617  ASP618  TYR619  PRO620  LYS621  CYS622 
 ASP623  PHE694  ASN695  SER759  ASP760  ASP761  ALA762  ILE779  LEU786  VAL792 
 PHE793  MET794  SER795  GLU796  ALA797  LYS798  CYS799  TRP800  GLU811  SER814 

> <Gold.Protein.RotatedAtoms>
  150.7023  134.1312  159.4070 H   0  0  0  0  0  0  0  0  0  0  0  0  # atno 6907 bound_to 6896
  151.9298  135.0259  160.0537 H   0  0  0  0  0  0  0  0  0  0  0  0  # atno 6908 bound_to 6896
  152.2185  133.4930  159.5186 H   0  0  0  0  0  0  0  0  0  0  0  0  # atno 6909 bound_to 6896
  144.7302  140.2989  143.6208 H   0  0  0  0  0  0  0  0  0  0  0  0  # atno 7974 bound_to 7965
  154.9095  140.0410  157.1938 H   0  0  0  0  0  0  0  0  0  0  0  0  # atno 8008 bound_to 7997
  154.8362  140.2907  155.5668 H   0  0  0  0  0  0  0  0  0  0  0  0  # atno 8009 bound_to 7997
  156.2990  140.2491  156.3297 H   0  0  0  0  0  0  0  0  0  0  0  0  # atno 8010 bound_to 7997
  140.0542  144.5286  150.7341 H   0  0  0  0  0  0  0  0  0  0  0  0  # atno 10167 bound_to 10162
  156.2119  130.6924  151.0659 H   0  0  0  0  0  0  0  0  0  0  0  0  # atno 10718 bound_to 10713
  153.4962  135.3648  155.2517 H   0  0  0  0  0  0  0  0  0  0  0  0  # atno 10763 bound_to 10752
  154.8750  135.3989  154.3531 H   0  0  0  0  0  0  0  0  0  0  0  0  # atno 10764 bound_to 10752
  153.4159  135.7079  153.6393 H   0  0  0  0  0  0  0  0  0  0  0  0  # atno 10765 bound_to 10752
  139.9145  134.7899  156.1873 H   0  0  0  0  0  0  0  0  0  0  0  0  # atno 11005 bound_to 11000
  145.7780  139.1881  143.2174 LP  0  0  0  0  0  0  0  0  0  0  0  0  # atno 17320 bound_to 7965
  146.0857  140.7714  142.9620 LP  0  0  0  0  0  0  0  0  0  0  0  0  # atno 17321 bound_to 7965
  140.7202  143.2582  151.4302 LP  0  0  0  0  0  0  0  0  0  0  0  0  # atno 17342 bound_to 10162
  139.5934  144.1450  152.2115 LP  0  0  0  0  0  0  0  0  0  0  0  0  # atno 17343 bound_to 10162
  157.7043  131.0763  150.6719 LP  0  0  0  0  0  0  0  0  0  0  0  0  # atno 17370 bound_to 10713
  156.6779  130.4558  149.5637 LP  0  0  0  0  0  0  0  0  0  0  0  0  # atno 17371 bound_to 10713
  141.0605  133.6844  156.1944 LP  0  0  0  0  0  0  0  0  0  0  0  0  # atno 17394 bound_to 11000
  140.6668  134.4910  157.5586 LP  0  0  0  0  0  0  0  0  0  0  0  0  # atno 17395 bound_to 11000

$$$$
