AV-unprocessed.smi:2845|AV-procd|sdf|10946|dock3
  -GOLD-   2272015393D 1   1.00000     0.00000
 Structure written by MMmdl.
 42 44  0  0  0  0  0  0  0  0  1 V2000
  152.3671  143.3097  160.7588 C   0  0  0  0  0  0  0  0  0  0  0  0
  152.3249  142.3455  159.5865 C   0  0  0  0  0  0  0  0  0  0  0  0
  151.3517  142.5313  158.5792 C   0  0  0  0  0  0  0  0  0  0  0  0
  151.2775  141.6564  157.4734 C   0  0  0  0  0  0  0  0  0  0  0  0
  150.4146  141.6500  156.3910 N   0  0  0  0  0  0  0  0  0  0  0  0
  150.8470  140.5923  155.7112 C   0  0  0  0  0  0  0  0  0  0  0  0
  151.8918  139.9136  156.2230 N   0  0  0  0  0  0  0  0  0  0  0  0
  152.5240  138.7341  155.6583 C   0  0  0  0  0  0  0  0  0  0  0  0
  151.5088  137.6288  155.3115 C   0  0  1  0  0  0  0  0  0  0  0  0
  151.8560  137.0351  154.0743 O   0  0  0  0  0  0  0  0  0  0  0  0
  151.4364  136.5487  156.4074 C   0  0  0  0  0  0  0  0  0  0  0  0
  150.6894  136.9912  157.5707 N   0  0  0  0  0  0  0  0  0  0  0  0
  150.2337  138.2051  157.8938 C   0  0  0  0  0  0  0  0  0  0  0  0
  149.5746  138.2458  159.0441 N   0  0  0  0  0  0  0  0  0  0  0  0
  149.6729  136.9302  159.3915 C   0  0  0  0  0  0  0  0  0  0  0  0
  148.9373  136.3019  160.9336 S   0  0  2  0  0  0  0  0  0  0  0  0
  148.1086  134.8319  160.1634 C   0  0  0  0  0  0  0  0  0  0  0  0
  147.8353  137.2945  161.3101 O   0  0  0  0  0  0  0  0  0  0  0  0
  150.3297  136.1308  158.5527 N   0  0  0  0  0  0  0  0  0  0  0  0
  152.2127  140.5823  157.4000 C   0  0  0  0  0  0  0  0  0  0  0  0
  153.1869  140.3885  158.3957 C   0  0  0  0  0  0  0  0  0  0  0  0
  153.2456  141.2708  159.4950 C   0  0  0  0  0  0  0  0  0  0  0  0
  154.2996  141.0511  160.5658 C   0  0  0  0  0  0  0  0  0  0  0  0
  151.5872  144.0677  160.6796 H   0  0  0  0  0  0  0  0  0  0  0  0
  153.3287  143.8220  160.7973 H   0  0  0  0  0  0  0  0  0  0  0  0
  152.2201  142.7763  161.6980 H   0  0  0  0  0  0  0  0  0  0  0  0
  150.6504  143.3499  158.6478 H   0  0  0  0  0  0  0  0  0  0  0  0
  150.3782  140.2930  154.7849 H   0  0  0  0  0  0  0  0  0  0  0  0
  153.0890  139.0244  154.7717 H   0  0  0  0  0  0  0  0  0  0  0  0
  153.2505  138.3628  156.3820 H   0  0  0  0  0  0  0  0  0  0  0  0
  150.5220  138.0798  155.1977 H   0  0  0  0  0  0  0  0  0  0  0  0
  151.0753  136.9577  153.5470 H   0  0  0  0  0  0  0  0  0  0  0  0
  150.9862  135.6332  156.0197 H   0  0  0  0  0  0  0  0  0  0  0  0
  152.4417  136.2853  156.7387 H   0  0  0  0  0  0  0  0  0  0  0  0
  150.3849  139.0758  157.2726 H   0  0  0  0  0  0  0  0  0  0  0  0
  148.5892  134.5537  159.2253 H   0  0  0  0  0  0  0  0  0  0  0  0
  147.0602  135.0530  159.9636 H   0  0  0  0  0  0  0  0  0  0  0  0
  148.1595  133.9789  160.8399 H   0  0  0  0  0  0  0  0  0  0  0  0
  153.8839  139.5680  158.3134 H   0  0  0  0  0  0  0  0  0  0  0  0
  154.9368  140.1990  160.3279 H   0  0  0  0  0  0  0  0  0  0  0  0
  153.8292  140.8581  161.5300 H   0  0  0  0  0  0  0  0  0  0  0  0
  154.9382  141.9295  160.6607 H   0  0  0  0  0  0  0  0  0  0  0  0
  1  2  1  0  0  0  0
  1 24  1  0  0  0  0
  1 25  1  0  0  0  0
  1 26  1  0  0  0  0
  2 22  1  0  0  0  0
  2  3  2  0  0  0  0
  3  4  1  0  0  0  0
  3 27  1  0  0  0  0
  4 20  2  0  0  0  0
  4  5  1  0  0  0  0
  5  6  2  0  0  0  0
  6  7  1  0  0  0  0
  6 28  1  0  0  0  0
  7  8  1  0  0  0  0
  7 20  1  0  0  0  0
  8  9  1  0  0  0  0
  8 29  1  0  0  0  0
  8 30  1  0  0  0  0
  9 10  1  0  0  0  0
  9 11  1  0  0  0  0
  9 31  1  0  0  0  0
 10 32  1  0  0  0  0
 11 12  1  0  0  0  0
 11 33  1  0  0  0  0
 11 34  1  0  0  0  0
 12 19  1  0  0  0  0
 12 13  1  0  0  0  0
 13 14  2  0  0  0  0
 13 35  1  0  0  0  0
 14 15  1  0  0  0  0
 15 16  1  0  0  0  0
 15 19  2  0  0  0  0
 16 17  1  0  0  0  0
 16 18  2  0  0  0  0
 17 36  1  0  0  0  0
 17 37  1  0  0  0  0
 17 38  1  0  0  0  0
 20 21  1  0  0  0  0
 21 22  2  0  0  0  0
 21 39  1  0  0  0  0
 22 23  1  0  0  0  0
 23 40  1  0  0  0  0
 23 41  1  0  0  0  0
 23 42  1  0  0  0  0
M  END
> <s_m_source_file>
AV-unprocessed.smi

> <i_m_source_file_index>
2845

> <i_lp_mmshare_version>
43012

> <i_f3d_flags>
0

> <s_epik_input>
W0NIM11jKFtjSF0xKWMoW0NIM10pW2NIXWMoYzEyKW4oW2NIXW4yKVtDSDJdW0NASF0oW09IXSlbQ0gyXW4zW2NIXW5jKG4zKVtTQF0oPU8pW0NIM10=

> <s_epik_cmdline>
J2VwaWtfcHl0aG9uJywgJy1waCcsICc3LjAnLCAnLXRuJywgJzgnLCAnLW1hJywgJzIwMCcsICctbWV0YWxfYmluZGluZycsICctaW1hZScsICc8aW5maWxlLm1hZT4nLCAnLW9tYWUnLCAnPG91dGZpbGUubWFlPic=

> <r_lp_tautomer_probability>
1

> <r_epik_Ionization_Penalty>
0.0968684

> <r_epik_Ionization_Penalty_Charging>
0

> <r_epik_Ionization_Penalty_Neutral>
0.0968684

> <r_epik_State_Penalty>
0.0870047

> <r_epik_Charging_Adjusted_Penalty>
0.0870047

> <i_epik_Tot_Q>
0

> <i_epik_Tot_abs_Q>
0

> <r_epik_Metal_State_Penalty>
0.0746849

> <b_epik_Metal_Only>
0

> <s_lp_Force_Field>
OPLS_2005

> <r_lp_Energy>
9.68664

> <b_lp_Chiralities_Consistent>
1

> <s_lp_Variant>
AV-unprocessed.smi:2845-4

> <Gold.Version>
5.8.1

> <Gold.Id.Protein>
6NUR|6NUR_protein|mol2

> <Gold.PLP.Fitness>
50.8362

> <Gold.PLP.PLP>
-42.4184

> <Gold.PLP.part.hbond>
-5.4137

> <Gold.PLP.part.metal>
0.0000

> <Gold.PLP.part.buried>
-3.2814

> <Gold.PLP.part.nonpolar>
-32.0141

> <Gold.PLP.part.repulsive>
0.0792

> <Gold.PLP.ligand.clash>
0.0000

> <Gold.PLP.ligand.torsion>
1.3953

> <Gold.PLP.Chemscore.Hbond>
3.3616

> <Gold.PLP.Chemscore.CHOScore>
0.0000

> <Gold.PLP.Chemscore.Metal>
0.0000

> <Gold.Chemscore.Hbonds>
donor molecule, donor type, donor heavy atom, donor atom, acceptor molecule, acceptor atom, score
      L1  H    10    32       P1  7949  0.16
      P1  H  6896  6907       L1    19  0.98
      P1  H  6931  6943       L1    18  0.34
      P1  H  6934  6947       L1    18  0.74
      P1  H 10752 10763       L1    10  1.00

> <Gold.PLP.Chemscore.Internal.Correction>
1.1237

> <Gold.Rescore>
     Score         DG    S(hbond)    S(metal)    S(lipo)     H(rot)  DE(clash)    DE(int)     intcor
     17.03     -18.54       2.80        0.00      90.94       2.71       0.09       1.42       ----

> <Gold.Chemscore.Fitness>
17.0292

> <Gold.Chemscore.DG>
-18.5403

> <Gold.Chemscore.ZeroCoef>
-5.4800

> <Gold.Chemscore.Hbond>
2.8024

> <Gold.Chemscore.Metal>
0.0000

> <Gold.Chemscore.Lipo>
90.9396

> <Gold.Chemscore.Internal_Hbond>
0.0000

> <Gold.Chemscore.DEClash>
0.0925

> <Gold.Chemscore.DEInternal>
1.4186

> <Gold.Chemscore.Rot>
2.7108

> <Gold.Chemscore.Internal.Correction>
   9.000000E+99

> <Gold.Chemscore.Hbonds>
donor molecule, donor type, donor heavy atom, donor atom, acceptor molecule, acceptor atom, score
      L1  H    10    32       P1  7949  0.06
      P1  H  6896  6907       L1    19  0.28
      P1  H  6931  6943       L1    18  0.01
      P1  H  6934  6947       L1    18  0.74
      P1  H 10752 10763       L1    10  0.90

> <Gold.Chemscore.Hbond.Weighted>
-9.3600

> <Gold.Chemscore.Metal.Weighted>
-0.0000

> <Gold.Chemscore.Lipo.Weighted>
-10.6399

> <Gold.Chemscore.Internal_Hbond.Weighted>
0.0000

> <Gold.Chemscore.DEClash.Weighted>
0.0925

> <Gold.Chemscore.DEInternal.Weighted>
1.4186

> <Gold.Chemscore.Rot.Weighted>
6.9396

> <Gold.Chemscore.Internal.Correction.Weighted>
   9.000000E+99

> <Gold.Protein.RotatedTorsions>
[ 6907 6896 6895 6894 ] final  -52.62 input  -60.11 | X-H torsion
[ 7974 7965 7964 7962 ] final  -39.55 input  175.53 | X-H torsion
[ 8008 7997 7996 7995 ] final -171.15 input   59.86 | X-H torsion
[ 10167 10162 10161 10158 ] final  -35.82 input  -65.29 | X-H torsion
[ 10718 10713 10712 10709 ] final  -70.42 input   66.30 | X-H torsion
[ 10763 10752 10751 10750 ] final   22.16 input  -60.55 | X-H torsion
[ 11005 11000 10999 10996 ] final   -1.32 input  -57.11 | X-H torsion

> <Gold.Protein.ActiveResidues>
 VAL166  LYS551  ARG553  GLY616  TRP617  ASP618  TYR619  PRO620  LYS621  CYS622 
 ASP623  PHE694  ASN695  SER759  ASP760  ASP761  ALA762  ILE779  LEU786  VAL792 
 PHE793  MET794  SER795  GLU796  ALA797  LYS798  CYS799  TRP800  GLU811  SER814 

> <Gold.Protein.RotatedAtoms>
  150.8501  134.7823  159.7001 H   0  0  0  0  0  0  0  0  0  0  0  0  # atno 6907 bound_to 6896
  152.4568  134.5270  159.9809 H   0  0  0  0  0  0  0  0  0  0  0  0  # atno 6908 bound_to 6896
  151.5393  133.3397  159.2968 H   0  0  0  0  0  0  0  0  0  0  0  0  # atno 6909 bound_to 6896
  146.0386  140.6639  142.9098 H   0  0  0  0  0  0  0  0  0  0  0  0  # atno 7974 bound_to 7965
  155.9278  140.1086  157.1156 H   0  0  0  0  0  0  0  0  0  0  0  0  # atno 8008 bound_to 7997
  154.4065  140.1243  156.4829 H   0  0  0  0  0  0  0  0  0  0  0  0  # atno 8009 bound_to 7997
  155.7117  140.3471  155.4979 H   0  0  0  0  0  0  0  0  0  0  0  0  # atno 8010 bound_to 7997
  140.7156  143.3451  151.2274 H   0  0  0  0  0  0  0  0  0  0  0  0  # atno 10167 bound_to 10162
  156.0408  130.4331  150.2293 H   0  0  0  0  0  0  0  0  0  0  0  0  # atno 10718 bound_to 10713
  153.0938  135.6654  153.9803 H   0  0  0  0  0  0  0  0  0  0  0  0  # atno 10763 bound_to 10752
  153.9393  135.2995  155.3444 H   0  0  0  0  0  0  0  0  0  0  0  0  # atno 10764 bound_to 10752
  154.7354  135.5104  153.9107 H   0  0  0  0  0  0  0  0  0  0  0  0  # atno 10765 bound_to 10752
  140.6460  133.9447  155.8353 H   0  0  0  0  0  0  0  0  0  0  0  0  # atno 11005 bound_to 11000
  144.7063  140.3866  143.7115 LP  0  0  0  0  0  0  0  0  0  0  0  0  # atno 17320 bound_to 7965
  145.6923  139.1642  143.2640 LP  0  0  0  0  0  0  0  0  0  0  0  0  # atno 17321 bound_to 7965
  139.6968  143.9599  152.2886 LP  0  0  0  0  0  0  0  0  0  0  0  0  # atno 17342 bound_to 10162
  139.9279  144.6759  150.8393 LP  0  0  0  0  0  0  0  0  0  0  0  0  # atno 17343 bound_to 10162
  157.0388  131.0029  151.3290 LP  0  0  0  0  0  0  0  0  0  0  0  0  # atno 17370 bound_to 10713
  157.5224  130.8006  149.7824 LP  0  0  0  0  0  0  0  0  0  0  0  0  # atno 17371 bound_to 10713
  141.0572  134.0399  157.3707 LP  0  0  0  0  0  0  0  0  0  0  0  0  # atno 17394 bound_to 11000
  139.9063  135.0180  156.7499 LP  0  0  0  0  0  0  0  0  0  0  0  0  # atno 17395 bound_to 11000

$$$$
