AV-unprocessed.smi:1538|AV-procd|sdf|6195|dock8
  -GOLD-   22720 6363D 1   1.00000     0.00000
 Structure written by MMmdl.
 36 37  0  0  0  0  0  0  0  0  1 V2000
  151.8031  145.5875  159.7443 C   0  0  0  0  0  0  0  0  0  0  0  0
  151.9964  144.1598  159.4842 N   0  0  0  0  0  0  0  0  0  0  0  0
  151.7989  143.7510  158.0863 C   0  0  0  0  0  0  0  0  0  0  0  0
  151.5837  142.2420  157.9130 C   0  0  0  0  0  0  0  0  0  0  0  0
  152.6484  141.4659  158.6987 C   0  0  2  0  0  0  0  0  0  0  0  0
  152.4888  139.9543  158.4857 C   0  0  0  0  0  0  0  0  0  0  0  0
  153.4286  139.2828  158.0583 O   0  0  0  0  0  0  0  0  0  0  0  0
  151.2903  139.4312  158.7869 N   0  0  0  0  0  0  0  0  0  0  0  0
  150.9319  138.0249  158.6471 C   0  0  0  0  0  0  0  0  0  0  0  0
  151.4797  137.4302  157.3393 C   0  0  0  0  0  0  0  0  0  0  0  0
  151.2066  138.2937  156.2090 N   0  0  0  0  0  0  0  0  0  0  0  0
  150.0145  138.3990  155.5049 C   0  0  0  0  0  0  0  0  0  0  0  0
  150.2208  139.3409  154.5223 C   0  0  0  0  0  0  0  0  0  0  0  0
  151.5242  139.8257  154.6037 N   0  0  0  0  0  0  0  0  0  0  0  0
  152.0463  139.1597  155.6256 C   0  0  0  0  0  0  0  0  0  0  0  0
  152.5526  141.8259  160.1950 C   0  0  0  0  0  0  0  0  0  0  0  0
  152.3972  143.3298  160.4777 C   0  0  0  0  0  0  0  0  0  0  0  0
  152.6164  143.7278  161.6222 O   0  0  0  0  0  0  0  0  0  0  0  0
  152.6977  146.0272  160.1880 H   0  0  0  0  0  0  0  0  0  0  0  0
  150.9702  145.7396  160.4322 H   0  0  0  0  0  0  0  0  0  0  0  0
  151.5869  146.1468  158.8334 H   0  0  0  0  0  0  0  0  0  0  0  0
  150.9476  144.2811  157.6570 H   0  0  0  0  0  0  0  0  0  0  0  0
  152.6775  144.0609  157.5193 H   0  0  0  0  0  0  0  0  0  0  0  0
  150.5858  141.9768  158.2668 H   0  0  0  0  0  0  0  0  0  0  0  0
  151.6172  141.9840  156.8536 H   0  0  0  0  0  0  0  0  0  0  0  0
  153.6325  141.7659  158.3328 H   0  0  0  0  0  0  0  0  0  0  0  0
  150.5743  140.0527  159.1345 H   0  0  0  0  0  0  0  0  0  0  0  0
  151.2934  137.4594  159.5076 H   0  0  0  0  0  0  0  0  0  0  0  0
  149.8440  137.9509  158.6623 H   0  0  0  0  0  0  0  0  0  0  0  0
  152.5577  137.2784  157.4101 H   0  0  0  0  0  0  0  0  0  0  0  0
  151.0339  136.4547  157.1407 H   0  0  0  0  0  0  0  0  0  0  0  0
  149.1426  137.8124  155.7550 H   0  0  0  0  0  0  0  0  0  0  0  0
  149.5370  139.7044  153.7696 H   0  0  0  0  0  0  0  0  0  0  0  0
  153.0637  139.3059  155.9580 H   0  0  0  0  0  0  0  0  0  0  0  0
  151.6963  141.3284  160.6531 H   0  0  0  0  0  0  0  0  0  0  0  0
  153.4368  141.4599  160.7188 H   0  0  0  0  0  0  0  0  0  0  0  0
  1  2  1  0  0  0  0
  1 19  1  0  0  0  0
  1 20  1  0  0  0  0
  1 21  1  0  0  0  0
  2 17  1  0  0  0  0
  2  3  1  0  0  0  0
  3  4  1  0  0  0  0
  3 22  1  0  0  0  0
  3 23  1  0  0  0  0
  4  5  1  0  0  0  0
  4 24  1  0  0  0  0
  4 25  1  0  0  0  0
  5  6  1  0  0  0  0
  5 16  1  0  0  0  0
  5 26  1  0  0  0  0
  6  7  2  0  0  0  0
  6  8  1  0  0  0  0
  8  9  1  0  0  0  0
  8 27  1  0  0  0  0
  9 10  1  0  0  0  0
  9 28  1  0  0  0  0
  9 29  1  0  0  0  0
 10 11  1  0  0  0  0
 10 30  1  0  0  0  0
 10 31  1  0  0  0  0
 11 15  1  0  0  0  0
 11 12  1  0  0  0  0
 12 13  2  0  0  0  0
 12 32  1  0  0  0  0
 13 14  1  0  0  0  0
 13 33  1  0  0  0  0
 14 15  2  0  0  0  0
 15 34  1  0  0  0  0
 16 17  1  0  0  0  0
 16 35  1  0  0  0  0
 16 36  1  0  0  0  0
 17 18  2  0  0  0  0
M  END
> <s_m_source_file>
AV-unprocessed.smi

> <i_m_source_file_index>
1538

> <i_lp_mmshare_version>
43012

> <i_f3d_flags>
0

> <s_epik_input>
W0NIM11OMVtDSDJdW0NIMl1bQ0BIXShbQ0gyXUMxPU8pQyg9TylbTkhdW0NIMl1bQ0gyXW4yW2NIXVtjSF1uW2NIXTI=

> <s_epik_cmdline>
J2VwaWtfcHl0aG9uJywgJy1waCcsICc3LjAnLCAnLXRuJywgJzgnLCAnLW1hJywgJzIwMCcsICctbWV0YWxfYmluZGluZycsICctaW1hZScsICc8aW5maWxlLm1hZT4nLCAnLW9tYWUnLCAnPG91dGZpbGUubWFlPic=

> <r_lp_tautomer_probability>
1

> <r_epik_Ionization_Penalty>
0.590576

> <r_epik_Ionization_Penalty_Charging>
0.590576

> <r_epik_Ionization_Penalty_Neutral>
2.97775e-08

> <r_epik_State_Penalty>
0.604111

> <r_epik_Charging_Adjusted_Penalty>
1.19469

> <i_epik_Tot_Q>
0

> <i_epik_Tot_abs_Q>
0

> <r_epik_Metal_State_Penalty>
0.298544

> <b_epik_Metal_Only>
0

> <s_lp_Force_Field>
OPLS_2005

> <r_lp_Energy>
14.6501

> <b_lp_Chiralities_Consistent>
1

> <s_lp_Variant>
AV-unprocessed.smi:1538-4

> <Gold.Version>
5.8.1

> <Gold.Id.Protein>
6NUR|6NUR_protein|mol2

> <Gold.PLP.Fitness>
44.7780

> <Gold.PLP.PLP>
-36.7765

> <Gold.PLP.part.hbond>
-1.8423

> <Gold.PLP.part.metal>
0.0000

> <Gold.PLP.part.buried>
-3.4354

> <Gold.PLP.part.nonpolar>
-30.2373

> <Gold.PLP.part.repulsive>
0.3628

> <Gold.PLP.ligand.clash>
0.0000

> <Gold.PLP.ligand.torsion>
0.5037

> <Gold.PLP.Chemscore.Hbond>
2.0000

> <Gold.PLP.Chemscore.CHOScore>
1.0000

> <Gold.PLP.Chemscore.Metal>
0.0000

> <Gold.Chemscore.Hbonds>
donor molecule, donor type, donor heavy atom, donor atom, acceptor molecule, acceptor atom, score
      P1  H  7989  7998       L1    14  0.98
      P1  H  7997  8009       L1     7  1.00
      L1  C    13    33       P1  7957  0.75

> <Gold.PLP.Chemscore.Internal.Correction>
0.0089

> <Gold.Rescore>
     Score         DG    S(hbond)    S(metal)    S(lipo)     H(rot)  DE(clash)    DE(int)     intcor
     13.35     -15.00       1.98        0.00      68.08       1.98       0.05       1.61       ----

> <Gold.Chemscore.Fitness>
13.3522

> <Gold.Chemscore.DG>
-15.0033

> <Gold.Chemscore.ZeroCoef>
-5.4800

> <Gold.Chemscore.Hbond>
1.9826

> <Gold.Chemscore.Metal>
0.0000

> <Gold.Chemscore.Lipo>
68.0842

> <Gold.Chemscore.Internal_Hbond>
0.0000

> <Gold.Chemscore.DEClash>
0.0456

> <Gold.Chemscore.DEInternal>
1.6055

> <Gold.Chemscore.Rot>
1.9782

> <Gold.Chemscore.Internal.Correction>
   9.000000E+99

> <Gold.Chemscore.Hbonds>
donor molecule, donor type, donor heavy atom, donor atom, acceptor molecule, acceptor atom, score
      P1  H  7989  7998       L1    14  0.50
      P1  H  7997  8009       L1     7  0.98

> <Gold.Chemscore.Hbond.Weighted>
-6.6218

> <Gold.Chemscore.Metal.Weighted>
-0.0000

> <Gold.Chemscore.Lipo.Weighted>
-7.9659

> <Gold.Chemscore.Internal_Hbond.Weighted>
0.0000

> <Gold.Chemscore.DEClash.Weighted>
0.0456

> <Gold.Chemscore.DEInternal.Weighted>
1.6055

> <Gold.Chemscore.Rot.Weighted>
5.0643

> <Gold.Chemscore.Internal.Correction.Weighted>
   9.000000E+99

> <Gold.Protein.RotatedTorsions>
[ 6907 6896 6895 6894 ] final -160.31 input  -60.11 | X-H torsion
[ 7974 7965 7964 7962 ] final -106.86 input  175.53 | X-H torsion
[ 8008 7997 7996 7995 ] final  144.55 input   59.86 | X-H torsion
[ 10167 10162 10161 10158 ] final  150.98 input  -65.29 | X-H torsion
[ 10718 10713 10712 10709 ] final  128.74 input   66.30 | X-H torsion
[ 10763 10752 10751 10750 ] final   91.41 input  -60.55 | X-H torsion
[ 11005 11000 10999 10996 ] final -120.45 input  -57.11 | X-H torsion

> <Gold.Protein.ActiveResidues>
 VAL166  LYS551  ARG553  GLY616  TRP617  ASP618  TYR619  PRO620  LYS621  CYS622 
 ASP623  PHE694  ASN695  SER759  ASP760  ASP761  ALA762  ILE779  LEU786  VAL792 
 PHE793  MET794  SER795  GLU796  ALA797  LYS798  CYS799  TRP800  GLU811  SER814 

> <Gold.Protein.RotatedAtoms>
  151.3471  133.3939  159.2676 H   0  0  0  0  0  0  0  0  0  0  0  0  # atno 6907 bound_to 6896
  150.9831  134.9182  159.7866 H   0  0  0  0  0  0  0  0  0  0  0  0  # atno 6908 bound_to 6896
  152.5223  134.3435  159.9278 H   0  0  0  0  0  0  0  0  0  0  0  0  # atno 6909 bound_to 6896
  145.2126  140.9102  143.3305 H   0  0  0  0  0  0  0  0  0  0  0  0  # atno 7974 bound_to 7965
  156.2905  140.2233  156.5071 H   0  0  0  0  0  0  0  0  0  0  0  0  # atno 8008 bound_to 7997
  154.7641  140.0471  157.1019 H   0  0  0  0  0  0  0  0  0  0  0  0  # atno 8009 bound_to 7997
  154.9955  140.3095  155.4892 H   0  0  0  0  0  0  0  0  0  0  0  0  # atno 8010 bound_to 7997
  139.4845  144.5478  151.7453 H   0  0  0  0  0  0  0  0  0  0  0  0  # atno 10167 bound_to 10162
  157.5217  131.1098  150.9143 H   0  0  0  0  0  0  0  0  0  0  0  0  # atno 10718 bound_to 10713
  153.2080  135.4398  155.0346 H   0  0  0  0  0  0  0  0  0  0  0  0  # atno 10763 bound_to 10752
  154.8184  135.3326  154.7112 H   0  0  0  0  0  0  0  0  0  0  0  0  # atno 10764 bound_to 10752
  153.7552  135.6995  153.4993 H   0  0  0  0  0  0  0  0  0  0  0  0  # atno 10765 bound_to 10752
  141.0142  134.0219  157.3372 H   0  0  0  0  0  0  0  0  0  0  0  0  # atno 11005 bound_to 11000
  144.9841  139.3754  143.6247 LP  0  0  0  0  0  0  0  0  0  0  0  0  # atno 17320 bound_to 7965
  146.3394  139.8995  142.8796 LP  0  0  0  0  0  0  0  0  0  0  0  0  # atno 17321 bound_to 7965
  140.5027  144.1144  150.5975 LP  0  0  0  0  0  0  0  0  0  0  0  0  # atno 17342 bound_to 10162
  140.4043  143.2688  151.9910 LP  0  0  0  0  0  0  0  0  0  0  0  0  # atno 17343 bound_to 10162
  156.9751  130.5506  149.5293 LP  0  0  0  0  0  0  0  0  0  0  0  0  # atno 17370 bound_to 10713
  156.0358  130.5446  150.8650 LP  0  0  0  0  0  0  0  0  0  0  0  0  # atno 17371 bound_to 10713
  139.9107  135.0189  156.7680 LP  0  0  0  0  0  0  0  0  0  0  0  0  # atno 17394 bound_to 11000
  140.6682  133.9583  155.7842 LP  0  0  0  0  0  0  0  0  0  0  0  0  # atno 17395 bound_to 11000

$$$$
