AV-unprocessed.smi:1088|AV-procd|sdf|4728|dock2
  -GOLD-   22720 3253D 1   1.00000     0.00000
 Structure written by MMmdl.
 48 49  0  0  0  0  0  0  0  0  2 V2000
  140.6041  136.5069  153.3986 C   0  0  0  0  0  0  0  0  0  0  0  0
  141.3130  135.3333  153.7557 O   0  0  0  0  0  0  0  0  0  0  0  0
  142.6342  135.3174  153.2411 C   0  0  0  0  0  0  0  0  0  0  0  0
  142.7356  134.2210  152.1711 C   0  0  0  0  0  0  0  0  0  0  0  0
  144.0796  134.1716  151.5458 N   0  3  2  0  0  0  0  0  0  0  0  0
  144.2011  133.2450  150.4007 C   0  0  0  0  0  0  0  0  0  0  0  0
  145.6889  132.9379  150.3013 C   0  0  0  0  0  0  0  0  0  0  0  0
  146.1216  132.8886  151.7615 C   0  0  0  0  0  0  0  0  0  0  0  0
  145.1864  133.8767  152.4912 C   0  0  1  0  0  0  0  0  0  0  0  0
  145.8637  135.1892  152.9362 C   0  0  0  0  0  0  0  0  0  0  0  0
  147.2488  134.9739  153.3432 N   0  0  0  0  0  0  0  0  0  0  0  0
  147.6533  134.6160  154.5712 C   0  0  0  0  0  0  0  0  0  0  0  0
  146.8779  134.3699  155.4958 O   0  0  0  0  0  0  0  0  0  0  0  0
  149.1690  134.5254  154.7857 C   0  0  0  0  0  0  0  0  0  0  0  0
  149.5894  133.1892  155.2268 N   0  0  0  0  0  0  0  0  0  0  0  0
  149.3811  132.0969  154.4046 C   0  0  0  0  0  0  0  0  0  0  0  0
  149.7335  130.8362  154.7378 C   0  0  0  0  0  0  0  0  0  0  0  0
  150.3654  130.5498  156.0200 C   0  0  0  0  0  0  0  0  0  0  0  0
  150.7241  129.4206  156.3566 O   0  0  0  0  0  0  0  0  0  0  0  0
  150.5501  131.6808  156.8499 N   0  0  0  0  0  0  0  0  0  0  0  0
  151.1854  131.4771  158.1355 C   0  0  0  0  0  0  0  0  0  0  0  0
  150.1991  133.0009  156.4869 C   0  0  0  0  0  0  0  0  0  0  0  0
  150.4131  133.9641  157.2279 O   0  0  0  0  0  0  0  0  0  0  0  0
  139.5982  136.4689  153.8167 H   0  0  0  0  0  0  0  0  0  0  0  0
  140.5145  136.5999  152.3155 H   0  0  0  0  0  0  0  0  0  0  0  0
  141.0964  137.3990  153.7875 H   0  0  0  0  0  0  0  0  0  0  0  0
  142.8603  136.2851  152.7907 H   0  0  0  0  0  0  0  0  0  0  0  0
  143.3602  135.1571  154.0394 H   0  0  0  0  0  0  0  0  0  0  0  0
  142.5190  133.2576  152.6348 H   0  0  0  0  0  0  0  0  0  0  0  0
  141.9786  134.3727  151.4005 H   0  0  0  0  0  0  0  0  0  0  0  0
  143.6506  132.3251  150.6049 H   0  0  0  0  0  0  0  0  0  0  0  0
  143.8068  133.6802  149.4820 H   0  0  0  0  0  0  0  0  0  0  0  0
  145.8982  132.0127  149.7636 H   0  0  0  0  0  0  0  0  0  0  0  0
  146.2044  133.7518  149.7893 H   0  0  0  0  0  0  0  0  0  0  0  0
  145.9588  131.8827  152.1513 H   0  0  0  0  0  0  0  0  0  0  0  0
  147.1828  133.1058  151.8756 H   0  0  0  0  0  0  0  0  0  0  0  0
  144.7881  133.3712  153.3731 H   0  0  0  0  0  0  0  0  0  0  0  0
  145.7919  135.9382  152.1457 H   0  0  0  0  0  0  0  0  0  0  0  0
  145.3326  135.6040  153.7937 H   0  0  0  0  0  0  0  0  0  0  0  0
  147.9596  135.1452  152.6466 H   0  0  0  0  0  0  0  0  0  0  0  0
  149.6618  134.7876  153.8487 H   0  0  0  0  0  0  0  0  0  0  0  0
  149.4948  135.2729  155.5118 H   0  0  0  0  0  0  0  0  0  0  0  0
  148.9124  132.2556  153.4441 H   0  0  0  0  0  0  0  0  0  0  0  0
  149.5459  130.0279  154.0461 H   0  0  0  0  0  0  0  0  0  0  0  0
  150.8265  132.2237  158.8453 H   0  0  0  0  0  0  0  0  0  0  0  0
  152.2608  131.5636  157.9746 H   0  0  0  0  0  0  0  0  0  0  0  0
  150.9170  130.4927  158.5218 H   0  0  0  0  0  0  0  0  0  0  0  0
  144.2726  135.0944  151.1827 H   0  0  0  0  0  0  0  0  0  0  0  0
  1  2  1  0  0  0  0
  1 24  1  0  0  0  0
  1 25  1  0  0  0  0
  1 26  1  0  0  0  0
  2  3  1  0  0  0  0
  3  4  1  0  0  0  0
  3 27  1  0  0  0  0
  3 28  1  0  0  0  0
  4  5  1  0  0  0  0
  4 29  1  0  0  0  0
  4 30  1  0  0  0  0
  5  9  1  0  0  0  0
  5  6  1  0  0  0  0
  5 48  1  0  0  0  0
  6  7  1  0  0  0  0
  6 31  1  0  0  0  0
  6 32  1  0  0  0  0
  7  8  1  0  0  0  0
  7 33  1  0  0  0  0
  7 34  1  0  0  0  0
  8  9  1  0  0  0  0
  8 35  1  0  0  0  0
  8 36  1  0  0  0  0
  9 10  1  0  0  0  0
  9 37  1  0  0  0  0
 10 11  1  0  0  0  0
 10 38  1  0  0  0  0
 10 39  1  0  0  0  0
 11 12  1  0  0  0  0
 11 40  1  0  0  0  0
 12 13  2  0  0  0  0
 12 14  1  0  0  0  0
 14 15  1  0  0  0  0
 14 41  1  0  0  0  0
 14 42  1  0  0  0  0
 15 22  1  0  0  0  0
 15 16  1  0  0  0  0
 16 17  2  0  0  0  0
 16 43  1  0  0  0  0
 17 18  1  0  0  0  0
 17 44  1  0  0  0  0
 18 19  2  0  0  0  0
 18 20  1  0  0  0  0
 20 21  1  0  0  0  0
 20 22  1  0  0  0  0
 21 45  1  0  0  0  0
 21 46  1  0  0  0  0
 21 47  1  0  0  0  0
 22 23  2  0  0  0  0
M  CHG  1   5   1
M  END
> <s_m_source_file>
AV-unprocessed.smi

> <i_m_source_file_index>
1088

> <i_lp_mmshare_version>
43012

> <i_f3d_flags>
0

> <s_epik_input>
W0NIM11PW0NIMl1bQ0gyXU4xW0NIMl1bQ0gyXVtDSDJdW0NASF0xW0NIMl1bTkhdQyg9TylbQ0gyXW4yW2NIXVtjSF1jKD1PKW4oW0NIM10pYzI9Tw==

> <s_epik_cmdline>
J2VwaWtfcHl0aG9uJywgJy1waCcsICc3LjAnLCAnLXRuJywgJzgnLCAnLW1hJywgJzIwMCcsICctbWV0YWxfYmluZGluZycsICctaW1hZScsICc8aW5maWxlLm1hZT4nLCAnLW9tYWUnLCAnPG91dGZpbGUubWFlPic=

> <r_lp_tautomer_probability>
1

> <r_epik_Ionization_Penalty>
0.0127388

> <r_epik_Ionization_Penalty_Charging>
0.0127387

> <r_epik_Ionization_Penalty_Neutral>
8.26414e-08

> <r_epik_State_Penalty>
0.00987716

> <r_epik_Charging_Adjusted_Penalty>
0.0226159

> <i_epik_Tot_Q>
1

> <i_epik_Tot_abs_Q>
1

> <r_epik_Metal_State_Penalty>
0.00987836

> <b_epik_Metal_Only>
0

> <s_lp_Force_Field>
OPLS_2005

> <r_lp_Energy>
37.5103

> <b_lp_Chiralities_Consistent>
1

> <s_lp_Variant>
AV-unprocessed.smi:1088-1

> <Gold.Version>
5.8.1

> <Gold.Id.Protein>
6NUR|6NUR_protein|mol2

> <Gold.PLP.Fitness>
41.8476

> <Gold.PLP.PLP>
-35.5793

> <Gold.PLP.part.hbond>
-3.0000

> <Gold.PLP.part.metal>
0.0000

> <Gold.PLP.part.buried>
-5.7238

> <Gold.PLP.part.nonpolar>
-28.5329

> <Gold.PLP.part.repulsive>
0.2004

> <Gold.PLP.ligand.clash>
0.0000

> <Gold.PLP.ligand.torsion>
0.8465

> <Gold.PLP.Chemscore.Hbond>
2.6028

> <Gold.PLP.Chemscore.CHOScore>
0.0000

> <Gold.PLP.Chemscore.Metal>
0.0000

> <Gold.Chemscore.Hbonds>
donor molecule, donor type, donor heavy atom, donor atom, acceptor molecule, acceptor atom, score
      L1  H    11    40       P1  7948  1.00
      P1  H  6896  6908       L1    23  0.65

> <Gold.PLP.Chemscore.Internal.Correction>
0.1531

> <Gold.Rescore>
     Score         DG    S(hbond)    S(metal)    S(lipo)     H(rot)  DE(clash)    DE(int)     intcor
     15.06     -15.99       2.86        0.00      64.49       2.57       0.01       0.92       ----

> <Gold.Chemscore.Fitness>
15.0618

> <Gold.Chemscore.DG>
-15.9894

> <Gold.Chemscore.ZeroCoef>
-5.4800

> <Gold.Chemscore.Hbond>
2.8565

> <Gold.Chemscore.Metal>
0.0000

> <Gold.Chemscore.Lipo>
64.4948

> <Gold.Chemscore.Internal_Hbond>
0.0000

> <Gold.Chemscore.DEClash>
0.0073

> <Gold.Chemscore.DEInternal>
0.9203

> <Gold.Chemscore.Rot>
2.5692

> <Gold.Chemscore.Internal.Correction>
   9.000000E+99

> <Gold.Chemscore.Hbonds>
donor molecule, donor type, donor heavy atom, donor atom, acceptor molecule, acceptor atom, score
      L1  H    11    40       P1  7948  0.93
      P1  H  6896  6908       L1    23  0.62
      P1  H 11000 11005       L1     2  0.05

> <Gold.Chemscore.Hbond.Weighted>
-9.5407

> <Gold.Chemscore.Metal.Weighted>
-0.0000

> <Gold.Chemscore.Lipo.Weighted>
-7.5459

> <Gold.Chemscore.Internal_Hbond.Weighted>
0.0000

> <Gold.Chemscore.DEClash.Weighted>
0.0073

> <Gold.Chemscore.DEInternal.Weighted>
0.9203

> <Gold.Chemscore.Rot.Weighted>
6.5772

> <Gold.Chemscore.Internal.Correction.Weighted>
   9.000000E+99

> <Gold.Protein.RotatedTorsions>
[ 6907 6896 6895 6894 ] final  105.68 input  -60.11 | X-H torsion
[ 7974 7965 7964 7962 ] final -165.42 input  175.53 | X-H torsion
[ 8008 7997 7996 7995 ] final  -29.51 input   59.86 | X-H torsion
[ 10167 10162 10161 10158 ] final  143.69 input  -65.29 | X-H torsion
[ 10718 10713 10712 10709 ] final -115.06 input   66.30 | X-H torsion
[ 10763 10752 10751 10750 ] final -178.92 input  -60.55 | X-H torsion
[ 11005 11000 10999 10996 ] final   13.97 input  -57.11 | X-H torsion

> <Gold.Protein.ActiveResidues>
 VAL166  LYS551  ARG553  GLY616  TRP617  ASP618  TYR619  PRO620  LYS621  CYS622 
 ASP623  PHE694  ASN695  SER759  ASP760  ASP761  ALA762  ILE779  LEU786  VAL792 
 PHE793  MET794  SER795  GLU796  ALA797  LYS798  CYS799  TRP800  GLU811  SER814 

> <Gold.Protein.RotatedAtoms>
  152.5222  133.9493  159.7663 H   0  0  0  0  0  0  0  0  0  0  0  0  # atno 6907 bound_to 6896
  150.9806  133.6241  159.2730 H   0  0  0  0  0  0  0  0  0  0  0  0  # atno 6908 bound_to 6896
  151.3419  135.0871  159.9427 H   0  0  0  0  0  0  0  0  0  0  0  0  # atno 6909 bound_to 6896
  144.7270  140.2816  143.6235 H   0  0  0  0  0  0  0  0  0  0  0  0  # atno 7974 bound_to 7965
  154.4287  140.1816  156.1260 H   0  0  0  0  0  0  0  0  0  0  0  0  # atno 8008 bound_to 7997
  156.0105  140.3351  155.6911 H   0  0  0  0  0  0  0  0  0  0  0  0  # atno 8009 bound_to 7997
  155.6117  140.0650  157.2695 H   0  0  0  0  0  0  0  0  0  0  0  0  # atno 8010 bound_to 7997
  139.4964  144.6023  151.6454 H   0  0  0  0  0  0  0  0  0  0  0  0  # atno 10167 bound_to 10162
  156.0870  130.6060  150.8856 H   0  0  0  0  0  0  0  0  0  0  0  0  # atno 10718 bound_to 10713
  154.5417  135.2806  155.1090 H   0  0  0  0  0  0  0  0  0  0  0  0  # atno 10763 bound_to 10752
  154.2570  135.6329  153.5264 H   0  0  0  0  0  0  0  0  0  0  0  0  # atno 10764 bound_to 10752
  152.9980  135.5596  154.5958 H   0  0  0  0  0  0  0  0  0  0  0  0  # atno 10765 bound_to 10752
  140.4747  134.0995  155.7739 H   0  0  0  0  0  0  0  0  0  0  0  0  # atno 11005 bound_to 11000
  145.7944  139.1939  143.2084 LP  0  0  0  0  0  0  0  0  0  0  0  0  # atno 17320 bound_to 7965
  146.0729  140.7849  142.9679 LP  0  0  0  0  0  0  0  0  0  0  0  0  # atno 17321 bound_to 7965
  140.5676  144.0164  150.6200 LP  0  0  0  0  0  0  0  0  0  0  0  0  # atno 17342 bound_to 10162
  140.3270  143.3101  152.0726 LP  0  0  0  0  0  0  0  0  0  0  0  0  # atno 17343 bound_to 10162
  157.6008  131.0941  150.8963 LP  0  0  0  0  0  0  0  0  0  0  0  0  # atno 17370 bound_to 10713
  156.9121  130.5284  149.5280 LP  0  0  0  0  0  0  0  0  0  0  0  0  # atno 17371 bound_to 10713
  141.1560  133.8882  157.1976 LP  0  0  0  0  0  0  0  0  0  0  0  0  # atno 17394 bound_to 11000
  139.9863  135.0081  156.9871 LP  0  0  0  0  0  0  0  0  0  0  0  0  # atno 17395 bound_to 11000

$$$$
