AV-unprocessed.smi:283|AV-procd|sdf|2147|dock3
  -GOLD-   2262021483D 1   1.00000     0.00000
 Structure written by MMmdl.
 48 51  0  0  0  0  0  0  0  0  1 V2000
  151.0325  141.6304  156.4875 C   0  0  0  0  0  0  0  0  0  0  0  0
  150.5234  141.5090  157.9298 C   0  0  2  0  0  0  0  0  0  0  0  0
  149.0624  141.4385  157.9362 N   0  0  0  0  0  0  0  0  0  0  0  0
  148.4332  140.3588  157.4221 C   0  0  0  0  0  0  0  0  0  0  0  0
  147.9427  139.4747  158.3231 N   0  0  0  0  0  0  0  0  0  0  0  0
  147.3480  138.3539  157.9051 C   0  0  0  0  0  0  0  0  0  0  0  0
  147.1526  137.9298  156.6553 N   0  0  0  0  0  0  0  0  0  0  0  0
  147.6333  138.8215  155.7410 C   0  0  0  0  0  0  0  0  0  0  0  0
  148.2610  140.0640  156.0384 C   0  0  0  0  0  0  0  0  0  0  0  0
  148.5622  140.7210  154.8522 N   0  0  0  0  0  0  0  0  0  0  0  0
  148.1582  139.9049  153.9190 C   0  0  0  0  0  0  0  0  0  0  0  0
  147.6391  138.7084  154.3651 N   0  0  0  0  0  0  0  0  0  0  0  0
  147.0992  137.5616  153.5621 C   0  0  1  0  0  0  0  0  0  0  0  0
  146.1944  136.8538  154.3615 O   0  0  0  0  0  0  0  0  0  0  0  0
  144.8517  137.2012  154.0337 C   0  0  1  0  0  0  0  0  0  0  0  0
  144.3877  138.4088  154.8815 C   0  0  0  0  0  0  0  0  0  0  0  0
  143.2146  138.9814  154.3420 O   0  0  0  0  0  0  0  0  0  0  0  0
  144.9394  137.4272  152.5185 C   0  0  1  0  0  0  0  0  0  0  0  0
  143.9113  138.2622  152.0224 O   0  0  0  0  0  0  0  0  0  0  0  0
  146.3150  138.0567  152.3269 C   0  0  2  0  0  0  0  0  0  0  0  0
  146.8911  137.5940  151.1215 O   0  0  0  0  0  0  0  0  0  0  0  0
  151.1166  142.6224  158.8003 C   0  0  0  0  0  0  0  0  0  0  0  0
  150.8075  143.9743  158.5205 C   0  0  0  0  0  0  0  0  0  0  0  0
  151.3232  145.0103  159.3212 C   0  0  0  0  0  0  0  0  0  0  0  0
  152.1651  144.7071  160.4059 C   0  0  0  0  0  0  0  0  0  0  0  0
  152.4963  143.3681  160.6819 C   0  0  0  0  0  0  0  0  0  0  0  0
  151.9823  142.3262  159.8839 C   0  0  0  0  0  0  0  0  0  0  0  0
  152.4368  140.7016  160.2637 Cl  0  0  0  0  0  0  0  0  0  0  0  0
  147.9785  136.9581  153.3329 H   0  0  0  0  0  0  0  0  0  0  0  0
  144.2150  136.3448  154.2602 H   0  0  0  0  0  0  0  0  0  0  0  0
  144.8895  136.4578  152.0192 H   0  0  0  0  0  0  0  0  0  0  0  0
  146.2473  139.1457  152.3283 H   0  0  0  0  0  0  0  0  0  0  0  0
  152.1219  141.5968  156.4535 H   0  0  0  0  0  0  0  0  0  0  0  0
  150.7141  142.5681  156.0306 H   0  0  0  0  0  0  0  0  0  0  0  0
  150.6598  140.8138  155.8683 H   0  0  0  0  0  0  0  0  0  0  0  0
  150.8677  140.5459  158.3018 H   0  0  0  0  0  0  0  0  0  0  0  0
  148.6198  142.0261  158.6274 H   0  0  0  0  0  0  0  0  0  0  0  0
  146.9877  137.6971  158.6830 H   0  0  0  0  0  0  0  0  0  0  0  0
  148.2458  140.1562  152.8723 H   0  0  0  0  0  0  0  0  0  0  0  0
  144.1425  138.0808  155.8913 H   0  0  0  0  0  0  0  0  0  0  0  0
  145.1652  139.1684  154.9685 H   0  0  0  0  0  0  0  0  0  0  0  0
  143.4639  139.6782  153.7541 H   0  0  0  0  0  0  0  0  0  0  0  0
  144.0890  139.1500  152.2936 H   0  0  0  0  0  0  0  0  0  0  0  0
  146.2201  137.1671  150.6113 H   0  0  0  0  0  0  0  0  0  0  0  0
  150.1622  144.2247  157.6913 H   0  0  0  0  0  0  0  0  0  0  0  0
  151.0715  146.0376  159.1030 H   0  0  0  0  0  0  0  0  0  0  0  0
  152.5611  145.5009  161.0220 H   0  0  0  0  0  0  0  0  0  0  0  0
  153.1503  143.1394  161.5106 H   0  0  0  0  0  0  0  0  0  0  0  0
  1  2  1  0  0  0  0
  1 33  1  0  0  0  0
  1 34  1  0  0  0  0
  1 35  1  0  0  0  0
  2  3  1  0  0  0  0
  2 22  1  0  0  0  0
  2 36  1  0  0  0  0
  3  4  1  0  0  0  0
  3 37  1  0  0  0  0
  4  9  1  0  0  0  0
  4  5  2  0  0  0  0
  5  6  1  0  0  0  0
  6  7  2  0  0  0  0
  6 38  1  0  0  0  0
  7  8  1  0  0  0  0
  8 12  1  0  0  0  0
  8  9  2  0  0  0  0
  9 10  1  0  0  0  0
 10 11  2  0  0  0  0
 11 12  1  0  0  0  0
 11 39  1  0  0  0  0
 12 13  1  0  0  0  0
 13 29  1  0  0  0  0
 13 20  1  0  0  0  0
 13 14  1  0  0  0  0
 14 15  1  0  0  0  0
 15 30  1  0  0  0  0
 15 16  1  0  0  0  0
 15 18  1  0  0  0  0
 16 17  1  0  0  0  0
 16 40  1  0  0  0  0
 16 41  1  0  0  0  0
 17 42  1  0  0  0  0
 18 31  1  0  0  0  0
 18 19  1  0  0  0  0
 18 20  1  0  0  0  0
 19 43  1  0  0  0  0
 20 32  1  0  0  0  0
 20 21  1  0  0  0  0
 21 44  1  0  0  0  0
 22 27  1  0  0  0  0
 22 23  2  0  0  0  0
 23 24  1  0  0  0  0
 23 45  1  0  0  0  0
 24 25  2  0  0  0  0
 24 46  1  0  0  0  0
 25 26  1  0  0  0  0
 25 47  1  0  0  0  0
 26 27  2  0  0  0  0
 26 48  1  0  0  0  0
 27 28  1  0  0  0  0
M  END
> <s_m_source_file>
AV-unprocessed.smi

> <i_m_source_file_index>
283

> <i_lp_mmshare_version>
43012

> <i_f3d_flags>
0

> <s_epik_input>
Q2xjMVtjSF1bY0hdW2NIXVtjSF1jMVtDQEhdKFtDSDNdKVtOSF1jKG5bY0hdbjIpYyhjMjMpbltjSF1uM1tDQEBIXTRPW0NASF0oW0NIMl1bT0hdKVtDQEBIXShbT0hdKVtDQEhdNFtPSF0=

> <s_epik_cmdline>
J2VwaWtfcHl0aG9uJywgJy1waCcsICc3LjAnLCAnLXRuJywgJzgnLCAnLW1hJywgJzIwMCcsICctbWV0YWxfYmluZGluZycsICctaW1hZScsICc8aW5maWxlLm1hZT4nLCAnLW9tYWUnLCAnPG91dGZpbGUubWFlPic=

> <r_lp_tautomer_probability>
1

> <r_epik_Ionization_Penalty>
0.000266407

> <r_epik_Ionization_Penalty_Charging>
0

> <r_epik_Ionization_Penalty_Neutral>
0.000266407

> <r_epik_State_Penalty>
-0

> <r_epik_Charging_Adjusted_Penalty>
0

> <i_epik_Tot_Q>
0

> <i_epik_Tot_abs_Q>
0

> <r_epik_Metal_State_Penalty>
-0

> <b_epik_Metal_Only>
0

> <s_epik_Chemistry_Notes>
This compound contains an acetal/aminal-like group ( X-CH(R)-Y where X, Y are N, S, or O) that may be acid/base labile, releasing an aldehyde.

> <s_lp_Force_Field>
OPLS_2005

> <r_lp_Energy>
42.7281

> <b_lp_Chiralities_Consistent>
1

> <s_lp_Variant>
AV-unprocessed.smi:283-23

> <Gold.Version>
5.8.1

> <Gold.Id.Protein>
6NUR|6NUR_protein|mol2

> <Gold.PLP.Fitness>
49.4075

> <Gold.PLP.PLP>
-40.3042

> <Gold.PLP.part.hbond>
-5.9112

> <Gold.PLP.part.metal>
0.0000

> <Gold.PLP.part.buried>
-4.1704

> <Gold.PLP.part.nonpolar>
-30.2455

> <Gold.PLP.part.repulsive>
0.3058

> <Gold.PLP.ligand.clash>
0.0000

> <Gold.PLP.ligand.torsion>
1.5014

> <Gold.PLP.Chemscore.Hbond>
2.9913

> <Gold.PLP.Chemscore.CHOScore>
1.0000

> <Gold.PLP.Chemscore.Metal>
0.0000

> <Gold.Chemscore.Hbonds>
donor molecule, donor type, donor heavy atom, donor atom, acceptor molecule, acceptor atom, score
      L1  H    17    42       P1 10175  0.89
      L1  H    19    43       P1 10175  0.57
      P1  H  7954  7966       L1    21  1.00
      L1  C    11    39       P1  7957  1.00

> <Gold.PLP.Chemscore.Internal.Correction>
0.1323

> <Gold.Rescore>
     Score         DG    S(hbond)    S(metal)    S(lipo)     H(rot)  DE(clash)    DE(int)     intcor
     11.84     -16.42       2.78        0.00     103.83       4.10       1.51       3.06       ----

> <Gold.Chemscore.Fitness>
11.8430

> <Gold.Chemscore.DG>
-16.4168

> <Gold.Chemscore.ZeroCoef>
-5.4800

> <Gold.Chemscore.Hbond>
2.7774

> <Gold.Chemscore.Metal>
0.0000

> <Gold.Chemscore.Lipo>
103.8322

> <Gold.Chemscore.Internal_Hbond>
0.0000

> <Gold.Chemscore.DEClash>
1.5136

> <Gold.Chemscore.DEInternal>
3.0603

> <Gold.Chemscore.Rot>
4.0968

> <Gold.Chemscore.Internal.Correction>
   9.000000E+99

> <Gold.Chemscore.Hbonds>
donor molecule, donor type, donor heavy atom, donor atom, acceptor molecule, acceptor atom, score
      L1  H    17    42       P1 10175  0.87
      L1  H    19    43       P1 10175  0.54
      P1  H  7954  7966       L1    21  0.35

> <Gold.Chemscore.Hbond.Weighted>
-9.2764

> <Gold.Chemscore.Metal.Weighted>
-0.0000

> <Gold.Chemscore.Lipo.Weighted>
-12.1484

> <Gold.Chemscore.Internal_Hbond.Weighted>
0.0000

> <Gold.Chemscore.DEClash.Weighted>
1.5136

> <Gold.Chemscore.DEInternal.Weighted>
3.0603

> <Gold.Chemscore.Rot.Weighted>
10.4879

> <Gold.Chemscore.Internal.Correction.Weighted>
   9.000000E+99

> <Gold.Protein.RotatedTorsions>
[ 6907 6896 6895 6894 ] final -109.40 input  -60.11 | X-H torsion
[ 7974 7965 7964 7962 ] final -141.40 input  175.53 | X-H torsion
[ 8008 7997 7996 7995 ] final  170.09 input   59.86 | X-H torsion
[ 10167 10162 10161 10158 ] final -109.60 input  -65.29 | X-H torsion
[ 10718 10713 10712 10709 ] final   78.35 input   66.30 | X-H torsion
[ 10763 10752 10751 10750 ] final   29.17 input  -60.55 | X-H torsion
[ 11005 11000 10999 10996 ] final  157.70 input  -57.11 | X-H torsion

> <Gold.Protein.ActiveResidues>
 VAL166  LYS551  ARG553  GLY616  TRP617  ASP618  TYR619  PRO620  LYS621  CYS622 
 ASP623  PHE694  ASN695  SER759  ASP760  ASP761  ALA762  ILE779  LEU786  VAL792 
 PHE793  MET794  SER795  GLU796  ALA797  LYS798  CYS799  TRP800  GLU811  SER814 

> <Gold.Protein.RotatedAtoms>
  150.7560  133.9534  159.3492 H   0  0  0  0  0  0  0  0  0  0  0  0  # atno 6907 bound_to 6896
  151.7454  135.0843  160.0332 H   0  0  0  0  0  0  0  0  0  0  0  0  # atno 6908 bound_to 6896
  152.3501  133.6132  159.5975 H   0  0  0  0  0  0  0  0  0  0  0  0  # atno 6909 bound_to 6896
  144.8522  140.6084  143.5383 H   0  0  0  0  0  0  0  0  0  0  0  0  # atno 7974 bound_to 7965
  156.1397  140.1547  156.8939 H   0  0  0  0  0  0  0  0  0  0  0  0  # atno 8008 bound_to 7997
  154.4977  140.0833  156.7770 H   0  0  0  0  0  0  0  0  0  0  0  0  # atno 8009 bound_to 7997
  155.4102  140.3418  155.4265 H   0  0  0  0  0  0  0  0  0  0  0  0  # atno 8010 bound_to 7997
  140.1536  143.4179  152.1477 H   0  0  0  0  0  0  0  0  0  0  0  0  # atno 10167 bound_to 10162
  157.6742  130.9864  150.1774 H   0  0  0  0  0  0  0  0  0  0  0  0  # atno 10718 bound_to 10713
  153.0447  135.6495  154.0849 H   0  0  0  0  0  0  0  0  0  0  0  0  # atno 10763 bound_to 10752
  154.0549  135.2892  155.3336 H   0  0  0  0  0  0  0  0  0  0  0  0  # atno 10764 bound_to 10752
  154.6695  135.5361  153.8186 H   0  0  0  0  0  0  0  0  0  0  0  0  # atno 10765 bound_to 10752
  140.1795  134.8486  157.2786 H   0  0  0  0  0  0  0  0  0  0  0  0  # atno 11005 bound_to 11000
  145.4477  139.1527  143.3935 LP  0  0  0  0  0  0  0  0  0  0  0  0  # atno 17320 bound_to 7965
  146.2794  140.4602  142.8782 LP  0  0  0  0  0  0  0  0  0  0  0  0  # atno 17321 bound_to 7965
  139.5414  144.7260  151.4721 LP  0  0  0  0  0  0  0  0  0  0  0  0  # atno 17342 bound_to 10162
  140.6687  143.8341  150.6973 LP  0  0  0  0  0  0  0  0  0  0  0  0  # atno 17343 bound_to 10162
  156.2515  130.3701  149.8228 LP  0  0  0  0  0  0  0  0  0  0  0  0  # atno 17370 bound_to 10713
  156.5999  130.8542  151.3429 LP  0  0  0  0  0  0  0  0  0  0  0  0  # atno 17371 bound_to 10713
  140.2284  134.3939  155.7533 LP  0  0  0  0  0  0  0  0  0  0  0  0  # atno 17394 bound_to 11000
  141.2222  133.7202  156.8601 LP  0  0  0  0  0  0  0  0  0  0  0  0  # atno 17395 bound_to 11000

$$$$
