AV-unprocessed.smi:275|AV-procd|sdf|2066|dock5
  -GOLD-   2262021313D 1   1.00000     0.00000
 Structure written by MMmdl.
 65 69  0  0  0  0  0  0  0  0  1 V2000
  150.8559  139.9907  154.9082 C   0  0  0  0  0  0  0  0  0  0  0  0
  152.0519  139.6113  155.7991 C   0  0  0  0  0  0  0  0  0  0  0  0
  152.4769  138.1693  155.4751 C   0  0  0  0  0  0  0  0  0  0  0  0
  151.7392  139.7758  157.2965 C   0  0  2  0  0  0  0  0  0  0  0  0
  150.3270  139.5976  157.6254 N   0  0  0  0  0  0  0  0  0  0  0  0
  149.9391  138.2829  158.0026 C   0  0  0  0  0  0  0  0  0  0  0  0
  149.7914  137.9313  159.3094 N   0  0  0  0  0  0  0  0  0  0  0  0
  149.4348  136.6889  159.6485 C   0  0  0  0  0  0  0  0  0  0  0  0
  149.1821  135.6480  158.8537 N   0  0  0  0  0  0  0  0  0  0  0  0
  149.3297  135.9886  157.5424 C   0  0  0  0  0  0  0  0  0  0  0  0
  149.6974  137.2675  157.0389 C   0  0  0  0  0  0  0  0  0  0  0  0
  149.7495  137.2344  155.6509 N   0  0  0  0  0  0  0  0  0  0  0  0
  149.4328  136.0043  155.3501 C   0  0  0  0  0  0  0  0  0  0  0  0
  149.1702  135.1875  156.4267 N   0  0  0  0  0  0  0  0  0  0  0  0
  148.8016  133.7839  156.3885 C   0  0  0  0  0  0  0  0  0  0  0  0
  149.3825  133.0361  155.1628 C   0  0  2  0  0  0  0  0  0  0  0  0
  148.3555  132.8860  154.0139 C   0  0  0  0  0  0  0  0  0  0  0  0
  147.9279  134.1443  153.5340 O   0  0  0  0  0  0  0  0  0  0  0  0
  150.0181  131.6838  155.5722 C   0  0  1  0  0  0  0  0  0  0  0  0
  150.4378  130.7954  154.4141 C   0  0  0  0  0  0  0  0  0  0  0  0
  151.4178  129.8339  155.0786 C   0  0  0  0  0  0  0  0  0  0  0  0
  152.0253  130.5676  156.1360 O   0  0  0  0  0  0  0  0  0  0  0  0
  151.3507  131.8078  156.3184 C   0  0  0  0  0  0  0  0  0  0  0  0
  150.4460  140.5307  158.7360 C   0  0  0  0  0  0  0  0  0  0  0  0
  151.6197  141.1644  157.9720 C   0  0  0  0  0  0  0  0  0  0  0  0
  152.8275  141.5874  158.8236 C   0  0  0  0  0  0  0  0  0  0  0  0
  152.5471  142.8340  159.6791 C   0  0  0  0  0  0  0  0  0  0  0  0
  152.1136  144.0191  158.8070 C   0  0  0  0  0  0  0  0  0  0  0  0
  150.9323  143.6396  157.9050 C   0  0  0  0  0  0  0  0  0  0  0  0
  151.2423  142.3742  157.0864 C   0  0  0  0  0  0  0  0  0  0  0  0
  149.9707  139.4065  155.1624 H   0  0  0  0  0  0  0  0  0  0  0  0
  151.0793  139.8156  153.8554 H   0  0  0  0  0  0  0  0  0  0  0  0
  150.5996  141.0444  155.0052 H   0  0  0  0  0  0  0  0  0  0  0  0
  152.8824  140.2648  155.5291 H   0  0  0  0  0  0  0  0  0  0  0  0
  151.6776  137.4644  155.7063 H   0  0  0  0  0  0  0  0  0  0  0  0
  153.3550  137.8622  156.0397 H   0  0  0  0  0  0  0  0  0  0  0  0
  152.7197  138.0596  154.4177 H   0  0  0  0  0  0  0  0  0  0  0  0
  152.3682  139.1282  157.9108 H   0  0  0  0  0  0  0  0  0  0  0  0
  149.3406  136.5022  160.7080 H   0  0  0  0  0  0  0  0  0  0  0  0
  149.3898  135.6541  154.3289 H   0  0  0  0  0  0  0  0  0  0  0  0
  149.1471  133.3290  157.3171 H   0  0  0  0  0  0  0  0  0  0  0  0
  147.7133  133.7113  156.3959 H   0  0  0  0  0  0  0  0  0  0  0  0
  150.1875  133.6574  154.7676 H   0  0  0  0  0  0  0  0  0  0  0  0
  148.7780  132.3209  153.1829 H   0  0  0  0  0  0  0  0  0  0  0  0
  147.4836  132.3211  154.3423 H   0  0  0  0  0  0  0  0  0  0  0  0
  148.6042  134.4989  152.9773 H   0  0  0  0  0  0  0  0  0  0  0  0
  149.3219  131.1270  156.2013 H   0  0  0  0  0  0  0  0  0  0  0  0
  149.6026  130.2761  153.9436 H   0  0  0  0  0  0  0  0  0  0  0  0
  150.9508  131.3810  153.6497 H   0  0  0  0  0  0  0  0  0  0  0  0
  150.8860  128.9841  155.5080 H   0  0  0  0  0  0  0  0  0  0  0  0
  152.1619  129.4501  154.3803 H   0  0  0  0  0  0  0  0  0  0  0  0
  151.9657  132.5979  155.8852 H   0  0  0  0  0  0  0  0  0  0  0  0
  151.2182  132.0267  157.3782 H   0  0  0  0  0  0  0  0  0  0  0  0
  149.5751  141.1752  158.8557 H   0  0  0  0  0  0  0  0  0  0  0  0
  150.7450  140.0723  159.6802 H   0  0  0  0  0  0  0  0  0  0  0  0
  153.1304  140.7715  159.4806 H   0  0  0  0  0  0  0  0  0  0  0  0
  153.6874  141.7801  158.1811 H   0  0  0  0  0  0  0  0  0  0  0  0
  151.7658  142.6101  160.4067 H   0  0  0  0  0  0  0  0  0  0  0  0
  153.4352  143.1004  160.2529 H   0  0  0  0  0  0  0  0  0  0  0  0
  151.8489  144.8708  159.4344 H   0  0  0  0  0  0  0  0  0  0  0  0
  152.9531  144.3394  158.1884 H   0  0  0  0  0  0  0  0  0  0  0  0
  150.0441  143.4763  158.5159 H   0  0  0  0  0  0  0  0  0  0  0  0
  150.6962  144.4674  157.2358 H   0  0  0  0  0  0  0  0  0  0  0  0
  152.0468  142.6058  156.3899 H   0  0  0  0  0  0  0  0  0  0  0  0
  150.3770  142.1396  156.4653 H   0  0  0  0  0  0  0  0  0  0  0  0
  1  2  1  0  0  0  0
  1 31  1  0  0  0  0
  1 32  1  0  0  0  0
  1 33  1  0  0  0  0
  2  3  1  0  0  0  0
  2  4  1  0  0  0  0
  2 34  1  0  0  0  0
  3 35  1  0  0  0  0
  3 36  1  0  0  0  0
  3 37  1  0  0  0  0
  4 25  1  0  0  0  0
  4  5  1  0  0  0  0
  4 38  1  0  0  0  0
  5  6  1  0  0  0  0
  5 24  1  0  0  0  0
  6 11  1  0  0  0  0
  6  7  2  0  0  0  0
  7  8  1  0  0  0  0
  8  9  2  0  0  0  0
  8 39  1  0  0  0  0
  9 10  1  0  0  0  0
 10 14  1  0  0  0  0
 10 11  2  0  0  0  0
 11 12  1  0  0  0  0
 12 13  2  0  0  0  0
 13 14  1  0  0  0  0
 13 40  1  0  0  0  0
 14 15  1  0  0  0  0
 15 16  1  0  0  0  0
 15 41  1  0  0  0  0
 15 42  1  0  0  0  0
 16 17  1  0  0  0  0
 16 19  1  0  0  0  0
 16 43  1  0  0  0  0
 17 18  1  0  0  0  0
 17 44  1  0  0  0  0
 17 45  1  0  0  0  0
 18 46  1  0  0  0  0
 19 23  1  0  0  0  0
 19 20  1  0  0  0  0
 19 47  1  0  0  0  0
 20 21  1  0  0  0  0
 20 48  1  0  0  0  0
 20 49  1  0  0  0  0
 21 22  1  0  0  0  0
 21 50  1  0  0  0  0
 21 51  1  0  0  0  0
 22 23  1  0  0  0  0
 23 52  1  0  0  0  0
 23 53  1  0  0  0  0
 24 25  1  0  0  0  0
 24 54  1  0  0  0  0
 24 55  1  0  0  0  0
 25 30  1  0  0  0  0
 25 26  1  0  0  0  0
 26 27  1  0  0  0  0
 26 56  1  0  0  0  0
 26 57  1  0  0  0  0
 27 28  1  0  0  0  0
 27 58  1  0  0  0  0
 27 59  1  0  0  0  0
 28 29  1  0  0  0  0
 28 60  1  0  0  0  0
 28 61  1  0  0  0  0
 29 30  1  0  0  0  0
 29 62  1  0  0  0  0
 29 63  1  0  0  0  0
 30 64  1  0  0  0  0
 30 65  1  0  0  0  0
M  END
> <s_m_source_file>
AV-unprocessed.smi

> <i_m_source_file_index>
275

> <i_lp_mmshare_version>
43012

> <i_f3d_flags>
0

> <s_epik_input>
W0NIMl0xW0NIMl1bQ0gyXVtDSDJdW0NIMl1DMTJbQ0BIXShbQ0hdKFtDSDNdKVtDSDNdKU4oW0NIMl0yKWMobltjSF1uMyljKGMzNCluW2NIXW40W0NIMl1bQ0BIXShbQ0gyXVtPSF0pW0NAQEhdNVtDSDJdW0NIMl1PW0NIMl01

> <s_epik_cmdline>
J2VwaWtfcHl0aG9uJywgJy1waCcsICc3LjAnLCAnLXRuJywgJzgnLCAnLW1hJywgJzIwMCcsICctbWV0YWxfYmluZGluZycsICctaW1hZScsICc8aW5maWxlLm1hZT4nLCAnLW9tYWUnLCAnPG91dGZpbGUubWFlPic=

> <r_lp_tautomer_probability>
1

> <r_epik_Ionization_Penalty>
0.00375122

> <r_epik_Ionization_Penalty_Charging>
0

> <r_epik_Ionization_Penalty_Neutral>
0.00375122

> <r_epik_State_Penalty>
0.00260593

> <r_epik_Charging_Adjusted_Penalty>
0.00260593

> <i_epik_Tot_Q>
0

> <i_epik_Tot_abs_Q>
0

> <r_epik_Metal_State_Penalty>
-0

> <b_epik_Metal_Only>
0

> <s_lp_Force_Field>
OPLS_2005

> <r_lp_Energy>
62.8916

> <b_lp_Chiralities_Consistent>
1

> <s_lp_Variant>
AV-unprocessed.smi:275-5

> <Gold.Version>
5.8.1

> <Gold.Id.Protein>
6NUR|6NUR_protein|mol2

> <Gold.PLP.Fitness>
48.8031

> <Gold.PLP.PLP>
-43.7334

> <Gold.PLP.part.hbond>
-3.0000

> <Gold.PLP.part.metal>
0.0000

> <Gold.PLP.part.buried>
-3.2450

> <Gold.PLP.part.nonpolar>
-38.1922

> <Gold.PLP.part.repulsive>
0.0725

> <Gold.PLP.ligand.clash>
0.0000

> <Gold.PLP.ligand.torsion>
2.0335

> <Gold.PLP.Chemscore.Hbond>
1.8320

> <Gold.PLP.Chemscore.CHOScore>
1.0000

> <Gold.PLP.Chemscore.Metal>
0.0000

> <Gold.Chemscore.Hbonds>
donor molecule, donor type, donor heavy atom, donor atom, acceptor molecule, acceptor atom, score
      L1  H    18    46       P1  7948  0.69
      P1  H  6896  6909       L1     9  1.00
      L1  C    13    40       P1  7948  0.97

> <Gold.PLP.Chemscore.Internal.Correction>
0.6407

> <Gold.Rescore>
     Score         DG    S(hbond)    S(metal)    S(lipo)     H(rot)  DE(clash)    DE(int)     intcor
     13.41     -17.88       1.19        0.00     127.56       2.54       1.33       3.14       ----

> <Gold.Chemscore.Fitness>
13.4058

> <Gold.Chemscore.DG>
-17.8781

> <Gold.Chemscore.ZeroCoef>
-5.4800

> <Gold.Chemscore.Hbond>
1.1886

> <Gold.Chemscore.Metal>
0.0000

> <Gold.Chemscore.Lipo>
127.5606

> <Gold.Chemscore.Internal_Hbond>
0.0000

> <Gold.Chemscore.DEClash>
1.3307

> <Gold.Chemscore.DEInternal>
3.1415

> <Gold.Chemscore.Rot>
2.5377

> <Gold.Chemscore.Internal.Correction>
   9.000000E+99

> <Gold.Chemscore.Hbonds>
donor molecule, donor type, donor heavy atom, donor atom, acceptor molecule, acceptor atom, score
      L1  H    18    46       P1  7948  0.13
      P1  H  6896  6909       L1     9  0.19

> <Gold.Chemscore.Hbond.Weighted>
-3.9701

> <Gold.Chemscore.Metal.Weighted>
-0.0000

> <Gold.Chemscore.Lipo.Weighted>
-14.9246

> <Gold.Chemscore.Internal_Hbond.Weighted>
0.0000

> <Gold.Chemscore.DEClash.Weighted>
1.3307

> <Gold.Chemscore.DEInternal.Weighted>
3.1415

> <Gold.Chemscore.Rot.Weighted>
6.4966

> <Gold.Chemscore.Internal.Correction.Weighted>
   9.000000E+99

> <Gold.Protein.RotatedTorsions>
[ 6907 6896 6895 6894 ] final   35.19 input  -60.11 | X-H torsion
[ 7974 7965 7964 7962 ] final -115.08 input  175.53 | X-H torsion
[ 8008 7997 7996 7995 ] final  172.35 input   59.86 | X-H torsion
[ 10167 10162 10161 10158 ] final  153.96 input  -65.29 | X-H torsion
[ 10718 10713 10712 10709 ] final  129.87 input   66.30 | X-H torsion
[ 10763 10752 10751 10750 ] final  137.98 input  -60.55 | X-H torsion
[ 11005 11000 10999 10996 ] final   44.20 input  -57.11 | X-H torsion

> <Gold.Protein.ActiveResidues>
 VAL166  LYS551  ARG553  GLY616  TRP617  ASP618  TYR619  PRO620  LYS621  CYS622 
 ASP623  PHE694  ASN695  SER759  ASP760  ASP761  ALA762  ILE779  LEU786  VAL792 
 PHE793  MET794  SER795  GLU796  ALA797  LYS798  CYS799  TRP800  GLU811  SER814 

> <Gold.Protein.RotatedAtoms>
  152.1127  134.9262  160.0565 H   0  0  0  0  0  0  0  0  0  0  0  0  # atno 6907 bound_to 6896
  152.0433  133.3982  159.4354 H   0  0  0  0  0  0  0  0  0  0  0  0  # atno 6908 bound_to 6896
  150.6844  134.3310  159.4871 H   0  0  0  0  0  0  0  0  0  0  0  0  # atno 6909 bound_to 6896
  145.1126  140.8621  143.3861 H   0  0  0  0  0  0  0  0  0  0  0  0  # atno 7974 bound_to 7965
  156.1182  140.1488  156.9242 H   0  0  0  0  0  0  0  0  0  0  0  0  # atno 8008 bound_to 7997
  154.4816  140.0877  156.7433 H   0  0  0  0  0  0  0  0  0  0  0  0  # atno 8009 bound_to 7997
  155.4475  140.3433  155.4299 H   0  0  0  0  0  0  0  0  0  0  0  0  # atno 8010 bound_to 7997
  139.4825  144.5228  151.7848 H   0  0  0  0  0  0  0  0  0  0  0  0  # atno 10167 bound_to 10162
  157.5115  131.1097  150.9286 H   0  0  0  0  0  0  0  0  0  0  0  0  # atno 10718 bound_to 10713
  153.8820  135.3043  155.3445 H   0  0  0  0  0  0  0  0  0  0  0  0  # atno 10763 bound_to 10752
  154.7757  135.4862  153.9742 H   0  0  0  0  0  0  0  0  0  0  0  0  # atno 10764 bound_to 10752
  153.1346  135.6811  153.9220 H   0  0  0  0  0  0  0  0  0  0  0  0  # atno 10765 bound_to 10752
  140.1574  134.4385  155.8341 H   0  0  0  0  0  0  0  0  0  0  0  0  # atno 11005 bound_to 11000
  145.0829  139.2946  143.5774 LP  0  0  0  0  0  0  0  0  0  0  0  0  # atno 17320 bound_to 7965
  146.3525  140.0342  142.8648 LP  0  0  0  0  0  0  0  0  0  0  0  0  # atno 17321 bound_to 7965
  140.4745  144.1540  150.5923 LP  0  0  0  0  0  0  0  0  0  0  0  0  # atno 17342 bound_to 10162
  140.4346  143.2553  151.9551 LP  0  0  0  0  0  0  0  0  0  0  0  0  # atno 17343 bound_to 10162
  156.9925  130.5569  149.5304 LP  0  0  0  0  0  0  0  0  0  0  0  0  # atno 17370 bound_to 10713
  156.0292  130.5384  150.8489 LP  0  0  0  0  0  0  0  0  0  0  0  0  # atno 17371 bound_to 10713
  141.2206  133.6898  156.7531 LP  0  0  0  0  0  0  0  0  0  0  0  0  # atno 17394 bound_to 11000
  140.2531  134.8525  157.3687 LP  0  0  0  0  0  0  0  0  0  0  0  0  # atno 17395 bound_to 11000

$$$$
