AV-unprocessed.smi:2526|AV-procd|sdf|9939|dock7
  -GOLD-   2272013583D 1   1.00000     0.00000
 Structure written by MMmdl.
 28 29  0  0  0  0  0  0  0  0  1 V2000
  142.1400  137.4721  153.4959 C   0  0  0  0  0  0  0  0  0  0  0  0
  142.8271  136.3332  152.9258 N   0  0  0  0  0  0  0  0  0  0  0  0
  143.8335  136.3179  151.9852 C   0  0  0  0  0  0  0  0  0  0  0  0
  144.1727  135.0111  151.7601 C   0  0  0  0  0  0  0  0  0  0  0  0
  145.2186  134.4296  150.8282 C   0  0  1  0  0  0  0  0  0  0  0  0
  146.4897  134.2384  151.5324 N   0  0  0  0  0  0  0  0  0  0  0  0
  146.9511  133.0880  152.0587 C   0  0  0  0  0  0  0  0  0  0  0  0
  147.9778  133.0600  152.7331 O   0  0  0  0  0  0  0  0  0  0  0  0
  146.2058  131.7739  151.7674 C   0  0  0  0  0  0  0  0  0  0  0  0
  144.7921  131.9616  151.1884 C   0  0  0  0  0  0  0  0  0  0  0  0
  144.7707  133.1038  150.1650 C   0  0  1  0  0  0  0  0  0  0  0  0
  143.4679  133.2090  149.5327 N   0  0  0  0  0  0  0  0  0  0  0  0
  143.2926  134.2979  152.6252 C   0  0  0  0  0  0  0  0  0  0  0  0
  142.4912  135.0887  153.3196 N   0  0  0  0  0  0  0  0  0  0  0  0
  142.5492  138.3975  153.0895 H   0  0  0  0  0  0  0  0  0  0  0  0
  142.2660  137.4752  154.5789 H   0  0  0  0  0  0  0  0  0  0  0  0
  141.0773  137.4196  153.2577 H   0  0  0  0  0  0  0  0  0  0  0  0
  144.2262  137.2301  151.5603 H   0  0  0  0  0  0  0  0  0  0  0  0
  145.4217  135.1453  150.0307 H   0  0  0  0  0  0  0  0  0  0  0  0
  147.0305  135.0731  151.7072 H   0  0  0  0  0  0  0  0  0  0  0  0
  146.8119  131.2142  151.0544 H   0  0  0  0  0  0  0  0  0  0  0  0
  146.1606  131.1709  152.6746 H   0  0  0  0  0  0  0  0  0  0  0  0
  144.4676  131.0308  150.7217 H   0  0  0  0  0  0  0  0  0  0  0  0
  144.0855  132.1602  151.9956 H   0  0  0  0  0  0  0  0  0  0  0  0
  145.4815  132.8583  149.3746 H   0  0  0  0  0  0  0  0  0  0  0  0
  142.9746  134.0108  149.8984 H   0  0  0  0  0  0  0  0  0  0  0  0
  143.5814  133.3658  148.5413 H   0  0  0  0  0  0  0  0  0  0  0  0
  143.2161  133.2302  152.7688 H   0  0  0  0  0  0  0  0  0  0  0  0
  1  2  1  0  0  0  0
  1 15  1  0  0  0  0
  1 16  1  0  0  0  0
  1 17  1  0  0  0  0
  2 14  1  0  0  0  0
  2  3  1  0  0  0  0
  3  4  2  0  0  0  0
  3 18  1  0  0  0  0
  4  5  1  0  0  0  0
  4 13  1  0  0  0  0
  5 11  1  0  0  0  0
  5  6  1  0  0  0  0
  5 19  1  0  0  0  0
  6  7  1  0  0  0  0
  6 20  1  0  0  0  0
  7  8  2  0  0  0  0
  7  9  1  0  0  0  0
  9 10  1  0  0  0  0
  9 21  1  0  0  0  0
  9 22  1  0  0  0  0
 10 11  1  0  0  0  0
 10 23  1  0  0  0  0
 10 24  1  0  0  0  0
 11 12  1  0  0  0  0
 11 25  1  0  0  0  0
 12 26  1  0  0  0  0
 12 27  1  0  0  0  0
 13 14  2  0  0  0  0
 13 28  1  0  0  0  0
M  END
> <s_m_source_file>
AV-unprocessed.smi

> <i_m_source_file_index>
2526

> <i_lp_mmshare_version>
43012

> <i_f3d_flags>
0

> <s_epik_input>
W0NIM11uMVtjSF1jKFtjSF1uMSlbQ0BASF0yW05IXUMoPU8pW0NIMl1bQ0gyXVtDQEhdMltOSDJd

> <s_epik_cmdline>
J2VwaWtfcHl0aG9uJywgJy1waCcsICc3LjAnLCAnLXRuJywgJzgnLCAnLW1hJywgJzIwMCcsICctbWV0YWxfYmluZGluZycsICctaW1hZScsICc8aW5maWxlLm1hZT4nLCAnLW9tYWUnLCAnPG91dGZpbGUubWFlPic=

> <r_lp_tautomer_probability>
1

> <r_epik_Ionization_Penalty>
2.50279

> <r_epik_Ionization_Penalty_Charging>
0

> <r_epik_Ionization_Penalty_Neutral>
2.50279

> <r_epik_State_Penalty>
2.66754

> <r_epik_Charging_Adjusted_Penalty>
2.66754

> <i_epik_Tot_Q>
0

> <i_epik_Tot_abs_Q>
0

> <r_epik_Metal_State_Penalty>
2.66721

> <b_epik_Metal_Only>
0

> <s_lp_Force_Field>
OPLS_2005

> <r_lp_Energy>
9.07018

> <b_lp_Chiralities_Consistent>
1

> <s_lp_Variant>
AV-unprocessed.smi:2526-6

> <Gold.Version>
5.8.1

> <Gold.Id.Protein>
6NUR|6NUR_protein|mol2

> <Gold.PLP.Fitness>
32.3255

> <Gold.PLP.PLP>
-24.5201

> <Gold.PLP.part.hbond>
-1.6463

> <Gold.PLP.part.metal>
0.0000

> <Gold.PLP.part.buried>
-5.6078

> <Gold.PLP.part.nonpolar>
-18.4549

> <Gold.PLP.part.repulsive>
0.4086

> <Gold.PLP.ligand.clash>
0.0000

> <Gold.PLP.ligand.torsion>
0.6944

> <Gold.PLP.Chemscore.Hbond>
1.0604

> <Gold.PLP.Chemscore.CHOScore>
1.9985

> <Gold.PLP.Chemscore.Metal>
0.0000

> <Gold.Chemscore.Hbonds>
donor molecule, donor type, donor heavy atom, donor atom, acceptor molecule, acceptor atom, score
      L1  H     6    20       P1  7948  0.55
      L1  H    12    26       P1 10186  0.48
      L1  C     3    18       P1 10171  1.00
      L1  C    13    28       P1 10957  0.98

> <Gold.PLP.Chemscore.Internal.Correction>
0.0176

> <Gold.Rescore>
     Score         DG    S(hbond)    S(metal)    S(lipo)     H(rot)  DE(clash)    DE(int)     intcor
     11.48     -12.03       1.02        0.00      48.81       1.00       0.04       0.51       ----

> <Gold.Chemscore.Fitness>
11.4766

> <Gold.Chemscore.DG>
-12.0275

> <Gold.Chemscore.ZeroCoef>
-5.4800

> <Gold.Chemscore.Hbond>
1.0170

> <Gold.Chemscore.Metal>
0.0000

> <Gold.Chemscore.Lipo>
48.8091

> <Gold.Chemscore.Internal_Hbond>
0.0000

> <Gold.Chemscore.DEClash>
0.0368

> <Gold.Chemscore.DEInternal>
0.5140

> <Gold.Chemscore.Rot>
1.0000

> <Gold.Chemscore.Internal.Correction>
   9.000000E+99

> <Gold.Chemscore.Hbonds>
donor molecule, donor type, donor heavy atom, donor atom, acceptor molecule, acceptor atom, score
      L1  H     6    20       P1  7948  0.52
      L1  H    12    26       P1 10186  0.46

> <Gold.Chemscore.Hbond.Weighted>
-3.3968

> <Gold.Chemscore.Metal.Weighted>
-0.0000

> <Gold.Chemscore.Lipo.Weighted>
-5.7107

> <Gold.Chemscore.Internal_Hbond.Weighted>
0.0000

> <Gold.Chemscore.DEClash.Weighted>
0.0368

> <Gold.Chemscore.DEInternal.Weighted>
0.5140

> <Gold.Chemscore.Rot.Weighted>
2.5600

> <Gold.Chemscore.Internal.Correction.Weighted>
   9.000000E+99

> <Gold.Protein.RotatedTorsions>
[ 6907 6896 6895 6894 ] final   70.09 input  -60.11 | X-H torsion
[ 7974 7965 7964 7962 ] final   55.23 input  175.53 | X-H torsion
[ 8008 7997 7996 7995 ] final  -33.86 input   59.86 | X-H torsion
[ 10167 10162 10161 10158 ] final   22.04 input  -65.29 | X-H torsion
[ 10718 10713 10712 10709 ] final  109.60 input   66.30 | X-H torsion
[ 10763 10752 10751 10750 ] final   -9.28 input  -60.55 | X-H torsion
[ 11005 11000 10999 10996 ] final  124.58 input  -57.11 | X-H torsion

> <Gold.Protein.ActiveResidues>
 VAL166  LYS551  ARG553  GLY616  TRP617  ASP618  TYR619  PRO620  LYS621  CYS622 
 ASP623  PHE694  ASN695  SER759  ASP760  ASP761  ALA762  ILE779  LEU786  VAL792 
 PHE793  MET794  SER795  GLU796  ALA797  LYS798  CYS799  TRP800  GLU811  SER814 

> <Gold.Protein.RotatedAtoms>
  152.4728  134.4919  159.9697 H   0  0  0  0  0  0  0  0  0  0  0  0  # atno 6907 bound_to 6896
  151.4942  133.3512  159.2866 H   0  0  0  0  0  0  0  0  0  0  0  0  # atno 6908 bound_to 6896
  150.8747  134.8155  159.7242 H   0  0  0  0  0  0  0  0  0  0  0  0  # atno 6909 bound_to 6896
  145.9526  139.3985  143.0297 H   0  0  0  0  0  0  0  0  0  0  0  0  # atno 7974 bound_to 7965
  154.4137  140.1699  156.1957 H   0  0  0  0  0  0  0  0  0  0  0  0  # atno 8008 bound_to 7997
  155.9566  140.3397  155.6430 H   0  0  0  0  0  0  0  0  0  0  0  0  # atno 8009 bound_to 7997
  155.6802  140.0721  157.2478 H   0  0  0  0  0  0  0  0  0  0  0  0  # atno 8010 bound_to 7997
  140.5379  143.9728  150.6502 H   0  0  0  0  0  0  0  0  0  0  0  0  # atno 10167 bound_to 10162
  157.6534  131.0917  150.6478 H   0  0  0  0  0  0  0  0  0  0  0  0  # atno 10718 bound_to 10713
  153.4525  135.7015  153.6100 H   0  0  0  0  0  0  0  0  0  0  0  0  # atno 10763 bound_to 10752
  153.4429  135.3776  155.2238 H   0  0  0  0  0  0  0  0  0  0  0  0  # atno 10764 bound_to 10752
  154.8728  135.3978  154.3939 H   0  0  0  0  0  0  0  0  0  0  0  0  # atno 10765 bound_to 10752
  139.9365  134.9639  156.8430 H   0  0  0  0  0  0  0  0  0  0  0  0  # atno 11005 bound_to 11000
  145.8151  140.9707  143.0928 LP  0  0  0  0  0  0  0  0  0  0  0  0  # atno 17320 bound_to 7965
  144.6798  139.9970  143.7484 LP  0  0  0  0  0  0  0  0  0  0  0  0  # atno 17321 bound_to 7965
  140.3120  143.3192  152.0869 LP  0  0  0  0  0  0  0  0  0  0  0  0  # atno 17342 bound_to 10162
  139.4978  144.6630  151.6422 LP  0  0  0  0  0  0  0  0  0  0  0  0  # atno 17343 bound_to 10162
  156.6787  130.4560  149.5634 LP  0  0  0  0  0  0  0  0  0  0  0  0  # atno 17370 bound_to 10713
  156.1945  130.6581  151.1099 LP  0  0  0  0  0  0  0  0  0  0  0  0  # atno 17371 bound_to 10713
  140.6061  134.0126  155.7557 LP  0  0  0  0  0  0  0  0  0  0  0  0  # atno 17394 bound_to 11000
  141.0981  133.9811  157.3125 LP  0  0  0  0  0  0  0  0  0  0  0  0  # atno 17395 bound_to 11000

$$$$
