AV-unprocessed.smi:3068|AV-procd|sdf|11703|dock7
  -GOLD-   2272017103D 1   1.00000     0.00000
 Structure written by MMmdl.
 40 42  0  0  0  0  0  0  0  0  2 V2000
  150.8113  137.0629  154.4595 N   0  0  0  0  0  0  0  0  0  0  0  0
  150.1520  138.0060  154.3375 C   0  0  0  0  0  0  0  0  0  0  0  0
  149.3210  139.1933  154.1826 C   0  0  0  0  0  0  0  0  0  0  0  0
  149.8504  140.3644  154.6057 N   0  0  0  0  0  0  0  0  0  0  0  0
  149.0905  141.4719  154.4707 C   0  0  0  0  0  0  0  0  0  0  0  0
  147.7984  141.4157  153.9134 C   0  0  0  0  0  0  0  0  0  0  0  0
  147.2617  140.2517  153.4896 N   0  0  0  0  0  0  0  0  0  0  0  0
  148.0148  139.1306  153.6196 C   0  0  0  0  0  0  0  0  0  0  0  0
  147.4691  137.9092  153.1820 N   0  0  0  0  0  0  0  0  0  0  0  0
  146.0575  137.5867  153.3557 C   0  0  0  0  0  0  0  0  0  0  0  0
  145.6712  136.2562  152.6876 C   0  0  1  0  0  0  0  0  0  0  0  0
  145.9750  136.2778  151.1733 C   0  0  0  0  0  0  0  0  0  0  0  0
  145.7209  134.9578  150.5470 N   0  3  2  0  0  0  0  0  0  0  0  0
  144.2770  134.6795  150.3165 C   0  0  0  0  0  0  0  0  0  0  0  0
  144.0746  133.3345  149.6040 C   0  0  0  0  0  0  0  0  0  0  0  0
  144.7177  132.1969  150.4046 C   0  0  0  0  0  0  0  0  0  0  0  0
  146.2055  132.4965  150.6322 C   0  0  0  0  0  0  0  0  0  0  0  0
  146.4393  133.8782  151.2795 C   0  0  2  0  0  0  0  0  0  0  0  0
  146.1087  133.9278  152.7861 C   0  0  0  0  0  0  0  0  0  0  0  0
  146.4343  135.2166  153.2936 O   0  0  0  0  0  0  0  0  0  0  0  0
  149.5151  142.4057  154.8087 H   0  0  0  0  0  0  0  0  0  0  0  0
  147.1947  142.3047  153.8073 H   0  0  0  0  0  0  0  0  0  0  0  0
  148.0851  137.1898  152.8296 H   0  0  0  0  0  0  0  0  0  0  0  0
  145.8207  137.5601  154.4199 H   0  0  0  0  0  0  0  0  0  0  0  0
  145.4636  138.3987  152.9354 H   0  0  0  0  0  0  0  0  0  0  0  0
  144.6090  136.0680  152.8473 H   0  0  0  0  0  0  0  0  0  0  0  0
  145.3905  137.0500  150.6715 H   0  0  0  0  0  0  0  0  0  0  0  0
  147.0237  136.5337  151.0154 H   0  0  0  0  0  0  0  0  0  0  0  0
  143.7300  134.6771  151.2594 H   0  0  0  0  0  0  0  0  0  0  0  0
  143.8493  135.4784  149.7096 H   0  0  0  0  0  0  0  0  0  0  0  0
  143.0101  133.1404  149.4692 H   0  0  0  0  0  0  0  0  0  0  0  0
  144.5110  133.3764  148.6053 H   0  0  0  0  0  0  0  0  0  0  0  0
  144.2065  132.0778  151.3605 H   0  0  0  0  0  0  0  0  0  0  0  0
  144.6036  131.2523  149.8716 H   0  0  0  0  0  0  0  0  0  0  0  0
  146.6583  131.7123  151.2399 H   0  0  0  0  0  0  0  0  0  0  0  0
  146.7191  132.4656  149.6702 H   0  0  0  0  0  0  0  0  0  0  0  0
  147.5053  134.0920  151.1859 H   0  0  0  0  0  0  0  0  0  0  0  0
  145.0608  133.6991  152.9837 H   0  0  0  0  0  0  0  0  0  0  0  0
  146.6991  133.1862  153.3246 H   0  0  0  0  0  0  0  0  0  0  0  0
  146.1337  134.9966  149.6260 H   0  0  0  0  0  0  0  0  0  0  0  0
  1  2  3  0  0  0  0
  2  3  1  0  0  0  0
  3  8  1  0  0  0  0
  3  4  2  0  0  0  0
  4  5  1  0  0  0  0
  5  6  2  0  0  0  0
  5 21  1  0  0  0  0
  6  7  1  0  0  0  0
  6 22  1  0  0  0  0
  7  8  2  0  0  0  0
  8  9  1  0  0  0  0
  9 10  1  0  0  0  0
  9 23  1  0  0  0  0
 10 11  1  0  0  0  0
 10 24  1  0  0  0  0
 10 25  1  0  0  0  0
 11 20  1  0  0  0  0
 11 12  1  0  0  0  0
 11 26  1  0  0  0  0
 12 13  1  0  0  0  0
 12 27  1  0  0  0  0
 12 28  1  0  0  0  0
 13 18  1  0  0  0  0
 13 14  1  0  0  0  0
 13 40  1  0  0  0  0
 14 15  1  0  0  0  0
 14 29  1  0  0  0  0
 14 30  1  0  0  0  0
 15 16  1  0  0  0  0
 15 31  1  0  0  0  0
 15 32  1  0  0  0  0
 16 17  1  0  0  0  0
 16 33  1  0  0  0  0
 16 34  1  0  0  0  0
 17 18  1  0  0  0  0
 17 35  1  0  0  0  0
 17 36  1  0  0  0  0
 18 19  1  0  0  0  0
 18 37  1  0  0  0  0
 19 20  1  0  0  0  0
 19 38  1  0  0  0  0
 19 39  1  0  0  0  0
M  CHG  1  13   1
M  END
> <s_m_source_file>
AV-unprocessed.smi

> <i_m_source_file_index>
3068

> <i_lp_mmshare_version>
43012

> <i_f3d_flags>
0

> <s_epik_input>
TiNDYzFuW2NIXVtjSF1uYzFbTkhdW0NIMl1bQ0BIXShbQ0gyXTIpT1tDSDJdW0NAQEhdKE4yMylbQ0gyXVtDSDJdW0NIMl1bQ0gyXTM=

> <s_epik_cmdline>
J2VwaWtfcHl0aG9uJywgJy1waCcsICc3LjAnLCAnLXRuJywgJzgnLCAnLW1hJywgJzIwMCcsICctbWV0YWxfYmluZGluZycsICctaW1hZScsICc8aW5maWxlLm1hZT4nLCAnLW9tYWUnLCAnPG91dGZpbGUubWFlPic=

> <r_epik_Ionization_Penalty>
0.0804321

> <r_epik_Ionization_Penalty_Charging>
0.0803403

> <r_epik_Ionization_Penalty_Neutral>
9.17277e-05

> <r_epik_State_Penalty>
0.0711481

> <r_epik_Charging_Adjusted_Penalty>
0.151488

> <i_epik_Tot_Q>
1

> <i_epik_Tot_abs_Q>
1

> <r_epik_Metal_State_Penalty>
0.0711481

> <b_epik_Metal_Only>
0

> <s_lp_Force_Field>
OPLS_2005

> <r_lp_Energy>
39.7851

> <b_lp_Chiralities_Consistent>
1

> <s_lp_Variant>
AV-unprocessed.smi:3068-6

> <Gold.Version>
5.8.1

> <Gold.Id.Protein>
6NUR|6NUR_protein|mol2

> <Gold.PLP.Fitness>
43.2318

> <Gold.PLP.PLP>
-32.7915

> <Gold.PLP.part.hbond>
-3.0000

> <Gold.PLP.part.metal>
0.0000

> <Gold.PLP.part.buried>
0.3345

> <Gold.PLP.part.nonpolar>
-30.5654

> <Gold.PLP.part.repulsive>
1.2430

> <Gold.PLP.ligand.clash>
0.0000

> <Gold.PLP.ligand.torsion>
0.2906

> <Gold.PLP.Chemscore.Hbond>
2.6721

> <Gold.PLP.Chemscore.CHOScore>
1.0000

> <Gold.PLP.Chemscore.Metal>
0.0000

> <Gold.Chemscore.Hbonds>
donor molecule, donor type, donor heavy atom, donor atom, acceptor molecule, acceptor atom, score
      L1  H     9    23       P1  7948  1.00
      L1  H    13    40       P1  7921  1.00
      P1  H  7989  7998       L1     4  0.64
      L1  C     5    21       P1  8028  0.99

> <Gold.PLP.Chemscore.Internal.Correction>
0.0053

> <Gold.Rescore>
     Score         DG    S(hbond)    S(metal)    S(lipo)     H(rot)  DE(clash)    DE(int)     intcor
     17.73     -18.13       1.93        0.00      81.90       1.32       0.09       0.31       ----

> <Gold.Chemscore.Fitness>
17.7279

> <Gold.Chemscore.DG>
-18.1326

> <Gold.Chemscore.ZeroCoef>
-5.4800

> <Gold.Chemscore.Hbond>
1.9303

> <Gold.Chemscore.Metal>
0.0000

> <Gold.Chemscore.Lipo>
81.9036

> <Gold.Chemscore.Internal_Hbond>
0.0000

> <Gold.Chemscore.DEClash>
0.0899

> <Gold.Chemscore.DEInternal>
0.3148

> <Gold.Chemscore.Rot>
1.3193

> <Gold.Chemscore.Internal.Correction>
   9.000000E+99

> <Gold.Chemscore.Hbonds>
donor molecule, donor type, donor heavy atom, donor atom, acceptor molecule, acceptor atom, score
      L1  H     9    23       P1  7948  0.99
      L1  H    13    40       P1  7921  0.62
      P1  H  7989  7998       L1     4  0.18

> <Gold.Chemscore.Hbond.Weighted>
-6.4473

> <Gold.Chemscore.Metal.Weighted>
-0.0000

> <Gold.Chemscore.Lipo.Weighted>
-9.5827

> <Gold.Chemscore.Internal_Hbond.Weighted>
0.0000

> <Gold.Chemscore.DEClash.Weighted>
0.0899

> <Gold.Chemscore.DEInternal.Weighted>
0.3148

> <Gold.Chemscore.Rot.Weighted>
3.3774

> <Gold.Chemscore.Internal.Correction.Weighted>
   9.000000E+99

> <Gold.Protein.RotatedTorsions>
[ 6907 6896 6895 6894 ] final  122.42 input  -60.11 | X-H torsion
[ 7974 7965 7964 7962 ] final   17.44 input  175.53 | X-H torsion
[ 8008 7997 7996 7995 ] final  111.35 input   59.86 | X-H torsion
[ 10167 10162 10161 10158 ] final  143.82 input  -65.29 | X-H torsion
[ 10718 10713 10712 10709 ] final -114.84 input   66.30 | X-H torsion
[ 10763 10752 10751 10750 ] final  -49.49 input  -60.55 | X-H torsion
[ 11005 11000 10999 10996 ] final  -12.75 input  -57.11 | X-H torsion

> <Gold.Protein.ActiveResidues>
 VAL166  LYS551  ARG553  GLY616  TRP617  ASP618  TYR619  PRO620  LYS621  CYS622 
 ASP623  PHE694  ASN695  SER759  ASP760  ASP761  ALA762  ILE779  LEU786  VAL792 
 PHE793  MET794  SER795  GLU796  ALA797  LYS798  CYS799  TRP800  GLU811  SER814 

> <Gold.Protein.RotatedAtoms>
  152.4244  133.7170  159.6511 H   0  0  0  0  0  0  0  0  0  0  0  0  # atno 6907 bound_to 6896
  150.8120  133.8393  159.3183 H   0  0  0  0  0  0  0  0  0  0  0  0  # atno 6908 bound_to 6896
  151.6100  135.1043  160.0130 H   0  0  0  0  0  0  0  0  0  0  0  0  # atno 6909 bound_to 6896
  146.2218  139.8601  142.8606 H   0  0  0  0  0  0  0  0  0  0  0  0  # atno 7974 bound_to 7965
  156.2118  140.3021  155.9749 H   0  0  0  0  0  0  0  0  0  0  0  0  # atno 8008 bound_to 7997
  155.2705  140.0433  157.3023 H   0  0  0  0  0  0  0  0  0  0  0  0  # atno 8009 bound_to 7997
  154.5710  140.2348  155.8200 H   0  0  0  0  0  0  0  0  0  0  0  0  # atno 8010 bound_to 7997
  139.4961  144.6014  151.6472 H   0  0  0  0  0  0  0  0  0  0  0  0  # atno 10167 bound_to 10162
  156.0856  130.6048  150.8827 H   0  0  0  0  0  0  0  0  0  0  0  0  # atno 10718 bound_to 10713
  154.0950  135.6572  153.4858 H   0  0  0  0  0  0  0  0  0  0  0  0  # atno 10763 bound_to 10752
  153.0308  135.5211  154.7343 H   0  0  0  0  0  0  0  0  0  0  0  0  # atno 10764 bound_to 10752
  154.6478  135.2997  154.9993 H   0  0  0  0  0  0  0  0  0  0  0  0  # atno 10765 bound_to 10752
  140.7690  133.8454  155.9190 H   0  0  0  0  0  0  0  0  0  0  0  0  # atno 11005 bound_to 11000
  145.2713  141.0109  143.3770 LP  0  0  0  0  0  0  0  0  0  0  0  0  # atno 17320 bound_to 7965
  144.9221  139.4399  143.6536 LP  0  0  0  0  0  0  0  0  0  0  0  0  # atno 17321 bound_to 7965
  140.5665  144.0181  150.6195 LP  0  0  0  0  0  0  0  0  0  0  0  0  # atno 17342 bound_to 10162
  140.3284  143.3093  152.0712 LP  0  0  0  0  0  0  0  0  0  0  0  0  # atno 17343 bound_to 10162
  157.5989  131.0942  150.8994 LP  0  0  0  0  0  0  0  0  0  0  0  0  # atno 17370 bound_to 10713
  156.9155  130.5296  149.5279 LP  0  0  0  0  0  0  0  0  0  0  0  0  # atno 17371 bound_to 10713
  140.9592  134.1678  157.4668 LP  0  0  0  0  0  0  0  0  0  0  0  0  # atno 17394 bound_to 11000
  139.8759  134.9938  156.5663 LP  0  0  0  0  0  0  0  0  0  0  0  0  # atno 17395 bound_to 11000

$$$$
