AV-unprocessed.smi:1809|AV-procd|sdf|7320|dock2
  -GOLD-   22720 8573D 1   1.00000     0.00000
 Structure written by MMmdl.
 39 41  0  0  0  0  0  0  0  0  1 V2000
  150.9451  142.2842  156.5449 C   0  0  0  0  0  0  0  0  0  0  0  0
  150.5802  141.1410  155.6606 C   0  0  0  0  0  0  0  0  0  0  0  0
  151.4660  140.2209  155.2598 N   0  0  0  0  0  0  0  0  0  0  0  0
  150.8900  139.2565  154.4444 N   0  0  0  0  0  0  0  0  0  0  0  0
  149.5821  139.4789  154.2544 C   0  0  0  0  0  0  0  0  0  0  0  0
  148.7464  138.6470  153.4635 N   0  0  0  0  0  0  0  0  0  0  0  0
  147.4255  138.7639  153.2413 C   0  0  0  0  0  0  0  0  0  0  0  0
  146.6977  139.6345  153.7190 O   0  0  0  0  0  0  0  0  0  0  0  0
  146.9866  137.8024  152.4162 N   0  0  0  0  0  0  0  0  0  0  0  0
  145.6151  137.6675  151.9368 C   0  0  0  0  0  0  0  0  0  0  0  0
  145.1102  136.2207  152.0706 C   0  0  1  0  0  0  0  0  0  0  0  0
  145.5469  135.3458  150.8727 C   0  0  0  0  0  0  0  0  0  0  0  0
  145.1489  133.9687  151.0946 N   0  0  0  0  0  0  0  0  0  0  0  0
  145.5542  133.0016  150.1010 C   0  0  0  0  0  0  0  0  0  0  0  0
  145.3630  131.6421  150.7964 C   0  0  0  0  0  0  0  0  0  0  0  0
  145.3567  131.9780  152.3045 C   0  0  0  0  0  0  0  0  0  0  0  0
  145.7092  133.4663  152.3200 C   0  0  2  0  0  0  0  0  0  0  0  0
  145.2333  134.3007  153.5171 C   0  0  0  0  0  0  0  0  0  0  0  0
  145.6211  135.6568  153.2857 O   0  0  0  0  0  0  0  0  0  0  0  0
  148.9435  140.9009  155.0614 S   0  0  0  0  0  0  0  0  0  0  0  0
  151.9773  142.1946  156.8852 H   0  0  0  0  0  0  0  0  0  0  0  0
  150.2911  142.3043  157.4167 H   0  0  0  0  0  0  0  0  0  0  0  0
  150.8358  143.2235  156.0029 H   0  0  0  0  0  0  0  0  0  0  0  0
  149.2126  137.8816  152.9995 H   0  0  0  0  0  0  0  0  0  0  0  0
  147.6547  137.1281  152.0732 H   0  0  0  0  0  0  0  0  0  0  0  0
  144.9926  138.3293  152.5395 H   0  0  0  0  0  0  0  0  0  0  0  0
  145.5226  138.0141  150.9059 H   0  0  0  0  0  0  0  0  0  0  0  0
  144.0199  136.2274  152.1244 H   0  0  0  0  0  0  0  0  0  0  0  0
  145.0979  135.7171  149.9511 H   0  0  0  0  0  0  0  0  0  0  0  0
  146.6290  135.4052  150.7459 H   0  0  0  0  0  0  0  0  0  0  0  0
  144.9683  133.0925  149.1861 H   0  0  0  0  0  0  0  0  0  0  0  0
  146.6058  133.1429  149.8455 H   0  0  0  0  0  0  0  0  0  0  0  0
  144.4161  131.1850  150.5063 H   0  0  0  0  0  0  0  0  0  0  0  0
  146.1637  130.9501  150.5340 H   0  0  0  0  0  0  0  0  0  0  0  0
  144.3634  131.8105  152.7233 H   0  0  0  0  0  0  0  0  0  0  0  0
  146.0705  131.3803  152.8720 H   0  0  0  0  0  0  0  0  0  0  0  0
  146.7974  133.5471  152.2684 H   0  0  0  0  0  0  0  0  0  0  0  0
  144.1510  134.2376  153.6398 H   0  0  0  0  0  0  0  0  0  0  0  0
  145.6894  133.9467  154.4416 H   0  0  0  0  0  0  0  0  0  0  0  0
  1  2  1  0  0  0  0
  1 21  1  0  0  0  0
  1 22  1  0  0  0  0
  1 23  1  0  0  0  0
  2 20  1  0  0  0  0
  2  3  2  0  0  0  0
  3  4  1  0  0  0  0
  4  5  2  0  0  0  0
  5  6  1  0  0  0  0
  5 20  1  0  0  0  0
  6  7  1  0  0  0  0
  6 24  1  0  0  0  0
  7  8  2  0  0  0  0
  7  9  1  0  0  0  0
  9 10  1  0  0  0  0
  9 25  1  0  0  0  0
 10 11  1  0  0  0  0
 10 26  1  0  0  0  0
 10 27  1  0  0  0  0
 11 19  1  0  0  0  0
 11 12  1  0  0  0  0
 11 28  1  0  0  0  0
 12 13  1  0  0  0  0
 12 29  1  0  0  0  0
 12 30  1  0  0  0  0
 13 17  1  0  0  0  0
 13 14  1  0  0  0  0
 14 15  1  0  0  0  0
 14 31  1  0  0  0  0
 14 32  1  0  0  0  0
 15 16  1  0  0  0  0
 15 33  1  0  0  0  0
 15 34  1  0  0  0  0
 16 17  1  0  0  0  0
 16 35  1  0  0  0  0
 16 36  1  0  0  0  0
 17 18  1  0  0  0  0
 17 37  1  0  0  0  0
 18 19  1  0  0  0  0
 18 38  1  0  0  0  0
 18 39  1  0  0  0  0
M  END
> <s_m_source_file>
AV-unprocessed.smi

> <i_m_source_file_index>
1809

> <i_lp_mmshare_version>
43012

> <i_f3d_flags>
0

> <s_epik_input>
W0NIM11jMW5uYyhzMSlbTkhdQyg9TylbTkhdW0NIMl1bQ0BIXShbQ0gyXTIpT1tDSDJdW0NAQEhdKE4yMylbQ0gyXVtDSDJdW0NIMl0z

> <s_epik_cmdline>
J2VwaWtfcHl0aG9uJywgJy1waCcsICc3LjAnLCAnLXRuJywgJzgnLCAnLW1hJywgJzIwMCcsICctbWV0YWxfYmluZGluZycsICctaW1hZScsICc8aW5maWxlLm1hZT4nLCAnLW9tYWUnLCAnPG91dGZpbGUubWFlPic=

> <r_lp_tautomer_probability>
1

> <r_epik_Ionization_Penalty>
1.05954

> <r_epik_Ionization_Penalty_Charging>
0

> <r_epik_Ionization_Penalty_Neutral>
1.05954

> <r_epik_State_Penalty>
1.4238

> <r_epik_Charging_Adjusted_Penalty>
1.4238

> <i_epik_Tot_Q>
0

> <i_epik_Tot_abs_Q>
0

> <r_epik_Metal_State_Penalty>
1.7901

> <b_epik_Metal_Only>
0

> <s_lp_Force_Field>
OPLS_2005

> <r_lp_Energy>
46.7621

> <b_lp_Chiralities_Consistent>
1

> <s_lp_Variant>
AV-unprocessed.smi:1809-12

> <Gold.Version>
5.8.1

> <Gold.Id.Protein>
6NUR|6NUR_protein|mol2

> <Gold.PLP.Fitness>
37.5390

> <Gold.PLP.PLP>
-32.3819

> <Gold.PLP.part.hbond>
-5.0000

> <Gold.PLP.part.metal>
0.0000

> <Gold.PLP.part.buried>
-1.1055

> <Gold.PLP.part.nonpolar>
-25.2021

> <Gold.PLP.part.repulsive>
0.6642

> <Gold.PLP.ligand.clash>
0.0000

> <Gold.PLP.ligand.torsion>
0.3145

> <Gold.PLP.Chemscore.Hbond>
1.9280

> <Gold.PLP.Chemscore.CHOScore>
0.0000

> <Gold.PLP.Chemscore.Metal>
0.0000

> <Gold.Chemscore.Hbonds>
donor molecule, donor type, donor heavy atom, donor atom, acceptor molecule, acceptor atom, score
      L1  H     6    24       P1  7948  0.93
      L1  H     9    25       P1  7948  1.00

> <Gold.PLP.Chemscore.Internal.Correction>
0.0020

> <Gold.Rescore>
     Score         DG    S(hbond)    S(metal)    S(lipo)     H(rot)  DE(clash)    DE(int)     intcor
     14.74     -16.47       1.89        0.00      68.86       1.32       0.13       1.61       ----

> <Gold.Chemscore.Fitness>
14.7358

> <Gold.Chemscore.DG>
-16.4721

> <Gold.Chemscore.ZeroCoef>
-5.4800

> <Gold.Chemscore.Hbond>
1.8903

> <Gold.Chemscore.Metal>
0.0000

> <Gold.Chemscore.Lipo>
68.8631

> <Gold.Chemscore.Internal_Hbond>
0.0000

> <Gold.Chemscore.DEClash>
0.1258

> <Gold.Chemscore.DEInternal>
1.6106

> <Gold.Chemscore.Rot>
1.3196

> <Gold.Chemscore.Internal.Correction>
   9.000000E+99

> <Gold.Chemscore.Hbonds>
donor molecule, donor type, donor heavy atom, donor atom, acceptor molecule, acceptor atom, score
      L1  H     6    24       P1  7948  0.85
      L1  H     9    25       P1  7948  0.97

> <Gold.Chemscore.Hbond.Weighted>
-6.3134

> <Gold.Chemscore.Metal.Weighted>
-0.0000

> <Gold.Chemscore.Lipo.Weighted>
-8.0570

> <Gold.Chemscore.Internal_Hbond.Weighted>
0.0000

> <Gold.Chemscore.DEClash.Weighted>
0.1258

> <Gold.Chemscore.DEInternal.Weighted>
1.6106

> <Gold.Chemscore.Rot.Weighted>
3.3783

> <Gold.Chemscore.Internal.Correction.Weighted>
   9.000000E+99

> <Gold.Protein.RotatedTorsions>
[ 6907 6896 6895 6894 ] final -156.43 input  -60.11 | X-H torsion
[ 7974 7965 7964 7962 ] final  -38.84 input  175.53 | X-H torsion
[ 8008 7997 7996 7995 ] final -113.34 input   59.86 | X-H torsion
[ 10167 10162 10161 10158 ] final  -53.46 input  -65.29 | X-H torsion
[ 10718 10713 10712 10709 ] final   54.31 input   66.30 | X-H torsion
[ 10763 10752 10751 10750 ] final   84.31 input  -60.55 | X-H torsion
[ 11005 11000 10999 10996 ] final  -22.49 input  -57.11 | X-H torsion

> <Gold.Protein.ActiveResidues>
 VAL166  LYS551  ARG553  GLY616  TRP617  ASP618  TYR619  PRO620  LYS621  CYS622 
 ASP623  PHE694  ASN695  SER759  ASP760  ASP761  ALA762  ILE779  LEU786  VAL792 
 PHE793  MET794  SER795  GLU796  ALA797  LYS798  CYS799  TRP800  GLU811  SER814 

> <Gold.Protein.RotatedAtoms>
  151.2875  133.4181  159.2630 H   0  0  0  0  0  0  0  0  0  0  0  0  # atno 6907 bound_to 6896
  151.0307  134.9537  159.8119 H   0  0  0  0  0  0  0  0  0  0  0  0  # atno 6908 bound_to 6896
  152.5345  134.2836  159.9069 H   0  0  0  0  0  0  0  0  0  0  0  0  # atno 6909 bound_to 6896
  146.0451  140.6557  142.9069 H   0  0  0  0  0  0  0  0  0  0  0  0  # atno 7974 bound_to 7965
  155.0191  140.0393  157.2430 H   0  0  0  0  0  0  0  0  0  0  0  0  # atno 8008 bound_to 7997
  154.7393  140.2746  155.6364 H   0  0  0  0  0  0  0  0  0  0  0  0  # atno 8009 bound_to 7997
  156.2860  140.2668  156.2116 H   0  0  0  0  0  0  0  0  0  0  0  0  # atno 8010 bound_to 7997
  140.6483  143.2549  151.4795 H   0  0  0  0  0  0  0  0  0  0  0  0  # atno 10167 bound_to 10162
  157.5245  130.8588  149.8604 H   0  0  0  0  0  0  0  0  0  0  0  0  # atno 10718 bound_to 10713
  153.1370  135.4659  154.9437 H   0  0  0  0  0  0  0  0  0  0  0  0  # atno 10763 bound_to 10752
  154.7714  135.3160  154.8184 H   0  0  0  0  0  0  0  0  0  0  0  0  # atno 10764 bound_to 10752
  153.8714  135.6903  153.4828 H   0  0  0  0  0  0  0  0  0  0  0  0  # atno 10765 bound_to 10752
  140.8662  133.7753  156.0132 H   0  0  0  0  0  0  0  0  0  0  0  0  # atno 11005 bound_to 11000
  144.7093  140.3978  143.7093 LP  0  0  0  0  0  0  0  0  0  0  0  0  # atno 17320 bound_to 7965
  145.6820  139.1620  143.2695 LP  0  0  0  0  0  0  0  0  0  0  0  0  # atno 17321 bound_to 7965
  139.5696  144.1960  152.1817 LP  0  0  0  0  0  0  0  0  0  0  0  0  # atno 17342 bound_to 10162
  140.1252  144.5337  150.6837 LP  0  0  0  0  0  0  0  0  0  0  0  0  # atno 17343 bound_to 10162
  156.0377  130.3747  150.1516 LP  0  0  0  0  0  0  0  0  0  0  0  0  # atno 17370 bound_to 10713
  156.9703  130.9832  151.3460 LP  0  0  0  0  0  0  0  0  0  0  0  0  # atno 17371 bound_to 10713
  140.8626  134.2822  157.5227 LP  0  0  0  0  0  0  0  0  0  0  0  0  # atno 17394 bound_to 11000
  139.8709  134.9526  156.4120 LP  0  0  0  0  0  0  0  0  0  0  0  0  # atno 17395 bound_to 11000

$$$$
