AV-unprocessed.smi:54|AV-procd|sdf|530|dock10
  -GOLD-   2262016403D 1   1.00000     0.00000
 Structure written by MMmdl.
 44 46  0  0  0  0  0  0  0  0  1 V2000
  152.5332  142.9011  160.6603 C   0  0  0  0  0  0  0  0  0  0  0  0
  152.7094  143.1775  159.1586 C   0  0  0  0  0  0  0  0  0  0  0  0
  152.4196  144.6498  158.8240 C   0  0  0  0  0  0  0  0  0  0  0  0
  151.8153  142.2466  158.3313 C   0  0  0  0  0  0  0  0  0  0  0  0
  150.9973  142.6785  157.5182 O   0  0  0  0  0  0  0  0  0  0  0  0
  151.9946  140.8280  158.5818 N   0  0  0  0  0  0  0  0  0  0  0  0
  151.3361  139.8010  157.9964 C   0  0  0  0  0  0  0  0  0  0  0  0
  150.7434  139.8980  156.8144 N   0  0  0  0  0  0  0  0  0  0  0  0
  150.1361  138.7494  156.3891 C   0  0  0  0  0  0  0  0  0  0  0  0
  150.0908  137.5445  157.0584 C   0  0  0  0  0  0  0  0  0  0  0  0
  149.3762  136.6107  156.3163 N   0  0  0  0  0  0  0  0  0  0  0  0
  149.0188  137.2636  155.2453 C   0  0  0  0  0  0  0  0  0  0  0  0
  149.4411  138.5723  155.2126 N   0  0  0  0  0  0  0  0  0  0  0  0
  149.2275  139.6161  154.1594 C   0  0  1  0  0  0  0  0  0  0  0  0
  148.5544  139.0229  153.0870 O   0  0  0  0  0  0  0  0  0  0  0  0
  147.2197  139.5085  153.0377 C   0  0  2  0  0  0  0  0  0  0  0  0
  146.6128  139.2959  151.6393 C   0  0  0  0  0  0  0  0  0  0  0  0
  146.4040  137.9285  151.3524 O   0  0  0  0  0  0  0  0  0  0  0  0
  147.3466  140.9496  153.5336 C   0  0  1  0  0  0  0  0  0  0  0  0
  146.1142  141.5044  153.9538 O   0  0  0  0  0  0  0  0  0  0  0  0
  148.3601  140.7980  154.6644 C   0  0  1  0  0  0  0  0  0  0  0  0
  147.7330  140.5524  155.9158 O   0  0  0  0  0  0  0  0  0  0  0  0
  150.7359  137.4212  158.3334 C   0  0  0  0  0  0  0  0  0  0  0  0
  150.8016  136.4338  159.0622 O   0  0  0  0  0  0  0  0  0  0  0  0
  151.3465  138.6169  158.7339 N   0  0  0  0  0  0  0  0  0  0  0  0
  150.2314  139.9099  153.8504 H   0  0  0  0  0  0  0  0  0  0  0  0
  146.6427  138.9276  153.7599 H   0  0  0  0  0  0  0  0  0  0  0  0
  147.7775  141.5835  152.7581 H   0  0  0  0  0  0  0  0  0  0  0  0
  148.9821  141.6884  154.7633 H   0  0  0  0  0  0  0  0  0  0  0  0
  152.7406  141.8569  160.8986 H   0  0  0  0  0  0  0  0  0  0  0  0
  151.5187  143.1241  160.9934 H   0  0  0  0  0  0  0  0  0  0  0  0
  153.2159  143.5120  161.2515 H   0  0  0  0  0  0  0  0  0  0  0  0
  153.7485  142.9720  158.8969 H   0  0  0  0  0  0  0  0  0  0  0  0
  152.5325  144.8445  157.7567 H   0  0  0  0  0  0  0  0  0  0  0  0
  153.1076  145.3114  159.3510 H   0  0  0  0  0  0  0  0  0  0  0  0
  151.4060  144.9345  159.1096 H   0  0  0  0  0  0  0  0  0  0  0  0
  152.6659  140.5877  159.2963 H   0  0  0  0  0  0  0  0  0  0  0  0
  148.4398  136.8061  154.4565 H   0  0  0  0  0  0  0  0  0  0  0  0
  145.6713  139.8372  151.5437 H   0  0  0  0  0  0  0  0  0  0  0  0
  147.2883  139.6949  150.8825 H   0  0  0  0  0  0  0  0  0  0  0  0
  147.2448  137.5158  151.2259 H   0  0  0  0  0  0  0  0  0  0  0  0
  145.4517  141.2634  153.3239 H   0  0  0  0  0  0  0  0  0  0  0  0
  146.7976  140.6129  155.7949 H   0  0  0  0  0  0  0  0  0  0  0  0
  151.8201  138.6036  159.6252 H   0  0  0  0  0  0  0  0  0  0  0  0
  1  2  1  0  0  0  0
  1 30  1  0  0  0  0
  1 31  1  0  0  0  0
  1 32  1  0  0  0  0
  2  3  1  0  0  0  0
  2  4  1  0  0  0  0
  2 33  1  0  0  0  0
  3 34  1  0  0  0  0
  3 35  1  0  0  0  0
  3 36  1  0  0  0  0
  4  5  2  0  0  0  0
  4  6  1  0  0  0  0
  6 37  1  0  0  0  0
  6  7  1  0  0  0  0
  7 25  1  0  0  0  0
  7  8  2  0  0  0  0
  8  9  1  0  0  0  0
  9 13  1  0  0  0  0
  9 10  2  0  0  0  0
 10 11  1  0  0  0  0
 10 23  1  0  0  0  0
 11 12  2  0  0  0  0
 12 13  1  0  0  0  0
 12 38  1  0  0  0  0
 13 14  1  0  0  0  0
 14 26  1  0  0  0  0
 14 21  1  0  0  0  0
 14 15  1  0  0  0  0
 15 16  1  0  0  0  0
 16 27  1  0  0  0  0
 16 17  1  0  0  0  0
 16 19  1  0  0  0  0
 17 18  1  0  0  0  0
 17 39  1  0  0  0  0
 17 40  1  0  0  0  0
 18 41  1  0  0  0  0
 19 28  1  0  0  0  0
 19 20  1  0  0  0  0
 19 21  1  0  0  0  0
 20 42  1  0  0  0  0
 21 29  1  0  0  0  0
 21 22  1  0  0  0  0
 22 43  1  0  0  0  0
 23 24  2  0  0  0  0
 23 25  1  0  0  0  0
 25 44  1  0  0  0  0
M  END
> <s_m_source_file>
AV-unprocessed.smi

> <i_m_source_file_index>
54

> <i_lp_mmshare_version>
43012

> <i_f3d_flags>
0

> <s_epik_input>
W0NIM11bQ0hdKFtDSDNdKUMoPU8pW05IXWMobjEpW25IXWMoPU8pYyhjMTIpbltjSF1uMltDQEBIXTNPW0NASF0oW0NIMl1bT0hdKVtDQEBIXShbT0hdKVtDQEhdM1tPSF0=

> <s_epik_cmdline>
J2VwaWtfcHl0aG9uJywgJy1waCcsICc3LjAnLCAnLXRuJywgJzgnLCAnLW1hJywgJzIwMCcsICctbWV0YWxfYmluZGluZycsICctaW1hZScsICc8aW5maWxlLm1hZT4nLCAnLW9tYWUnLCAnPG91dGZpbGUubWFlPic=

> <r_lp_tautomer_probability>
0.85571

> <r_epik_Ionization_Penalty>
0.0316551

> <r_epik_Ionization_Penalty_Charging>
0.0316043

> <r_epik_Ionization_Penalty_Neutral>
5.07097e-05

> <r_epik_State_Penalty>
3.15494e-07

> <r_epik_Charging_Adjusted_Penalty>
0.0316047

> <i_epik_Tot_Q>
0

> <i_epik_Tot_abs_Q>
0

> <r_epik_Metal_State_Penalty>
0.421206

> <b_epik_Metal_Only>
0

> <s_epik_Chemistry_Notes>
This compound contains an acetal/aminal-like group ( X-CH(R)-Y where X, Y are N, S, or O) that may be acid/base labile, releasing an aldehyde.

> <s_lp_Force_Field>
OPLS_2005

> <r_lp_Energy>
47.6187

> <b_lp_Chiralities_Consistent>
1

> <s_lp_Variant>
AV-unprocessed.smi:54-2

> <Gold.Version>
5.8.1

> <Gold.Id.Protein>
6NUR|6NUR_protein|mol2

> <Gold.PLP.Fitness>
44.4749

> <Gold.PLP.PLP>
-33.5085

> <Gold.PLP.part.hbond>
-4.0849

> <Gold.PLP.part.metal>
0.0000

> <Gold.PLP.part.buried>
-3.0711

> <Gold.PLP.part.nonpolar>
-32.8574

> <Gold.PLP.part.repulsive>
6.2602

> <Gold.PLP.ligand.clash>
0.0000

> <Gold.PLP.ligand.torsion>
0.1988

> <Gold.PLP.Chemscore.Hbond>
3.0000

> <Gold.PLP.Chemscore.CHOScore>
0.7799

> <Gold.PLP.Chemscore.Metal>
0.0000

> <Gold.Chemscore.Hbonds>
donor molecule, donor type, donor heavy atom, donor atom, acceptor molecule, acceptor atom, score
      L1  H    18    41       P1  7948  0.60
      L1  H    20    42       P1 10175  0.79
      P1  H  6896  6907       L1    24  1.00
      L1  C    12    38       P1  7948  0.58

> <Gold.PLP.Chemscore.Internal.Correction>
0.0244

> <Gold.Rescore>
     Score         DG    S(hbond)    S(metal)    S(lipo)     H(rot)  DE(clash)    DE(int)     intcor
      9.79     -12.98       2.96        0.00      68.10       4.05       0.89       2.29       ----

> <Gold.Chemscore.Fitness>
9.7949

> <Gold.Chemscore.DG>
-12.9794

> <Gold.Chemscore.ZeroCoef>
-5.4800

> <Gold.Chemscore.Hbond>
2.9635

> <Gold.Chemscore.Metal>
0.0000

> <Gold.Chemscore.Lipo>
68.0993

> <Gold.Chemscore.Internal_Hbond>
0.0000

> <Gold.Chemscore.DEClash>
0.8946

> <Gold.Chemscore.DEInternal>
2.2899

> <Gold.Chemscore.Rot>
4.0493

> <Gold.Chemscore.Internal.Correction>
   9.000000E+99

> <Gold.Chemscore.Hbonds>
donor molecule, donor type, donor heavy atom, donor atom, acceptor molecule, acceptor atom, score
      L1  H    18    41       P1  7948  0.59
      L1  H    20    42       P1 10175  0.18
      P1  H  6896  6907       L1    24  0.95

> <Gold.Chemscore.Hbond.Weighted>
-9.8980

> <Gold.Chemscore.Metal.Weighted>
-0.0000

> <Gold.Chemscore.Lipo.Weighted>
-7.9676

> <Gold.Chemscore.Internal_Hbond.Weighted>
0.0000

> <Gold.Chemscore.DEClash.Weighted>
0.8946

> <Gold.Chemscore.DEInternal.Weighted>
2.2899

> <Gold.Chemscore.Rot.Weighted>
10.3662

> <Gold.Chemscore.Internal.Correction.Weighted>
   9.000000E+99

> <Gold.Protein.RotatedTorsions>
[ 6907 6896 6895 6894 ] final  -18.05 input  -60.11 | X-H torsion
[ 7974 7965 7964 7962 ] final  118.52 input  175.53 | X-H torsion
[ 8008 7997 7996 7995 ] final   66.98 input   59.86 | X-H torsion
[ 10167 10162 10161 10158 ] final  144.37 input  -65.29 | X-H torsion
[ 10718 10713 10712 10709 ] final   -9.17 input   66.30 | X-H torsion
[ 10763 10752 10751 10750 ] final -165.59 input  -60.55 | X-H torsion
[ 11005 11000 10999 10996 ] final  113.29 input  -57.11 | X-H torsion

> <Gold.Protein.ActiveResidues>
 VAL166  LYS551  ARG553  GLY616  TRP617  ASP618  TYR619  PRO620  LYS621  CYS622 
 ASP623  PHE694  ASN695  SER759  ASP760  ASP761  ALA762  ILE779  LEU786  VAL792 
 PHE793  MET794  SER795  GLU796  ALA797  LYS798  CYS799  TRP800  GLU811  SER814 

> <Gold.Protein.RotatedAtoms>
  151.2840  135.0722  159.9179 H   0  0  0  0  0  0  0  0  0  0  0  0  # atno 6907 bound_to 6896
  152.5329  134.0001  159.7901 H   0  0  0  0  0  0  0  0  0  0  0  0  # atno 6908 bound_to 6896
  151.0260  133.5783  159.2696 H   0  0  0  0  0  0  0  0  0  0  0  0  # atno 6909 bound_to 6896
  145.1542  139.3193  143.4551 H   0  0  0  0  0  0  0  0  0  0  0  0  # atno 7974 bound_to 7965
  155.6858  140.3496  155.4873 H   0  0  0  0  0  0  0  0  0  0  0  0  # atno 8008 bound_to 7997
  155.9567  140.1129  157.0953 H   0  0  0  0  0  0  0  0  0  0  0  0  # atno 8009 bound_to 7997
  154.4134  140.1183  156.5111 H   0  0  0  0  0  0  0  0  0  0  0  0  # atno 8010 bound_to 7997
  139.4948  144.5976  151.6549 H   0  0  0  0  0  0  0  0  0  0  0  0  # atno 10167 bound_to 10162
  156.6919  130.5067  149.5941 H   0  0  0  0  0  0  0  0  0  0  0  0  # atno 10718 bound_to 10713
  154.6917  135.2972  154.9470 H   0  0  0  0  0  0  0  0  0  0  0  0  # atno 10763 bound_to 10752
  154.0431  135.6654  153.4796 H   0  0  0  0  0  0  0  0  0  0  0  0  # atno 10764 bound_to 10752
  153.0617  135.5112  154.8013 H   0  0  0  0  0  0  0  0  0  0  0  0  # atno 10765 bound_to 10752
  139.8949  134.9547  156.6716 H   0  0  0  0  0  0  0  0  0  0  0  0  # atno 11005 bound_to 11000
  146.3491  140.1627  142.8590 LP  0  0  0  0  0  0  0  0  0  0  0  0  # atno 17320 bound_to 7965
  145.0399  140.8937  143.5059 LP  0  0  0  0  0  0  0  0  0  0  0  0  # atno 17321 bound_to 7965
  140.5618  144.0256  150.6173 LP  0  0  0  0  0  0  0  0  0  0  0  0  # atno 17342 bound_to 10162
  140.3344  143.3058  152.0653 LP  0  0  0  0  0  0  0  0  0  0  0  0  # atno 17343 bound_to 10162
  156.1792  130.6487  151.0930 LP  0  0  0  0  0  0  0  0  0  0  0  0  # atno 17370 bound_to 10713
  157.7006  131.0777  150.6833 LP  0  0  0  0  0  0  0  0  0  0  0  0  # atno 17371 bound_to 10713
  140.7369  133.9011  155.8250 LP  0  0  0  0  0  0  0  0  0  0  0  0  # atno 17394 bound_to 11000
  141.0109  134.1022  157.4222 LP  0  0  0  0  0  0  0  0  0  0  0  0  # atno 17395 bound_to 11000

$$$$
