AV-unprocessed.smi:1073|AV-procd|sdf|4689|dock4
  -GOLD-   22720 3203D 1   1.00000     0.00000
 Structure written by MMmdl.
 44 44  0  0  0  0  0  0  0  0  1 V2000
  150.2039  138.0508  154.1911 C   0  0  0  0  0  0  0  0  0  0  0  0
  149.5381  139.2188  154.7464 N   0  0  0  0  0  0  0  0  0  0  0  0
  150.1775  140.2918  155.2340 C   0  0  0  0  0  0  0  0  0  0  0  0
  151.4054  140.3941  155.2445 O   0  0  0  0  0  0  0  0  0  0  0  0
  149.2954  141.4289  155.7673 C   0  0  2  0  0  0  0  0  0  0  0  0
  148.5657  142.1776  154.6262 C   0  0  0  0  0  0  0  0  0  0  0  0
  147.2197  141.5715  154.1666 C   0  0  0  0  0  0  0  0  0  0  0  0
  147.3974  140.5066  153.0712 C   0  0  0  0  0  0  0  0  0  0  0  0
  146.2689  142.6769  153.6825 C   0  0  0  0  0  0  0  0  0  0  0  0
  150.1010  142.3553  156.5647 N   0  0  0  0  0  0  0  0  0  0  0  0
  150.6081  142.1196  157.7847 C   0  0  0  0  0  0  0  0  0  0  0  0
  150.4334  141.0666  158.3992 O   0  0  0  0  0  0  0  0  0  0  0  0
  151.4206  143.2676  158.4004 C   0  0  0  0  0  0  0  0  0  0  0  0
  151.8581  143.0013  159.7808 N   0  0  0  0  0  0  0  0  0  0  0  0
  152.7604  141.9365  159.9717 C   0  0  0  0  0  0  0  0  0  0  0  0
  153.2318  141.5836  161.1828 C   0  0  0  0  0  0  0  0  0  0  0  0
  154.2529  140.4687  161.3482 C   0  0  0  0  0  0  0  0  0  0  0  0
  153.7451  139.2925  160.9796 F   0  0  0  0  0  0  0  0  0  0  0  0
  155.3201  140.7163  160.5901 F   0  0  0  0  0  0  0  0  0  0  0  0
  154.6578  140.3718  162.6152 F   0  0  0  0  0  0  0  0  0  0  0  0
  152.7860  142.3836  162.3068 C   0  0  0  0  0  0  0  0  0  0  0  0
  151.9346  143.4144  162.1397 C   0  0  0  0  0  0  0  0  0  0  0  0
  151.4176  143.7752  160.8174 C   0  0  0  0  0  0  0  0  0  0  0  0
  150.6394  144.7149  160.6520 O   0  0  0  0  0  0  0  0  0  0  0  0
  149.4634  137.3191  153.8678 H   0  0  0  0  0  0  0  0  0  0  0  0
  150.8463  137.5796  154.9359 H   0  0  0  0  0  0  0  0  0  0  0  0
  150.8129  138.3239  153.3284 H   0  0  0  0  0  0  0  0  0  0  0  0
  148.5285  139.2106  154.7662 H   0  0  0  0  0  0  0  0  0  0  0  0
  148.5513  140.9565  156.4100 H   0  0  0  0  0  0  0  0  0  0  0  0
  148.3974  143.2071  154.9471 H   0  0  0  0  0  0  0  0  0  0  0  0
  149.2254  142.2480  153.7596 H   0  0  0  0  0  0  0  0  0  0  0  0
  146.7370  141.0978  155.0212 H   0  0  0  0  0  0  0  0  0  0  0  0
  147.8986  140.9188  152.1950 H   0  0  0  0  0  0  0  0  0  0  0  0
  146.4326  140.1151  152.7474 H   0  0  0  0  0  0  0  0  0  0  0  0
  147.9829  139.6574  153.4217 H   0  0  0  0  0  0  0  0  0  0  0  0
  146.6790  143.2032  152.8199 H   0  0  0  0  0  0  0  0  0  0  0  0
  146.0874  143.4130  154.4663 H   0  0  0  0  0  0  0  0  0  0  0  0
  145.3018  142.2650  153.3921 H   0  0  0  0  0  0  0  0  0  0  0  0
  150.3019  143.2487  156.1384 H   0  0  0  0  0  0  0  0  0  0  0  0
  152.2832  143.4774  157.7652 H   0  0  0  0  0  0  0  0  0  0  0  0
  150.8130  144.1729  158.3622 H   0  0  0  0  0  0  0  0  0  0  0  0
  153.0552  141.4297  159.0642 H   0  0  0  0  0  0  0  0  0  0  0  0
  153.1390  142.1516  163.3009 H   0  0  0  0  0  0  0  0  0  0  0  0
  151.6239  143.9887  163.0001 H   0  0  0  0  0  0  0  0  0  0  0  0
  1  2  1  0  0  0  0
  1 25  1  0  0  0  0
  1 26  1  0  0  0  0
  1 27  1  0  0  0  0
  2  3  1  0  0  0  0
  2 28  1  0  0  0  0
  3  4  2  0  0  0  0
  3  5  1  0  0  0  0
  5  6  1  0  0  0  0
  5 10  1  0  0  0  0
  5 29  1  0  0  0  0
  6  7  1  0  0  0  0
  6 30  1  0  0  0  0
  6 31  1  0  0  0  0
  7  8  1  0  0  0  0
  7  9  1  0  0  0  0
  7 32  1  0  0  0  0
  8 33  1  0  0  0  0
  8 34  1  0  0  0  0
  8 35  1  0  0  0  0
  9 36  1  0  0  0  0
  9 37  1  0  0  0  0
  9 38  1  0  0  0  0
 10 11  1  0  0  0  0
 10 39  1  0  0  0  0
 11 12  2  0  0  0  0
 11 13  1  0  0  0  0
 13 14  1  0  0  0  0
 13 40  1  0  0  0  0
 13 41  1  0  0  0  0
 14 23  1  0  0  0  0
 14 15  1  0  0  0  0
 15 16  2  0  0  0  0
 15 42  1  0  0  0  0
 16 17  1  0  0  0  0
 16 21  1  0  0  0  0
 17 18  1  0  0  0  0
 17 19  1  0  0  0  0
 17 20  1  0  0  0  0
 21 22  2  0  0  0  0
 21 43  1  0  0  0  0
 22 23  1  0  0  0  0
 22 44  1  0  0  0  0
 23 24  2  0  0  0  0
M  END
> <s_m_source_file>
AV-unprocessed.smi

> <i_m_source_file_index>
1073

> <i_lp_mmshare_version>
43012

> <i_f3d_flags>
0

> <s_epik_input>
W0NIM11bTkhdQyg9TylbQ0BIXShbQ0gyXVtDSF0oW0NIM10pW0NIM10pW05IXUMoPU8pW0NIMl1uMVtjSF1jKEMoRikoRilGKVtjSF1bY0hdYzE9Tw==

> <s_epik_cmdline>
J2VwaWtfcHl0aG9uJywgJy1waCcsICc3LjAnLCAnLXRuJywgJzgnLCAnLW1hJywgJzIwMCcsICctbWV0YWxfYmluZGluZycsICctaW1hZScsICc8aW5maWxlLm1hZT4nLCAnLW9tYWUnLCAnPG91dGZpbGUubWFlPic=

> <r_lp_tautomer_probability>
1

> <r_epik_Ionization_Penalty>
7.02352e-08

> <r_epik_Ionization_Penalty_Charging>
1.57869e-08

> <r_epik_Ionization_Penalty_Neutral>
5.44484e-08

> <r_epik_State_Penalty>
-0

> <r_epik_Charging_Adjusted_Penalty>
1.57869e-08

> <i_epik_Tot_Q>
0

> <i_epik_Tot_abs_Q>
0

> <r_epik_Metal_State_Penalty>
-0

> <b_epik_Metal_Only>
0

> <s_lp_Force_Field>
OPLS_2005

> <r_lp_Energy>
18.1755

> <b_lp_Chiralities_Consistent>
1

> <s_lp_Variant>
AV-unprocessed.smi:1073-1

> <Gold.Version>
5.8.1

> <Gold.Id.Protein>
6NUR|6NUR_protein|mol2

> <Gold.PLP.Fitness>
55.8836

> <Gold.PLP.PLP>
-54.2481

> <Gold.PLP.part.hbond>
-2.0000

> <Gold.PLP.part.metal>
0.0000

> <Gold.PLP.part.buried>
-1.0241

> <Gold.PLP.part.nonpolar>
-51.5680

> <Gold.PLP.part.repulsive>
0.3299

> <Gold.PLP.ligand.clash>
0.0000

> <Gold.PLP.ligand.torsion>
1.2487

> <Gold.PLP.Chemscore.Hbond>
1.3242

> <Gold.PLP.Chemscore.CHOScore>
0.0000

> <Gold.PLP.Chemscore.Metal>
0.0000

> <Gold.Chemscore.Hbonds>
donor molecule, donor type, donor heavy atom, donor atom, acceptor molecule, acceptor atom, score
      L1  H    10    39       P1  8028  0.45
      P1  H  7989  7998       L1     4  0.88

> <Gold.PLP.Chemscore.Internal.Correction>
0.1603

> <Gold.Rescore>
     Score         DG    S(hbond)    S(metal)    S(lipo)     H(rot)  DE(clash)    DE(int)     intcor
     12.22     -15.31       1.52        0.00      95.65       2.51       0.20       2.90       ----

> <Gold.Chemscore.Fitness>
12.2154

> <Gold.Chemscore.DG>
-15.3087

> <Gold.Chemscore.ZeroCoef>
-5.4800

> <Gold.Chemscore.Hbond>
1.5195

> <Gold.Chemscore.Metal>
0.0000

> <Gold.Chemscore.Lipo>
95.6550

> <Gold.Chemscore.Internal_Hbond>
0.0000

> <Gold.Chemscore.DEClash>
0.1972

> <Gold.Chemscore.DEInternal>
2.8962

> <Gold.Chemscore.Rot>
2.5149

> <Gold.Chemscore.Internal.Correction>
   9.000000E+99

> <Gold.Chemscore.Hbonds>
donor molecule, donor type, donor heavy atom, donor atom, acceptor molecule, acceptor atom, score
      L1  H    10    39       P1  8028  0.43
      P1  H  7989  7998       L1     4  0.20

> <Gold.Chemscore.Hbond.Weighted>
-5.0752

> <Gold.Chemscore.Metal.Weighted>
-0.0000

> <Gold.Chemscore.Lipo.Weighted>
-11.1916

> <Gold.Chemscore.Internal_Hbond.Weighted>
0.0000

> <Gold.Chemscore.DEClash.Weighted>
0.1972

> <Gold.Chemscore.DEInternal.Weighted>
2.8962

> <Gold.Chemscore.Rot.Weighted>
6.4381

> <Gold.Chemscore.Internal.Correction.Weighted>
   9.000000E+99

> <Gold.Protein.RotatedTorsions>
[ 6907 6896 6895 6894 ] final   -0.54 input  -60.11 | X-H torsion
[ 7974 7965 7964 7962 ] final    2.87 input  175.53 | X-H torsion
[ 8008 7997 7996 7995 ] final   38.99 input   59.86 | X-H torsion
[ 10167 10162 10161 10158 ] final  -91.94 input  -65.29 | X-H torsion
[ 10718 10713 10712 10709 ] final   82.99 input   66.30 | X-H torsion
[ 10763 10752 10751 10750 ] final   33.31 input  -60.55 | X-H torsion
[ 11005 11000 10999 10996 ] final   45.52 input  -57.11 | X-H torsion

> <Gold.Protein.ActiveResidues>
 VAL166  LYS551  ARG553  GLY616  TRP617  ASP618  TYR619  PRO620  LYS621  CYS622 
 ASP623  PHE694  ASN695  SER759  ASP760  ASP761  ALA762  ILE779  LEU786  VAL792 
 PHE793  MET794  SER795  GLU796  ALA797  LYS798  CYS799  TRP800  GLU811  SER814 

> <Gold.Protein.RotatedAtoms>
  151.5606  135.1065  159.9971 H   0  0  0  0  0  0  0  0  0  0  0  0  # atno 6907 bound_to 6896
  152.4448  133.7512  159.6706 H   0  0  0  0  0  0  0  0  0  0  0  0  # atno 6908 bound_to 6896
  150.8361  133.7942  159.3103 H   0  0  0  0  0  0  0  0  0  0  0  0  # atno 6909 bound_to 6896
  146.2444  140.0772  142.8359 H   0  0  0  0  0  0  0  0  0  0  0  0  # atno 7974 bound_to 7965
  155.2292  140.3337  155.4305 H   0  0  0  0  0  0  0  0  0  0  0  0  # atno 8008 bound_to 7997
  156.2302  140.1847  156.7309 H   0  0  0  0  0  0  0  0  0  0  0  0  # atno 8009 bound_to 7997
  154.5965  140.0630  156.9295 H   0  0  0  0  0  0  0  0  0  0  0  0  # atno 8010 bound_to 7997
  140.3399  143.2948  151.9847 H   0  0  0  0  0  0  0  0  0  0  0  0  # atno 10167 bound_to 10162
  157.6869  131.0071  150.2456 H   0  0  0  0  0  0  0  0  0  0  0  0  # atno 10718 bound_to 10713
  153.0218  135.6390  154.1492 H   0  0  0  0  0  0  0  0  0  0  0  0  # atno 10763 bound_to 10752
  154.1225  135.2845  155.3206 H   0  0  0  0  0  0  0  0  0  0  0  0  # atno 10764 bound_to 10752
  154.6253  135.5511  153.7682 H   0  0  0  0  0  0  0  0  0  0  0  0  # atno 10765 bound_to 10752
  140.1452  134.4532  155.8420 H   0  0  0  0  0  0  0  0  0  0  0  0  # atno 11005 bound_to 11000
  145.0765  140.9191  143.4851 LP  0  0  0  0  0  0  0  0  0  0  0  0  # atno 17320 bound_to 7965
  145.0916  139.2886  143.5732 LP  0  0  0  0  0  0  0  0  0  0  0  0  # atno 17321 bound_to 7965
  139.4842  144.6165  151.7335 LP  0  0  0  0  0  0  0  0  0  0  0  0  # atno 17342 bound_to 10162
  140.5319  144.0717  150.6056 LP  0  0  0  0  0  0  0  0  0  0  0  0  # atno 17343 bound_to 10162
  156.3062  130.3765  149.7703 LP  0  0  0  0  0  0  0  0  0  0  0  0  # atno 17370 bound_to 10713
  156.5318  130.8261  151.3239 LP  0  0  0  0  0  0  0  0  0  0  0  0  # atno 17371 bound_to 10713
  141.2191  133.6849  156.7321 LP  0  0  0  0  0  0  0  0  0  0  0  0  # atno 17394 bound_to 11000
  140.2672  134.8420  157.3814 LP  0  0  0  0  0  0  0  0  0  0  0  0  # atno 17395 bound_to 11000

$$$$
