AV-unprocessed.smi:227|AV-procd|sdf|1736|dock4
  -GOLD-   2262020233D 1   1.00000     0.00000
 Structure written by MMmdl.
 54 58  0  0  0  0  0  0  0  0  1 V2000
  150.7745  144.8056  157.9360 O   0  0  0  0  0  0  0  0  0  0  0  0
  150.1080  143.7092  158.5280 C   0  0  0  0  0  0  0  0  0  0  0  0
  150.9008  142.3879  158.3507 C   0  0  1  0  0  0  0  0  0  0  0  0
  151.0993  142.0132  156.8580 C   0  0  0  0  0  0  0  0  0  0  0  0
  150.6186  140.6857  156.5189 N   0  0  0  0  0  0  0  0  0  0  0  0
  149.3765  140.1686  156.8001 C   0  0  0  0  0  0  0  0  0  0  0  0
  149.1786  138.9481  156.3845 N   0  0  0  0  0  0  0  0  0  0  0  0
  150.3713  138.5925  155.7627 C   0  0  0  0  0  0  0  0  0  0  0  0
  150.8448  137.4288  155.0843 C   0  0  0  0  0  0  0  0  0  0  0  0
  150.1285  136.2864  154.8881 N   0  0  0  0  0  0  0  0  0  0  0  0
  150.6201  134.9834  155.3127 C   0  0  2  0  0  0  0  0  0  0  0  0
  149.5737  134.0266  154.7156 C   0  0  0  0  0  0  0  0  0  0  0  0
  148.2927  134.8630  154.8430 C   0  0  0  0  0  0  0  0  0  0  0  0
  148.8287  136.1337  155.5291 C   0  0  1  0  0  0  0  0  0  0  0  0
  149.1978  135.8693  157.0120 C   0  0  1  0  0  0  0  0  0  0  0  0
  148.0900  135.2644  157.8939 C   0  0  0  0  0  0  0  0  0  0  0  0
  148.5636  135.0983  159.2133 O   0  0  0  0  0  0  0  0  0  0  0  0
  150.4590  134.9993  156.8469 C   0  0  0  0  0  0  0  0  0  0  0  0
  152.1201  137.4625  154.6145 N   0  0  0  0  0  0  0  0  0  0  0  0
  152.8772  138.5507  154.7730 C   0  0  0  0  0  0  0  0  0  0  0  0
  152.5661  139.7023  155.3679 N   0  0  0  0  0  0  0  0  0  0  0  0
  151.2927  139.6769  155.8536 C   0  0  0  0  0  0  0  0  0  0  0  0
  152.2678  142.4591  159.0796 C   0  0  1  0  0  0  0  0  0  0  0  0
  152.2086  143.0206  160.5009 C   0  0  0  0  0  0  0  0  0  0  0  0
  153.2365  142.2058  161.2920 C   0  0  0  0  0  0  0  0  0  0  0  0
  153.8890  141.3897  160.3323 O   0  0  0  0  0  0  0  0  0  0  0  0
  152.9498  141.1080  159.3108 C   0  0  0  0  0  0  0  0  0  0  0  0
  150.3907  144.9679  157.0877 H   0  0  0  0  0  0  0  0  0  0  0  0
  149.9284  143.9144  159.5838 H   0  0  0  0  0  0  0  0  0  0  0  0
  149.1293  143.6542  158.0533 H   0  0  0  0  0  0  0  0  0  0  0  0
  150.3291  141.5878  158.8240 H   0  0  0  0  0  0  0  0  0  0  0  0
  150.5959  142.7394  156.2183 H   0  0  0  0  0  0  0  0  0  0  0  0
  152.1548  142.0497  156.5893 H   0  0  0  0  0  0  0  0  0  0  0  0
  148.6160  140.7309  157.3220 H   0  0  0  0  0  0  0  0  0  0  0  0
  151.6241  134.7258  154.9809 H   0  0  0  0  0  0  0  0  0  0  0  0
  149.7894  133.8151  153.6676 H   0  0  0  0  0  0  0  0  0  0  0  0
  149.5167  133.0770  155.2488 H   0  0  0  0  0  0  0  0  0  0  0  0
  147.9018  135.1030  153.8534 H   0  0  0  0  0  0  0  0  0  0  0  0
  147.4991  134.3598  155.3935 H   0  0  0  0  0  0  0  0  0  0  0  0
  148.1547  136.9814  155.4020 H   0  0  0  0  0  0  0  0  0  0  0  0
  149.4902  136.8238  157.4541 H   0  0  0  0  0  0  0  0  0  0  0  0
  147.2216  135.9229  157.9174 H   0  0  0  0  0  0  0  0  0  0  0  0
  147.7583  134.2961  157.5199 H   0  0  0  0  0  0  0  0  0  0  0  0
  148.0817  135.6808  159.7802 H   0  0  0  0  0  0  0  0  0  0  0  0
  150.3525  133.9963  157.2621 H   0  0  0  0  0  0  0  0  0  0  0  0
  151.3158  135.4713  157.3293 H   0  0  0  0  0  0  0  0  0  0  0  0
  153.8746  138.4900  154.3634 H   0  0  0  0  0  0  0  0  0  0  0  0
  152.9512  143.0799  158.4977 H   0  0  0  0  0  0  0  0  0  0  0  0
  152.4461  144.0849  160.5122 H   0  0  0  0  0  0  0  0  0  0  0  0
  151.2197  142.8971  160.9446 H   0  0  0  0  0  0  0  0  0  0  0  0
  153.9544  142.8353  161.8182 H   0  0  0  0  0  0  0  0  0  0  0  0
  152.7391  141.5702  162.0261 H   0  0  0  0  0  0  0  0  0  0  0  0
  152.2402  140.3564  159.6617 H   0  0  0  0  0  0  0  0  0  0  0  0
  153.4475  140.7254  158.4196 H   0  0  0  0  0  0  0  0  0  0  0  0
  1  2  1  0  0  0  0
  1 28  1  0  0  0  0
  2  3  1  0  0  0  0
  2 29  1  0  0  0  0
  2 30  1  0  0  0  0
  3  4  1  0  0  0  0
  3 23  1  0  0  0  0
  3 31  1  0  0  0  0
  4  5  1  0  0  0  0
  4 32  1  0  0  0  0
  4 33  1  0  0  0  0
  5 22  1  0  0  0  0
  5  6  1  0  0  0  0
  6  7  2  0  0  0  0
  6 34  1  0  0  0  0
  7  8  1  0  0  0  0
  8 22  2  0  0  0  0
  8  9  1  0  0  0  0
  9 10  1  0  0  0  0
  9 19  2  0  0  0  0
 10 14  1  0  0  0  0
 10 11  1  0  0  0  0
 11 18  1  0  0  0  0
 11 12  1  0  0  0  0
 11 35  1  0  0  0  0
 12 13  1  0  0  0  0
 12 36  1  0  0  0  0
 12 37  1  0  0  0  0
 13 14  1  0  0  0  0
 13 38  1  0  0  0  0
 13 39  1  0  0  0  0
 14 15  1  0  0  0  0
 14 40  1  0  0  0  0
 15 16  1  0  0  0  0
 15 18  1  0  0  0  0
 15 41  1  0  0  0  0
 16 17  1  0  0  0  0
 16 42  1  0  0  0  0
 16 43  1  0  0  0  0
 17 44  1  0  0  0  0
 18 45  1  0  0  0  0
 18 46  1  0  0  0  0
 19 20  1  0  0  0  0
 20 21  2  0  0  0  0
 20 47  1  0  0  0  0
 21 22  1  0  0  0  0
 23 27  1  0  0  0  0
 23 24  1  0  0  0  0
 23 48  1  0  0  0  0
 24 25  1  0  0  0  0
 24 49  1  0  0  0  0
 24 50  1  0  0  0  0
 25 26  1  0  0  0  0
 25 51  1  0  0  0  0
 25 52  1  0  0  0  0
 26 27  1  0  0  0  0
 27 53  1  0  0  0  0
 27 54  1  0  0  0  0
M  END
> <s_m_source_file>
AV-unprocessed.smi

> <i_m_source_file_index>
227

> <i_lp_mmshare_version>
43012

> <i_f3d_flags>
0

> <s_epik_input>
W0NIMl0xT1tDSDJdW0NIMl1bQ0BIXTFbQ0BIXShbQ0gyXVtPSF0pW0NIMl1uKFtjSF1uMiljKGMyMyluW2NIXW5jM04oW0NASF00NSlbQ0BASF0oW0NIMl1bQ0gyXTQpW0NASF0oW0NIMl01KVtDSDJdW09IXQ==

> <s_epik_cmdline>
J2VwaWtfcHl0aG9uJywgJy1waCcsICc3LjAnLCAnLXRuJywgJzgnLCAnLW1hJywgJzIwMCcsICctbWV0YWxfYmluZGluZycsICctaW1hZScsICc8aW5maWxlLm1hZT4nLCAnLW9tYWUnLCAnPG91dGZpbGUubWFlPic=

> <r_lp_tautomer_probability>
1

> <r_epik_Ionization_Penalty>
0.0055791

> <r_epik_Ionization_Penalty_Charging>
0

> <r_epik_Ionization_Penalty_Neutral>
0.0055791

> <r_epik_State_Penalty>
0.00401299

> <r_epik_Charging_Adjusted_Penalty>
0.00401299

> <i_epik_Tot_Q>
0

> <i_epik_Tot_abs_Q>
0

> <r_epik_Metal_State_Penalty>
-0

> <b_epik_Metal_Only>
0

> <s_lp_Force_Field>
OPLS_2005

> <r_lp_Energy>
88.8293

> <b_lp_Chiralities_Consistent>
1

> <s_lp_Variant>
AV-unprocessed.smi:227-10

> <Gold.Version>
5.8.1

> <Gold.Id.Protein>
6NUR|6NUR_protein|mol2

> <Gold.PLP.Fitness>
53.8077

> <Gold.PLP.PLP>
-44.1791

> <Gold.PLP.part.hbond>
-5.6075

> <Gold.PLP.part.metal>
0.0000

> <Gold.PLP.part.buried>
-7.7699

> <Gold.PLP.part.nonpolar>
-33.0637

> <Gold.PLP.part.repulsive>
0.2964

> <Gold.PLP.ligand.clash>
0.0000

> <Gold.PLP.ligand.torsion>
1.0577

> <Gold.PLP.Chemscore.Hbond>
3.8251

> <Gold.PLP.Chemscore.CHOScore>
0.0000

> <Gold.PLP.Chemscore.Metal>
0.0000

> <Gold.Chemscore.Hbonds>
donor molecule, donor type, donor heavy atom, donor atom, acceptor molecule, acceptor atom, score
      L1  H     1    28       P1  8028  0.98
      P1  H  6896  6909       L1    17  0.57
      P1  H  7989  7998       L1    21  0.03
      P1  H  7997  8009       L1    21  1.00
      P1  H 10752 10765       L1    19  0.82

> <Gold.PLP.Chemscore.Internal.Correction>
0.2687

> <Gold.Rescore>
     Score         DG    S(hbond)    S(metal)    S(lipo)     H(rot)  DE(clash)    DE(int)     intcor
     14.22     -16.58       2.75        0.00      95.37       3.61       0.21       2.14       ----

> <Gold.Chemscore.Fitness>
14.2238

> <Gold.Chemscore.DG>
-16.5770

> <Gold.Chemscore.ZeroCoef>
-5.4800

> <Gold.Chemscore.Hbond>
2.7465

> <Gold.Chemscore.Metal>
0.0000

> <Gold.Chemscore.Lipo>
95.3653

> <Gold.Chemscore.Internal_Hbond>
0.0000

> <Gold.Chemscore.DEClash>
0.2086

> <Gold.Chemscore.DEInternal>
2.1446

> <Gold.Chemscore.Rot>
3.6071

> <Gold.Chemscore.Internal.Correction>
   9.000000E+99

> <Gold.Chemscore.Hbonds>
donor molecule, donor type, donor heavy atom, donor atom, acceptor molecule, acceptor atom, score
      L1  H     1    28       P1  8028  0.27
      P1  H  6896  6909       L1    17  0.56
      P1  H  7997  8009       L1    21  0.24
      P1  H 10752 10765       L1    19  0.70

> <Gold.Chemscore.Hbond.Weighted>
-9.1734

> <Gold.Chemscore.Metal.Weighted>
-0.0000

> <Gold.Chemscore.Lipo.Weighted>
-11.1577

> <Gold.Chemscore.Internal_Hbond.Weighted>
0.0000

> <Gold.Chemscore.DEClash.Weighted>
0.2086

> <Gold.Chemscore.DEInternal.Weighted>
2.1446

> <Gold.Chemscore.Rot.Weighted>
9.2342

> <Gold.Chemscore.Internal.Correction.Weighted>
   9.000000E+99

> <Gold.Protein.RotatedTorsions>
[ 6907 6896 6895 6894 ] final   53.36 input  -60.11 | X-H torsion
[ 7974 7965 7964 7962 ] final -135.33 input  175.53 | X-H torsion
[ 8008 7997 7996 7995 ] final -156.18 input   59.86 | X-H torsion
[ 10167 10162 10161 10158 ] final  -75.57 input  -65.29 | X-H torsion
[ 10718 10713 10712 10709 ] final  126.60 input   66.30 | X-H torsion
[ 10763 10752 10751 10750 ] final  162.61 input  -60.55 | X-H torsion
[ 11005 11000 10999 10996 ] final  -48.89 input  -57.11 | X-H torsion

> <Gold.Protein.ActiveResidues>
 VAL166  LYS551  ARG553  GLY616  TRP617  ASP618  TYR619  PRO620  LYS621  CYS622 
 ASP623  PHE694  ASN695  SER759  ASP760  ASP761  ALA762  ILE779  LEU786  VAL792 
 PHE793  MET794  SER795  GLU796  ALA797  LYS798  CYS799  TRP800  GLU811  SER814 

> <Gold.Protein.RotatedAtoms>
  152.3329  134.7236  160.0284 H   0  0  0  0  0  0  0  0  0  0  0  0  # atno 6907 bound_to 6896
  151.7647  133.3331  159.3435 H   0  0  0  0  0  0  0  0  0  0  0  0  # atno 6908 bound_to 6896
  150.7433  134.6006  159.6079 H   0  0  0  0  0  0  0  0  0  0  0  0  # atno 6909 bound_to 6896
  144.9023  140.6788  143.5077 H   0  0  0  0  0  0  0  0  0  0  0  0  # atno 7974 bound_to 7965
  155.7132  140.0781  157.2362 H   0  0  0  0  0  0  0  0  0  0  0  0  # atno 8008 bound_to 7997
  154.4055  140.1626  156.2373 H   0  0  0  0  0  0  0  0  0  0  0  0  # atno 8009 bound_to 7997
  155.9263  140.3394  155.6216 H   0  0  0  0  0  0  0  0  0  0  0  0  # atno 8010 bound_to 7997
  140.4932  143.2376  151.7874 H   0  0  0  0  0  0  0  0  0  0  0  0  # atno 10167 bound_to 10162
  157.5405  131.1097  150.8867 H   0  0  0  0  0  0  0  0  0  0  0  0  # atno 10718 bound_to 10713
  154.2810  135.2763  155.2697 H   0  0  0  0  0  0  0  0  0  0  0  0  # atno 10763 bound_to 10752
  154.5218  135.5754  153.6690 H   0  0  0  0  0  0  0  0  0  0  0  0  # atno 10764 bound_to 10752
  152.9929  135.6206  154.2969 H   0  0  0  0  0  0  0  0  0  0  0  0  # atno 10765 bound_to 10752
  141.0727  133.6674  156.3506 H   0  0  0  0  0  0  0  0  0  0  0  0  # atno 11005 bound_to 11000
  145.3595  139.1685  143.4391 LP  0  0  0  0  0  0  0  0  0  0  0  0  # atno 17320 bound_to 7965
  146.3115  140.3655  142.8669 LP  0  0  0  0  0  0  0  0  0  0  0  0  # atno 17321 bound_to 7965
  139.4855  144.4622  151.9527 LP  0  0  0  0  0  0  0  0  0  0  0  0  # atno 17342 bound_to 10162
  140.3709  144.2856  150.5920 LP  0  0  0  0  0  0  0  0  0  0  0  0  # atno 17343 bound_to 10162
  156.9421  130.5388  149.5280 LP  0  0  0  0  0  0  0  0  0  0  0  0  # atno 17370 bound_to 10713
  156.0493  130.5564  150.8952 LP  0  0  0  0  0  0  0  0  0  0  0  0  # atno 17371 bound_to 10713
  140.5639  134.5907  157.5440 LP  0  0  0  0  0  0  0  0  0  0  0  0  # atno 17394 bound_to 11000
  139.9540  134.7567  156.0384 LP  0  0  0  0  0  0  0  0  0  0  0  0  # atno 17395 bound_to 11000

$$$$
