AV-unprocessed.smi:3338|AV-procd|sdf|12874|dock1
  -GOLD-   2272019273D 1   1.00000     0.00000
 Structure written by MMmdl.
 44 45  0  0  0  0  0  0  0  0  2 V2000
  150.1209  135.1131  154.7353 C   0  0  0  0  0  0  0  0  0  0  0  0
  149.7438  136.2861  155.6569 C   0  0  1  0  0  0  0  0  0  0  0  0
  150.8270  137.3797  155.7072 C   0  0  0  0  0  0  0  0  0  0  0  0
  150.8369  138.2151  154.4192 C   0  0  0  0  0  0  0  0  0  0  0  0
  149.4379  138.7710  154.1106 C   0  0  0  0  0  0  0  0  0  0  0  0
  148.4351  137.6782  154.0278 N   0  3  2  0  0  0  0  0  0  0  0  0
  147.1067  138.1663  153.5814 C   0  0  0  0  0  0  0  0  0  0  0  0
  146.0269  137.0695  153.6573 C   0  0  0  0  0  0  0  0  0  0  0  0
  146.4151  135.8868  152.8987 N   0  0  0  0  0  0  0  0  0  0  0  0
  145.8217  134.6860  152.9946 C   0  0  0  0  0  0  0  0  0  0  0  0
  144.8820  134.4657  153.7600 O   0  0  0  0  0  0  0  0  0  0  0  0
  146.3772  133.5754  152.0869 C   0  0  1  0  0  0  0  0  0  0  0  0
  147.0851  132.4543  152.8741 C   0  0  0  0  0  0  0  0  0  0  0  0
  145.3300  133.0486  151.2187 N   0  0  0  0  0  0  0  0  0  0  0  0
  144.8876  133.5598  150.0151 C   0  0  0  0  0  0  0  0  0  0  0  0
  143.8828  132.7500  149.5691 C   0  0  0  0  0  0  0  0  0  0  0  0
  143.7732  131.7578  150.5825 C   0  0  0  0  0  0  0  0  0  0  0  0
  144.6335  131.9422  151.5705 N   0  0  0  0  0  0  0  0  0  0  0  0
  148.3742  136.8961  155.2930 C   0  0  0  0  0  0  0  0  0  0  0  0
  150.2047  135.4227  153.6935 H   0  0  0  0  0  0  0  0  0  0  0  0
  149.3713  134.3226  154.7841 H   0  0  0  0  0  0  0  0  0  0  0  0
  151.0754  134.6753  155.0292 H   0  0  0  0  0  0  0  0  0  0  0  0
  149.6582  135.8695  156.6614 H   0  0  0  0  0  0  0  0  0  0  0  0
  150.6326  138.0378  156.5551 H   0  0  0  0  0  0  0  0  0  0  0  0
  151.8097  136.9401  155.8819 H   0  0  0  0  0  0  0  0  0  0  0  0
  151.5484  139.0358  154.5161 H   0  0  0  0  0  0  0  0  0  0  0  0
  151.1844  137.6075  153.5830 H   0  0  0  0  0  0  0  0  0  0  0  0
  149.1365  139.4868  154.8772 H   0  0  0  0  0  0  0  0  0  0  0  0
  149.4731  139.3142  153.1653 H   0  0  0  0  0  0  0  0  0  0  0  0
  146.8247  139.0430  154.1670 H   0  0  0  0  0  0  0  0  0  0  0  0
  147.1715  138.4997  152.5447 H   0  0  0  0  0  0  0  0  0  0  0  0
  145.8741  136.7714  154.6949 H   0  0  0  0  0  0  0  0  0  0  0  0
  145.0633  137.4273  153.2938 H   0  0  0  0  0  0  0  0  0  0  0  0
  147.1828  135.9877  152.2504 H   0  0  0  0  0  0  0  0  0  0  0  0
  147.1267  134.0373  151.4423 H   0  0  0  0  0  0  0  0  0  0  0  0
  147.9116  132.8502  153.4651 H   0  0  0  0  0  0  0  0  0  0  0  0
  147.4982  131.7062  152.1971 H   0  0  0  0  0  0  0  0  0  0  0  0
  146.4062  131.9406  153.5559 H   0  0  0  0  0  0  0  0  0  0  0  0
  145.3214  134.4476  149.5789 H   0  0  0  0  0  0  0  0  0  0  0  0
  143.3128  132.8510  148.6574 H   0  0  0  0  0  0  0  0  0  0  0  0
  143.0974  130.9167  150.6308 H   0  0  0  0  0  0  0  0  0  0  0  0
  147.6345  136.0997  155.2184 H   0  0  0  0  0  0  0  0  0  0  0  0
  148.0387  137.5512  156.0987 H   0  0  0  0  0  0  0  0  0  0  0  0
  148.7647  137.0509  153.3081 H   0  0  0  0  0  0  0  0  0  0  0  0
  1  2  1  0  0  0  0
  1 20  1  0  0  0  0
  1 21  1  0  0  0  0
  1 22  1  0  0  0  0
  2 19  1  0  0  0  0
  2  3  1  0  0  0  0
  2 23  1  0  0  0  0
  3  4  1  0  0  0  0
  3 24  1  0  0  0  0
  3 25  1  0  0  0  0
  4  5  1  0  0  0  0
  4 26  1  0  0  0  0
  4 27  1  0  0  0  0
  5  6  1  0  0  0  0
  5 28  1  0  0  0  0
  5 29  1  0  0  0  0
  6  7  1  0  0  0  0
  6 19  1  0  0  0  0
  6 44  1  0  0  0  0
  7  8  1  0  0  0  0
  7 30  1  0  0  0  0
  7 31  1  0  0  0  0
  8  9  1  0  0  0  0
  8 32  1  0  0  0  0
  8 33  1  0  0  0  0
  9 10  1  0  0  0  0
  9 34  1  0  0  0  0
 10 11  2  0  0  0  0
 10 12  1  0  0  0  0
 12 13  1  0  0  0  0
 12 14  1  0  0  0  0
 12 35  1  0  0  0  0
 13 36  1  0  0  0  0
 13 37  1  0  0  0  0
 13 38  1  0  0  0  0
 14 18  1  0  0  0  0
 14 15  1  0  0  0  0
 15 16  2  0  0  0  0
 15 39  1  0  0  0  0
 16 17  1  0  0  0  0
 16 40  1  0  0  0  0
 17 18  2  0  0  0  0
 17 41  1  0  0  0  0
 19 42  1  0  0  0  0
 19 43  1  0  0  0  0
M  CHG  1   6   1
M  END
> <s_m_source_file>
AV-unprocessed.smi

> <i_m_source_file_index>
3338

> <i_lp_mmshare_version>
43012

> <i_f3d_flags>
0

> <s_epik_input>
W0NIM11bQ0BASF0xW0NIMl1bQ0gyXVtDSDJdTihbQ0gyXTEpW0NIMl1bQ0gyXVtOSF1DKD1PKVtDQEhdKFtDSDNdKW4yW2NIXVtjSF1bY0hdbjI=

> <s_epik_cmdline>
J2VwaWtfcHl0aG9uJywgJy1waCcsICc3LjAnLCAnLXRuJywgJzgnLCAnLW1hJywgJzIwMCcsICctbWV0YWxfYmluZGluZycsICctaW1hZScsICc8aW5maWxlLm1hZT4nLCAnLW9tYWUnLCAnPG91dGZpbGUubWFlPic=

> <r_lp_tautomer_probability>
1

> <r_epik_Ionization_Penalty>
0.00225707

> <r_epik_Ionization_Penalty_Charging>
0.00223709

> <r_epik_Ionization_Penalty_Neutral>
1.99775e-05

> <r_epik_State_Penalty>
0.00153978

> <r_epik_Charging_Adjusted_Penalty>
0.00377687

> <i_epik_Tot_Q>
1

> <i_epik_Tot_abs_Q>
1

> <r_epik_Metal_State_Penalty>
-0

> <b_epik_Metal_Only>
0

> <s_lp_Force_Field>
OPLS_2005

> <r_lp_Energy>
22.3922

> <b_lp_Chiralities_Consistent>
1

> <s_lp_Variant>
AV-unprocessed.smi:3338-6

> <Gold.Version>
5.8.1

> <Gold.Id.Protein>
6NUR|6NUR_protein|mol2

> <Gold.PLP.Fitness>
41.4477

> <Gold.PLP.PLP>
-28.1876

> <Gold.PLP.part.hbond>
-2.0000

> <Gold.PLP.part.metal>
0.0000

> <Gold.PLP.part.buried>
-1.6717

> <Gold.PLP.part.nonpolar>
-24.6270

> <Gold.PLP.part.repulsive>
0.2269

> <Gold.PLP.ligand.clash>
0.0000

> <Gold.PLP.ligand.torsion>
0.9313

> <Gold.PLP.Chemscore.Hbond>
3.0000

> <Gold.PLP.Chemscore.CHOScore>
2.0000

> <Gold.PLP.Chemscore.Metal>
0.0000

> <Gold.Chemscore.Hbonds>
donor molecule, donor type, donor heavy atom, donor atom, acceptor molecule, acceptor atom, score
      L1  H     6    44       P1  7948  2.00
      L1  H     9    34       P1  7948  1.00
      L1  C    15    39       P1  7921  1.00
      L1  C    17    41       P1 10952  0.89

> <Gold.PLP.Chemscore.Internal.Correction>
0.1228

> <Gold.Rescore>
     Score         DG    S(hbond)    S(metal)    S(lipo)     H(rot)  DE(clash)    DE(int)     intcor
     14.99     -16.17       1.96        0.00      73.92       1.76       0.04       1.13       ----

> <Gold.Chemscore.Fitness>
14.9945

> <Gold.Chemscore.DG>
-16.1655

> <Gold.Chemscore.ZeroCoef>
-5.4800

> <Gold.Chemscore.Hbond>
1.9565

> <Gold.Chemscore.Metal>
0.0000

> <Gold.Chemscore.Lipo>
73.9196

> <Gold.Chemscore.Internal_Hbond>
0.0000

> <Gold.Chemscore.DEClash>
0.0402

> <Gold.Chemscore.DEInternal>
1.1308

> <Gold.Chemscore.Rot>
1.7570

> <Gold.Chemscore.Internal.Correction>
   9.000000E+99

> <Gold.Chemscore.Hbonds>
donor molecule, donor type, donor heavy atom, donor atom, acceptor molecule, acceptor atom, score
      L1  H     6    44       P1  7948  1.00
      L1  H     9    34       P1  7948  0.98

> <Gold.Chemscore.Hbond.Weighted>
-6.5348

> <Gold.Chemscore.Metal.Weighted>
-0.0000

> <Gold.Chemscore.Lipo.Weighted>
-8.6486

> <Gold.Chemscore.Internal_Hbond.Weighted>
0.0000

> <Gold.Chemscore.DEClash.Weighted>
0.0402

> <Gold.Chemscore.DEInternal.Weighted>
1.1308

> <Gold.Chemscore.Rot.Weighted>
4.4979

> <Gold.Chemscore.Internal.Correction.Weighted>
   9.000000E+99

> <Gold.Protein.RotatedTorsions>
[ 6907 6896 6895 6894 ] final   -2.93 input  -60.11 | X-H torsion
[ 7974 7965 7964 7962 ] final   20.07 input  175.53 | X-H torsion
[ 8008 7997 7996 7995 ] final  -52.42 input   59.86 | X-H torsion
[ 10167 10162 10161 10158 ] final  111.54 input  -65.29 | X-H torsion
[ 10718 10713 10712 10709 ] final  -58.40 input   66.30 | X-H torsion
[ 10763 10752 10751 10750 ] final -170.55 input  -60.55 | X-H torsion
[ 11005 11000 10999 10996 ] final -165.58 input  -57.11 | X-H torsion

> <Gold.Protein.ActiveResidues>
 VAL166  LYS551  ARG553  GLY616  TRP617  ASP618  TYR619  PRO620  LYS621  CYS622 
 ASP623  PHE694  ASN695  SER759  ASP760  ASP761  ALA762  ILE779  LEU786  VAL792 
 PHE793  MET794  SER795  GLU796  ALA797  LYS798  CYS799  TRP800  GLU811  SER814 

> <Gold.Protein.RotatedAtoms>
  151.5219  135.1067  159.9880 H   0  0  0  0  0  0  0  0  0  0  0  0  # atno 6907 bound_to 6896
  152.4616  133.7831  159.6872 H   0  0  0  0  0  0  0  0  0  0  0  0  # atno 6908 bound_to 6896
  150.8581  133.7620  159.3027 H   0  0  0  0  0  0  0  0  0  0  0  0  # atno 6909 bound_to 6896
  146.2125  139.8222  142.8677 H   0  0  0  0  0  0  0  0  0  0  0  0  # atno 7974 bound_to 7965
  154.4106  140.1224  156.4989 H   0  0  0  0  0  0  0  0  0  0  0  0  # atno 8008 bound_to 7997
  155.6914  140.3495  155.4876 H   0  0  0  0  0  0  0  0  0  0  0  0  # atno 8009 bound_to 7997
  155.9465  140.1097  157.1002 H   0  0  0  0  0  0  0  0  0  0  0  0  # atno 8010 bound_to 7997
  139.6604  144.7129  151.1877 H   0  0  0  0  0  0  0  0  0  0  0  0  # atno 10167 bound_to 10162
  156.1138  130.4172  150.0572 H   0  0  0  0  0  0  0  0  0  0  0  0  # atno 10718 bound_to 10713
  154.6403  135.2898  155.0112 H   0  0  0  0  0  0  0  0  0  0  0  0  # atno 10763 bound_to 10752
  154.1241  135.6543  153.4912 H   0  0  0  0  0  0  0  0  0  0  0  0  # atno 10764 bound_to 10752
  153.0323  135.5294  154.7267 H   0  0  0  0  0  0  0  0  0  0  0  0  # atno 10765 bound_to 10752
  140.5742  134.5207  157.5167 H   0  0  0  0  0  0  0  0  0  0  0  0  # atno 11005 bound_to 11000
  145.3084  141.0213  143.3568 LP  0  0  0  0  0  0  0  0  0  0  0  0  # atno 17320 bound_to 7965
  144.8954  139.4719  143.6658 LP  0  0  0  0  0  0  0  0  0  0  0  0  # atno 17321 bound_to 7965
  140.7577  143.6004  150.8706 LP  0  0  0  0  0  0  0  0  0  0  0  0  # atno 17342 bound_to 10162
  139.9661  143.6109  152.2988 LP  0  0  0  0  0  0  0  0  0  0  0  0  # atno 17343 bound_to 10162
  156.8528  130.9465  151.3624 LP  0  0  0  0  0  0  0  0  0  0  0  0  # atno 17370 bound_to 10713
  157.6320  130.8737  149.9292 LP  0  0  0  0  0  0  0  0  0  0  0  0  # atno 17371 bound_to 10713
  139.9348  134.7897  156.0834 LP  0  0  0  0  0  0  0  0  0  0  0  0  # atno 17394 bound_to 11000
  141.1037  133.6668  156.2814 LP  0  0  0  0  0  0  0  0  0  0  0  0  # atno 17395 bound_to 11000

$$$$
