AV-unprocessed.smi:2091|AV-procd|sdf|8541|dock9
  -GOLD-   2272011263D 1   1.00000     0.00000
 Structure written by MMmdl.
 35 36  0  0  0  0  0  0  0  0  2 V2000
  145.7166  134.0255  154.5419 O   0  0  0  0  0  0  0  0  0  0  0  0
  146.5233  134.8182  154.0535 C   0  0  0  0  0  0  0  0  0  0  0  0
  147.4028  135.6957  154.9540 C   0  0  0  0  0  0  0  0  0  0  0  0
  148.4952  134.9462  155.5955 N   0  0  0  0  0  0  0  0  0  0  0  0
  149.3463  134.1927  154.7680 C   0  0  0  0  0  0  0  0  0  0  0  0
  150.3718  133.4769  155.2673 C   0  0  0  0  0  0  0  0  0  0  0  0
  150.5904  133.4965  156.7084 C   0  0  0  0  0  0  0  0  0  0  0  0
  151.5258  132.8537  157.1812 O   0  0  0  0  0  0  0  0  0  0  0  0
  149.7337  134.2380  157.4700 N   0  5  0  0  0  0  0  0  0  0  0  0
  148.6926  134.9588  156.9485 C   0  0  0  0  0  0  0  0  0  0  0  0
  147.9294  135.6194  157.6543 O   0  0  0  0  0  0  0  0  0  0  0  0
  146.7140  134.9532  152.7315 N   0  0  0  0  0  0  0  0  0  0  0  0
  146.0050  134.2083  151.6888 C   0  0  1  0  0  0  0  0  0  0  0  0
  146.0582  132.7107  152.0686 C   0  0  0  0  0  0  0  0  0  0  0  0
  145.8567  131.7593  150.8761 C   0  0  0  0  0  0  0  0  0  0  0  0
  144.4699  131.8269  150.2189 C   0  0  0  0  0  0  0  0  0  0  0  0
  144.1431  133.1983  149.6038 C   0  0  0  0  0  0  0  0  0  0  0  0
  143.7581  134.1748  150.6144 N   0  0  0  0  0  0  0  0  0  0  0  0
  144.5273  134.6577  151.6022 C   0  0  0  0  0  0  0  0  0  0  0  0
  144.0583  135.4420  152.4272 O   0  0  0  0  0  0  0  0  0  0  0  0
  147.8030  136.5080  154.3460 H   0  0  0  0  0  0  0  0  0  0  0  0
  146.7877  136.1831  155.7130 H   0  0  0  0  0  0  0  0  0  0  0  0
  149.1121  134.2267  153.7143 H   0  0  0  0  0  0  0  0  0  0  0  0
  151.0147  132.9010  154.6182 H   0  0  0  0  0  0  0  0  0  0  0  0
  147.4054  135.6204  152.4222 H   0  0  0  0  0  0  0  0  0  0  0  0
  146.5047  134.3717  150.7322 H   0  0  0  0  0  0  0  0  0  0  0  0
  147.0389  132.4864  152.4909 H   0  0  0  0  0  0  0  0  0  0  0  0
  145.3420  132.4819  152.8598 H   0  0  0  0  0  0  0  0  0  0  0  0
  146.6237  131.9537  150.1253 H   0  0  0  0  0  0  0  0  0  0  0  0
  146.0281  130.7374  151.2155 H   0  0  0  0  0  0  0  0  0  0  0  0
  144.4344  131.0770  149.4280 H   0  0  0  0  0  0  0  0  0  0  0  0
  143.6981  131.5416  150.9351 H   0  0  0  0  0  0  0  0  0  0  0  0
  144.9752  133.5729  149.0060 H   0  0  0  0  0  0  0  0  0  0  0  0
  143.2989  133.0929  148.9222 H   0  0  0  0  0  0  0  0  0  0  0  0
  142.8019  134.4974  150.5801 H   0  0  0  0  0  0  0  0  0  0  0  0
  1  2  2  0  0  0  0
  2  3  1  0  0  0  0
  2 12  1  0  0  0  0
  3  4  1  0  0  0  0
  3 21  1  0  0  0  0
  3 22  1  0  0  0  0
  4 10  1  0  0  0  0
  4  5  1  0  0  0  0
  5  6  2  0  0  0  0
  5 23  1  0  0  0  0
  6  7  1  0  0  0  0
  6 24  1  0  0  0  0
  7  8  2  0  0  0  0
  7  9  1  0  0  0  0
  9 10  1  0  0  0  0
 10 11  2  0  0  0  0
 12 13  1  0  0  0  0
 12 25  1  0  0  0  0
 13 19  1  0  0  0  0
 13 14  1  0  0  0  0
 13 26  1  0  0  0  0
 14 15  1  0  0  0  0
 14 27  1  0  0  0  0
 14 28  1  0  0  0  0
 15 16  1  0  0  0  0
 15 29  1  0  0  0  0
 15 30  1  0  0  0  0
 16 17  1  0  0  0  0
 16 31  1  0  0  0  0
 16 32  1  0  0  0  0
 17 18  1  0  0  0  0
 17 33  1  0  0  0  0
 17 34  1  0  0  0  0
 18 19  1  0  0  0  0
 18 35  1  0  0  0  0
 19 20  2  0  0  0  0
M  CHG  1   9  -1
M  END
> <s_m_source_file>
AV-unprocessed.smi

> <i_m_source_file_index>
2091

> <i_lp_mmshare_version>
43012

> <i_f3d_flags>
0

> <s_epik_input>
Tz1jMVtuSF1jKD1PKVtjSF1bY0hdbjFbQ0gyXUMoPU8pW05IXVtDQEBIXTJbQ0gyXVtDSDJdW0NIMl1bQ0gyXVtOSF1DMj1P

> <s_epik_cmdline>
J2VwaWtfcHl0aG9uJywgJy1waCcsICc3LjAnLCAnLXRuJywgJzgnLCAnLW1hJywgJzIwMCcsICctbWV0YWxfYmluZGluZycsICctaW1hZScsICc8aW5maWxlLm1hZT4nLCAnLW9tYWUnLCAnPG91dGZpbGUubWFlPic=

> <r_lp_tautomer_probability>
0.999537

> <r_epik_Ionization_Penalty>
3.03155

> <r_epik_Ionization_Penalty_Charging>
2.38195e-08

> <r_epik_Ionization_Penalty_Neutral>
3.03155

> <r_epik_State_Penalty>
3.03052

> <r_epik_Charging_Adjusted_Penalty>
3.03052

> <i_epik_Tot_Q>
-1

> <i_epik_Tot_abs_Q>
1

> <r_epik_Metal_State_Penalty>
0.455936

> <b_epik_Metal_Only>
1

> <s_lp_Force_Field>
OPLS_2005

> <r_lp_Energy>
21.0556

> <b_lp_Chiralities_Consistent>
1

> <s_lp_Variant>
AV-unprocessed.smi:2091-4

> <Gold.Version>
5.8.1

> <Gold.Id.Protein>
6NUR|6NUR_protein|mol2

> <Gold.PLP.Fitness>
38.0898

> <Gold.PLP.PLP>
-26.8182

> <Gold.PLP.part.hbond>
-3.9547

> <Gold.PLP.part.metal>
0.0000

> <Gold.PLP.part.buried>
-4.7941

> <Gold.PLP.part.nonpolar>
-18.8872

> <Gold.PLP.part.repulsive>
0.1783

> <Gold.PLP.ligand.clash>
0.0000

> <Gold.PLP.ligand.torsion>
0.3319

> <Gold.PLP.Chemscore.Hbond>
3.5519

> <Gold.PLP.Chemscore.CHOScore>
0.4259

> <Gold.PLP.Chemscore.Metal>
0.0000

> <Gold.Chemscore.Hbonds>
donor molecule, donor type, donor heavy atom, donor atom, acceptor molecule, acceptor atom, score
      L1  H    12    25       P1  7948  1.00
      L1  H    18    35       P1 10186  0.86
      P1  H  6896  6907       L1     9  1.46
      L1  C     5    23       P1  7948  0.41

> <Gold.PLP.Chemscore.Internal.Correction>
0.0021

> <Gold.Rescore>
     Score         DG    S(hbond)    S(metal)    S(lipo)     H(rot)  DE(clash)    DE(int)     intcor
     12.21     -14.38       2.11        0.00      56.36       1.85       0.17       2.00       ----

> <Gold.Chemscore.Fitness>
12.2092

> <Gold.Chemscore.DG>
-14.3807

> <Gold.Chemscore.ZeroCoef>
-5.4800

> <Gold.Chemscore.Hbond>
2.1099

> <Gold.Chemscore.Metal>
0.0000

> <Gold.Chemscore.Lipo>
56.3628

> <Gold.Chemscore.Internal_Hbond>
0.0000

> <Gold.Chemscore.DEClash>
0.1739

> <Gold.Chemscore.DEInternal>
1.9976

> <Gold.Chemscore.Rot>
1.8519

> <Gold.Chemscore.Internal.Correction>
   9.000000E+99

> <Gold.Chemscore.Hbonds>
donor molecule, donor type, donor heavy atom, donor atom, acceptor molecule, acceptor atom, score
      L1  H    12    25       P1  7948  0.99
      L1  H    18    35       P1 10186  0.32
      P1  H  6896  6907       L1     9  0.12

> <Gold.Chemscore.Hbond.Weighted>
-7.0470

> <Gold.Chemscore.Metal.Weighted>
-0.0000

> <Gold.Chemscore.Lipo.Weighted>
-6.5945

> <Gold.Chemscore.Internal_Hbond.Weighted>
0.0000

> <Gold.Chemscore.DEClash.Weighted>
0.1739

> <Gold.Chemscore.DEInternal.Weighted>
1.9976

> <Gold.Chemscore.Rot.Weighted>
4.7408

> <Gold.Chemscore.Internal.Correction.Weighted>
   9.000000E+99

> <Gold.Protein.RotatedTorsions>
[ 6907 6896 6895 6894 ] final -108.44 input  -60.11 | X-H torsion
[ 7974 7965 7964 7962 ] final   76.12 input  175.53 | X-H torsion
[ 8008 7997 7996 7995 ] final   34.37 input   59.86 | X-H torsion
[ 10167 10162 10161 10158 ] final  166.10 input  -65.29 | X-H torsion
[ 10718 10713 10712 10709 ] final  -53.15 input   66.30 | X-H torsion
[ 10763 10752 10751 10750 ] final  -75.94 input  -60.55 | X-H torsion
[ 11005 11000 10999 10996 ] final  -95.76 input  -57.11 | X-H torsion

> <Gold.Protein.ActiveResidues>
 VAL166  LYS551  ARG553  GLY616  TRP617  ASP618  TYR619  PRO620  LYS621  CYS622 
 ASP623  PHE694  ASN695  SER759  ASP760  ASP761  ALA762  ILE779  LEU786  VAL792 
 PHE793  MET794  SER795  GLU796  ALA797  LYS798  CYS799  TRP800  GLU811  SER814 

> <Gold.Protein.RotatedAtoms>
  150.7502  133.9676  159.3535 H   0  0  0  0  0  0  0  0  0  0  0  0  # atno 6907 bound_to 6896
  151.7607  135.0808  160.0354 H   0  0  0  0  0  0  0  0  0  0  0  0  # atno 6908 bound_to 6896
  152.3405  133.6024  159.5909 H   0  0  0  0  0  0  0  0  0  0  0  0  # atno 6909 bound_to 6896
  145.7068  139.2601  143.1673 H   0  0  0  0  0  0  0  0  0  0  0  0  # atno 7974 bound_to 7965
  155.1537  140.3277  155.4426 H   0  0  0  0  0  0  0  0  0  0  0  0  # atno 8008 bound_to 7997
  156.2566  140.1972  156.6598 H   0  0  0  0  0  0  0  0  0  0  0  0  # atno 8009 bound_to 7997
  154.6455  140.0565  156.9881 H   0  0  0  0  0  0  0  0  0  0  0  0  # atno 8010 bound_to 7997
  139.4918  144.4062  151.9352 H   0  0  0  0  0  0  0  0  0  0  0  0  # atno 10167 bound_to 10162
  156.1560  130.4150  149.9869 H   0  0  0  0  0  0  0  0  0  0  0  0  # atno 10718 bound_to 10713
  154.4932  135.5814  153.6475 H   0  0  0  0  0  0  0  0  0  0  0  0  # atno 10763 bound_to 10752
  152.9866  135.6118  154.3097 H   0  0  0  0  0  0  0  0  0  0  0  0  # atno 10764 bound_to 10752
  154.2999  135.2847  155.2595 H   0  0  0  0  0  0  0  0  0  0  0  0  # atno 10765 bound_to 10752
  141.1432  133.8049  157.0479 H   0  0  0  0  0  0  0  0  0  0  0  0  # atno 11005 bound_to 11000
  146.0748  140.7829  142.9670 LP  0  0  0  0  0  0  0  0  0  0  0  0  # atno 17320 bound_to 7965
  144.6953  140.3398  143.7201 LP  0  0  0  0  0  0  0  0  0  0  0  0  # atno 17321 bound_to 7965
  140.3503  144.3097  150.5950 LP  0  0  0  0  0  0  0  0  0  0  0  0  # atno 17342 bound_to 10162
  140.5491  143.2209  151.7957 LP  0  0  0  0  0  0  0  0  0  0  0  0  # atno 17343 bound_to 10162
  156.7712  130.9187  151.3644 LP  0  0  0  0  0  0  0  0  0  0  0  0  # atno 17370 bound_to 10713
  157.6695  130.9038  150.0008 LP  0  0  0  0  0  0  0  0  0  0  0  0  # atno 17371 bound_to 10713
  140.0651  134.9734  157.1371 LP  0  0  0  0  0  0  0  0  0  0  0  0  # atno 17394 bound_to 11000
  140.3792  134.2305  155.7172 LP  0  0  0  0  0  0  0  0  0  0  0  0  # atno 17395 bound_to 11000

$$$$
