AV-unprocessed.smi:1901|AV-procd|sdf|7719|dock2
  -GOLD-   22720 9463D 1   1.00000     0.00000
 Structure written by MMmdl.
 27 28  0  0  0  0  0  0  0  0  2 V2000
  151.1446  140.5552  155.3551 O   0  0  0  0  0  0  0  0  0  0  0  0
  150.5052  141.6054  155.4520 C   0  0  0  0  0  0  0  0  0  0  0  0
  150.7358  142.4329  156.4799 N   0  0  0  0  0  0  0  0  0  0  0  0
  151.7088  142.2015  157.5403 C   0  0  0  0  0  0  0  0  0  0  0  0
  151.9516  143.4812  158.3573 C   0  0  1  0  0  0  0  0  0  0  0  0
  150.6989  144.2932  158.6123 C   0  0  0  0  0  0  0  0  0  0  0  0
  151.1318  145.1773  159.7774 C   0  0  0  0  0  0  0  0  0  0  0  0
  152.0541  144.3966  160.5317 O   0  0  0  0  0  0  0  0  0  0  0  0
  152.4483  143.2474  159.7857 C   0  0  0  0  0  0  0  0  0  0  0  0
  149.5484  142.0438  154.6023 N   0  5  0  0  0  0  0  0  0  0  0  0
  148.7884  141.1604  153.9343 C   0  0  0  0  0  0  0  0  0  0  0  0
  149.0412  139.8466  153.9149 N   0  0  0  0  0  0  0  0  0  0  0  0
  148.1264  139.1163  153.1541 C   0  0  0  0  0  0  0  0  0  0  0  0
  147.1604  139.8935  152.5720 C   0  0  0  0  0  0  0  0  0  0  0  0
  147.3714  141.5756  152.9660 S   0  0  0  0  0  0  0  0  0  0  0  0
  150.1935  143.2829  156.5268 H   0  0  0  0  0  0  0  0  0  0  0  0
  151.3437  141.4100  158.1964 H   0  0  0  0  0  0  0  0  0  0  0  0
  152.6431  141.8483  157.1008 H   0  0  0  0  0  0  0  0  0  0  0  0
  152.6715  144.1139  157.8349 H   0  0  0  0  0  0  0  0  0  0  0  0
  150.3745  144.8657  157.7428 H   0  0  0  0  0  0  0  0  0  0  0  0
  149.8784  143.6434  158.9206 H   0  0  0  0  0  0  0  0  0  0  0  0
  151.6481  146.0646  159.4089 H   0  0  0  0  0  0  0  0  0  0  0  0
  150.2905  145.5041  160.3889 H   0  0  0  0  0  0  0  0  0  0  0  0
  151.9671  142.3727  160.2256 H   0  0  0  0  0  0  0  0  0  0  0  0
  153.5270  143.0963  159.8312 H   0  0  0  0  0  0  0  0  0  0  0  0
  148.2402  138.0451  153.0798 H   0  0  0  0  0  0  0  0  0  0  0  0
  146.3431  139.5822  151.9392 H   0  0  0  0  0  0  0  0  0  0  0  0
  1  2  2  0  0  0  0
  2  3  1  0  0  0  0
  2 10  1  0  0  0  0
  3  4  1  0  0  0  0
  3 16  1  0  0  0  0
  4  5  1  0  0  0  0
  4 17  1  0  0  0  0
  4 18  1  0  0  0  0
  5  9  1  0  0  0  0
  5  6  1  0  0  0  0
  5 19  1  0  0  0  0
  6  7  1  0  0  0  0
  6 20  1  0  0  0  0
  6 21  1  0  0  0  0
  7  8  1  0  0  0  0
  7 22  1  0  0  0  0
  7 23  1  0  0  0  0
  8  9  1  0  0  0  0
  9 24  1  0  0  0  0
  9 25  1  0  0  0  0
 10 11  1  0  0  0  0
 11 15  1  0  0  0  0
 11 12  2  0  0  0  0
 12 13  1  0  0  0  0
 13 14  2  0  0  0  0
 13 26  1  0  0  0  0
 14 15  1  0  0  0  0
 14 27  1  0  0  0  0
M  CHG  1  10  -1
M  END
> <s_m_source_file>
AV-unprocessed.smi

> <i_m_source_file_index>
1901

> <i_lp_mmshare_version>
43012

> <i_f3d_flags>
0

> <s_epik_input>
czFbY0hdW2NIXW5jMVtOSF1DKD1PKVtOSF1bQ0gyXVtDQEBIXTJbQ0gyXVtDSDJdT1tDSDJdMg==

> <s_epik_cmdline>
J2VwaWtfcHl0aG9uJywgJy1waCcsICc3LjAnLCAnLXRuJywgJzgnLCAnLW1hJywgJzIwMCcsICctbWV0YWxfYmluZGluZycsICctaW1hZScsICc8aW5maWxlLm1hZT4nLCAnLW9tYWUnLCAnPG91dGZpbGUubWFlPic=

> <r_lp_tautomer_probability>
0.999

> <r_epik_Ionization_Penalty>
8.4411

> <r_epik_Ionization_Penalty_Charging>
6.72681

> <r_epik_Ionization_Penalty_Neutral>
1.71429

> <r_epik_State_Penalty>
6.72698

> <r_epik_Charging_Adjusted_Penalty>
13.4538

> <i_epik_Tot_Q>
-1

> <i_epik_Tot_abs_Q>
1

> <r_epik_Metal_State_Penalty>
2.64812

> <b_epik_Metal_Only>
1

> <s_lp_Force_Field>
OPLS_2005

> <r_lp_Energy>
14.3262

> <b_lp_Chiralities_Consistent>
1

> <s_lp_Variant>
AV-unprocessed.smi:1901-4

> <Gold.Version>
5.8.1

> <Gold.Id.Protein>
6NUR|6NUR_protein|mol2

> <Gold.PLP.Fitness>
39.4323

> <Gold.PLP.PLP>
-29.2607

> <Gold.PLP.part.hbond>
-2.7728

> <Gold.PLP.part.metal>
0.0000

> <Gold.PLP.part.buried>
-4.6115

> <Gold.PLP.part.nonpolar>
-23.0406

> <Gold.PLP.part.repulsive>
2.1777

> <Gold.PLP.ligand.clash>
0.0000

> <Gold.PLP.ligand.torsion>
0.5264

> <Gold.PLP.Chemscore.Hbond>
1.8476

> <Gold.PLP.Chemscore.CHOScore>
1.8860

> <Gold.PLP.Chemscore.Metal>
0.0000

> <Gold.Chemscore.Hbonds>
donor molecule, donor type, donor heavy atom, donor atom, acceptor molecule, acceptor atom, score
      L1  H     3    16       P1  8028  0.76
      P1  H  7989  7998       L1     1  0.58
      L1  C    13    26       P1  7948  1.00
      L1  C    14    27       P1 10175  0.18

> <Gold.PLP.Chemscore.Internal.Correction>
0.0237

> <Gold.Rescore>
     Score         DG    S(hbond)    S(metal)    S(lipo)     H(rot)  DE(clash)    DE(int)     intcor
     13.21     -15.58       1.37        0.00      75.69       1.30       0.50       1.87       ----

> <Gold.Chemscore.Fitness>
13.2105

> <Gold.Chemscore.DG>
-15.5808

> <Gold.Chemscore.ZeroCoef>
-5.4800

> <Gold.Chemscore.Hbond>
1.3693

> <Gold.Chemscore.Metal>
0.0000

> <Gold.Chemscore.Lipo>
75.6863

> <Gold.Chemscore.Internal_Hbond>
0.0000

> <Gold.Chemscore.DEClash>
0.4975

> <Gold.Chemscore.DEInternal>
1.8727

> <Gold.Chemscore.Rot>
1.3000

> <Gold.Chemscore.Internal.Correction>
   9.000000E+99

> <Gold.Chemscore.Hbonds>
donor molecule, donor type, donor heavy atom, donor atom, acceptor molecule, acceptor atom, score
      L1  H     3    16       P1  8028  0.74
      P1  H  7989  7998       L1     1  0.05

> <Gold.Chemscore.Hbond.Weighted>
-4.5735

> <Gold.Chemscore.Metal.Weighted>
-0.0000

> <Gold.Chemscore.Lipo.Weighted>
-8.8553

> <Gold.Chemscore.Internal_Hbond.Weighted>
0.0000

> <Gold.Chemscore.DEClash.Weighted>
0.4975

> <Gold.Chemscore.DEInternal.Weighted>
1.8727

> <Gold.Chemscore.Rot.Weighted>
3.3280

> <Gold.Chemscore.Internal.Correction.Weighted>
   9.000000E+99

> <Gold.Protein.RotatedTorsions>
[ 6907 6896 6895 6894 ] final  136.62 input  -60.11 | X-H torsion
[ 7974 7965 7964 7962 ] final   66.33 input  175.53 | X-H torsion
[ 8008 7997 7996 7995 ] final   76.43 input   59.86 | X-H torsion
[ 10167 10162 10161 10158 ] final  101.43 input  -65.29 | X-H torsion
[ 10718 10713 10712 10709 ] final  116.18 input   66.30 | X-H torsion
[ 10763 10752 10751 10750 ] final  -56.36 input  -60.55 | X-H torsion
[ 11005 11000 10999 10996 ] final   87.97 input  -57.11 | X-H torsion

> <Gold.Protein.ActiveResidues>
 VAL166  LYS551  ARG553  GLY616  TRP617  ASP618  TYR619  PRO620  LYS621  CYS622 
 ASP623  PHE694  ASN695  SER759  ASP760  ASP761  ALA762  ILE779  LEU786  VAL792 
 PHE793  MET794  SER795  GLU796  ALA797  LYS798  CYS799  TRP800  GLU811  SER814 

> <Gold.Protein.RotatedAtoms>
  152.2873  133.5528  159.5535 H   0  0  0  0  0  0  0  0  0  0  0  0  # atno 6907 bound_to 6896
  150.7220  134.0478  159.3797 H   0  0  0  0  0  0  0  0  0  0  0  0  # atno 6908 bound_to 6896
  151.8386  135.0598  160.0496 H   0  0  0  0  0  0  0  0  0  0  0  0  # atno 6909 bound_to 6896
  145.8279  139.3122  143.1005 H   0  0  0  0  0  0  0  0  0  0  0  0  # atno 7974 bound_to 7965
  155.8272  140.3467  155.5550 H   0  0  0  0  0  0  0  0  0  0  0  0  # atno 8008 bound_to 7997
  155.8280  140.0923  157.1829 H   0  0  0  0  0  0  0  0  0  0  0  0  # atno 8009 bound_to 7997
  154.4004  140.1417  156.3567 H   0  0  0  0  0  0  0  0  0  0  0  0  # atno 8010 bound_to 7997
  139.7438  144.7003  151.0534 H   0  0  0  0  0  0  0  0  0  0  0  0  # atno 10167 bound_to 10162
  157.6176  131.1022  150.7437 H   0  0  0  0  0  0  0  0  0  0  0  0  # atno 10718 bound_to 10713
  154.2054  135.6404  153.5099 H   0  0  0  0  0  0  0  0  0  0  0  0  # atno 10763 bound_to 10752
  153.0002  135.5461  154.6271 H   0  0  0  0  0  0  0  0  0  0  0  0  # atno 10764 bound_to 10752
  154.5695  135.2915  155.0815 H   0  0  0  0  0  0  0  0  0  0  0  0  # atno 10765 bound_to 10752
  139.8907  134.8457  156.2935 H   0  0  0  0  0  0  0  0  0  0  0  0  # atno 11005 bound_to 11000
  145.9603  140.8840  143.0214 LP  0  0  0  0  0  0  0  0  0  0  0  0  # atno 17320 bound_to 7965
  144.6742  140.1803  143.7406 LP  0  0  0  0  0  0  0  0  0  0  0  0  # atno 17321 bound_to 7965
  140.7789  143.4891  150.9916 LP  0  0  0  0  0  0  0  0  0  0  0  0  # atno 17342 bound_to 10162
  139.8579  143.7352  152.3175 LP  0  0  0  0  0  0  0  0  0  0  0  0  # atno 17343 bound_to 10162
  156.7801  130.4856  149.5402 LP  0  0  0  0  0  0  0  0  0  0  0  0  # atno 17370 bound_to 10713
  156.1305  130.6175  151.0327 LP  0  0  0  0  0  0  0  0  0  0  0  0  # atno 17371 bound_to 10713
  140.9960  133.7180  156.0887 LP  0  0  0  0  0  0  0  0  0  0  0  0  # atno 17394 bound_to 11000
  140.7561  134.3991  157.5533 LP  0  0  0  0  0  0  0  0  0  0  0  0  # atno 17395 bound_to 11000

$$$$
