AV-unprocessed.smi:582|AV-procd|sdf|2996|dock6
  -GOLD-   2262023503D 1   1.00000     0.00000
 Structure written by MMmdl.
 27 28  0  0  0  0  0  0  0  0  3 V2000
  151.7306  134.8378  156.4741 O   0  0  0  0  0  0  0  0  0  0  0  0
  151.1737  133.7194  156.5363 C   0  0  0  0  0  0  0  0  0  0  0  0
  151.4332  132.8862  157.4324 O   0  5  0  0  0  0  0  0  0  0  0  0
  150.1522  133.3621  155.4942 C   0  0  0  0  0  0  0  0  0  0  0  0
  149.5538  132.0806  155.4718 C   0  0  0  0  0  0  0  0  0  0  0  0
  148.5985  131.7738  154.4810 C   0  0  0  0  0  0  0  0  0  0  0  0
  148.2530  132.7550  153.5237 C   0  0  0  0  0  0  0  0  0  0  0  0
  147.3176  132.5421  152.5031 N   0  0  0  0  0  0  0  0  0  0  0  0
  146.6666  131.2411  152.5871 C   0  0  0  0  0  0  0  0  0  0  0  0
  145.7359  131.0401  151.3790 C   0  0  0  0  0  0  0  0  0  0  0  0
  144.8018  132.1139  151.3145 O   0  0  0  0  0  0  0  0  0  0  0  0
  145.4448  133.3751  151.1543 C   0  0  0  0  0  0  0  0  0  0  0  0
  146.3670  133.6371  152.3571 C   0  0  0  0  0  0  0  0  0  0  0  0
  148.8459  133.9671  153.5773 N   0  3  0  0  0  0  0  0  0  0  0  0
  149.7652  134.3001  154.5101 C   0  0  0  0  0  0  0  0  0  0  0  0
  149.8191  131.3319  156.2042 H   0  0  0  0  0  0  0  0  0  0  0  0
  148.1412  130.7957  154.4615 H   0  0  0  0  0  0  0  0  0  0  0  0
  147.4193  130.4520  152.6148 H   0  0  0  0  0  0  0  0  0  0  0  0
  146.0915  131.1731  153.5115 H   0  0  0  0  0  0  0  0  0  0  0  0
  146.3079  130.9846  150.4514 H   0  0  0  0  0  0  0  0  0  0  0  0
  145.1918  130.1004  151.4748 H   0  0  0  0  0  0  0  0  0  0  0  0
  146.0080  133.3928  150.2199 H   0  0  0  0  0  0  0  0  0  0  0  0
  144.6862  134.1548  151.0841 H   0  0  0  0  0  0  0  0  0  0  0  0
  145.7701  133.7347  153.2648 H   0  0  0  0  0  0  0  0  0  0  0  0
  146.9039  134.5766  152.2194 H   0  0  0  0  0  0  0  0  0  0  0  0
  150.1601  135.3036  154.4383 H   0  0  0  0  0  0  0  0  0  0  0  0
  148.5884  134.6664  152.8808 H   0  0  0  0  0  0  0  0  0  0  0  0
  1  2  2  0  0  0  0
  2  3  1  0  0  0  0
  2  4  1  0  0  0  0
  4 15  1  0  0  0  0
  4  5  2  0  0  0  0
  5  6  1  0  0  0  0
  5 16  1  0  0  0  0
  6  7  2  0  0  0  0
  6 17  1  0  0  0  0
  7  8  1  0  0  0  0
  7 14  1  0  0  0  0
  8 13  1  0  0  0  0
  8  9  1  0  0  0  0
  9 10  1  0  0  0  0
  9 18  1  0  0  0  0
  9 19  1  0  0  0  0
 10 11  1  0  0  0  0
 10 20  1  0  0  0  0
 10 21  1  0  0  0  0
 11 12  1  0  0  0  0
 12 13  1  0  0  0  0
 12 22  1  0  0  0  0
 12 23  1  0  0  0  0
 13 24  1  0  0  0  0
 13 25  1  0  0  0  0
 14 15  2  0  0  0  0
 14 27  1  0  0  0  0
 15 26  1  0  0  0  0
M  CHG  1   3  -1
M  CHG  1  14   1
M  END
> <s_m_source_file>
AV-unprocessed.smi

> <i_m_source_file_index>
582

> <i_lp_mmshare_version>
43012

> <i_f3d_flags>
0

> <s_epik_input>
Tz1DKFtPSF0pYzFbY0hdW2NIXWMobltjSF0xKU4yW0NIMl1bQ0gyXU9bQ0gyXVtDSDJdMg==

> <s_epik_cmdline>
J2VwaWtfcHl0aG9uJywgJy1waCcsICc3LjAnLCAnLXRuJywgJzgnLCAnLW1hJywgJzIwMCcsICctbWV0YWxfYmluZGluZycsICctaW1hZScsICc8aW5maWxlLm1hZT4nLCAnLW9tYWUnLCAnPG91dGZpbGUubWFlPic=

> <r_epik_Ionization_Penalty>
2.51473

> <r_epik_Ionization_Penalty_Charging>
2.51473

> <r_epik_Ionization_Penalty_Neutral>
3.18713e-12

> <r_epik_State_Penalty>
2.68069

> <r_epik_Charging_Adjusted_Penalty>
5.19543

> <i_epik_Tot_Q>
0

> <i_epik_Tot_abs_Q>
2

> <r_epik_Metal_State_Penalty>
6.76699

> <b_epik_Metal_Only>
0

> <s_lp_Force_Field>
OPLS_2005

> <r_lp_Energy>
18.1108

> <b_lp_Chiralities_Consistent>
1

> <s_lp_Variant>
AV-unprocessed.smi:582-2

> <Gold.Version>
5.8.1

> <Gold.Id.Protein>
6NUR|6NUR_protein|mol2

> <Gold.PLP.Fitness>
40.8594

> <Gold.PLP.PLP>
-23.8114

> <Gold.PLP.part.hbond>
-3.0000

> <Gold.PLP.part.metal>
0.0000

> <Gold.PLP.part.buried>
-2.2375

> <Gold.PLP.part.nonpolar>
-18.2675

> <Gold.PLP.part.repulsive>
0.2719

> <Gold.PLP.ligand.clash>
0.0000

> <Gold.PLP.ligand.torsion>
0.1872

> <Gold.PLP.Chemscore.Hbond>
5.7760

> <Gold.PLP.Chemscore.CHOScore>
0.0000

> <Gold.PLP.Chemscore.Metal>
0.0000

> <Gold.Chemscore.Hbonds>
donor molecule, donor type, donor heavy atom, donor atom, acceptor molecule, acceptor atom, score
      L1  H    14    27       P1  7948  1.90
      P1  H  6896  6908       L1     3  1.86
      P1  H 10752 10764       L1     1  1.68

> <Gold.PLP.Chemscore.Internal.Correction>
0.0944

> <Gold.Rescore>
     Score         DG    S(hbond)    S(metal)    S(lipo)     H(rot)  DE(clash)    DE(int)     intcor
     16.02     -16.22       2.38        0.00      45.83       1.00       0.00       0.20       ----

> <Gold.Chemscore.Fitness>
16.0156

> <Gold.Chemscore.DG>
-16.2189

> <Gold.Chemscore.ZeroCoef>
-5.4800

> <Gold.Chemscore.Hbond>
2.3763

> <Gold.Chemscore.Metal>
0.0000

> <Gold.Chemscore.Lipo>
45.8297

> <Gold.Chemscore.Internal_Hbond>
0.0000

> <Gold.Chemscore.DEClash>
0.0037

> <Gold.Chemscore.DEInternal>
0.1996

> <Gold.Chemscore.Rot>
1.0000

> <Gold.Chemscore.Internal.Correction>
   9.000000E+99

> <Gold.Chemscore.Hbonds>
donor molecule, donor type, donor heavy atom, donor atom, acceptor molecule, acceptor atom, score
      L1  H    14    27       P1  7948  0.21
      P1  H  6896  6908       L1     3  0.89
      P1  H 10752 10764       L1     1  0.79

> <Gold.Chemscore.Hbond.Weighted>
-7.9368

> <Gold.Chemscore.Metal.Weighted>
-0.0000

> <Gold.Chemscore.Lipo.Weighted>
-5.3621

> <Gold.Chemscore.Internal_Hbond.Weighted>
0.0000

> <Gold.Chemscore.DEClash.Weighted>
0.0037

> <Gold.Chemscore.DEInternal.Weighted>
0.1996

> <Gold.Chemscore.Rot.Weighted>
2.5600

> <Gold.Chemscore.Internal.Correction.Weighted>
   9.000000E+99

> <Gold.Protein.RotatedTorsions>
[ 6907 6896 6895 6894 ] final   70.06 input  -60.11 | X-H torsion
[ 7974 7965 7964 7962 ] final  153.15 input  175.53 | X-H torsion
[ 8008 7997 7996 7995 ] final  -85.39 input   59.86 | X-H torsion
[ 10167 10162 10161 10158 ] final  -93.16 input  -65.29 | X-H torsion
[ 10718 10713 10712 10709 ] final  172.29 input   66.30 | X-H torsion
[ 10763 10752 10751 10750 ] final  -26.57 input  -60.55 | X-H torsion
[ 11005 11000 10999 10996 ] final   28.66 input  -57.11 | X-H torsion

> <Gold.Protein.ActiveResidues>
 VAL166  LYS551  ARG553  GLY616  TRP617  ASP618  TYR619  PRO620  LYS621  CYS622 
 ASP623  PHE694  ASN695  SER759  ASP760  ASP761  ALA762  ILE779  LEU786  VAL792 
 PHE793  MET794  SER795  GLU796  ALA797  LYS798  CYS799  TRP800  GLU811  SER814 

> <Gold.Protein.RotatedAtoms>
  152.4726  134.4924  159.9699 H   0  0  0  0  0  0  0  0  0  0  0  0  # atno 6907 bound_to 6896
  151.4947  133.3511  159.2867 H   0  0  0  0  0  0  0  0  0  0  0  0  # atno 6908 bound_to 6896
  150.8744  134.8152  159.7240 H   0  0  0  0  0  0  0  0  0  0  0  0  # atno 6909 bound_to 6896
  144.8174  139.6763  143.6115 H   0  0  0  0  0  0  0  0  0  0  0  0  # atno 7974 bound_to 7965
  154.6402  140.0592  156.9836 H   0  0  0  0  0  0  0  0  0  0  0  0  # atno 8008 bound_to 7997
  155.1529  140.3275  155.4409 H   0  0  0  0  0  0  0  0  0  0  0  0  # atno 8009 bound_to 7997
  156.2527  140.1944  156.6640 H   0  0  0  0  0  0  0  0  0  0  0  0  # atno 8010 bound_to 7997
  140.3275  143.3014  151.9979 H   0  0  0  0  0  0  0  0  0  0  0  0  # atno 10167 bound_to 10162
  156.9812  131.0119  151.2881 H   0  0  0  0  0  0  0  0  0  0  0  0  # atno 10718 bound_to 10713
  153.7181  135.6946  153.5020 H   0  0  0  0  0  0  0  0  0  0  0  0  # atno 10763 bound_to 10752
  153.2223  135.4365  155.0502 H   0  0  0  0  0  0  0  0  0  0  0  0  # atno 10764 bound_to 10752
  154.8293  135.3463  154.6716 H   0  0  0  0  0  0  0  0  0  0  0  0  # atno 10765 bound_to 10752
  140.3132  134.2626  155.7730 H   0  0  0  0  0  0  0  0  0  0  0  0  # atno 11005 bound_to 11000
  146.2477  139.6134  142.9448 LP  0  0  0  0  0  0  0  0  0  0  0  0  # atno 17320 bound_to 7965
  145.5184  141.0433  143.2449 LP  0  0  0  0  0  0  0  0  0  0  0  0  # atno 17321 bound_to 7965
  139.4862  144.6262  151.7160 LP  0  0  0  0  0  0  0  0  0  0  0  0  # atno 17342 bound_to 10162
  140.5428  144.0552  150.6095 LP  0  0  0  0  0  0  0  0  0  0  0  0  # atno 17343 bound_to 10162
  157.5525  130.8192  149.8163 LP  0  0  0  0  0  0  0  0  0  0  0  0  # atno 17370 bound_to 10713
  156.0244  130.3784  150.1867 LP  0  0  0  0  0  0  0  0  0  0  0  0  # atno 17371 bound_to 10713
  141.2103  133.7722  156.9938 LP  0  0  0  0  0  0  0  0  0  0  0  0  # atno 17394 bound_to 11000
  140.1006  134.9538  157.1917 LP  0  0  0  0  0  0  0  0  0  0  0  0  # atno 17395 bound_to 11000

$$$$
