AV-unprocessed.smi:2114|AV-procd|sdf|8620|dock5
  -GOLD-   2272011363D 1   1.00000     0.00000
 Structure written by MMmdl.
 47 48  0  0  0  0  0  0  0  0  1 V2000
  155.4998  142.5649  168.1728 C   0  0  0  0  0  0  0  0  0  0  0  0
  155.9889  141.8725  167.0376 O   0  0  0  0  0  0  0  0  0  0  0  0
  155.8370  140.4667  167.1510 C   0  0  0  0  0  0  0  0  0  0  0  0
  156.3146  139.7937  165.8550 C   0  0  1  0  0  0  0  0  0  0  0  0
  156.1391  138.2675  165.9170 C   0  0  0  0  0  0  0  0  0  0  0  0
  155.5765  140.3401  164.7195 N   0  0  0  0  0  0  0  0  0  0  0  0
  155.8180  140.0602  163.4280 C   0  0  0  0  0  0  0  0  0  0  0  0
  156.7186  139.3099  163.0515 O   0  0  0  0  0  0  0  0  0  0  0  0
  154.9473  140.7739  162.4346 C   0  0  0  0  0  0  0  0  0  0  0  0
  154.0828  141.8218  162.8200 C   0  0  0  0  0  0  0  0  0  0  0  0
  153.2678  142.4317  161.8473 C   0  0  0  0  0  0  0  0  0  0  0  0
  153.3290  141.9747  160.5099 C   0  0  0  0  0  0  0  0  0  0  0  0
  152.5158  142.5686  159.5214 N   0  0  0  0  0  0  0  0  0  0  0  0
  153.1272  143.6619  158.7715 C   0  0  0  0  0  0  0  0  0  0  0  0
  152.0652  144.4485  157.9778 C   0  0  2  0  0  0  0  0  0  0  0  0
  151.2075  145.3760  158.8573 C   0  0  0  0  0  0  0  0  0  0  0  0
  151.2686  143.5544  157.1972 O   0  0  0  0  0  0  0  0  0  0  0  0
  150.6282  142.5191  157.9418 C   0  0  1  0  0  0  0  0  0  0  0  0
  149.8239  141.6571  156.9631 C   0  0  0  0  0  0  0  0  0  0  0  0
  151.6874  141.6952  158.6949 C   0  0  0  0  0  0  0  0  0  0  0  0
  154.1493  140.9594  160.1441 N   0  0  0  0  0  0  0  0  0  0  0  0
  154.9298  140.3787  161.0799 C   0  0  0  0  0  0  0  0  0  0  0  0
  155.6325  143.6376  168.0330 H   0  0  0  0  0  0  0  0  0  0  0  0
  156.0395  142.2740  169.0749 H   0  0  0  0  0  0  0  0  0  0  0  0
  154.4364  142.3740  168.3236 H   0  0  0  0  0  0  0  0  0  0  0  0
  156.4287  140.1064  167.9941 H   0  0  0  0  0  0  0  0  0  0  0  0
  154.7947  140.2124  167.3518 H   0  0  0  0  0  0  0  0  0  0  0  0
  157.3767  140.0141  165.7333 H   0  0  0  0  0  0  0  0  0  0  0  0
  156.6928  137.8433  166.7549 H   0  0  0  0  0  0  0  0  0  0  0  0
  156.5059  137.7884  165.0088 H   0  0  0  0  0  0  0  0  0  0  0  0
  155.0907  137.9932  166.0384 H   0  0  0  0  0  0  0  0  0  0  0  0
  154.8352  140.9917  164.9320 H   0  0  0  0  0  0  0  0  0  0  0  0
  154.0296  142.1570  163.8457 H   0  0  0  0  0  0  0  0  0  0  0  0
  152.5948  143.2241  162.1393 H   0  0  0  0  0  0  0  0  0  0  0  0
  153.6770  144.3452  159.4174 H   0  0  0  0  0  0  0  0  0  0  0  0
  153.8549  143.2334  158.0811 H   0  0  0  0  0  0  0  0  0  0  0  0
  152.5892  145.0868  157.2659 H   0  0  0  0  0  0  0  0  0  0  0  0
  151.8261  146.1389  159.3300 H   0  0  0  0  0  0  0  0  0  0  0  0
  150.6974  144.8357  159.6547 H   0  0  0  0  0  0  0  0  0  0  0  0
  150.4515  145.8874  158.2614 H   0  0  0  0  0  0  0  0  0  0  0  0
  149.9305  142.9575  158.6557 H   0  0  0  0  0  0  0  0  0  0  0  0
  149.3030  140.8536  157.4845 H   0  0  0  0  0  0  0  0  0  0  0  0
  150.4715  141.2046  156.2115 H   0  0  0  0  0  0  0  0  0  0  0  0
  149.0757  142.2548  156.4420 H   0  0  0  0  0  0  0  0  0  0  0  0
  152.3240  141.1605  157.9882 H   0  0  0  0  0  0  0  0  0  0  0  0
  151.1890  140.9490  159.3153 H   0  0  0  0  0  0  0  0  0  0  0  0
  155.5594  139.5743  160.7277 H   0  0  0  0  0  0  0  0  0  0  0  0
  1  2  1  0  0  0  0
  1 23  1  0  0  0  0
  1 24  1  0  0  0  0
  1 25  1  0  0  0  0
  2  3  1  0  0  0  0
  3  4  1  0  0  0  0
  3 26  1  0  0  0  0
  3 27  1  0  0  0  0
  4  5  1  0  0  0  0
  4  6  1  0  0  0  0
  4 28  1  0  0  0  0
  5 29  1  0  0  0  0
  5 30  1  0  0  0  0
  5 31  1  0  0  0  0
  6  7  1  0  0  0  0
  6 32  1  0  0  0  0
  7  8  2  0  0  0  0
  7  9  1  0  0  0  0
  9 22  1  0  0  0  0
  9 10  2  0  0  0  0
 10 11  1  0  0  0  0
 10 33  1  0  0  0  0
 11 12  2  0  0  0  0
 11 34  1  0  0  0  0
 12 13  1  0  0  0  0
 12 21  1  0  0  0  0
 13 20  1  0  0  0  0
 13 14  1  0  0  0  0
 14 15  1  0  0  0  0
 14 35  1  0  0  0  0
 14 36  1  0  0  0  0
 15 16  1  0  0  0  0
 15 17  1  0  0  0  0
 15 37  1  0  0  0  0
 16 38  1  0  0  0  0
 16 39  1  0  0  0  0
 16 40  1  0  0  0  0
 17 18  1  0  0  0  0
 18 19  1  0  0  0  0
 18 20  1  0  0  0  0
 18 41  1  0  0  0  0
 19 42  1  0  0  0  0
 19 43  1  0  0  0  0
 19 44  1  0  0  0  0
 20 45  1  0  0  0  0
 20 46  1  0  0  0  0
 21 22  2  0  0  0  0
 22 47  1  0  0  0  0
M  END
> <s_m_source_file>
AV-unprocessed.smi

> <i_m_source_file_index>
2114

> <i_lp_mmshare_version>
43012

> <i_f3d_flags>
0

> <s_epik_input>
W0NIM11PW0NIMl1bQ0BIXShbQ0gzXSlbTkhdQyg9TyljMVtjSF1bY0hdYyhuW2NIXTEpTjJbQ0gyXVtDQEBIXShbQ0gzXSlPW0NAQEhdKFtDSDNdKVtDSDJdMg==

> <s_epik_cmdline>
J2VwaWtfcHl0aG9uJywgJy1waCcsICc3LjAnLCAnLXRuJywgJzgnLCAnLW1hJywgJzIwMCcsICctbWV0YWxfYmluZGluZycsICctaW1hZScsICc8aW5maWxlLm1hZT4nLCAnLW9tYWUnLCAnPG91dGZpbGUubWFlPic=

> <r_lp_tautomer_probability>
1

> <r_epik_Ionization_Penalty>
1.92915e-05

> <r_epik_Ionization_Penalty_Charging>
0

> <r_epik_Ionization_Penalty_Neutral>
1.92915e-05

> <r_epik_State_Penalty>
-0

> <r_epik_Charging_Adjusted_Penalty>
0

> <i_epik_Tot_Q>
0

> <i_epik_Tot_abs_Q>
0

> <r_epik_Metal_State_Penalty>
-0

> <b_epik_Metal_Only>
0

> <s_lp_Force_Field>
OPLS_2005

> <r_lp_Energy>
21.8338

> <b_lp_Chiralities_Consistent>
1

> <s_lp_Variant>
AV-unprocessed.smi:2114-4

> <Gold.Version>
5.8.1

> <Gold.Id.Protein>
6NUR|6NUR_protein|mol2

> <Gold.PLP.Fitness>
43.7670

> <Gold.PLP.PLP>
-44.4561

> <Gold.PLP.part.hbond>
0.0000

> <Gold.PLP.part.metal>
0.0000

> <Gold.PLP.part.buried>
-4.4193

> <Gold.PLP.part.nonpolar>
-40.6215

> <Gold.PLP.part.repulsive>
0.6834

> <Gold.PLP.ligand.clash>
0.0000

> <Gold.PLP.ligand.torsion>
0.5260

> <Gold.PLP.Chemscore.Hbond>
0.0000

> <Gold.PLP.Chemscore.CHOScore>
0.0000

> <Gold.PLP.Chemscore.Metal>
0.0000

> <Gold.PLP.Chemscore.Internal.Correction>
0.3629

> <Gold.Rescore>
     Score         DG    S(hbond)    S(metal)    S(lipo)     H(rot)  DE(clash)    DE(int)     intcor
     14.88     -15.76       0.00        0.00     121.16       1.52       0.45       0.43       ----

> <Gold.Chemscore.Fitness>
14.8775

> <Gold.Chemscore.DG>
-15.7572

> <Gold.Chemscore.ZeroCoef>
-5.4800

> <Gold.Chemscore.Hbond>
0.0000

> <Gold.Chemscore.Metal>
0.0000

> <Gold.Chemscore.Lipo>
121.1551

> <Gold.Chemscore.Internal_Hbond>
0.0000

> <Gold.Chemscore.DEClash>
0.4495

> <Gold.Chemscore.DEInternal>
0.4302

> <Gold.Chemscore.Rot>
1.5226

> <Gold.Chemscore.Internal.Correction>
   9.000000E+99

> <Gold.Chemscore.Hbond.Weighted>
-0.0000

> <Gold.Chemscore.Metal.Weighted>
-0.0000

> <Gold.Chemscore.Lipo.Weighted>
-14.1752

> <Gold.Chemscore.Internal_Hbond.Weighted>
0.0000

> <Gold.Chemscore.DEClash.Weighted>
0.4495

> <Gold.Chemscore.DEInternal.Weighted>
0.4302

> <Gold.Chemscore.Rot.Weighted>
3.8980

> <Gold.Chemscore.Internal.Correction.Weighted>
   9.000000E+99

> <Gold.Protein.RotatedTorsions>
[ 6907 6896 6895 6894 ] final   57.32 input  -60.11 | X-H torsion
[ 7974 7965 7964 7962 ] final   63.34 input  175.53 | X-H torsion
[ 8008 7997 7996 7995 ] final -137.62 input   59.86 | X-H torsion
[ 10167 10162 10161 10158 ] final   85.58 input  -65.29 | X-H torsion
[ 10718 10713 10712 10709 ] final   91.80 input   66.30 | X-H torsion
[ 10763 10752 10751 10750 ] final -156.23 input  -60.55 | X-H torsion
[ 11005 11000 10999 10996 ] final  -30.55 input  -57.11 | X-H torsion

> <Gold.Protein.ActiveResidues>
 VAL166  LYS551  ARG553  GLY616  TRP617  ASP618  TYR619  PRO620  LYS621  CYS622 
 ASP623  PHE694  ASN695  SER759  ASP760  ASP761  ALA762  ILE779  LEU786  VAL792 
 PHE793  MET794  SER795  GLU796  ALA797  LYS798  CYS799  TRP800  GLU811  SER814 

> <Gold.Protein.RotatedAtoms>
  152.3720  134.6720  160.0172 H   0  0  0  0  0  0  0  0  0  0  0  0  # atno 6907 bound_to 6896
  151.7010  133.3305  159.3274 H   0  0  0  0  0  0  0  0  0  0  0  0  # atno 6908 bound_to 6896
  150.7681  134.6551  159.6354 H   0  0  0  0  0  0  0  0  0  0  0  0  # atno 6909 bound_to 6896
  145.8629  139.3327  143.0808 H   0  0  0  0  0  0  0  0  0  0  0  0  # atno 7974 bound_to 7965
  155.4149  140.0514  157.3029 H   0  0  0  0  0  0  0  0  0  0  0  0  # atno 8008 bound_to 7997
  154.4929  140.2127  155.9469 H   0  0  0  0  0  0  0  0  0  0  0  0  # atno 8009 bound_to 7997
  156.1367  140.3162  155.8436 H   0  0  0  0  0  0  0  0  0  0  0  0  # atno 8010 bound_to 7997
  139.8963  144.6356  150.8685 H   0  0  0  0  0  0  0  0  0  0  0  0  # atno 10167 bound_to 10162
  157.6960  131.0420  150.3785 H   0  0  0  0  0  0  0  0  0  0  0  0  # atno 10718 bound_to 10713
  154.7728  135.3150  154.8153 H   0  0  0  0  0  0  0  0  0  0  0  0  # atno 10763 bound_to 10752
  153.8884  135.6828  153.4766 H   0  0  0  0  0  0  0  0  0  0  0  0  # atno 10764 bound_to 10752
  153.1346  135.4765  154.9337 H   0  0  0  0  0  0  0  0  0  0  0  0  # atno 10765 bound_to 10752
  140.9393  133.7289  156.1051 H   0  0  0  0  0  0  0  0  0  0  0  0  # atno 11005 bound_to 11000
  145.9226  140.9104  143.0397 LP  0  0  0  0  0  0  0  0  0  0  0  0  # atno 17320 bound_to 7965
  144.6726  140.1310  143.7443 LP  0  0  0  0  0  0  0  0  0  0  0  0  # atno 17321 bound_to 7965
  140.7716  143.3471  151.2089 LP  0  0  0  0  0  0  0  0  0  0  0  0  # atno 17342 bound_to 10162
  139.7065  143.9447  152.2929 LP  0  0  0  0  0  0  0  0  0  0  0  0  # atno 17343 bound_to 10162
  156.4202  130.3951  149.6831 LP  0  0  0  0  0  0  0  0  0  0  0  0  # atno 17370 bound_to 10713
  156.4084  130.7710  151.2721 LP  0  0  0  0  0  0  0  0  0  0  0  0  # atno 17371 bound_to 10713
  140.7756  134.3783  157.5498 LP  0  0  0  0  0  0  0  0  0  0  0  0  # atno 17394 bound_to 11000
  139.8816  134.9050  156.2889 LP  0  0  0  0  0  0  0  0  0  0  0  0  # atno 17395 bound_to 11000

$$$$
