AV-unprocessed.smi:1290|AV-procd|sdf|5389|dock5
  -GOLD-   22720 4543D 1   1.00000     0.00000
 Structure written by MMmdl.
 38 40  0  0  0  0  0  0  0  0  1 V2000
  152.0361  141.8455  158.8178 C   0  0  0  0  0  0  0  0  0  0  0  0
  151.7045  141.0128  157.6463 N   0  0  0  0  0  0  0  0  0  0  0  0
  150.7015  141.4358  156.8139 C   0  0  0  0  0  0  0  0  0  0  0  0
  150.0460  142.4678  156.9643 O   0  0  0  0  0  0  0  0  0  0  0  0
  150.4500  140.5356  155.6855 C   0  0  0  0  0  0  0  0  0  0  0  0
  151.1471  139.3922  155.4829 C   0  0  0  0  0  0  0  0  0  0  0  0
  150.7081  138.7261  154.3440 N   0  0  0  0  0  0  0  0  0  0  0  0
  149.7370  139.5307  153.9092 C   0  0  0  0  0  0  0  0  0  0  0  0
  149.5178  140.6332  154.6549 N   0  0  0  0  0  0  0  0  0  0  0  0
  148.5235  141.6650  154.4032 C   0  0  0  0  0  0  0  0  0  0  0  0
  147.0799  141.1247  154.4440 C   0  0  2  0  0  0  0  0  0  0  0  0
  146.8564  140.2621  153.3447 O   0  0  0  0  0  0  0  0  0  0  0  0
  146.0696  142.2598  154.5015 C   0  0  0  0  0  0  0  0  0  0  0  0
  145.2326  142.4000  155.6292 C   0  0  0  0  0  0  0  0  0  0  0  0
  144.3004  143.4539  155.6951 C   0  0  0  0  0  0  0  0  0  0  0  0
  144.2018  144.3757  154.6347 C   0  0  0  0  0  0  0  0  0  0  0  0
  143.0601  145.6669  154.7157 Cl  0  0  0  0  0  0  0  0  0  0  0  0
  145.0373  144.2435  153.5088 C   0  0  0  0  0  0  0  0  0  0  0  0
  145.9693  143.1897  153.4426 C   0  0  0  0  0  0  0  0  0  0  0  0
  152.1670  139.0466  156.4038 N   0  0  0  0  0  0  0  0  0  0  0  0
  152.9003  137.8024  156.1531 C   0  0  0  0  0  0  0  0  0  0  0  0
  152.4426  139.8520  157.4827 C   0  0  0  0  0  0  0  0  0  0  0  0
  153.3273  139.5464  158.2870 O   0  0  0  0  0  0  0  0  0  0  0  0
  151.4578  142.7658  158.9057 H   0  0  0  0  0  0  0  0  0  0  0  0
  153.0855  142.1433  158.7899 H   0  0  0  0  0  0  0  0  0  0  0  0
  151.8714  141.2849  159.7394 H   0  0  0  0  0  0  0  0  0  0  0  0
  149.1632  139.3097  153.0211 H   0  0  0  0  0  0  0  0  0  0  0  0
  148.6566  142.4596  155.1378 H   0  0  0  0  0  0  0  0  0  0  0  0
  148.7302  142.1138  153.4304 H   0  0  0  0  0  0  0  0  0  0  0  0
  146.9544  140.5158  155.3398 H   0  0  0  0  0  0  0  0  0  0  0  0
  146.2044  140.6548  152.7845 H   0  0  0  0  0  0  0  0  0  0  0  0
  145.3036  141.7002  156.4493 H   0  0  0  0  0  0  0  0  0  0  0  0
  143.6622  143.5544  156.5609 H   0  0  0  0  0  0  0  0  0  0  0  0
  144.9657  144.9501  152.6949 H   0  0  0  0  0  0  0  0  0  0  0  0
  146.6088  143.0996  152.5766 H   0  0  0  0  0  0  0  0  0  0  0  0
  153.6713  137.5764  156.8900 H   0  0  0  0  0  0  0  0  0  0  0  0
  153.3877  137.8486  155.1786 H   0  0  0  0  0  0  0  0  0  0  0  0
  152.2082  136.9598  156.1402 H   0  0  0  0  0  0  0  0  0  0  0  0
  1  2  1  0  0  0  0
  1 24  1  0  0  0  0
  1 25  1  0  0  0  0
  1 26  1  0  0  0  0
  2 22  1  0  0  0  0
  2  3  1  0  0  0  0
  3  4  2  0  0  0  0
  3  5  1  0  0  0  0
  5  9  1  0  0  0  0
  5  6  2  0  0  0  0
  6  7  1  0  0  0  0
  6 20  1  0  0  0  0
  7  8  2  0  0  0  0
  8  9  1  0  0  0  0
  8 27  1  0  0  0  0
  9 10  1  0  0  0  0
 10 11  1  0  0  0  0
 10 28  1  0  0  0  0
 10 29  1  0  0  0  0
 11 12  1  0  0  0  0
 11 13  1  0  0  0  0
 11 30  1  0  0  0  0
 12 31  1  0  0  0  0
 13 19  1  0  0  0  0
 13 14  2  0  0  0  0
 14 15  1  0  0  0  0
 14 32  1  0  0  0  0
 15 16  2  0  0  0  0
 15 33  1  0  0  0  0
 16 17  1  0  0  0  0
 16 18  1  0  0  0  0
 18 19  2  0  0  0  0
 18 34  1  0  0  0  0
 19 35  1  0  0  0  0
 20 21  1  0  0  0  0
 20 22  1  0  0  0  0
 21 36  1  0  0  0  0
 21 37  1  0  0  0  0
 21 38  1  0  0  0  0
 22 23  2  0  0  0  0
M  END
> <s_m_source_file>
AV-unprocessed.smi

> <i_m_source_file_index>
1290

> <i_lp_mmshare_version>
43012

> <i_f3d_flags>
0

> <s_epik_input>
Tz1jMW4oW0NIM10pYyg9TyluKFtDSDNdKWMoYzEyKW5bY0hdbjJbQ0gyXVtDQEhdKFtPSF0pYzNbY0hdW2NIXWMoQ2wpW2NIXVtjSF0z

> <s_epik_cmdline>
J2VwaWtfcHl0aG9uJywgJy1waCcsICc3LjAnLCAnLXRuJywgJzgnLCAnLW1hJywgJzIwMCcsICctbWV0YWxfYmluZGluZycsICctaW1hZScsICc8aW5maWxlLm1hZT4nLCAnLW9tYWUnLCAnPG91dGZpbGUubWFlPic=

> <r_lp_tautomer_probability>
1

> <r_epik_Ionization_Penalty>
1.48293e-06

> <r_epik_Ionization_Penalty_Charging>
3.74189e-09

> <r_epik_Ionization_Penalty_Neutral>
1.47919e-06

> <r_epik_State_Penalty>
-0

> <r_epik_Charging_Adjusted_Penalty>
3.74189e-09

> <i_epik_Tot_Q>
0

> <i_epik_Tot_abs_Q>
0

> <r_epik_Metal_State_Penalty>
-0

> <b_epik_Metal_Only>
0

> <s_lp_Force_Field>
OPLS_2005

> <r_lp_Energy>
35.4502

> <b_lp_Chiralities_Consistent>
1

> <s_lp_Variant>
AV-unprocessed.smi:1290-1

> <Gold.Version>
5.8.1

> <Gold.Id.Protein>
6NUR|6NUR_protein|mol2

> <Gold.PLP.Fitness>
45.9119

> <Gold.PLP.PLP>
-40.4833

> <Gold.PLP.part.hbond>
-1.1140

> <Gold.PLP.part.metal>
0.0000

> <Gold.PLP.part.buried>
-2.0359

> <Gold.PLP.part.nonpolar>
-38.4888

> <Gold.PLP.part.repulsive>
2.0448

> <Gold.PLP.ligand.clash>
0.0000

> <Gold.PLP.ligand.torsion>
0.0738

> <Gold.PLP.Chemscore.Hbond>
0.9600

> <Gold.PLP.Chemscore.CHOScore>
0.8905

> <Gold.PLP.Chemscore.Metal>
0.0000

> <Gold.Chemscore.Hbonds>
donor molecule, donor type, donor heavy atom, donor atom, acceptor molecule, acceptor atom, score
      P1  H  7997  8010       L1    23  0.94
      L1  C     8    27       P1  7957  0.89

> <Gold.PLP.Chemscore.Internal.Correction>
0.0246

> <Gold.Rescore>
     Score         DG    S(hbond)    S(metal)    S(lipo)     H(rot)  DE(clash)    DE(int)     intcor
     11.89     -13.86       1.65        0.00      71.56       2.15       1.74       0.23       ----

> <Gold.Chemscore.Fitness>
11.8913

> <Gold.Chemscore.DG>
-13.8613

> <Gold.Chemscore.ZeroCoef>
-5.4800

> <Gold.Chemscore.Hbond>
1.6485

> <Gold.Chemscore.Metal>
0.0000

> <Gold.Chemscore.Lipo>
71.5608

> <Gold.Chemscore.Internal_Hbond>
0.0000

> <Gold.Chemscore.DEClash>
1.7351

> <Gold.Chemscore.DEInternal>
0.2349

> <Gold.Chemscore.Rot>
2.1474

> <Gold.Chemscore.Internal.Correction>
   9.000000E+99

> <Gold.Chemscore.Hbonds>
donor molecule, donor type, donor heavy atom, donor atom, acceptor molecule, acceptor atom, score
      P1  H  7997  8010       L1    23  0.23

> <Gold.Chemscore.Hbond.Weighted>
-5.5060

> <Gold.Chemscore.Metal.Weighted>
-0.0000

> <Gold.Chemscore.Lipo.Weighted>
-8.3726

> <Gold.Chemscore.Internal_Hbond.Weighted>
0.0000

> <Gold.Chemscore.DEClash.Weighted>
1.7351

> <Gold.Chemscore.DEInternal.Weighted>
0.2349

> <Gold.Chemscore.Rot.Weighted>
5.4974

> <Gold.Chemscore.Internal.Correction.Weighted>
   9.000000E+99

> <Gold.Protein.RotatedTorsions>
[ 6907 6896 6895 6894 ] final   -5.73 input  -60.11 | X-H torsion
[ 7974 7965 7964 7962 ] final -143.81 input  175.53 | X-H torsion
[ 8008 7997 7996 7995 ] final   11.11 input   59.86 | X-H torsion
[ 10167 10162 10161 10158 ] final -146.82 input  -65.29 | X-H torsion
[ 10718 10713 10712 10709 ] final  -76.72 input   66.30 | X-H torsion
[ 10763 10752 10751 10750 ] final  -66.73 input  -60.55 | X-H torsion
[ 11005 11000 10999 10996 ] final  116.95 input  -57.11 | X-H torsion

> <Gold.Protein.ActiveResidues>
 VAL166  LYS551  ARG553  GLY616  TRP617  ASP618  TYR619  PRO620  LYS621  CYS622 
 ASP623  PHE694  ASN695  SER759  ASP760  ASP761  ALA762  ILE779  LEU786  VAL792 
 PHE793  MET794  SER795  GLU796  ALA797  LYS798  CYS799  TRP800  GLU811  SER814 

> <Gold.Protein.RotatedAtoms>
  151.4770  135.1049  159.9766 H   0  0  0  0  0  0  0  0  0  0  0  0  # atno 6907 bound_to 6896
  152.4794  133.8214  159.7066 H   0  0  0  0  0  0  0  0  0  0  0  0  # atno 6908 bound_to 6896
  150.8855  133.7252  159.2946 H   0  0  0  0  0  0  0  0  0  0  0  0  # atno 6909 bound_to 6896
  144.8342  140.5788  143.5495 H   0  0  0  0  0  0  0  0  0  0  0  0  # atno 7974 bound_to 7965
  154.8024  140.2854  155.5911 H   0  0  0  0  0  0  0  0  0  0  0  0  # atno 8008 bound_to 7997
  156.2979  140.2584  156.2825 H   0  0  0  0  0  0  0  0  0  0  0  0  # atno 8009 bound_to 7997
  154.9542  140.0379  157.2148 H   0  0  0  0  0  0  0  0  0  0  0  0  # atno 8010 bound_to 7997
  139.7678  143.8282  152.2619 H   0  0  0  0  0  0  0  0  0  0  0  0  # atno 10167 bound_to 10162
  156.0166  130.4473  150.3237 H   0  0  0  0  0  0  0  0  0  0  0  0  # atno 10718 bound_to 10713
  154.3641  135.6109  153.5705 H   0  0  0  0  0  0  0  0  0  0  0  0  # atno 10763 bound_to 10752
  152.9792  135.5822  154.4599 H   0  0  0  0  0  0  0  0  0  0  0  0  # atno 10764 bound_to 10752
  154.4342  135.2848  155.1869 H   0  0  0  0  0  0  0  0  0  0  0  0  # atno 10765 bound_to 10752
  139.9058  134.9604  156.7276 H   0  0  0  0  0  0  0  0  0  0  0  0  # atno 11005 bound_to 11000
  145.4829  139.1494  143.3752 LP  0  0  0  0  0  0  0  0  0  0  0  0  # atno 17320 bound_to 7965
  146.2643  140.4966  142.8840 LP  0  0  0  0  0  0  0  0  0  0  0  0  # atno 17321 bound_to 7965
  139.8308  144.7255  150.9453 LP  0  0  0  0  0  0  0  0  0  0  0  0  # atno 17342 bound_to 10162
  140.7812  143.4072  151.1052 LP  0  0  0  0  0  0  0  0  0  0  0  0  # atno 17343 bound_to 10162
  157.1336  131.0278  151.2958 LP  0  0  0  0  0  0  0  0  0  0  0  0  # atno 17370 bound_to 10713
  157.4530  130.7609  149.7168 LP  0  0  0  0  0  0  0  0  0  0  0  0  # atno 17371 bound_to 10713
  140.6950  133.9356  155.7989 LP  0  0  0  0  0  0  0  0  0  0  0  0  # atno 17394 bound_to 11000
  141.0413  134.0617  157.3898 LP  0  0  0  0  0  0  0  0  0  0  0  0  # atno 17395 bound_to 11000

$$$$
