AV-unprocessed.smi:3228|AV-procd|sdf|12325|dock4
  -GOLD-   2272018173D 1   1.00000     0.00000
 Structure written by MMmdl.
 30 31  0  0  0  0  0  0  0  0  2 V2000
  151.8701  139.1181  158.4883 O   0  0  0  0  0  0  0  0  0  0  0  0
  152.6321  139.8997  157.9140 C   0  0  0  0  0  0  0  0  0  0  0  0
  153.2606  140.8557  158.6129 N   0  0  0  0  0  0  0  0  0  0  0  0
  153.1229  141.0986  160.0457 C   0  0  0  0  0  0  0  0  0  0  0  0
  153.0479  142.6061  160.3702 C   0  0  2  0  0  0  0  0  0  0  0  0
  152.4856  142.9482  161.7551 C   0  0  0  0  0  0  0  0  0  0  0  0
  152.0313  144.4122  161.6620 C   0  0  0  0  0  0  0  0  0  0  0  0
  152.0001  144.7676  160.1659 C   0  0  0  0  0  0  0  0  0  0  0  0
  152.1997  143.4496  159.4077 C   0  0  2  0  0  0  0  0  0  0  0  0
  150.9347  142.8579  159.1736 O   0  0  0  0  0  0  0  0  0  0  0  0
  152.9204  139.9122  156.5927 N   0  5  0  0  0  0  0  0  0  0  0  0
  152.0476  139.3992  155.7102 C   0  0  0  0  0  0  0  0  0  0  0  0
  152.3132  139.2822  154.4040 N   0  0  0  0  0  0  0  0  0  0  0  0
  151.2621  138.7279  153.6712 C   0  0  0  0  0  0  0  0  0  0  0  0
  150.1666  138.4250  154.4357 C   0  0  0  0  0  0  0  0  0  0  0  0
  150.4245  138.8284  156.1091 S   0  0  0  0  0  0  0  0  0  0  0  0
  153.8752  141.4729  158.1026 H   0  0  0  0  0  0  0  0  0  0  0  0
  152.2396  140.5839  160.4267 H   0  0  0  0  0  0  0  0  0  0  0  0
  153.9815  140.6436  160.5393 H   0  0  0  0  0  0  0  0  0  0  0  0
  154.0608  143.0101  160.3263 H   0  0  0  0  0  0  0  0  0  0  0  0
  151.6252  142.3138  161.9733 H   0  0  0  0  0  0  0  0  0  0  0  0
  153.2174  142.7907  162.5480 H   0  0  0  0  0  0  0  0  0  0  0  0
  151.0493  144.5375  162.1192 H   0  0  0  0  0  0  0  0  0  0  0  0
  152.7228  145.0684  162.1916 H   0  0  0  0  0  0  0  0  0  0  0  0
  151.0868  145.2903  159.8780 H   0  0  0  0  0  0  0  0  0  0  0  0
  152.8331  145.4361  159.9444 H   0  0  0  0  0  0  0  0  0  0  0  0
  152.6997  143.6022  158.4506 H   0  0  0  0  0  0  0  0  0  0  0  0
  150.3408  143.5306  158.8772 H   0  0  0  0  0  0  0  0  0  0  0  0
  151.3797  138.5866  152.6072 H   0  0  0  0  0  0  0  0  0  0  0  0
  149.2290  137.9935  154.1195 H   0  0  0  0  0  0  0  0  0  0  0  0
  1  2  2  0  0  0  0
  2  3  1  0  0  0  0
  2 11  1  0  0  0  0
  3  4  1  0  0  0  0
  3 17  1  0  0  0  0
  4  5  1  0  0  0  0
  4 18  1  0  0  0  0
  4 19  1  0  0  0  0
  5  9  1  0  0  0  0
  5  6  1  0  0  0  0
  5 20  1  0  0  0  0
  6  7  1  0  0  0  0
  6 21  1  0  0  0  0
  6 22  1  0  0  0  0
  7  8  1  0  0  0  0
  7 23  1  0  0  0  0
  7 24  1  0  0  0  0
  8  9  1  0  0  0  0
  8 25  1  0  0  0  0
  8 26  1  0  0  0  0
  9 10  1  0  0  0  0
  9 27  1  0  0  0  0
 10 28  1  0  0  0  0
 11 12  1  0  0  0  0
 12 16  1  0  0  0  0
 12 13  2  0  0  0  0
 13 14  1  0  0  0  0
 14 15  2  0  0  0  0
 14 29  1  0  0  0  0
 15 16  1  0  0  0  0
 15 30  1  0  0  0  0
M  CHG  1  11  -1
M  END
> <s_m_source_file>
AV-unprocessed.smi

> <i_m_source_file_index>
3228

> <i_lp_mmshare_version>
43012

> <i_f3d_flags>
0

> <s_epik_input>
czFbY0hdW2NIXW5jMVtOSF1DKD1PKVtOSF1bQ0gyXVtDQEBIXTJbQ0gyXVtDSDJdW0NIMl1bQ0BIXTJbT0hd

> <s_epik_cmdline>
J2VwaWtfcHl0aG9uJywgJy1waCcsICc3LjAnLCAnLXRuJywgJzgnLCAnLW1hJywgJzIwMCcsICctbWV0YWxfYmluZGluZycsICctaW1hZScsICc8aW5maWxlLm1hZT4nLCAnLW9tYWUnLCAnPG91dGZpbGUubWFlPic=

> <r_lp_tautomer_probability>
0.999

> <r_epik_Ionization_Penalty>
8.49756

> <r_epik_Ionization_Penalty_Charging>
6.79645

> <r_epik_Ionization_Penalty_Neutral>
1.70111

> <r_epik_State_Penalty>
6.79662

> <r_epik_Charging_Adjusted_Penalty>
13.5931

> <i_epik_Tot_Q>
-1

> <i_epik_Tot_abs_Q>
1

> <r_epik_Metal_State_Penalty>
2.71629

> <b_epik_Metal_Only>
1

> <s_lp_Force_Field>
OPLS_2005

> <r_lp_Energy>
19.9343

> <b_lp_Chiralities_Consistent>
1

> <s_lp_Variant>
AV-unprocessed.smi:3228-7

> <Gold.Version>
5.8.1

> <Gold.Id.Protein>
6NUR|6NUR_protein|mol2

> <Gold.PLP.Fitness>
44.9771

> <Gold.PLP.PLP>
-32.6875

> <Gold.PLP.part.hbond>
-3.0000

> <Gold.PLP.part.metal>
0.0000

> <Gold.PLP.part.buried>
-2.5294

> <Gold.PLP.part.nonpolar>
-27.9584

> <Gold.PLP.part.repulsive>
0.2091

> <Gold.PLP.ligand.clash>
0.0000

> <Gold.PLP.ligand.torsion>
0.4312

> <Gold.PLP.Chemscore.Hbond>
3.0000

> <Gold.PLP.Chemscore.CHOScore>
1.3698

> <Gold.PLP.Chemscore.Metal>
0.0000

> <Gold.Chemscore.Hbonds>
donor molecule, donor type, donor heavy atom, donor atom, acceptor molecule, acceptor atom, score
      P1  H  7997  8010       L1    11  1.56
      L1  C    14    29       P1  7949  0.22
      L1  C    14    29       P1  7957  0.10
      L1  C    15    30       P1  7948  0.16

> <Gold.PLP.Chemscore.Internal.Correction>
0.0427

> <Gold.Rescore>
     Score         DG    S(hbond)    S(metal)    S(lipo)     H(rot)  DE(clash)    DE(int)     intcor
     11.00     -13.77       0.92        0.00      85.05       1.85       0.09       2.69       ----

> <Gold.Chemscore.Fitness>
11.0004

> <Gold.Chemscore.DG>
-13.7745

> <Gold.Chemscore.ZeroCoef>
-5.4800

> <Gold.Chemscore.Hbond>
0.9208

> <Gold.Chemscore.Metal>
0.0000

> <Gold.Chemscore.Lipo>
85.0459

> <Gold.Chemscore.Internal_Hbond>
0.0000

> <Gold.Chemscore.DEClash>
0.0863

> <Gold.Chemscore.DEInternal>
2.6878

> <Gold.Chemscore.Rot>
1.8481

> <Gold.Chemscore.Internal.Correction>
   9.000000E+99

> <Gold.Chemscore.Hbonds>
donor molecule, donor type, donor heavy atom, donor atom, acceptor molecule, acceptor atom, score
      P1  H  7997  8010       L1    11  0.61

> <Gold.Chemscore.Hbond.Weighted>
-3.0754

> <Gold.Chemscore.Metal.Weighted>
-0.0000

> <Gold.Chemscore.Lipo.Weighted>
-9.9504

> <Gold.Chemscore.Internal_Hbond.Weighted>
0.0000

> <Gold.Chemscore.DEClash.Weighted>
0.0863

> <Gold.Chemscore.DEInternal.Weighted>
2.6878

> <Gold.Chemscore.Rot.Weighted>
4.7313

> <Gold.Chemscore.Internal.Correction.Weighted>
   9.000000E+99

> <Gold.Protein.RotatedTorsions>
[ 6907 6896 6895 6894 ] final -171.01 input  -60.11 | X-H torsion
[ 7974 7965 7964 7962 ] final  171.83 input  175.53 | X-H torsion
[ 8008 7997 7996 7995 ] final   75.91 input   59.86 | X-H torsion
[ 10167 10162 10161 10158 ] final  145.49 input  -65.29 | X-H torsion
[ 10718 10713 10712 10709 ] final  163.80 input   66.30 | X-H torsion
[ 10763 10752 10751 10750 ] final  -24.44 input  -60.55 | X-H torsion
[ 11005 11000 10999 10996 ] final -129.35 input  -57.11 | X-H torsion

> <Gold.Protein.ActiveResidues>
 VAL166  LYS551  ARG553  GLY616  TRP617  ASP618  TYR619  PRO620  LYS621  CYS622 
 ASP623  PHE694  ASN695  SER759  ASP760  ASP761  ALA762  ILE779  LEU786  VAL792 
 PHE793  MET794  SER795  GLU796  ALA797  LYS798  CYS799  TRP800  GLU811  SER814 

> <Gold.Protein.RotatedAtoms>
  151.5169  133.3474  159.2894 H   0  0  0  0  0  0  0  0  0  0  0  0  # atno 6907 bound_to 6896
  150.8676  134.8046  159.7142 H   0  0  0  0  0  0  0  0  0  0  0  0  # atno 6908 bound_to 6896
  152.4676  134.5048  159.9787 H   0  0  0  0  0  0  0  0  0  0  0  0  # atno 6909 bound_to 6896
  144.7284  139.9408  143.6428 H   0  0  0  0  0  0  0  0  0  0  0  0  # atno 7974 bound_to 7965
  155.8197  140.3470  155.5506 H   0  0  0  0  0  0  0  0  0  0  0  0  # atno 8008 bound_to 7997
  155.8355  140.0933  157.1786 H   0  0  0  0  0  0  0  0  0  0  0  0  # atno 8009 bound_to 7997
  154.4004  140.1404  156.3653 H   0  0  0  0  0  0  0  0  0  0  0  0  # atno 8010 bound_to 7997
  139.4925  144.5898  151.6704 H   0  0  0  0  0  0  0  0  0  0  0  0  # atno 10167 bound_to 10162
  157.1034  131.0449  151.2488 H   0  0  0  0  0  0  0  0  0  0  0  0  # atno 10718 bound_to 10713
  153.6838  135.6965  153.5110 H   0  0  0  0  0  0  0  0  0  0  0  0  # atno 10763 bound_to 10752
  153.2465  135.4289  155.0752 H   0  0  0  0  0  0  0  0  0  0  0  0  # atno 10764 bound_to 10752
  154.8392  135.3520  154.6381 H   0  0  0  0  0  0  0  0  0  0  0  0  # atno 10765 bound_to 10752
  140.9438  134.1157  157.4126 H   0  0  0  0  0  0  0  0  0  0  0  0  # atno 11005 bound_to 11000
  146.0786  139.3774  143.0478 LP  0  0  0  0  0  0  0  0  0  0  0  0  # atno 17320 bound_to 7965
  145.7871  140.9831  143.1068 LP  0  0  0  0  0  0  0  0  0  0  0  0  # atno 17321 bound_to 7965
  140.5522  144.0407  150.6132 LP  0  0  0  0  0  0  0  0  0  0  0  0  # atno 17342 bound_to 10162
  140.3465  143.2988  152.0533 LP  0  0  0  0  0  0  0  0  0  0  0  0  # atno 17343 bound_to 10162
  157.4621  130.7659  149.7246 LP  0  0  0  0  0  0  0  0  0  0  0  0  # atno 17370 bound_to 10713
  155.9868  130.3972  150.3196 LP  0  0  0  0  0  0  0  0  0  0  0  0  # atno 17371 bound_to 10713
  139.8828  135.0045  156.6253 LP  0  0  0  0  0  0  0  0  0  0  0  0  # atno 17394 bound_to 11000
  140.7697  133.8749  155.8482 LP  0  0  0  0  0  0  0  0  0  0  0  0  # atno 17395 bound_to 11000

$$$$
