AV-unprocessed.smi:2911|AV-procd|sdf|11177|dock3
  -GOLD-   2272016 73D 1   1.00000     0.00000
 Structure written by MMmdl.
 41 42  0  0  0  0  0  0  0  0  1 V2000
  158.7443  141.9897  158.0212 C   0  0  0  0  0  0  0  0  0  0  0  0
  158.2622  141.0006  159.0265 C   0  0  0  0  0  0  0  0  0  0  0  0
  158.9471  140.7572  160.1372 N   0  0  0  0  0  0  0  0  0  0  0  0
  158.1700  139.7898  160.7906 O   0  0  0  0  0  0  0  0  0  0  0  0
  157.0918  139.5842  159.9965 C   0  0  0  0  0  0  0  0  0  0  0  0
  156.0798  138.5661  160.4026 C   0  0  0  0  0  0  0  0  0  0  0  0
  154.9134  138.4677  159.4066 C   0  0  0  0  0  0  0  0  0  0  0  0
  153.9032  139.4883  159.6606 N   0  0  0  0  0  0  0  0  0  0  0  0
  153.0503  139.9805  158.7459 C   0  0  0  0  0  0  0  0  0  0  0  0
  153.0275  139.5728  157.5844 O   0  0  0  0  0  0  0  0  0  0  0  0
  152.1526  140.8587  159.2608 N   0  0  0  0  0  0  0  0  0  0  0  0
  152.5186  141.7565  160.3708 C   0  0  0  0  0  0  0  0  0  0  0  0
  153.0182  143.0940  159.7908 C   0  0  0  0  0  0  0  0  0  0  0  0
  151.9611  143.7397  158.8693 C   0  0  1  0  0  0  0  0  0  0  0  0
  152.4975  145.0086  158.1927 C   0  0  0  0  0  0  0  0  0  0  0  0
  151.4272  142.7240  157.8358 C   0  0  0  0  0  0  0  0  0  0  0  0
  150.9962  141.4110  158.5215 C   0  0  1  0  0  0  0  0  0  0  0  0
  150.3051  140.4333  157.5474 C   0  0  0  0  0  0  0  0  0  0  0  0
  157.1052  140.2995  158.8744 N   0  0  0  0  0  0  0  0  0  0  0  0
  158.3113  142.9696  158.2222 H   0  0  0  0  0  0  0  0  0  0  0  0
  158.4561  141.6828  157.0155 H   0  0  0  0  0  0  0  0  0  0  0  0
  159.8309  142.0766  158.0546 H   0  0  0  0  0  0  0  0  0  0  0  0
  156.5809  137.6023  160.4986 H   0  0  0  0  0  0  0  0  0  0  0  0
  155.7069  138.8240  161.3945 H   0  0  0  0  0  0  0  0  0  0  0  0
  155.2828  138.6056  158.3902 H   0  0  0  0  0  0  0  0  0  0  0  0
  154.4611  137.4751  159.4417 H   0  0  0  0  0  0  0  0  0  0  0  0
  153.8374  139.8406  160.6046 H   0  0  0  0  0  0  0  0  0  0  0  0
  151.6502  141.9248  161.0093 H   0  0  0  0  0  0  0  0  0  0  0  0
  153.2819  141.3401  161.0289 H   0  0  0  0  0  0  0  0  0  0  0  0
  153.2721  143.7766  160.6024 H   0  0  0  0  0  0  0  0  0  0  0  0
  153.9399  142.9235  159.2324 H   0  0  0  0  0  0  0  0  0  0  0  0
  151.1199  144.0357  159.4981 H   0  0  0  0  0  0  0  0  0  0  0  0
  153.3451  144.7840  157.5443 H   0  0  0  0  0  0  0  0  0  0  0  0
  152.8279  145.7380  158.9326 H   0  0  0  0  0  0  0  0  0  0  0  0
  151.7283  145.4829  157.5826 H   0  0  0  0  0  0  0  0  0  0  0  0
  150.5831  143.1580  157.2983 H   0  0  0  0  0  0  0  0  0  0  0  0
  152.1940  142.5140  157.0885 H   0  0  0  0  0  0  0  0  0  0  0  0
  150.2347  141.6577  159.2632 H   0  0  0  0  0  0  0  0  0  0  0  0
  149.3500  140.8406  157.2152 H   0  0  0  0  0  0  0  0  0  0  0  0
  150.1000  139.4753  158.0260 H   0  0  0  0  0  0  0  0  0  0  0  0
  150.8946  140.2484  156.6499 H   0  0  0  0  0  0  0  0  0  0  0  0
  1  2  1  0  0  0  0
  1 20  1  0  0  0  0
  1 21  1  0  0  0  0
  1 22  1  0  0  0  0
  2 19  1  0  0  0  0
  2  3  2  0  0  0  0
  3  4  1  0  0  0  0
  4  5  1  0  0  0  0
  5  6  1  0  0  0  0
  5 19  2  0  0  0  0
  6  7  1  0  0  0  0
  6 23  1  0  0  0  0
  6 24  1  0  0  0  0
  7  8  1  0  0  0  0
  7 25  1  0  0  0  0
  7 26  1  0  0  0  0
  8  9  1  0  0  0  0
  8 27  1  0  0  0  0
  9 10  2  0  0  0  0
  9 11  1  0  0  0  0
 11 17  1  0  0  0  0
 11 12  1  0  0  0  0
 12 13  1  0  0  0  0
 12 28  1  0  0  0  0
 12 29  1  0  0  0  0
 13 14  1  0  0  0  0
 13 30  1  0  0  0  0
 13 31  1  0  0  0  0
 14 15  1  0  0  0  0
 14 16  1  0  0  0  0
 14 32  1  0  0  0  0
 15 33  1  0  0  0  0
 15 34  1  0  0  0  0
 15 35  1  0  0  0  0
 16 17  1  0  0  0  0
 16 36  1  0  0  0  0
 16 37  1  0  0  0  0
 17 18  1  0  0  0  0
 17 38  1  0  0  0  0
 18 39  1  0  0  0  0
 18 40  1  0  0  0  0
 18 41  1  0  0  0  0
M  END
> <s_m_source_file>
AV-unprocessed.smi

> <i_m_source_file_index>
2911

> <i_lp_mmshare_version>
43012

> <i_f3d_flags>
0

> <s_epik_input>
W0NIM11jMW5vYyhuMSlbQ0gyXVtDSDJdW05IXUMoPU8pTjJbQ0gyXVtDSDJdW0NAQEhdKFtDSDNdKVtDSDJdW0NASF0yW0NIM10=

> <s_epik_cmdline>
J2VwaWtfcHl0aG9uJywgJy1waCcsICc3LjAnLCAnLXRuJywgJzgnLCAnLW1hJywgJzIwMCcsICctbWV0YWxfYmluZGluZycsICctaW1hZScsICc8aW5maWxlLm1hZT4nLCAnLW9tYWUnLCAnPG91dGZpbGUubWFlPic=

> <r_lp_tautomer_probability>
1

> <r_epik_Ionization_Penalty>
6.61671e-05

> <r_epik_Ionization_Penalty_Charging>
0

> <r_epik_Ionization_Penalty_Neutral>
6.61671e-05

> <r_epik_State_Penalty>
-0

> <r_epik_Charging_Adjusted_Penalty>
0

> <i_epik_Tot_Q>
0

> <i_epik_Tot_abs_Q>
0

> <r_epik_Metal_State_Penalty>
-0

> <b_epik_Metal_Only>
0

> <s_lp_Force_Field>
OPLS_2005

> <r_lp_Energy>
29.1944

> <b_lp_Chiralities_Consistent>
1

> <s_lp_Variant>
AV-unprocessed.smi:2911-1

> <Gold.Version>
5.8.1

> <Gold.Id.Protein>
6NUR|6NUR_protein|mol2

> <Gold.PLP.Fitness>
40.5432

> <Gold.PLP.PLP>
-35.3297

> <Gold.PLP.part.hbond>
-2.0000

> <Gold.PLP.part.metal>
0.0000

> <Gold.PLP.part.buried>
-4.8310

> <Gold.PLP.part.nonpolar>
-29.0469

> <Gold.PLP.part.repulsive>
0.2898

> <Gold.PLP.ligand.clash>
0.0000

> <Gold.PLP.ligand.torsion>
0.5135

> <Gold.PLP.Chemscore.Hbond>
1.9357

> <Gold.PLP.Chemscore.CHOScore>
0.0000

> <Gold.PLP.Chemscore.Metal>
0.0000

> <Gold.Chemscore.Hbonds>
donor molecule, donor type, donor heavy atom, donor atom, acceptor molecule, acceptor atom, score
      P1  H  7997  8008       L1    10  0.99
      P1  H  7997  8010       L1    19  0.90

> <Gold.PLP.Chemscore.Internal.Correction>
0.4333

> <Gold.Rescore>
     Score         DG    S(hbond)    S(metal)    S(lipo)     H(rot)  DE(clash)    DE(int)     intcor
     16.27     -18.11       1.84        0.00      90.66       1.61       0.02       1.82       ----

> <Gold.Chemscore.Fitness>
16.2688

> <Gold.Chemscore.DG>
-18.1109

> <Gold.Chemscore.ZeroCoef>
-5.4800

> <Gold.Chemscore.Hbond>
1.8389

> <Gold.Chemscore.Metal>
0.0000

> <Gold.Chemscore.Lipo>
90.6635

> <Gold.Chemscore.Internal_Hbond>
0.0000

> <Gold.Chemscore.DEClash>
0.0237

> <Gold.Chemscore.DEInternal>
1.8185

> <Gold.Chemscore.Rot>
1.6088

> <Gold.Chemscore.Internal.Correction>
   9.000000E+99

> <Gold.Chemscore.Hbonds>
donor molecule, donor type, donor heavy atom, donor atom, acceptor molecule, acceptor atom, score
      P1  H  7997  8008       L1    10  0.88
      P1  H  7997  8010       L1    19  0.83

> <Gold.Chemscore.Hbond.Weighted>
-6.1419

> <Gold.Chemscore.Metal.Weighted>
-0.0000

> <Gold.Chemscore.Lipo.Weighted>
-10.6076

> <Gold.Chemscore.Internal_Hbond.Weighted>
0.0000

> <Gold.Chemscore.DEClash.Weighted>
0.0237

> <Gold.Chemscore.DEInternal.Weighted>
1.8185

> <Gold.Chemscore.Rot.Weighted>
4.1186

> <Gold.Chemscore.Internal.Correction.Weighted>
   9.000000E+99

> <Gold.Protein.RotatedTorsions>
[ 6907 6896 6895 6894 ] final   92.62 input  -60.11 | X-H torsion
[ 7974 7965 7964 7962 ] final  138.01 input  175.53 | X-H torsion
[ 8008 7997 7996 7995 ] final  -53.49 input   59.86 | X-H torsion
[ 10167 10162 10161 10158 ] final  106.51 input  -65.29 | X-H torsion
[ 10718 10713 10712 10709 ] final  -47.97 input   66.30 | X-H torsion
[ 10763 10752 10751 10750 ] final  -52.37 input  -60.55 | X-H torsion
[ 11005 11000 10999 10996 ] final  -37.10 input  -57.11 | X-H torsion

> <Gold.Protein.ActiveResidues>
 VAL166  LYS551  ARG553  GLY616  TRP617  ASP618  TYR619  PRO620  LYS621  CYS622 
 ASP623  PHE694  ASN695  SER759  ASP760  ASP761  ALA762  ILE779  LEU786  VAL792 
 PHE793  MET794  SER795  GLU796  ALA797  LYS798  CYS799  TRP800  GLU811  SER814 

> <Gold.Protein.RotatedAtoms>
  152.5453  134.1474  159.8503 H   0  0  0  0  0  0  0  0  0  0  0  0  # atno 6907 bound_to 6896
  151.1504  133.4904  159.2603 H   0  0  0  0  0  0  0  0  0  0  0  0  # atno 6908 bound_to 6896
  151.1478  135.0223  159.8710 H   0  0  0  0  0  0  0  0  0  0  0  0  # atno 6909 bound_to 6896
  144.9413  139.4927  143.5570 H   0  0  0  0  0  0  0  0  0  0  0  0  # atno 7974 bound_to 7965
  154.4135  140.1199  156.5162 H   0  0  0  0  0  0  0  0  0  0  0  0  # atno 8008 bound_to 7997
  155.6749  140.3496  155.4813 H   0  0  0  0  0  0  0  0  0  0  0  0  # atno 8009 bound_to 7997
  155.9601  140.1121  157.0893 H   0  0  0  0  0  0  0  0  0  0  0  0  # atno 8010 bound_to 7997
  139.7003  144.7095  151.1197 H   0  0  0  0  0  0  0  0  0  0  0  0  # atno 10167 bound_to 10162
  156.2033  130.4157  149.9212 H   0  0  0  0  0  0  0  0  0  0  0  0  # atno 10718 bound_to 10713
  154.1417  135.6504  153.4943 H   0  0  0  0  0  0  0  0  0  0  0  0  # atno 10763 bound_to 10752
  153.0164  135.5317  154.6898 H   0  0  0  0  0  0  0  0  0  0  0  0  # atno 10764 bound_to 10752
  154.6162  135.2959  155.0349 H   0  0  0  0  0  0  0  0  0  0  0  0  # atno 10765 bound_to 10752
  140.9926  133.6997  156.1877 H   0  0  0  0  0  0  0  0  0  0  0  0  # atno 11005 bound_to 11000
  146.3287  139.8434  142.8886 LP  0  0  0  0  0  0  0  0  0  0  0  0  # atno 17320 bound_to 7965
  145.2987  141.0188  143.3621 LP  0  0  0  0  0  0  0  0  0  0  0  0  # atno 17321 bound_to 7965
  140.7707  143.5434  150.9287 LP  0  0  0  0  0  0  0  0  0  0  0  0  # atno 17342 bound_to 10162
  139.9115  143.6715  152.3114 LP  0  0  0  0  0  0  0  0  0  0  0  0  # atno 17343 bound_to 10162
  156.6915  130.8897  151.3588 LP  0  0  0  0  0  0  0  0  0  0  0  0  # atno 17370 bound_to 10713
  157.6998  130.9320  150.0751 LP  0  0  0  0  0  0  0  0  0  0  0  0  # atno 17371 bound_to 10713
  140.7016  134.4557  157.5586 LP  0  0  0  0  0  0  0  0  0  0  0  0  # atno 17394 bound_to 11000
  139.8999  134.8580  156.1940 LP  0  0  0  0  0  0  0  0  0  0  0  0  # atno 17395 bound_to 11000

$$$$
