AV-unprocessed.smi:1394|AV-procd|sdf|5666|dock8
  -GOLD-   22720 5293D 1   1.00000     0.00000
 Structure written by MMmdl.
 41 42  0  0  0  0  0  0  0  0  1 V2000
  151.3582  144.0188  158.8972 C   0  0  0  0  0  0  0  0  0  0  0  0
  152.4451  143.5262  159.8677 C   0  0  1  0  0  0  0  0  0  0  0  0
  151.9258  143.4728  161.3193 C   0  0  0  0  0  0  0  0  0  0  0  0
  153.0301  143.0463  162.2996 C   0  0  0  0  0  0  0  0  0  0  0  0
  153.6471  141.6998  161.8936 C   0  0  0  0  0  0  0  0  0  0  0  0
  154.1683  141.7392  160.4465 C   0  0  0  0  0  0  0  0  0  0  0  0
  153.0804  142.1761  159.4442 C   0  0  1  0  0  0  0  0  0  0  0  0
  152.0803  141.1149  159.3072 N   0  0  0  0  0  0  0  0  0  0  0  0
  152.3036  139.8688  158.8618 C   0  0  0  0  0  0  0  0  0  0  0  0
  153.4062  139.4734  158.4799 O   0  0  0  0  0  0  0  0  0  0  0  0
  151.0785  138.9431  158.8315 C   0  0  0  0  0  0  0  0  0  0  0  0
  150.9232  138.2147  157.5601 N   0  0  0  0  0  0  0  0  0  0  0  0
  151.0093  138.9730  156.3789 C   0  0  0  0  0  0  0  0  0  0  0  0
  150.8912  138.4101  155.1689 C   0  0  0  0  0  0  0  0  0  0  0  0
  150.6745  136.9859  155.0975 C   0  0  0  0  0  0  0  0  0  0  0  0
  150.5889  136.2295  156.2163 C   0  0  0  0  0  0  0  0  0  0  0  0
  150.3705  134.7194  156.1582 C   0  0  0  0  0  0  0  0  0  0  0  0
  151.4681  134.0702  156.5492 F   0  0  0  0  0  0  0  0  0  0  0  0
  149.3665  134.3607  156.9592 F   0  0  0  0  0  0  0  0  0  0  0  0
  150.0738  134.3096  154.9238 F   0  0  0  0  0  0  0  0  0  0  0  0
  150.7148  136.8614  157.5457 C   0  0  0  0  0  0  0  0  0  0  0  0
  150.6393  136.2160  158.5927 O   0  0  0  0  0  0  0  0  0  0  0  0
  150.4811  143.3716  158.9099 H   0  0  0  0  0  0  0  0  0  0  0  0
  151.7331  144.0545  157.8741 H   0  0  0  0  0  0  0  0  0  0  0  0
  151.0275  145.0237  159.1610 H   0  0  0  0  0  0  0  0  0  0  0  0
  153.2420  144.2712  159.8414 H   0  0  0  0  0  0  0  0  0  0  0  0
  151.5400  144.4501  161.6116 H   0  0  0  0  0  0  0  0  0  0  0  0
  151.0869  142.7791  161.3896 H   0  0  0  0  0  0  0  0  0  0  0  0
  153.8078  143.8105  162.3280 H   0  0  0  0  0  0  0  0  0  0  0  0
  152.6253  142.9802  163.3099 H   0  0  0  0  0  0  0  0  0  0  0  0
  154.4609  141.4451  162.5729 H   0  0  0  0  0  0  0  0  0  0  0  0
  152.9026  140.9095  161.9977 H   0  0  0  0  0  0  0  0  0  0  0  0
  155.0055  142.4359  160.3903 H   0  0  0  0  0  0  0  0  0  0  0  0
  154.5690  140.7637  160.1675 H   0  0  0  0  0  0  0  0  0  0  0  0
  153.5756  142.3232  158.4827 H   0  0  0  0  0  0  0  0  0  0  0  0
  151.1390  141.3491  159.5876 H   0  0  0  0  0  0  0  0  0  0  0  0
  151.1417  138.2388  159.6632 H   0  0  0  0  0  0  0  0  0  0  0  0
  150.1932  139.5462  159.0383 H   0  0  0  0  0  0  0  0  0  0  0  0
  151.1816  140.0303  156.5194 H   0  0  0  0  0  0  0  0  0  0  0  0
  150.9620  139.0063  154.2708 H   0  0  0  0  0  0  0  0  0  0  0  0
  150.5851  136.5294  154.1232 H   0  0  0  0  0  0  0  0  0  0  0  0
  1  2  1  0  0  0  0
  1 23  1  0  0  0  0
  1 24  1  0  0  0  0
  1 25  1  0  0  0  0
  2  7  1  0  0  0  0
  2  3  1  0  0  0  0
  2 26  1  0  0  0  0
  3  4  1  0  0  0  0
  3 27  1  0  0  0  0
  3 28  1  0  0  0  0
  4  5  1  0  0  0  0
  4 29  1  0  0  0  0
  4 30  1  0  0  0  0
  5  6  1  0  0  0  0
  5 31  1  0  0  0  0
  5 32  1  0  0  0  0
  6  7  1  0  0  0  0
  6 33  1  0  0  0  0
  6 34  1  0  0  0  0
  7  8  1  0  0  0  0
  7 35  1  0  0  0  0
  8  9  1  0  0  0  0
  8 36  1  0  0  0  0
  9 10  2  0  0  0  0
  9 11  1  0  0  0  0
 11 12  1  0  0  0  0
 11 37  1  0  0  0  0
 11 38  1  0  0  0  0
 12 21  1  0  0  0  0
 12 13  1  0  0  0  0
 13 14  2  0  0  0  0
 13 39  1  0  0  0  0
 14 15  1  0  0  0  0
 14 40  1  0  0  0  0
 15 16  2  0  0  0  0
 15 41  1  0  0  0  0
 16 17  1  0  0  0  0
 16 21  1  0  0  0  0
 17 18  1  0  0  0  0
 17 19  1  0  0  0  0
 17 20  1  0  0  0  0
 21 22  2  0  0  0  0
M  END
> <s_m_source_file>
AV-unprocessed.smi

> <i_m_source_file_index>
1394

> <i_lp_mmshare_version>
43012

> <i_f3d_flags>
0

> <s_epik_input>
W0NIM11bQ0BASF0xW0NIMl1bQ0gyXVtDSDJdW0NIMl1bQ0BIXTFbTkhdQyg9TylbQ0gyXW4yW2NIXVtjSF1bY0hdYyhDKEYpKEYpRiljMj1P

> <s_epik_cmdline>
J2VwaWtfcHl0aG9uJywgJy1waCcsICc3LjAnLCAnLXRuJywgJzgnLCAnLW1hJywgJzIwMCcsICctbWV0YWxfYmluZGluZycsICctaW1hZScsICc8aW5maWxlLm1hZT4nLCAnLW9tYWUnLCAnPG91dGZpbGUubWFlPic=

> <r_lp_tautomer_probability>
1

> <r_epik_Ionization_Penalty>
2.11487e-08

> <r_epik_Ionization_Penalty_Charging>
2.10183e-09

> <r_epik_Ionization_Penalty_Neutral>
1.90469e-08

> <r_epik_State_Penalty>
-0

> <r_epik_Charging_Adjusted_Penalty>
2.10183e-09

> <i_epik_Tot_Q>
0

> <i_epik_Tot_abs_Q>
0

> <r_epik_Metal_State_Penalty>
-0

> <b_epik_Metal_Only>
0

> <s_lp_Force_Field>
OPLS_2005

> <r_lp_Energy>
19.806

> <b_lp_Chiralities_Consistent>
1

> <s_lp_Variant>
AV-unprocessed.smi:1394-2

> <Gold.Version>
5.8.1

> <Gold.Id.Protein>
6NUR|6NUR_protein|mol2

> <Gold.PLP.Fitness>
49.6192

> <Gold.PLP.PLP>
-45.3315

> <Gold.PLP.part.hbond>
-2.0000

> <Gold.PLP.part.metal>
0.0000

> <Gold.PLP.part.buried>
-6.9125

> <Gold.PLP.part.nonpolar>
-37.4731

> <Gold.PLP.part.repulsive>
0.1264

> <Gold.PLP.ligand.clash>
0.0600

> <Gold.PLP.ligand.torsion>
0.5245

> <Gold.PLP.Chemscore.Hbond>
1.6817

> <Gold.PLP.Chemscore.CHOScore>
0.0000

> <Gold.PLP.Chemscore.Metal>
0.0000

> <Gold.Chemscore.Hbonds>
donor molecule, donor type, donor heavy atom, donor atom, acceptor molecule, acceptor atom, score
      P1  H  6896  6908       L1    22  0.86
      P1  H  7997  8009       L1    10  1.00

> <Gold.PLP.Chemscore.Internal.Correction>
0.3515

> <Gold.Rescore>
     Score         DG    S(hbond)    S(metal)    S(lipo)     H(rot)  DE(clash)    DE(int)     intcor
     18.19     -20.36       1.71        0.00     111.73       1.52       0.01       2.16       ----

> <Gold.Chemscore.Fitness>
18.1912

> <Gold.Chemscore.DG>
-20.3597

> <Gold.Chemscore.ZeroCoef>
-5.4800

> <Gold.Chemscore.Hbond>
1.7092

> <Gold.Chemscore.Metal>
0.0000

> <Gold.Chemscore.Lipo>
111.7322

> <Gold.Chemscore.Internal_Hbond>
0.0000

> <Gold.Chemscore.DEClash>
0.0098

> <Gold.Chemscore.DEInternal>
2.1587

> <Gold.Chemscore.Rot>
1.5242

> <Gold.Chemscore.Internal.Correction>
   9.000000E+99

> <Gold.Chemscore.Hbonds>
donor molecule, donor type, donor heavy atom, donor atom, acceptor molecule, acceptor atom, score
      P1  H  6896  6908       L1    22  0.85
      P1  H  7997  8009       L1    10  0.99

> <Gold.Chemscore.Hbond.Weighted>
-5.7089

> <Gold.Chemscore.Metal.Weighted>
-0.0000

> <Gold.Chemscore.Lipo.Weighted>
-13.0727

> <Gold.Chemscore.Internal_Hbond.Weighted>
0.0000

> <Gold.Chemscore.DEClash.Weighted>
0.0098

> <Gold.Chemscore.DEInternal.Weighted>
2.1587

> <Gold.Chemscore.Rot.Weighted>
3.9019

> <Gold.Chemscore.Internal.Correction.Weighted>
   9.000000E+99

> <Gold.Protein.RotatedTorsions>
[ 6907 6896 6895 6894 ] final -153.37 input  -60.11 | X-H torsion
[ 7974 7965 7964 7962 ] final   37.18 input  175.53 | X-H torsion
[ 8008 7997 7996 7995 ] final  154.16 input   59.86 | X-H torsion
[ 10167 10162 10161 10158 ] final  107.57 input  -65.29 | X-H torsion
[ 10718 10713 10712 10709 ] final  -94.10 input   66.30 | X-H torsion
[ 10763 10752 10751 10750 ] final  113.59 input  -60.55 | X-H torsion
[ 11005 11000 10999 10996 ] final -162.58 input  -57.11 | X-H torsion

> <Gold.Protein.ActiveResidues>
 VAL166  LYS551  ARG553  GLY616  TRP617  ASP618  TYR619  PRO620  LYS621  CYS622 
 ASP623  PHE694  ASN695  SER759  ASP760  ASP761  ALA762  ILE779  LEU786  VAL792 
 PHE793  MET794  SER795  GLU796  ALA797  LYS798  CYS799  TRP800  GLU811  SER814 

> <Gold.Protein.RotatedAtoms>
  151.2415  133.4397  159.2607 H   0  0  0  0  0  0  0  0  0  0  0  0  # atno 6907 bound_to 6896
  151.0701  134.9793  159.8314 H   0  0  0  0  0  0  0  0  0  0  0  0  # atno 6908 bound_to 6896
  152.5411  134.2361  159.8896 H   0  0  0  0  0  0  0  0  0  0  0  0  # atno 6909 bound_to 6896
  146.1157  139.5926  142.9323 H   0  0  0  0  0  0  0  0  0  0  0  0  # atno 7974 bound_to 7965
  156.2545  140.1974  156.6603 H   0  0  0  0  0  0  0  0  0  0  0  0  # atno 8008 bound_to 7997
  154.6469  140.0576  156.9936 H   0  0  0  0  0  0  0  0  0  0  0  0  # atno 8009 bound_to 7997
  155.1477  140.3248  155.4441 H   0  0  0  0  0  0  0  0  0  0  0  0  # atno 8010 bound_to 7997
  139.6916  144.7107  151.1338 H   0  0  0  0  0  0  0  0  0  0  0  0  # atno 10167 bound_to 10162
  156.0022  130.5054  150.5876 H   0  0  0  0  0  0  0  0  0  0  0  0  # atno 10718 bound_to 10713
  153.4947  135.3651  155.2510 H   0  0  0  0  0  0  0  0  0  0  0  0  # atno 10763 bound_to 10752
  154.8750  135.3985  154.3547 H   0  0  0  0  0  0  0  0  0  0  0  0  # atno 10764 bound_to 10752
  153.4173  135.7079  153.6384 H   0  0  0  0  0  0  0  0  0  0  0  0  # atno 10765 bound_to 10752
  140.6077  134.4881  157.5212 H   0  0  0  0  0  0  0  0  0  0  0  0  # atno 11005 bound_to 11000
  145.5572  141.0408  143.2246 LP  0  0  0  0  0  0  0  0  0  0  0  0  # atno 17320 bound_to 7965
  144.7551  139.7096  143.7257 LP  0  0  0  0  0  0  0  0  0  0  0  0  # atno 17321 bound_to 7965
  140.7684  143.5550  150.9161 LP  0  0  0  0  0  0  0  0  0  0  0  0  # atno 17342 bound_to 10162
  139.9228  143.6585  152.3093 LP  0  0  0  0  0  0  0  0  0  0  0  0  # atno 17343 bound_to 10162
  157.3746  131.0771  151.1529 LP  0  0  0  0  0  0  0  0  0  0  0  0  # atno 17370 bound_to 10713
  157.2271  130.6508  149.5834 LP  0  0  0  0  0  0  0  0  0  0  0  0  # atno 17371 bound_to 10713
  139.9205  134.8158  156.1226 LP  0  0  0  0  0  0  0  0  0  0  0  0  # atno 17394 bound_to 11000
  141.0829  133.6746  156.2374 LP  0  0  0  0  0  0  0  0  0  0  0  0  # atno 17395 bound_to 11000

$$$$
