AV-unprocessed.smi:2304|AV-procd|sdf|9245|dock4
  -GOLD-   2272012463D 1   1.00000     0.00000
 Structure written by MMmdl.
 37 38  0  0  0  0  0  0  0  0  1 V2000
  150.6887  138.6305  154.2426 C   0  0  0  0  0  0  0  0  0  0  0  0
  150.2472  139.9709  154.3658 O   0  0  0  0  0  0  0  0  0  0  0  0
  148.9574  140.1718  153.8107 C   0  0  0  0  0  0  0  0  0  0  0  0
  148.0515  140.8571  154.8476 C   0  0  1  0  0  0  0  0  0  0  0  0
  148.8118  141.8833  155.5570 N   0  0  0  0  0  0  0  0  0  0  0  0
  149.7587  141.6612  156.4809 C   0  0  0  0  0  0  0  0  0  0  0  0
  150.1152  140.5376  156.8368 O   0  0  0  0  0  0  0  0  0  0  0  0
  150.2524  142.8188  156.9546 N   0  0  0  0  0  0  0  0  0  0  0  0
  151.2336  143.0075  157.9642 C   0  0  0  0  0  0  0  0  0  0  0  0
  151.5273  144.3554  158.2703 C   0  0  0  0  0  0  0  0  0  0  0  0
  152.4833  144.6484  159.2619 C   0  0  0  0  0  0  0  0  0  0  0  0
  153.1224  143.5851  159.9243 C   0  0  0  0  0  0  0  0  0  0  0  0
  152.7719  142.2702  159.5604 C   0  0  0  0  0  0  0  0  0  0  0  0
  153.4189  141.0765  160.2308 C   0  0  0  0  0  0  0  0  0  0  0  0
  151.8559  141.9890  158.6087 N   0  0  0  0  0  0  0  0  0  0  0  0
  146.8052  141.4198  154.1904 C   0  0  0  0  0  0  0  0  0  0  0  0
  146.7119  142.8806  153.8210 C   0  0  0  0  0  0  0  0  0  0  0  0
  145.8667  142.3290  154.9474 C   0  0  0  0  0  0  0  0  0  0  0  0
  151.6862  138.5323  154.6705 H   0  0  0  0  0  0  0  0  0  0  0  0
  150.7392  138.3257  153.1965 H   0  0  0  0  0  0  0  0  0  0  0  0
  150.0257  137.9474  154.7751 H   0  0  0  0  0  0  0  0  0  0  0  0
  149.0204  140.7700  152.9000 H   0  0  0  0  0  0  0  0  0  0  0  0
  148.5353  139.2042  153.5345 H   0  0  0  0  0  0  0  0  0  0  0  0
  147.7167  140.0912  155.5498 H   0  0  0  0  0  0  0  0  0  0  0  0
  148.5932  142.8415  155.3282 H   0  0  0  0  0  0  0  0  0  0  0  0
  149.8708  143.6643  156.5578 H   0  0  0  0  0  0  0  0  0  0  0  0
  151.0267  145.1609  157.7529 H   0  0  0  0  0  0  0  0  0  0  0  0
  152.7215  145.6723  159.5095 H   0  0  0  0  0  0  0  0  0  0  0  0
  153.8603  143.7769  160.6895 H   0  0  0  0  0  0  0  0  0  0  0  0
  154.0386  141.3838  161.0737 H   0  0  0  0  0  0  0  0  0  0  0  0
  154.0491  140.5414  159.5201 H   0  0  0  0  0  0  0  0  0  0  0  0
  152.6584  140.3890  160.6025 H   0  0  0  0  0  0  0  0  0  0  0  0
  146.3288  140.7270  153.4990 H   0  0  0  0  0  0  0  0  0  0  0  0
  147.5475  143.5250  154.0876 H   0  0  0  0  0  0  0  0  0  0  0  0
  146.2075  143.1319  152.8903 H   0  0  0  0  0  0  0  0  0  0  0  0
  144.8004  142.2130  154.7663 H   0  0  0  0  0  0  0  0  0  0  0  0
  146.1400  142.6097  155.9628 H   0  0  0  0  0  0  0  0  0  0  0  0
  1  2  1  0  0  0  0
  1 19  1  0  0  0  0
  1 20  1  0  0  0  0
  1 21  1  0  0  0  0
  2  3  1  0  0  0  0
  3  4  1  0  0  0  0
  3 22  1  0  0  0  0
  3 23  1  0  0  0  0
  4  5  1  0  0  0  0
  4 16  1  0  0  0  0
  4 24  1  0  0  0  0
  5  6  1  0  0  0  0
  5 25  1  0  0  0  0
  6  7  2  0  0  0  0
  6  8  1  0  0  0  0
  8  9  1  0  0  0  0
  8 26  1  0  0  0  0
  9 15  1  0  0  0  0
  9 10  2  0  0  0  0
 10 11  1  0  0  0  0
 10 27  1  0  0  0  0
 11 12  2  0  0  0  0
 11 28  1  0  0  0  0
 12 13  1  0  0  0  0
 12 29  1  0  0  0  0
 13 14  1  0  0  0  0
 13 15  2  0  0  0  0
 14 30  1  0  0  0  0
 14 31  1  0  0  0  0
 14 32  1  0  0  0  0
 16 18  1  0  0  0  0
 16 17  1  0  0  0  0
 16 33  1  0  0  0  0
 17 18  1  0  0  0  0
 17 34  1  0  0  0  0
 17 35  1  0  0  0  0
 18 36  1  0  0  0  0
 18 37  1  0  0  0  0
M  END
> <s_m_source_file>
AV-unprocessed.smi

> <i_m_source_file_index>
2304

> <i_lp_mmshare_version>
43012

> <i_f3d_flags>
0

> <s_epik_input>
W0NIM11PW0NIMl1bQ0BASF0oW0NIXTFbQ0gyXVtDSDJdMSlbTkhdQyg9TylbTkhdYzJbY0hdW2NIXVtjSF1jKG4yKVtDSDNd

> <s_epik_cmdline>
J2VwaWtfcHl0aG9uJywgJy1waCcsICc3LjAnLCAnLXRuJywgJzgnLCAnLW1hJywgJzIwMCcsICctbWV0YWxfYmluZGluZycsICctaW1hZScsICc8aW5maWxlLm1hZT4nLCAnLW9tYWUnLCAnPG91dGZpbGUubWFlPic=

> <r_lp_tautomer_probability>
1

> <r_epik_Ionization_Penalty>
8.58396e-05

> <r_epik_Ionization_Penalty_Charging>
0

> <r_epik_Ionization_Penalty_Neutral>
8.58396e-05

> <r_epik_State_Penalty>
-0

> <r_epik_Charging_Adjusted_Penalty>
0

> <i_epik_Tot_Q>
0

> <i_epik_Tot_abs_Q>
0

> <r_epik_Metal_State_Penalty>
-0

> <b_epik_Metal_Only>
0

> <s_lp_Force_Field>
OPLS_2005

> <r_lp_Energy>
16.7335

> <b_lp_Chiralities_Consistent>
1

> <s_lp_Variant>
AV-unprocessed.smi:2304-2

> <Gold.Version>
5.8.1

> <Gold.Id.Protein>
6NUR|6NUR_protein|mol2

> <Gold.PLP.Fitness>
47.8773

> <Gold.PLP.PLP>
-40.3543

> <Gold.PLP.part.hbond>
-3.0000

> <Gold.PLP.part.metal>
0.0000

> <Gold.PLP.part.buried>
-3.2940

> <Gold.PLP.part.nonpolar>
-33.5809

> <Gold.PLP.part.repulsive>
0.2799

> <Gold.PLP.ligand.clash>
0.0000

> <Gold.PLP.ligand.torsion>
1.2664

> <Gold.PLP.Chemscore.Hbond>
2.9920

> <Gold.PLP.Chemscore.CHOScore>
0.0000

> <Gold.PLP.Chemscore.Metal>
0.0000

> <Gold.Chemscore.Hbonds>
donor molecule, donor type, donor heavy atom, donor atom, acceptor molecule, acceptor atom, score
      L1  H     5    25       P1  8028  0.99
      L1  H     8    26       P1  8028  1.00
      P1  H  7989  7998       L1     2  1.00

> <Gold.PLP.Chemscore.Internal.Correction>
1.0798

> <Gold.Rescore>
     Score         DG    S(hbond)    S(metal)    S(lipo)     H(rot)  DE(clash)    DE(int)     intcor
     14.28     -20.07       2.28        0.00      95.07       1.61       0.17       5.61       ----

> <Gold.Chemscore.Fitness>
14.2846

> <Gold.Chemscore.DG>
-20.0714

> <Gold.Chemscore.ZeroCoef>
-5.4800

> <Gold.Chemscore.Hbond>
2.2755

> <Gold.Chemscore.Metal>
0.0000

> <Gold.Chemscore.Lipo>
95.0718

> <Gold.Chemscore.Internal_Hbond>
0.0000

> <Gold.Chemscore.DEClash>
0.1733

> <Gold.Chemscore.DEInternal>
5.6135

> <Gold.Chemscore.Rot>
1.6142

> <Gold.Chemscore.Internal.Correction>
   9.000000E+99

> <Gold.Chemscore.Hbonds>
donor molecule, donor type, donor heavy atom, donor atom, acceptor molecule, acceptor atom, score
      L1  H     5    25       P1  8028  0.94
      L1  H     8    26       P1  8028  1.00
      P1  H  7989  7998       L1     2  0.26

> <Gold.Chemscore.Hbond.Weighted>
-7.6003

> <Gold.Chemscore.Metal.Weighted>
-0.0000

> <Gold.Chemscore.Lipo.Weighted>
-11.1234

> <Gold.Chemscore.Internal_Hbond.Weighted>
0.0000

> <Gold.Chemscore.DEClash.Weighted>
0.1733

> <Gold.Chemscore.DEInternal.Weighted>
5.6135

> <Gold.Chemscore.Rot.Weighted>
4.1323

> <Gold.Chemscore.Internal.Correction.Weighted>
   9.000000E+99

> <Gold.Protein.RotatedTorsions>
[ 6907 6896 6895 6894 ] final   90.38 input  -60.11 | X-H torsion
[ 7974 7965 7964 7962 ] final   12.24 input  175.53 | X-H torsion
[ 8008 7997 7996 7995 ] final -106.64 input   59.86 | X-H torsion
[ 10167 10162 10161 10158 ] final -150.97 input  -65.29 | X-H torsion
[ 10718 10713 10712 10709 ] final -101.72 input   66.30 | X-H torsion
[ 10763 10752 10751 10750 ] final  -99.93 input  -60.55 | X-H torsion
[ 11005 11000 10999 10996 ] final   82.04 input  -57.11 | X-H torsion

> <Gold.Protein.ActiveResidues>
 VAL166  LYS551  ARG553  GLY616  TRP617  ASP618  TYR619  PRO620  LYS621  CYS622 
 ASP623  PHE694  ASN695  SER759  ASP760  ASP761  ALA762  ILE779  LEU786  VAL792 
 PHE793  MET794  SER795  GLU796  ALA797  LYS798  CYS799  TRP800  GLU811  SER814 

> <Gold.Protein.RotatedAtoms>
  152.5444  134.1820  159.8639 H   0  0  0  0  0  0  0  0  0  0  0  0  # atno 6907 bound_to 6896
  151.1822  133.4711  159.2601 H   0  0  0  0  0  0  0  0  0  0  0  0  # atno 6908 bound_to 6896
  151.1167  135.0068  159.8574 H   0  0  0  0  0  0  0  0  0  0  0  0  # atno 6909 bound_to 6896
  146.2355  139.9366  142.8489 H   0  0  0  0  0  0  0  0  0  0  0  0  # atno 7974 bound_to 7965
  154.9175  140.0408  157.1980 H   0  0  0  0  0  0  0  0  0  0  0  0  # atno 8008 bound_to 7997
  154.8287  140.2895  155.5716 H   0  0  0  0  0  0  0  0  0  0  0  0  # atno 8009 bound_to 7997
  156.2985  140.2505  156.3208 H   0  0  0  0  0  0  0  0  0  0  0  0  # atno 8010 bound_to 7997
  139.7308  143.8812  152.2534 H   0  0  0  0  0  0  0  0  0  0  0  0  # atno 10167 bound_to 10162
  156.0204  130.5387  150.7005 H   0  0  0  0  0  0  0  0  0  0  0  0  # atno 10718 bound_to 10713
  154.7538  135.4954  153.9337 H   0  0  0  0  0  0  0  0  0  0  0  0  # atno 10763 bound_to 10752
  153.1173  135.6723  153.9404 H   0  0  0  0  0  0  0  0  0  0  0  0  # atno 10764 bound_to 10752
  153.9146  135.3095  155.3427 H   0  0  0  0  0  0  0  0  0  0  0  0  # atno 10765 bound_to 10752
  139.9077  134.8042  156.2121 H   0  0  0  0  0  0  0  0  0  0  0  0  # atno 11005 bound_to 11000
  145.1993  140.9847  143.4165 LP  0  0  0  0  0  0  0  0  0  0  0  0  # atno 17320 bound_to 7965
  144.9788  139.3805  143.6272 LP  0  0  0  0  0  0  0  0  0  0  0  0  # atno 17321 bound_to 7965
  139.8734  144.7056  150.8961 LP  0  0  0  0  0  0  0  0  0  0  0  0  # atno 17342 bound_to 10162
  140.7771  143.3719  151.1633 LP  0  0  0  0  0  0  0  0  0  0  0  0  # atno 17343 bound_to 10162
  157.4666  131.0889  151.0688 LP  0  0  0  0  0  0  0  0  0  0  0  0  # atno 17370 bound_to 10713
  157.1160  130.6042  149.5493 LP  0  0  0  0  0  0  0  0  0  0  0  0  # atno 17371 bound_to 10713
  141.0458  133.6914  156.1681 LP  0  0  0  0  0  0  0  0  0  0  0  0  # atno 17394 bound_to 11000
  140.6885  134.4691  157.5589 LP  0  0  0  0  0  0  0  0  0  0  0  0  # atno 17395 bound_to 11000

$$$$
