AV-unprocessed.smi:39|AV-procd|sdf|357|dock2
  -GOLD-   2262016193D 1   1.00000     0.00000
 Structure written by MMmdl.
 32 33  0  0  0  0  0  0  0  0  3 V2000
  150.4868  144.9967  159.3621 C   0  0  0  0  0  0  0  0  0  0  0  0
  151.1886  143.6823  159.0630 C   0  0  0  0  0  0  0  0  0  0  0  0
  150.9103  142.9433  157.9585 C   0  0  0  0  0  0  0  0  0  0  0  0
  151.5344  141.7405  157.6577 N   0  0  0  0  0  0  0  0  0  0  0  0
  151.1780  140.9600  156.4124 C   0  0  1  0  0  0  0  0  0  0  0  0
  150.5958  139.5921  156.7731 C   0  0  0  0  0  0  0  0  0  0  0  0
  149.5029  139.4491  155.7307 C   0  0  1  0  0  0  0  0  0  0  0  0
  148.4476  138.5185  156.1374 N   0  0  0  0  0  0  0  0  0  0  0  0
  147.9011  138.7449  157.2251 N   0  3  0  0  0  0  0  0  0  0  0  0
  147.4036  139.0744  158.1940 N   0  5  0  0  0  0  0  0  0  0  0  0
  149.0025  140.8918  155.6197 C   0  0  2  0  0  0  0  0  0  0  0  0
  148.2789  141.1890  154.2971 C   0  0  0  0  0  0  0  0  0  0  0  0
  149.2187  141.3359  153.2545 O   0  0  0  0  0  0  0  0  0  0  0  0
  150.2038  141.6585  155.6934 O   0  0  0  0  0  0  0  0  0  0  0  0
  152.5037  141.2256  158.5438 C   0  0  0  0  0  0  0  0  0  0  0  0
  153.0805  140.1543  158.3604 O   0  0  0  0  0  0  0  0  0  0  0  0
  152.7926  141.9852  159.6758 N   0  0  0  0  0  0  0  0  0  0  0  0
  152.1983  143.2040  160.0115 C   0  0  0  0  0  0  0  0  0  0  0  0
  152.5383  143.7821  161.0426 O   0  0  0  0  0  0  0  0  0  0  0  0
  152.0667  140.9019  155.7823 H   0  0  0  0  0  0  0  0  0  0  0  0
  149.9493  139.1521  154.7787 H   0  0  0  0  0  0  0  0  0  0  0  0
  148.3641  141.1222  156.4745 H   0  0  0  0  0  0  0  0  0  0  0  0
  153.4888  141.6217  160.3102 H   0  0  0  0  0  0  0  0  0  0  0  0
  149.7648  145.2556  158.5871 H   0  0  0  0  0  0  0  0  0  0  0  0
  151.2114  145.8090  159.4279 H   0  0  0  0  0  0  0  0  0  0  0  0
  149.9523  144.9361  160.3108 H   0  0  0  0  0  0  0  0  0  0  0  0
  150.1572  143.3157  157.2813 H   0  0  0  0  0  0  0  0  0  0  0  0
  151.3573  138.8132  156.7257 H   0  0  0  0  0  0  0  0  0  0  0  0
  150.1739  139.6196  157.7795 H   0  0  0  0  0  0  0  0  0  0  0  0
  147.5591  140.4069  154.0537 H   0  0  0  0  0  0  0  0  0  0  0  0
  147.7260  142.1257  154.3728 H   0  0  0  0  0  0  0  0  0  0  0  0
  149.0893  140.6370  152.6319 H   0  0  0  0  0  0  0  0  0  0  0  0
  1  2  1  0  0  0  0
  1 24  1  0  0  0  0
  1 25  1  0  0  0  0
  1 26  1  0  0  0  0
  2 18  1  0  0  0  0
  2  3  2  0  0  0  0
  3  4  1  0  0  0  0
  3 27  1  0  0  0  0
  4  5  1  0  0  0  0
  4 15  1  0  0  0  0
  5 20  1  0  0  0  0
  5 14  1  0  0  0  0
  5  6  1  0  0  0  0
  6  7  1  0  0  0  0
  6 28  1  0  0  0  0
  6 29  1  0  0  0  0
  7 21  1  0  0  0  0
  7  8  1  0  0  0  0
  7 11  1  0  0  0  0
  8  9  2  0  0  0  0
  9 10  2  0  0  0  0
 11 22  1  0  0  0  0
 11 12  1  0  0  0  0
 11 14  1  0  0  0  0
 12 13  1  0  0  0  0
 12 30  1  0  0  0  0
 12 31  1  0  0  0  0
 13 32  1  0  0  0  0
 15 16  2  0  0  0  0
 15 17  1  0  0  0  0
 17 23  1  0  0  0  0
 17 18  1  0  0  0  0
 18 19  2  0  0  0  0
M  CHG  1   9   1
M  CHG  1  10  -1
M  END
> <s_m_source_file>
AV-unprocessed.smi

> <i_m_source_file_index>
39

> <i_lp_mmshare_version>
43012

> <i_f3d_flags>
0

> <s_epik_input>
Tz1jMVtuSF1jKD1PKW4oW2NIXWMxW0NIM10pW0NASF0yW0NIMl1bQ0BIXShOPVtOK109W04tXSlbQ0BIXShPMilbQ0gyXVtPSF0=

> <s_epik_cmdline>
J2VwaWtfcHl0aG9uJywgJy1waCcsICc3LjAnLCAnLXRuJywgJzgnLCAnLW1hJywgJzIwMCcsICctbWV0YWxfYmluZGluZycsICctaW1hZScsICc8aW5maWxlLm1hZT4nLCAnLW9tYWUnLCAnPG91dGZpbGUubWFlPic=

> <r_lp_tautomer_probability>
0.999537

> <r_epik_Ionization_Penalty>
0.00127512

> <r_epik_Ionization_Penalty_Charging>
0.00127507

> <r_epik_Ionization_Penalty_Neutral>
5.43433e-08

> <r_epik_State_Penalty>
0.000844892

> <r_epik_Charging_Adjusted_Penalty>
0.00211996

> <i_epik_Tot_Q>
0

> <i_epik_Tot_abs_Q>
2

> <r_epik_Metal_State_Penalty>
0.680636

> <b_epik_Metal_Only>
0

> <s_epik_Chemistry_Notes>
This compound contains an acetal/aminal-like group ( X-CH(R)-Y where X, Y are N, S, or O) that may be acid/base labile, releasing an aldehyde.

> <s_lp_Force_Field>
OPLS_2005

> <r_lp_Energy>
25.0808

> <b_lp_Chiralities_Consistent>
1

> <s_lp_Variant>
AV-unprocessed.smi:39-7

> <Gold.Version>
5.8.1

> <Gold.Id.Protein>
6NUR|6NUR_protein|mol2

> <Gold.PLP.Fitness>
40.5695

> <Gold.PLP.PLP>
-29.4016

> <Gold.PLP.part.hbond>
-4.6448

> <Gold.PLP.part.metal>
0.0000

> <Gold.PLP.part.buried>
-4.6678

> <Gold.PLP.part.nonpolar>
-19.6787

> <Gold.PLP.part.repulsive>
0.2700

> <Gold.PLP.ligand.clash>
0.0000

> <Gold.PLP.ligand.torsion>
0.1940

> <Gold.PLP.Chemscore.Hbond>
2.8408

> <Gold.PLP.Chemscore.CHOScore>
1.0000

> <Gold.PLP.Chemscore.Metal>
0.0000

> <Gold.Chemscore.Hbonds>
donor molecule, donor type, donor heavy atom, donor atom, acceptor molecule, acceptor atom, score
      L1  H    13    32       P1  7957  0.86
      P1  H  7997  8009       L1    16  0.98
      P1  H  8011  8017       L1    13  1.00
      L1  C     3    27       P1  8028  1.00

> <Gold.PLP.Chemscore.Internal.Correction>
0.0334

> <Gold.Rescore>
     Score         DG    S(hbond)    S(metal)    S(lipo)     H(rot)  DE(clash)    DE(int)     intcor
     10.98     -11.97       2.38        0.00      47.88       2.75       0.02       0.97       ----

> <Gold.Chemscore.Fitness>
10.9809

> <Gold.Chemscore.DG>
-11.9710

> <Gold.Chemscore.ZeroCoef>
-5.4800

> <Gold.Chemscore.Hbond>
2.3759

> <Gold.Chemscore.Metal>
0.0000

> <Gold.Chemscore.Lipo>
47.8770

> <Gold.Chemscore.Internal_Hbond>
0.0000

> <Gold.Chemscore.DEClash>
0.0191

> <Gold.Chemscore.DEInternal>
0.9711

> <Gold.Chemscore.Rot>
2.7524

> <Gold.Chemscore.Internal.Correction>
   9.000000E+99

> <Gold.Chemscore.Hbonds>
donor molecule, donor type, donor heavy atom, donor atom, acceptor molecule, acceptor atom, score
      L1  H    13    32       P1  7957  0.85
      P1  H  7997  8009       L1    16  0.86
      P1  H  8011  8017       L1    13  0.23

> <Gold.Chemscore.Hbond.Weighted>
-7.9355

> <Gold.Chemscore.Metal.Weighted>
-0.0000

> <Gold.Chemscore.Lipo.Weighted>
-5.6016

> <Gold.Chemscore.Internal_Hbond.Weighted>
0.0000

> <Gold.Chemscore.DEClash.Weighted>
0.0191

> <Gold.Chemscore.DEInternal.Weighted>
0.9711

> <Gold.Chemscore.Rot.Weighted>
7.0461

> <Gold.Chemscore.Internal.Correction.Weighted>
   9.000000E+99

> <Gold.Protein.RotatedTorsions>
[ 6907 6896 6895 6894 ] final    5.74 input  -60.11 | X-H torsion
[ 7974 7965 7964 7962 ] final  143.59 input  175.53 | X-H torsion
[ 8008 7997 7996 7995 ] final  149.24 input   59.86 | X-H torsion
[ 10167 10162 10161 10158 ] final -117.29 input  -65.29 | X-H torsion
[ 10718 10713 10712 10709 ] final  -67.28 input   66.30 | X-H torsion
[ 10763 10752 10751 10750 ] final  -92.84 input  -60.55 | X-H torsion
[ 11005 11000 10999 10996 ] final   34.72 input  -57.11 | X-H torsion

> <Gold.Protein.ActiveResidues>
 VAL166  LYS551  ARG553  GLY616  TRP617  ASP618  TYR619  PRO620  LYS621  CYS622 
 ASP623  PHE694  ASN695  SER759  ASP760  ASP761  ALA762  ILE779  LEU786  VAL792 
 PHE793  MET794  SER795  GLU796  ALA797  LYS798  CYS799  TRP800  GLU811  SER814 

> <Gold.Protein.RotatedAtoms>
  151.6624  135.0987  160.0181 H   0  0  0  0  0  0  0  0  0  0  0  0  # atno 6907 bound_to 6896
  152.3939  133.6714  159.6268 H   0  0  0  0  0  0  0  0  0  0  0  0  # atno 6908 bound_to 6896
  150.7849  133.8824  159.3331 H   0  0  0  0  0  0  0  0  0  0  0  0  # atno 6909 bound_to 6896
  144.8908  139.5562  143.5799 H   0  0  0  0  0  0  0  0  0  0  0  0  # atno 7974 bound_to 7965
  156.2762  140.2107  156.5827 H   0  0  0  0  0  0  0  0  0  0  0  0  # atno 8008 bound_to 7997
  154.7046  140.0517  157.0514 H   0  0  0  0  0  0  0  0  0  0  0  0  # atno 8009 bound_to 7997
  155.0688  140.3174  155.4640 H   0  0  0  0  0  0  0  0  0  0  0  0  # atno 8010 bound_to 7997
  140.0699  143.4887  152.1985 H   0  0  0  0  0  0  0  0  0  0  0  0  # atno 10167 bound_to 10162
  156.0566  130.4275  150.1832 H   0  0  0  0  0  0  0  0  0  0  0  0  # atno 10718 bound_to 10713
  154.6901  135.5216  153.8380 H   0  0  0  0  0  0  0  0  0  0  0  0  # atno 10763 bound_to 10752
  153.0625  135.6573  154.0438 H   0  0  0  0  0  0  0  0  0  0  0  0  # atno 10764 bound_to 10752
  154.0313  135.2985  155.3348 H   0  0  0  0  0  0  0  0  0  0  0  0  # atno 10765 bound_to 10752
  140.2500  134.3314  155.7894 H   0  0  0  0  0  0  0  0  0  0  0  0  # atno 11005 bound_to 11000
  146.3052  139.7557  142.9061 LP  0  0  0  0  0  0  0  0  0  0  0  0  # atno 17320 bound_to 7965
  145.3787  141.0355  143.3190 LP  0  0  0  0  0  0  0  0  0  0  0  0  # atno 17321 bound_to 7965
  139.5842  144.7524  151.3562 LP  0  0  0  0  0  0  0  0  0  0  0  0  # atno 17342 bound_to 10162
  140.7130  143.7339  150.7603 LP  0  0  0  0  0  0  0  0  0  0  0  0  # atno 17343 bound_to 10162
  156.9907  130.9892  151.3415 LP  0  0  0  0  0  0  0  0  0  0  0  0  # atno 17370 bound_to 10713
  157.5541  130.8202  149.8182 LP  0  0  0  0  0  0  0  0  0  0  0  0  # atno 17371 bound_to 10713
  141.2202  133.7348  156.9022 LP  0  0  0  0  0  0  0  0  0  0  0  0  # atno 17394 bound_to 11000
  140.1567  134.9193  157.2663 LP  0  0  0  0  0  0  0  0  0  0  0  0  # atno 17395 bound_to 11000

$$$$
