AV-unprocessed.smi:332|AV-procd|sdf|2352|dock4
  -GOLD-   2262022263D 1   1.00000     0.00000
 Structure written by MMmdl.
 42 44  0  0  0  0  0  0  0  0  1 V2000
  146.5145  142.6485  157.7941 C   0  0  0  0  0  0  0  0  0  0  0  0
  147.5205  141.5867  157.3199 C   0  0  2  0  0  0  0  0  0  0  0  0
  148.8411  142.2095  157.2443 N   0  0  0  0  0  0  0  0  0  0  0  0
  150.0175  141.5634  157.2246 C   0  0  0  0  0  0  0  0  0  0  0  0
  150.1224  140.3390  157.3041 O   0  0  0  0  0  0  0  0  0  0  0  0
  151.2675  142.4451  157.1031 C   0  0  0  0  0  0  0  0  0  0  0  0
  151.5808  143.1631  158.3495 N   0  0  0  0  0  0  0  0  0  0  0  0
  151.1890  144.5142  158.4299 C   0  0  0  0  0  0  0  0  0  0  0  0
  151.4226  145.2575  159.5230 C   0  0  0  0  0  0  0  0  0  0  0  0
  152.0963  144.6372  160.6392 C   0  0  0  0  0  0  0  0  0  0  0  0
  152.4727  143.3446  160.5742 C   0  0  0  0  0  0  0  0  0  0  0  0
  152.2178  142.5277  159.3819 C   0  0  0  0  0  0  0  0  0  0  0  0
  152.5562  141.3453  159.3150 O   0  0  0  0  0  0  0  0  0  0  0  0
  147.1297  140.9789  155.9484 C   0  0  2  0  0  0  0  0  0  0  0  0
  147.9477  139.7160  155.5820 C   0  0  0  0  0  0  0  0  0  0  0  0
  148.5166  140.0506  154.1919 C   0  0  1  0  0  0  0  0  0  0  0  0
  147.3766  140.0606  153.1578 C   0  0  0  0  0  0  0  0  0  0  0  0
  146.6145  141.3509  153.5105 C   0  0  0  0  0  0  0  0  0  0  0  0
  147.3997  141.8904  154.7215 C   0  0  2  0  0  0  0  0  0  0  0  0
  148.8313  141.5334  154.3374 C   0  0  0  0  0  0  0  0  0  0  0  0
  145.5156  142.2305  157.9165 H   0  0  0  0  0  0  0  0  0  0  0  0
  146.4432  143.4727  157.0834 H   0  0  0  0  0  0  0  0  0  0  0  0
  146.8102  143.0653  158.7575 H   0  0  0  0  0  0  0  0  0  0  0  0
  147.5292  140.7902  158.0654 H   0  0  0  0  0  0  0  0  0  0  0  0
  148.8597  143.2168  157.1779 H   0  0  0  0  0  0  0  0  0  0  0  0
  152.1225  141.8376  156.8000 H   0  0  0  0  0  0  0  0  0  0  0  0
  151.1085  143.1452  156.2821 H   0  0  0  0  0  0  0  0  0  0  0  0
  150.6842  144.9010  157.5565 H   0  0  0  0  0  0  0  0  0  0  0  0
  151.1107  146.2905  159.5678 H   0  0  0  0  0  0  0  0  0  0  0  0
  152.2975  145.2115  161.5315 H   0  0  0  0  0  0  0  0  0  0  0  0
  152.9739  142.8970  161.4200 H   0  0  0  0  0  0  0  0  0  0  0  0
  146.0671  140.7322  155.9819 H   0  0  0  0  0  0  0  0  0  0  0  0
  148.7676  139.5516  156.2824 H   0  0  0  0  0  0  0  0  0  0  0  0
  147.3353  138.8136  155.5749 H   0  0  0  0  0  0  0  0  0  0  0  0
  149.3630  139.4259  153.9047 H   0  0  0  0  0  0  0  0  0  0  0  0
  147.7709  140.1138  152.1423 H   0  0  0  0  0  0  0  0  0  0  0  0
  146.7480  139.1721  153.2284 H   0  0  0  0  0  0  0  0  0  0  0  0
  146.6544  142.0566  152.6795 H   0  0  0  0  0  0  0  0  0  0  0  0
  145.5641  141.1680  153.7397 H   0  0  0  0  0  0  0  0  0  0  0  0
  147.2252  142.9528  154.8885 H   0  0  0  0  0  0  0  0  0  0  0  0
  149.5601  141.7499  155.1201 H   0  0  0  0  0  0  0  0  0  0  0  0
  149.1583  142.0002  153.4066 H   0  0  0  0  0  0  0  0  0  0  0  0
  1  2  1  0  0  0  0
  1 21  1  0  0  0  0
  1 22  1  0  0  0  0
  1 23  1  0  0  0  0
  2  3  1  0  0  0  0
  2 14  1  0  0  0  0
  2 24  1  0  0  0  0
  3  4  1  0  0  0  0
  3 25  1  0  0  0  0
  4  5  2  0  0  0  0
  4  6  1  0  0  0  0
  6  7  1  0  0  0  0
  6 26  1  0  0  0  0
  6 27  1  0  0  0  0
  7 12  1  0  0  0  0
  7  8  1  0  0  0  0
  8  9  2  0  0  0  0
  8 28  1  0  0  0  0
  9 10  1  0  0  0  0
  9 29  1  0  0  0  0
 10 11  2  0  0  0  0
 10 30  1  0  0  0  0
 11 12  1  0  0  0  0
 11 31  1  0  0  0  0
 12 13  2  0  0  0  0
 14 19  1  0  0  0  0
 14 15  1  0  0  0  0
 14 32  1  0  0  0  0
 15 16  1  0  0  0  0
 15 33  1  0  0  0  0
 15 34  1  0  0  0  0
 16 20  1  0  0  0  0
 16 17  1  0  0  0  0
 16 35  1  0  0  0  0
 17 18  1  0  0  0  0
 17 36  1  0  0  0  0
 17 37  1  0  0  0  0
 18 19  1  0  0  0  0
 18 38  1  0  0  0  0
 18 39  1  0  0  0  0
 19 20  1  0  0  0  0
 19 40  1  0  0  0  0
 20 41  1  0  0  0  0
 20 42  1  0  0  0  0
M  END
> <s_m_source_file>
AV-unprocessed.smi

> <i_m_source_file_index>
332

> <i_lp_mmshare_version>
43012

> <i_f3d_flags>
0

> <s_epik_input>
W0NIMl0xW0NIMl1bQ0BIXShbQ0gyXTIpW0NAQEhdKFtDSDJdW0NAQEhdMTIpW0NASF0oW0NIM10pW05IXUMoPU8pW0NIMl1uM1tjSF1bY0hdW2NIXVtjSF1jMz1P

> <s_epik_cmdline>
J2VwaWtfcHl0aG9uJywgJy1waCcsICc3LjAnLCAnLXRuJywgJzgnLCAnLW1hJywgJzIwMCcsICctbWV0YWxfYmluZGluZycsICctaW1hZScsICc8aW5maWxlLm1hZT4nLCAnLW9tYWUnLCAnPG91dGZpbGUubWFlPic=

> <r_lp_tautomer_probability>
1

> <r_epik_Ionization_Penalty>
4.05802e-07

> <r_epik_Ionization_Penalty_Charging>
3.84175e-07

> <r_epik_Ionization_Penalty_Neutral>
2.16269e-08

> <r_epik_State_Penalty>
-0

> <r_epik_Charging_Adjusted_Penalty>
3.84175e-07

> <i_epik_Tot_Q>
0

> <i_epik_Tot_abs_Q>
0

> <r_epik_Metal_State_Penalty>
-0

> <b_epik_Metal_Only>
0

> <s_lp_Force_Field>
OPLS_2005

> <r_lp_Energy>
59.6993

> <b_lp_Chiralities_Consistent>
1

> <s_lp_Variant>
AV-unprocessed.smi:332-1

> <Gold.Version>
5.8.1

> <Gold.Id.Protein>
6NUR|6NUR_protein|mol2

> <Gold.PLP.Fitness>
43.8474

> <Gold.PLP.PLP>
-40.3892

> <Gold.PLP.part.hbond>
-1.0000

> <Gold.PLP.part.metal>
0.0000

> <Gold.PLP.part.buried>
-3.9138

> <Gold.PLP.part.nonpolar>
-35.8860

> <Gold.PLP.part.repulsive>
0.0414

> <Gold.PLP.ligand.clash>
0.5177

> <Gold.PLP.ligand.torsion>
0.8553

> <Gold.PLP.Chemscore.Hbond>
0.8960

> <Gold.PLP.Chemscore.CHOScore>
0.9902

> <Gold.PLP.Chemscore.Metal>
0.0000

> <Gold.Chemscore.Hbonds>
donor molecule, donor type, donor heavy atom, donor atom, acceptor molecule, acceptor atom, score
      L1  H     3    25       P1  8028  0.60
      L1  C     8    28       P1  8028  0.89

> <Gold.PLP.Chemscore.Internal.Correction>
0.0277

> <Gold.Rescore>
     Score         DG    S(hbond)    S(metal)    S(lipo)     H(rot)  DE(clash)    DE(int)     intcor
     12.92     -16.55       0.92        0.00     102.00       1.54       0.44       3.19       ----

> <Gold.Chemscore.Fitness>
12.9191

> <Gold.Chemscore.DG>
-16.5450

> <Gold.Chemscore.ZeroCoef>
-5.4800

> <Gold.Chemscore.Hbond>
0.9201

> <Gold.Chemscore.Metal>
0.0000

> <Gold.Chemscore.Lipo>
101.9970

> <Gold.Chemscore.Internal_Hbond>
0.0000

> <Gold.Chemscore.DEClash>
0.4359

> <Gold.Chemscore.DEInternal>
3.1900

> <Gold.Chemscore.Rot>
1.5398

> <Gold.Chemscore.Internal.Correction>
   9.000000E+99

> <Gold.Chemscore.Hbonds>
donor molecule, donor type, donor heavy atom, donor atom, acceptor molecule, acceptor atom, score
      L1  H     3    25       P1  8028  0.33

> <Gold.Chemscore.Hbond.Weighted>
-3.0733

> <Gold.Chemscore.Metal.Weighted>
-0.0000

> <Gold.Chemscore.Lipo.Weighted>
-11.9337

> <Gold.Chemscore.Internal_Hbond.Weighted>
0.0000

> <Gold.Chemscore.DEClash.Weighted>
0.4359

> <Gold.Chemscore.DEInternal.Weighted>
3.1900

> <Gold.Chemscore.Rot.Weighted>
3.9419

> <Gold.Chemscore.Internal.Correction.Weighted>
   9.000000E+99

> <Gold.Protein.RotatedTorsions>
[ 6907 6896 6895 6894 ] final   10.33 input  -60.11 | X-H torsion
[ 7974 7965 7964 7962 ] final   69.36 input  175.53 | X-H torsion
[ 8008 7997 7996 7995 ] final -139.22 input   59.86 | X-H torsion
[ 10167 10162 10161 10158 ] final -147.10 input  -65.29 | X-H torsion
[ 10718 10713 10712 10709 ] final  162.17 input   66.30 | X-H torsion
[ 10763 10752 10751 10750 ] final   26.65 input  -60.55 | X-H torsion
[ 11005 11000 10999 10996 ] final  -12.67 input  -57.11 | X-H torsion

> <Gold.Protein.ActiveResidues>
 VAL166  LYS551  ARG553  GLY616  TRP617  ASP618  TYR619  PRO620  LYS621  CYS622 
 ASP623  PHE694  ASN695  SER759  ASP760  ASP761  ALA762  ILE779  LEU786  VAL792 
 PHE793  MET794  SER795  GLU796  ALA797  LYS798  CYS799  TRP800  GLU811  SER814 

> <Gold.Protein.RotatedAtoms>
  151.7366  135.0863  160.0308 H   0  0  0  0  0  0  0  0  0  0  0  0  # atno 6907 bound_to 6896
  152.3507  133.6172  159.5951 H   0  0  0  0  0  0  0  0  0  0  0  0  # atno 6908 bound_to 6896
  150.7538  133.9495  159.3523 H   0  0  0  0  0  0  0  0  0  0  0  0  # atno 6909 bound_to 6896
  145.7914  139.2936  143.1208 H   0  0  0  0  0  0  0  0  0  0  0  0  # atno 7974 bound_to 7965
  155.4412  140.0532  157.3010 H   0  0  0  0  0  0  0  0  0  0  0  0  # atno 8008 bound_to 7997
  154.4817  140.2084  155.9705 H   0  0  0  0  0  0  0  0  0  0  0  0  # atno 8009 bound_to 7997
  156.1215  140.3187  155.8221 H   0  0  0  0  0  0  0  0  0  0  0  0  # atno 8010 bound_to 7997
  139.7652  143.8318  152.2615 H   0  0  0  0  0  0  0  0  0  0  0  0  # atno 10167 bound_to 10162
  157.1262  131.0505  151.2392 H   0  0  0  0  0  0  0  0  0  0  0  0  # atno 10718 bound_to 10713
  153.0608  135.6555  154.0467 H   0  0  0  0  0  0  0  0  0  0  0  0  # atno 10763 bound_to 10752
  154.0135  135.2926  155.3391 H   0  0  0  0  0  0  0  0  0  0  0  0  # atno 10764 bound_to 10752
  154.6946  135.5269  153.8508 H   0  0  0  0  0  0  0  0  0  0  0  0  # atno 10765 bound_to 10752
  140.7682  133.8460  155.9183 H   0  0  0  0  0  0  0  0  0  0  0  0  # atno 11005 bound_to 11000
  145.9973  140.8551  143.0036 LP  0  0  0  0  0  0  0  0  0  0  0  0  # atno 17320 bound_to 7965
  144.6781  140.2301  143.7356 LP  0  0  0  0  0  0  0  0  0  0  0  0  # atno 17321 bound_to 7965
  139.8336  144.7242  150.9420 LP  0  0  0  0  0  0  0  0  0  0  0  0  # atno 17342 bound_to 10162
  140.7810  143.4047  151.1090 LP  0  0  0  0  0  0  0  0  0  0  0  0  # atno 17343 bound_to 10162
  157.4432  130.7556  149.7087 LP  0  0  0  0  0  0  0  0  0  0  0  0  # atno 17370 bound_to 10713
  155.9817  130.4016  150.3454 LP  0  0  0  0  0  0  0  0  0  0  0  0  # atno 17371 bound_to 10713
  140.9599  134.1669  157.4662 LP  0  0  0  0  0  0  0  0  0  0  0  0  # atno 17394 bound_to 11000
  139.8760  134.9941  156.5676 LP  0  0  0  0  0  0  0  0  0  0  0  0  # atno 17395 bound_to 11000

$$$$
