AV-unprocessed.smi:85|AV-procd|sdf|811|dock3
  -GOLD-   2262017203D 1   1.00000     0.00000
 Structure written by MMmdl.
 62 65  0  0  0  0  0  0  0  0  1 V2000
  147.1136  141.5383  156.4942 C   0  0  0  0  0  0  0  0  0  0  0  0
  148.2895  140.6241  156.1114 C   0  0  0  0  0  0  0  0  0  0  0  0
  148.7529  139.7728  157.2129 N   0  0  0  0  0  0  0  0  0  0  0  0
  147.8979  138.8166  157.6513 C   0  0  0  0  0  0  0  0  0  0  0  0
  146.6259  138.8611  157.1811 N   0  0  0  0  0  0  0  0  0  0  0  0
  145.7354  137.9439  157.5690 C   0  0  0  0  0  0  0  0  0  0  0  0
  145.9048  136.9176  158.4046 N   0  0  0  0  0  0  0  0  0  0  0  0
  147.1792  136.8741  158.8883 C   0  0  0  0  0  0  0  0  0  0  0  0
  148.2297  137.7822  158.5734 C   0  0  0  0  0  0  0  0  0  0  0  0
  149.3770  137.4370  159.2774 N   0  0  0  0  0  0  0  0  0  0  0  0
  149.0282  136.3821  159.9600 C   0  0  0  0  0  0  0  0  0  0  0  0
  147.7318  135.9591  159.7689 N   0  0  0  0  0  0  0  0  0  0  0  0
  147.0889  134.8115  160.3949 C   0  0  0  0  0  0  0  0  0  0  0  0
  146.2542  135.1424  161.6686 C   0  0  0  0  0  0  0  0  0  0  0  0
  147.1776  135.6567  162.8102 C   0  0  0  0  0  0  0  0  0  0  0  0
  147.6099  136.9844  162.5908 O   0  0  0  0  0  0  0  0  0  0  0  0
  145.1901  136.2213  161.3390 C   0  0  0  0  0  0  0  0  0  0  0  0
  144.1156  136.3692  162.4326 C   0  0  0  0  0  0  0  0  0  0  0  0
  143.4975  135.1153  162.6876 O   0  0  0  0  0  0  0  0  0  0  0  0
  144.4135  134.1385  163.1637 C   0  0  0  0  0  0  0  0  0  0  0  0
  145.4853  133.8658  162.0937 C   0  0  0  0  0  0  0  0  0  0  0  0
  150.1600  139.3585  157.2832 C   0  0  1  0  0  0  0  0  0  0  0  0
  150.8995  139.5182  155.9451 C   0  0  0  0  0  0  0  0  0  0  0  0
  152.3564  139.0573  156.0864 C   0  0  0  0  0  0  0  0  0  0  0  0
  153.0092  139.7717  157.1350 O   0  0  0  0  0  0  0  0  0  0  0  0
  152.4293  139.6585  158.4396 C   0  0  0  0  0  0  0  0  0  0  0  0
  152.6080  138.2297  158.9971 C   0  0  0  0  0  0  0  0  0  0  0  0
  153.2254  140.6382  159.3182 C   0  0  0  0  0  0  0  0  0  0  0  0
  150.9452  140.0954  158.3843 C   0  0  0  0  0  0  0  0  0  0  0  0
  146.8548  142.1950  155.6637 H   0  0  0  0  0  0  0  0  0  0  0  0
  147.3683  142.1681  157.3471 H   0  0  0  0  0  0  0  0  0  0  0  0
  146.2184  140.9715  156.7496 H   0  0  0  0  0  0  0  0  0  0  0  0
  148.0209  140.0113  155.2518 H   0  0  0  0  0  0  0  0  0  0  0  0
  149.1076  141.2590  155.7772 H   0  0  0  0  0  0  0  0  0  0  0  0
  144.7460  138.0446  157.1477 H   0  0  0  0  0  0  0  0  0  0  0  0
  149.7164  135.8738  160.6195 H   0  0  0  0  0  0  0  0  0  0  0  0
  146.4528  134.3431  159.6424 H   0  0  0  0  0  0  0  0  0  0  0  0
  147.8583  134.0736  160.6258 H   0  0  0  0  0  0  0  0  0  0  0  0
  146.6664  135.6149  163.7720 H   0  0  0  0  0  0  0  0  0  0  0  0
  148.0674  135.0390  162.9187 H   0  0  0  0  0  0  0  0  0  0  0  0
  146.8495  137.5320  162.4678 H   0  0  0  0  0  0  0  0  0  0  0  0
  145.6620  137.1896  161.1708 H   0  0  0  0  0  0  0  0  0  0  0  0
  144.6882  135.9607  160.4061 H   0  0  0  0  0  0  0  0  0  0  0  0
  144.5321  136.7777  163.3535 H   0  0  0  0  0  0  0  0  0  0  0  0
  143.3492  137.0708  162.1027 H   0  0  0  0  0  0  0  0  0  0  0  0
  144.8577  134.4600  164.1063 H   0  0  0  0  0  0  0  0  0  0  0  0
  143.8623  133.2223  163.3760 H   0  0  0  0  0  0  0  0  0  0  0  0
  144.9861  133.4378  161.2233 H   0  0  0  0  0  0  0  0  0  0  0  0
  146.1728  133.0963  162.4461 H   0  0  0  0  0  0  0  0  0  0  0  0
  150.1753  138.2981  157.5374 H   0  0  0  0  0  0  0  0  0  0  0  0
  150.4082  138.9401  155.1623 H   0  0  0  0  0  0  0  0  0  0  0  0
  150.8832  140.5600  155.6241 H   0  0  0  0  0  0  0  0  0  0  0  0
  152.4100  137.9823  156.2572 H   0  0  0  0  0  0  0  0  0  0  0  0
  152.8935  139.2454  155.1566 H   0  0  0  0  0  0  0  0  0  0  0  0
  152.2546  138.1666  160.0269 H   0  0  0  0  0  0  0  0  0  0  0  0
  153.6584  137.9377  158.9928 H   0  0  0  0  0  0  0  0  0  0  0  0
  152.0608  137.4803  158.4274 H   0  0  0  0  0  0  0  0  0  0  0  0
  152.8474  140.6510  160.3410 H   0  0  0  0  0  0  0  0  0  0  0  0
  153.1665  141.6564  158.9319 H   0  0  0  0  0  0  0  0  0  0  0  0
  154.2807  140.3661  159.3583 H   0  0  0  0  0  0  0  0  0  0  0  0
  150.9136  141.1688  158.2003 H   0  0  0  0  0  0  0  0  0  0  0  0
  150.4700  139.9379  159.3536 H   0  0  0  0  0  0  0  0  0  0  0  0
  1  2  1  0  0  0  0
  1 30  1  0  0  0  0
  1 31  1  0  0  0  0
  1 32  1  0  0  0  0
  2  3  1  0  0  0  0
  2 33  1  0  0  0  0
  2 34  1  0  0  0  0
  3  4  1  0  0  0  0
  3 22  1  0  0  0  0
  4  9  1  0  0  0  0
  4  5  2  0  0  0  0
  5  6  1  0  0  0  0
  6  7  2  0  0  0  0
  6 35  1  0  0  0  0
  7  8  1  0  0  0  0
  8 12  1  0  0  0  0
  8  9  2  0  0  0  0
  9 10  1  0  0  0  0
 10 11  2  0  0  0  0
 11 12  1  0  0  0  0
 11 36  1  0  0  0  0
 12 13  1  0  0  0  0
 13 14  1  0  0  0  0
 13 37  1  0  0  0  0
 13 38  1  0  0  0  0
 14 21  1  0  0  0  0
 14 15  1  0  0  0  0
 14 17  1  0  0  0  0
 15 16  1  0  0  0  0
 15 39  1  0  0  0  0
 15 40  1  0  0  0  0
 16 41  1  0  0  0  0
 17 18  1  0  0  0  0
 17 42  1  0  0  0  0
 17 43  1  0  0  0  0
 18 19  1  0  0  0  0
 18 44  1  0  0  0  0
 18 45  1  0  0  0  0
 19 20  1  0  0  0  0
 20 21  1  0  0  0  0
 20 46  1  0  0  0  0
 20 47  1  0  0  0  0
 21 48  1  0  0  0  0
 21 49  1  0  0  0  0
 22 29  1  0  0  0  0
 22 23  1  0  0  0  0
 22 50  1  0  0  0  0
 23 24  1  0  0  0  0
 23 51  1  0  0  0  0
 23 52  1  0  0  0  0
 24 25  1  0  0  0  0
 24 53  1  0  0  0  0
 24 54  1  0  0  0  0
 25 26  1  0  0  0  0
 26 27  1  0  0  0  0
 26 28  1  0  0  0  0
 26 29  1  0  0  0  0
 27 55  1  0  0  0  0
 27 56  1  0  0  0  0
 27 57  1  0  0  0  0
 28 58  1  0  0  0  0
 28 59  1  0  0  0  0
 28 60  1  0  0  0  0
 29 61  1  0  0  0  0
 29 62  1  0  0  0  0
M  END
> <s_m_source_file>
AV-unprocessed.smi

> <i_m_source_file_index>
85

> <i_lp_mmshare_version>
43012

> <i_f3d_flags>
0

> <s_epik_input>
W0NIM11DMShbQ0gzXSlPW0NIMl1bQ0gyXVtDQEhdKFtDSDJdMSlOKFtDSDJdW0NIM10pYyhuW2NIXW4yKWMoYzIzKW5bY0hdbjNbQ0gyXUM0KFtDSDJdW09IXSlbQ0gyXVtDSDJdT1tDSDJdW0NIMl00

> <s_epik_cmdline>
J2VwaWtfcHl0aG9uJywgJy1waCcsICc3LjAnLCAnLXRuJywgJzgnLCAnLW1hJywgJzIwMCcsICctbWV0YWxfYmluZGluZycsICctaW1hZScsICc8aW5maWxlLm1hZT4nLCAnLW9tYWUnLCAnPG91dGZpbGUubWFlPic=

> <r_lp_tautomer_probability>
1

> <r_epik_Ionization_Penalty>
0.00336056

> <r_epik_Ionization_Penalty_Charging>
0

> <r_epik_Ionization_Penalty_Neutral>
0.00336056

> <r_epik_State_Penalty>
0.00222191

> <r_epik_Charging_Adjusted_Penalty>
0.00222191

> <i_epik_Tot_Q>
0

> <i_epik_Tot_abs_Q>
0

> <r_epik_Metal_State_Penalty>
-0

> <b_epik_Metal_Only>
0

> <s_lp_Force_Field>
OPLS_2005

> <r_lp_Energy>
36.9586

> <b_lp_Chiralities_Consistent>
1

> <s_lp_Variant>
AV-unprocessed.smi:85-2

> <Gold.Version>
5.8.1

> <Gold.Id.Protein>
6NUR|6NUR_protein|mol2

> <Gold.PLP.Fitness>
41.3916

> <Gold.PLP.PLP>
-36.8941

> <Gold.PLP.part.hbond>
-2.2888

> <Gold.PLP.part.metal>
0.0000

> <Gold.PLP.part.buried>
-6.1348

> <Gold.PLP.part.nonpolar>
-28.6552

> <Gold.PLP.part.repulsive>
0.0720

> <Gold.PLP.ligand.clash>
0.0000

> <Gold.PLP.ligand.torsion>
1.1575

> <Gold.PLP.Chemscore.Hbond>
1.8800

> <Gold.PLP.Chemscore.CHOScore>
0.0000

> <Gold.PLP.Chemscore.Metal>
0.0000

> <Gold.Chemscore.Hbonds>
donor molecule, donor type, donor heavy atom, donor atom, acceptor molecule, acceptor atom, score
      P1  H  6931  6943       L1    16  0.85
      P1  H  7997  8008       L1    25  1.00

> <Gold.PLP.Chemscore.Internal.Correction>
1.1725

> <Gold.Rescore>
     Score         DG    S(hbond)    S(metal)    S(lipo)     H(rot)  DE(clash)    DE(int)     intcor
     10.94     -15.06       1.58        0.00      89.40       2.41       0.05       4.07       ----

> <Gold.Chemscore.Fitness>
10.9447

> <Gold.Chemscore.DG>
-15.0628

> <Gold.Chemscore.ZeroCoef>
-5.4800

> <Gold.Chemscore.Hbond>
1.5832

> <Gold.Chemscore.Metal>
0.0000

> <Gold.Chemscore.Lipo>
89.4039

> <Gold.Chemscore.Internal_Hbond>
0.0000

> <Gold.Chemscore.DEClash>
0.0473

> <Gold.Chemscore.DEInternal>
4.0709

> <Gold.Chemscore.Rot>
2.4083

> <Gold.Chemscore.Internal.Correction>
   9.000000E+99

> <Gold.Chemscore.Hbonds>
donor molecule, donor type, donor heavy atom, donor atom, acceptor molecule, acceptor atom, score
      P1  H  6931  6943       L1    16  0.18
      P1  H  7997  8008       L1    25  0.27

> <Gold.Chemscore.Hbond.Weighted>
-5.2877

> <Gold.Chemscore.Metal.Weighted>
-0.0000

> <Gold.Chemscore.Lipo.Weighted>
-10.4603

> <Gold.Chemscore.Internal_Hbond.Weighted>
0.0000

> <Gold.Chemscore.DEClash.Weighted>
0.0473

> <Gold.Chemscore.DEInternal.Weighted>
4.0709

> <Gold.Chemscore.Rot.Weighted>
6.1652

> <Gold.Chemscore.Internal.Correction.Weighted>
   9.000000E+99

> <Gold.Protein.RotatedTorsions>
[ 6907 6896 6895 6894 ] final   66.46 input  -60.11 | X-H torsion
[ 7974 7965 7964 7962 ] final -150.69 input  175.53 | X-H torsion
[ 8008 7997 7996 7995 ] final  -48.15 input   59.86 | X-H torsion
[ 10167 10162 10161 10158 ] final  -97.81 input  -65.29 | X-H torsion
[ 10718 10713 10712 10709 ] final -154.00 input   66.30 | X-H torsion
[ 10763 10752 10751 10750 ] final  -91.94 input  -60.55 | X-H torsion
[ 11005 11000 10999 10996 ] final  -54.45 input  -57.11 | X-H torsion

> <Gold.Protein.ActiveResidues>
 VAL166  LYS551  ARG553  GLY616  TRP617  ASP618  TYR619  PRO620  LYS621  CYS622 
 ASP623  PHE694  ASN695  SER759  ASP760  ASP761  ALA762  ILE779  LEU786  VAL792 
 PHE793  MET794  SER795  GLU796  ALA797  LYS798  CYS799  TRP800  GLU811  SER814 

> <Gold.Protein.RotatedAtoms>
  152.4483  134.5448  159.9849 H   0  0  0  0  0  0  0  0  0  0  0  0  # atno 6907 bound_to 6896
  151.5528  133.3409  159.2964 H   0  0  0  0  0  0  0  0  0  0  0  0  # atno 6908 bound_to 6896
  150.8404  134.7726  159.6991 H   0  0  0  0  0  0  0  0  0  0  0  0  # atno 6909 bound_to 6896
  144.7893  140.4898  143.5784 H   0  0  0  0  0  0  0  0  0  0  0  0  # atno 7974 bound_to 7965
  154.4025  140.1328  156.4292 H   0  0  0  0  0  0  0  0  0  0  0  0  # atno 8008 bound_to 7997
  155.7567  140.3487  155.5157 H   0  0  0  0  0  0  0  0  0  0  0  0  # atno 8009 bound_to 7997
  155.8898  140.1001  157.1417 H   0  0  0  0  0  0  0  0  0  0  0  0  # atno 8010 bound_to 7997
  140.2795  143.3291  152.0455 H   0  0  0  0  0  0  0  0  0  0  0  0  # atno 10167 bound_to 10162
  156.4934  130.8358  151.2580 H   0  0  0  0  0  0  0  0  0  0  0  0  # atno 10718 bound_to 10713
  154.6811  135.5249  153.8264 H   0  0  0  0  0  0  0  0  0  0  0  0  # atno 10763 bound_to 10752
  153.0565  135.6552  154.0574 H   0  0  0  0  0  0  0  0  0  0  0  0  # atno 10764 bound_to 10752
  154.0461  135.2973  155.3327 H   0  0  0  0  0  0  0  0  0  0  0  0  # atno 10765 bound_to 10752
  141.1026  133.6616  156.4323 H   0  0  0  0  0  0  0  0  0  0  0  0  # atno 11005 bound_to 11000
  145.5838  139.1490  143.3220 LP  0  0  0  0  0  0  0  0  0  0  0  0  # atno 17320 bound_to 7965
  146.2138  140.5967  142.9047 LP  0  0  0  0  0  0  0  0  0  0  0  0  # atno 17321 bound_to 7965
  139.4966  144.6601  151.6484 LP  0  0  0  0  0  0  0  0  0  0  0  0  # atno 17342 bound_to 10162
  140.5823  143.9924  150.6275 LP  0  0  0  0  0  0  0  0  0  0  0  0  # atno 17343 bound_to 10162
  157.7471  131.0006  150.2931 LP  0  0  0  0  0  0  0  0  0  0  0  0  # atno 17370 bound_to 10713
  156.3404  130.3814  149.7414 LP  0  0  0  0  0  0  0  0  0  0  0  0  # atno 17371 bound_to 10713
  140.4983  134.6510  157.5238 LP  0  0  0  0  0  0  0  0  0  0  0  0  # atno 17394 bound_to 11000
  139.9884  134.7025  155.9733 LP  0  0  0  0  0  0  0  0  0  0  0  0  # atno 17395 bound_to 11000

$$$$
