AV-unprocessed.smi:78|AV-procd|sdf|776|dock2
  -GOLD-   2262017133D 1   1.00000     0.00000
 Structure written by MMmdl.
 56 59  0  0  0  0  0  0  0  0  1 V2000
  150.5127  140.3858  155.5319 C   0  0  0  0  0  0  0  0  0  0  0  0
  150.0790  139.0297  154.9510 C   0  0  0  0  0  0  0  0  0  0  0  0
  151.2097  138.4214  154.1081 C   0  0  0  0  0  0  0  0  0  0  0  0
  148.7776  139.1284  154.1201 C   0  0  0  0  0  0  0  0  0  0  0  0
  147.5095  139.5734  154.9032 C   0  0  1  0  0  0  0  0  0  0  0  0
  146.4523  140.2968  154.0389 C   0  0  0  0  0  0  0  0  0  0  0  0
  146.7875  140.9208  153.0338 O   0  0  0  0  0  0  0  0  0  0  0  0
  145.1669  140.2375  154.4310 N   0  0  0  0  0  0  0  0  0  0  0  0
  144.6562  139.5051  155.5932 C   0  0  0  0  0  0  0  0  0  0  0  0
  145.7650  138.9513  156.5145 C   0  0  0  0  0  0  0  0  0  0  0  0
  146.9227  138.5137  155.7404 N   0  0  0  0  0  0  0  0  0  0  0  0
  146.7644  137.2583  155.2465 C   0  0  0  0  0  0  0  0  0  0  0  0
  147.5077  136.2232  155.7199 N   0  0  0  0  0  0  0  0  0  0  0  0
  147.3513  134.9969  155.2129 C   0  0  0  0  0  0  0  0  0  0  0  0
  146.5309  134.5945  154.2398 N   0  0  0  0  0  0  0  0  0  0  0  0
  145.7916  135.6330  153.7548 C   0  0  0  0  0  0  0  0  0  0  0  0
  145.8444  136.9831  154.2000 C   0  0  0  0  0  0  0  0  0  0  0  0
  144.9364  137.7562  153.4883 N   0  0  0  0  0  0  0  0  0  0  0  0
  144.3735  136.9086  152.6705 C   0  0  0  0  0  0  0  0  0  0  0  0
  144.8477  135.6173  152.7433 N   0  0  0  0  0  0  0  0  0  0  0  0
  144.3946  134.4846  151.9904 C   0  0  0  0  0  0  0  0  0  0  0  0
  145.1236  133.1411  152.0827 C   0  0  0  0  0  0  0  0  0  0  0  0
  144.7538  132.8534  150.6087 C   0  0  0  0  0  0  0  0  0  0  0  0
  145.8259  132.1819  149.7276 C   0  0  0  0  0  0  0  0  0  0  0  0
  147.1194  132.7084  149.9480 O   0  0  0  0  0  0  0  0  0  0  0  0
  143.4399  132.0768  150.3972 C   0  0  0  0  0  0  0  0  0  0  0  0
  143.0871  132.0138  149.0301 O   0  0  0  0  0  0  0  0  0  0  0  0
  144.6103  134.3875  150.4760 C   0  0  0  0  0  0  0  0  0  0  0  0
  150.6444  141.1304  154.7463 H   0  0  0  0  0  0  0  0  0  0  0  0
  151.4584  140.2982  156.0671 H   0  0  0  0  0  0  0  0  0  0  0  0
  149.7809  140.7717  156.2412 H   0  0  0  0  0  0  0  0  0  0  0  0
  149.9151  138.3507  155.7874 H   0  0  0  0  0  0  0  0  0  0  0  0
  151.4434  139.0488  153.2474 H   0  0  0  0  0  0  0  0  0  0  0  0
  150.9357  137.4336  153.7361 H   0  0  0  0  0  0  0  0  0  0  0  0
  152.1214  138.3081  154.6953 H   0  0  0  0  0  0  0  0  0  0  0  0
  148.9535  139.8274  153.3010 H   0  0  0  0  0  0  0  0  0  0  0  0
  148.5919  138.1703  153.6346 H   0  0  0  0  0  0  0  0  0  0  0  0
  147.8365  140.3428  155.6025 H   0  0  0  0  0  0  0  0  0  0  0  0
  144.4847  140.7226  153.8662 H   0  0  0  0  0  0  0  0  0  0  0  0
  143.9750  140.1418  156.1578 H   0  0  0  0  0  0  0  0  0  0  0  0
  144.0599  138.6765  155.2097 H   0  0  0  0  0  0  0  0  0  0  0  0
  146.0975  139.7358  157.1953 H   0  0  0  0  0  0  0  0  0  0  0  0
  145.3740  138.1531  157.1479 H   0  0  0  0  0  0  0  0  0  0  0  0
  147.9745  134.2291  155.6470 H   0  0  0  0  0  0  0  0  0  0  0  0
  143.5960  137.2089  151.9835 H   0  0  0  0  0  0  0  0  0  0  0  0
  143.3382  134.3655  152.2369 H   0  0  0  0  0  0  0  0  0  0  0  0
  146.1949  133.2643  152.2488 H   0  0  0  0  0  0  0  0  0  0  0  0
  144.6980  132.4496  152.8104 H   0  0  0  0  0  0  0  0  0  0  0  0
  145.8735  131.1091  149.9158 H   0  0  0  0  0  0  0  0  0  0  0  0
  145.5915  132.3057  148.6697 H   0  0  0  0  0  0  0  0  0  0  0  0
  147.7336  131.9908  149.9817 H   0  0  0  0  0  0  0  0  0  0  0  0
  143.5189  131.0543  150.7668 H   0  0  0  0  0  0  0  0  0  0  0  0
  142.6199  132.5368  150.9494 H   0  0  0  0  0  0  0  0  0  0  0  0
  142.1550  132.1501  148.9537 H   0  0  0  0  0  0  0  0  0  0  0  0
  143.7598  134.7180  149.8790 H   0  0  0  0  0  0  0  0  0  0  0  0
  145.5250  134.8878  150.1543 H   0  0  0  0  0  0  0  0  0  0  0  0
  1  2  1  0  0  0  0
  1 29  1  0  0  0  0
  1 30  1  0  0  0  0
  1 31  1  0  0  0  0
  2  3  1  0  0  0  0
  2  4  1  0  0  0  0
  2 32  1  0  0  0  0
  3 33  1  0  0  0  0
  3 34  1  0  0  0  0
  3 35  1  0  0  0  0
  4  5  1  0  0  0  0
  4 36  1  0  0  0  0
  4 37  1  0  0  0  0
  5 11  1  0  0  0  0
  5  6  1  0  0  0  0
  5 38  1  0  0  0  0
  6  7  2  0  0  0  0
  6  8  1  0  0  0  0
  8  9  1  0  0  0  0
  8 39  1  0  0  0  0
  9 10  1  0  0  0  0
  9 40  1  0  0  0  0
  9 41  1  0  0  0  0
 10 11  1  0  0  0  0
 10 42  1  0  0  0  0
 10 43  1  0  0  0  0
 11 12  1  0  0  0  0
 12 17  1  0  0  0  0
 12 13  2  0  0  0  0
 13 14  1  0  0  0  0
 14 15  2  0  0  0  0
 14 44  1  0  0  0  0
 15 16  1  0  0  0  0
 16 20  1  0  0  0  0
 16 17  2  0  0  0  0
 17 18  1  0  0  0  0
 18 19  2  0  0  0  0
 19 20  1  0  0  0  0
 19 45  1  0  0  0  0
 20 21  1  0  0  0  0
 21 28  1  0  0  0  0
 21 22  1  0  0  0  0
 21 46  1  0  0  0  0
 22 23  1  0  0  0  0
 22 47  1  0  0  0  0
 22 48  1  0  0  0  0
 23 24  1  0  0  0  0
 23 26  1  0  0  0  0
 23 28  1  0  0  0  0
 24 25  1  0  0  0  0
 24 49  1  0  0  0  0
 24 50  1  0  0  0  0
 25 51  1  0  0  0  0
 26 27  1  0  0  0  0
 26 52  1  0  0  0  0
 26 53  1  0  0  0  0
 27 54  1  0  0  0  0
 28 55  1  0  0  0  0
 28 56  1  0  0  0  0
M  END
> <s_m_source_file>
AV-unprocessed.smi

> <i_m_source_file_index>
78

> <i_lp_mmshare_version>
43012

> <i_f3d_flags>
0

> <s_epik_input>
W0NIM11bQ0hdKFtDSDNdKVtDSDJdW0NAQEhdMUMoPU8pW05IXVtDSDJdW0NIMl1OMWMobltjSF1uMiljKGMyMyluW2NIXW4zW0NIXShbQ0gyXTQpW0NIMl1DNChbQ0gyXVtPSF0pW0NIMl1bT0hd

> <s_epik_cmdline>
J2VwaWtfcHl0aG9uJywgJy1waCcsICc3LjAnLCAnLXRuJywgJzgnLCAnLW1hJywgJzIwMCcsICctbWV0YWxfYmluZGluZycsICctaW1hZScsICc8aW5maWxlLm1hZT4nLCAnLW9tYWUnLCAnPG91dGZpbGUubWFlPic=

> <r_lp_tautomer_probability>
1

> <r_epik_Ionization_Penalty>
0.000550083

> <r_epik_Ionization_Penalty_Charging>
0

> <r_epik_Ionization_Penalty_Neutral>
0.000550083

> <r_epik_State_Penalty>
0.000250415

> <r_epik_Charging_Adjusted_Penalty>
0.000250415

> <i_epik_Tot_Q>
0

> <i_epik_Tot_abs_Q>
0

> <r_epik_Metal_State_Penalty>
-0

> <b_epik_Metal_Only>
0

> <s_lp_Force_Field>
OPLS_2005

> <r_lp_Energy>
48.678

> <b_lp_Chiralities_Consistent>
1

> <s_lp_Variant>
AV-unprocessed.smi:78-2

> <Gold.Version>
5.8.1

> <Gold.Id.Protein>
6NUR|6NUR_protein|mol2

> <Gold.PLP.Fitness>
47.9290

> <Gold.PLP.PLP>
-36.8443

> <Gold.PLP.part.hbond>
-5.5551

> <Gold.PLP.part.metal>
0.0000

> <Gold.PLP.part.buried>
-5.1863

> <Gold.PLP.part.nonpolar>
-26.4365

> <Gold.PLP.part.repulsive>
0.4886

> <Gold.PLP.ligand.clash>
0.0000

> <Gold.PLP.ligand.torsion>
0.6757

> <Gold.PLP.Chemscore.Hbond>
2.8671

> <Gold.PLP.Chemscore.CHOScore>
1.0000

> <Gold.PLP.Chemscore.Metal>
0.0000

> <Gold.Chemscore.Hbonds>
donor molecule, donor type, donor heavy atom, donor atom, acceptor molecule, acceptor atom, score
      L1  H     8    39       P1 10175  0.78
      L1  H    25    51       P1 10747  1.00
      L1  H    27    54       P1 10952  0.10
      P1  H 10785 10796       L1    27  1.00
      L1  C    19    45       P1 10171  0.85

> <Gold.PLP.Chemscore.Internal.Correction>
0.8349

> <Gold.Rescore>
     Score         DG    S(hbond)    S(metal)    S(lipo)     H(rot)  DE(clash)    DE(int)     intcor
      7.84     -14.15       2.72        0.00      77.88       3.72       0.43       5.89       ----

> <Gold.Chemscore.Fitness>
7.8404

> <Gold.Chemscore.DG>
-14.1528

> <Gold.Chemscore.ZeroCoef>
-5.4800

> <Gold.Chemscore.Hbond>
2.7229

> <Gold.Chemscore.Metal>
0.0000

> <Gold.Chemscore.Lipo>
77.8771

> <Gold.Chemscore.Internal_Hbond>
0.0000

> <Gold.Chemscore.DEClash>
0.4258

> <Gold.Chemscore.DEInternal>
5.8866

> <Gold.Chemscore.Rot>
3.7239

> <Gold.Chemscore.Internal.Correction>
   9.000000E+99

> <Gold.Chemscore.Hbonds>
donor molecule, donor type, donor heavy atom, donor atom, acceptor molecule, acceptor atom, score
      L1  H     8    39       P1 10175  0.76
      L1  H    25    51       P1 10747  1.00
      L1  H    27    54       P1 10952  0.11
      P1  H 10785 10796       L1    27  0.09

> <Gold.Chemscore.Hbond.Weighted>
-9.0944

> <Gold.Chemscore.Metal.Weighted>
-0.0000

> <Gold.Chemscore.Lipo.Weighted>
-9.1116

> <Gold.Chemscore.Internal_Hbond.Weighted>
0.0000

> <Gold.Chemscore.DEClash.Weighted>
0.4258

> <Gold.Chemscore.DEInternal.Weighted>
5.8866

> <Gold.Chemscore.Rot.Weighted>
9.5332

> <Gold.Chemscore.Internal.Correction.Weighted>
   9.000000E+99

> <Gold.Protein.RotatedTorsions>
[ 6907 6896 6895 6894 ] final  167.66 input  -60.11 | X-H torsion
[ 7974 7965 7964 7962 ] final    2.89 input  175.53 | X-H torsion
[ 8008 7997 7996 7995 ] final  174.20 input   59.86 | X-H torsion
[ 10167 10162 10161 10158 ] final  121.32 input  -65.29 | X-H torsion
[ 10718 10713 10712 10709 ] final  -72.05 input   66.30 | X-H torsion
[ 10763 10752 10751 10750 ] final -157.18 input  -60.55 | X-H torsion
[ 11005 11000 10999 10996 ] final  -65.24 input  -57.11 | X-H torsion

> <Gold.Protein.ActiveResidues>
 VAL166  LYS551  ARG553  GLY616  TRP617  ASP618  TYR619  PRO620  LYS621  CYS622 
 ASP623  PHE694  ASN695  SER759  ASP760  ASP761  ALA762  ILE779  LEU786  VAL792 
 PHE793  MET794  SER795  GLU796  ALA797  LYS798  CYS799  TRP800  GLU811  SER814 

> <Gold.Protein.RotatedAtoms>
  151.8599  133.3455  159.3700 H   0  0  0  0  0  0  0  0  0  0  0  0  # atno 6907 bound_to 6896
  150.7182  134.5216  159.5666 H   0  0  0  0  0  0  0  0  0  0  0  0  # atno 6908 bound_to 6896
  152.2728  134.7915  160.0462 H   0  0  0  0  0  0  0  0  0  0  0  0  # atno 6909 bound_to 6896
  146.2444  140.0767  142.8359 H   0  0  0  0  0  0  0  0  0  0  0  0  # atno 7974 bound_to 7965
  156.0999  140.1440  156.9482 H   0  0  0  0  0  0  0  0  0  0  0  0  # atno 8008 bound_to 7997
  154.4695  140.0914  156.7154 H   0  0  0  0  0  0  0  0  0  0  0  0  # atno 8009 bound_to 7997
  155.4778  140.3444  155.4337 H   0  0  0  0  0  0  0  0  0  0  0  0  # atno 8010 bound_to 7997
  139.5927  144.7031  151.3252 H   0  0  0  0  0  0  0  0  0  0  0  0  # atno 10167 bound_to 10162
  156.0336  130.4364  150.2535 H   0  0  0  0  0  0  0  0  0  0  0  0  # atno 10718 bound_to 10713
  154.7656  135.3130  154.8293 H   0  0  0  0  0  0  0  0  0  0  0  0  # atno 10763 bound_to 10752
  153.9042  135.6812  153.4758 H   0  0  0  0  0  0  0  0  0  0  0  0  # atno 10764 bound_to 10752
  153.1261  135.4800  154.9208 H   0  0  0  0  0  0  0  0  0  0  0  0  # atno 10765 bound_to 10752
  141.1448  133.6678  156.5956 H   0  0  0  0  0  0  0  0  0  0  0  0  # atno 11005 bound_to 11000
  145.0768  140.9194  143.4849 LP  0  0  0  0  0  0  0  0  0  0  0  0  # atno 17320 bound_to 7965
  145.0912  139.2888  143.5734 LP  0  0  0  0  0  0  0  0  0  0  0  0  # atno 17321 bound_to 7965
  140.7186  143.7198  150.7705 LP  0  0  0  0  0  0  0  0  0  0  0  0  # atno 17342 bound_to 10162
  140.0757  143.5017  152.2556 LP  0  0  0  0  0  0  0  0  0  0  0  0  # atno 17343 bound_to 10162
  157.0636  131.0097  151.3214 LP  0  0  0  0  0  0  0  0  0  0  0  0  # atno 17370 bound_to 10713
  157.5052  130.7904  149.7646 LP  0  0  0  0  0  0  0  0  0  0  0  0  # atno 17371 bound_to 10713
  140.3729  134.7590  157.4610 LP  0  0  0  0  0  0  0  0  0  0  0  0  # atno 17394 bound_to 11000
  140.0697  134.5880  155.8656 LP  0  0  0  0  0  0  0  0  0  0  0  0  # atno 17395 bound_to 11000

$$$$
