AV-unprocessed.smi:528|AV-procd|sdf|2832|dock2
  -GOLD-   2262023323D 1   1.00000     0.00000
 Structure written by MMmdl.
 45 47  0  0  0  0  0  0  0  0  1 V2000
  151.0261  139.1243  155.2617 C   0  0  0  0  0  0  0  0  0  0  0  0
  150.2412  140.4080  155.5822 C   0  0  1  0  0  0  0  0  0  0  0  0
  151.1528  141.4265  156.0994 N   0  0  0  0  0  0  0  0  0  0  0  0
  150.8373  142.3790  156.9904 C   0  0  0  0  0  0  0  0  0  0  0  0
  149.7217  142.4831  157.5023 O   0  0  0  0  0  0  0  0  0  0  0  0
  151.9709  143.3434  157.3675 C   0  0  0  0  0  0  0  0  0  0  0  0
  152.3466  143.2770  158.7898 N   0  0  0  0  0  0  0  0  0  0  0  0
  152.9752  142.0966  159.2335 C   0  0  0  0  0  0  0  0  0  0  0  0
  153.3570  141.9051  160.5109 C   0  0  0  0  0  0  0  0  0  0  0  0
  154.0802  140.6412  160.9494 C   0  0  0  0  0  0  0  0  0  0  0  0
  154.3229  140.6578  162.2602 F   0  0  0  0  0  0  0  0  0  0  0  0
  153.3308  139.5736  160.6798 F   0  0  0  0  0  0  0  0  0  0  0  0
  155.2426  140.5045  160.3102 F   0  0  0  0  0  0  0  0  0  0  0  0
  153.1188  143.0033  161.4268 C   0  0  0  0  0  0  0  0  0  0  0  0
  152.5223  144.1403  161.0181 C   0  0  0  0  0  0  0  0  0  0  0  0
  152.0910  144.3239  159.6306 C   0  0  0  0  0  0  0  0  0  0  0  0
  151.5369  145.3546  159.2472 O   0  0  0  0  0  0  0  0  0  0  0  0
  149.4992  140.9697  154.3464 C   0  0  2  0  0  0  0  0  0  0  0  0
  148.8487  142.3570  154.5553 C   0  0  0  0  0  0  0  0  0  0  0  0
  147.4180  142.1533  154.0238 C   0  0  2  0  0  0  0  0  0  0  0  0
  146.6200  141.3150  155.0388 C   0  0  0  0  0  0  0  0  0  0  0  0
  147.2222  139.9091  154.8624 C   0  0  0  0  0  0  0  0  0  0  0  0
  148.3152  140.1351  153.7969 C   0  0  1  0  0  0  0  0  0  0  0  0
  147.6332  141.1559  152.8911 C   0  0  0  0  0  0  0  0  0  0  0  0
  150.3624  138.3275  154.9262 H   0  0  0  0  0  0  0  0  0  0  0  0
  151.5537  138.7534  156.1409 H   0  0  0  0  0  0  0  0  0  0  0  0
  151.7645  139.2953  154.4778 H   0  0  0  0  0  0  0  0  0  0  0  0
  149.5105  140.1834  156.3598 H   0  0  0  0  0  0  0  0  0  0  0  0
  152.0959  141.4132  155.7388 H   0  0  0  0  0  0  0  0  0  0  0  0
  152.8296  143.1213  156.7326 H   0  0  0  0  0  0  0  0  0  0  0  0
  151.6797  144.3625  157.1057 H   0  0  0  0  0  0  0  0  0  0  0  0
  153.1240  141.3507  158.4661 H   0  0  0  0  0  0  0  0  0  0  0  0
  153.4181  142.9110  162.4605 H   0  0  0  0  0  0  0  0  0  0  0  0
  152.3569  144.9362  161.7294 H   0  0  0  0  0  0  0  0  0  0  0  0
  150.2291  141.0621  153.5396 H   0  0  0  0  0  0  0  0  0  0  0  0
  148.8474  142.6771  155.5982 H   0  0  0  0  0  0  0  0  0  0  0  0
  149.3771  143.1170  153.9783 H   0  0  0  0  0  0  0  0  0  0  0  0
  146.9214  143.0804  153.7367 H   0  0  0  0  0  0  0  0  0  0  0  0
  146.7247  141.6884  156.0581 H   0  0  0  0  0  0  0  0  0  0  0  0
  145.5576  141.3106  154.7915 H   0  0  0  0  0  0  0  0  0  0  0  0
  147.6002  139.4888  155.7933 H   0  0  0  0  0  0  0  0  0  0  0  0
  146.4639  139.2215  154.4854 H   0  0  0  0  0  0  0  0  0  0  0  0
  148.6237  139.2211  153.2889 H   0  0  0  0  0  0  0  0  0  0  0  0
  146.7023  140.7933  152.4511 H   0  0  0  0  0  0  0  0  0  0  0  0
  148.2791  141.5349  152.0971 H   0  0  0  0  0  0  0  0  0  0  0  0
  1  2  1  0  0  0  0
  1 25  1  0  0  0  0
  1 26  1  0  0  0  0
  1 27  1  0  0  0  0
  2  3  1  0  0  0  0
  2 18  1  0  0  0  0
  2 28  1  0  0  0  0
  3  4  1  0  0  0  0
  3 29  1  0  0  0  0
  4  5  2  0  0  0  0
  4  6  1  0  0  0  0
  6  7  1  0  0  0  0
  6 30  1  0  0  0  0
  6 31  1  0  0  0  0
  7 16  1  0  0  0  0
  7  8  1  0  0  0  0
  8  9  2  0  0  0  0
  8 32  1  0  0  0  0
  9 10  1  0  0  0  0
  9 14  1  0  0  0  0
 10 11  1  0  0  0  0
 10 12  1  0  0  0  0
 10 13  1  0  0  0  0
 14 15  2  0  0  0  0
 14 33  1  0  0  0  0
 15 16  1  0  0  0  0
 15 34  1  0  0  0  0
 16 17  2  0  0  0  0
 18 23  1  0  0  0  0
 18 19  1  0  0  0  0
 18 35  1  0  0  0  0
 19 20  1  0  0  0  0
 19 36  1  0  0  0  0
 19 37  1  0  0  0  0
 20 24  1  0  0  0  0
 20 21  1  0  0  0  0
 20 38  1  0  0  0  0
 21 22  1  0  0  0  0
 21 39  1  0  0  0  0
 21 40  1  0  0  0  0
 22 23  1  0  0  0  0
 22 41  1  0  0  0  0
 22 42  1  0  0  0  0
 23 24  1  0  0  0  0
 23 43  1  0  0  0  0
 24 44  1  0  0  0  0
 24 45  1  0  0  0  0
M  END
> <s_m_source_file>
AV-unprocessed.smi

> <i_m_source_file_index>
528

> <i_lp_mmshare_version>
43012

> <i_f3d_flags>
0

> <s_epik_input>
W0NIMl0xW0NIMl1bQ0BASF0oW0NIMl0yKVtDQEBIXShbQ0gyXVtDQEhdMTIpW0NASF0oW0NIM10pW05IXUMoPU8pW0NIMl1uM1tjSF1jKEMoRikoRilGKVtjSF1bY0hdYzM9Tw==

> <s_epik_cmdline>
J2VwaWtfcHl0aG9uJywgJy1waCcsICc3LjAnLCAnLXRuJywgJzgnLCAnLW1hJywgJzIwMCcsICctbWV0YWxfYmluZGluZycsICctaW1hZScsICc8aW5maWxlLm1hZT4nLCAnLW9tYWUnLCAnPG91dGZpbGUubWFlPic=

> <r_lp_tautomer_probability>
1

> <r_epik_Ionization_Penalty>
4.09479e-08

> <r_epik_Ionization_Penalty_Charging>
1.9321e-08

> <r_epik_Ionization_Penalty_Neutral>
2.16269e-08

> <r_epik_State_Penalty>
-0

> <r_epik_Charging_Adjusted_Penalty>
1.9321e-08

> <i_epik_Tot_Q>
0

> <i_epik_Tot_abs_Q>
0

> <r_epik_Metal_State_Penalty>
-0

> <b_epik_Metal_Only>
0

> <s_lp_Force_Field>
OPLS_2005

> <r_lp_Energy>
63.1325

> <b_lp_Chiralities_Consistent>
1

> <s_lp_Variant>
AV-unprocessed.smi:528-2

> <Gold.Version>
5.8.1

> <Gold.Id.Protein>
6NUR|6NUR_protein|mol2

> <Gold.PLP.Fitness>
51.6276

> <Gold.PLP.PLP>
-52.6448

> <Gold.PLP.part.hbond>
0.0000

> <Gold.PLP.part.metal>
0.0000

> <Gold.PLP.part.buried>
-0.2200

> <Gold.PLP.part.nonpolar>
-52.4199

> <Gold.PLP.part.repulsive>
0.4078

> <Gold.PLP.ligand.clash>
0.0000

> <Gold.PLP.ligand.torsion>
0.5726

> <Gold.PLP.Chemscore.Hbond>
0.0000

> <Gold.PLP.Chemscore.CHOScore>
0.0000

> <Gold.PLP.Chemscore.Metal>
0.0000

> <Gold.PLP.Chemscore.Internal.Correction>
0.1279

> <Gold.Rescore>
     Score         DG    S(hbond)    S(metal)    S(lipo)     H(rot)  DE(clash)    DE(int)     intcor
     13.18     -15.17       0.00        0.00     120.33       1.71       1.50       0.49       ----

> <Gold.Chemscore.Fitness>
13.1822

> <Gold.Chemscore.DG>
-15.1746

> <Gold.Chemscore.ZeroCoef>
-5.4800

> <Gold.Chemscore.Hbond>
0.0000

> <Gold.Chemscore.Metal>
0.0000

> <Gold.Chemscore.Lipo>
120.3299

> <Gold.Chemscore.Internal_Hbond>
0.0000

> <Gold.Chemscore.DEClash>
1.4986

> <Gold.Chemscore.DEInternal>
0.4938

> <Gold.Chemscore.Rot>
1.7125

> <Gold.Chemscore.Internal.Correction>
   9.000000E+99

> <Gold.Chemscore.Hbond.Weighted>
-0.0000

> <Gold.Chemscore.Metal.Weighted>
-0.0000

> <Gold.Chemscore.Lipo.Weighted>
-14.0786

> <Gold.Chemscore.Internal_Hbond.Weighted>
0.0000

> <Gold.Chemscore.DEClash.Weighted>
1.4986

> <Gold.Chemscore.DEInternal.Weighted>
0.4938

> <Gold.Chemscore.Rot.Weighted>
4.3840

> <Gold.Chemscore.Internal.Correction.Weighted>
   9.000000E+99

> <Gold.Protein.RotatedTorsions>
[ 6907 6896 6895 6894 ] final -148.51 input  -60.11 | X-H torsion
[ 7974 7965 7964 7962 ] final  120.38 input  175.53 | X-H torsion
[ 8008 7997 7996 7995 ] final -174.97 input   59.86 | X-H torsion
[ 10167 10162 10161 10158 ] final  162.79 input  -65.29 | X-H torsion
[ 10718 10713 10712 10709 ] final  142.57 input   66.30 | X-H torsion
[ 10763 10752 10751 10750 ] final  -35.22 input  -60.55 | X-H torsion
[ 11005 11000 10999 10996 ] final  -95.04 input  -57.11 | X-H torsion

> <Gold.Protein.ActiveResidues>
 VAL166  LYS551  ARG553  GLY616  TRP617  ASP618  TYR619  PRO620  LYS621  CYS622 
 ASP623  PHE694  ASN695  SER759  ASP760  ASP761  ALA762  ILE779  LEU786  VAL792 
 PHE793  MET794  SER795  GLU796  ALA797  LYS798  CYS799  TRP800  GLU811  SER814 

> <Gold.Protein.RotatedAtoms>
  151.1709  133.4785  159.2593 H   0  0  0  0  0  0  0  0  0  0  0  0  # atno 6907 bound_to 6896
  151.1357  135.0153  159.8613 H   0  0  0  0  0  0  0  0  0  0  0  0  # atno 6908 bound_to 6896
  152.5461  134.1608  159.8610 H   0  0  0  0  0  0  0  0  0  0  0  0  # atno 6909 bound_to 6896
  145.1319  139.3322  143.4661 H   0  0  0  0  0  0  0  0  0  0  0  0  # atno 7974 bound_to 7965
  155.9768  140.1174  157.0763 H   0  0  0  0  0  0  0  0  0  0  0  0  # atno 8008 bound_to 7997
  154.4171  140.1152  156.5448 H   0  0  0  0  0  0  0  0  0  0  0  0  # atno 8009 bound_to 7997
  155.6524  140.3473  155.4755 H   0  0  0  0  0  0  0  0  0  0  0  0  # atno 8010 bound_to 7997
  139.4865  144.4402  151.8961 H   0  0  0  0  0  0  0  0  0  0  0  0  # atno 10167 bound_to 10162
  157.3790  131.0989  151.0757 H   0  0  0  0  0  0  0  0  0  0  0  0  # atno 10718 bound_to 10713
  153.8596  135.6841  153.4784 H   0  0  0  0  0  0  0  0  0  0  0  0  # atno 10763 bound_to 10752
  153.1350  135.4682  154.9405 H   0  0  0  0  0  0  0  0  0  0  0  0  # atno 10764 bound_to 10752
  154.7765  135.3255  154.8030 H   0  0  0  0  0  0  0  0  0  0  0  0  # atno 10765 bound_to 10752
  141.1453  133.7998  157.0381 H   0  0  0  0  0  0  0  0  0  0  0  0  # atno 11005 bound_to 11000
  146.3513  140.1321  142.8597 LP  0  0  0  0  0  0  0  0  0  0  0  0  # atno 17320 bound_to 7965
  145.0626  140.9099  143.4929 LP  0  0  0  0  0  0  0  0  0  0  0  0  # atno 17321 bound_to 7965
  140.3854  144.2683  150.5904 LP  0  0  0  0  0  0  0  0  0  0  0  0  # atno 17342 bound_to 10162
  140.5195  143.2269  151.8411 LP  0  0  0  0  0  0  0  0  0  0  0  0  # atno 17343 bound_to 10162
  157.1833  130.6319  149.5679 LP  0  0  0  0  0  0  0  0  0  0  0  0  # atno 17370 bound_to 10713
  155.9771  130.4746  150.6574 LP  0  0  0  0  0  0  0  0  0  0  0  0  # atno 17371 bound_to 10713
  140.0711  134.9702  157.1468 LP  0  0  0  0  0  0  0  0  0  0  0  0  # atno 17394 bound_to 11000
  140.3710  134.2390  155.7178 LP  0  0  0  0  0  0  0  0  0  0  0  0  # atno 17395 bound_to 11000

$$$$
