AV-unprocessed.smi:1833|AV-procd|sdf|7467|dock4
  -GOLD-   22720 9163D 1   1.00000     0.00000
 Structure written by MMmdl.
 42 43  0  0  0  0  0  0  0  0  2 V2000
  146.3862  133.3847  150.5132 C   0  0  0  0  0  0  0  0  0  0  0  0
  146.0164  133.5838  151.9905 C   0  0  0  0  0  0  0  0  0  0  0  0
  146.2935  134.9641  152.4604 N   0  3  1  0  0  0  0  0  0  0  0  0
  145.4516  135.9769  151.7715 C   0  0  0  0  0  0  0  0  0  0  0  0
  145.8639  137.4061  152.1654 C   0  0  0  0  0  0  0  0  0  0  0  0
  145.8439  137.5957  153.6915 C   0  0  0  0  0  0  0  0  0  0  0  0
  146.6784  136.5091  154.3923 C   0  0  2  0  0  0  0  0  0  0  0  0
  148.1003  136.7194  154.1187 N   0  0  0  0  0  0  0  0  0  0  0  0
  149.0562  136.8401  155.0500 C   0  0  0  0  0  0  0  0  0  0  0  0
  148.8506  136.7522  156.2603 O   0  0  0  0  0  0  0  0  0  0  0  0
  150.2568  137.0800  154.5033 N   0  0  0  0  0  0  0  0  0  0  0  0
  151.4956  137.2964  155.2474 C   0  0  0  0  0  0  0  0  0  0  0  0
  152.1510  138.6528  154.9238 C   0  0  0  0  0  0  0  0  0  0  0  0
  151.4954  139.8235  155.5834 C   0  0  0  0  0  0  0  0  0  0  0  0
  150.6932  140.6752  154.9386 N   0  0  0  0  0  0  0  0  0  0  0  0
  150.2388  141.7086  155.7614 C   0  0  0  0  0  0  0  0  0  0  0  0
  150.7129  141.6346  157.0464 C   0  0  0  0  0  0  0  0  0  0  0  0
  151.7531  140.2557  157.2719 S   0  0  0  0  0  0  0  0  0  0  0  0
  146.2057  135.1104  153.9379 C   0  0  0  0  0  0  0  0  0  0  0  0
  146.0942  132.3899  150.1762 H   0  0  0  0  0  0  0  0  0  0  0  0
  147.4575  133.4813  150.3400 H   0  0  0  0  0  0  0  0  0  0  0  0
  145.8764  134.1101  149.8785 H   0  0  0  0  0  0  0  0  0  0  0  0
  144.9511  133.3744  152.0951 H   0  0  0  0  0  0  0  0  0  0  0  0
  146.5362  132.8609  152.6210 H   0  0  0  0  0  0  0  0  0  0  0  0
  145.5466  135.8647  150.6907 H   0  0  0  0  0  0  0  0  0  0  0  0
  144.4020  135.8060  152.0165 H   0  0  0  0  0  0  0  0  0  0  0  0
  146.8621  137.6166  151.7795 H   0  0  0  0  0  0  0  0  0  0  0  0
  145.1967  138.1283  151.6938 H   0  0  0  0  0  0  0  0  0  0  0  0
  146.2077  138.5897  153.9552 H   0  0  0  0  0  0  0  0  0  0  0  0
  144.8137  137.5434  154.0461 H   0  0  0  0  0  0  0  0  0  0  0  0
  146.5256  136.6027  155.4691 H   0  0  0  0  0  0  0  0  0  0  0  0
  148.3676  136.8197  153.1502 H   0  0  0  0  0  0  0  0  0  0  0  0
  150.3186  137.1376  153.4972 H   0  0  0  0  0  0  0  0  0  0  0  0
  151.3201  137.2141  156.3212 H   0  0  0  0  0  0  0  0  0  0  0  0
  152.1854  136.4918  154.9925 H   0  0  0  0  0  0  0  0  0  0  0  0
  153.2005  138.6312  155.2197 H   0  0  0  0  0  0  0  0  0  0  0  0
  152.1421  138.8174  153.8459 H   0  0  0  0  0  0  0  0  0  0  0  0
  149.5798  142.4579  155.3485 H   0  0  0  0  0  0  0  0  0  0  0  0
  150.5142  142.3047  157.8694 H   0  0  0  0  0  0  0  0  0  0  0  0
  145.1745  134.9462  154.2550 H   0  0  0  0  0  0  0  0  0  0  0  0
  146.7993  134.3436  154.4337 H   0  0  0  0  0  0  0  0  0  0  0  0
  147.2485  135.1664  152.2013 H   0  0  0  0  0  0  0  0  0  0  0  0
  1  2  1  0  0  0  0
  1 20  1  0  0  0  0
  1 21  1  0  0  0  0
  1 22  1  0  0  0  0
  2  3  1  0  0  0  0
  2 23  1  0  0  0  0
  2 24  1  0  0  0  0
  3 19  1  0  0  0  0
  3  4  1  0  0  0  0
  3 42  1  0  0  0  0
  4  5  1  0  0  0  0
  4 25  1  0  0  0  0
  4 26  1  0  0  0  0
  5  6  1  0  0  0  0
  5 27  1  0  0  0  0
  5 28  1  0  0  0  0
  6  7  1  0  0  0  0
  6 29  1  0  0  0  0
  6 30  1  0  0  0  0
  7  8  1  0  0  0  0
  7 19  1  0  0  0  0
  7 31  1  0  0  0  0
  8  9  1  0  0  0  0
  8 32  1  0  0  0  0
  9 10  2  0  0  0  0
  9 11  1  0  0  0  0
 11 12  1  0  0  0  0
 11 33  1  0  0  0  0
 12 13  1  0  0  0  0
 12 34  1  0  0  0  0
 12 35  1  0  0  0  0
 13 14  1  0  0  0  0
 13 36  1  0  0  0  0
 13 37  1  0  0  0  0
 14 18  1  0  0  0  0
 14 15  2  0  0  0  0
 15 16  1  0  0  0  0
 16 17  2  0  0  0  0
 16 38  1  0  0  0  0
 17 18  1  0  0  0  0
 17 39  1  0  0  0  0
 19 40  1  0  0  0  0
 19 41  1  0  0  0  0
M  CHG  1   3   1
M  END
> <s_m_source_file>
AV-unprocessed.smi

> <i_m_source_file_index>
1833

> <i_lp_mmshare_version>
43012

> <i_f3d_flags>
0

> <s_epik_input>
W0NIM11bQ0gyXU4xW0NIMl1bQ0gyXVtDSDJdW0NASF0oW0NIMl0xKVtOSF1DKD1PKVtOSF1bQ0gyXVtDSDJdYzJuW2NIXVtjSF1zMg==

> <s_epik_cmdline>
J2VwaWtfcHl0aG9uJywgJy1waCcsICc3LjAnLCAnLXRuJywgJzgnLCAnLW1hJywgJzIwMCcsICctbWV0YWxfYmluZGluZycsICctaW1hZScsICc8aW5maWxlLm1hZT4nLCAnLW9tYWUnLCAnPG91dGZpbGUubWFlPic=

> <r_lp_tautomer_probability>
1

> <r_epik_Ionization_Penalty>
0.00269629

> <r_epik_Ionization_Penalty_Charging>
0.00233899

> <r_epik_Ionization_Penalty_Neutral>
0.000357304

> <r_epik_State_Penalty>
-0

> <r_epik_Charging_Adjusted_Penalty>
0.00233899

> <i_epik_Tot_Q>
1

> <i_epik_Tot_abs_Q>
1

> <r_epik_Metal_State_Penalty>
-0

> <b_epik_Metal_Only>
0

> <s_lp_Force_Field>
OPLS_2005

> <r_lp_Energy>
15.7918

> <b_lp_Chiralities_Consistent>
1

> <s_lp_Variant>
AV-unprocessed.smi:1833-3

> <Gold.Version>
5.8.1

> <Gold.Id.Protein>
6NUR|6NUR_protein|mol2

> <Gold.PLP.Fitness>
43.8384

> <Gold.PLP.PLP>
-29.1824

> <Gold.PLP.part.hbond>
-3.7540

> <Gold.PLP.part.metal>
0.0000

> <Gold.PLP.part.buried>
-2.4574

> <Gold.PLP.part.nonpolar>
-23.4103

> <Gold.PLP.part.repulsive>
0.1584

> <Gold.PLP.ligand.clash>
0.0000

> <Gold.PLP.ligand.torsion>
0.3861

> <Gold.PLP.Chemscore.Hbond>
4.1230

> <Gold.PLP.Chemscore.CHOScore>
1.0000

> <Gold.PLP.Chemscore.Metal>
0.0000

> <Gold.Chemscore.Hbonds>
donor molecule, donor type, donor heavy atom, donor atom, acceptor molecule, acceptor atom, score
      L1  H     3    42       P1  7948  2.00
      L1  H     8    32       P1  7948  0.99
      L1  H    11    33       P1  7948  0.19
      P1  H  7989  7998       L1    15  0.88
      L1  C    16    38       P1  8028  1.00

> <Gold.PLP.Chemscore.Internal.Correction>
0.0592

> <Gold.Rescore>
     Score         DG    S(hbond)    S(metal)    S(lipo)     H(rot)  DE(clash)    DE(int)     intcor
     17.89     -18.29       2.71        0.00      69.62       1.71       0.03       0.37       ----

> <Gold.Chemscore.Fitness>
17.8865

> <Gold.Chemscore.DG>
-18.2904

> <Gold.Chemscore.ZeroCoef>
-5.4800

> <Gold.Chemscore.Hbond>
2.7109

> <Gold.Chemscore.Metal>
0.0000

> <Gold.Chemscore.Lipo>
69.6212

> <Gold.Chemscore.Internal_Hbond>
0.0000

> <Gold.Chemscore.DEClash>
0.0348

> <Gold.Chemscore.DEInternal>
0.3691

> <Gold.Chemscore.Rot>
1.7147

> <Gold.Chemscore.Internal.Correction>
   9.000000E+99

> <Gold.Chemscore.Hbonds>
donor molecule, donor type, donor heavy atom, donor atom, acceptor molecule, acceptor atom, score
      L1  H     3    42       P1  7948  0.95
      L1  H     8    32       P1  7948  0.89
      L1  H    11    33       P1  7948  0.02
      P1  H  7989  7998       L1    15  0.19

> <Gold.Chemscore.Hbond.Weighted>
-9.0543

> <Gold.Chemscore.Metal.Weighted>
-0.0000

> <Gold.Chemscore.Lipo.Weighted>
-8.1457

> <Gold.Chemscore.Internal_Hbond.Weighted>
0.0000

> <Gold.Chemscore.DEClash.Weighted>
0.0348

> <Gold.Chemscore.DEInternal.Weighted>
0.3691

> <Gold.Chemscore.Rot.Weighted>
4.3896

> <Gold.Chemscore.Internal.Correction.Weighted>
   9.000000E+99

> <Gold.Protein.RotatedTorsions>
[ 6907 6896 6895 6894 ] final   39.35 input  -60.11 | X-H torsion
[ 7974 7965 7964 7962 ] final   90.83 input  175.53 | X-H torsion
[ 8008 7997 7996 7995 ] final  157.32 input   59.86 | X-H torsion
[ 10167 10162 10161 10158 ] final   49.08 input  -65.29 | X-H torsion
[ 10718 10713 10712 10709 ] final  -91.77 input   66.30 | X-H torsion
[ 10763 10752 10751 10750 ] final  162.25 input  -60.55 | X-H torsion
[ 11005 11000 10999 10996 ] final   95.35 input  -57.11 | X-H torsion

> <Gold.Protein.ActiveResidues>
 VAL166  LYS551  ARG553  GLY616  TRP617  ASP618  TYR619  PRO620  LYS621  CYS622 
 ASP623  PHE694  ASN695  SER759  ASP760  ASP761  ALA762  ILE779  LEU786  VAL792 
 PHE793  MET794  SER795  GLU796  ALA797  LYS798  CYS799  TRP800  GLU811  SER814 

> <Gold.Protein.RotatedAtoms>
  152.1684  134.8854  160.0536 H   0  0  0  0  0  0  0  0  0  0  0  0  # atno 6907 bound_to 6896
  151.9823  133.3757  159.4120 H   0  0  0  0  0  0  0  0  0  0  0  0  # atno 6908 bound_to 6896
  150.6898  134.3948  159.5136 H   0  0  0  0  0  0  0  0  0  0  0  0  # atno 6909 bound_to 6896
  145.5137  139.2277  143.2710 H   0  0  0  0  0  0  0  0  0  0  0  0  # atno 7974 bound_to 7965
  156.2370  140.1888  156.7091 H   0  0  0  0  0  0  0  0  0  0  0  0  # atno 8008 bound_to 7997
  154.6126  140.0620  156.9540 H   0  0  0  0  0  0  0  0  0  0  0  0  # atno 8009 bound_to 7997
  155.1992  140.3291  155.4348 H   0  0  0  0  0  0  0  0  0  0  0  0  # atno 8010 bound_to 7997
  140.2866  144.3095  150.6251 H   0  0  0  0  0  0  0  0  0  0  0  0  # atno 10167 bound_to 10162
  155.9996  130.4961  150.5525 H   0  0  0  0  0  0  0  0  0  0  0  0  # atno 10718 bound_to 10713
  154.2755  135.2764  155.2720 H   0  0  0  0  0  0  0  0  0  0  0  0  # atno 10763 bound_to 10752
  154.5264  135.5742  153.6726 H   0  0  0  0  0  0  0  0  0  0  0  0  # atno 10764 bound_to 10752
  152.9938  135.6217  154.2912 H   0  0  0  0  0  0  0  0  0  0  0  0  # atno 10765 bound_to 10752
  139.8790  134.8894  156.3998 H   0  0  0  0  0  0  0  0  0  0  0  0  # atno 11005 bound_to 11000
  146.2150  140.5945  142.9042 LP  0  0  0  0  0  0  0  0  0  0  0  0  # atno 17320 bound_to 7965
  144.7713  140.5644  143.6668 LP  0  0  0  0  0  0  0  0  0  0  0  0  # atno 17321 bound_to 7965
  140.5768  143.2176  151.7501 LP  0  0  0  0  0  0  0  0  0  0  0  0  # atno 17342 bound_to 10162
  139.4949  144.4138  152.0051 LP  0  0  0  0  0  0  0  0  0  0  0  0  # atno 17343 bound_to 10162
  157.3446  131.0723  151.1761 LP  0  0  0  0  0  0  0  0  0  0  0  0  # atno 17370 bound_to 10713
  157.2598  130.6653  149.5969 LP  0  0  0  0  0  0  0  0  0  0  0  0  # atno 17371 bound_to 10713
  140.9275  133.7602  155.9983 LP  0  0  0  0  0  0  0  0  0  0  0  0  # atno 17394 bound_to 11000
  140.8369  134.3113  157.5328 LP  0  0  0  0  0  0  0  0  0  0  0  0  # atno 17395 bound_to 11000

$$$$
