AV-unprocessed.smi:692|AV-procd|sdf|3371|dock7
  -GOLD-   22720 0353D 1   1.00000     0.00000
 Structure written by MMmdl.
 36 37  0  0  0  0  0  0  0  0  2 V2000
  151.6724  144.0957  157.0362 C   0  0  0  0  0  0  0  0  0  0  0  0
  151.3579  144.8372  158.3403 C   0  0  0  0  0  0  0  0  0  0  0  0
  151.8589  144.1040  159.5472 C   0  0  0  0  0  0  0  0  0  0  0  0
  151.8041  144.5264  160.8501 C   0  0  0  0  0  0  0  0  0  0  0  0
  152.5125  143.3630  161.9336 S   0  0  0  0  0  0  0  0  0  0  0  0
  152.8612  142.3119  160.5592 C   0  0  0  0  0  0  0  0  0  0  0  0
  153.4680  141.1166  160.6380 N   0  5  0  0  0  0  0  0  0  0  0  0
  153.7509  140.4269  159.5095 C   0  0  0  0  0  0  0  0  0  0  0  0
  154.8640  140.0331  159.1531 O   0  0  0  0  0  0  0  0  0  0  0  0
  152.6775  140.1807  158.7447 N   0  0  0  0  0  0  0  0  0  0  0  0
  152.6764  139.4643  157.4722 C   0  0  1  0  0  0  0  0  0  0  0  0
  152.7477  137.9575  157.7257 C   0  0  0  0  0  0  0  0  0  0  0  0
  152.7893  137.1934  156.3971 C   0  0  0  0  0  0  0  0  0  0  0  0
  151.7311  137.6582  155.3849 C   0  0  0  0  0  0  0  0  0  0  0  0
  151.4477  136.9029  154.4544 O   0  0  0  0  0  0  0  0  0  0  0  0
  151.1701  138.8839  155.5246 N   0  0  0  0  0  0  0  0  0  0  0  0
  150.1858  139.3612  154.5519 C   0  0  0  0  0  0  0  0  0  0  0  0
  151.4112  139.7933  156.6557 C   0  0  0  0  0  0  0  0  0  0  0  0
  152.4647  142.8530  159.4020 N   0  0  0  0  0  0  0  0  0  0  0  0
  151.2999  144.6495  156.1744 H   0  0  0  0  0  0  0  0  0  0  0  0
  151.2095  143.1084  157.0229 H   0  0  0  0  0  0  0  0  0  0  0  0
  152.7472  143.9635  156.9095 H   0  0  0  0  0  0  0  0  0  0  0  0
  151.7970  145.8345  158.3004 H   0  0  0  0  0  0  0  0  0  0  0  0
  150.2804  144.9881  158.4172 H   0  0  0  0  0  0  0  0  0  0  0  0
  151.3951  145.4475  161.2374 H   0  0  0  0  0  0  0  0  0  0  0  0
  151.7871  140.5212  159.0770 H   0  0  0  0  0  0  0  0  0  0  0  0
  153.5599  139.7540  156.8999 H   0  0  0  0  0  0  0  0  0  0  0  0
  153.6337  137.7157  158.3139 H   0  0  0  0  0  0  0  0  0  0  0  0
  151.8868  137.6333  158.3125 H   0  0  0  0  0  0  0  0  0  0  0  0
  153.7677  137.3240  155.9335 H   0  0  0  0  0  0  0  0  0  0  0  0
  152.6720  136.1249  156.5803 H   0  0  0  0  0  0  0  0  0  0  0  0
  150.6452  139.4752  153.5691 H   0  0  0  0  0  0  0  0  0  0  0  0
  149.7628  140.3264  154.8334 H   0  0  0  0  0  0  0  0  0  0  0  0
  149.3564  138.6579  154.4629 H   0  0  0  0  0  0  0  0  0  0  0  0
  150.5340  139.7450  157.3030 H   0  0  0  0  0  0  0  0  0  0  0  0
  151.4742  140.8212  156.2952 H   0  0  0  0  0  0  0  0  0  0  0  0
  1  2  1  0  0  0  0
  1 20  1  0  0  0  0
  1 21  1  0  0  0  0
  1 22  1  0  0  0  0
  2  3  1  0  0  0  0
  2 23  1  0  0  0  0
  2 24  1  0  0  0  0
  3 19  1  0  0  0  0
  3  4  2  0  0  0  0
  4  5  1  0  0  0  0
  4 25  1  0  0  0  0
  5  6  1  0  0  0  0
  6  7  1  0  0  0  0
  6 19  2  0  0  0  0
  7  8  1  0  0  0  0
  8  9  2  0  0  0  0
  8 10  1  0  0  0  0
 10 11  1  0  0  0  0
 10 26  1  0  0  0  0
 11 18  1  0  0  0  0
 11 12  1  0  0  0  0
 11 27  1  0  0  0  0
 12 13  1  0  0  0  0
 12 28  1  0  0  0  0
 12 29  1  0  0  0  0
 13 14  1  0  0  0  0
 13 30  1  0  0  0  0
 13 31  1  0  0  0  0
 14 15  2  0  0  0  0
 14 16  1  0  0  0  0
 16 17  1  0  0  0  0
 16 18  1  0  0  0  0
 17 32  1  0  0  0  0
 17 33  1  0  0  0  0
 17 34  1  0  0  0  0
 18 35  1  0  0  0  0
 18 36  1  0  0  0  0
M  CHG  1   7  -1
M  END
> <s_m_source_file>
AV-unprocessed.smi

> <i_m_source_file_index>
692

> <i_lp_mmshare_version>
43012

> <i_f3d_flags>
0

> <s_epik_input>
W0NIM11bQ0gyXWMxW2NIXXNjKG4xKVtOSF1DKD1PKVtOSF1bQ0BASF0yW0NIMl1bQ0gyXUMoPU8pTihbQ0gzXSlbQ0gyXTI=

> <s_epik_cmdline>
J2VwaWtfcHl0aG9uJywgJy1waCcsICc3LjAnLCAnLXRuJywgJzgnLCAnLW1hJywgJzIwMCcsICctbWV0YWxfYmluZGluZycsICctaW1hZScsICc8aW5maWxlLm1hZT4nLCAnLW9tYWUnLCAnPG91dGZpbGUubWFlPic=

> <r_lp_tautomer_probability>
1

> <r_epik_Ionization_Penalty>
7.06728

> <r_epik_Ionization_Penalty_Charging>
5.78908

> <r_epik_Ionization_Penalty_Neutral>
1.2782

> <r_epik_State_Penalty>
5.78905

> <r_epik_Charging_Adjusted_Penalty>
11.5781

> <i_epik_Tot_Q>
-1

> <i_epik_Tot_abs_Q>
1

> <r_epik_Metal_State_Penalty>
1.76044

> <b_epik_Metal_Only>
1

> <s_lp_Force_Field>
OPLS_2005

> <r_lp_Energy>
4.22105

> <b_lp_Chiralities_Consistent>
1

> <s_lp_Variant>
AV-unprocessed.smi:692-4

> <Gold.Version>
5.8.1

> <Gold.Id.Protein>
6NUR|6NUR_protein|mol2

> <Gold.PLP.Fitness>
41.6769

> <Gold.PLP.PLP>
-37.3151

> <Gold.PLP.part.hbond>
-2.0000

> <Gold.PLP.part.metal>
0.0000

> <Gold.PLP.part.buried>
-3.3232

> <Gold.PLP.part.nonpolar>
-32.1275

> <Gold.PLP.part.repulsive>
0.3764

> <Gold.PLP.ligand.clash>
0.0000

> <Gold.PLP.ligand.torsion>
0.8105

> <Gold.PLP.Chemscore.Hbond>
1.9913

> <Gold.PLP.Chemscore.CHOScore>
0.0000

> <Gold.PLP.Chemscore.Metal>
0.0000

> <Gold.Chemscore.Hbonds>
donor molecule, donor type, donor heavy atom, donor atom, acceptor molecule, acceptor atom, score
      P1  H  7997  8010       L1     9  0.93
      P1  H 10752 10764       L1    15  1.00

> <Gold.PLP.Chemscore.Internal.Correction>
0.0091

> <Gold.Rescore>
     Score         DG    S(hbond)    S(metal)    S(lipo)     H(rot)  DE(clash)    DE(int)     intcor
     15.79     -18.41       1.72        0.00      88.35       1.23       0.24       2.38       ----

> <Gold.Chemscore.Fitness>
15.7908

> <Gold.Chemscore.DG>
-18.4144

> <Gold.Chemscore.ZeroCoef>
-5.4800

> <Gold.Chemscore.Hbond>
1.7168

> <Gold.Chemscore.Metal>
0.0000

> <Gold.Chemscore.Lipo>
88.3462

> <Gold.Chemscore.Internal_Hbond>
0.0000

> <Gold.Chemscore.DEClash>
0.2416

> <Gold.Chemscore.DEInternal>
2.3819

> <Gold.Chemscore.Rot>
1.2251

> <Gold.Chemscore.Internal.Correction>
   9.000000E+99

> <Gold.Chemscore.Hbonds>
donor molecule, donor type, donor heavy atom, donor atom, acceptor molecule, acceptor atom, score
      P1  H  7997  8010       L1     9  0.71
      P1  H 10752 10764       L1    15  0.68

> <Gold.Chemscore.Hbond.Weighted>
-5.7341

> <Gold.Chemscore.Metal.Weighted>
-0.0000

> <Gold.Chemscore.Lipo.Weighted>
-10.3365

> <Gold.Chemscore.Internal_Hbond.Weighted>
0.0000

> <Gold.Chemscore.DEClash.Weighted>
0.2416

> <Gold.Chemscore.DEInternal.Weighted>
2.3819

> <Gold.Chemscore.Rot.Weighted>
3.1362

> <Gold.Chemscore.Internal.Correction.Weighted>
   9.000000E+99

> <Gold.Protein.RotatedTorsions>
[ 6907 6896 6895 6894 ] final  -75.94 input  -60.11 | X-H torsion
[ 7974 7965 7964 7962 ] final   45.46 input  175.53 | X-H torsion
[ 8008 7997 7996 7995 ] final    7.73 input   59.86 | X-H torsion
[ 10167 10162 10161 10158 ] final   52.99 input  -65.29 | X-H torsion
[ 10718 10713 10712 10709 ] final   83.25 input   66.30 | X-H torsion
[ 10763 10752 10751 10750 ] final  -86.78 input  -60.55 | X-H torsion
[ 11005 11000 10999 10996 ] final   65.57 input  -57.11 | X-H torsion

> <Gold.Protein.ActiveResidues>
 VAL166  LYS551  ARG553  GLY616  TRP617  ASP618  TYR619  PRO620  LYS621  CYS622 
 ASP623  PHE694  ASN695  SER759  ASP760  ASP761  ALA762  ILE779  LEU786  VAL792 
 PHE793  MET794  SER795  GLU796  ALA797  LYS798  CYS799  TRP800  GLU811  SER814 

> <Gold.Protein.RotatedAtoms>
  150.7043  134.4647  159.5396 H   0  0  0  0  0  0  0  0  0  0  0  0  # atno 6907 bound_to 6896
  152.2315  134.8315  160.0482 H   0  0  0  0  0  0  0  0  0  0  0  0  # atno 6908 bound_to 6896
  151.9129  133.3531  159.3907 H   0  0  0  0  0  0  0  0  0  0  0  0  # atno 6909 bound_to 6896
  146.0478  139.4962  142.9738 H   0  0  0  0  0  0  0  0  0  0  0  0  # atno 7974 bound_to 7965
  154.7576  140.2778  155.6241 H   0  0  0  0  0  0  0  0  0  0  0  0  # atno 8008 bound_to 7997
  156.2909  140.2666  156.2273 H   0  0  0  0  0  0  0  0  0  0  0  0  # atno 8009 bound_to 7997
  155.0058  140.0372  157.2369 H   0  0  0  0  0  0  0  0  0  0  0  0  # atno 8010 bound_to 7997
  140.2455  144.3537  150.6366 H   0  0  0  0  0  0  0  0  0  0  0  0  # atno 10167 bound_to 10162
  157.6875  131.0083  150.2496 H   0  0  0  0  0  0  0  0  0  0  0  0  # atno 10718 bound_to 10713
  154.6262  135.5437  153.7630 H   0  0  0  0  0  0  0  0  0  0  0  0  # atno 10763 bound_to 10752
  153.0262  135.6425  154.1368 H   0  0  0  0  0  0  0  0  0  0  0  0  # atno 10764 bound_to 10752
  154.1300  135.2915  155.3167 H   0  0  0  0  0  0  0  0  0  0  0  0  # atno 10765 bound_to 10752
  139.9886  134.6628  156.0131 H   0  0  0  0  0  0  0  0  0  0  0  0  # atno 11005 bound_to 11000
  145.6776  141.0200  143.1624 LP  0  0  0  0  0  0  0  0  0  0  0  0  # atno 17320 bound_to 7965
  144.7107  139.8384  143.7415 LP  0  0  0  0  0  0  0  0  0  0  0  0  # atno 17321 bound_to 7965
  140.6081  143.2168  151.6941 LP  0  0  0  0  0  0  0  0  0  0  0  0  # atno 17342 bound_to 10162
  139.5063  144.3686  152.0492 LP  0  0  0  0  0  0  0  0  0  0  0  0  # atno 17343 bound_to 10162
  156.3095  130.3770  149.7675 LP  0  0  0  0  0  0  0  0  0  0  0  0  # atno 17370 bound_to 10713
  156.5280  130.8245  151.3227 LP  0  0  0  0  0  0  0  0  0  0  0  0  # atno 17371 bound_to 10713
  141.1546  133.6544  156.4121 LP  0  0  0  0  0  0  0  0  0  0  0  0  # atno 17394 bound_to 11000
  140.4953  134.6537  157.5227 LP  0  0  0  0  0  0  0  0  0  0  0  0  # atno 17395 bound_to 11000

$$$$
