AV-unprocessed.smi:290|AV-procd|sdf|2241|dock1
  -GOLD-   2262022113D 1   1.00000     0.00000
 Structure written by MMmdl.
 59 62  0  0  0  0  0  0  0  0  2 V2000
  150.2828  138.1469  154.6859 C   0  0  0  0  0  0  0  0  0  0  0  0
  149.9557  139.5974  155.0769 C   0  0  2  0  0  0  0  0  0  0  0  0
  151.1408  140.3070  155.4059 O   0  0  0  0  0  0  0  0  0  0  0  0
  150.7435  141.4731  156.1042 C   0  0  0  0  0  0  0  0  0  0  0  0
  149.6825  140.9479  157.0638 C   0  0  0  0  0  0  0  0  0  0  0  0
  149.0120  139.8079  156.2902 C   0  0  2  0  0  0  0  0  0  0  0  0
  148.9785  138.6660  157.1303 O   0  0  0  0  0  0  0  0  0  0  0  0
  147.5584  140.1571  155.8853 C   0  0  0  0  0  0  0  0  0  0  0  0
  147.0113  139.2851  154.8562 N   0  0  0  0  0  0  0  0  0  0  0  0
  147.3038  139.3146  153.5126 C   0  0  0  0  0  0  0  0  0  0  0  0
  146.6783  138.4278  152.7892 N   0  0  0  0  0  0  0  0  0  0  0  0
  145.9085  137.7132  153.7014 C   0  0  0  0  0  0  0  0  0  0  0  0
  144.9983  136.6169  153.6086 C   0  0  0  0  0  0  0  0  0  0  0  0
  144.6776  135.9559  152.4646 N   0  0  0  0  0  0  0  0  0  0  0  0
  145.2732  136.3057  151.1878 C   0  0  0  0  0  0  0  0  0  0  0  0
  145.2997  134.9951  150.4132 C   0  0  0  0  0  0  0  0  0  0  0  0
  144.0613  134.2340  150.9163 C   0  0  1  0  0  0  0  0  0  0  0  0
  144.1831  132.7555  150.7115 N   0  3  2  0  0  0  0  0  0  0  0  0
  145.0187  132.1252  151.7672 C   0  0  0  0  0  0  0  0  0  0  0  0
  144.6096  132.3542  149.3394 C   0  0  0  0  0  0  0  0  0  0  0  0
  143.5626  132.6371  148.2449 C   0  0  0  0  0  0  0  0  0  0  0  0
  143.6483  133.9818  147.8224 O   0  0  0  0  0  0  0  0  0  0  0  0
  143.9342  134.7016  152.3923 C   0  0  2  0  0  0  0  0  0  0  0  0
  142.4658  134.9257  152.8173 C   0  0  0  0  0  0  0  0  0  0  0  0
  144.4084  136.2017  154.7601 N   0  0  0  0  0  0  0  0  0  0  0  0
  144.6909  136.7947  155.9227 C   0  0  0  0  0  0  0  0  0  0  0  0
  145.5208  137.8106  156.1584 N   0  0  0  0  0  0  0  0  0  0  0  0
  146.1090  138.2462  155.0084 C   0  0  0  0  0  0  0  0  0  0  0  0
  143.1940  134.5941  150.3594 H   0  0  0  0  0  0  0  0  0  0  0  0
  144.4277  133.9803  153.0427 H   0  0  0  0  0  0  0  0  0  0  0  0
  149.3775  137.5892  154.4454 H   0  0  0  0  0  0  0  0  0  0  0  0
  150.8023  137.6218  155.4879 H   0  0  0  0  0  0  0  0  0  0  0  0
  150.9281  138.1220  153.8078 H   0  0  0  0  0  0  0  0  0  0  0  0
  149.5391  140.1036  154.2055 H   0  0  0  0  0  0  0  0  0  0  0  0
  151.5824  141.9428  156.6180 H   0  0  0  0  0  0  0  0  0  0  0  0
  150.3171  142.1949  155.4055 H   0  0  0  0  0  0  0  0  0  0  0  0
  150.1761  140.5751  157.9632 H   0  0  0  0  0  0  0  0  0  0  0  0
  148.9887  141.7290  157.3769 H   0  0  0  0  0  0  0  0  0  0  0  0
  149.8670  138.3862  157.2880 H   0  0  0  0  0  0  0  0  0  0  0  0
  146.9023  140.1071  156.7554 H   0  0  0  0  0  0  0  0  0  0  0  0
  147.5060  141.1859  155.5268 H   0  0  0  0  0  0  0  0  0  0  0  0
  147.9958  140.0243  153.0823 H   0  0  0  0  0  0  0  0  0  0  0  0
  144.6419  137.0426  150.6902 H   0  0  0  0  0  0  0  0  0  0  0  0
  146.2764  136.7218  151.2903 H   0  0  0  0  0  0  0  0  0  0  0  0
  145.2985  135.1640  149.3362 H   0  0  0  0  0  0  0  0  0  0  0  0
  146.2072  134.4452  150.6679 H   0  0  0  0  0  0  0  0  0  0  0  0
  146.0641  132.4183  151.6627 H   0  0  0  0  0  0  0  0  0  0  0  0
  144.9621  131.0387  151.7330 H   0  0  0  0  0  0  0  0  0  0  0  0
  144.6905  132.4030  152.7678 H   0  0  0  0  0  0  0  0  0  0  0  0
  145.5053  132.8998  149.0491 H   0  0  0  0  0  0  0  0  0  0  0  0
  144.8703  131.2949  149.3389 H   0  0  0  0  0  0  0  0  0  0  0  0
  143.7603  132.0002  147.3823 H   0  0  0  0  0  0  0  0  0  0  0  0
  142.5470  132.4063  148.5636 H   0  0  0  0  0  0  0  0  0  0  0  0
  144.4964  134.3214  148.0669 H   0  0  0  0  0  0  0  0  0  0  0  0
  141.8650  134.0219  152.7368 H   0  0  0  0  0  0  0  0  0  0  0  0
  141.9912  135.6840  152.1936 H   0  0  0  0  0  0  0  0  0  0  0  0
  142.3900  135.2670  153.8490 H   0  0  0  0  0  0  0  0  0  0  0  0
  144.1798  136.3977  156.7873 H   0  0  0  0  0  0  0  0  0  0  0  0
  143.2505  132.3836  150.8233 H   0  0  0  0  0  0  0  0  0  0  0  0
  1  2  1  0  0  0  0
  1 31  1  0  0  0  0
  1 32  1  0  0  0  0
  1 33  1  0  0  0  0
  2  6  1  0  0  0  0
  2  3  1  0  0  0  0
  2 34  1  0  0  0  0
  3  4  1  0  0  0  0
  4  5  1  0  0  0  0
  4 35  1  0  0  0  0
  4 36  1  0  0  0  0
  5  6  1  0  0  0  0
  5 37  1  0  0  0  0
  5 38  1  0  0  0  0
  6  7  1  0  0  0  0
  6  8  1  0  0  0  0
  7 39  1  0  0  0  0
  8  9  1  0  0  0  0
  8 40  1  0  0  0  0
  8 41  1  0  0  0  0
  9 28  1  0  0  0  0
  9 10  1  0  0  0  0
 10 11  2  0  0  0  0
 10 42  1  0  0  0  0
 11 12  1  0  0  0  0
 12 28  2  0  0  0  0
 12 13  1  0  0  0  0
 13 14  1  0  0  0  0
 13 25  2  0  0  0  0
 14 23  1  0  0  0  0
 14 15  1  0  0  0  0
 15 16  1  0  0  0  0
 15 43  1  0  0  0  0
 15 44  1  0  0  0  0
 16 17  1  0  0  0  0
 16 45  1  0  0  0  0
 16 46  1  0  0  0  0
 17 29  1  0  0  0  0
 17 18  1  0  0  0  0
 17 23  1  0  0  0  0
 18 19  1  0  0  0  0
 18 20  1  0  0  0  0
 18 59  1  0  0  0  0
 19 47  1  0  0  0  0
 19 48  1  0  0  0  0
 19 49  1  0  0  0  0
 20 21  1  0  0  0  0
 20 50  1  0  0  0  0
 20 51  1  0  0  0  0
 21 22  1  0  0  0  0
 21 52  1  0  0  0  0
 21 53  1  0  0  0  0
 22 54  1  0  0  0  0
 23 30  1  0  0  0  0
 23 24  1  0  0  0  0
 24 55  1  0  0  0  0
 24 56  1  0  0  0  0
 24 57  1  0  0  0  0
 25 26  1  0  0  0  0
 26 27  2  0  0  0  0
 26 58  1  0  0  0  0
 27 28  1  0  0  0  0
M  CHG  1  18   1
M  END
> <s_m_source_file>
AV-unprocessed.smi

> <i_m_source_file_index>
290

> <i_lp_mmshare_version>
43012

> <i_f3d_flags>
0

> <s_epik_input>
W0NIMl0xW0NIMl1PW0NAQEhdKFtDSDNdKVtDQEBdMShbT0hdKVtDSDJdbihbY0hdbjIpYyhjMjMpbltjSF1uYzNONFtDSDJdW0NIMl1bQ0BIXShbQ0BIXTRbQ0gzXSlOKFtDSDNdKVtDSDJdW0NIMl1bT0hd

> <s_epik_cmdline>
J2VwaWtfcHl0aG9uJywgJy1waCcsICc3LjAnLCAnLXRuJywgJzgnLCAnLW1hJywgJzIwMCcsICctbWV0YWxfYmluZGluZycsICctaW1hZScsICc8aW5maWxlLm1hZT4nLCAnLW9tYWUnLCAnPG91dGZpbGUubWFlPic=

> <r_lp_tautomer_probability>
1

> <r_epik_Ionization_Penalty>
0.0036983

> <r_epik_Ionization_Penalty_Charging>
0.0032725

> <r_epik_Ionization_Penalty_Neutral>
0.000425798

> <r_epik_State_Penalty>
-0

> <r_epik_Charging_Adjusted_Penalty>
0.0032725

> <i_epik_Tot_Q>
1

> <i_epik_Tot_abs_Q>
1

> <r_epik_Metal_State_Penalty>
-0

> <b_epik_Metal_Only>
0

> <s_lp_Force_Field>
OPLS_2005

> <r_lp_Energy>
64.4963

> <b_lp_Chiralities_Consistent>
1

> <s_lp_Variant>
AV-unprocessed.smi:290-27

> <Gold.Version>
5.8.1

> <Gold.Id.Protein>
6NUR|6NUR_protein|mol2

> <Gold.PLP.Fitness>
50.6634

> <Gold.PLP.PLP>
-40.1211

> <Gold.PLP.part.hbond>
-4.9864

> <Gold.PLP.part.metal>
0.0000

> <Gold.PLP.part.buried>
-4.2093

> <Gold.PLP.part.nonpolar>
-31.4319

> <Gold.PLP.part.repulsive>
0.3760

> <Gold.PLP.ligand.clash>
0.0000

> <Gold.PLP.ligand.torsion>
0.8837

> <Gold.PLP.Chemscore.Hbond>
2.9760

> <Gold.PLP.Chemscore.CHOScore>
1.0000

> <Gold.PLP.Chemscore.Metal>
0.0000

> <Gold.Chemscore.Hbonds>
donor molecule, donor type, donor heavy atom, donor atom, acceptor molecule, acceptor atom, score
      L1  H    22    54       P1  7921  0.98
      P1  H  7989  7998       L1     3  0.86
      P1  H 10192 10197       L1    22  0.78
      L1  C    10    42       P1  7957  1.00

> <Gold.PLP.Chemscore.Internal.Correction>
0.3817

> <Gold.Rescore>
     Score         DG    S(hbond)    S(metal)    S(lipo)     H(rot)  DE(clash)    DE(int)     intcor
     10.64     -14.51       2.01        0.00      93.24       3.35       0.70       3.18       ----

> <Gold.Chemscore.Fitness>
10.6421

> <Gold.Chemscore.DG>
-14.5146

> <Gold.Chemscore.ZeroCoef>
-5.4800

> <Gold.Chemscore.Hbond>
2.0079

> <Gold.Chemscore.Metal>
0.0000

> <Gold.Chemscore.Lipo>
93.2369

> <Gold.Chemscore.Internal_Hbond>
0.0000

> <Gold.Chemscore.DEClash>
0.6965

> <Gold.Chemscore.DEInternal>
3.1760

> <Gold.Chemscore.Rot>
3.3518

> <Gold.Chemscore.Internal.Correction>
   9.000000E+99

> <Gold.Chemscore.Hbonds>
donor molecule, donor type, donor heavy atom, donor atom, acceptor molecule, acceptor atom, score
      L1  H    22    54       P1  7921  0.93
      P1  H  7989  7998       L1     3  0.09
      P1  H 10192 10197       L1    22  0.76

> <Gold.Chemscore.Hbond.Weighted>
-6.7064

> <Gold.Chemscore.Metal.Weighted>
-0.0000

> <Gold.Chemscore.Lipo.Weighted>
-10.9087

> <Gold.Chemscore.Internal_Hbond.Weighted>
0.0000

> <Gold.Chemscore.DEClash.Weighted>
0.6965

> <Gold.Chemscore.DEInternal.Weighted>
3.1760

> <Gold.Chemscore.Rot.Weighted>
8.5806

> <Gold.Chemscore.Internal.Correction.Weighted>
   9.000000E+99

> <Gold.Protein.RotatedTorsions>
[ 6907 6896 6895 6894 ] final -173.98 input  -60.11 | X-H torsion
[ 7974 7965 7964 7962 ] final -129.22 input  175.53 | X-H torsion
[ 8008 7997 7996 7995 ] final   38.77 input   59.86 | X-H torsion
[ 10167 10162 10161 10158 ] final  167.15 input  -65.29 | X-H torsion
[ 10718 10713 10712 10709 ] final   63.13 input   66.30 | X-H torsion
[ 10763 10752 10751 10750 ] final    3.76 input  -60.55 | X-H torsion
[ 11005 11000 10999 10996 ] final -162.51 input  -57.11 | X-H torsion

> <Gold.Protein.ActiveResidues>
 VAL166  LYS551  ARG553  GLY616  TRP617  ASP618  TYR619  PRO620  LYS621  CYS622 
 ASP623  PHE694  ASN695  SER759  ASP760  ASP761  ALA762  ILE779  LEU786  VAL792 
 PHE793  MET794  SER795  GLU796  ALA797  LYS798  CYS799  TRP800  GLU811  SER814 

> <Gold.Protein.RotatedAtoms>
  151.5649  133.3398  159.2977 H   0  0  0  0  0  0  0  0  0  0  0  0  # atno 6907 bound_to 6896
  150.8401  134.7693  159.6936 H   0  0  0  0  0  0  0  0  0  0  0  0  # atno 6908 bound_to 6896
  152.4470  134.5480  159.9910 H   0  0  0  0  0  0  0  0  0  0  0  0  # atno 6909 bound_to 6896
  144.9593  140.7429  143.4739 H   0  0  0  0  0  0  0  0  0  0  0  0  # atno 7974 bound_to 7965
  155.2257  140.3334  155.4310 H   0  0  0  0  0  0  0  0  0  0  0  0  # atno 8008 bound_to 7997
  156.2315  140.1853  156.7276 H   0  0  0  0  0  0  0  0  0  0  0  0  # atno 8009 bound_to 7997
  154.5986  140.0626  156.9323 H   0  0  0  0  0  0  0  0  0  0  0  0  # atno 8010 bound_to 7997
  139.4939  144.3952  151.9472 H   0  0  0  0  0  0  0  0  0  0  0  0  # atno 10167 bound_to 10162
  157.5950  130.9088  149.9676 H   0  0  0  0  0  0  0  0  0  0  0  0  # atno 10718 bound_to 10713
  153.2794  135.6939  153.7400 H   0  0  0  0  0  0  0  0  0  0  0  0  # atno 10763 bound_to 10752
  153.6393  135.3396  155.3067 H   0  0  0  0  0  0  0  0  0  0  0  0  # atno 10764 bound_to 10752
  154.8490  135.4428  154.1843 H   0  0  0  0  0  0  0  0  0  0  0  0  # atno 10765 bound_to 10752
  140.6084  134.4874  157.5213 H   0  0  0  0  0  0  0  0  0  0  0  0  # atno 11005 bound_to 11000
  145.2724  139.1949  143.4834 LP  0  0  0  0  0  0  0  0  0  0  0  0  # atno 17320 bound_to 7965
  146.3348  140.2673  142.8604 LP  0  0  0  0  0  0  0  0  0  0  0  0  # atno 17321 bound_to 7965
  140.3390  144.3226  150.5971 LP  0  0  0  0  0  0  0  0  0  0  0  0  # atno 17342 bound_to 10162
  140.5582  143.2196  151.7811 LP  0  0  0  0  0  0  0  0  0  0  0  0  # atno 17343 bound_to 10162
  156.1010  130.3656  150.0218 LP  0  0  0  0  0  0  0  0  0  0  0  0  # atno 17370 bound_to 10713
  156.8333  130.9400  151.3636 LP  0  0  0  0  0  0  0  0  0  0  0  0  # atno 17371 bound_to 10713
  139.9202  134.8164  156.1235 LP  0  0  0  0  0  0  0  0  0  0  0  0  # atno 17394 bound_to 11000
  141.0824  133.6748  156.2365 LP  0  0  0  0  0  0  0  0  0  0  0  0  # atno 17395 bound_to 11000

$$$$
