AV-unprocessed.smi:3214|AV-procd|sdf|12283|dock5
  -GOLD-   2272018123D 1   1.00000     0.00000
 Structure written by MMmdl.
 37 37  0  0  0  0  0  0  0  0  2 V2000
  153.5361  142.2317  162.0992 C   0  0  0  0  0  0  0  0  0  0  0  0
  152.7212  143.5295  162.1741 C   0  0  0  0  0  0  0  0  0  0  0  0
  152.3969  144.0344  160.8447 N   0  0  0  0  0  0  0  0  0  0  0  0
  151.1645  144.3518  160.4187 C   0  0  0  0  0  0  0  0  0  0  0  0
  150.1596  144.2506  161.1228 O   0  0  0  0  0  0  0  0  0  0  0  0
  151.0577  144.8533  158.9748 C   0  0  0  0  0  0  0  0  0  0  0  0
  151.3002  143.7494  157.9305 C   0  0  0  0  0  0  0  0  0  0  0  0
  150.0419  143.0413  157.6133 N   0  3  0  0  0  0  0  0  0  0  0  0
  150.1746  141.5893  157.3565 C   0  0  2  0  0  0  0  0  0  0  0  0
  151.0886  141.3735  156.1383 C   0  0  0  0  0  0  0  0  0  0  0  0
  148.7888  140.9234  157.1823 C   0  0  0  0  0  0  0  0  0  0  0  0
  148.3002  140.9707  155.8157 N   0  0  0  0  0  0  0  0  0  0  0  0
  147.5791  141.9694  155.1952 C   0  0  0  0  0  0  0  0  0  0  0  0
  147.3376  141.5602  153.9151 C   0  0  0  0  0  0  0  0  0  0  0  0
  147.9515  140.2782  153.8482 C   0  0  0  0  0  0  0  0  0  0  0  0
  148.5231  139.9266  154.9888 N   0  0  0  0  0  0  0  0  0  0  0  0
  153.7949  141.8798  163.0979 H   0  0  0  0  0  0  0  0  0  0  0  0
  154.4660  142.3811  161.5495 H   0  0  0  0  0  0  0  0  0  0  0  0
  152.9763  141.4377  161.6033 H   0  0  0  0  0  0  0  0  0  0  0  0
  151.8109  143.3732  162.7554 H   0  0  0  0  0  0  0  0  0  0  0  0
  153.2954  144.2940  162.6980 H   0  0  0  0  0  0  0  0  0  0  0  0
  153.1670  144.1438  160.2006 H   0  0  0  0  0  0  0  0  0  0  0  0
  150.0676  145.2864  158.8243 H   0  0  0  0  0  0  0  0  0  0  0  0
  151.7782  145.6607  158.8388 H   0  0  0  0  0  0  0  0  0  0  0  0
  151.7045  144.1812  157.0135 H   0  0  0  0  0  0  0  0  0  0  0  0
  152.0372  143.0401  158.3077 H   0  0  0  0  0  0  0  0  0  0  0  0
  149.3811  143.1818  158.3642 H   0  0  0  0  0  0  0  0  0  0  0  0
  150.6751  141.1443  158.2179 H   0  0  0  0  0  0  0  0  0  0  0  0
  151.2960  140.3160  155.9720 H   0  0  0  0  0  0  0  0  0  0  0  0
  152.0499  141.8692  156.2769 H   0  0  0  0  0  0  0  0  0  0  0  0
  150.6375  141.7708  155.2285 H   0  0  0  0  0  0  0  0  0  0  0  0
  148.8172  139.8767  157.4855 H   0  0  0  0  0  0  0  0  0  0  0  0
  148.0549  141.4134  157.8239 H   0  0  0  0  0  0  0  0  0  0  0  0
  147.3017  142.8784  155.7084 H   0  0  0  0  0  0  0  0  0  0  0  0
  146.8016  142.0940  153.1443 H   0  0  0  0  0  0  0  0  0  0  0  0
  147.9970  139.5972  153.0112 H   0  0  0  0  0  0  0  0  0  0  0  0
  149.6672  143.4629  156.7755 H   0  0  0  0  0  0  0  0  0  0  0  0
  1  2  1  0  0  0  0
  1 17  1  0  0  0  0
  1 18  1  0  0  0  0
  1 19  1  0  0  0  0
  2  3  1  0  0  0  0
  2 20  1  0  0  0  0
  2 21  1  0  0  0  0
  3  4  1  0  0  0  0
  3 22  1  0  0  0  0
  4  5  2  0  0  0  0
  4  6  1  0  0  0  0
  6  7  1  0  0  0  0
  6 23  1  0  0  0  0
  6 24  1  0  0  0  0
  7  8  1  0  0  0  0
  7 25  1  0  0  0  0
  7 26  1  0  0  0  0
  8  9  1  0  0  0  0
  8 27  1  0  0  0  0
  8 37  1  0  0  0  0
  9 10  1  0  0  0  0
  9 11  1  0  0  0  0
  9 28  1  0  0  0  0
 10 29  1  0  0  0  0
 10 30  1  0  0  0  0
 10 31  1  0  0  0  0
 11 12  1  0  0  0  0
 11 32  1  0  0  0  0
 11 33  1  0  0  0  0
 12 16  1  0  0  0  0
 12 13  1  0  0  0  0
 13 14  2  0  0  0  0
 13 34  1  0  0  0  0
 14 15  1  0  0  0  0
 14 35  1  0  0  0  0
 15 16  2  0  0  0  0
 15 36  1  0  0  0  0
M  CHG  1   8   1
M  END
> <s_m_source_file>
AV-unprocessed.smi

> <i_m_source_file_index>
3214

> <i_lp_mmshare_version>
43012

> <i_f3d_flags>
0

> <s_epik_input>
W0NIM11bQ0gyXVtOSF1DKD1PKVtDSDJdW0NIMl1bTkhdW0NASF0oW0NIM10pW0NIMl1uMVtjSF1bY0hdW2NIXW4x

> <s_epik_cmdline>
J2VwaWtfcHl0aG9uJywgJy1waCcsICc3LjAnLCAnLXRuJywgJzgnLCAnLW1hJywgJzIwMCcsICctbWV0YWxfYmluZGluZycsICctaW1hZScsICc8aW5maWxlLm1hZT4nLCAnLW9tYWUnLCAnPG91dGZpbGUubWFlPic=

> <r_lp_tautomer_probability>
1

> <r_epik_Ionization_Penalty>
0.00598156

> <r_epik_Ionization_Penalty_Charging>
0.00597743

> <r_epik_Ionization_Penalty_Neutral>
4.12922e-06

> <r_epik_State_Penalty>
0.00439883

> <r_epik_Charging_Adjusted_Penalty>
0.0103763

> <i_epik_Tot_Q>
1

> <i_epik_Tot_abs_Q>
1

> <r_epik_Metal_State_Penalty>
-0

> <b_epik_Metal_Only>
0

> <s_lp_Force_Field>
OPLS_2005

> <r_lp_Energy>
5.54296

> <b_lp_Chiralities_Consistent>
1

> <s_lp_Variant>
AV-unprocessed.smi:3214-1

> <Gold.Version>
5.8.1

> <Gold.Id.Protein>
6NUR|6NUR_protein|mol2

> <Gold.PLP.Fitness>
42.7187

> <Gold.PLP.PLP>
-34.0271

> <Gold.PLP.part.hbond>
-1.6482

> <Gold.PLP.part.metal>
0.0000

> <Gold.PLP.part.buried>
-3.1001

> <Gold.PLP.part.nonpolar>
-29.0613

> <Gold.PLP.part.repulsive>
0.3288

> <Gold.PLP.ligand.clash>
0.0000

> <Gold.PLP.ligand.torsion>
1.2118

> <Gold.PLP.Chemscore.Hbond>
2.0000

> <Gold.PLP.Chemscore.CHOScore>
1.6549

> <Gold.PLP.Chemscore.Metal>
0.0000

> <Gold.Chemscore.Hbonds>
donor molecule, donor type, donor heavy atom, donor atom, acceptor molecule, acceptor atom, score
      L1  H     8    37       P1  8028  2.00
      L1  C    13    34       P1  8028  0.66
      L1  C    15    36       P1  7957  0.80

> <Gold.PLP.Chemscore.Internal.Correction>
0.1505

> <Gold.Rescore>
     Score         DG    S(hbond)    S(metal)    S(lipo)     H(rot)  DE(clash)    DE(int)     intcor
     10.90     -12.06       0.97        0.00      80.97       2.39       0.01       1.14       ----

> <Gold.Chemscore.Fitness>
10.9025

> <Gold.Chemscore.DG>
-12.0558

> <Gold.Chemscore.ZeroCoef>
-5.4800

> <Gold.Chemscore.Hbond>
0.9680

> <Gold.Chemscore.Metal>
0.0000

> <Gold.Chemscore.Lipo>
80.9669

> <Gold.Chemscore.Internal_Hbond>
0.0000

> <Gold.Chemscore.DEClash>
0.0105

> <Gold.Chemscore.DEInternal>
1.1429

> <Gold.Chemscore.Rot>
2.3948

> <Gold.Chemscore.Internal.Correction>
   9.000000E+99

> <Gold.Chemscore.Hbonds>
donor molecule, donor type, donor heavy atom, donor atom, acceptor molecule, acceptor atom, score
      L1  H     8    37       P1  8028  0.99

> <Gold.Chemscore.Hbond.Weighted>
-3.2333

> <Gold.Chemscore.Metal.Weighted>
-0.0000

> <Gold.Chemscore.Lipo.Weighted>
-9.4731

> <Gold.Chemscore.Internal_Hbond.Weighted>
0.0000

> <Gold.Chemscore.DEClash.Weighted>
0.0105

> <Gold.Chemscore.DEInternal.Weighted>
1.1429

> <Gold.Chemscore.Rot.Weighted>
6.1306

> <Gold.Chemscore.Internal.Correction.Weighted>
   9.000000E+99

> <Gold.Protein.RotatedTorsions>
[ 6907 6896 6895 6894 ] final  136.61 input  -60.11 | X-H torsion
[ 7974 7965 7964 7962 ] final -107.86 input  175.53 | X-H torsion
[ 8008 7997 7996 7995 ] final   73.20 input   59.86 | X-H torsion
[ 10167 10162 10161 10158 ] final   -0.83 input  -65.29 | X-H torsion
[ 10718 10713 10712 10709 ] final   43.15 input   66.30 | X-H torsion
[ 10763 10752 10751 10750 ] final  -61.44 input  -60.55 | X-H torsion
[ 11005 11000 10999 10996 ] final -175.81 input  -57.11 | X-H torsion

> <Gold.Protein.ActiveResidues>
 VAL166  LYS551  ARG553  GLY616  TRP617  ASP618  TYR619  PRO620  LYS621  CYS622 
 ASP623  PHE694  ASN695  SER759  ASP760  ASP761  ALA762  ILE779  LEU786  VAL792 
 PHE793  MET794  SER795  GLU796  ALA797  LYS798  CYS799  TRP800  GLU811  SER814 

> <Gold.Protein.RotatedAtoms>
  152.2874  133.5528  159.5535 H   0  0  0  0  0  0  0  0  0  0  0  0  # atno 6907 bound_to 6896
  150.7221  134.0477  159.3796 H   0  0  0  0  0  0  0  0  0  0  0  0  # atno 6908 bound_to 6896
  151.8385  135.0598  160.0496 H   0  0  0  0  0  0  0  0  0  0  0  0  # atno 6909 bound_to 6896
  145.2001  140.9052  143.3374 H   0  0  0  0  0  0  0  0  0  0  0  0  # atno 7974 bound_to 7965
  155.7802  140.3482  155.5293 H   0  0  0  0  0  0  0  0  0  0  0  0  # atno 8008 bound_to 7997
  155.8736  140.0990  157.1554 H   0  0  0  0  0  0  0  0  0  0  0  0  # atno 8009 bound_to 7997
  154.4019  140.1336  156.4096 H   0  0  0  0  0  0  0  0  0  0  0  0  # atno 8010 bound_to 7997
  140.6784  143.6847  150.8076 H   0  0  0  0  0  0  0  0  0  0  0  0  # atno 10167 bound_to 10162
  157.4128  130.7924  149.7445 H   0  0  0  0  0  0  0  0  0  0  0  0  # atno 10718 bound_to 10713
  154.2847  135.6265  153.5361 H   0  0  0  0  0  0  0  0  0  0  0  0  # atno 10763 bound_to 10752
  152.9861  135.5641  154.5457 H   0  0  0  0  0  0  0  0  0  0  0  0  # atno 10764 bound_to 10752
  154.5055  135.2874  155.1362 H   0  0  0  0  0  0  0  0  0  0  0  0  # atno 10765 bound_to 10752
  140.4592  134.6271  157.4835 H   0  0  0  0  0  0  0  0  0  0  0  0  # atno 11005 bound_to 11000
  144.9956  139.3647  143.6193 LP  0  0  0  0  0  0  0  0  0  0  0  0  # atno 17320 bound_to 7965
  146.3419  139.9158  142.8773 LP  0  0  0  0  0  0  0  0  0  0  0  0  # atno 17321 bound_to 7965
  140.0544  143.5218  152.2658 LP  0  0  0  0  0  0  0  0  0  0  0  0  # atno 17342 bound_to 10162
  139.6091  144.7604  151.2993 LP  0  0  0  0  0  0  0  0  0  0  0  0  # atno 17343 bound_to 10162
  155.9856  130.3982  150.3255 LP  0  0  0  0  0  0  0  0  0  0  0  0  # atno 17370 bound_to 10713
  157.1395  131.0292  151.2934 LP  0  0  0  0  0  0  0  0  0  0  0  0  # atno 17371 bound_to 10713
  139.9956  134.6916  155.9614 LP  0  0  0  0  0  0  0  0  0  0  0  0  # atno 17394 bound_to 11000
  141.1629  133.6538  156.4380 LP  0  0  0  0  0  0  0  0  0  0  0  0  # atno 17395 bound_to 11000

$$$$
