AV-unprocessed.smi:112|AV-procd|sdf|1088|dock1
  -GOLD-   2262018183D 1   1.00000     0.00000
 Structure written by MMmdl.
 54 57  0  0  0  0  0  0  0  0  3 V2000
  148.8634  135.0924  156.3807 C   0  0  0  0  0  0  0  0  0  0  0  0
  149.1123  136.4332  155.7074 C   0  0  0  0  0  0  0  0  0  0  0  0
  148.1129  137.1568  155.1523 C   0  0  0  0  0  0  0  0  0  0  0  0
  148.2999  138.3818  154.5316 N   0  0  0  0  0  0  0  0  0  0  0  0
  147.1499  139.2170  153.9819 C   0  0  1  0  0  0  0  0  0  0  0  0
  147.1926  139.4634  152.4666 C   0  0  0  0  0  0  0  0  0  0  0  0
  146.1593  138.4793  151.9175 C   0  0  1  0  0  0  0  0  0  0  0  0
  146.7331  137.6496  150.9272 O   0  0  0  0  0  0  0  0  0  0  0  0
  145.7005  137.6678  153.1429 C   0  0  2  0  0  0  0  0  0  0  0  0
  144.2129  137.2837  153.1423 C   0  0  0  0  0  0  0  0  0  0  0  0
  143.4839  138.1218  152.2706 O   0  0  0  0  0  0  0  0  0  0  0  0
  145.9602  138.5412  154.2344 O   0  0  0  0  0  0  0  0  0  0  0  0
  149.5846  138.9677  154.5491 C   0  0  0  0  0  0  0  0  0  0  0  0
  149.7743  140.0887  154.0711 O   0  0  0  0  0  0  0  0  0  0  0  0
  150.6516  138.2375  155.1197 N   0  0  0  0  0  0  0  0  0  0  0  0
  152.0086  138.8308  155.1048 C   0  0  0  0  0  0  0  0  0  0  0  0
  152.5070  139.2838  156.4948 C   0  0  0  0  0  0  0  0  0  0  0  0
  153.2025  138.5133  157.1578 O   0  0  0  0  0  0  0  0  0  0  0  0
  152.1540  140.5222  156.9216 N   0  0  0  0  0  0  0  0  0  0  0  0
  151.3308  141.4512  156.1279 C   0  0  0  0  0  0  0  0  0  0  0  0
  151.1728  142.7289  156.9808 C   0  0  0  0  0  0  0  0  0  0  0  0
  151.9450  142.4037  158.2250 C   0  0  0  0  0  0  0  0  0  0  0  0
  152.1230  143.2359  159.3432 C   0  0  0  0  0  0  0  0  0  0  0  0
  152.8881  142.7589  160.4365 C   0  0  0  0  0  0  0  0  0  0  0  0
  153.0972  143.6057  161.6278 N   0  3  0  0  0  0  0  0  0  0  0  0
  152.6453  144.7461  161.6174 O   0  0  0  0  0  0  0  0  0  0  0  0
  153.7137  143.1315  162.5767 O   0  5  0  0  0  0  0  0  0  0  0  0
  153.4502  141.4562  160.3695 C   0  0  0  0  0  0  0  0  0  0  0  0
  153.2612  140.6334  159.2375 C   0  0  0  0  0  0  0  0  0  0  0  0
  152.4959  141.1291  158.1595 C   0  0  0  0  0  0  0  0  0  0  0  0
  150.4798  136.9540  155.6913 C   0  0  0  0  0  0  0  0  0  0  0  0
  151.4436  136.3337  156.1452 O   0  0  0  0  0  0  0  0  0  0  0  0
  147.8167  134.7932  156.3181 H   0  0  0  0  0  0  0  0  0  0  0  0
  149.1332  135.1417  157.4363 H   0  0  0  0  0  0  0  0  0  0  0  0
  149.4609  134.3111  155.9098 H   0  0  0  0  0  0  0  0  0  0  0  0
  147.1206  136.7430  155.2217 H   0  0  0  0  0  0  0  0  0  0  0  0
  147.1890  140.1615  154.5266 H   0  0  0  0  0  0  0  0  0  0  0  0
  146.8577  140.4841  152.2776 H   0  0  0  0  0  0  0  0  0  0  0  0
  148.1987  139.3758  152.0561 H   0  0  0  0  0  0  0  0  0  0  0  0
  145.3244  139.0328  151.4859 H   0  0  0  0  0  0  0  0  0  0  0  0
  146.0402  137.1841  150.4847 H   0  0  0  0  0  0  0  0  0  0  0  0
  146.3153  136.7750  153.2721 H   0  0  0  0  0  0  0  0  0  0  0  0
  144.0949  136.2541  152.8037 H   0  0  0  0  0  0  0  0  0  0  0  0
  143.7907  137.3425  154.1459 H   0  0  0  0  0  0  0  0  0  0  0  0
  143.9208  138.1383  151.4329 H   0  0  0  0  0  0  0  0  0  0  0  0
  152.7294  138.1277  154.6853 H   0  0  0  0  0  0  0  0  0  0  0  0
  152.0386  139.6802  154.4214 H   0  0  0  0  0  0  0  0  0  0  0  0
  151.8176  141.6860  155.1804 H   0  0  0  0  0  0  0  0  0  0  0  0
  150.3532  141.0178  155.9135 H   0  0  0  0  0  0  0  0  0  0  0  0
  151.5957  143.6036  156.4856 H   0  0  0  0  0  0  0  0  0  0  0  0
  150.1285  142.9295  157.2222 H   0  0  0  0  0  0  0  0  0  0  0  0
  151.6777  144.2199  159.3548 H   0  0  0  0  0  0  0  0  0  0  0  0
  154.0363  141.0720  161.1914 H   0  0  0  0  0  0  0  0  0  0  0  0
  153.7054  139.6507  159.2276 H   0  0  0  0  0  0  0  0  0  0  0  0
  1  2  1  0  0  0  0
  1 33  1  0  0  0  0
  1 34  1  0  0  0  0
  1 35  1  0  0  0  0
  2 31  1  0  0  0  0
  2  3  2  0  0  0  0
  3  4  1  0  0  0  0
  3 36  1  0  0  0  0
  4  5  1  0  0  0  0
  4 13  1  0  0  0  0
  5 12  1  0  0  0  0
  5  6  1  0  0  0  0
  5 37  1  0  0  0  0
  6  7  1  0  0  0  0
  6 38  1  0  0  0  0
  6 39  1  0  0  0  0
  7  8  1  0  0  0  0
  7  9  1  0  0  0  0
  7 40  1  0  0  0  0
  8 41  1  0  0  0  0
  9 10  1  0  0  0  0
  9 12  1  0  0  0  0
  9 42  1  0  0  0  0
 10 11  1  0  0  0  0
 10 43  1  0  0  0  0
 10 44  1  0  0  0  0
 11 45  1  0  0  0  0
 13 14  2  0  0  0  0
 13 15  1  0  0  0  0
 15 16  1  0  0  0  0
 15 31  1  0  0  0  0
 16 17  1  0  0  0  0
 16 46  1  0  0  0  0
 16 47  1  0  0  0  0
 17 18  2  0  0  0  0
 17 19  1  0  0  0  0
 19 30  1  0  0  0  0
 19 20  1  0  0  0  0
 20 21  1  0  0  0  0
 20 48  1  0  0  0  0
 20 49  1  0  0  0  0
 21 22  1  0  0  0  0
 21 50  1  0  0  0  0
 21 51  1  0  0  0  0
 22 30  2  0  0  0  0
 22 23  1  0  0  0  0
 23 24  2  0  0  0  0
 23 52  1  0  0  0  0
 24 25  1  0  0  0  0
 24 28  1  0  0  0  0
 25 26  2  0  0  0  0
 25 27  1  0  0  0  0
 28 29  2  0  0  0  0
 28 53  1  0  0  0  0
 29 30  1  0  0  0  0
 29 54  1  0  0  0  0
 31 32  2  0  0  0  0
M  CHG  1  25   1
M  CHG  1  27  -1
M  END
> <s_m_source_file>
AV-unprocessed.smi

> <i_m_source_file_index>
112

> <i_lp_mmshare_version>
43012

> <i_f3d_flags>
0

> <s_epik_input>
W09IXVtDSDJdW0NAQEhdKE8xKVtDQEhdKFtPSF0pW0NIMl1bQ0BIXTFuKFtjSF1jMltDSDNdKWMoPU8pbihjMj1PKVtDSDJdQyg9TylOKFtDSDJdW0NIMl0zKWMoYzM0KVtjSF1bY0hdYyhbY0hdNClbTitdKD1PKVtPLV0=

> <s_epik_cmdline>
J2VwaWtfcHl0aG9uJywgJy1waCcsICc3LjAnLCAnLXRuJywgJzgnLCAnLW1hJywgJzIwMCcsICctbWV0YWxfYmluZGluZycsICctaW1hZScsICc8aW5maWxlLm1hZT4nLCAnLW9tYWUnLCAnPG91dGZpbGUubWFlPic=

> <r_lp_tautomer_probability>
1

> <r_epik_Ionization_Penalty>
2.5696e-07

> <r_epik_Ionization_Penalty_Charging>
1.04886e-08

> <r_epik_Ionization_Penalty_Neutral>
2.46472e-07

> <r_epik_State_Penalty>
-0

> <r_epik_Charging_Adjusted_Penalty>
1.04886e-08

> <i_epik_Tot_Q>
0

> <i_epik_Tot_abs_Q>
2

> <r_epik_Metal_State_Penalty>
-0

> <b_epik_Metal_Only>
0

> <s_epik_Chemistry_Notes>
This compound contains an acetal/aminal-like group ( X-CH(R)-Y where X, Y are N, S, or O) that may be acid/base labile, releasing an aldehyde.

> <s_lp_Force_Field>
OPLS_2005

> <r_lp_Energy>
55.094

> <b_lp_Chiralities_Consistent>
1

> <s_lp_Variant>
AV-unprocessed.smi:112-6

> <Gold.Version>
5.8.1

> <Gold.Id.Protein>
6NUR|6NUR_protein|mol2

> <Gold.PLP.Fitness>
64.3350

> <Gold.PLP.PLP>
-55.4866

> <Gold.PLP.part.hbond>
-7.8692

> <Gold.PLP.part.metal>
0.0000

> <Gold.PLP.part.buried>
-1.1881

> <Gold.PLP.part.nonpolar>
-44.9211

> <Gold.PLP.part.repulsive>
1.3121

> <Gold.PLP.ligand.clash>
1.0082

> <Gold.PLP.ligand.torsion>
1.0827

> <Gold.PLP.Chemscore.Hbond>
3.9586

> <Gold.PLP.Chemscore.CHOScore>
0.0000

> <Gold.PLP.Chemscore.Metal>
0.0000

> <Gold.Chemscore.Hbonds>
donor molecule, donor type, donor heavy atom, donor atom, acceptor molecule, acceptor atom, score
      L1  H    11    45       P1 10171  0.93
      P1  H  7954  7966       L1     8  1.00
      P1  H  7989  7998       L1    14  0.74
      P1  H  7997  8009       L1    18  0.20
      P1  H 10752 10764       L1    32  0.59

> <Gold.PLP.Chemscore.Internal.Correction>
0.1459

> <Gold.Rescore>
     Score         DG    S(hbond)    S(metal)    S(lipo)     H(rot)  DE(clash)    DE(int)     intcor
     15.61     -21.08       3.28        0.00     111.78       3.29       0.81       4.65       ----

> <Gold.Chemscore.Fitness>
15.6135

> <Gold.Chemscore.DG>
-21.0814

> <Gold.Chemscore.ZeroCoef>
-5.4800

> <Gold.Chemscore.Hbond>
3.2783

> <Gold.Chemscore.Metal>
0.0000

> <Gold.Chemscore.Lipo>
111.7820

> <Gold.Chemscore.Internal_Hbond>
0.0000

> <Gold.Chemscore.DEClash>
0.8139

> <Gold.Chemscore.DEInternal>
4.6539

> <Gold.Chemscore.Rot>
3.2916

> <Gold.Chemscore.Internal.Correction>
   9.000000E+99

> <Gold.Chemscore.Hbonds>
donor molecule, donor type, donor heavy atom, donor atom, acceptor molecule, acceptor atom, score
      L1  H    11    45       P1 10171  0.89
      P1  H  7954  7966       L1     8  0.82
      P1  H  7989  7998       L1    14  0.71
      P1  H 10752 10764       L1    32  0.57

> <Gold.Chemscore.Hbond.Weighted>
-10.9494

> <Gold.Chemscore.Metal.Weighted>
-0.0000

> <Gold.Chemscore.Lipo.Weighted>
-13.0785

> <Gold.Chemscore.Internal_Hbond.Weighted>
0.0000

> <Gold.Chemscore.DEClash.Weighted>
0.8139

> <Gold.Chemscore.DEInternal.Weighted>
4.6539

> <Gold.Chemscore.Rot.Weighted>
8.4265

> <Gold.Chemscore.Internal.Correction.Weighted>
   9.000000E+99

> <Gold.Protein.RotatedTorsions>
[ 6907 6896 6895 6894 ] final  -40.07 input  -60.11 | X-H torsion
[ 7974 7965 7964 7962 ] final  -71.78 input  175.53 | X-H torsion
[ 8008 7997 7996 7995 ] final  151.22 input   59.86 | X-H torsion
[ 10167 10162 10161 10158 ] final  -17.37 input  -65.29 | X-H torsion
[ 10718 10713 10712 10709 ] final   97.04 input   66.30 | X-H torsion
[ 10763 10752 10751 10750 ] final  -47.74 input  -60.55 | X-H torsion
[ 11005 11000 10999 10996 ] final   45.44 input  -57.11 | X-H torsion

> <Gold.Protein.ActiveResidues>
 VAL166  LYS551  ARG553  GLY616  TRP617  ASP618  TYR619  PRO620  LYS621  CYS622 
 ASP623  PHE694  ASN695  SER759  ASP760  ASP761  ALA762  ILE779  LEU786  VAL792 
 PHE793  MET794  SER795  GLU796  ALA797  LYS798  CYS799  TRP800  GLU811  SER814 

> <Gold.Protein.RotatedAtoms>
  150.9828  134.9179  159.7853 H   0  0  0  0  0  0  0  0  0  0  0  0  # atno 6907 bound_to 6896
  152.5227  134.3387  159.9219 H   0  0  0  0  0  0  0  0  0  0  0  0  # atno 6908 bound_to 6896
  151.3394  133.3927  159.2704 H   0  0  0  0  0  0  0  0  0  0  0  0  # atno 6909 bound_to 6896
  145.6736  140.9212  143.0869 H   0  0  0  0  0  0  0  0  0  0  0  0  # atno 7974 bound_to 7965
  156.2683  140.2054  156.6141 H   0  0  0  0  0  0  0  0  0  0  0  0  # atno 8008 bound_to 7997
  154.6808  140.0540  157.0288 H   0  0  0  0  0  0  0  0  0  0  0  0  # atno 8009 bound_to 7997
  155.1003  140.3205  155.4552 H   0  0  0  0  0  0  0  0  0  0  0  0  # atno 8010 bound_to 7997
  140.7246  143.5022  150.9855 H   0  0  0  0  0  0  0  0  0  0  0  0  # atno 10167 bound_to 10162
  157.6918  131.0597  150.4583 H   0  0  0  0  0  0  0  0  0  0  0  0  # atno 10718 bound_to 10713
  154.0663  135.6611  153.4818 H   0  0  0  0  0  0  0  0  0  0  0  0  # atno 10763 bound_to 10752
  153.0408  135.5146  154.7610 H   0  0  0  0  0  0  0  0  0  0  0  0  # atno 10764 bound_to 10752
  154.6662  135.3022  154.9769 H   0  0  0  0  0  0  0  0  0  0  0  0  # atno 10765 bound_to 10752
  140.1459  134.4523  155.8416 H   0  0  0  0  0  0  0  0  0  0  0  0  # atno 11005 bound_to 11000
  144.7048  139.8605  143.7433 LP  0  0  0  0  0  0  0  0  0  0  0  0  # atno 17320 bound_to 7965
  146.1024  139.4021  143.0338 LP  0  0  0  0  0  0  0  0  0  0  0  0  # atno 17321 bound_to 7965
  139.8732  143.7166  152.3164 LP  0  0  0  0  0  0  0  0  0  0  0  0  # atno 17342 bound_to 10162
  139.7422  144.7556  151.0634 LP  0  0  0  0  0  0  0  0  0  0  0  0  # atno 17343 bound_to 10162
  156.4929  130.4099  149.6396 LP  0  0  0  0  0  0  0  0  0  0  0  0  # atno 17370 bound_to 10713
  156.3400  130.7377  151.2320 LP  0  0  0  0  0  0  0  0  0  0  0  0  # atno 17371 bound_to 10713
  141.2192  133.6852  156.7333 LP  0  0  0  0  0  0  0  0  0  0  0  0  # atno 17394 bound_to 11000
  140.2664  134.8427  157.3806 LP  0  0  0  0  0  0  0  0  0  0  0  0  # atno 17395 bound_to 11000

$$$$
