AV-unprocessed.smi:2567|AV-procd|sdf|10087|dock7
  -GOLD-   2272014113D 1   1.00000     0.00000
 Structure written by MMmdl.
 32 33  0  0  0  0  0  0  0  0  2 V2000
  152.7095  142.7598  159.6435 C   0  0  0  0  0  0  0  0  0  0  0  0
  151.7758  143.3117  158.5529 C   0  0  0  0  0  0  0  0  0  0  0  0
  150.4511  143.7875  159.1826 C   0  0  0  0  0  0  0  0  0  0  0  0
  152.4256  144.5326  157.8714 C   0  0  0  0  0  0  0  0  0  0  0  0
  151.5001  142.2242  157.5195 C   0  0  0  0  0  0  0  0  0  0  0  0
  151.9443  140.9532  157.5720 N   0  5  0  0  0  0  0  0  0  0  0  0
  151.4220  140.2473  156.5905 N   0  0  0  0  0  0  0  0  0  0  0  0
  150.6136  141.0937  155.9361 C   0  0  0  0  0  0  0  0  0  0  0  0
  149.7504  140.7125  154.7499 C   0  0  1  0  0  0  0  0  0  0  0  0
  149.9324  139.2238  154.3897 C   0  0  0  0  0  0  0  0  0  0  0  0
  149.0872  138.8590  153.2526 N   0  0  0  0  0  0  0  0  0  0  0  0
  147.6879  139.1964  153.5036 C   0  0  0  0  0  0  0  0  0  0  0  0
  147.5574  140.6827  153.8767 C   0  0  0  0  0  0  0  0  0  0  0  0
  148.3700  140.9590  155.0117 O   0  0  0  0  0  0  0  0  0  0  0  0
  150.6266  142.3018  156.5175 N   0  0  0  0  0  0  0  0  0  0  0  0
  152.9238  143.5123  160.4027 H   0  0  0  0  0  0  0  0  0  0  0  0
  153.6609  142.4357  159.2205 H   0  0  0  0  0  0  0  0  0  0  0  0
  152.2639  141.9007  160.1461 H   0  0  0  0  0  0  0  0  0  0  0  0
  149.9430  142.9767  159.7056 H   0  0  0  0  0  0  0  0  0  0  0  0
  149.7660  144.1691  158.4245 H   0  0  0  0  0  0  0  0  0  0  0  0
  150.6188  144.5848  159.9072 H   0  0  0  0  0  0  0  0  0  0  0  0
  152.6097  145.3354  158.5859 H   0  0  0  0  0  0  0  0  0  0  0  0
  151.7876  144.9326  157.0826 H   0  0  0  0  0  0  0  0  0  0  0  0
  153.3842  144.2755  157.4197 H   0  0  0  0  0  0  0  0  0  0  0  0
  150.0644  141.3346  153.9093 H   0  0  0  0  0  0  0  0  0  0  0  0
  150.9777  139.0204  154.1555 H   0  0  0  0  0  0  0  0  0  0  0  0
  149.6798  138.6054  155.2523 H   0  0  0  0  0  0  0  0  0  0  0  0
  147.0855  138.9762  152.6222 H   0  0  0  0  0  0  0  0  0  0  0  0
  147.2966  138.5804  154.3141 H   0  0  0  0  0  0  0  0  0  0  0  0
  147.8419  141.3240  153.0408 H   0  0  0  0  0  0  0  0  0  0  0  0
  146.5212  140.9177  154.1198 H   0  0  0  0  0  0  0  0  0  0  0  0
  149.1706  137.8634  153.0758 H   0  0  0  0  0  0  0  0  0  0  0  0
  1  2  1  0  0  0  0
  1 16  1  0  0  0  0
  1 17  1  0  0  0  0
  1 18  1  0  0  0  0
  2  3  1  0  0  0  0
  2  4  1  0  0  0  0
  2  5  1  0  0  0  0
  3 19  1  0  0  0  0
  3 20  1  0  0  0  0
  3 21  1  0  0  0  0
  4 22  1  0  0  0  0
  4 23  1  0  0  0  0
  4 24  1  0  0  0  0
  5 15  2  0  0  0  0
  5  6  1  0  0  0  0
  6  7  1  0  0  0  0
  7  8  2  0  0  0  0
  8  9  1  0  0  0  0
  8 15  1  0  0  0  0
  9 14  1  0  0  0  0
  9 10  1  0  0  0  0
  9 25  1  0  0  0  0
 10 11  1  0  0  0  0
 10 26  1  0  0  0  0
 10 27  1  0  0  0  0
 11 12  1  0  0  0  0
 11 32  1  0  0  0  0
 12 13  1  0  0  0  0
 12 28  1  0  0  0  0
 12 29  1  0  0  0  0
 13 14  1  0  0  0  0
 13 30  1  0  0  0  0
 13 31  1  0  0  0  0
M  CHG  1   6  -1
M  END
> <s_m_source_file>
AV-unprocessed.smi

> <i_m_source_file_index>
2567

> <i_lp_mmshare_version>
43012

> <i_f3d_flags>
0

> <s_epik_input>
W0NIM11DKFtDSDNdKShbQ0gzXSljMW5bbkhdYyhuMSlbQ0BASF0yW0NIMl1bTkhdW0NIMl1bQ0gyXU8y

> <s_epik_cmdline>
J2VwaWtfcHl0aG9uJywgJy1waCcsICc3LjAnLCAnLXRuJywgJzgnLCAnLW1hJywgJzIwMCcsICctbWV0YWxfYmluZGluZycsICctaW1hZScsICc8aW5maWxlLm1hZT4nLCAnLW9tYWUnLCAnPG91dGZpbGUubWFlPic=

> <r_lp_tautomer_probability>
0.948284

> <r_epik_Ionization_Penalty>
17.5852

> <r_epik_Ionization_Penalty_Charging>
16.0119

> <r_epik_Ionization_Penalty_Neutral>
1.5733

> <r_epik_State_Penalty>
6.64574

> <r_epik_Charging_Adjusted_Penalty>
22.6576

> <i_epik_Tot_Q>
-1

> <i_epik_Tot_abs_Q>
1

> <r_epik_Metal_State_Penalty>
2.89273

> <b_epik_Metal_Only>
1

> <s_lp_Force_Field>
OPLS_2005

> <r_lp_Energy>
12.7072

> <b_lp_Chiralities_Consistent>
1

> <s_lp_Variant>
AV-unprocessed.smi:2567-12

> <Gold.Version>
5.8.1

> <Gold.Id.Protein>
6NUR|6NUR_protein|mol2

> <Gold.PLP.Fitness>
33.7632

> <Gold.PLP.PLP>
-30.8051

> <Gold.PLP.part.hbond>
-1.7910

> <Gold.PLP.part.metal>
0.0000

> <Gold.PLP.part.buried>
-3.8134

> <Gold.PLP.part.nonpolar>
-25.4579

> <Gold.PLP.part.repulsive>
0.4128

> <Gold.PLP.ligand.clash>
0.0000

> <Gold.PLP.ligand.torsion>
0.1133

> <Gold.PLP.Chemscore.Hbond>
1.0000

> <Gold.PLP.Chemscore.CHOScore>
0.0000

> <Gold.PLP.Chemscore.Metal>
0.0000

> <Gold.Chemscore.Hbonds>
donor molecule, donor type, donor heavy atom, donor atom, acceptor molecule, acceptor atom, score
      L1  H    11    32       P1  7948  1.00

> <Gold.PLP.Chemscore.Internal.Correction>
0.1847

> <Gold.Rescore>
     Score         DG    S(hbond)    S(metal)    S(lipo)     H(rot)  DE(clash)    DE(int)     intcor
     13.94     -14.21       0.96        0.00      74.00       1.23       0.17       0.09       ----

> <Gold.Chemscore.Fitness>
13.9416

> <Gold.Chemscore.DG>
-14.2066

> <Gold.Chemscore.ZeroCoef>
-5.4800

> <Gold.Chemscore.Hbond>
0.9618

> <Gold.Chemscore.Metal>
0.0000

> <Gold.Chemscore.Lipo>
74.0050

> <Gold.Chemscore.Internal_Hbond>
0.0000

> <Gold.Chemscore.DEClash>
0.1711

> <Gold.Chemscore.DEInternal>
0.0940

> <Gold.Chemscore.Rot>
1.2283

> <Gold.Chemscore.Internal.Correction>
   9.000000E+99

> <Gold.Chemscore.Hbonds>
donor molecule, donor type, donor heavy atom, donor atom, acceptor molecule, acceptor atom, score
      L1  H    11    32       P1  7948  0.89

> <Gold.Chemscore.Hbond.Weighted>
-3.2125

> <Gold.Chemscore.Metal.Weighted>
-0.0000

> <Gold.Chemscore.Lipo.Weighted>
-8.6586

> <Gold.Chemscore.Internal_Hbond.Weighted>
0.0000

> <Gold.Chemscore.DEClash.Weighted>
0.1711

> <Gold.Chemscore.DEInternal.Weighted>
0.0940

> <Gold.Chemscore.Rot.Weighted>
3.1444

> <Gold.Chemscore.Internal.Correction.Weighted>
   9.000000E+99

> <Gold.Protein.RotatedTorsions>
[ 6907 6896 6895 6894 ] final -119.50 input  -60.11 | X-H torsion
[ 7974 7965 7964 7962 ] final -107.73 input  175.53 | X-H torsion
[ 8008 7997 7996 7995 ] final  -59.75 input   59.86 | X-H torsion
[ 10167 10162 10161 10158 ] final   70.86 input  -65.29 | X-H torsion
[ 10718 10713 10712 10709 ] final -118.46 input   66.30 | X-H torsion
[ 10763 10752 10751 10750 ] final  -96.95 input  -60.55 | X-H torsion
[ 11005 11000 10999 10996 ] final -163.31 input  -57.11 | X-H torsion

> <Gold.Protein.ActiveResidues>
 VAL166  LYS551  ARG553  GLY616  TRP617  ASP618  TYR619  PRO620  LYS621  CYS622 
 ASP623  PHE694  ASN695  SER759  ASP760  ASP761  ALA762  ILE779  LEU786  VAL792 
 PHE793  MET794  SER795  GLU796  ALA797  LYS798  CYS799  TRP800  GLU811  SER814 

> <Gold.Protein.RotatedAtoms>
  150.8311  133.8090  159.3098 H   0  0  0  0  0  0  0  0  0  0  0  0  # atno 6907 bound_to 6896
  151.5820  135.1056  160.0029 H   0  0  0  0  0  0  0  0  0  0  0  0  # atno 6908 bound_to 6896
  152.4390  133.7371  159.6676 H   0  0  0  0  0  0  0  0  0  0  0  0  # atno 6909 bound_to 6896
  145.2017  140.9059  143.3366 H   0  0  0  0  0  0  0  0  0  0  0  0  # atno 7974 bound_to 7965
  154.4367  140.1055  156.6165 H   0  0  0  0  0  0  0  0  0  0  0  0  # atno 8008 bound_to 7997
  155.5753  140.3490  155.4507 H   0  0  0  0  0  0  0  0  0  0  0  0  # atno 8009 bound_to 7997
  156.0359  140.1271  157.0198 H   0  0  0  0  0  0  0  0  0  0  0  0  # atno 8010 bound_to 7997
  140.0524  144.5301  150.7354 H   0  0  0  0  0  0  0  0  0  0  0  0  # atno 10167 bound_to 10162
  156.1108  130.6247  150.9294 H   0  0  0  0  0  0  0  0  0  0  0  0  # atno 10718 bound_to 10713
  154.7285  135.5065  153.8924 H   0  0  0  0  0  0  0  0  0  0  0  0  # atno 10763 bound_to 10752
  153.0927  135.6663  153.9831 H   0  0  0  0  0  0  0  0  0  0  0  0  # atno 10764 bound_to 10752
  153.9638  135.3045  155.3411 H   0  0  0  0  0  0  0  0  0  0  0  0  # atno 10765 bound_to 10752
  140.5995  134.4962  157.5203 H   0  0  0  0  0  0  0  0  0  0  0  0  # atno 11005 bound_to 11000
  144.9942  139.3660  143.6200 LP  0  0  0  0  0  0  0  0  0  0  0  0  # atno 17320 bound_to 7965
  146.3416  139.9137  142.8776 LP  0  0  0  0  0  0  0  0  0  0  0  0  # atno 17321 bound_to 7965
  140.7210  143.2589  151.4277 LP  0  0  0  0  0  0  0  0  0  0  0  0  # atno 17342 bound_to 10162
  139.5945  144.1428  152.2127 LP  0  0  0  0  0  0  0  0  0  0  0  0  # atno 17343 bound_to 10162
  157.6289  131.0923  150.8479 LP  0  0  0  0  0  0  0  0  0  0  0  0  # atno 17370 bound_to 10713
  156.8591  130.5107  149.5305 LP  0  0  0  0  0  0  0  0  0  0  0  0  # atno 17371 bound_to 10713
  139.9239  134.8095  156.1128 LP  0  0  0  0  0  0  0  0  0  0  0  0  # atno 17394 bound_to 11000
  141.0882  133.6725  156.2482 LP  0  0  0  0  0  0  0  0  0  0  0  0  # atno 17395 bound_to 11000

$$$$
