AV-unprocessed.smi:3125|AV-procd|sdf|11909|dock3
  -GOLD-   2272017293D 1   1.00000     0.00000
 Structure written by MMmdl.
 28 29  0  0  0  0  0  0  0  0  2 V2000
  153.0258  142.6417  162.4957 C   0  0  0  0  0  0  0  0  0  0  0  0
  152.7286  141.7018  161.4317 N   0  0  0  0  0  0  0  0  0  0  0  0
  153.1017  140.3642  161.4089 C   0  0  0  0  0  0  0  0  0  0  0  0
  152.6292  139.8416  160.2302 C   0  0  0  0  0  0  0  0  0  0  0  0
  151.9679  140.8364  159.5196 N   0  0  0  0  0  0  0  0  0  0  0  0
  152.0534  141.9218  160.2848 C   0  0  0  0  0  0  0  0  0  0  0  0
  151.4734  143.2541  159.8979 C   0  0  1  0  0  0  0  0  0  0  0  0
  152.5193  144.3824  159.9846 C   0  0  0  0  0  0  0  0  0  0  0  0
  151.9036  145.7240  159.5583 C   0  0  0  0  0  0  0  0  0  0  0  0
  151.2645  145.6159  158.1640 C   0  0  0  0  0  0  0  0  0  0  0  0
  150.2610  144.5297  158.1331 N   0  3  0  0  0  0  0  0  0  0  0  0
  150.8259  143.2117  158.4980 C   0  0  0  0  0  0  0  0  0  0  0  0
  153.6166  142.1563  163.2733 H   0  0  0  0  0  0  0  0  0  0  0  0
  152.0976  143.0065  162.9361 H   0  0  0  0  0  0  0  0  0  0  0  0
  153.5939  143.4831  162.0981 H   0  0  0  0  0  0  0  0  0  0  0  0
  153.6603  139.9059  162.2120 H   0  0  0  0  0  0  0  0  0  0  0  0
  152.7136  138.8371  159.8425 H   0  0  0  0  0  0  0  0  0  0  0  0
  150.6797  143.5009  160.6028 H   0  0  0  0  0  0  0  0  0  0  0  0
  152.9093  144.4579  161.0002 H   0  0  0  0  0  0  0  0  0  0  0  0
  153.3697  144.1540  159.3403 H   0  0  0  0  0  0  0  0  0  0  0  0
  151.1500  146.0300  160.2852 H   0  0  0  0  0  0  0  0  0  0  0  0
  152.6676  146.5020  159.5592 H   0  0  0  0  0  0  0  0  0  0  0  0
  150.7819  146.5556  157.8948 H   0  0  0  0  0  0  0  0  0  0  0  0
  152.0283  145.4216  157.4095 H   0  0  0  0  0  0  0  0  0  0  0  0
  149.5231  144.7552  158.7849 H   0  0  0  0  0  0  0  0  0  0  0  0
  151.5581  142.9216  157.7428 H   0  0  0  0  0  0  0  0  0  0  0  0
  150.0293  142.4677  158.4712 H   0  0  0  0  0  0  0  0  0  0  0  0
  149.8684  144.4721  157.2041 H   0  0  0  0  0  0  0  0  0  0  0  0
  1  2  1  0  0  0  0
  1 13  1  0  0  0  0
  1 14  1  0  0  0  0
  1 15  1  0  0  0  0
  2  6  1  0  0  0  0
  2  3  1  0  0  0  0
  3  4  2  0  0  0  0
  3 16  1  0  0  0  0
  4  5  1  0  0  0  0
  4 17  1  0  0  0  0
  5  6  2  0  0  0  0
  6  7  1  0  0  0  0
  7 12  1  0  0  0  0
  7  8  1  0  0  0  0
  7 18  1  0  0  0  0
  8  9  1  0  0  0  0
  8 19  1  0  0  0  0
  8 20  1  0  0  0  0
  9 10  1  0  0  0  0
  9 21  1  0  0  0  0
  9 22  1  0  0  0  0
 10 11  1  0  0  0  0
 10 23  1  0  0  0  0
 10 24  1  0  0  0  0
 11 12  1  0  0  0  0
 11 25  1  0  0  0  0
 11 28  1  0  0  0  0
 12 26  1  0  0  0  0
 12 27  1  0  0  0  0
M  CHG  1  11   1
M  END
> <s_m_source_file>
AV-unprocessed.smi

> <i_m_source_file_index>
3125

> <i_lp_mmshare_version>
43012

> <i_f3d_flags>
0

> <s_epik_input>
W0NIM11uMVtjSF1bY0hdbmMxW0NAQEhdMltDSDJdW0NIMl1bQ0gyXVtOSF1bQ0gyXTI=

> <s_epik_cmdline>
J2VwaWtfcHl0aG9uJywgJy1waCcsICc3LjAnLCAnLXRuJywgJzgnLCAnLW1hJywgJzIwMCcsICctbWV0YWxfYmluZGluZycsICctaW1hZScsICc8aW5maWxlLm1hZT4nLCAnLW9tYWUnLCAnPG91dGZpbGUubWFlPic=

> <r_lp_tautomer_probability>
1

> <r_epik_Ionization_Penalty>
0.177191

> <r_epik_Ionization_Penalty_Charging>
0.177191

> <r_epik_Ionization_Penalty_Neutral>
7.05152e-14

> <r_epik_State_Penalty>
0.46716

> <r_epik_Charging_Adjusted_Penalty>
0.644351

> <i_epik_Tot_Q>
1

> <i_epik_Tot_abs_Q>
1

> <r_epik_Metal_State_Penalty>
0.000708398

> <b_epik_Metal_Only>
0

> <s_lp_Force_Field>
OPLS_2005

> <r_lp_Energy>
12.4076

> <b_lp_Chiralities_Consistent>
1

> <s_lp_Variant>
AV-unprocessed.smi:3125-4

> <Gold.Version>
5.8.1

> <Gold.Id.Protein>
6NUR|6NUR_protein|mol2

> <Gold.PLP.Fitness>
37.9657

> <Gold.PLP.PLP>
-32.0658

> <Gold.PLP.part.hbond>
-1.2618

> <Gold.PLP.part.metal>
0.0000

> <Gold.PLP.part.buried>
-3.3475

> <Gold.PLP.part.nonpolar>
-26.8072

> <Gold.PLP.part.repulsive>
0.0444

> <Gold.PLP.ligand.clash>
0.0000

> <Gold.PLP.ligand.torsion>
0.0631

> <Gold.PLP.Chemscore.Hbond>
2.0000

> <Gold.PLP.Chemscore.CHOScore>
0.0000

> <Gold.PLP.Chemscore.Metal>
0.0000

> <Gold.Chemscore.Hbonds>
donor molecule, donor type, donor heavy atom, donor atom, acceptor molecule, acceptor atom, score
      L1  H    11    28       P1  8028  2.00

> <Gold.PLP.Chemscore.Internal.Correction>
0.0262

> <Gold.Rescore>
     Score         DG    S(hbond)    S(metal)    S(lipo)     H(rot)  DE(clash)    DE(int)     intcor
     15.25     -15.36       0.88        0.00      81.32       1.00       0.07       0.04       ----

> <Gold.Chemscore.Fitness>
15.2535

> <Gold.Chemscore.DG>
-15.3597

> <Gold.Chemscore.ZeroCoef>
-5.4800

> <Gold.Chemscore.Hbond>
0.8758

> <Gold.Chemscore.Metal>
0.0000

> <Gold.Chemscore.Lipo>
81.3210

> <Gold.Chemscore.Internal_Hbond>
0.0000

> <Gold.Chemscore.DEClash>
0.0650

> <Gold.Chemscore.DEInternal>
0.0411

> <Gold.Chemscore.Rot>
1.0000

> <Gold.Chemscore.Internal.Correction>
   9.000000E+99

> <Gold.Chemscore.Hbonds>
donor molecule, donor type, donor heavy atom, donor atom, acceptor molecule, acceptor atom, score
      L1  H    11    28       P1  8028  0.35

> <Gold.Chemscore.Hbond.Weighted>
-2.9251

> <Gold.Chemscore.Metal.Weighted>
-0.0000

> <Gold.Chemscore.Lipo.Weighted>
-9.5146

> <Gold.Chemscore.Internal_Hbond.Weighted>
0.0000

> <Gold.Chemscore.DEClash.Weighted>
0.0650

> <Gold.Chemscore.DEInternal.Weighted>
0.0411

> <Gold.Chemscore.Rot.Weighted>
2.5600

> <Gold.Chemscore.Internal.Correction.Weighted>
   9.000000E+99

> <Gold.Protein.RotatedTorsions>
[ 6907 6896 6895 6894 ] final   -9.73 input  -60.11 | X-H torsion
[ 7974 7965 7964 7962 ] final  -52.40 input  175.53 | X-H torsion
[ 8008 7997 7996 7995 ] final    6.26 input   59.86 | X-H torsion
[ 10167 10162 10161 10158 ] final  -92.14 input  -65.29 | X-H torsion
[ 10718 10713 10712 10709 ] final   91.93 input   66.30 | X-H torsion
[ 10763 10752 10751 10750 ] final -173.83 input  -60.55 | X-H torsion
[ 11005 11000 10999 10996 ] final -177.77 input  -57.11 | X-H torsion

> <Gold.Protein.ActiveResidues>
 VAL166  LYS551  ARG553  GLY616  TRP617  ASP618  TYR619  PRO620  LYS621  CYS622 
 ASP623  PHE694  ASN695  SER759  ASP760  ASP761  ALA762  ILE779  LEU786  VAL792 
 PHE793  MET794  SER795  GLU796  ALA797  LYS798  CYS799  TRP800  GLU811  SER814 

> <Gold.Protein.RotatedAtoms>
  151.4132  135.0988  159.9591 H   0  0  0  0  0  0  0  0  0  0  0  0  # atno 6907 bound_to 6896
  152.5013  133.8778  159.7341 H   0  0  0  0  0  0  0  0  0  0  0  0  # atno 6908 bound_to 6896
  150.9277  133.6747  159.2846 H   0  0  0  0  0  0  0  0  0  0  0  0  # atno 6909 bound_to 6896
  145.9083  140.7936  142.9708 H   0  0  0  0  0  0  0  0  0  0  0  0  # atno 7974 bound_to 7965
  154.7388  140.2745  155.6391 H   0  0  0  0  0  0  0  0  0  0  0  0  # atno 8008 bound_to 7997
  156.2868  140.2701  156.2035 H   0  0  0  0  0  0  0  0  0  0  0  0  # atno 8009 bound_to 7997
  155.0285  140.0371  157.2455 H   0  0  0  0  0  0  0  0  0  0  0  0  # atno 8010 bound_to 7997
  140.3378  143.2959  151.9870 H   0  0  0  0  0  0  0  0  0  0  0  0  # atno 10167 bound_to 10162
  157.6959  131.0425  150.3805 H   0  0  0  0  0  0  0  0  0  0  0  0  # atno 10718 bound_to 10713
  154.6033  135.2857  155.0512 H   0  0  0  0  0  0  0  0  0  0  0  0  # atno 10763 bound_to 10752
  154.1768  135.6463  153.5027 H   0  0  0  0  0  0  0  0  0  0  0  0  # atno 10764 bound_to 10752
  153.0165  135.5414  154.6760 H   0  0  0  0  0  0  0  0  0  0  0  0  # atno 10765 bound_to 10752
  140.4372  134.6464  157.4740 H   0  0  0  0  0  0  0  0  0  0  0  0  # atno 11005 bound_to 11000
  144.6741  140.1786  143.7408 LP  0  0  0  0  0  0  0  0  0  0  0  0  # atno 17320 bound_to 7965
  145.8703  139.2269  143.1665 LP  0  0  0  0  0  0  0  0  0  0  0  0  # atno 17321 bound_to 7965
  139.4845  144.6182  151.7305 LP  0  0  0  0  0  0  0  0  0  0  0  0  # atno 17342 bound_to 10162
  140.5338  144.0689  150.6063 LP  0  0  0  0  0  0  0  0  0  0  0  0  # atno 17343 bound_to 10162
  156.4219  130.3954  149.6819 LP  0  0  0  0  0  0  0  0  0  0  0  0  # atno 17370 bound_to 10713
  156.4067  130.7701  151.2712 LP  0  0  0  0  0  0  0  0  0  0  0  0  # atno 17371 bound_to 10713
  140.0094  134.6714  155.9404 LP  0  0  0  0  0  0  0  0  0  0  0  0  # atno 17394 bound_to 11000
  141.1721  133.6538  156.4689 LP  0  0  0  0  0  0  0  0  0  0  0  0  # atno 17395 bound_to 11000

$$$$
