AV-unprocessed.smi:1641|AV-procd|sdf|6566|dock1
  -GOLD-   22720 7253D 1   1.00000     0.00000
 Structure written by MMmdl.
 41 42  0  0  0  0  0  0  0  0  3 V2000
  146.8070  134.0398  162.6237 C   0  0  0  0  0  0  0  0  0  0  0  0
  147.4644  134.9970  161.6898 C   0  0  0  0  0  0  0  0  0  0  0  0
  147.6064  136.2947  161.9698 N   0  0  0  0  0  0  0  0  0  0  0  0
  148.2471  136.9827  160.9496 N   0  0  0  0  0  0  0  0  0  0  0  0
  148.5877  136.1968  159.9183 C   0  0  0  0  0  0  0  0  0  0  0  0
  149.2138  136.6715  158.8288 N   0  5  0  0  0  0  0  0  0  0  0  0
  149.8921  137.8390  158.8939 C   0  0  0  0  0  0  0  0  0  0  0  0
  150.9524  138.0390  159.4906 O   0  0  0  0  0  0  0  0  0  0  0  0
  149.3066  138.8395  158.2238 N   0  0  0  0  0  0  0  0  0  0  0  0
  149.8245  140.1966  158.1261 C   0  0  0  0  0  0  0  0  0  0  0  0
  151.2326  140.1880  157.5114 C   0  0  0  0  0  0  0  0  0  0  0  0
  152.1404  141.1635  158.1645 N   0  3  1  0  0  0  0  0  0  0  0  0
  151.6018  142.5438  158.1319 C   0  0  0  0  0  0  0  0  0  0  0  0
  152.6030  143.5308  158.7607 C   0  0  1  0  0  0  0  0  0  0  0  0
  152.0503  144.9591  158.8148 C   0  0  0  0  0  0  0  0  0  0  0  0
  152.8902  143.1152  160.0912 O   0  0  0  0  0  0  0  0  0  0  0  0
  153.4916  141.8261  160.1428 C   0  0  1  0  0  0  0  0  0  0  0  0
  153.8432  141.5211  161.6030 C   0  0  0  0  0  0  0  0  0  0  0  0
  152.5175  140.7903  159.5502 C   0  0  0  0  0  0  0  0  0  0  0  0
  148.1110  134.5121  160.1311 S   0  0  0  0  0  0  0  0  0  0  0  0
  147.3100  134.0551  163.5907 H   0  0  0  0  0  0  0  0  0  0  0  0
  146.8511  133.0270  162.2230 H   0  0  0  0  0  0  0  0  0  0  0  0
  145.7618  134.3148  162.7655 H   0  0  0  0  0  0  0  0  0  0  0  0
  148.4380  138.6383  157.7506 H   0  0  0  0  0  0  0  0  0  0  0  0
  149.1352  140.7856  157.5208 H   0  0  0  0  0  0  0  0  0  0  0  0
  149.8517  140.6464  159.1199 H   0  0  0  0  0  0  0  0  0  0  0  0
  151.6461  139.1849  157.6282 H   0  0  0  0  0  0  0  0  0  0  0  0
  151.1893  140.3819  156.4382 H   0  0  0  0  0  0  0  0  0  0  0  0
  151.3991  142.8357  157.1006 H   0  0  0  0  0  0  0  0  0  0  0  0
  150.6514  142.5756  158.6675 H   0  0  0  0  0  0  0  0  0  0  0  0
  153.5270  143.5391  158.1795 H   0  0  0  0  0  0  0  0  0  0  0  0
  151.8290  145.3331  157.8149 H   0  0  0  0  0  0  0  0  0  0  0  0
  152.7707  145.6386  159.2708 H   0  0  0  0  0  0  0  0  0  0  0  0
  151.1320  145.0060  159.4008 H   0  0  0  0  0  0  0  0  0  0  0  0
  154.4148  141.8378  159.5604 H   0  0  0  0  0  0  0  0  0  0  0  0
  154.3173  140.5438  161.6973 H   0  0  0  0  0  0  0  0  0  0  0  0
  152.9533  141.5239  162.2332 H   0  0  0  0  0  0  0  0  0  0  0  0
  154.5344  142.2647  162.0006 H   0  0  0  0  0  0  0  0  0  0  0  0
  151.6192  140.7226  160.1663 H   0  0  0  0  0  0  0  0  0  0  0  0
  152.9879  139.8077  159.5635 H   0  0  0  0  0  0  0  0  0  0  0  0
  152.9896  141.1768  157.6180 H   0  0  0  0  0  0  0  0  0  0  0  0
  1  2  1  0  0  0  0
  1 21  1  0  0  0  0
  1 22  1  0  0  0  0
  1 23  1  0  0  0  0
  2 20  1  0  0  0  0
  2  3  2  0  0  0  0
  3  4  1  0  0  0  0
  4  5  2  0  0  0  0
  5  6  1  0  0  0  0
  5 20  1  0  0  0  0
  6  7  1  0  0  0  0
  7  8  2  0  0  0  0
  7  9  1  0  0  0  0
  9 10  1  0  0  0  0
  9 24  1  0  0  0  0
 10 11  1  0  0  0  0
 10 25  1  0  0  0  0
 10 26  1  0  0  0  0
 11 12  1  0  0  0  0
 11 27  1  0  0  0  0
 11 28  1  0  0  0  0
 12 19  1  0  0  0  0
 12 13  1  0  0  0  0
 12 41  1  0  0  0  0
 13 14  1  0  0  0  0
 13 29  1  0  0  0  0
 13 30  1  0  0  0  0
 14 15  1  0  0  0  0
 14 16  1  0  0  0  0
 14 31  1  0  0  0  0
 15 32  1  0  0  0  0
 15 33  1  0  0  0  0
 15 34  1  0  0  0  0
 16 17  1  0  0  0  0
 17 18  1  0  0  0  0
 17 19  1  0  0  0  0
 17 35  1  0  0  0  0
 18 36  1  0  0  0  0
 18 37  1  0  0  0  0
 18 38  1  0  0  0  0
 19 39  1  0  0  0  0
 19 40  1  0  0  0  0
M  CHG  1   6  -1
M  CHG  1  12   1
M  END
> <s_m_source_file>
AV-unprocessed.smi

> <i_m_source_file_index>
1641

> <i_lp_mmshare_version>
43012

> <i_f3d_flags>
0

> <s_epik_input>
W0NIM11jMW5uYyhzMSlbTkhdQyg9TylbTkhdW0NIMl1bQ0gyXU4yW0NIMl1bQ0BASF0oW0NIM10pT1tDQEBIXShbQ0gzXSlbQ0gyXTI=

> <s_epik_cmdline>
J2VwaWtfcHl0aG9uJywgJy1waCcsICc3LjAnLCAnLXRuJywgJzgnLCAnLW1hJywgJzIwMCcsICctbWV0YWxfYmluZGluZycsICctaW1hZScsICc8aW5maWxlLm1hZT4nLCAnLW9tYWUnLCAnPG91dGZpbGUubWFlPic=

> <r_lp_tautomer_probability>
1

> <r_epik_Ionization_Penalty>
3.5343

> <r_epik_Ionization_Penalty_Charging>
3.42778

> <r_epik_Ionization_Penalty_Neutral>
0.106519

> <r_epik_State_Penalty>
3.62118

> <r_epik_Charging_Adjusted_Penalty>
7.04896

> <i_epik_Tot_Q>
0

> <i_epik_Tot_abs_Q>
2

> <r_epik_Metal_State_Penalty>
1.13984

> <b_epik_Metal_Only>
1

> <s_lp_Force_Field>
OPLS_2005

> <r_lp_Energy>
7.34164

> <b_lp_Chiralities_Consistent>
1

> <s_lp_Variant>
AV-unprocessed.smi:1641-11

> <Gold.Version>
5.8.1

> <Gold.Id.Protein>
6NUR|6NUR_protein|mol2

> <Gold.PLP.Fitness>
42.2230

> <Gold.PLP.PLP>
-39.8690

> <Gold.PLP.part.hbond>
-2.9662

> <Gold.PLP.part.metal>
0.0000

> <Gold.PLP.part.buried>
-6.2309

> <Gold.PLP.part.nonpolar>
-31.6245

> <Gold.PLP.part.repulsive>
0.2488

> <Gold.PLP.ligand.clash>
0.0000

> <Gold.PLP.ligand.torsion>
1.0648

> <Gold.PLP.Chemscore.Hbond>
1.4350

> <Gold.PLP.Chemscore.CHOScore>
0.0000

> <Gold.PLP.Chemscore.Metal>
0.0000

> <Gold.Chemscore.Hbonds>
donor molecule, donor type, donor heavy atom, donor atom, acceptor molecule, acceptor atom, score
      P1  H  6931  6943       L1     4  1.00
      P1  H  6934  6947       L1     4  0.23

> <Gold.PLP.Chemscore.Internal.Correction>
0.1786

> <Gold.Rescore>
     Score         DG    S(hbond)    S(metal)    S(lipo)     H(rot)  DE(clash)    DE(int)     intcor
     13.42     -15.70       1.09        0.00      91.52       1.61       0.00       2.28       ----

> <Gold.Chemscore.Fitness>
13.4158

> <Gold.Chemscore.DG>
-15.7043

> <Gold.Chemscore.ZeroCoef>
-5.4800

> <Gold.Chemscore.Hbond>
1.0871

> <Gold.Chemscore.Metal>
0.0000

> <Gold.Chemscore.Lipo>
91.5159

> <Gold.Chemscore.Internal_Hbond>
0.0000

> <Gold.Chemscore.DEClash>
0.0038

> <Gold.Chemscore.DEInternal>
2.2847

> <Gold.Chemscore.Rot>
1.6070

> <Gold.Chemscore.Internal.Correction>
   9.000000E+99

> <Gold.Chemscore.Hbonds>
donor molecule, donor type, donor heavy atom, donor atom, acceptor molecule, acceptor atom, score
      P1  H  6931  6943       L1     4  0.25
      P1  H  6934  6947       L1     4  0.11

> <Gold.Chemscore.Hbond.Weighted>
-3.6309

> <Gold.Chemscore.Metal.Weighted>
-0.0000

> <Gold.Chemscore.Lipo.Weighted>
-10.7074

> <Gold.Chemscore.Internal_Hbond.Weighted>
0.0000

> <Gold.Chemscore.DEClash.Weighted>
0.0038

> <Gold.Chemscore.DEInternal.Weighted>
2.2847

> <Gold.Chemscore.Rot.Weighted>
4.1139

> <Gold.Chemscore.Internal.Correction.Weighted>
   9.000000E+99

> <Gold.Protein.RotatedTorsions>
[ 6907 6896 6895 6894 ] final  -59.37 input  -60.11 | X-H torsion
[ 7974 7965 7964 7962 ] final  -80.99 input  175.53 | X-H torsion
[ 8008 7997 7996 7995 ] final  -45.21 input   59.86 | X-H torsion
[ 10167 10162 10161 10158 ] final   80.88 input  -65.29 | X-H torsion
[ 10718 10713 10712 10709 ] final  161.68 input   66.30 | X-H torsion
[ 10763 10752 10751 10750 ] final  -87.45 input  -60.55 | X-H torsion
[ 11005 11000 10999 10996 ] final   69.78 input  -57.11 | X-H torsion

> <Gold.Protein.ActiveResidues>
 VAL166  LYS551  ARG553  GLY616  TRP617  ASP618  TYR619  PRO620  LYS621  CYS622 
 ASP623  PHE694  ASN695  SER759  ASP760  ASP761  ALA762  ILE779  LEU786  VAL792 
 PHE793  MET794  SER795  GLU796  ALA797  LYS798  CYS799  TRP800  GLU811  SER814 

> <Gold.Protein.RotatedAtoms>
  150.7935  134.6977  159.6532 H   0  0  0  0  0  0  0  0  0  0  0  0  # atno 6907 bound_to 6896
  152.4044  134.6228  160.0065 H   0  0  0  0  0  0  0  0  0  0  0  0  # atno 6908 bound_to 6896
  151.6490  133.3285  159.3183 H   0  0  0  0  0  0  0  0  0  0  0  0  # atno 6909 bound_to 6896
  145.5526  140.9494  143.1491 H   0  0  0  0  0  0  0  0  0  0  0  0  # atno 7974 bound_to 7965
  154.4000  140.1402  156.3810 H   0  0  0  0  0  0  0  0  0  0  0  0  # atno 8008 bound_to 7997
  155.8004  140.3476  155.5379 H   0  0  0  0  0  0  0  0  0  0  0  0  # atno 8009 bound_to 7997
  155.8489  140.0938  157.1677 H   0  0  0  0  0  0  0  0  0  0  0  0  # atno 8010 bound_to 7997
  139.9452  144.6063  150.8214 H   0  0  0  0  0  0  0  0  0  0  0  0  # atno 10167 bound_to 10162
  157.1332  131.0522  151.2362 H   0  0  0  0  0  0  0  0  0  0  0  0  # atno 10718 bound_to 10713
  154.6338  135.5412  153.7710 H   0  0  0  0  0  0  0  0  0  0  0  0  # atno 10763 bound_to 10752
  153.0298  135.6442  154.1262 H   0  0  0  0  0  0  0  0  0  0  0  0  # atno 10764 bound_to 10752
  154.1190  135.2921  155.3193 H   0  0  0  0  0  0  0  0  0  0  0  0  # atno 10765 bound_to 10752
  139.9634  134.7022  156.0596 H   0  0  0  0  0  0  0  0  0  0  0  0  # atno 11005 bound_to 11000
  144.7522  139.7165  143.7268 LP  0  0  0  0  0  0  0  0  0  0  0  0  # atno 17320 bound_to 7965
  146.1906  139.5145  142.9807 LP  0  0  0  0  0  0  0  0  0  0  0  0  # atno 17321 bound_to 7965
  140.7599  143.3140  151.2777 LP  0  0  0  0  0  0  0  0  0  0  0  0  # atno 17342 bound_to 10162
  139.6673  144.0083  152.2731 LP  0  0  0  0  0  0  0  0  0  0  0  0  # atno 17343 bound_to 10162
  157.4374  130.7524  149.7040 LP  0  0  0  0  0  0  0  0  0  0  0  0  # atno 17370 bound_to 10713
  155.9803  130.4030  150.3533 LP  0  0  0  0  0  0  0  0  0  0  0  0  # atno 17371 bound_to 10713
  141.1313  133.6586  156.3472 LP  0  0  0  0  0  0  0  0  0  0  0  0  # atno 17394 bound_to 11000
  140.5449  134.6084  157.5391 LP  0  0  0  0  0  0  0  0  0  0  0  0  # atno 17395 bound_to 11000

$$$$
