AV-unprocessed.smi:1413|AV-procd|sdf|5755|dock2
  -GOLD-   22720 5393D 1   1.00000     0.00000
 Structure written by MMmdl.
 53 55  0  0  0  0  0  0  0  0  1 V2000
  151.1783  144.9004  158.3606 C   0  0  0  0  0  0  0  0  0  0  0  0
  151.7811  143.5309  158.0312 C   0  0  2  0  0  0  0  0  0  0  0  0
  150.7332  142.5609  157.4519 C   0  0  0  0  0  0  0  0  0  0  0  0
  151.3136  141.2337  157.2684 N   0  0  0  0  0  0  0  0  0  0  0  0
  150.5558  140.3366  156.4852 C   0  0  0  0  0  0  0  0  0  0  0  0
  149.4941  139.6061  157.0686 C   0  0  0  0  0  0  0  0  0  0  0  0
  148.7485  138.7207  156.2674 C   0  0  0  0  0  0  0  0  0  0  0  0
  149.0823  138.5745  154.9072 C   0  0  0  0  0  0  0  0  0  0  0  0
  148.3002  137.6911  154.1151 N   0  0  0  0  0  0  0  0  0  0  0  0
  147.0331  137.2908  154.3177 C   0  0  0  0  0  0  0  0  0  0  0  0
  146.3049  137.6756  155.2321 O   0  0  0  0  0  0  0  0  0  0  0  0
  146.6449  136.4207  153.3737 N   0  0  0  0  0  0  0  0  0  0  0  0
  145.3213  135.8088  153.2621 C   0  0  1  0  0  0  0  0  0  0  0  0
  144.2668  136.9239  153.2069 C   0  0  0  0  0  0  0  0  0  0  0  0
  145.2473  134.8924  152.0230 C   0  0  1  0  0  0  0  0  0  0  0  0
  146.2920  133.7773  151.9732 C   0  0  0  0  0  0  0  0  0  0  0  0
  145.6597  132.7467  151.0534 C   0  0  0  0  0  0  0  0  0  0  0  0
  144.1693  133.1004  151.0697 C   0  0  0  0  0  0  0  0  0  0  0  0
  144.0369  134.1511  152.0182 O   0  0  0  0  0  0  0  0  0  0  0  0
  150.1501  139.3565  154.4073 C   0  0  0  0  0  0  0  0  0  0  0  0
  150.8640  140.2100  155.1712 N   0  0  0  0  0  0  0  0  0  0  0  0
  151.9617  140.7165  158.4712 C   0  0  0  0  0  0  0  0  0  0  0  0
  152.9794  141.7374  159.0125 C   0  0  2  0  0  0  0  0  0  0  0  0
  153.6040  141.2833  160.3359 C   0  0  0  0  0  0  0  0  0  0  0  0
  152.3199  142.9818  159.2310 O   0  0  0  0  0  0  0  0  0  0  0  0
  150.7570  145.3688  157.4708 H   0  0  0  0  0  0  0  0  0  0  0  0
  151.9366  145.5726  158.7630 H   0  0  0  0  0  0  0  0  0  0  0  0
  150.3835  144.8133  159.1021 H   0  0  0  0  0  0  0  0  0  0  0  0
  152.5875  143.6729  157.3093 H   0  0  0  0  0  0  0  0  0  0  0  0
  149.8830  142.4782  158.1302 H   0  0  0  0  0  0  0  0  0  0  0  0
  150.3520  142.9650  156.5149 H   0  0  0  0  0  0  0  0  0  0  0  0
  149.2340  139.7279  158.1095 H   0  0  0  0  0  0  0  0  0  0  0  0
  147.9296  138.1616  156.6962 H   0  0  0  0  0  0  0  0  0  0  0  0
  148.7408  137.3621  153.2686 H   0  0  0  0  0  0  0  0  0  0  0  0
  147.3163  136.1670  152.6641 H   0  0  0  0  0  0  0  0  0  0  0  0
  145.1167  135.2083  154.1502 H   0  0  0  0  0  0  0  0  0  0  0  0
  143.2588  136.5109  153.1601 H   0  0  0  0  0  0  0  0  0  0  0  0
  144.4056  137.5600  152.3320 H   0  0  0  0  0  0  0  0  0  0  0  0
  144.3188  137.5582  154.0923 H   0  0  0  0  0  0  0  0  0  0  0  0
  145.2983  135.4861  151.1078 H   0  0  0  0  0  0  0  0  0  0  0  0
  147.2649  134.1207  151.6202 H   0  0  0  0  0  0  0  0  0  0  0  0
  146.4269  133.3450  152.9657 H   0  0  0  0  0  0  0  0  0  0  0  0
  146.0578  132.8288  150.0415 H   0  0  0  0  0  0  0  0  0  0  0  0
  145.8454  131.7322  151.4068 H   0  0  0  0  0  0  0  0  0  0  0  0
  143.8488  133.4561  150.0896 H   0  0  0  0  0  0  0  0  0  0  0  0
  143.5422  132.2521  151.3449 H   0  0  0  0  0  0  0  0  0  0  0  0
  150.4397  139.3308  153.3685 H   0  0  0  0  0  0  0  0  0  0  0  0
  151.2027  140.5037  159.2256 H   0  0  0  0  0  0  0  0  0  0  0  0
  152.4733  139.7792  158.2486 H   0  0  0  0  0  0  0  0  0  0  0  0
  153.7792  141.8796  158.2835 H   0  0  0  0  0  0  0  0  0  0  0  0
  154.1299  140.3360  160.2161 H   0  0  0  0  0  0  0  0  0  0  0  0
  152.8440  141.1499  161.1063 H   0  0  0  0  0  0  0  0  0  0  0  0
  154.3223  142.0182  160.6999 H   0  0  0  0  0  0  0  0  0  0  0  0
  1  2  1  0  0  0  0
  1 26  1  0  0  0  0
  1 27  1  0  0  0  0
  1 28  1  0  0  0  0
  2 25  1  0  0  0  0
  2  3  1  0  0  0  0
  2 29  1  0  0  0  0
  3  4  1  0  0  0  0
  3 30  1  0  0  0  0
  3 31  1  0  0  0  0
  4  5  1  0  0  0  0
  4 22  1  0  0  0  0
  5 21  1  0  0  0  0
  5  6  2  0  0  0  0
  6  7  1  0  0  0  0
  6 32  1  0  0  0  0
  7  8  2  0  0  0  0
  7 33  1  0  0  0  0
  8  9  1  0  0  0  0
  8 20  1  0  0  0  0
  9 10  1  0  0  0  0
  9 34  1  0  0  0  0
 10 11  2  0  0  0  0
 10 12  1  0  0  0  0
 12 13  1  0  0  0  0
 12 35  1  0  0  0  0
 13 14  1  0  0  0  0
 13 15  1  0  0  0  0
 13 36  1  0  0  0  0
 14 37  1  0  0  0  0
 14 38  1  0  0  0  0
 14 39  1  0  0  0  0
 15 19  1  0  0  0  0
 15 16  1  0  0  0  0
 15 40  1  0  0  0  0
 16 17  1  0  0  0  0
 16 41  1  0  0  0  0
 16 42  1  0  0  0  0
 17 18  1  0  0  0  0
 17 43  1  0  0  0  0
 17 44  1  0  0  0  0
 18 19  1  0  0  0  0
 18 45  1  0  0  0  0
 18 46  1  0  0  0  0
 20 21  2  0  0  0  0
 20 47  1  0  0  0  0
 22 23  1  0  0  0  0
 22 48  1  0  0  0  0
 22 49  1  0  0  0  0
 23 24  1  0  0  0  0
 23 25  1  0  0  0  0
 23 50  1  0  0  0  0
 24 51  1  0  0  0  0
 24 52  1  0  0  0  0
 24 53  1  0  0  0  0
M  END
> <s_m_source_file>
AV-unprocessed.smi

> <i_m_source_file_index>
1413

> <i_lp_mmshare_version>
43012

> <i_f3d_flags>
0

> <s_epik_input>
W0NIM11bQ0BASF0xW0NIMl1OKFtDSDJdW0NASF0oTzEpW0NIM10pYzJbY0hdW2NIXWMoW2NIXW4yKVtOSF1DKD1PKVtOSF1bQ0BIXShbQ0gzXSlbQ0BASF0zW0NIMl1bQ0gyXVtDSDJdTzM=

> <s_epik_cmdline>
J2VwaWtfcHl0aG9uJywgJy1waCcsICc3LjAnLCAnLXRuJywgJzgnLCAnLW1hJywgJzIwMCcsICctbWV0YWxfYmluZGluZycsICctaW1hZScsICc8aW5maWxlLm1hZT4nLCAnLW9tYWUnLCAnPG91dGZpbGUubWFlPic=

> <r_lp_tautomer_probability>
1

> <r_epik_Ionization_Penalty>
0.00271172

> <r_epik_Ionization_Penalty_Charging>
0

> <r_epik_Ionization_Penalty_Neutral>
0.00271172

> <r_epik_State_Penalty>
0.00186503

> <r_epik_Charging_Adjusted_Penalty>
0.00186503

> <i_epik_Tot_Q>
0

> <i_epik_Tot_abs_Q>
0

> <r_epik_Metal_State_Penalty>
-0

> <b_epik_Metal_Only>
0

> <s_lp_Force_Field>
OPLS_2005

> <r_lp_Energy>
33.7939

> <b_lp_Chiralities_Consistent>
1

> <s_lp_Variant>
AV-unprocessed.smi:1413-8

> <Gold.Version>
5.8.1

> <Gold.Id.Protein>
6NUR|6NUR_protein|mol2

> <Gold.PLP.Fitness>
49.1238

> <Gold.PLP.PLP>
-39.9112

> <Gold.PLP.part.hbond>
-3.0000

> <Gold.PLP.part.metal>
0.0000

> <Gold.PLP.part.buried>
-7.2389

> <Gold.PLP.part.nonpolar>
-30.3416

> <Gold.PLP.part.repulsive>
0.2743

> <Gold.PLP.ligand.clash>
0.0000

> <Gold.PLP.ligand.torsion>
0.5275

> <Gold.PLP.Chemscore.Hbond>
2.3000

> <Gold.PLP.Chemscore.CHOScore>
1.0000

> <Gold.PLP.Chemscore.Metal>
0.0000

> <Gold.Chemscore.Hbonds>
donor molecule, donor type, donor heavy atom, donor atom, acceptor molecule, acceptor atom, score
      L1  H     9    34       P1  7948  1.00
      L1  H    12    35       P1  7948  1.00
      P1  H  7989  7998       L1    21  0.35
      L1  C    20    47       P1  7957  1.00

> <Gold.PLP.Chemscore.Internal.Correction>
0.3675

> <Gold.Rescore>
     Score         DG    S(hbond)    S(metal)    S(lipo)     H(rot)  DE(clash)    DE(int)     intcor
     18.89     -20.77       1.96        0.00     104.21       1.35       0.01       1.86       ----

> <Gold.Chemscore.Fitness>
18.8914

> <Gold.Chemscore.DG>
-20.7660

> <Gold.Chemscore.ZeroCoef>
-5.4800

> <Gold.Chemscore.Hbond>
1.9586

> <Gold.Chemscore.Metal>
0.0000

> <Gold.Chemscore.Lipo>
104.2131

> <Gold.Chemscore.Internal_Hbond>
0.0000

> <Gold.Chemscore.DEClash>
0.0110

> <Gold.Chemscore.DEInternal>
1.8635

> <Gold.Chemscore.Rot>
1.3471

> <Gold.Chemscore.Internal.Correction>
   9.000000E+99

> <Gold.Chemscore.Hbonds>
donor molecule, donor type, donor heavy atom, donor atom, acceptor molecule, acceptor atom, score
      L1  H     9    34       P1  7948  0.99
      L1  H    12    35       P1  7948  0.98
      P1  H  7989  7998       L1    21  0.01

> <Gold.Chemscore.Hbond.Weighted>
-6.5416

> <Gold.Chemscore.Metal.Weighted>
-0.0000

> <Gold.Chemscore.Lipo.Weighted>
-12.1929

> <Gold.Chemscore.Internal_Hbond.Weighted>
0.0000

> <Gold.Chemscore.DEClash.Weighted>
0.0110

> <Gold.Chemscore.DEInternal.Weighted>
1.8635

> <Gold.Chemscore.Rot.Weighted>
3.4485

> <Gold.Chemscore.Internal.Correction.Weighted>
   9.000000E+99

> <Gold.Protein.RotatedTorsions>
[ 6907 6896 6895 6894 ] final  128.90 input  -60.11 | X-H torsion
[ 7974 7965 7964 7962 ] final  -78.28 input  175.53 | X-H torsion
[ 8008 7997 7996 7995 ] final   85.81 input   59.86 | X-H torsion
[ 10167 10162 10161 10158 ] final  -32.38 input  -65.29 | X-H torsion
[ 10718 10713 10712 10709 ] final   64.19 input   66.30 | X-H torsion
[ 10763 10752 10751 10750 ] final  -48.45 input  -60.55 | X-H torsion
[ 11005 11000 10999 10996 ] final  111.12 input  -57.11 | X-H torsion

> <Gold.Protein.ActiveResidues>
 VAL166  LYS551  ARG553  GLY616  TRP617  ASP618  TYR619  PRO620  LYS621  CYS622 
 ASP623  PHE694  ASN695  SER759  ASP760  ASP761  ALA762  ILE779  LEU786  VAL792 
 PHE793  MET794  SER795  GLU796  ALA797  LYS798  CYS799  TRP800  GLU811  SER814 

> <Gold.Protein.RotatedAtoms>
  152.3675  133.6375  159.6061 H   0  0  0  0  0  0  0  0  0  0  0  0  # atno 6907 bound_to 6896
  150.7644  133.9324  159.3440 H   0  0  0  0  0  0  0  0  0  0  0  0  # atno 6908 bound_to 6896
  151.7152  135.0906  160.0326 H   0  0  0  0  0  0  0  0  0  0  0  0  # atno 6909 bound_to 6896
  145.5886  140.9434  143.1305 H   0  0  0  0  0  0  0  0  0  0  0  0  # atno 7974 bound_to 7965
  155.9548  140.3398  155.6439 H   0  0  0  0  0  0  0  0  0  0  0  0  # atno 8008 bound_to 7997
  155.6874  140.0745  157.2480 H   0  0  0  0  0  0  0  0  0  0  0  0  # atno 8009 bound_to 7997
  154.4130  140.1663  156.2036 H   0  0  0  0  0  0  0  0  0  0  0  0  # atno 8010 bound_to 7997
  140.7222  143.3699  151.1799 H   0  0  0  0  0  0  0  0  0  0  0  0  # atno 10167 bound_to 10162
  157.6023  130.9146  149.9813 H   0  0  0  0  0  0  0  0  0  0  0  0  # atno 10718 bound_to 10713
  154.0779  135.6595  153.4833 H   0  0  0  0  0  0  0  0  0  0  0  0  # atno 10763 bound_to 10752
  153.0366  135.5173  154.7502 H   0  0  0  0  0  0  0  0  0  0  0  0  # atno 10764 bound_to 10752
  154.6588  135.3012  154.9861 H   0  0  0  0  0  0  0  0  0  0  0  0  # atno 10765 bound_to 10752
  139.8896  134.9500  156.6383 H   0  0  0  0  0  0  0  0  0  0  0  0  # atno 11005 bound_to 11000
  144.7361  139.7581  143.7328 LP  0  0  0  0  0  0  0  0  0  0  0  0  # atno 17320 bound_to 7965
  146.1664  139.4797  142.9956 LP  0  0  0  0  0  0  0  0  0  0  0  0  # atno 17321 bound_to 7965
  139.7268  143.9136  152.3005 LP  0  0  0  0  0  0  0  0  0  0  0  0  # atno 17342 bound_to 10162
  139.8911  144.6965  150.8769 LP  0  0  0  0  0  0  0  0  0  0  0  0  # atno 17343 bound_to 10162
  156.1099  130.3650  150.0067 LP  0  0  0  0  0  0  0  0  0  0  0  0  # atno 17370 bound_to 10713
  156.8168  130.9344  151.3642 LP  0  0  0  0  0  0  0  0  0  0  0  0  # atno 17371 bound_to 10713
  140.7613  133.8815  155.8420 LP  0  0  0  0  0  0  0  0  0  0  0  0  # atno 17394 bound_to 11000
  140.9919  134.1266  157.4399 LP  0  0  0  0  0  0  0  0  0  0  0  0  # atno 17395 bound_to 11000

$$$$
