AV-unprocessed.smi:1483|AV-procd|sdf|5991|dock4
  -GOLD-   22720 6 83D 1   1.00000     0.00000
 Structure written by MMmdl.
 50 51  0  0  0  0  0  0  0  0  3 V2000
  145.5805  129.8690  151.5250 C   0  0  0  0  0  0  0  0  0  0  0  0
  145.3790  131.3516  151.2940 C   0  0  0  0  0  0  0  0  0  0  0  0
  144.0962  131.9299  151.1852 C   0  0  0  0  0  0  0  0  0  0  0  0
  143.9827  133.3192  150.9720 C   0  0  0  0  0  0  0  0  0  0  0  0
  145.1531  134.1034  150.8699 C   0  0  0  0  0  0  0  0  0  0  0  0
  145.0634  135.6012  150.6379 C   0  0  0  0  0  0  0  0  0  0  0  0
  145.6288  136.3592  151.8392 C   0  0  0  0  0  0  0  0  0  0  0  0
  145.8375  135.7654  152.8965 O   0  0  0  0  0  0  0  0  0  0  0  0
  145.8770  137.6667  151.6620 N   0  0  0  0  0  0  0  0  0  0  0  0
  146.4268  138.5634  152.6744 C   0  0  2  0  0  0  0  0  0  0  0  0
  146.5098  140.0041  152.1406 C   0  0  0  0  0  0  0  0  0  0  0  0
  147.1844  140.9372  153.1601 C   0  0  0  0  0  0  0  0  0  0  0  0
  148.5340  140.4417  153.5362 N   0  3  1  0  0  0  0  0  0  0  0  0
  149.2569  141.3967  154.4158 C   0  0  0  0  0  0  0  0  0  0  0  0
  148.9807  141.1684  155.9181 C   0  0  0  0  0  0  0  0  0  0  0  0
  147.5923  141.7038  156.2980 C   0  0  0  0  0  0  0  0  0  0  0  0
  150.0634  141.8073  156.8040 C   0  0  0  0  0  0  0  0  0  0  0  0
  148.4718  139.0623  154.0901 C   0  0  0  0  0  0  0  0  0  0  0  0
  147.8283  138.0889  153.0882 C   0  0  0  0  0  0  0  0  0  0  0  0
  146.4095  133.4697  150.9889 C   0  0  0  0  0  0  0  0  0  0  0  0
  146.4758  132.1357  151.1931 N   0  3  0  0  0  0  0  0  0  0  0  0
  144.6334  129.3312  151.4701 H   0  0  0  0  0  0  0  0  0  0  0  0
  146.0147  129.6947  152.5097 H   0  0  0  0  0  0  0  0  0  0  0  0
  146.2511  129.4524  150.7731 H   0  0  0  0  0  0  0  0  0  0  0  0
  143.2087  131.3190  151.2641 H   0  0  0  0  0  0  0  0  0  0  0  0
  143.0069  133.7749  150.8862 H   0  0  0  0  0  0  0  0  0  0  0  0
  145.6048  135.8753  149.7312 H   0  0  0  0  0  0  0  0  0  0  0  0
  144.0226  135.8877  150.4804 H   0  0  0  0  0  0  0  0  0  0  0  0
  145.6710  138.0697  150.7593 H   0  0  0  0  0  0  0  0  0  0  0  0
  145.7864  138.5468  153.5589 H   0  0  0  0  0  0  0  0  0  0  0  0
  147.0731  140.0227  151.2061 H   0  0  0  0  0  0  0  0  0  0  0  0
  145.5120  140.3778  151.9071 H   0  0  0  0  0  0  0  0  0  0  0  0
  147.2652  141.9353  152.7278 H   0  0  0  0  0  0  0  0  0  0  0  0
  146.5662  141.0276  154.0550 H   0  0  0  0  0  0  0  0  0  0  0  0
  150.3313  141.3021  154.2514 H   0  0  0  0  0  0  0  0  0  0  0  0
  148.9969  142.4161  154.1261 H   0  0  0  0  0  0  0  0  0  0  0  0
  148.9679  140.0987  156.1241 H   0  0  0  0  0  0  0  0  0  0  0  0
  147.5208  142.7791  156.1305 H   0  0  0  0  0  0  0  0  0  0  0  0
  147.3721  141.5162  157.3495 H   0  0  0  0  0  0  0  0  0  0  0  0
  146.8102  141.2227  155.7098 H   0  0  0  0  0  0  0  0  0  0  0  0
  150.1245  142.8841  156.6426 H   0  0  0  0  0  0  0  0  0  0  0  0
  151.0472  141.3834  156.6023 H   0  0  0  0  0  0  0  0  0  0  0  0
  149.8515  141.6431  157.8610 H   0  0  0  0  0  0  0  0  0  0  0  0
  149.4706  138.7028  154.3330 H   0  0  0  0  0  0  0  0  0  0  0  0
  147.9053  139.0682  155.0227 H   0  0  0  0  0  0  0  0  0  0  0  0
  147.7708  137.0928  153.5292 H   0  0  0  0  0  0  0  0  0  0  0  0
  148.4679  138.0014  152.2084 H   0  0  0  0  0  0  0  0  0  0  0  0
  147.3572  133.9848  150.9239 H   0  0  0  0  0  0  0  0  0  0  0  0
  149.0634  140.3929  152.6774 H   0  0  0  0  0  0  0  0  0  0  0  0
  147.3951  131.7007  151.2743 H   0  0  0  0  0  0  0  0  0  0  0  0
  1  2  1  0  0  0  0
  1 22  1  0  0  0  0
  1 23  1  0  0  0  0
  1 24  1  0  0  0  0
  2 21  1  0  0  0  0
  2  3  2  0  0  0  0
  3  4  1  0  0  0  0
  3 25  1  0  0  0  0
  4  5  2  0  0  0  0
  4 26  1  0  0  0  0
  5  6  1  0  0  0  0
  5 20  1  0  0  0  0
  6  7  1  0  0  0  0
  6 27  1  0  0  0  0
  6 28  1  0  0  0  0
  7  8  2  0  0  0  0
  7  9  1  0  0  0  0
  9 10  1  0  0  0  0
  9 29  1  0  0  0  0
 10 19  1  0  0  0  0
 10 11  1  0  0  0  0
 10 30  1  0  0  0  0
 11 12  1  0  0  0  0
 11 31  1  0  0  0  0
 11 32  1  0  0  0  0
 12 13  1  0  0  0  0
 12 33  1  0  0  0  0
 12 34  1  0  0  0  0
 13 14  1  0  0  0  0
 13 18  1  0  0  0  0
 13 49  1  0  0  0  0
 14 15  1  0  0  0  0
 14 35  1  0  0  0  0
 14 36  1  0  0  0  0
 15 16  1  0  0  0  0
 15 17  1  0  0  0  0
 15 37  1  0  0  0  0
 16 38  1  0  0  0  0
 16 39  1  0  0  0  0
 16 40  1  0  0  0  0
 17 41  1  0  0  0  0
 17 42  1  0  0  0  0
 17 43  1  0  0  0  0
 18 19  1  0  0  0  0
 18 44  1  0  0  0  0
 18 45  1  0  0  0  0
 19 46  1  0  0  0  0
 19 47  1  0  0  0  0
 20 21  2  0  0  0  0
 20 48  1  0  0  0  0
 21 50  1  0  0  0  0
M  CHG  1  13   1
M  CHG  1  21   1
M  END
> <s_m_source_file>
AV-unprocessed.smi

> <i_m_source_file_index>
1483

> <i_lp_mmshare_version>
43012

> <i_f3d_flags>
0

> <s_epik_input>
W0NIM11jMVtjSF1bY0hdYyhbY0hdbjEpW0NIMl1DKD1PKVtOSF1bQ0hdMltDSDJdW0NIMl1OKFtDSDJdW0NIMl0yKVtDSDJdW0NIXShbQ0gzXSlbQ0gzXQ==

> <s_epik_cmdline>
J2VwaWtfcHl0aG9uJywgJy1waCcsICc3LjAnLCAnLXRuJywgJzgnLCAnLW1hJywgJzIwMCcsICctbWV0YWxfYmluZGluZycsICctaW1hZScsICc8aW5maWxlLm1hZT4nLCAnLW9tYWUnLCAnPG91dGZpbGUubWFlPic=

> <r_epik_Ionization_Penalty>
2.20554

> <r_epik_Ionization_Penalty_Charging>
2.20554

> <r_epik_Ionization_Penalty_Neutral>
2.83835e-07

> <r_epik_State_Penalty>
2.34446

> <r_epik_Charging_Adjusted_Penalty>
4.55

> <i_epik_Tot_Q>
2

> <i_epik_Tot_abs_Q>
2

> <r_epik_Metal_State_Penalty>
2.35906

> <b_epik_Metal_Only>
0

> <s_lp_Force_Field>
OPLS_2005

> <r_lp_Energy>
27.324

> <b_lp_Chiralities_Consistent>
1

> <s_lp_Variant>
AV-unprocessed.smi:1483-3

> <Gold.Version>
5.8.1

> <Gold.Id.Protein>
6NUR|6NUR_protein|mol2

> <Gold.PLP.Fitness>
43.8243

> <Gold.PLP.PLP>
-37.1267

> <Gold.PLP.part.hbond>
-3.0000

> <Gold.PLP.part.metal>
0.0000

> <Gold.PLP.part.buried>
3.0366

> <Gold.PLP.part.nonpolar>
-36.8574

> <Gold.PLP.part.repulsive>
0.3480

> <Gold.PLP.ligand.clash>
0.0000

> <Gold.PLP.ligand.torsion>
0.6231

> <Gold.PLP.Chemscore.Hbond>
2.6318

> <Gold.PLP.Chemscore.CHOScore>
0.0000

> <Gold.PLP.Chemscore.Metal>
0.0000

> <Gold.Chemscore.Hbonds>
donor molecule, donor type, donor heavy atom, donor atom, acceptor molecule, acceptor atom, score
      L1  H     9    29       P1 10171  0.57
      L1  H    13    49       P1  7957  1.00
      L1  H    21    50       P1 10747  0.87

> <Gold.PLP.Chemscore.Internal.Correction>
0.0483

> <Gold.Rescore>
     Score         DG    S(hbond)    S(metal)    S(lipo)     H(rot)  DE(clash)    DE(int)     intcor
     20.19     -24.48       2.73        0.00     118.37       1.55       3.49       0.80       ----

> <Gold.Chemscore.Fitness>
20.1878

> <Gold.Chemscore.DG>
-24.4801

> <Gold.Chemscore.ZeroCoef>
-5.4800

> <Gold.Chemscore.Hbond>
2.7317

> <Gold.Chemscore.Metal>
0.0000

> <Gold.Chemscore.Lipo>
118.3702

> <Gold.Chemscore.Internal_Hbond>
0.0000

> <Gold.Chemscore.DEClash>
3.4897

> <Gold.Chemscore.DEInternal>
0.8025

> <Gold.Chemscore.Rot>
1.5520

> <Gold.Chemscore.Internal.Correction>
   9.000000E+99

> <Gold.Chemscore.Hbonds>
donor molecule, donor type, donor heavy atom, donor atom, acceptor molecule, acceptor atom, score
      L1  H     9    29       P1 10171  0.57
      L1  H    13    49       P1  7957  1.00
      L1  H    21    50       P1 10747  0.81

> <Gold.Chemscore.Hbond.Weighted>
-9.1238

> <Gold.Chemscore.Metal.Weighted>
-0.0000

> <Gold.Chemscore.Lipo.Weighted>
-13.8493

> <Gold.Chemscore.Internal_Hbond.Weighted>
0.0000

> <Gold.Chemscore.DEClash.Weighted>
3.4897

> <Gold.Chemscore.DEInternal.Weighted>
0.8025

> <Gold.Chemscore.Rot.Weighted>
3.9730

> <Gold.Chemscore.Internal.Correction.Weighted>
   9.000000E+99

> <Gold.Protein.RotatedTorsions>
[ 6907 6896 6895 6894 ] final  -55.20 input  -60.11 | X-H torsion
[ 7974 7965 7964 7962 ] final  -58.11 input  175.53 | X-H torsion
[ 8008 7997 7996 7995 ] final  -86.23 input   59.86 | X-H torsion
[ 10167 10162 10161 10158 ] final  104.80 input  -65.29 | X-H torsion
[ 10718 10713 10712 10709 ] final   82.97 input   66.30 | X-H torsion
[ 10763 10752 10751 10750 ] final   -9.55 input  -60.55 | X-H torsion
[ 11005 11000 10999 10996 ] final  -48.47 input  -57.11 | X-H torsion

> <Gold.Protein.ActiveResidues>
 VAL166  LYS551  ARG553  GLY616  TRP617  ASP618  TYR619  PRO620  LYS621  CYS622 
 ASP623  PHE694  ASN695  SER759  ASP760  ASP761  ALA762  ILE779  LEU786  VAL792 
 PHE793  MET794  SER795  GLU796  ALA797  LYS798  CYS799  TRP800  GLU811  SER814 

> <Gold.Protein.RotatedAtoms>
  150.8272  134.7508  159.6822 H   0  0  0  0  0  0  0  0  0  0  0  0  # atno 6907 bound_to 6896
  152.4381  134.5643  159.9913 H   0  0  0  0  0  0  0  0  0  0  0  0  # atno 6908 bound_to 6896
  151.5812  133.3340  159.3045 H   0  0  0  0  0  0  0  0  0  0  0  0  # atno 6909 bound_to 6896
  145.8431  140.8403  143.0024 H   0  0  0  0  0  0  0  0  0  0  0  0  # atno 7974 bound_to 7965
  154.6496  140.0581  156.9940 H   0  0  0  0  0  0  0  0  0  0  0  0  # atno 8008 bound_to 7997
  155.1392  140.3264  155.4437 H   0  0  0  0  0  0  0  0  0  0  0  0  # atno 8009 bound_to 7997
  156.2569  140.1967  156.6508 H   0  0  0  0  0  0  0  0  0  0  0  0  # atno 8010 bound_to 7997
  139.7146  144.7071  151.0970 H   0  0  0  0  0  0  0  0  0  0  0  0  # atno 10167 bound_to 10162
  157.6869  131.0070  150.2453 H   0  0  0  0  0  0  0  0  0  0  0  0  # atno 10718 bound_to 10713
  153.4564  135.7015  153.6077 H   0  0  0  0  0  0  0  0  0  0  0  0  # atno 10763 bound_to 10752
  153.4390  135.3784  155.2217 H   0  0  0  0  0  0  0  0  0  0  0  0  # atno 10764 bound_to 10752
  154.8728  135.3969  154.3983 H   0  0  0  0  0  0  0  0  0  0  0  0  # atno 10765 bound_to 10752
  141.0702  133.6681  156.3445 H   0  0  0  0  0  0  0  0  0  0  0  0  # atno 11005 bound_to 11000
  144.6732  140.0842  143.7468 LP  0  0  0  0  0  0  0  0  0  0  0  0  # atno 17320 bound_to 7965
  145.9442  139.2689  143.1250 LP  0  0  0  0  0  0  0  0  0  0  0  0  # atno 17321 bound_to 7965
  140.7741  143.5246  150.9495 LP  0  0  0  0  0  0  0  0  0  0  0  0  # atno 17342 bound_to 10162
  139.8932  143.6927  152.3142 LP  0  0  0  0  0  0  0  0  0  0  0  0  # atno 17343 bound_to 10162
  156.3060  130.3765  149.7706 LP  0  0  0  0  0  0  0  0  0  0  0  0  # atno 17370 bound_to 10713
  156.5321  130.8262  151.3240 LP  0  0  0  0  0  0  0  0  0  0  0  0  # atno 17371 bound_to 10713
  140.5689  134.5860  157.5452 LP  0  0  0  0  0  0  0  0  0  0  0  0  # atno 17394 bound_to 11000
  139.9516  134.7607  156.0435 LP  0  0  0  0  0  0  0  0  0  0  0  0  # atno 17395 bound_to 11000

$$$$
