AV-unprocessed.smi:1885|AV-procd|sdf|7651|dock6
  -GOLD-   22720 9383D 1   1.00000     0.00000
 Structure written by MMmdl.
 43 45  0  0  0  0  0  0  0  0  1 V2000
  143.9435  132.8107  151.9438 C   0  0  0  0  0  0  0  0  0  0  0  0
  143.6780  133.8383  152.8872 O   0  0  0  0  0  0  0  0  0  0  0  0
  144.4368  134.9873  152.8243 C   0  0  0  0  0  0  0  0  0  0  0  0
  145.3906  135.2576  151.8106 C   0  0  0  0  0  0  0  0  0  0  0  0
  146.1288  136.4570  151.8270 C   0  0  0  0  0  0  0  0  0  0  0  0
  145.9311  137.3998  152.8559 C   0  0  0  0  0  0  0  0  0  0  0  0
  146.7345  138.6846  152.8824 C   0  0  0  0  0  0  0  0  0  0  0  0
  147.6346  138.7072  153.9776 O   0  0  0  0  0  0  0  0  0  0  0  0
  148.1965  139.9880  154.2124 C   0  0  0  0  0  0  0  0  0  0  0  0
  149.5169  139.8477  154.9942 C   0  0  1  0  0  0  0  0  0  0  0  0
  150.4223  139.0625  154.2480 O   0  0  0  0  0  0  0  0  0  0  0  0
  150.1881  141.1762  155.4069 C   0  0  0  0  0  0  0  0  0  0  0  0
  151.1686  141.0119  156.4665 N   0  0  0  0  0  0  0  0  0  0  0  0
  151.9648  139.9456  156.6752 C   0  0  0  0  0  0  0  0  0  0  0  0
  152.7870  139.9942  157.7194 N   0  0  0  0  0  0  0  0  0  0  0  0
  152.4994  141.2425  158.2445 C   0  0  0  0  0  0  0  0  0  0  0  0
  153.0314  141.9072  159.3725 C   0  0  0  0  0  0  0  0  0  0  0  0
  152.5826  143.1983  159.7202 C   0  0  0  0  0  0  0  0  0  0  0  0
  153.1026  143.8205  160.8048 F   0  0  0  0  0  0  0  0  0  0  0  0
  151.5972  143.8445  158.9451 C   0  0  0  0  0  0  0  0  0  0  0  0
  151.1731  145.0848  159.2847 F   0  0  0  0  0  0  0  0  0  0  0  0
  151.0492  143.2002  157.8197 C   0  0  0  0  0  0  0  0  0  0  0  0
  151.4975  141.9104  157.4776 C   0  0  0  0  0  0  0  0  0  0  0  0
  144.9764  137.1417  153.8595 C   0  0  0  0  0  0  0  0  0  0  0  0
  144.2382  135.9431  153.8417 C   0  0  0  0  0  0  0  0  0  0  0  0
  143.2787  131.9681  152.1334 H   0  0  0  0  0  0  0  0  0  0  0  0
  144.9689  132.4476  152.0284 H   0  0  0  0  0  0  0  0  0  0  0  0
  143.7625  133.1501  150.9231 H   0  0  0  0  0  0  0  0  0  0  0  0
  145.5777  134.5585  151.0097 H   0  0  0  0  0  0  0  0  0  0  0  0
  146.8553  136.6439  151.0498 H   0  0  0  0  0  0  0  0  0  0  0  0
  147.2862  138.7803  151.9456 H   0  0  0  0  0  0  0  0  0  0  0  0
  146.0506  139.5319  152.9465 H   0  0  0  0  0  0  0  0  0  0  0  0
  148.4059  140.4651  153.2535 H   0  0  0  0  0  0  0  0  0  0  0  0
  147.4903  140.6322  154.7388 H   0  0  0  0  0  0  0  0  0  0  0  0
  149.3013  139.2782  155.8991 H   0  0  0  0  0  0  0  0  0  0  0  0
  150.0089  138.8259  153.4315 H   0  0  0  0  0  0  0  0  0  0  0  0
  150.6788  141.6366  154.5486 H   0  0  0  0  0  0  0  0  0  0  0  0
  149.4329  141.8856  155.7471 H   0  0  0  0  0  0  0  0  0  0  0  0
  151.9309  139.0804  156.0290 H   0  0  0  0  0  0  0  0  0  0  0  0
  153.7879  141.4233  159.9723 H   0  0  0  0  0  0  0  0  0  0  0  0
  150.2872  143.6910  157.2329 H   0  0  0  0  0  0  0  0  0  0  0  0
  144.8124  137.8597  154.6498 H   0  0  0  0  0  0  0  0  0  0  0  0
  143.5137  135.7532  154.6201 H   0  0  0  0  0  0  0  0  0  0  0  0
  1  2  1  0  0  0  0
  1 26  1  0  0  0  0
  1 27  1  0  0  0  0
  1 28  1  0  0  0  0
  2  3  1  0  0  0  0
  3 25  1  0  0  0  0
  3  4  2  0  0  0  0
  4  5  1  0  0  0  0
  4 29  1  0  0  0  0
  5  6  2  0  0  0  0
  5 30  1  0  0  0  0
  6  7  1  0  0  0  0
  6 24  1  0  0  0  0
  7  8  1  0  0  0  0
  7 31  1  0  0  0  0
  7 32  1  0  0  0  0
  8  9  1  0  0  0  0
  9 10  1  0  0  0  0
  9 33  1  0  0  0  0
  9 34  1  0  0  0  0
 10 11  1  0  0  0  0
 10 12  1  0  0  0  0
 10 35  1  0  0  0  0
 11 36  1  0  0  0  0
 12 13  1  0  0  0  0
 12 37  1  0  0  0  0
 12 38  1  0  0  0  0
 13 23  1  0  0  0  0
 13 14  1  0  0  0  0
 14 15  2  0  0  0  0
 14 39  1  0  0  0  0
 15 16  1  0  0  0  0
 16 23  2  0  0  0  0
 16 17  1  0  0  0  0
 17 18  2  0  0  0  0
 17 40  1  0  0  0  0
 18 19  1  0  0  0  0
 18 20  1  0  0  0  0
 20 21  1  0  0  0  0
 20 22  2  0  0  0  0
 22 23  1  0  0  0  0
 22 41  1  0  0  0  0
 24 25  2  0  0  0  0
 24 42  1  0  0  0  0
 25 43  1  0  0  0  0
M  END
> <s_m_source_file>
AV-unprocessed.smi

> <i_m_source_file_index>
1885

> <i_lp_mmshare_version>
43012

> <i_f3d_flags>
0

> <s_epik_input>
W0NIM11PYzFbY0hdW2NIXWMoW2NIXVtjSF0xKVtDSDJdT1tDSDJdW0NASF0oW09IXSlbQ0gyXW4oW2NIXW4yKWMoYzIzKVtjSF1jKEYpYyhGKVtjSF0z

> <s_epik_cmdline>
J2VwaWtfcHl0aG9uJywgJy1waCcsICc3LjAnLCAnLXRuJywgJzgnLCAnLW1hJywgJzIwMCcsICctbWV0YWxfYmluZGluZycsICctaW1hZScsICc8aW5maWxlLm1hZT4nLCAnLW9tYWUnLCAnPG91dGZpbGUubWFlPic=

> <r_lp_tautomer_probability>
1

> <r_epik_Ionization_Penalty>
0.0160256

> <r_epik_Ionization_Penalty_Charging>
0

> <r_epik_Ionization_Penalty_Neutral>
0.0160256

> <r_epik_State_Penalty>
0.0126263

> <r_epik_Charging_Adjusted_Penalty>
0.0126263

> <i_epik_Tot_Q>
0

> <i_epik_Tot_abs_Q>
0

> <r_epik_Metal_State_Penalty>
1.27616e-05

> <b_epik_Metal_Only>
0

> <s_lp_Force_Field>
OPLS_2005

> <r_lp_Energy>
16.1037

> <b_lp_Chiralities_Consistent>
1

> <s_lp_Variant>
AV-unprocessed.smi:1885-2

> <Gold.Version>
5.8.1

> <Gold.Id.Protein>
6NUR|6NUR_protein|mol2

> <Gold.PLP.Fitness>
59.6634

> <Gold.PLP.PLP>
-51.9340

> <Gold.PLP.part.hbond>
-3.0000

> <Gold.PLP.part.metal>
0.0000

> <Gold.PLP.part.buried>
-0.4915

> <Gold.PLP.part.nonpolar>
-48.7102

> <Gold.PLP.part.repulsive>
0.3669

> <Gold.PLP.ligand.clash>
0.0000

> <Gold.PLP.ligand.torsion>
0.7433

> <Gold.PLP.Chemscore.Hbond>
3.0000

> <Gold.PLP.Chemscore.CHOScore>
0.0000

> <Gold.PLP.Chemscore.Metal>
0.0000

> <Gold.Chemscore.Hbonds>
donor molecule, donor type, donor heavy atom, donor atom, acceptor molecule, acceptor atom, score
      P1  H  7989  7998       L1    11  0.23
      P1  H  7997  8008       L1    15  0.68

> <Gold.PLP.Chemscore.Internal.Correction>
0.2161

> <Gold.Rescore>
     Score         DG    S(hbond)    S(metal)    S(lipo)     H(rot)  DE(clash)    DE(int)     intcor
     14.43     -19.46       2.11        0.00     123.43       2.93       2.77       2.26       ----

> <Gold.Chemscore.Fitness>
14.4279

> <Gold.Chemscore.DG>
-19.4562

> <Gold.Chemscore.ZeroCoef>
-5.4800

> <Gold.Chemscore.Hbond>
2.1090

> <Gold.Chemscore.Metal>
0.0000

> <Gold.Chemscore.Lipo>
123.4336

> <Gold.Chemscore.Internal_Hbond>
0.0000

> <Gold.Chemscore.DEClash>
2.7661

> <Gold.Chemscore.DEInternal>
2.2623

> <Gold.Chemscore.Rot>
2.9335

> <Gold.Chemscore.Internal.Correction>
   9.000000E+99

> <Gold.Chemscore.Hbonds>
donor molecule, donor type, donor heavy atom, donor atom, acceptor molecule, acceptor atom, score
      P1  H  7989  7998       L1    11  0.01
      P1  H  7997  8008       L1    15  0.05

> <Gold.Chemscore.Hbond.Weighted>
-7.0441

> <Gold.Chemscore.Metal.Weighted>
-0.0000

> <Gold.Chemscore.Lipo.Weighted>
-14.4417

> <Gold.Chemscore.Internal_Hbond.Weighted>
0.0000

> <Gold.Chemscore.DEClash.Weighted>
2.7661

> <Gold.Chemscore.DEInternal.Weighted>
2.2623

> <Gold.Chemscore.Rot.Weighted>
7.5097

> <Gold.Chemscore.Internal.Correction.Weighted>
   9.000000E+99

> <Gold.Protein.RotatedTorsions>
[ 6907 6896 6895 6894 ] final -147.47 input  -60.11 | X-H torsion
[ 7974 7965 7964 7962 ] final  137.03 input  175.53 | X-H torsion
[ 8008 7997 7996 7995 ] final  -57.47 input   59.86 | X-H torsion
[ 10167 10162 10161 10158 ] final -159.04 input  -65.29 | X-H torsion
[ 10718 10713 10712 10709 ] final -100.36 input   66.30 | X-H torsion
[ 10763 10752 10751 10750 ] final  145.46 input  -60.55 | X-H torsion
[ 11005 11000 10999 10996 ] final  -35.51 input  -57.11 | X-H torsion

> <Gold.Protein.ActiveResidues>
 VAL166  LYS551  ARG553  GLY616  TRP617  ASP618  TYR619  PRO620  LYS621  CYS622 
 ASP623  PHE694  ASN695  SER759  ASP760  ASP761  ALA762  ILE779  LEU786  VAL792 
 PHE793  MET794  SER795  GLU796  ALA797  LYS798  CYS799  TRP800  GLU811  SER814 

> <Gold.Protein.RotatedAtoms>
  151.1561  133.4875  159.2594 H   0  0  0  0  0  0  0  0  0  0  0  0  # atno 6907 bound_to 6896
  151.1503  135.0223  159.8675 H   0  0  0  0  0  0  0  0  0  0  0  0  # atno 6908 bound_to 6896
  152.5463  134.1445  159.8546 H   0  0  0  0  0  0  0  0  0  0  0  0  # atno 6909 bound_to 6896
  144.9507  139.4822  143.5527 H   0  0  0  0  0  0  0  0  0  0  0  0  # atno 7974 bound_to 7965
  154.4269  140.1106  156.5802 H   0  0  0  0  0  0  0  0  0  0  0  0  # atno 8008 bound_to 7997
  155.6120  140.3494  155.4606 H   0  0  0  0  0  0  0  0  0  0  0  0  # atno 8009 bound_to 7997
  156.0092  140.1215  157.0461 H   0  0  0  0  0  0  0  0  0  0  0  0  # atno 8010 bound_to 7997
  139.6646  143.9853  152.2246 H   0  0  0  0  0  0  0  0  0  0  0  0  # atno 10167 bound_to 10162
  156.0161  130.5324  150.6806 H   0  0  0  0  0  0  0  0  0  0  0  0  # atno 10718 bound_to 10713
  154.0057  135.2919  155.3398 H   0  0  0  0  0  0  0  0  0  0  0  0  # atno 10763 bound_to 10752
  154.7133  135.5140  153.8702 H   0  0  0  0  0  0  0  0  0  0  0  0  # atno 10764 bound_to 10752
  153.0745  135.6659  154.0294 H   0  0  0  0  0  0  0  0  0  0  0  0  # atno 10765 bound_to 10752
  140.9802  133.7060  156.1671 H   0  0  0  0  0  0  0  0  0  0  0  0  # atno 11005 bound_to 11000
  146.3320  139.8590  142.8859 LP  0  0  0  0  0  0  0  0  0  0  0  0  # atno 17320 bound_to 7965
  145.2849  141.0150  143.3696 LP  0  0  0  0  0  0  0  0  0  0  0  0  # atno 17321 bound_to 7965
  139.9601  144.6564  150.8088 LP  0  0  0  0  0  0  0  0  0  0  0  0  # atno 17342 bound_to 10162
  140.7594  143.3128  151.2805 LP  0  0  0  0  0  0  0  0  0  0  0  0  # atno 17343 bound_to 10162
  157.4509  131.0872  151.0847 LP  0  0  0  0  0  0  0  0  0  0  0  0  # atno 17370 bound_to 10713
  157.1363  130.6124  149.5543 LP  0  0  0  0  0  0  0  0  0  0  0  0  # atno 17371 bound_to 10713
  140.7198  134.4371  157.5576 LP  0  0  0  0  0  0  0  0  0  0  0  0  # atno 17394 bound_to 11000
  139.8947  134.8700  156.2165 LP  0  0  0  0  0  0  0  0  0  0  0  0  # atno 17395 bound_to 11000

$$$$
