AV-unprocessed.smi:2473|AV-procd|sdf|9746|dock5
  -GOLD-   2272013383D 1   1.00000     0.00000
 Structure written by MMmdl.
 48 49  0  0  0  0  0  0  0  0  2 V2000
  146.6807  138.4161  152.7790 C   0  0  0  0  0  0  0  0  0  0  0  0
  147.0875  139.4313  153.8567 C   0  0  1  0  0  0  0  0  0  0  0  0
  147.8788  140.6043  153.2438 C   0  0  0  0  0  0  0  0  0  0  0  0
  148.2851  141.6805  154.2768 C   0  0  2  0  0  0  0  0  0  0  0  0
  149.5246  141.3148  155.1152 C   0  0  0  0  0  0  0  0  0  0  0  0
  150.1835  140.3026  154.8757 O   0  0  0  0  0  0  0  0  0  0  0  0
  149.8561  142.1793  156.0856 N   0  0  0  0  0  0  0  0  0  0  0  0
  150.9947  142.0158  156.9779 C   0  0  0  0  0  0  0  0  0  0  0  0
  151.7486  143.3416  157.1398 C   0  0  0  0  0  0  0  0  0  0  0  0
  151.9351  143.7281  158.5739 C   0  0  0  0  0  0  0  0  0  0  0  0
  151.5665  144.8940  159.1176 N   0  3  0  0  0  0  0  0  0  0  0  0
  151.8691  144.9152  160.4520 C   0  0  0  0  0  0  0  0  0  0  0  0
  152.4425  143.7038  160.7379 C   0  0  0  0  0  0  0  0  0  0  0  0
  152.4668  142.9933  159.5651 N   0  0  0  0  0  0  0  0  0  0  0  0
  152.9875  141.6374  159.3773 C   0  0  0  0  0  0  0  0  0  0  0  0
  147.0685  142.1232  155.1293 C   0  0  0  0  0  0  0  0  0  0  0  0
  146.1965  140.9843  155.7259 C   0  0  0  0  0  0  0  0  0  0  0  0
  146.8767  140.2986  156.9314 C   0  0  0  0  0  0  0  0  0  0  0  0
  144.8809  141.6029  156.2414 C   0  0  0  0  0  0  0  0  0  0  0  0
  145.8554  139.9556  154.6204 C   0  0  0  0  0  0  0  0  0  0  0  0
  146.0354  138.8710  152.0267 H   0  0  0  0  0  0  0  0  0  0  0  0
  146.1411  137.5751  153.2157 H   0  0  0  0  0  0  0  0  0  0  0  0
  147.5564  138.0148  152.2685 H   0  0  0  0  0  0  0  0  0  0  0  0
  147.7292  138.8992  154.5572 H   0  0  0  0  0  0  0  0  0  0  0  0
  148.7625  140.2255  152.7278 H   0  0  0  0  0  0  0  0  0  0  0  0
  147.2701  141.0769  152.4717 H   0  0  0  0  0  0  0  0  0  0  0  0
  148.5976  142.5520  153.6992 H   0  0  0  0  0  0  0  0  0  0  0  0
  149.2769  142.9964  156.2160 H   0  0  0  0  0  0  0  0  0  0  0  0
  150.6416  141.6623  157.9481 H   0  0  0  0  0  0  0  0  0  0  0  0
  151.6626  141.2507  156.5796 H   0  0  0  0  0  0  0  0  0  0  0  0
  152.7362  143.2936  156.6796 H   0  0  0  0  0  0  0  0  0  0  0  0
  151.2073  144.1574  156.6585 H   0  0  0  0  0  0  0  0  0  0  0  0
  151.6575  145.7674  161.0817 H   0  0  0  0  0  0  0  0  0  0  0  0
  152.8241  143.3048  161.6669 H   0  0  0  0  0  0  0  0  0  0  0  0
  153.2858  141.2234  160.3409 H   0  0  0  0  0  0  0  0  0  0  0  0
  153.8540  141.6725  158.7169 H   0  0  0  0  0  0  0  0  0  0  0  0
  152.2135  141.0062  158.9400 H   0  0  0  0  0  0  0  0  0  0  0  0
  147.3879  142.7971  155.9257 H   0  0  0  0  0  0  0  0  0  0  0  0
  146.4376  142.7353  154.4829 H   0  0  0  0  0  0  0  0  0  0  0  0
  146.2094  139.5727  157.3972 H   0  0  0  0  0  0  0  0  0  0  0  0
  147.1510  141.0253  157.6967 H   0  0  0  0  0  0  0  0  0  0  0  0
  147.7797  139.7576  156.6602 H   0  0  0  0  0  0  0  0  0  0  0  0
  144.2208  140.8427  156.6607 H   0  0  0  0  0  0  0  0  0  0  0  0
  144.3317  142.1037  155.4435 H   0  0  0  0  0  0  0  0  0  0  0  0
  145.0677  142.3416  157.0217 H   0  0  0  0  0  0  0  0  0  0  0  0
  145.1751  140.4146  153.9009 H   0  0  0  0  0  0  0  0  0  0  0  0
  145.3074  139.1180  155.0541 H   0  0  0  0  0  0  0  0  0  0  0  0
  151.1257  145.6513  158.6107 H   0  0  0  0  0  0  0  0  0  0  0  0
  1  2  1  0  0  0  0
  1 21  1  0  0  0  0
  1 22  1  0  0  0  0
  1 23  1  0  0  0  0
  2 20  1  0  0  0  0
  2  3  1  0  0  0  0
  2 24  1  0  0  0  0
  3  4  1  0  0  0  0
  3 25  1  0  0  0  0
  3 26  1  0  0  0  0
  4  5  1  0  0  0  0
  4 16  1  0  0  0  0
  4 27  1  0  0  0  0
  5  6  2  0  0  0  0
  5  7  1  0  0  0  0
  7  8  1  0  0  0  0
  7 28  1  0  0  0  0
  8  9  1  0  0  0  0
  8 29  1  0  0  0  0
  8 30  1  0  0  0  0
  9 10  1  0  0  0  0
  9 31  1  0  0  0  0
  9 32  1  0  0  0  0
 10 14  1  0  0  0  0
 10 11  2  0  0  0  0
 11 12  1  0  0  0  0
 11 48  1  0  0  0  0
 12 13  2  0  0  0  0
 12 33  1  0  0  0  0
 13 14  1  0  0  0  0
 13 34  1  0  0  0  0
 14 15  1  0  0  0  0
 15 35  1  0  0  0  0
 15 36  1  0  0  0  0
 15 37  1  0  0  0  0
 16 17  1  0  0  0  0
 16 38  1  0  0  0  0
 16 39  1  0  0  0  0
 17 18  1  0  0  0  0
 17 19  1  0  0  0  0
 17 20  1  0  0  0  0
 18 40  1  0  0  0  0
 18 41  1  0  0  0  0
 18 42  1  0  0  0  0
 19 43  1  0  0  0  0
 19 44  1  0  0  0  0
 19 45  1  0  0  0  0
 20 46  1  0  0  0  0
 20 47  1  0  0  0  0
M  CHG  1  11   1
M  END
> <s_m_source_file>
AV-unprocessed.smi

> <i_m_source_file_index>
2473

> <i_lp_mmshare_version>
43012

> <i_f3d_flags>
0

> <s_epik_input>
W0NIM11bQ0BASF0oW0NIMl0xKVtDSDJdW0NASF0oW0NIMl1DMShbQ0gzXSlbQ0gzXSlDKD1PKVtOSF1bQ0gyXVtDSDJdYzJuW2NIXVtjSF1uMltDSDNd

> <s_epik_cmdline>
J2VwaWtfcHl0aG9uJywgJy1waCcsICc3LjAnLCAnLXRuJywgJzgnLCAnLW1hJywgJzIwMCcsICctbWV0YWxfYmluZGluZycsICctaW1hZScsICc8aW5maWxlLm1hZT4nLCAnLW9tYWUnLCAnPG91dGZpbGUubWFlPic=

> <r_lp_tautomer_probability>
1

> <r_epik_Ionization_Penalty>
0.0796112

> <r_epik_Ionization_Penalty_Charging>
0

> <r_epik_Ionization_Penalty_Neutral>
0.0796112

> <r_epik_State_Penalty>
0.0704541

> <r_epik_Charging_Adjusted_Penalty>
0.0704541

> <i_epik_Tot_Q>
1

> <i_epik_Tot_abs_Q>
1

> <r_epik_Metal_State_Penalty>
0.409899

> <b_epik_Metal_Only>
0

> <s_lp_Force_Field>
OPLS_2005

> <r_lp_Energy>
17.0115

> <b_lp_Chiralities_Consistent>
1

> <s_lp_Variant>
AV-unprocessed.smi:2473-4

> <Gold.Version>
5.8.1

> <Gold.Id.Protein>
6NUR|6NUR_protein|mol2

> <Gold.PLP.Fitness>
43.8065

> <Gold.PLP.PLP>
-39.5944

> <Gold.PLP.part.hbond>
-2.0000

> <Gold.PLP.part.metal>
0.0000

> <Gold.PLP.part.buried>
-2.5942

> <Gold.PLP.part.nonpolar>
-36.0691

> <Gold.PLP.part.repulsive>
0.3449

> <Gold.PLP.ligand.clash>
0.0000

> <Gold.PLP.ligand.torsion>
0.7032

> <Gold.PLP.Chemscore.Hbond>
1.8400

> <Gold.PLP.Chemscore.CHOScore>
0.0000

> <Gold.PLP.Chemscore.Metal>
0.0000

> <Gold.Chemscore.Hbonds>
donor molecule, donor type, donor heavy atom, donor atom, acceptor molecule, acceptor atom, score
      L1  H     7    28       P1  8028  0.94
      P1  H  7989  7998       L1     6  0.89

> <Gold.PLP.Chemscore.Internal.Correction>
0.0986

> <Gold.Rescore>
     Score         DG    S(hbond)    S(metal)    S(lipo)     H(rot)  DE(clash)    DE(int)     intcor
     15.99     -17.67       1.57        0.00      93.92       1.58       0.99       0.70       ----

> <Gold.Chemscore.Fitness>
15.9864

> <Gold.Chemscore.DG>
-17.6745

> <Gold.Chemscore.ZeroCoef>
-5.4800

> <Gold.Chemscore.Hbond>
1.5736

> <Gold.Chemscore.Metal>
0.0000

> <Gold.Chemscore.Lipo>
93.9164

> <Gold.Chemscore.Internal_Hbond>
0.0000

> <Gold.Chemscore.DEClash>
0.9925

> <Gold.Chemscore.DEInternal>
0.6957

> <Gold.Chemscore.Rot>
1.5818

> <Gold.Chemscore.Internal.Correction>
   9.000000E+99

> <Gold.Chemscore.Hbonds>
donor molecule, donor type, donor heavy atom, donor atom, acceptor molecule, acceptor atom, score
      L1  H     7    28       P1  8028  0.91
      P1  H  7989  7998       L1     6  0.46

> <Gold.Chemscore.Hbond.Weighted>
-5.2558

> <Gold.Chemscore.Metal.Weighted>
-0.0000

> <Gold.Chemscore.Lipo.Weighted>
-10.9882

> <Gold.Chemscore.Internal_Hbond.Weighted>
0.0000

> <Gold.Chemscore.DEClash.Weighted>
0.9925

> <Gold.Chemscore.DEInternal.Weighted>
0.6957

> <Gold.Chemscore.Rot.Weighted>
4.0495

> <Gold.Chemscore.Internal.Correction.Weighted>
   9.000000E+99

> <Gold.Protein.RotatedTorsions>
[ 6907 6896 6895 6894 ] final   25.01 input  -60.11 | X-H torsion
[ 7974 7965 7964 7962 ] final -166.63 input  175.53 | X-H torsion
[ 8008 7997 7996 7995 ] final   85.03 input   59.86 | X-H torsion
[ 10167 10162 10161 10158 ] final  130.21 input  -65.29 | X-H torsion
[ 10718 10713 10712 10709 ] final -156.58 input   66.30 | X-H torsion
[ 10763 10752 10751 10750 ] final   -9.30 input  -60.55 | X-H torsion
[ 11005 11000 10999 10996 ] final   44.87 input  -57.11 | X-H torsion

> <Gold.Protein.ActiveResidues>
 VAL166  LYS551  ARG553  GLY616  TRP617  ASP618  TYR619  PRO620  LYS621  CYS622 
 ASP623  PHE694  ASN695  SER759  ASP760  ASP761  ALA762  ILE779  LEU786  VAL792 
 PHE793  MET794  SER795  GLU796  ALA797  LYS798  CYS799  TRP800  GLU811  SER814 

> <Gold.Protein.RotatedAtoms>
  151.9662  135.0099  160.0550 H   0  0  0  0  0  0  0  0  0  0  0  0  # atno 6907 bound_to 6896
  152.1824  133.4712  159.4973 H   0  0  0  0  0  0  0  0  0  0  0  0  # atno 6908 bound_to 6896
  150.6920  134.1733  159.4263 H   0  0  0  0  0  0  0  0  0  0  0  0  # atno 6909 bound_to 6896
  144.7241  140.2639  143.6261 H   0  0  0  0  0  0  0  0  0  0  0  0  # atno 7974 bound_to 7965
  155.9448  140.3405  155.6357 H   0  0  0  0  0  0  0  0  0  0  0  0  # atno 8008 bound_to 7997
  155.6994  140.0758  157.2434 H   0  0  0  0  0  0  0  0  0  0  0  0  # atno 8009 bound_to 7997
  154.4110  140.1642  156.2162 H   0  0  0  0  0  0  0  0  0  0  0  0  # atno 8010 bound_to 7997
  139.5441  144.6757  151.4530 H   0  0  0  0  0  0  0  0  0  0  0  0  # atno 10167 bound_to 10162
  156.5285  130.8510  151.2707 H   0  0  0  0  0  0  0  0  0  0  0  0  # atno 10718 bound_to 10713
  153.4528  135.7015  153.6098 H   0  0  0  0  0  0  0  0  0  0  0  0  # atno 10763 bound_to 10752
  153.4426  135.3776  155.2237 H   0  0  0  0  0  0  0  0  0  0  0  0  # atno 10764 bound_to 10752
  154.8728  135.3977  154.3942 H   0  0  0  0  0  0  0  0  0  0  0  0  # atno 10765 bound_to 10752
  140.1512  134.4459  155.8381 H   0  0  0  0  0  0  0  0  0  0  0  0  # atno 11005 bound_to 11000
  145.8109  139.2003  143.1993 LP  0  0  0  0  0  0  0  0  0  0  0  0  # atno 17320 bound_to 7965
  146.0596  140.7984  142.9741 LP  0  0  0  0  0  0  0  0  0  0  0  0  # atno 17321 bound_to 7965
  140.6682  143.8351  150.6967 LP  0  0  0  0  0  0  0  0  0  0  0  0  # atno 17342 bound_to 10162
  140.1767  143.4149  152.1962 LP  0  0  0  0  0  0  0  0  0  0  0  0  # atno 17343 bound_to 10162
  157.7425  130.9893  150.2526 LP  0  0  0  0  0  0  0  0  0  0  0  0  # atno 17370 bound_to 10713
  156.3082  130.3768  149.7686 LP  0  0  0  0  0  0  0  0  0  0  0  0  # atno 17371 bound_to 10713
  141.2199  133.6873  156.7425 LP  0  0  0  0  0  0  0  0  0  0  0  0  # atno 17394 bound_to 11000
  140.2603  134.8472  157.3752 LP  0  0  0  0  0  0  0  0  0  0  0  0  # atno 17395 bound_to 11000

$$$$
