AV-unprocessed.smi:99|AV-procd|sdf|875|dock9
  -GOLD-   2262017343D 1   1.00000     0.00000
 Structure written by MMmdl.
 53 56  0  0  0  0  0  0  0  0  1 V2000
  153.5277  140.3549  160.2943 O   0  0  0  0  0  0  0  0  0  0  0  0
  152.8481  140.9736  159.4734 C   0  0  0  0  0  0  0  0  0  0  0  0
  152.2761  140.4079  158.3958 O   0  0  0  0  0  0  0  0  0  0  0  0
  152.2678  138.9977  158.2267 C   0  0  0  0  0  0  0  0  0  0  0  0
  152.2150  138.6611  156.7273 C   0  0  2  0  0  0  0  0  0  0  0  0
  151.6650  139.7426  155.9877 O   0  0  0  0  0  0  0  0  0  0  0  0
  150.9130  139.2808  154.9076 C   0  0  2  0  0  0  0  0  0  0  0  0
  149.5314  139.9079  155.0354 N   0  0  0  0  0  0  0  0  0  0  0  0
  148.3822  139.1881  155.3519 C   0  0  0  0  0  0  0  0  0  0  0  0
  147.1776  139.7641  155.5750 C   0  0  0  0  0  0  0  0  0  0  0  0
  147.0256  141.2121  155.5136 C   0  0  0  0  0  0  0  0  0  0  0  0
  145.9762  141.8242  155.6992 O   0  0  0  0  0  0  0  0  0  0  0  0
  148.2045  141.9032  155.2287 N   0  0  0  0  0  0  0  0  0  0  0  0
  149.4528  141.3205  155.0066 C   0  0  0  0  0  0  0  0  0  0  0  0
  150.4305  142.0393  154.8022 O   0  0  0  0  0  0  0  0  0  0  0  0
  150.9462  137.7351  154.9198 C   0  0  1  0  0  0  0  0  0  0  0  0
  151.8430  137.2208  153.9558 O   0  0  0  0  0  0  0  0  0  0  0  0
  151.4488  137.3949  156.3200 C   0  0  2  0  0  0  0  0  0  0  0  0
  150.3611  137.1199  157.1956 O   0  0  0  0  0  0  0  0  0  0  0  0
  149.6908  135.9490  157.1363 C   0  0  0  0  0  0  0  0  0  0  0  0
  149.7201  135.1897  156.1663 O   0  0  0  0  0  0  0  0  0  0  0  0
  148.9137  135.6693  158.3769 C   0  0  0  0  0  0  0  0  0  0  0  0
  148.9242  136.6100  159.4327 C   0  0  0  0  0  0  0  0  0  0  0  0
  148.1926  136.3704  160.6125 C   0  0  0  0  0  0  0  0  0  0  0  0
  147.4456  135.1859  160.7522 C   0  0  0  0  0  0  0  0  0  0  0  0
  147.4342  134.2387  159.7120 C   0  0  0  0  0  0  0  0  0  0  0  0
  148.1649  134.4777  158.5327 C   0  0  0  0  0  0  0  0  0  0  0  0
  152.5469  142.4298  159.5787 C   0  0  0  0  0  0  0  0  0  0  0  0
  152.5457  143.0488  160.8499 C   0  0  0  0  0  0  0  0  0  0  0  0
  152.2404  144.4176  160.9796 C   0  0  0  0  0  0  0  0  0  0  0  0
  151.9370  145.1840  159.8392 C   0  0  0  0  0  0  0  0  0  0  0  0
  151.9426  144.5814  158.5681 C   0  0  0  0  0  0  0  0  0  0  0  0
  152.2478  143.2131  158.4364 C   0  0  0  0  0  0  0  0  0  0  0  0
  148.1525  142.9110  155.1957 H   0  0  0  0  0  0  0  0  0  0  0  0
  153.1762  138.5907  158.6716 H   0  0  0  0  0  0  0  0  0  0  0  0
  151.4193  138.5384  158.7362 H   0  0  0  0  0  0  0  0  0  0  0  0
  153.2384  138.5399  156.3701 H   0  0  0  0  0  0  0  0  0  0  0  0
  151.3136  139.6678  153.9683 H   0  0  0  0  0  0  0  0  0  0  0  0
  148.4017  138.1170  155.4347 H   0  0  0  0  0  0  0  0  0  0  0  0
  146.3213  139.1485  155.8105 H   0  0  0  0  0  0  0  0  0  0  0  0
  149.9811  137.2947  154.6766 H   0  0  0  0  0  0  0  0  0  0  0  0
  151.3449  136.9220  153.2103 H   0  0  0  0  0  0  0  0  0  0  0  0
  152.1325  136.5442  156.3097 H   0  0  0  0  0  0  0  0  0  0  0  0
  149.4882  137.5278  159.3465 H   0  0  0  0  0  0  0  0  0  0  0  0
  148.2041  137.0977  161.4109 H   0  0  0  0  0  0  0  0  0  0  0  0
  146.8838  135.0031  161.6563 H   0  0  0  0  0  0  0  0  0  0  0  0
  146.8644  133.3269  159.8168 H   0  0  0  0  0  0  0  0  0  0  0  0
  148.1416  133.7287  157.7565 H   0  0  0  0  0  0  0  0  0  0  0  0
  152.7685  142.4780  161.7398 H   0  0  0  0  0  0  0  0  0  0  0  0
  152.2366  144.8788  161.9561 H   0  0  0  0  0  0  0  0  0  0  0  0
  151.7017  146.2334  159.9394 H   0  0  0  0  0  0  0  0  0  0  0  0
  151.7121  145.1692  157.6918 H   0  0  0  0  0  0  0  0  0  0  0  0
  152.2435  142.7808  157.4463 H   0  0  0  0  0  0  0  0  0  0  0  0
  1  2  2  0  0  0  0
  2  3  1  0  0  0  0
  2 28  1  0  0  0  0
  3  4  1  0  0  0  0
  4  5  1  0  0  0  0
  4 35  1  0  0  0  0
  4 36  1  0  0  0  0
  5 18  1  0  0  0  0
  5  6  1  0  0  0  0
  5 37  1  0  0  0  0
  6  7  1  0  0  0  0
  7  8  1  0  0  0  0
  7 16  1  0  0  0  0
  7 38  1  0  0  0  0
  8 14  1  0  0  0  0
  8  9  1  0  0  0  0
  9 10  2  0  0  0  0
  9 39  1  0  0  0  0
 10 11  1  0  0  0  0
 10 40  1  0  0  0  0
 11 12  2  0  0  0  0
 11 13  1  0  0  0  0
 13 34  1  0  0  0  0
 13 14  1  0  0  0  0
 14 15  2  0  0  0  0
 16 17  1  0  0  0  0
 16 18  1  0  0  0  0
 16 41  1  0  0  0  0
 17 42  1  0  0  0  0
 18 19  1  0  0  0  0
 18 43  1  0  0  0  0
 19 20  1  0  0  0  0
 20 21  2  0  0  0  0
 20 22  1  0  0  0  0
 22 27  1  0  0  0  0
 22 23  2  0  0  0  0
 23 24  1  0  0  0  0
 23 44  1  0  0  0  0
 24 25  2  0  0  0  0
 24 45  1  0  0  0  0
 25 26  1  0  0  0  0
 25 46  1  0  0  0  0
 26 27  2  0  0  0  0
 26 47  1  0  0  0  0
 27 48  1  0  0  0  0
 28 33  1  0  0  0  0
 28 29  2  0  0  0  0
 29 30  1  0  0  0  0
 29 49  1  0  0  0  0
 30 31  2  0  0  0  0
 30 50  1  0  0  0  0
 31 32  1  0  0  0  0
 31 51  1  0  0  0  0
 32 33  2  0  0  0  0
 32 52  1  0  0  0  0
 33 53  1  0  0  0  0
M  END
> <s_m_source_file>
AV-unprocessed.smi

> <i_m_source_file_index>
99

> <i_lp_mmshare_version>
43012

> <i_f3d_flags>
0

> <s_epik_input>
W2NIXTFbY0hdW2NIXVtjSF1bY0hdYzFDKD1PKU9bQ0gyXVtDQEBIXTJPW0NAQEhdKG4zW2NIXVtjSF1jKD1PKVtuSF1jMz1PKVtDQEBIXShbT0hdKVtDQEhdMk9DKD1PKWM0W2NIXVtjSF1bY0hdW2NIXVtjSF00

> <s_epik_cmdline>
J2VwaWtfcHl0aG9uJywgJy1waCcsICc3LjAnLCAnLXRuJywgJzgnLCAnLW1hJywgJzIwMCcsICctbWV0YWxfYmluZGluZycsICctaW1hZScsICc8aW5maWxlLm1hZT4nLCAnLW9tYWUnLCAnPG91dGZpbGUubWFlPic=

> <r_lp_tautomer_probability>
1

> <r_epik_Ionization_Penalty>
0.00454555

> <r_epik_Ionization_Penalty_Charging>
0.0045191

> <r_epik_Ionization_Penalty_Neutral>
2.64449e-05

> <r_epik_State_Penalty>
-0

> <r_epik_Charging_Adjusted_Penalty>
0.0045191

> <i_epik_Tot_Q>
0

> <i_epik_Tot_abs_Q>
0

> <r_epik_Metal_State_Penalty>
1.27877

> <b_epik_Metal_Only>
0

> <s_epik_Chemistry_Notes>
This compound has an ester and may undergo hydrolysis at high or low pH. This compound contains an acetal/aminal-like group ( X-CH(R)-Y where X, Y are N, S, or O) that may be acid/base labile, releasing an aldehyde.

> <s_lp_Force_Field>
OPLS_2005

> <r_lp_Energy>
29.5489

> <b_lp_Chiralities_Consistent>
1

> <s_lp_Variant>
AV-unprocessed.smi:99-11

> <Gold.Version>
5.8.1

> <Gold.Id.Protein>
6NUR|6NUR_protein|mol2

> <Gold.PLP.Fitness>
58.2271

> <Gold.PLP.PLP>
-51.5099

> <Gold.PLP.part.hbond>
-4.9597

> <Gold.PLP.part.metal>
0.0000

> <Gold.PLP.part.buried>
-4.1426

> <Gold.PLP.part.nonpolar>
-43.8487

> <Gold.PLP.part.repulsive>
0.4316

> <Gold.PLP.ligand.clash>
0.0000

> <Gold.PLP.ligand.torsion>
1.4445

> <Gold.PLP.Chemscore.Hbond>
3.1123

> <Gold.PLP.Chemscore.CHOScore>
0.0000

> <Gold.PLP.Chemscore.Metal>
0.0000

> <Gold.Chemscore.Hbonds>
donor molecule, donor type, donor heavy atom, donor atom, acceptor molecule, acceptor atom, score
      L1  H    13    34       P1  8028  1.00
      L1  H    17    42       P1  7949  1.00
      P1  H  7989  7998       L1    15  0.11
      P1  H 10752 10765       L1    17  1.00

> <Gold.PLP.Chemscore.Internal.Correction>
0.2693

> <Gold.Rescore>
     Score         DG    S(hbond)    S(metal)    S(lipo)     H(rot)  DE(clash)    DE(int)     intcor
     15.06     -20.05       2.46        0.00     124.20       3.19       2.25       2.74       ----

> <Gold.Chemscore.Fitness>
15.0605

> <Gold.Chemscore.DG>
-20.0506

> <Gold.Chemscore.ZeroCoef>
-5.4800

> <Gold.Chemscore.Hbond>
2.4571

> <Gold.Chemscore.Metal>
0.0000

> <Gold.Chemscore.Lipo>
124.1953

> <Gold.Chemscore.Internal_Hbond>
0.0000

> <Gold.Chemscore.DEClash>
2.2514

> <Gold.Chemscore.DEInternal>
2.7387

> <Gold.Chemscore.Rot>
3.1903

> <Gold.Chemscore.Internal.Correction>
   9.000000E+99

> <Gold.Chemscore.Hbonds>
donor molecule, donor type, donor heavy atom, donor atom, acceptor molecule, acceptor atom, score
      L1  H    13    34       P1  8028  0.91
      L1  H    17    42       P1  7949  0.70
      P1  H  7989  7998       L1    15  0.06
      P1  H 10752 10765       L1    17  0.29

> <Gold.Chemscore.Hbond.Weighted>
-8.2068

> <Gold.Chemscore.Metal.Weighted>
-0.0000

> <Gold.Chemscore.Lipo.Weighted>
-14.5309

> <Gold.Chemscore.Internal_Hbond.Weighted>
0.0000

> <Gold.Chemscore.DEClash.Weighted>
2.2514

> <Gold.Chemscore.DEInternal.Weighted>
2.7387

> <Gold.Chemscore.Rot.Weighted>
8.1671

> <Gold.Chemscore.Internal.Correction.Weighted>
   9.000000E+99

> <Gold.Protein.RotatedTorsions>
[ 6907 6896 6895 6894 ] final -131.33 input  -60.11 | X-H torsion
[ 7974 7965 7964 7962 ] final   12.19 input  175.53 | X-H torsion
[ 8008 7997 7996 7995 ] final   12.81 input   59.86 | X-H torsion
[ 10167 10162 10161 10158 ] final -110.39 input  -65.29 | X-H torsion
[ 10718 10713 10712 10709 ] final  124.98 input   66.30 | X-H torsion
[ 10763 10752 10751 10750 ] final  162.17 input  -60.55 | X-H torsion
[ 11005 11000 10999 10996 ] final  138.26 input  -57.11 | X-H torsion

> <Gold.Protein.ActiveResidues>
 VAL166  LYS551  ARG553  GLY616  TRP617  ASP618  TYR619  PRO620  LYS621  CYS622 
 ASP623  PHE694  ASN695  SER759  ASP760  ASP761  ALA762  ILE779  LEU786  VAL792 
 PHE793  MET794  SER795  GLU796  ALA797  LYS798  CYS799  TRP800  GLU811  SER814 

> <Gold.Protein.RotatedAtoms>
  150.9498  133.6562  159.2774 H   0  0  0  0  0  0  0  0  0  0  0  0  # atno 6907 bound_to 6896
  151.3922  135.0956  159.9539 H   0  0  0  0  0  0  0  0  0  0  0  0  # atno 6908 bound_to 6896
  152.5105  133.9009  159.7495 H   0  0  0  0  0  0  0  0  0  0  0  0  # atno 6909 bound_to 6896
  146.2356  139.9373  142.8488 H   0  0  0  0  0  0  0  0  0  0  0  0  # atno 7974 bound_to 7965
  154.8257  140.2891  155.5756 H   0  0  0  0  0  0  0  0  0  0  0  0  # atno 8008 bound_to 7997
  156.3001  140.2541  156.3103 H   0  0  0  0  0  0  0  0  0  0  0  0  # atno 8009 bound_to 7997
  154.9288  140.0384  157.2026 H   0  0  0  0  0  0  0  0  0  0  0  0  # atno 8010 bound_to 7997
  140.1450  143.4247  152.1535 H   0  0  0  0  0  0  0  0  0  0  0  0  # atno 10167 bound_to 10162
  157.5541  131.1093  150.8652 H   0  0  0  0  0  0  0  0  0  0  0  0  # atno 10718 bound_to 10713
  154.2742  135.2765  155.2725 H   0  0  0  0  0  0  0  0  0  0  0  0  # atno 10763 bound_to 10752
  154.5275  135.5739  153.6734 H   0  0  0  0  0  0  0  0  0  0  0  0  # atno 10764 bound_to 10752
  152.9940  135.6219  154.2898 H   0  0  0  0  0  0  0  0  0  0  0  0  # atno 10765 bound_to 10752
  140.0171  134.9413  157.0399 H   0  0  0  0  0  0  0  0  0  0  0  0  # atno 11005 bound_to 11000
  145.1987  140.9844  143.4168 LP  0  0  0  0  0  0  0  0  0  0  0  0  # atno 17320 bound_to 7965
  144.9793  139.3800  143.6270 LP  0  0  0  0  0  0  0  0  0  0  0  0  # atno 17321 bound_to 7965
  139.5453  144.7293  151.4602 LP  0  0  0  0  0  0  0  0  0  0  0  0  # atno 17342 bound_to 10162
  140.6737  143.8236  150.7032 LP  0  0  0  0  0  0  0  0  0  0  0  0  # atno 17343 bound_to 10162
  156.9169  130.5301  149.5279 LP  0  0  0  0  0  0  0  0  0  0  0  0  # atno 17370 bound_to 10713
  156.0602  130.5656  150.9177 LP  0  0  0  0  0  0  0  0  0  0  0  0  # atno 17371 bound_to 10713
  140.4451  134.1640  155.7177 LP  0  0  0  0  0  0  0  0  0  0  0  0  # atno 17394 bound_to 11000
  141.1750  133.8532  157.1450 LP  0  0  0  0  0  0  0  0  0  0  0  0  # atno 17395 bound_to 11000

$$$$
