AV-unprocessed.smi:769|AV-procd|sdf|3677|dock10
  -GOLD-   22720 1 93D 1   1.00000     0.00000
 Structure written by MMmdl.
 51 53  0  0  0  0  0  0  0  0  3 V2000
  147.0676  132.6940  154.0885 O   0  0  0  0  0  0  0  0  0  0  0  0
  147.5847  133.7257  153.6609 C   0  0  0  0  0  0  0  0  0  0  0  0
  148.7528  134.2037  154.1139 N   0  0  0  0  0  0  0  0  0  0  0  0
  149.5756  133.5638  155.1345 C   0  0  0  0  0  0  0  0  0  0  0  0
  150.1910  134.5957  156.1000 C   0  0  0  0  0  0  0  0  0  0  0  0
  149.9387  135.9953  155.6746 N   0  3  0  0  0  0  0  0  0  0  0  0
  149.5913  136.8748  156.8241 C   0  0  0  0  0  0  0  0  0  0  0  0
  149.3330  138.3244  156.3734 C   0  0  0  0  0  0  0  0  0  0  0  0
  150.5054  138.8073  155.6389 N   0  0  0  0  0  0  0  0  0  0  0  0
  151.3163  139.7871  156.1080 C   0  0  0  0  0  0  0  0  0  0  0  0
  152.3493  140.1134  155.5222 O   0  0  0  0  0  0  0  0  0  0  0  0
  150.9091  140.5451  157.3901 C   0  0  0  0  0  0  0  0  0  0  0  0
  149.8714  141.6734  157.2225 C   0  0  0  0  0  0  0  0  0  0  0  0
  151.0041  142.7022  157.2884 C   0  0  0  0  0  0  0  0  0  0  0  0
  151.9265  141.6088  157.8370 C   0  0  0  0  0  0  0  0  0  0  0  0
  150.7270  138.0162  154.4252 C   0  0  0  0  0  0  0  0  0  0  0  0
  151.0259  136.5602  154.8258 C   0  0  0  0  0  0  0  0  0  0  0  0
  147.0642  134.5235  152.7120 N   0  0  0  0  0  0  0  0  0  0  0  0
  145.8578  134.3628  151.9761 C   0  0  0  0  0  0  0  0  0  0  0  0
  145.4277  135.4521  151.1858 C   0  0  0  0  0  0  0  0  0  0  0  0
  144.2456  135.3383  150.4261 C   0  0  0  0  0  0  0  0  0  0  0  0
  143.5384  134.1886  150.4517 N   0  3  0  0  0  0  0  0  0  0  0  0
  143.9154  133.1160  151.1800 C   0  0  0  0  0  0  0  0  0  0  0  0
  145.0891  133.1705  151.9595 C   0  0  0  0  0  0  0  0  0  0  0  0
  149.1074  135.0600  153.7126 H   0  0  0  0  0  0  0  0  0  0  0  0
  148.9704  132.8286  155.6657 H   0  0  0  0  0  0  0  0  0  0  0  0
  150.3673  133.0079  154.6313 H   0  0  0  0  0  0  0  0  0  0  0  0
  149.7524  134.4380  157.0867 H   0  0  0  0  0  0  0  0  0  0  0  0
  151.2650  134.4397  156.2135 H   0  0  0  0  0  0  0  0  0  0  0  0
  148.7048  136.4872  157.3276 H   0  0  0  0  0  0  0  0  0  0  0  0
  150.4047  136.8547  157.5517 H   0  0  0  0  0  0  0  0  0  0  0  0
  148.4581  138.3665  155.7229 H   0  0  0  0  0  0  0  0  0  0  0  0
  149.0877  138.9402  157.2397 H   0  0  0  0  0  0  0  0  0  0  0  0
  150.6126  139.8652  158.1898 H   0  0  0  0  0  0  0  0  0  0  0  0
  149.3132  141.6898  156.2859 H   0  0  0  0  0  0  0  0  0  0  0  0
  149.1946  141.7414  158.0752 H   0  0  0  0  0  0  0  0  0  0  0  0
  151.3095  143.0534  156.3017 H   0  0  0  0  0  0  0  0  0  0  0  0
  150.8244  143.5300  157.9749 H   0  0  0  0  0  0  0  0  0  0  0  0
  152.0380  141.6489  158.9214 H   0  0  0  0  0  0  0  0  0  0  0  0
  152.8972  141.5651  157.3408 H   0  0  0  0  0  0  0  0  0  0  0  0
  149.8263  138.0526  153.8107 H   0  0  0  0  0  0  0  0  0  0  0  0
  151.5210  138.4006  153.7871 H   0  0  0  0  0  0  0  0  0  0  0  0
  151.9715  136.5152  155.3687 H   0  0  0  0  0  0  0  0  0  0  0  0
  151.1506  135.9638  153.9230 H   0  0  0  0  0  0  0  0  0  0  0  0
  147.5724  135.3756  152.5247 H   0  0  0  0  0  0  0  0  0  0  0  0
  145.9938  136.3722  151.1623 H   0  0  0  0  0  0  0  0  0  0  0  0
  143.8487  136.1260  149.8022 H   0  0  0  0  0  0  0  0  0  0  0  0
  143.2743  132.2489  151.1136 H   0  0  0  0  0  0  0  0  0  0  0  0
  145.3785  132.2928  152.5164 H   0  0  0  0  0  0  0  0  0  0  0  0
  149.1112  135.9717  155.0959 H   0  0  0  0  0  0  0  0  0  0  0  0
  142.6860  134.1259  149.8942 H   0  0  0  0  0  0  0  0  0  0  0  0
  1  2  2  0  0  0  0
  2  3  1  0  0  0  0
  2 18  1  0  0  0  0
  3  4  1  0  0  0  0
  3 25  1  0  0  0  0
  4  5  1  0  0  0  0
  4 26  1  0  0  0  0
  4 27  1  0  0  0  0
  5  6  1  0  0  0  0
  5 28  1  0  0  0  0
  5 29  1  0  0  0  0
  6 17  1  0  0  0  0
  6  7  1  0  0  0  0
  6 50  1  0  0  0  0
  7  8  1  0  0  0  0
  7 30  1  0  0  0  0
  7 31  1  0  0  0  0
  8  9  1  0  0  0  0
  8 32  1  0  0  0  0
  8 33  1  0  0  0  0
  9 10  1  0  0  0  0
  9 16  1  0  0  0  0
 10 11  2  0  0  0  0
 10 12  1  0  0  0  0
 12 15  1  0  0  0  0
 12 13  1  0  0  0  0
 12 34  1  0  0  0  0
 13 14  1  0  0  0  0
 13 35  1  0  0  0  0
 13 36  1  0  0  0  0
 14 15  1  0  0  0  0
 14 37  1  0  0  0  0
 14 38  1  0  0  0  0
 15 39  1  0  0  0  0
 15 40  1  0  0  0  0
 16 17  1  0  0  0  0
 16 41  1  0  0  0  0
 16 42  1  0  0  0  0
 17 43  1  0  0  0  0
 17 44  1  0  0  0  0
 18 19  1  0  0  0  0
 18 45  1  0  0  0  0
 19 24  1  0  0  0  0
 19 20  2  0  0  0  0
 20 21  1  0  0  0  0
 20 46  1  0  0  0  0
 21 22  2  0  0  0  0
 21 47  1  0  0  0  0
 22 23  1  0  0  0  0
 22 51  1  0  0  0  0
 23 24  2  0  0  0  0
 23 48  1  0  0  0  0
 24 49  1  0  0  0  0
M  CHG  1   6   1
M  CHG  1  22   1
M  END
> <s_m_source_file>
AV-unprocessed.smi

> <i_m_source_file_index>
769

> <i_lp_mmshare_version>
43012

> <i_f3d_flags>
0

> <s_epik_input>
W2NIXTFbY0hdbltjSF1bY0hdYzFbTkhdQyg9TylbTkhdW0NIMl1bQ0gyXU4yW0NIMl1bQ0gyXU4oW0NIMl1bQ0gyXTIpQyg9TylbQ0hdM1tDSDJdW0NIMl1bQ0gyXTM=

> <s_epik_cmdline>
J2VwaWtfcHl0aG9uJywgJy1waCcsICc3LjAnLCAnLXRuJywgJzgnLCAnLW1hJywgJzIwMCcsICctbWV0YWxfYmluZGluZycsICctaW1hZScsICc8aW5maWxlLm1hZT4nLCAnLW9tYWUnLCAnPG91dGZpbGUubWFlPic=

> <r_epik_Ionization_Penalty>
1.74797

> <r_epik_Ionization_Penalty_Charging>
1.74795

> <r_epik_Ionization_Penalty_Neutral>
1.97893e-05

> <r_epik_State_Penalty>
1.75255

> <r_epik_Charging_Adjusted_Penalty>
3.5005

> <i_epik_Tot_Q>
2

> <i_epik_Tot_abs_Q>
2

> <r_epik_Metal_State_Penalty>
1.84999

> <b_epik_Metal_Only>
0

> <s_lp_Force_Field>
OPLS_2005

> <r_lp_Energy>
63.8018

> <b_lp_Chiralities_Consistent>
1

> <s_lp_Variant>
AV-unprocessed.smi:769-4

> <Gold.Version>
5.8.1

> <Gold.Id.Protein>
6NUR|6NUR_protein|mol2

> <Gold.PLP.Fitness>
50.0053

> <Gold.PLP.PLP>
-37.2918

> <Gold.PLP.part.hbond>
-4.8189

> <Gold.PLP.part.metal>
0.0000

> <Gold.PLP.part.buried>
-1.9713

> <Gold.PLP.part.nonpolar>
-29.8142

> <Gold.PLP.part.repulsive>
0.1549

> <Gold.PLP.ligand.clash>
0.0000

> <Gold.PLP.ligand.torsion>
1.3577

> <Gold.PLP.Chemscore.Hbond>
5.0051

> <Gold.PLP.Chemscore.CHOScore>
0.0000

> <Gold.PLP.Chemscore.Metal>
0.0000

> <Gold.Chemscore.Hbonds>
donor molecule, donor type, donor heavy atom, donor atom, acceptor molecule, acceptor atom, score
      L1  H     3    25       P1  7948  0.54
      L1  H    18    45       P1  7948  0.99
      L1  H    22    51       P1 10186  2.00
      P1  H  7989  7998       L1    11  0.28
      P1  H  7997  8009       L1    11  0.81

> <Gold.PLP.Chemscore.Internal.Correction>
0.4136

> <Gold.Rescore>
     Score         DG    S(hbond)    S(metal)    S(lipo)     H(rot)  DE(clash)    DE(int)     intcor
     18.20     -20.88       3.01        0.00      84.35       1.76       0.14       2.54       ----

> <Gold.Chemscore.Fitness>
18.1962

> <Gold.Chemscore.DG>
-20.8775

> <Gold.Chemscore.ZeroCoef>
-5.4800

> <Gold.Chemscore.Hbond>
3.0054

> <Gold.Chemscore.Metal>
0.0000

> <Gold.Chemscore.Lipo>
84.3463

> <Gold.Chemscore.Internal_Hbond>
0.0000

> <Gold.Chemscore.DEClash>
0.1364

> <Gold.Chemscore.DEInternal>
2.5449

> <Gold.Chemscore.Rot>
1.7614

> <Gold.Chemscore.Internal.Correction>
   9.000000E+99

> <Gold.Chemscore.Hbonds>
donor molecule, donor type, donor heavy atom, donor atom, acceptor molecule, acceptor atom, score
      L1  H     3    25       P1  7948  0.18
      L1  H    18    45       P1  7948  0.94
      L1  H    22    51       P1 10186  0.97
      P1  H  7989  7998       L1    11  0.15
      P1  H  7997  8009       L1    11  0.80

> <Gold.Chemscore.Hbond.Weighted>
-10.0381

> <Gold.Chemscore.Metal.Weighted>
-0.0000

> <Gold.Chemscore.Lipo.Weighted>
-9.8685

> <Gold.Chemscore.Internal_Hbond.Weighted>
0.0000

> <Gold.Chemscore.DEClash.Weighted>
0.1364

> <Gold.Chemscore.DEInternal.Weighted>
2.5449

> <Gold.Chemscore.Rot.Weighted>
4.5091

> <Gold.Chemscore.Internal.Correction.Weighted>
   9.000000E+99

> <Gold.Protein.RotatedTorsions>
[ 6907 6896 6895 6894 ] final   93.05 input  -60.11 | X-H torsion
[ 7974 7965 7964 7962 ] final -167.73 input  175.53 | X-H torsion
[ 8008 7997 7996 7995 ] final -141.96 input   59.86 | X-H torsion
[ 10167 10162 10161 10158 ] final   37.28 input  -65.29 | X-H torsion
[ 10718 10713 10712 10709 ] final  127.29 input   66.30 | X-H torsion
[ 10763 10752 10751 10750 ] final  145.32 input  -60.55 | X-H torsion
[ 11005 11000 10999 10996 ] final   72.55 input  -57.11 | X-H torsion

> <Gold.Protein.ActiveResidues>
 VAL166  LYS551  ARG553  GLY616  TRP617  ASP618  TYR619  PRO620  LYS621  CYS622 
 ASP623  PHE694  ASN695  SER759  ASP760  ASP761  ALA762  ILE779  LEU786  VAL792 
 PHE793  MET794  SER795  GLU796  ALA797  LYS798  CYS799  TRP800  GLU811  SER814 

> <Gold.Protein.RotatedAtoms>
  152.5453  134.1407  159.8477 H   0  0  0  0  0  0  0  0  0  0  0  0  # atno 6907 bound_to 6896
  151.1443  133.4943  159.2604 H   0  0  0  0  0  0  0  0  0  0  0  0  # atno 6908 bound_to 6896
  151.1539  135.0251  159.8735 H   0  0  0  0  0  0  0  0  0  0  0  0  # atno 6909 bound_to 6896
  144.7217  140.2475  143.6283 H   0  0  0  0  0  0  0  0  0  0  0  0  # atno 7974 bound_to 7965
  155.4863  140.0564  157.2960 H   0  0  0  0  0  0  0  0  0  0  0  0  # atno 8008 bound_to 7997
  154.4640  140.2010  156.0118 H   0  0  0  0  0  0  0  0  0  0  0  0  # atno 8009 bound_to 7997
  156.0942  140.3229  155.7860 H   0  0  0  0  0  0  0  0  0  0  0  0  # atno 8010 bound_to 7997
  140.4048  144.1674  150.6135 H   0  0  0  0  0  0  0  0  0  0  0  0  # atno 10167 bound_to 10162
  157.5345  131.1098  150.8956 H   0  0  0  0  0  0  0  0  0  0  0  0  # atno 10718 bound_to 10713
  154.0034  135.2921  155.3400 H   0  0  0  0  0  0  0  0  0  0  0  0  # atno 10763 bound_to 10752
  154.7146  135.5135  153.8721 H   0  0  0  0  0  0  0  0  0  0  0  0  # atno 10764 bound_to 10752
  153.0755  135.6662  154.0273 H   0  0  0  0  0  0  0  0  0  0  0  0  # atno 10765 bound_to 10752
  139.9485  134.7270  156.0920 H   0  0  0  0  0  0  0  0  0  0  0  0  # atno 11005 bound_to 11000
  145.8260  139.2065  143.1910 LP  0  0  0  0  0  0  0  0  0  0  0  0  # atno 17320 bound_to 7965
  146.0472  140.8106  142.9799 LP  0  0  0  0  0  0  0  0  0  0  0  0  # atno 17321 bound_to 7965
  140.4701  143.2416  151.9100 LP  0  0  0  0  0  0  0  0  0  0  0  0  # atno 17342 bound_to 10162
  139.4784  144.5378  151.8573 LP  0  0  0  0  0  0  0  0  0  0  0  0  # atno 17343 bound_to 10162
  156.9527  130.5426  149.5283 LP  0  0  0  0  0  0  0  0  0  0  0  0  # atno 17370 bound_to 10713
  156.0448  130.5526  150.8856 LP  0  0  0  0  0  0  0  0  0  0  0  0  # atno 17371 bound_to 10713
  141.1142  133.6633  156.3052 LP  0  0  0  0  0  0  0  0  0  0  0  0  # atno 17394 bound_to 11000
  140.5776  134.5778  157.5472 LP  0  0  0  0  0  0  0  0  0  0  0  0  # atno 17395 bound_to 11000

$$$$
