AV-unprocessed.smi:774|AV-procd|sdf|3694|dock2
  -GOLD-   22720 1113D 1   1.00000     0.00000
 Structure written by MMmdl.
 37 38  0  0  0  0  0  0  0  0  1 V2000
  146.2985  129.4985  152.3356 C   0  0  0  0  0  0  0  0  0  0  0  0
  146.3095  131.0292  152.3435 C   0  0  0  0  0  0  0  0  0  0  0  0
  144.8520  131.7082  151.5036 S   0  0  0  0  0  0  0  0  0  0  0  0
  145.3637  133.4394  151.3008 C   0  0  1  0  0  0  0  0  0  0  0  0
  144.4318  134.2403  150.3928 C   0  0  0  0  0  0  0  0  0  0  0  0
  144.7083  135.6994  150.7574 C   0  0  0  0  0  0  0  0  0  0  0  0
  145.1326  135.6952  152.2380 C   0  0  2  0  0  0  0  0  0  0  0  0
  146.3536  136.4737  152.4315 N   0  0  0  0  0  0  0  0  0  0  0  0
  146.4278  137.6424  153.0838 C   0  0  0  0  0  0  0  0  0  0  0  0
  145.4590  138.1913  153.6089 O   0  0  0  0  0  0  0  0  0  0  0  0
  147.6878  138.1097  153.1040 N   0  0  0  0  0  0  0  0  0  0  0  0
  148.1607  139.3344  153.6464 C   0  0  0  0  0  0  0  0  0  0  0  0
  147.4189  140.5401  153.6421 C   0  0  0  0  0  0  0  0  0  0  0  0
  148.0032  141.6993  154.1876 C   0  0  0  0  0  0  0  0  0  0  0  0
  149.3079  141.6122  154.7108 C   0  0  0  0  0  0  0  0  0  0  0  0
  150.0317  140.4730  154.7089 N   0  0  0  0  0  0  0  0  0  0  0  0
  149.4656  139.3660  154.1825 C   0  0  0  0  0  0  0  0  0  0  0  0
  145.3424  134.2167  152.6198 C   0  0  0  0  0  0  0  0  0  0  0  0
  147.1792  129.1015  152.8408 H   0  0  0  0  0  0  0  0  0  0  0  0
  146.2965  129.1113  151.3166 H   0  0  0  0  0  0  0  0  0  0  0  0
  145.4175  129.1079  152.8455 H   0  0  0  0  0  0  0  0  0  0  0  0
  146.3326  131.3977  153.3694 H   0  0  0  0  0  0  0  0  0  0  0  0
  147.2098  131.3932  151.8490 H   0  0  0  0  0  0  0  0  0  0  0  0
  146.3755  133.4648  150.8936 H   0  0  0  0  0  0  0  0  0  0  0  0
  144.5979  134.0411  149.3339 H   0  0  0  0  0  0  0  0  0  0  0  0
  143.3924  133.9980  150.6187 H   0  0  0  0  0  0  0  0  0  0  0  0
  145.5146  136.0763  150.1258 H   0  0  0  0  0  0  0  0  0  0  0  0
  143.8392  136.3338  150.5803 H   0  0  0  0  0  0  0  0  0  0  0  0
  144.3256  136.1132  152.8429 H   0  0  0  0  0  0  0  0  0  0  0  0
  147.2019  136.0941  152.0376 H   0  0  0  0  0  0  0  0  0  0  0  0
  148.3974  137.4988  152.7262 H   0  0  0  0  0  0  0  0  0  0  0  0
  146.4278  140.6011  153.2196 H   0  0  0  0  0  0  0  0  0  0  0  0
  147.4646  142.6353  154.1995 H   0  0  0  0  0  0  0  0  0  0  0  0
  149.7855  142.4826  155.1362 H   0  0  0  0  0  0  0  0  0  0  0  0
  150.0750  138.4739  154.1944 H   0  0  0  0  0  0  0  0  0  0  0  0
  144.4982  133.8881  153.2278 H   0  0  0  0  0  0  0  0  0  0  0  0
  146.2436  134.0445  153.2099 H   0  0  0  0  0  0  0  0  0  0  0  0
  1  2  1  0  0  0  0
  1 19  1  0  0  0  0
  1 20  1  0  0  0  0
  1 21  1  0  0  0  0
  2  3  1  0  0  0  0
  2 22  1  0  0  0  0
  2 23  1  0  0  0  0
  3  4  1  0  0  0  0
  4 18  1  0  0  0  0
  4  5  1  0  0  0  0
  4 24  1  0  0  0  0
  5  6  1  0  0  0  0
  5 25  1  0  0  0  0
  5 26  1  0  0  0  0
  6  7  1  0  0  0  0
  6 27  1  0  0  0  0
  6 28  1  0  0  0  0
  7  8  1  0  0  0  0
  7 18  1  0  0  0  0
  7 29  1  0  0  0  0
  8  9  1  0  0  0  0
  8 30  1  0  0  0  0
  9 10  2  0  0  0  0
  9 11  1  0  0  0  0
 11 12  1  0  0  0  0
 11 31  1  0  0  0  0
 12 17  1  0  0  0  0
 12 13  2  0  0  0  0
 13 14  1  0  0  0  0
 13 32  1  0  0  0  0
 14 15  2  0  0  0  0
 14 33  1  0  0  0  0
 15 16  1  0  0  0  0
 15 34  1  0  0  0  0
 16 17  2  0  0  0  0
 17 35  1  0  0  0  0
 18 36  1  0  0  0  0
 18 37  1  0  0  0  0
M  END
> <s_m_source_file>
AV-unprocessed.smi

> <i_m_source_file_index>
774

> <i_lp_mmshare_version>
43012

> <i_f3d_flags>
0

> <s_epik_input>
W0NIM11bQ0gyXVNbQ0BASF0xW0NIMl1bQ0gyXVtDQEhdKFtDSDJdMSlbTkhdQyg9TylbTkhdYzJbY0hdW2NIXVtjSF1uW2NIXTI=

> <s_epik_cmdline>
J2VwaWtfcHl0aG9uJywgJy1waCcsICc3LjAnLCAnLXRuJywgJzgnLCAnLW1hJywgJzIwMCcsICctbWV0YWxfYmluZGluZycsICctaW1hZScsICc8aW5maWxlLm1hZT4nLCAnLW9tYWUnLCAnPG91dGZpbGUubWFlPic=

> <r_epik_Ionization_Penalty>
0.00485718

> <r_epik_Ionization_Penalty_Charging>
0

> <r_epik_Ionization_Penalty_Neutral>
0.00485718

> <r_epik_State_Penalty>
0.00349461

> <r_epik_Charging_Adjusted_Penalty>
0.00349461

> <i_epik_Tot_Q>
0

> <i_epik_Tot_abs_Q>
0

> <r_epik_Metal_State_Penalty>
-0

> <b_epik_Metal_Only>
0

> <s_lp_Force_Field>
OPLS_2005

> <r_lp_Energy>
19.7013

> <b_lp_Chiralities_Consistent>
1

> <s_lp_Variant>
AV-unprocessed.smi:774-4

> <Gold.Version>
5.8.1

> <Gold.Id.Protein>
6NUR|6NUR_protein|mol2

> <Gold.PLP.Fitness>
43.3688

> <Gold.PLP.PLP>
-32.5022

> <Gold.PLP.part.hbond>
-3.0337

> <Gold.PLP.part.metal>
0.0000

> <Gold.PLP.part.buried>
-0.1570

> <Gold.PLP.part.nonpolar>
-29.3343

> <Gold.PLP.part.repulsive>
0.3644

> <Gold.PLP.ligand.clash>
0.0000

> <Gold.PLP.ligand.torsion>
0.4294

> <Gold.PLP.Chemscore.Hbond>
2.9040

> <Gold.PLP.Chemscore.CHOScore>
1.0000

> <Gold.PLP.Chemscore.Metal>
0.0000

> <Gold.Chemscore.Hbonds>
donor molecule, donor type, donor heavy atom, donor atom, acceptor molecule, acceptor atom, score
      L1  H     8    30       P1  7948  0.98
      L1  H    11    31       P1  7948  1.00
      P1  H  7989  7998       L1    16  0.90
      L1  C    15    34       P1  8028  1.00

> <Gold.PLP.Chemscore.Internal.Correction>
0.0134

> <Gold.Rescore>
     Score         DG    S(hbond)    S(metal)    S(lipo)     H(rot)  DE(clash)    DE(int)     intcor
     17.90     -19.34       2.16        0.00      85.37       1.30       0.30       1.14       ----

> <Gold.Chemscore.Fitness>
17.8985

> <Gold.Chemscore.DG>
-19.3446

> <Gold.Chemscore.ZeroCoef>
-5.4800

> <Gold.Chemscore.Hbond>
2.1601

> <Gold.Chemscore.Metal>
0.0000

> <Gold.Chemscore.Lipo>
85.3700

> <Gold.Chemscore.Internal_Hbond>
0.0000

> <Gold.Chemscore.DEClash>
0.3050

> <Gold.Chemscore.DEInternal>
1.1411

> <Gold.Chemscore.Rot>
1.3041

> <Gold.Chemscore.Internal.Correction>
   9.000000E+99

> <Gold.Chemscore.Hbonds>
donor molecule, donor type, donor heavy atom, donor atom, acceptor molecule, acceptor atom, score
      L1  H     8    30       P1  7948  0.93
      L1  H    11    31       P1  7948  0.98
      P1  H  7989  7998       L1    16  0.19

> <Gold.Chemscore.Hbond.Weighted>
-7.2147

> <Gold.Chemscore.Metal.Weighted>
-0.0000

> <Gold.Chemscore.Lipo.Weighted>
-9.9883

> <Gold.Chemscore.Internal_Hbond.Weighted>
0.0000

> <Gold.Chemscore.DEClash.Weighted>
0.3050

> <Gold.Chemscore.DEInternal.Weighted>
1.1411

> <Gold.Chemscore.Rot.Weighted>
3.3384

> <Gold.Chemscore.Internal.Correction.Weighted>
   9.000000E+99

> <Gold.Protein.RotatedTorsions>
[ 6907 6896 6895 6894 ] final  179.33 input  -60.11 | X-H torsion
[ 7974 7965 7964 7962 ] final   76.58 input  175.53 | X-H torsion
[ 8008 7997 7996 7995 ] final   -8.62 input   59.86 | X-H torsion
[ 10167 10162 10161 10158 ] final  136.88 input  -65.29 | X-H torsion
[ 10718 10713 10712 10709 ] final  103.67 input   66.30 | X-H torsion
[ 10763 10752 10751 10750 ] final  -25.97 input  -60.55 | X-H torsion
[ 11005 11000 10999 10996 ] final  112.06 input  -57.11 | X-H torsion

> <Gold.Protein.ActiveResidues>
 VAL166  LYS551  ARG553  GLY616  TRP617  ASP618  TYR619  PRO620  LYS621  CYS622 
 ASP623  PHE694  ASN695  SER759  ASP760  ASP761  ALA762  ILE779  LEU786  VAL792 
 PHE793  MET794  SER795  GLU796  ALA797  LYS798  CYS799  TRP800  GLU811  SER814 

> <Gold.Protein.RotatedAtoms>
  151.6735  133.3313  159.3201 H   0  0  0  0  0  0  0  0  0  0  0  0  # atno 6907 bound_to 6896
  150.7856  134.6842  159.6470 H   0  0  0  0  0  0  0  0  0  0  0  0  # atno 6908 bound_to 6896
  152.3925  134.6421  160.0154 H   0  0  0  0  0  0  0  0  0  0  0  0  # atno 6909 bound_to 6896
  145.7010  139.2583  143.1705 H   0  0  0  0  0  0  0  0  0  0  0  0  # atno 7974 bound_to 7965
  154.5724  140.2376  155.8173 H   0  0  0  0  0  0  0  0  0  0  0  0  # atno 8008 bound_to 7997
  156.2117  140.3024  155.9704 H   0  0  0  0  0  0  0  0  0  0  0  0  # atno 8009 bound_to 7997
  155.2689  140.0417  157.2995 H   0  0  0  0  0  0  0  0  0  0  0  0  # atno 8010 bound_to 7997
  139.5164  144.6440  151.5490 H   0  0  0  0  0  0  0  0  0  0  0  0  # atno 10167 bound_to 10162
  157.6765  131.0784  150.5590 H   0  0  0  0  0  0  0  0  0  0  0  0  # atno 10718 bound_to 10713
  153.7084  135.6952  153.5044 H   0  0  0  0  0  0  0  0  0  0  0  0  # atno 10763 bound_to 10752
  153.2290  135.4344  155.0574 H   0  0  0  0  0  0  0  0  0  0  0  0  # atno 10764 bound_to 10752
  154.8322  135.3479  154.6622 H   0  0  0  0  0  0  0  0  0  0  0  0  # atno 10765 bound_to 10752
  139.8918  134.9521  156.6527 H   0  0  0  0  0  0  0  0  0  0  0  0  # atno 11005 bound_to 11000
  146.0797  140.7777  142.9647 LP  0  0  0  0  0  0  0  0  0  0  0  0  # atno 17320 bound_to 7965
  144.6968  140.3470  143.7189 LP  0  0  0  0  0  0  0  0  0  0  0  0  # atno 17321 bound_to 7965
  140.6218  143.9243  150.6532 LP  0  0  0  0  0  0  0  0  0  0  0  0  # atno 17342 bound_to 10162
  140.2519  143.3587  152.1398 LP  0  0  0  0  0  0  0  0  0  0  0  0  # atno 17343 bound_to 10162
  156.5893  130.4325  149.5943 LP  0  0  0  0  0  0  0  0  0  0  0  0  # atno 17370 bound_to 10713
  156.2597  130.6955  151.1719 LP  0  0  0  0  0  0  0  0  0  0  0  0  # atno 17371 bound_to 10713
  140.7508  133.8899  155.8345 LP  0  0  0  0  0  0  0  0  0  0  0  0  # atno 17394 bound_to 11000
  141.0002  134.1160  157.4324 LP  0  0  0  0  0  0  0  0  0  0  0  0  # atno 17395 bound_to 11000

$$$$
