AV-unprocessed.smi:3111|AV-procd|sdf|11833|dock7
  -GOLD-   2272017203D 1   1.00000     0.00000
 Structure written by MMmdl.
 29 29  0  0  0  0  0  0  0  0  1 V2000
  149.8722  139.8118  154.4100 C   0  0  0  0  0  0  0  0  0  0  0  0
  150.4146  139.7606  155.7590 N   0  0  0  0  0  0  0  0  0  0  0  0
  151.7146  139.8983  156.0542 C   0  0  0  0  0  0  0  0  0  0  0  0
  152.5808  140.0954  155.2003 O   0  0  0  0  0  0  0  0  0  0  0  0
  152.0795  139.8189  157.5423 C   0  0  0  0  0  0  0  0  0  0  0  0
  152.4729  141.1114  158.0966 N   0  0  0  0  0  0  0  0  0  0  0  0
  151.6306  142.0224  158.6104 C   0  0  0  0  0  0  0  0  0  0  0  0
  150.4074  141.8781  158.6176 O   0  0  0  0  0  0  0  0  0  0  0  0
  152.2798  143.2764  159.2172 C   0  0  1  0  0  0  0  0  0  0  0  0
  151.3026  144.4608  159.3418 C   0  0  0  0  0  0  0  0  0  0  0  0
  152.8894  142.9585  160.5012 N   0  0  0  0  0  0  0  0  0  0  0  0
  152.5891  143.5335  161.7302 C   0  0  0  0  0  0  0  0  0  0  0  0
  153.4124  142.9373  162.6582 C   0  0  0  0  0  0  0  0  0  0  0  0
  154.2261  141.9988  162.0292 N   0  0  0  0  0  0  0  0  0  0  0  0
  153.8612  142.0677  160.7556 C   0  0  0  0  0  0  0  0  0  0  0  0
  148.7907  139.6800  154.4389 H   0  0  0  0  0  0  0  0  0  0  0  0
  150.2959  139.0197  153.7912 H   0  0  0  0  0  0  0  0  0  0  0  0
  150.0867  140.7729  153.9411 H   0  0  0  0  0  0  0  0  0  0  0  0
  149.7628  139.6057  156.5145 H   0  0  0  0  0  0  0  0  0  0  0  0
  151.2103  139.4598  158.0936 H   0  0  0  0  0  0  0  0  0  0  0  0
  152.8734  139.0853  157.6950 H   0  0  0  0  0  0  0  0  0  0  0  0
  153.4629  141.3057  158.1376 H   0  0  0  0  0  0  0  0  0  0  0  0
  153.0795  143.5822  158.5406 H   0  0  0  0  0  0  0  0  0  0  0  0
  150.8652  144.7153  158.3757 H   0  0  0  0  0  0  0  0  0  0  0  0
  151.8158  145.3492  159.7112 H   0  0  0  0  0  0  0  0  0  0  0  0
  150.4851  144.2430  160.0303 H   0  0  0  0  0  0  0  0  0  0  0  0
  151.8356  144.2994  161.8409 H   0  0  0  0  0  0  0  0  0  0  0  0
  153.4822  143.1116  163.7218 H   0  0  0  0  0  0  0  0  0  0  0  0
  154.3138  141.4573  159.9878 H   0  0  0  0  0  0  0  0  0  0  0  0
  1  2  1  0  0  0  0
  1 16  1  0  0  0  0
  1 17  1  0  0  0  0
  1 18  1  0  0  0  0
  2  3  1  0  0  0  0
  2 19  1  0  0  0  0
  3  4  2  0  0  0  0
  3  5  1  0  0  0  0
  5  6  1  0  0  0  0
  5 20  1  0  0  0  0
  5 21  1  0  0  0  0
  6  7  1  0  0  0  0
  6 22  1  0  0  0  0
  7  8  2  0  0  0  0
  7  9  1  0  0  0  0
  9 10  1  0  0  0  0
  9 11  1  0  0  0  0
  9 23  1  0  0  0  0
 10 24  1  0  0  0  0
 10 25  1  0  0  0  0
 10 26  1  0  0  0  0
 11 15  1  0  0  0  0
 11 12  1  0  0  0  0
 12 13  2  0  0  0  0
 12 27  1  0  0  0  0
 13 14  1  0  0  0  0
 13 28  1  0  0  0  0
 14 15  2  0  0  0  0
 15 29  1  0  0  0  0
M  END
> <s_m_source_file>
AV-unprocessed.smi

> <i_m_source_file_index>
3111

> <i_lp_mmshare_version>
43012

> <i_f3d_flags>
0

> <s_epik_input>
W0NIM11bTkhdQyg9TylbQ0gyXVtOSF1DKD1PKVtDQEhdKFtDSDNdKW4xW2NIXVtjSF1uW2NIXTE=

> <s_epik_cmdline>
J2VwaWtfcHl0aG9uJywgJy1waCcsICc3LjAnLCAnLXRuJywgJzgnLCAnLW1hJywgJzIwMCcsICctbWV0YWxfYmluZGluZycsICctaW1hZScsICc8aW5maWxlLm1hZT4nLCAnLW9tYWUnLCAnPG91dGZpbGUubWFlPic=

> <r_lp_tautomer_probability>
1

> <r_epik_Ionization_Penalty>
0.278299

> <r_epik_Ionization_Penalty_Charging>
0.278299

> <r_epik_Ionization_Penalty_Neutral>
1.78617e-07

> <r_epik_State_Penalty>
0.270759

> <r_epik_Charging_Adjusted_Penalty>
0.549058

> <i_epik_Tot_Q>
0

> <i_epik_Tot_abs_Q>
0

> <r_epik_Metal_State_Penalty>
0.183212

> <b_epik_Metal_Only>
0

> <s_lp_Force_Field>
OPLS_2005

> <r_lp_Energy>
4.73549

> <b_lp_Chiralities_Consistent>
1

> <s_lp_Variant>
AV-unprocessed.smi:3111-2

> <Gold.Version>
5.8.1

> <Gold.Id.Protein>
6NUR|6NUR_protein|mol2

> <Gold.PLP.Fitness>
39.9567

> <Gold.PLP.PLP>
-37.2031

> <Gold.PLP.part.hbond>
-3.0000

> <Gold.PLP.part.metal>
0.0000

> <Gold.PLP.part.buried>
-2.9100

> <Gold.PLP.part.nonpolar>
-29.6608

> <Gold.PLP.part.repulsive>
0.2083

> <Gold.PLP.ligand.clash>
0.0000

> <Gold.PLP.ligand.torsion>
0.7879

> <Gold.PLP.Chemscore.Hbond>
1.4161

> <Gold.PLP.Chemscore.CHOScore>
0.0000

> <Gold.PLP.Chemscore.Metal>
0.0000

> <Gold.Chemscore.Hbonds>
donor molecule, donor type, donor heavy atom, donor atom, acceptor molecule, acceptor atom, score
      P1  H  7989  7998       L1     4  0.48
      P1  H  7997  8010       L1     4  1.00

> <Gold.PLP.Chemscore.Internal.Correction>
0.0812

> <Gold.Rescore>
     Score         DG    S(hbond)    S(metal)    S(lipo)     H(rot)  DE(clash)    DE(int)     intcor
     10.04     -10.89       1.24        0.00      60.46       2.27       0.04       0.81       ----

> <Gold.Chemscore.Fitness>
10.0424

> <Gold.Chemscore.DG>
-10.8930

> <Gold.Chemscore.ZeroCoef>
-5.4800

> <Gold.Chemscore.Hbond>
1.2432

> <Gold.Chemscore.Metal>
0.0000

> <Gold.Chemscore.Lipo>
60.4622

> <Gold.Chemscore.Internal_Hbond>
0.0000

> <Gold.Chemscore.DEClash>
0.0360

> <Gold.Chemscore.DEInternal>
0.8145

> <Gold.Chemscore.Rot>
2.2709

> <Gold.Chemscore.Internal.Correction>
   9.000000E+99

> <Gold.Chemscore.Hbonds>
donor molecule, donor type, donor heavy atom, donor atom, acceptor molecule, acceptor atom, score
      P1  H  7989  7998       L1     4  0.32
      P1  H  7997  8010       L1     4  0.76

> <Gold.Chemscore.Hbond.Weighted>
-4.1524

> <Gold.Chemscore.Metal.Weighted>
-0.0000

> <Gold.Chemscore.Lipo.Weighted>
-7.0741

> <Gold.Chemscore.Internal_Hbond.Weighted>
0.0000

> <Gold.Chemscore.DEClash.Weighted>
0.0360

> <Gold.Chemscore.DEInternal.Weighted>
0.8145

> <Gold.Chemscore.Rot.Weighted>
5.8135

> <Gold.Chemscore.Internal.Correction.Weighted>
   9.000000E+99

> <Gold.Protein.RotatedTorsions>
[ 6907 6896 6895 6894 ] final  -80.88 input  -60.11 | X-H torsion
[ 7974 7965 7964 7962 ] final  -77.79 input  175.53 | X-H torsion
[ 8008 7997 7996 7995 ] final   94.74 input   59.86 | X-H torsion
[ 10167 10162 10161 10158 ] final    7.75 input  -65.29 | X-H torsion
[ 10718 10713 10712 10709 ] final   81.55 input   66.30 | X-H torsion
[ 10763 10752 10751 10750 ] final   80.44 input  -60.55 | X-H torsion
[ 11005 11000 10999 10996 ] final  138.03 input  -57.11 | X-H torsion

> <Gold.Protein.ActiveResidues>
 VAL166  LYS551  ARG553  GLY616  TRP617  ASP618  TYR619  PRO620  LYS621  CYS622 
 ASP623  PHE694  ASN695  SER759  ASP760  ASP761  ALA762  ILE779  LEU786  VAL792 
 PHE793  MET794  SER795  GLU796  ALA797  LYS798  CYS799  TRP800  GLU811  SER814 

> <Gold.Protein.RotatedAtoms>
  150.6921  134.3902  159.5072 H   0  0  0  0  0  0  0  0  0  0  0  0  # atno 6907 bound_to 6896
  152.1691  134.8846  160.0545 H   0  0  0  0  0  0  0  0  0  0  0  0  # atno 6908 bound_to 6896
  151.9879  133.3745  159.4170 H   0  0  0  0  0  0  0  0  0  0  0  0  # atno 6909 bound_to 6896
  145.5950  140.9421  143.1272 H   0  0  0  0  0  0  0  0  0  0  0  0  # atno 7974 bound_to 7965
  156.0612  140.3296  155.7464 H   0  0  0  0  0  0  0  0  0  0  0  0  # atno 8008 bound_to 7997
  155.5451  140.0605  157.2879 H   0  0  0  0  0  0  0  0  0  0  0  0  # atno 8009 bound_to 7997
  154.4482  140.1904  156.0619 H   0  0  0  0  0  0  0  0  0  0  0  0  # atno 8010 bound_to 7997
  140.6354  143.7899  150.7352 H   0  0  0  0  0  0  0  0  0  0  0  0  # atno 10167 bound_to 10162
  157.6835  131.0009  150.2243 H   0  0  0  0  0  0  0  0  0  0  0  0  # atno 10718 bound_to 10713
  153.1034  135.4802  154.8908 H   0  0  0  0  0  0  0  0  0  0  0  0  # atno 10763 bound_to 10752
  154.7404  135.3081  154.8741 H   0  0  0  0  0  0  0  0  0  0  0  0  # atno 10764 bound_to 10752
  153.9351  135.6840  153.4798 H   0  0  0  0  0  0  0  0  0  0  0  0  # atno 10765 bound_to 10752
  140.0155  134.9420  157.0367 H   0  0  0  0  0  0  0  0  0  0  0  0  # atno 11005 bound_to 11000
  144.7335  139.7656  143.7338 LP  0  0  0  0  0  0  0  0  0  0  0  0  # atno 17320 bound_to 7965
  146.1619  139.4736  142.9983 LP  0  0  0  0  0  0  0  0  0  0  0  0  # atno 17321 bound_to 7965
  140.1519  143.4350  152.2125 LP  0  0  0  0  0  0  0  0  0  0  0  0  # atno 17342 bound_to 10162
  139.5564  144.7376  151.4280 LP  0  0  0  0  0  0  0  0  0  0  0  0  # atno 17343 bound_to 10162
  156.2888  130.3743  149.7862 LP  0  0  0  0  0  0  0  0  0  0  0  0  # atno 17370 bound_to 10713
  156.5528  130.8349  151.3305 LP  0  0  0  0  0  0  0  0  0  0  0  0  # atno 17371 bound_to 10713
  140.4478  134.1614  155.7179 LP  0  0  0  0  0  0  0  0  0  0  0  0  # atno 17394 bound_to 11000
  141.1740  133.8551  157.1481 LP  0  0  0  0  0  0  0  0  0  0  0  0  # atno 17395 bound_to 11000

$$$$
