AV-unprocessed.smi:3025|AV-procd|sdf|11508|dock2
  -GOLD-   2272016443D 1   1.00000     0.00000
 Structure written by MMmdl.
 42 43  0  0  0  0  0  0  0  0  2 V2000
  151.3956  145.0235  160.1705 C   0  0  0  0  0  0  0  0  0  0  0  0
  152.5269  144.4833  159.2890 C   0  0  0  0  0  0  0  0  0  0  0  0
  152.0512  144.1430  157.8665 C   0  0  0  0  0  0  0  0  0  0  0  0
  151.2252  142.8436  157.7682 C   0  0  2  0  0  0  0  0  0  0  0  0
  151.1333  142.3058  156.3238 C   0  0  0  0  0  0  0  0  0  0  0  0
  150.2817  141.0269  156.2423 C   0  0  0  0  0  0  0  0  0  0  0  0
  148.8662  141.2260  156.8244 C   0  0  2  0  0  0  0  0  0  0  0  0
  148.0290  142.1128  155.9831 N   0  3  0  0  0  0  0  0  0  0  0  0
  147.8570  141.6832  154.5798 C   0  0  0  0  0  0  0  0  0  0  0  0
  146.7765  142.5185  153.8808 C   0  0  0  0  0  0  0  0  0  0  0  0
  145.5658  142.6975  154.7355 C   0  0  0  0  0  0  0  0  0  0  0  0
  144.9901  141.6583  155.3423 N   0  0  0  0  0  0  0  0  0  0  0  0
  143.9857  142.2507  156.0240 N   0  0  0  0  0  0  0  0  0  0  0  0
  144.0324  143.5635  155.8017 C   0  0  0  0  0  0  0  0  0  0  0  0
  145.0221  143.9256  154.9958 N   0  0  0  0  0  0  0  0  0  0  0  0
  148.9553  141.7779  158.2593 C   0  0  0  0  0  0  0  0  0  0  0  0
  149.8096  143.0553  158.3418 C   0  0  0  0  0  0  0  0  0  0  0  0
  151.7593  145.2536  161.1723 H   0  0  0  0  0  0  0  0  0  0  0  0
  150.5903  144.2951  160.2693 H   0  0  0  0  0  0  0  0  0  0  0  0
  150.9725  145.9373  159.7524 H   0  0  0  0  0  0  0  0  0  0  0  0
  153.3247  145.2246  159.2528 H   0  0  0  0  0  0  0  0  0  0  0  0
  152.9504  143.5939  159.7569 H   0  0  0  0  0  0  0  0  0  0  0  0
  151.4424  144.9729  157.5051 H   0  0  0  0  0  0  0  0  0  0  0  0
  152.9095  144.0864  157.1955 H   0  0  0  0  0  0  0  0  0  0  0  0
  151.7179  142.0872  158.3813 H   0  0  0  0  0  0  0  0  0  0  0  0
  150.7134  143.0703  155.6689 H   0  0  0  0  0  0  0  0  0  0  0  0
  152.1279  142.0854  155.9372 H   0  0  0  0  0  0  0  0  0  0  0  0
  150.2399  140.6702  155.2135 H   0  0  0  0  0  0  0  0  0  0  0  0
  150.7841  140.2381  156.8036 H   0  0  0  0  0  0  0  0  0  0  0  0
  148.3669  140.2573  156.8739 H   0  0  0  0  0  0  0  0  0  0  0  0
  147.1095  142.1464  156.3995 H   0  0  0  0  0  0  0  0  0  0  0  0
  148.7997  141.7831  154.0424 H   0  0  0  0  0  0  0  0  0  0  0  0
  147.5808  140.6280  154.5567 H   0  0  0  0  0  0  0  0  0  0  0  0
  147.1729  143.5012  153.6210 H   0  0  0  0  0  0  0  0  0  0  0  0
  146.4835  142.0450  152.9424 H   0  0  0  0  0  0  0  0  0  0  0  0
  143.3363  144.2644  156.2385 H   0  0  0  0  0  0  0  0  0  0  0  0
  147.9567  141.9698  158.6534 H   0  0  0  0  0  0  0  0  0  0  0  0
  149.3936  141.0179  158.9076 H   0  0  0  0  0  0  0  0  0  0  0  0
  149.8752  143.3749  159.3825 H   0  0  0  0  0  0  0  0  0  0  0  0
  149.3124  143.8653  157.8067 H   0  0  0  0  0  0  0  0  0  0  0  0
  148.4215  143.0432  156.0015 H   0  0  0  0  0  0  0  0  0  0  0  0
  143.3308  141.7431  156.6022 H   0  0  0  0  0  0  0  0  0  0  0  0
  1  2  1  0  0  0  0
  1 18  1  0  0  0  0
  1 19  1  0  0  0  0
  1 20  1  0  0  0  0
  2  3  1  0  0  0  0
  2 21  1  0  0  0  0
  2 22  1  0  0  0  0
  3  4  1  0  0  0  0
  3 23  1  0  0  0  0
  3 24  1  0  0  0  0
  4 17  1  0  0  0  0
  4  5  1  0  0  0  0
  4 25  1  0  0  0  0
  5  6  1  0  0  0  0
  5 26  1  0  0  0  0
  5 27  1  0  0  0  0
  6  7  1  0  0  0  0
  6 28  1  0  0  0  0
  6 29  1  0  0  0  0
  7  8  1  0  0  0  0
  7 16  1  0  0  0  0
  7 30  1  0  0  0  0
  8  9  1  0  0  0  0
  8 31  1  0  0  0  0
  8 41  1  0  0  0  0
  9 10  1  0  0  0  0
  9 32  1  0  0  0  0
  9 33  1  0  0  0  0
 10 34  1  0  0  0  0
 10 35  1  0  0  0  0
 10 11  1  0  0  0  0
 11 15  1  0  0  0  0
 11 12  2  0  0  0  0
 12 13  1  0  0  0  0
 13 14  1  0  0  0  0
 13 42  1  0  0  0  0
 14 15  2  0  0  0  0
 14 36  1  0  0  0  0
 16 17  1  0  0  0  0
 16 37  1  0  0  0  0
 16 38  1  0  0  0  0
 17 39  1  0  0  0  0
 17 40  1  0  0  0  0
M  CHG  1   8   1
M  END
> <s_m_source_file>
AV-unprocessed.smi

> <i_m_source_file_index>
3025

> <i_lp_mmshare_version>
43012

> <i_f3d_flags>
0

> <s_epik_input>
W0NIM11bQ0gyXVtDSDJdW0NAQEhdMVtDSDJdW0NIMl1bQ0BIXShbQ0gyXVtDSDJdMSlbTkhdW0NIMl1bQ0gyXWMybm5bY0hdW25IXTI=

> <s_epik_cmdline>
J2VwaWtfcHl0aG9uJywgJy1waCcsICc3LjAnLCAnLXRuJywgJzgnLCAnLW1hJywgJzIwMCcsICctbWV0YWxfYmluZGluZycsICctaW1hZScsICc8aW5maWxlLm1hZT4nLCAnLW9tYWUnLCAnPG91dGZpbGUubWFlPic=

> <r_epik_Ionization_Penalty>
0.00995411

> <r_epik_Ionization_Penalty_Charging>
0.000442289

> <r_epik_Ionization_Penalty_Neutral>
0.00951182

> <r_epik_State_Penalty>
0.448541

> <r_epik_Charging_Adjusted_Penalty>
0.448983

> <i_epik_Tot_Q>
1

> <i_epik_Tot_abs_Q>
1

> <r_epik_Metal_State_Penalty>
0.682245

> <b_epik_Metal_Only>
0

> <s_lp_Force_Field>
OPLS_2005

> <r_lp_Energy>
14.0161

> <b_lp_Chiralities_Consistent>
1

> <s_lp_Variant>
AV-unprocessed.smi:3025-4

> <Gold.Version>
5.8.1

> <Gold.Id.Protein>
6NUR|6NUR_protein|mol2

> <Gold.PLP.Fitness>
39.5977

> <Gold.PLP.PLP>
-34.2320

> <Gold.PLP.part.hbond>
-1.0000

> <Gold.PLP.part.metal>
0.0000

> <Gold.PLP.part.buried>
-5.4207

> <Gold.PLP.part.nonpolar>
-27.9582

> <Gold.PLP.part.repulsive>
0.3758

> <Gold.PLP.ligand.clash>
0.0000

> <Gold.PLP.ligand.torsion>
0.3517

> <Gold.PLP.Chemscore.Hbond>
2.0000

> <Gold.PLP.Chemscore.CHOScore>
0.0000

> <Gold.PLP.Chemscore.Metal>
0.0000

> <Gold.Chemscore.Hbonds>
donor molecule, donor type, donor heavy atom, donor atom, acceptor molecule, acceptor atom, score
      L1  H     8    41       P1  8028  2.00

> <Gold.PLP.Chemscore.Internal.Correction>
0.0691

> <Gold.Rescore>
     Score         DG    S(hbond)    S(metal)    S(lipo)     H(rot)  DE(clash)    DE(int)     intcor
     12.06     -12.56       0.97        0.00      88.84       2.56       0.01       0.48       ----

> <Gold.Chemscore.Fitness>
12.0602

> <Gold.Chemscore.DG>
-12.5550

> <Gold.Chemscore.ZeroCoef>
-5.4800

> <Gold.Chemscore.Hbond>
0.9687

> <Gold.Chemscore.Metal>
0.0000

> <Gold.Chemscore.Lipo>
88.8367

> <Gold.Chemscore.Internal_Hbond>
0.0000

> <Gold.Chemscore.DEClash>
0.0104

> <Gold.Chemscore.DEInternal>
0.4845

> <Gold.Chemscore.Rot>
2.5602

> <Gold.Chemscore.Internal.Correction>
   9.000000E+99

> <Gold.Chemscore.Hbonds>
donor molecule, donor type, donor heavy atom, donor atom, acceptor molecule, acceptor atom, score
      L1  H     8    41       P1  8028  0.94

> <Gold.Chemscore.Hbond.Weighted>
-3.2354

> <Gold.Chemscore.Metal.Weighted>
-0.0000

> <Gold.Chemscore.Lipo.Weighted>
-10.3939

> <Gold.Chemscore.Internal_Hbond.Weighted>
0.0000

> <Gold.Chemscore.DEClash.Weighted>
0.0104

> <Gold.Chemscore.DEInternal.Weighted>
0.4845

> <Gold.Chemscore.Rot.Weighted>
6.5542

> <Gold.Chemscore.Internal.Correction.Weighted>
   9.000000E+99

> <Gold.Protein.RotatedTorsions>
[ 6907 6896 6895 6894 ] final   67.03 input  -60.11 | X-H torsion
[ 7974 7965 7964 7962 ] final   72.28 input  175.53 | X-H torsion
[ 8008 7997 7996 7995 ] final  -34.21 input   59.86 | X-H torsion
[ 10167 10162 10161 10158 ] final   36.31 input  -65.29 | X-H torsion
[ 10718 10713 10712 10709 ] final  -49.37 input   66.30 | X-H torsion
[ 10763 10752 10751 10750 ] final  128.79 input  -60.55 | X-H torsion
[ 11005 11000 10999 10996 ] final   98.24 input  -57.11 | X-H torsion

> <Gold.Protein.ActiveResidues>
 VAL166  LYS551  ARG553  GLY616  TRP617  ASP618  TYR619  PRO620  LYS621  CYS622 
 ASP623  PHE694  ASN695  SER759  ASP760  ASP761  ALA762  ILE779  LEU786  VAL792 
 PHE793  MET794  SER795  GLU796  ALA797  LYS798  CYS799  TRP800  GLU811  SER814 

> <Gold.Protein.RotatedAtoms>
  152.4523  134.5367  159.9826 H   0  0  0  0  0  0  0  0  0  0  0  0  # atno 6907 bound_to 6896
  151.5436  133.3423  159.2948 H   0  0  0  0  0  0  0  0  0  0  0  0  # atno 6908 bound_to 6896
  150.8456  134.7795  159.7030 H   0  0  0  0  0  0  0  0  0  0  0  0  # atno 6909 bound_to 6896
  145.7553  139.2777  143.1407 H   0  0  0  0  0  0  0  0  0  0  0  0  # atno 7974 bound_to 7965
  154.4127  140.1690  156.2013 H   0  0  0  0  0  0  0  0  0  0  0  0  # atno 8008 bound_to 7997
  155.9522  140.3400  155.6394 H   0  0  0  0  0  0  0  0  0  0  0  0  # atno 8009 bound_to 7997
  155.6856  140.0727  157.2459 H   0  0  0  0  0  0  0  0  0  0  0  0  # atno 8010 bound_to 7997
  140.4139  144.1554  150.6141 H   0  0  0  0  0  0  0  0  0  0  0  0  # atno 10167 bound_to 10162
  156.1900  130.4152  149.9385 H   0  0  0  0  0  0  0  0  0  0  0  0  # atno 10718 bound_to 10713
  153.7313  135.3238  155.3286 H   0  0  0  0  0  0  0  0  0  0  0  0  # atno 10763 bound_to 10752
  154.8325  135.4522  154.1119 H   0  0  0  0  0  0  0  0  0  0  0  0  # atno 10764 bound_to 10752
  153.2267  135.6955  153.8017 H   0  0  0  0  0  0  0  0  0  0  0  0  # atno 10765 bound_to 10752
  139.8773  134.9039  156.4427 H   0  0  0  0  0  0  0  0  0  0  0  0  # atno 11005 bound_to 11000
  146.0317  140.8252  142.9873 LP  0  0  0  0  0  0  0  0  0  0  0  0  # atno 17320 bound_to 7965
  144.6841  140.2778  143.7296 LP  0  0  0  0  0  0  0  0  0  0  0  0  # atno 17321 bound_to 7965
  140.4607  143.2450  151.9223 LP  0  0  0  0  0  0  0  0  0  0  0  0  # atno 17342 bound_to 10162
  139.4782  144.5470  151.8443 LP  0  0  0  0  0  0  0  0  0  0  0  0  # atno 17343 bound_to 10162
  156.7129  130.8977  151.3611 LP  0  0  0  0  0  0  0  0  0  0  0  0  # atno 17370 bound_to 10713
  157.6923  130.9246  150.0547 LP  0  0  0  0  0  0  0  0  0  0  0  0  # atno 17371 bound_to 10713
  140.8988  133.7794  155.9656 LP  0  0  0  0  0  0  0  0  0  0  0  0  # atno 17394 bound_to 11000
  140.8673  134.2768  157.5207 LP  0  0  0  0  0  0  0  0  0  0  0  0  # atno 17395 bound_to 11000

$$$$
