AV-unprocessed.smi:1815|AV-procd|sdf|7362|dock4
  -GOLD-   22720 9 23D 1   1.00000     0.00000
 Structure written by MMmdl.
 39 40  0  0  0  0  0  0  0  0  3 V2000
  152.1004  144.9808  158.8525 C   0  0  0  0  0  0  0  0  0  0  0  0
  152.4532  143.4985  158.6854 C   0  0  2  0  0  0  0  0  0  0  0  0
  151.2360  142.6567  158.2586 C   0  0  0  0  0  0  0  0  0  0  0  0
  151.5929  141.2199  158.1852 N   0  3  2  0  0  0  0  0  0  0  0  0
  150.4592  140.3827  157.7201 C   0  0  0  0  0  0  0  0  0  0  0  0
  150.8301  138.8957  157.6108 C   0  0  0  0  0  0  0  0  0  0  0  0
  149.6762  138.0653  157.9249 N   0  0  0  0  0  0  0  0  0  0  0  0
  149.6205  137.1599  158.9102 C   0  0  0  0  0  0  0  0  0  0  0  0
  150.6028  136.9778  159.6329 O   0  0  0  0  0  0  0  0  0  0  0  0
  148.4301  136.5248  158.9942 N   0  5  0  0  0  0  0  0  0  0  0  0
  147.9434  136.1611  160.1919 C   0  0  0  0  0  0  0  0  0  0  0  0
  147.6341  137.0427  161.1494 N   0  0  0  0  0  0  0  0  0  0  0  0
  147.1337  136.4496  162.3100 C   0  0  0  0  0  0  0  0  0  0  0  0
  147.0512  135.0847  162.2308 C   0  0  0  0  0  0  0  0  0  0  0  0
  147.6058  134.4999  160.6879 S   0  0  0  0  0  0  0  0  0  0  0  0
  152.1794  140.7688  159.4713 C   0  0  0  0  0  0  0  0  0  0  0  0
  153.3725  141.6612  159.8629 C   0  0  2  0  0  0  0  0  0  0  0  0
  153.9597  141.2756  161.2252 C   0  0  0  0  0  0  0  0  0  0  0  0
  152.9386  143.0150  159.9329 O   0  0  0  0  0  0  0  0  0  0  0  0
  151.7328  145.4060  157.9183 H   0  0  0  0  0  0  0  0  0  0  0  0
  152.9742  145.5574  159.1574 H   0  0  0  0  0  0  0  0  0  0  0  0
  151.3290  145.1211  159.6104 H   0  0  0  0  0  0  0  0  0  0  0  0
  153.2415  143.4126  157.9354 H   0  0  0  0  0  0  0  0  0  0  0  0
  150.4160  142.7909  158.9666 H   0  0  0  0  0  0  0  0  0  0  0  0
  150.8790  142.9972  157.2857 H   0  0  0  0  0  0  0  0  0  0  0  0
  149.6025  140.5199  158.3820 H   0  0  0  0  0  0  0  0  0  0  0  0
  150.1462  140.7274  156.7332 H   0  0  0  0  0  0  0  0  0  0  0  0
  151.1746  138.6632  156.6019 H   0  0  0  0  0  0  0  0  0  0  0  0
  151.6388  138.6458  158.2978 H   0  0  0  0  0  0  0  0  0  0  0  0
  148.8507  138.1836  157.3559 H   0  0  0  0  0  0  0  0  0  0  0  0
  146.8583  137.0772  163.1445 H   0  0  0  0  0  0  0  0  0  0  0  0
  146.6995  134.3916  162.9800 H   0  0  0  0  0  0  0  0  0  0  0  0
  151.4154  140.7971  160.2499 H   0  0  0  0  0  0  0  0  0  0  0  0
  152.5174  139.7361  159.3936 H   0  0  0  0  0  0  0  0  0  0  0  0
  154.1587  141.5747  159.1108 H   0  0  0  0  0  0  0  0  0  0  0  0
  154.3142  140.2445  161.2222 H   0  0  0  0  0  0  0  0  0  0  0  0
  153.2169  141.3720  162.0175 H   0  0  0  0  0  0  0  0  0  0  0  0
  154.8043  141.9160  161.4809 H   0  0  0  0  0  0  0  0  0  0  0  0
  152.3156  141.1404  157.4839 H   0  0  0  0  0  0  0  0  0  0  0  0
  1  2  1  0  0  0  0
  1 20  1  0  0  0  0
  1 21  1  0  0  0  0
  1 22  1  0  0  0  0
  2 19  1  0  0  0  0
  2  3  1  0  0  0  0
  2 23  1  0  0  0  0
  3  4  1  0  0  0  0
  3 24  1  0  0  0  0
  3 25  1  0  0  0  0
  4  5  1  0  0  0  0
  4 16  1  0  0  0  0
  4 39  1  0  0  0  0
  5  6  1  0  0  0  0
  5 26  1  0  0  0  0
  5 27  1  0  0  0  0
  6  7  1  0  0  0  0
  6 28  1  0  0  0  0
  6 29  1  0  0  0  0
  7  8  1  0  0  0  0
  7 30  1  0  0  0  0
  8  9  2  0  0  0  0
  8 10  1  0  0  0  0
 10 11  1  0  0  0  0
 11 15  1  0  0  0  0
 11 12  2  0  0  0  0
 12 13  1  0  0  0  0
 13 14  2  0  0  0  0
 13 31  1  0  0  0  0
 14 15  1  0  0  0  0
 14 32  1  0  0  0  0
 16 17  1  0  0  0  0
 16 33  1  0  0  0  0
 16 34  1  0  0  0  0
 17 18  1  0  0  0  0
 17 19  1  0  0  0  0
 17 35  1  0  0  0  0
 18 36  1  0  0  0  0
 18 37  1  0  0  0  0
 18 38  1  0  0  0  0
M  CHG  1   4   1
M  CHG  1  10  -1
M  END
> <s_m_source_file>
AV-unprocessed.smi

> <i_m_source_file_index>
1815

> <i_lp_mmshare_version>
43012

> <i_f3d_flags>
0

> <s_epik_input>
W0NIM11bQ0BASF0xW0NIMl1OKFtDSDJdW0NASF0oTzEpW0NIM10pW0NIMl1bQ0gyXVtOSF1DKD1PKVtOSF1jMm5bY0hdW2NIXXMy

> <s_epik_cmdline>
J2VwaWtfcHl0aG9uJywgJy1waCcsICc3LjAnLCAnLXRuJywgJzgnLCAnLW1hJywgJzIwMCcsICctbWV0YWxfYmluZGluZycsICctaW1hZScsICc8aW5maWxlLm1hZT4nLCAnLW9tYWUnLCAnPG91dGZpbGUubWFlPic=

> <r_lp_tautomer_probability>
0.999

> <r_epik_Ionization_Penalty>
6.71699

> <r_epik_Ionization_Penalty_Charging>
5.88592

> <r_epik_Ionization_Penalty_Neutral>
0.831074

> <r_epik_State_Penalty>
6.08365

> <r_epik_Charging_Adjusted_Penalty>
11.9696

> <i_epik_Tot_Q>
0

> <i_epik_Tot_abs_Q>
2

> <r_epik_Metal_State_Penalty>
2.0947

> <b_epik_Metal_Only>
1

> <s_lp_Force_Field>
OPLS_2005

> <r_lp_Energy>
4.96906

> <b_lp_Chiralities_Consistent>
1

> <s_lp_Variant>
AV-unprocessed.smi:1815-13

> <Gold.Version>
5.8.1

> <Gold.Id.Protein>
6NUR|6NUR_protein|mol2

> <Gold.PLP.Fitness>
48.9043

> <Gold.PLP.PLP>
-42.6946

> <Gold.PLP.part.hbond>
-3.3693

> <Gold.PLP.part.metal>
0.0000

> <Gold.PLP.part.buried>
-5.9724

> <Gold.PLP.part.nonpolar>
-33.8576

> <Gold.PLP.part.repulsive>
0.2113

> <Gold.PLP.ligand.clash>
0.0000

> <Gold.PLP.ligand.torsion>
1.0464

> <Gold.PLP.Chemscore.Hbond>
2.7200

> <Gold.PLP.Chemscore.CHOScore>
0.0000

> <Gold.PLP.Chemscore.Metal>
0.0000

> <Gold.Chemscore.Hbonds>
donor molecule, donor type, donor heavy atom, donor atom, acceptor molecule, acceptor atom, score
      P1  H  6896  6908       L1     9  1.00
      P1  H  6931  6943       L1    12  0.99
      P1  H  6934  6947       L1    12  0.89

> <Gold.PLP.Chemscore.Internal.Correction>
0.1425

> <Gold.Rescore>
     Score         DG    S(hbond)    S(metal)    S(lipo)     H(rot)  DE(clash)    DE(int)     intcor
     19.82     -20.84       2.47        0.00      95.97       1.61       0.01       1.01       ----

> <Gold.Chemscore.Fitness>
19.8196

> <Gold.Chemscore.DG>
-20.8375

> <Gold.Chemscore.ZeroCoef>
-5.4800

> <Gold.Chemscore.Hbond>
2.4672

> <Gold.Chemscore.Metal>
0.0000

> <Gold.Chemscore.Lipo>
95.9695

> <Gold.Chemscore.Internal_Hbond>
0.0000

> <Gold.Chemscore.DEClash>
0.0126

> <Gold.Chemscore.DEInternal>
1.0054

> <Gold.Chemscore.Rot>
1.6060

> <Gold.Chemscore.Internal.Correction>
   9.000000E+99

> <Gold.Chemscore.Hbonds>
donor molecule, donor type, donor heavy atom, donor atom, acceptor molecule, acceptor atom, score
      P1  H  6896  6908       L1     9  0.94
      P1  H  6931  6943       L1    12  0.27
      P1  H  6934  6947       L1    12  0.75

> <Gold.Chemscore.Hbond.Weighted>
-8.2403

> <Gold.Chemscore.Metal.Weighted>
-0.0000

> <Gold.Chemscore.Lipo.Weighted>
-11.2284

> <Gold.Chemscore.Internal_Hbond.Weighted>
0.0000

> <Gold.Chemscore.DEClash.Weighted>
0.0126

> <Gold.Chemscore.DEInternal.Weighted>
1.0054

> <Gold.Chemscore.Rot.Weighted>
4.1112

> <Gold.Chemscore.Internal.Correction.Weighted>
   9.000000E+99

> <Gold.Protein.RotatedTorsions>
[ 6907 6896 6895 6894 ] final -141.25 input  -60.11 | X-H torsion
[ 7974 7965 7964 7962 ] final  112.18 input  175.53 | X-H torsion
[ 8008 7997 7996 7995 ] final  -32.81 input   59.86 | X-H torsion
[ 10167 10162 10161 10158 ] final -146.87 input  -65.29 | X-H torsion
[ 10718 10713 10712 10709 ] final  -20.24 input   66.30 | X-H torsion
[ 10763 10752 10751 10750 ] final   41.40 input  -60.55 | X-H torsion
[ 11005 11000 10999 10996 ] final -129.99 input  -57.11 | X-H torsion

> <Gold.Protein.ActiveResidues>
 VAL166  LYS551  ARG553  GLY616  TRP617  ASP618  TYR619  PRO620  LYS621  CYS622 
 ASP623  PHE694  ASN695  SER759  ASP760  ASP761  ALA762  ILE779  LEU786  VAL792 
 PHE793  MET794  SER795  GLU796  ALA797  LYS798  CYS799  TRP800  GLU811  SER814 

> <Gold.Protein.RotatedAtoms>
  151.0713  133.5464  159.2626 H   0  0  0  0  0  0  0  0  0  0  0  0  # atno 6907 bound_to 6896
  151.2402  135.0585  159.9032 H   0  0  0  0  0  0  0  0  0  0  0  0  # atno 6908 bound_to 6896
  152.5412  134.0489  159.8155 H   0  0  0  0  0  0  0  0  0  0  0  0  # atno 6909 bound_to 6896
  145.2328  139.2812  143.4159 H   0  0  0  0  0  0  0  0  0  0  0  0  # atno 7974 bound_to 7965
  154.4168  140.1727  156.1787 H   0  0  0  0  0  0  0  0  0  0  0  0  # atno 8008 bound_to 7997
  155.9700  140.3386  155.6543 H   0  0  0  0  0  0  0  0  0  0  0  0  # atno 8009 bound_to 7997
  155.6638  140.0704  157.2535 H   0  0  0  0  0  0  0  0  0  0  0  0  # atno 8010 bound_to 7997
  139.7673  143.8289  152.2618 H   0  0  0  0  0  0  0  0  0  0  0  0  # atno 10167 bound_to 10162
  156.5346  130.4663  149.6529 H   0  0  0  0  0  0  0  0  0  0  0  0  # atno 10718 bound_to 10713
  152.9909  135.6163  154.2781 H   0  0  0  0  0  0  0  0  0  0  0  0  # atno 10763 bound_to 10752
  154.2511  135.2785  155.2818 H   0  0  0  0  0  0  0  0  0  0  0  0  # atno 10764 bound_to 10752
  154.5287  135.5794  153.6798 H   0  0  0  0  0  0  0  0  0  0  0  0  # atno 10765 bound_to 10752
  140.9384  134.1226  157.4173 H   0  0  0  0  0  0  0  0  0  0  0  0  # atno 11005 bound_to 11000
  146.3348  140.2668  142.8604 LP  0  0  0  0  0  0  0  0  0  0  0  0  # atno 17320 bound_to 7965
  144.9660  140.8322  143.5484 LP  0  0  0  0  0  0  0  0  0  0  0  0  # atno 17321 bound_to 7965
  139.8313  144.7252  150.9447 LP  0  0  0  0  0  0  0  0  0  0  0  0  # atno 17342 bound_to 10162
  140.7811  143.4068  151.1058 LP  0  0  0  0  0  0  0  0  0  0  0  0  # atno 17343 bound_to 10162
  156.3028  130.7186  151.2061 LP  0  0  0  0  0  0  0  0  0  0  0  0  # atno 17370 bound_to 10713
  157.7416  131.0502  150.5086 LP  0  0  0  0  0  0  0  0  0  0  0  0  # atno 17371 bound_to 10713
  139.8814  135.0028  156.6151 LP  0  0  0  0  0  0  0  0  0  0  0  0  # atno 17394 bound_to 11000
  140.7768  133.8693  155.8535 LP  0  0  0  0  0  0  0  0  0  0  0  0  # atno 17395 bound_to 11000

$$$$
