AV-unprocessed.smi:3176|AV-procd|sdf|12126|dock8
  -GOLD-   2272017563D 1   1.00000     0.00000
 Structure written by MMmdl.
 33 34  0  0  0  0  0  0  0  0  2 V2000
  149.4002  141.3943  154.0647 O   0  0  0  0  0  0  0  0  0  0  0  0
  148.8533  140.4974  154.7069 C   0  0  0  0  0  0  0  0  0  0  0  0
  148.7393  140.5221  156.0443 N   0  0  0  0  0  0  0  0  0  0  0  0
  149.2291  141.5883  156.9090 C   0  0  0  0  0  0  0  0  0  0  0  0
  150.7283  141.8473  156.6886 C   0  0  0  0  0  0  0  0  0  0  0  0
  151.3115  142.7713  157.7395 C   0  0  0  0  0  0  0  0  0  0  0  0
  152.2670  142.3295  158.6801 C   0  0  0  0  0  0  0  0  0  0  0  0
  152.7637  143.2393  159.6369 C   0  0  0  0  0  0  0  0  0  0  0  0
  152.2946  144.5693  159.6333 C   0  0  0  0  0  0  0  0  0  0  0  0
  151.3375  144.9560  158.6730 C   0  0  0  0  0  0  0  0  0  0  0  0
  150.8849  144.0548  157.7736 N   0  3  0  0  0  0  0  0  0  0  0  0
  148.2833  139.2719  153.9801 C   0  0  2  0  0  0  0  0  0  0  0  0
  147.1137  139.5895  153.0486 C   0  0  0  0  0  0  0  0  0  0  0  0
  146.4382  138.2394  152.9442 C   0  0  0  0  0  0  0  0  0  0  0  0
  146.6330  137.6557  154.3431 C   0  0  0  0  0  0  0  0  0  0  0  0
  147.7457  138.3393  154.9156 O   0  0  0  0  0  0  0  0  0  0  0  0
  148.2724  139.7449  156.4900 H   0  0  0  0  0  0  0  0  0  0  0  0
  148.6512  142.4993  156.7436 H   0  0  0  0  0  0  0  0  0  0  0  0
  149.0522  141.2920  157.9433 H   0  0  0  0  0  0  0  0  0  0  0  0
  151.2757  140.9039  156.7003 H   0  0  0  0  0  0  0  0  0  0  0  0
  150.8958  142.2866  155.7041 H   0  0  0  0  0  0  0  0  0  0  0  0
  152.6149  141.3065  158.6716 H   0  0  0  0  0  0  0  0  0  0  0  0
  153.4950  142.9199  160.3652 H   0  0  0  0  0  0  0  0  0  0  0  0
  152.6630  145.2815  160.3573 H   0  0  0  0  0  0  0  0  0  0  0  0
  150.9233  145.9509  158.5977 H   0  0  0  0  0  0  0  0  0  0  0  0
  149.0808  138.7799  153.4211 H   0  0  0  0  0  0  0  0  0  0  0  0
  146.4364  140.3164  153.5004 H   0  0  0  0  0  0  0  0  0  0  0  0
  147.4341  139.9730  152.0794 H   0  0  0  0  0  0  0  0  0  0  0  0
  145.3898  138.3057  152.6525 H   0  0  0  0  0  0  0  0  0  0  0  0
  146.9571  137.6230  152.2086 H   0  0  0  0  0  0  0  0  0  0  0  0
  145.7566  137.8413  154.9650 H   0  0  0  0  0  0  0  0  0  0  0  0
  146.8048  136.5795  154.3142 H   0  0  0  0  0  0  0  0  0  0  0  0
  150.1917  144.3566  157.0881 H   0  0  0  0  0  0  0  0  0  0  0  0
  1  2  2  0  0  0  0
  2  3  1  0  0  0  0
  2 12  1  0  0  0  0
  3  4  1  0  0  0  0
  3 17  1  0  0  0  0
  4  5  1  0  0  0  0
  4 18  1  0  0  0  0
  4 19  1  0  0  0  0
  5  6  1  0  0  0  0
  5 20  1  0  0  0  0
  5 21  1  0  0  0  0
  6 11  1  0  0  0  0
  6  7  2  0  0  0  0
  7  8  1  0  0  0  0
  7 22  1  0  0  0  0
  8  9  2  0  0  0  0
  8 23  1  0  0  0  0
  9 10  1  0  0  0  0
  9 24  1  0  0  0  0
 10 11  2  0  0  0  0
 10 25  1  0  0  0  0
 11 33  1  0  0  0  0
 12 16  1  0  0  0  0
 12 13  1  0  0  0  0
 12 26  1  0  0  0  0
 13 14  1  0  0  0  0
 13 27  1  0  0  0  0
 13 28  1  0  0  0  0
 14 15  1  0  0  0  0
 14 29  1  0  0  0  0
 14 30  1  0  0  0  0
 15 16  1  0  0  0  0
 15 31  1  0  0  0  0
 15 32  1  0  0  0  0
M  CHG  1  11   1
M  END
> <s_m_source_file>
AV-unprocessed.smi

> <i_m_source_file_index>
3176

> <i_lp_mmshare_version>
43012

> <i_f3d_flags>
0

> <s_epik_input>
TzFbQ0gyXVtDSDJdW0NIMl1bQ0BIXTFDKD1PKVtOSF1bQ0gyXVtDSDJdYzJbY0hdW2NIXVtjSF1bY0hdbjI=

> <s_epik_cmdline>
J2VwaWtfcHl0aG9uJywgJy1waCcsICc3LjAnLCAnLXRuJywgJzgnLCAnLW1hJywgJzIwMCcsICctbWV0YWxfYmluZGluZycsICctaW1hZScsICc8aW5maWxlLm1hZT4nLCAnLW9tYWUnLCAnPG91dGZpbGUubWFlPic=

> <r_epik_Ionization_Penalty>
1.81664

> <r_epik_Ionization_Penalty_Charging>
1.81664

> <r_epik_Ionization_Penalty_Neutral>
5.71603e-08

> <r_epik_State_Penalty>
1.93152

> <r_epik_Charging_Adjusted_Penalty>
3.74817

> <i_epik_Tot_Q>
1

> <i_epik_Tot_abs_Q>
1

> <r_epik_Metal_State_Penalty>
1.95876

> <b_epik_Metal_Only>
0

> <s_lp_Force_Field>
OPLS_2005

> <r_lp_Energy>
22.4632

> <b_lp_Chiralities_Consistent>
1

> <s_lp_Variant>
AV-unprocessed.smi:3176-3

> <Gold.Version>
5.8.1

> <Gold.Id.Protein>
6NUR|6NUR_protein|mol2

> <Gold.PLP.Fitness>
40.8816

> <Gold.PLP.PLP>
-32.3927

> <Gold.PLP.part.hbond>
-3.0000

> <Gold.PLP.part.metal>
0.0000

> <Gold.PLP.part.buried>
-1.9056

> <Gold.PLP.part.nonpolar>
-27.7997

> <Gold.PLP.part.repulsive>
0.3205

> <Gold.PLP.ligand.clash>
0.0000

> <Gold.PLP.ligand.torsion>
0.1043

> <Gold.PLP.Chemscore.Hbond>
2.8951

> <Gold.PLP.Chemscore.CHOScore>
0.0000

> <Gold.PLP.Chemscore.Metal>
0.0000

> <Gold.Chemscore.Hbonds>
donor molecule, donor type, donor heavy atom, donor atom, acceptor molecule, acceptor atom, score
      L1  H    11    33       P1  8028  2.00
      P1  H  7989  7998       L1     1  0.07
      P1  H  8011  8017       L1     1  0.67

> <Gold.PLP.Chemscore.Internal.Correction>
0.0122

> <Gold.Rescore>
     Score         DG    S(hbond)    S(metal)    S(lipo)     H(rot)  DE(clash)    DE(int)     intcor
     17.03     -18.36       1.91        0.00      90.58       1.61       0.09       1.25       ----

> <Gold.Chemscore.Fitness>
17.0259

> <Gold.Chemscore.DG>
-18.3586

> <Gold.Chemscore.ZeroCoef>
-5.4800

> <Gold.Chemscore.Hbond>
1.9132

> <Gold.Chemscore.Metal>
0.0000

> <Gold.Chemscore.Lipo>
90.5834

> <Gold.Chemscore.Internal_Hbond>
0.0000

> <Gold.Chemscore.DEClash>
0.0855

> <Gold.Chemscore.DEInternal>
1.2472

> <Gold.Chemscore.Rot>
1.6054

> <Gold.Chemscore.Internal.Correction>
   9.000000E+99

> <Gold.Chemscore.Hbonds>
donor molecule, donor type, donor heavy atom, donor atom, acceptor molecule, acceptor atom, score
      L1  H    11    33       P1  8028  0.78
      P1  H  7989  7998       L1     1  0.07
      P1  H  8011  8017       L1     1  0.66

> <Gold.Chemscore.Hbond.Weighted>
-6.3901

> <Gold.Chemscore.Metal.Weighted>
-0.0000

> <Gold.Chemscore.Lipo.Weighted>
-10.5983

> <Gold.Chemscore.Internal_Hbond.Weighted>
0.0000

> <Gold.Chemscore.DEClash.Weighted>
0.0855

> <Gold.Chemscore.DEInternal.Weighted>
1.2472

> <Gold.Chemscore.Rot.Weighted>
4.1097

> <Gold.Chemscore.Internal.Correction.Weighted>
   9.000000E+99

> <Gold.Protein.RotatedTorsions>
[ 6907 6896 6895 6894 ] final  137.14 input  -60.11 | X-H torsion
[ 7974 7965 7964 7962 ] final -109.80 input  175.53 | X-H torsion
[ 8008 7997 7996 7995 ] final -150.79 input   59.86 | X-H torsion
[ 10167 10162 10161 10158 ] final   59.42 input  -65.29 | X-H torsion
[ 10718 10713 10712 10709 ] final  -17.81 input   66.30 | X-H torsion
[ 10763 10752 10751 10750 ] final   77.47 input  -60.55 | X-H torsion
[ 11005 11000 10999 10996 ] final   19.59 input  -57.11 | X-H torsion

> <Gold.Protein.ActiveResidues>
 VAL166  LYS551  ARG553  GLY616  TRP617  ASP618  TYR619  PRO620  LYS621  CYS622 
 ASP623  PHE694  ASN695  SER759  ASP760  ASP761  ALA762  ILE779  LEU786  VAL792 
 PHE793  MET794  SER795  GLU796  ALA797  LYS798  CYS799  TRP800  GLU811  SER814 

> <Gold.Protein.RotatedAtoms>
  152.2814  133.5474  159.5500 H   0  0  0  0  0  0  0  0  0  0  0  0  # atno 6907 bound_to 6896
  150.7197  134.0558  159.3823 H   0  0  0  0  0  0  0  0  0  0  0  0  # atno 6908 bound_to 6896
  151.8468  135.0571  160.0505 H   0  0  0  0  0  0  0  0  0  0  0  0  # atno 6909 bound_to 6896
  145.1760  140.8948  143.3507 H   0  0  0  0  0  0  0  0  0  0  0  0  # atno 7974 bound_to 7965
  155.6292  140.0689  157.2654 H   0  0  0  0  0  0  0  0  0  0  0  0  # atno 8008 bound_to 7997
  154.4210  140.1770  156.1503 H   0  0  0  0  0  0  0  0  0  0  0  0  # atno 8009 bound_to 7997
  155.9947  140.3342  155.6790 H   0  0  0  0  0  0  0  0  0  0  0  0  # atno 8010 bound_to 7997
  140.1766  144.4223  150.6635 H   0  0  0  0  0  0  0  0  0  0  0  0  # atno 10167 bound_to 10162
  156.5683  130.4743  149.6374 H   0  0  0  0  0  0  0  0  0  0  0  0  # atno 10718 bound_to 10713
  153.0801  135.4913  154.8485 H   0  0  0  0  0  0  0  0  0  0  0  0  # atno 10763 bound_to 10752
  154.7139  135.3025  154.9156 H   0  0  0  0  0  0  0  0  0  0  0  0  # atno 10764 bound_to 10752
  153.9841  135.6786  153.4804 H   0  0  0  0  0  0  0  0  0  0  0  0  # atno 10765 bound_to 10752
  140.4121  134.1608  155.7668 H   0  0  0  0  0  0  0  0  0  0  0  0  # atno 11005 bound_to 11000
  145.0184  139.3446  143.6085 LP  0  0  0  0  0  0  0  0  0  0  0  0  # atno 17320 bound_to 7965
  146.3461  139.9475  142.8733 LP  0  0  0  0  0  0  0  0  0  0  0  0  # atno 17321 bound_to 7965
  140.6547  143.2234  151.5996 LP  0  0  0  0  0  0  0  0  0  0  0  0  # atno 17342 bound_to 10162
  139.5314  144.2905  152.1156 LP  0  0  0  0  0  0  0  0  0  0  0  0  # atno 17343 bound_to 10162
  156.2737  130.7031  151.1836 LP  0  0  0  0  0  0  0  0  0  0  0  0  # atno 17370 bound_to 10713
  157.7354  131.0573  150.5474 LP  0  0  0  0  0  0  0  0  0  0  0  0  # atno 17371 bound_to 10713
  141.1817  133.8399  157.1234 LP  0  0  0  0  0  0  0  0  0  0  0  0  # atno 17394 bound_to 11000
  140.0260  134.9923  157.0687 LP  0  0  0  0  0  0  0  0  0  0  0  0  # atno 17395 bound_to 11000

$$$$
