AV-unprocessed.smi:100|AV-procd|sdf|903|dock8
  -GOLD-   2262017403D 1   1.00000     0.00000
 Structure written by MMmdl.
 31 33  0  0  0  0  0  0  0  0  1 V2000
  150.8854  138.3953  153.2544 N   0  0  0  0  0  0  0  0  0  0  0  0
  151.2359  138.4027  154.5478 C   0  0  0  0  0  0  0  0  0  0  0  0
  151.7071  137.2569  155.0934 N   0  0  0  0  0  0  0  0  0  0  0  0
  152.0602  137.2373  156.3830 C   0  0  0  0  0  0  0  0  0  0  0  0
  152.0227  138.2313  157.2750 N   0  0  0  0  0  0  0  0  0  0  0  0
  151.5524  139.3867  156.7201 C   0  0  0  0  0  0  0  0  0  0  0  0
  151.1351  139.5527  155.3709 C   0  0  0  0  0  0  0  0  0  0  0  0
  150.7039  140.8562  155.1673 N   0  0  0  0  0  0  0  0  0  0  0  0
  150.8534  141.4227  156.3349 C   0  0  0  0  0  0  0  0  0  0  0  0
  151.3837  140.6160  157.3218 N   0  0  0  0  0  0  0  0  0  0  0  0
  151.6641  140.9384  158.7578 C   0  0  2  0  0  0  0  0  0  0  0  0
  150.8321  142.0017  159.1315 O   0  0  0  0  0  0  0  0  0  0  0  0
  151.5786  143.2063  159.3137 C   0  0  2  0  0  0  0  0  0  0  0  0
  151.6698  144.0153  158.0041 C   0  0  0  0  0  0  0  0  0  0  0  0
  150.6716  145.0124  157.9811 O   0  0  0  0  0  0  0  0  0  0  0  0
  152.9300  142.6730  159.7857 C   0  0  1  0  0  0  0  0  0  0  0  0
  152.8093  142.3601  161.0790 F   0  0  0  0  0  0  0  0  0  0  0  0
  153.1133  141.4259  158.9338 C   0  0  1  0  0  0  0  0  0  0  0  0
  153.9576  140.4937  159.5798 O   0  0  0  0  0  0  0  0  0  0  0  0
  150.5301  139.2377  152.8252 H   0  0  0  0  0  0  0  0  0  0  0  0
  150.9762  137.5485  152.7123 H   0  0  0  0  0  0  0  0  0  0  0  0
  152.4262  136.2909  156.7524 H   0  0  0  0  0  0  0  0  0  0  0  0
  150.5837  142.4556  156.5021 H   0  0  0  0  0  0  0  0  0  0  0  0
  151.4112  140.0313  159.3084 H   0  0  0  0  0  0  0  0  0  0  0  0
  151.1217  143.8211  160.0908 H   0  0  0  0  0  0  0  0  0  0  0  0
  152.6328  144.5238  157.9500 H   0  0  0  0  0  0  0  0  0  0  0  0
  151.5964  143.3872  157.1173 H   0  0  0  0  0  0  0  0  0  0  0  0
  150.1687  144.9169  157.1866 H   0  0  0  0  0  0  0  0  0  0  0  0
  153.7468  143.3896  159.6948 H   0  0  0  0  0  0  0  0  0  0  0  0
  153.5346  141.7002  157.9653 H   0  0  0  0  0  0  0  0  0  0  0  0
  153.4433  140.0174  160.2145 H   0  0  0  0  0  0  0  0  0  0  0  0
  1  2  1  0  0  0  0
  1 20  1  0  0  0  0
  1 21  1  0  0  0  0
  2  7  1  0  0  0  0
  2  3  2  0  0  0  0
  3  4  1  0  0  0  0
  4  5  2  0  0  0  0
  4 22  1  0  0  0  0
  5  6  1  0  0  0  0
  6 10  1  0  0  0  0
  6  7  2  0  0  0  0
  7  8  1  0  0  0  0
  8  9  2  0  0  0  0
  9 10  1  0  0  0  0
  9 23  1  0  0  0  0
 10 11  1  0  0  0  0
 11 18  1  0  0  0  0
 11 12  1  0  0  0  0
 11 24  1  0  0  0  0
 12 13  1  0  0  0  0
 13 14  1  0  0  0  0
 13 16  1  0  0  0  0
 13 25  1  0  0  0  0
 14 15  1  0  0  0  0
 14 26  1  0  0  0  0
 14 27  1  0  0  0  0
 15 28  1  0  0  0  0
 16 17  1  0  0  0  0
 16 18  1  0  0  0  0
 16 29  1  0  0  0  0
 18 19  1  0  0  0  0
 18 30  1  0  0  0  0
 19 31  1  0  0  0  0
M  END
> <s_m_source_file>
AV-unprocessed.smi

> <i_m_source_file_index>
100

> <i_lp_mmshare_version>
43012

> <i_f3d_flags>
0

> <s_epik_input>
bjFbY0hdbmMoW05IMl0pYyhjMTIpbltjSF1uMltDQEBIXTNPW0NAQEhdKFtDSDJdW09IXSlbQ0BIXShGKVtDQEhdM1tPSF0=

> <s_epik_cmdline>
J2VwaWtfcHl0aG9uJywgJy1waCcsICc3LjAnLCAnLXRuJywgJzgnLCAnLW1hJywgJzIwMCcsICctbWV0YWxfYmluZGluZycsICctaW1hZScsICc8aW5maWxlLm1hZT4nLCAnLW9tYWUnLCAnPG91dGZpbGUubWFlPic=

> <r_lp_tautomer_probability>
1

> <r_epik_Ionization_Penalty>
0.000750324

> <r_epik_Ionization_Penalty_Charging>
0

> <r_epik_Ionization_Penalty_Neutral>
0.000750324

> <r_epik_State_Penalty>
-0

> <r_epik_Charging_Adjusted_Penalty>
0

> <i_epik_Tot_Q>
0

> <i_epik_Tot_abs_Q>
0

> <r_epik_Metal_State_Penalty>
-0

> <b_epik_Metal_Only>
0

> <s_epik_Chemistry_Notes>
This compound contains an acetal/aminal-like group ( X-CH(R)-Y where X, Y are N, S, or O) that may be acid/base labile, releasing an aldehyde.

> <s_lp_Force_Field>
OPLS_2005

> <r_lp_Energy>
31.6472

> <b_lp_Chiralities_Consistent>
1

> <s_lp_Variant>
AV-unprocessed.smi:100-7

> <Gold.Version>
5.8.1

> <Gold.Id.Protein>
6NUR|6NUR_protein|mol2

> <Gold.PLP.Fitness>
45.4273

> <Gold.PLP.PLP>
-34.8866

> <Gold.PLP.part.hbond>
-7.3488

> <Gold.PLP.part.metal>
0.0000

> <Gold.PLP.part.buried>
0.9961

> <Gold.PLP.part.nonpolar>
-27.4405

> <Gold.PLP.part.repulsive>
0.3039

> <Gold.PLP.ligand.clash>
0.0000

> <Gold.PLP.ligand.torsion>
1.1658

> <Gold.PLP.Chemscore.Hbond>
4.2797

> <Gold.PLP.Chemscore.CHOScore>
0.0000

> <Gold.PLP.Chemscore.Metal>
0.0000

> <Gold.Chemscore.Hbonds>
donor molecule, donor type, donor heavy atom, donor atom, acceptor molecule, acceptor atom, score
      L1  H     1    20       P1  7957  0.86
      L1  H     1    21       P1  7949  0.95
      L1  H    15    28       P1  8028  0.90
      P1  H  7989  7998       L1     8  0.40
      P1  H 10752 10765       L1     3  0.68

> <Gold.PLP.Chemscore.Internal.Correction>
0.0332

> <Gold.Rescore>
     Score         DG    S(hbond)    S(metal)    S(lipo)     H(rot)  DE(clash)    DE(int)     intcor
     10.68     -12.82       2.86        0.00      50.93       3.19       0.91       1.23       ----

> <Gold.Chemscore.Fitness>
10.6785

> <Gold.Chemscore.DG>
-12.8195

> <Gold.Chemscore.ZeroCoef>
-5.4800

> <Gold.Chemscore.Hbond>
2.8586

> <Gold.Chemscore.Metal>
0.0000

> <Gold.Chemscore.Lipo>
50.9266

> <Gold.Chemscore.Internal_Hbond>
0.0000

> <Gold.Chemscore.DEClash>
0.9104

> <Gold.Chemscore.DEInternal>
1.2306

> <Gold.Chemscore.Rot>
3.1901

> <Gold.Chemscore.Internal.Correction>
   9.000000E+99

> <Gold.Chemscore.Hbonds>
donor molecule, donor type, donor heavy atom, donor atom, acceptor molecule, acceptor atom, score
      L1  H     1    20       P1  7957  0.44
      L1  H     1    21       P1  7949  0.21
      L1  H    15    28       P1  8028  0.18
      P1  H  7989  7998       L1     8  0.02
      P1  H 10752 10765       L1     3  0.15

> <Gold.Chemscore.Hbond.Weighted>
-9.5478

> <Gold.Chemscore.Metal.Weighted>
-0.0000

> <Gold.Chemscore.Lipo.Weighted>
-5.9584

> <Gold.Chemscore.Internal_Hbond.Weighted>
0.0000

> <Gold.Chemscore.DEClash.Weighted>
0.9104

> <Gold.Chemscore.DEInternal.Weighted>
1.2306

> <Gold.Chemscore.Rot.Weighted>
8.1667

> <Gold.Chemscore.Internal.Correction.Weighted>
   9.000000E+99

> <Gold.Protein.RotatedTorsions>
[ 6907 6896 6895 6894 ] final  -29.33 input  -60.11 | X-H torsion
[ 7974 7965 7964 7962 ] final  -44.50 input  175.53 | X-H torsion
[ 8008 7997 7996 7995 ] final  -55.50 input   59.86 | X-H torsion
[ 10167 10162 10161 10158 ] final  173.46 input  -65.29 | X-H torsion
[ 10718 10713 10712 10709 ] final -103.75 input   66.30 | X-H torsion
[ 10763 10752 10751 10750 ] final  166.75 input  -60.55 | X-H torsion
[ 11005 11000 10999 10996 ] final  -65.97 input  -57.11 | X-H torsion

> <Gold.Protein.ActiveResidues>
 VAL166  LYS551  ARG553  GLY616  TRP617  ASP618  TYR619  PRO620  LYS621  CYS622 
 ASP623  PHE694  ASN695  SER759  ASP760  ASP761  ALA762  ILE779  LEU786  VAL792 
 PHE793  MET794  SER795  GLU796  ALA797  LYS798  CYS799  TRP800  GLU811  SER814 

> <Gold.Protein.RotatedAtoms>
  151.1206  135.0077  159.8536 H   0  0  0  0  0  0  0  0  0  0  0  0  # atno 6907 bound_to 6896
  152.5447  134.1727  159.8613 H   0  0  0  0  0  0  0  0  0  0  0  0  # atno 6908 bound_to 6896
  151.1784  133.4695  159.2627 H   0  0  0  0  0  0  0  0  0  0  0  0  # atno 6909 bound_to 6896
  145.9915  140.7176  142.9315 H   0  0  0  0  0  0  0  0  0  0  0  0  # atno 7974 bound_to 7965
  154.4197  140.1151  156.5487 H   0  0  0  0  0  0  0  0  0  0  0  0  # atno 8008 bound_to 7997
  155.6433  140.3496  155.4703 H   0  0  0  0  0  0  0  0  0  0  0  0  # atno 8009 bound_to 7997
  155.9853  140.1168  157.0678 H   0  0  0  0  0  0  0  0  0  0  0  0  # atno 8010 bound_to 7997
  139.5109  144.3258  152.0159 H   0  0  0  0  0  0  0  0  0  0  0  0  # atno 10167 bound_to 10162
  156.0277  130.5482  150.7297 H   0  0  0  0  0  0  0  0  0  0  0  0  # atno 10718 bound_to 10713
  154.3436  135.2753  155.2409 H   0  0  0  0  0  0  0  0  0  0  0  0  # atno 10763 bound_to 10752
  154.4669  135.5893  153.6298 H   0  0  0  0  0  0  0  0  0  0  0  0  # atno 10764 bound_to 10752
  152.9855  135.6078  154.3640 H   0  0  0  0  0  0  0  0  0  0  0  0  # atno 10765 bound_to 10752
  141.1469  133.6691  156.6068 H   0  0  0  0  0  0  0  0  0  0  0  0  # atno 11005 bound_to 11000
  144.6890  140.3077  143.7253 LP  0  0  0  0  0  0  0  0  0  0  0  0  # atno 17320 bound_to 7965
  145.7623  139.1829  143.2260 LP  0  0  0  0  0  0  0  0  0  0  0  0  # atno 17321 bound_to 7965
  140.2699  144.3976  150.6155 LP  0  0  0  0  0  0  0  0  0  0  0  0  # atno 17342 bound_to 10162
  140.6096  143.2169  151.6912 LP  0  0  0  0  0  0  0  0  0  0  0  0  # atno 17343 bound_to 10162
  157.4893  131.0909  151.0446 LP  0  0  0  0  0  0  0  0  0  0  0  0  # atno 17370 bound_to 10713
  157.0857  130.5921  149.5429 LP  0  0  0  0  0  0  0  0  0  0  0  0  # atno 17371 bound_to 10713
  140.3646  134.7658  157.4557 LP  0  0  0  0  0  0  0  0  0  0  0  0  # atno 17394 bound_to 11000
  140.0758  134.5799  155.8592 LP  0  0  0  0  0  0  0  0  0  0  0  0  # atno 17395 bound_to 11000

$$$$
