AV-unprocessed.smi:3201|AV-procd|sdf|12240|dock4
  -GOLD-   2272018 73D 1   1.00000     0.00000
 Structure written by MMmdl.
 41 43  0  0  0  0  0  0  0  0  2 V2000
  152.4885  142.1175  160.4659 C   0  0  0  0  0  0  0  0  0  0  0  0
  151.9988  143.0235  159.3818 C   0  0  0  0  0  0  0  0  0  0  0  0
  151.5606  142.7385  158.1159 C   0  0  0  0  0  0  0  0  0  0  0  0
  151.4426  141.4054  157.4292 C   0  0  0  0  0  0  0  0  0  0  0  0
  151.0470  141.5641  155.9555 C   0  0  0  0  0  0  0  0  0  0  0  0
  149.6002  141.8279  155.8232 N   0  3  0  0  0  0  0  0  0  0  0  0
  149.0155  141.4332  154.5229 C   0  0  1  0  0  0  0  0  0  0  0  0
  148.7801  139.9145  154.3700 C   0  0  0  0  0  0  0  0  0  0  0  0
  147.2995  139.8422  153.9472 C   0  0  1  0  0  0  0  0  0  0  0  0
  146.4160  140.1171  155.1764 C   0  0  0  0  0  0  0  0  0  0  0  0
  146.6280  141.6239  155.4110 C   0  0  0  0  0  0  0  0  0  0  0  0
  147.6064  142.0177  154.2826 C   0  0  2  0  0  0  0  0  0  0  0  0
  147.1210  141.1270  153.1432 C   0  0  0  0  0  0  0  0  0  0  0  0
  151.2296  144.0139  157.5779 C   0  0  0  0  0  0  0  0  0  0  0  0
  151.4435  145.0006  158.4289 N   0  0  0  0  0  0  0  0  0  0  0  0
  151.9181  144.3965  159.5371 N   0  0  0  0  0  0  0  0  0  0  0  0
  152.2589  145.2191  160.6824 C   0  0  0  0  0  0  0  0  0  0  0  0
  152.4241  141.0712  160.1684 H   0  0  0  0  0  0  0  0  0  0  0  0
  151.8956  142.2412  161.3723 H   0  0  0  0  0  0  0  0  0  0  0  0
  153.5295  142.3318  160.7086 H   0  0  0  0  0  0  0  0  0  0  0  0
  152.3868  140.8629  157.4910 H   0  0  0  0  0  0  0  0  0  0  0  0
  150.7104  140.7759  157.9359 H   0  0  0  0  0  0  0  0  0  0  0  0
  151.6033  142.3879  155.5061 H   0  0  0  0  0  0  0  0  0  0  0  0
  151.3064  140.6601  155.4032 H   0  0  0  0  0  0  0  0  0  0  0  0
  149.1075  141.3413  156.5586 H   0  0  0  0  0  0  0  0  0  0  0  0
  149.6760  141.7832  153.7272 H   0  0  0  0  0  0  0  0  0  0  0  0
  149.4287  139.5051  153.5946 H   0  0  0  0  0  0  0  0  0  0  0  0
  148.9651  139.3528  155.2867 H   0  0  0  0  0  0  0  0  0  0  0  0
  147.0379  138.9249  153.4189 H   0  0  0  0  0  0  0  0  0  0  0  0
  145.3682  139.9072  154.9569 H   0  0  0  0  0  0  0  0  0  0  0  0
  146.7031  139.5151  156.0394 H   0  0  0  0  0  0  0  0  0  0  0  0
  145.6837  142.1591  155.3023 H   0  0  0  0  0  0  0  0  0  0  0  0
  147.0117  141.8415  156.4076 H   0  0  0  0  0  0  0  0  0  0  0  0
  147.6081  143.0846  154.0576 H   0  0  0  0  0  0  0  0  0  0  0  0
  147.7521  141.1722  152.2539 H   0  0  0  0  0  0  0  0  0  0  0  0
  146.0850  141.3166  152.8553 H   0  0  0  0  0  0  0  0  0  0  0  0
  150.8409  144.2494  156.5982 H   0  0  0  0  0  0  0  0  0  0  0  0
  152.7234  144.6217  161.4664 H   0  0  0  0  0  0  0  0  0  0  0  0
  151.3566  145.6834  161.0811 H   0  0  0  0  0  0  0  0  0  0  0  0
  152.9572  146.0003  160.3804 H   0  0  0  0  0  0  0  0  0  0  0  0
  149.4554  142.8203  155.9419 H   0  0  0  0  0  0  0  0  0  0  0  0
  1  2  1  0  0  0  0
  1 18  1  0  0  0  0
  1 19  1  0  0  0  0
  1 20  1  0  0  0  0
  2 16  1  0  0  0  0
  2  3  2  0  0  0  0
  3  4  1  0  0  0  0
  3 14  1  0  0  0  0
  4  5  1  0  0  0  0
  4 21  1  0  0  0  0
  4 22  1  0  0  0  0
  5  6  1  0  0  0  0
  5 23  1  0  0  0  0
  5 24  1  0  0  0  0
  6  7  1  0  0  0  0
  6 25  1  0  0  0  0
  6 41  1  0  0  0  0
  7 12  1  0  0  0  0
  7  8  1  0  0  0  0
  7 26  1  0  0  0  0
  8  9  1  0  0  0  0
  8 27  1  0  0  0  0
  8 28  1  0  0  0  0
  9 13  1  0  0  0  0
  9 10  1  0  0  0  0
  9 29  1  0  0  0  0
 10 11  1  0  0  0  0
 10 30  1  0  0  0  0
 10 31  1  0  0  0  0
 11 12  1  0  0  0  0
 11 32  1  0  0  0  0
 11 33  1  0  0  0  0
 12 13  1  0  0  0  0
 12 34  1  0  0  0  0
 13 35  1  0  0  0  0
 13 36  1  0  0  0  0
 14 15  2  0  0  0  0
 14 37  1  0  0  0  0
 15 16  1  0  0  0  0
 16 17  1  0  0  0  0
 17 38  1  0  0  0  0
 17 39  1  0  0  0  0
 17 40  1  0  0  0  0
M  CHG  1   6   1
M  END
> <s_m_source_file>
AV-unprocessed.smi

> <i_m_source_file_index>
3201

> <i_lp_mmshare_version>
43012

> <i_f3d_flags>
0

> <s_epik_input>
W0NIM11uMW5bY0hdYyhjMVtDSDNdKVtDSDJdW0NIMl1bTkhdW0NASF0oW0NIMl1bQ0BIXTIzKVtDQEhdKFtDSDJdMylbQ0gyXVtDSDJdMg==

> <s_epik_cmdline>
J2VwaWtfcHl0aG9uJywgJy1waCcsICc3LjAnLCAnLXRuJywgJzgnLCAnLW1hJywgJzIwMCcsICctbWV0YWxfYmluZGluZycsICctaW1hZScsICc8aW5maWxlLm1hZT4nLCAnLW9tYWUnLCAnPG91dGZpbGUubWFlPic=

> <r_lp_tautomer_probability>
1

> <r_epik_Ionization_Penalty>
0.000331174

> <r_epik_Ionization_Penalty_Charging>
0.000242709

> <r_epik_Ionization_Penalty_Neutral>
8.84659e-05

> <r_epik_State_Penalty>
-0

> <r_epik_Charging_Adjusted_Penalty>
0.000242709

> <i_epik_Tot_Q>
1

> <i_epik_Tot_abs_Q>
1

> <r_epik_Metal_State_Penalty>
-0

> <b_epik_Metal_Only>
0

> <s_lp_Force_Field>
OPLS_2005

> <r_lp_Energy>
51.1066

> <b_lp_Chiralities_Consistent>
1

> <s_lp_Variant>
AV-unprocessed.smi:3201-4

> <Gold.Version>
5.8.1

> <Gold.Id.Protein>
6NUR|6NUR_protein|mol2

> <Gold.PLP.Fitness>
45.4432

> <Gold.PLP.PLP>
-37.1744

> <Gold.PLP.part.hbond>
-1.0000

> <Gold.PLP.part.metal>
0.0000

> <Gold.PLP.part.buried>
-3.7803

> <Gold.PLP.part.nonpolar>
-32.7039

> <Gold.PLP.part.repulsive>
0.2468

> <Gold.PLP.ligand.clash>
0.0000

> <Gold.PLP.ligand.torsion>
0.3732

> <Gold.PLP.Chemscore.Hbond>
2.0000

> <Gold.PLP.Chemscore.CHOScore>
1.0000

> <Gold.PLP.Chemscore.Metal>
0.0000

> <Gold.Chemscore.Hbonds>
donor molecule, donor type, donor heavy atom, donor atom, acceptor molecule, acceptor atom, score
      L1  H     6    41       P1  8028  2.00
      L1  C    14    37       P1  8028  1.00

> <Gold.PLP.Chemscore.Internal.Correction>
0.0151

> <Gold.Rescore>
     Score         DG    S(hbond)    S(metal)    S(lipo)     H(rot)  DE(clash)    DE(int)     intcor
     17.22     -18.30       0.98        0.00     111.25       1.36       0.77       0.32       ----

> <Gold.Chemscore.Fitness>
17.2153

> <Gold.Chemscore.DG>
-18.3014

> <Gold.Chemscore.ZeroCoef>
-5.4800

> <Gold.Chemscore.Hbond>
0.9833

> <Gold.Chemscore.Metal>
0.0000

> <Gold.Chemscore.Lipo>
111.2458

> <Gold.Chemscore.Internal_Hbond>
0.0000

> <Gold.Chemscore.DEClash>
0.7688

> <Gold.Chemscore.DEInternal>
0.3173

> <Gold.Chemscore.Rot>
1.3588

> <Gold.Chemscore.Internal.Correction>
   9.000000E+99

> <Gold.Chemscore.Hbonds>
donor molecule, donor type, donor heavy atom, donor atom, acceptor molecule, acceptor atom, score
      L1  H     6    41       P1  8028  0.96

> <Gold.Chemscore.Hbond.Weighted>
-3.2842

> <Gold.Chemscore.Metal.Weighted>
-0.0000

> <Gold.Chemscore.Lipo.Weighted>
-13.0158

> <Gold.Chemscore.Internal_Hbond.Weighted>
0.0000

> <Gold.Chemscore.DEClash.Weighted>
0.7688

> <Gold.Chemscore.DEInternal.Weighted>
0.3173

> <Gold.Chemscore.Rot.Weighted>
3.4786

> <Gold.Chemscore.Internal.Correction.Weighted>
   9.000000E+99

> <Gold.Protein.RotatedTorsions>
[ 6907 6896 6895 6894 ] final  -24.80 input  -60.11 | X-H torsion
[ 7974 7965 7964 7962 ] final -108.41 input  175.53 | X-H torsion
[ 8008 7997 7996 7995 ] final -106.35 input   59.86 | X-H torsion
[ 10167 10162 10161 10158 ] final   85.53 input  -65.29 | X-H torsion
[ 10718 10713 10712 10709 ] final   33.75 input   66.30 | X-H torsion
[ 10763 10752 10751 10750 ] final  -25.34 input  -60.55 | X-H torsion
[ 11005 11000 10999 10996 ] final  119.68 input  -57.11 | X-H torsion

> <Gold.Protein.ActiveResidues>
 VAL166  LYS551  ARG553  GLY616  TRP617  ASP618  TYR619  PRO620  LYS621  CYS622 
 ASP623  PHE694  ASN695  SER759  ASP760  ASP761  ALA762  ILE779  LEU786  VAL792 
 PHE793  MET794  SER795  GLU796  ALA797  LYS798  CYS799  TRP800  GLU811  SER814 

> <Gold.Protein.RotatedAtoms>
  151.1844  135.0375  159.8805 H   0  0  0  0  0  0  0  0  0  0  0  0  # atno 6907 bound_to 6896
  152.5443  134.1027  159.8335 H   0  0  0  0  0  0  0  0  0  0  0  0  # atno 6908 bound_to 6896
  151.1148  133.5100  159.2636 H   0  0  0  0  0  0  0  0  0  0  0  0  # atno 6909 bound_to 6896
  145.1932  140.9024  143.3412 H   0  0  0  0  0  0  0  0  0  0  0  0  # atno 7974 bound_to 7965
  154.9133  140.0409  157.1958 H   0  0  0  0  0  0  0  0  0  0  0  0  # atno 8008 bound_to 7997
  154.8326  140.2901  155.5690 H   0  0  0  0  0  0  0  0  0  0  0  0  # atno 8009 bound_to 7997
  156.2988  140.2498  156.3254 H   0  0  0  0  0  0  0  0  0  0  0  0  # atno 8010 bound_to 7997
  139.8968  144.6353  150.8679 H   0  0  0  0  0  0  0  0  0  0  0  0  # atno 10167 bound_to 10162
  157.3018  130.7354  149.6671 H   0  0  0  0  0  0  0  0  0  0  0  0  # atno 10718 bound_to 10713
  153.6982  135.6958  153.5070 H   0  0  0  0  0  0  0  0  0  0  0  0  # atno 10763 bound_to 10752
  153.2362  135.4321  155.0648 H   0  0  0  0  0  0  0  0  0  0  0  0  # atno 10764 bound_to 10752
  154.8352  135.3496  154.6522 H   0  0  0  0  0  0  0  0  0  0  0  0  # atno 10765 bound_to 10752
  139.9156  134.9630  156.7692 H   0  0  0  0  0  0  0  0  0  0  0  0  # atno 11005 bound_to 11000
  145.0021  139.3589  143.6162 LP  0  0  0  0  0  0  0  0  0  0  0  0  # atno 17320 bound_to 7965
  146.3432  139.9248  142.8761 LP  0  0  0  0  0  0  0  0  0  0  0  0  # atno 17321 bound_to 7965
  140.7715  143.3467  151.2096 LP  0  0  0  0  0  0  0  0  0  0  0  0  # atno 17342 bound_to 10162
  139.7060  143.9454  152.2927 LP  0  0  0  0  0  0  0  0  0  0  0  0  # atno 17343 bound_to 10162
  155.9672  130.4278  150.4758 LP  0  0  0  0  0  0  0  0  0  0  0  0  # atno 17370 bound_to 10713
  157.2740  131.0593  151.2241 LP  0  0  0  0  0  0  0  0  0  0  0  0  # atno 17371 bound_to 10713
  140.6635  133.9624  155.7817 LP  0  0  0  0  0  0  0  0  0  0  0  0  # atno 17394 bound_to 11000
  141.0627  134.0322  157.3636 LP  0  0  0  0  0  0  0  0  0  0  0  0  # atno 17395 bound_to 11000

$$$$
