AV-unprocessed.smi:193|AV-procd|sdf|1514|dock3
  -GOLD-   2262019353D 1   1.00000     0.00000
 Structure written by MMmdl.
 61 65  0  0  0  0  0  0  0  0  1 V2000
  144.1584  132.5703  150.7913 C   0  0  0  0  0  0  0  0  0  0  0  0
  145.3053  132.4212  151.8015 C   0  0  2  0  0  0  0  0  0  0  0  0
  146.0028  133.7878  151.9907 C   0  0  0  0  0  0  0  0  0  0  0  0
  146.9761  133.7995  153.0838 N   0  0  0  0  0  0  0  0  0  0  0  0
  147.2489  134.9769  153.7015 C   0  0  0  0  0  0  0  0  0  0  0  0
  146.3092  135.9594  153.7182 N   0  0  0  0  0  0  0  0  0  0  0  0
  146.5638  137.1268  154.3167 C   0  0  0  0  0  0  0  0  0  0  0  0
  147.6724  137.5163  154.9488 N   0  0  0  0  0  0  0  0  0  0  0  0
  148.6180  136.5337  154.9411 C   0  0  0  0  0  0  0  0  0  0  0  0
  148.4875  135.2444  154.3516 C   0  0  0  0  0  0  0  0  0  0  0  0
  149.6455  134.5066  154.5687 N   0  0  0  0  0  0  0  0  0  0  0  0
  150.4202  135.3172  155.2352 C   0  0  0  0  0  0  0  0  0  0  0  0
  149.8886  136.5612  155.4900 N   0  0  0  0  0  0  0  0  0  0  0  0
  150.5346  137.6514  156.2052 C   0  0  0  0  0  0  0  0  0  0  0  0
  151.5230  138.4837  155.3414 C   0  0  0  0  0  0  0  0  0  0  0  0
  152.6418  137.6634  155.0632 O   0  0  0  0  0  0  0  0  0  0  0  0
  150.8976  138.8853  153.9909 C   0  0  0  0  0  0  0  0  0  0  0  0
  149.8710  140.0216  154.1567 C   0  0  0  0  0  0  0  0  0  0  0  0
  150.4734  141.1383  154.8032 O   0  0  0  0  0  0  0  0  0  0  0  0
  150.9531  140.8404  156.1100 C   0  0  0  0  0  0  0  0  0  0  0  0
  152.0476  139.7626  156.0289 C   0  0  0  0  0  0  0  0  0  0  0  0
  148.0225  132.7801  153.1063 C   0  0  0  0  0  0  0  0  0  0  0  0
  147.4312  131.4226  153.5133 C   0  0  0  0  0  0  0  0  0  0  0  0
  147.0086  130.6080  152.3724 N   0  0  0  0  0  0  0  0  0  0  0  0
  146.1907  129.5078  152.8675 C   0  0  1  0  0  0  0  0  0  0  0  0
  145.4021  128.7025  151.8589 C   0  0  0  0  0  0  0  0  0  0  0  0
  146.5981  128.0815  152.5413 C   0  0  1  0  0  0  0  0  0  0  0  0
  147.8360  127.7368  151.7357 C   0  0  0  0  0  0  0  0  0  0  0  0
  146.2991  131.3376  151.3141 C   0  0  0  0  0  0  0  0  0  0  0  0
  144.5291  132.8785  149.8131 H   0  0  0  0  0  0  0  0  0  0  0  0
  143.4360  133.3163  151.1233 H   0  0  0  0  0  0  0  0  0  0  0  0
  143.6208  131.6303  150.6645 H   0  0  0  0  0  0  0  0  0  0  0  0
  144.8482  132.1150  152.7435 H   0  0  0  0  0  0  0  0  0  0  0  0
  146.4990  134.0911  151.0681 H   0  0  0  0  0  0  0  0  0  0  0  0
  145.2370  134.5377  152.1944 H   0  0  0  0  0  0  0  0  0  0  0  0
  145.7651  137.8531  154.2840 H   0  0  0  0  0  0  0  0  0  0  0  0
  151.4109  135.0296  155.5553 H   0  0  0  0  0  0  0  0  0  0  0  0
  149.7574  138.2978  156.6153 H   0  0  0  0  0  0  0  0  0  0  0  0
  151.0439  137.2198  157.0663 H   0  0  0  0  0  0  0  0  0  0  0  0
  153.4282  138.1503  155.2553 H   0  0  0  0  0  0  0  0  0  0  0  0
  151.6795  139.2295  153.3119 H   0  0  0  0  0  0  0  0  0  0  0  0
  150.4332  138.0238  153.5096 H   0  0  0  0  0  0  0  0  0  0  0  0
  149.5096  140.3400  153.1788 H   0  0  0  0  0  0  0  0  0  0  0  0
  148.9967  139.6910  154.7182 H   0  0  0  0  0  0  0  0  0  0  0  0
  151.3605  141.7519  156.5475 H   0  0  0  0  0  0  0  0  0  0  0  0
  150.1292  140.5243  156.7509 H   0  0  0  0  0  0  0  0  0  0  0  0
  152.4508  139.5506  157.0190 H   0  0  0  0  0  0  0  0  0  0  0  0
  152.8806  140.1697  155.4534 H   0  0  0  0  0  0  0  0  0  0  0  0
  148.5188  132.7260  152.1367 H   0  0  0  0  0  0  0  0  0  0  0  0
  148.8069  133.0488  153.8132 H   0  0  0  0  0  0  0  0  0  0  0  0
  148.1879  130.8556  154.0549 H   0  0  0  0  0  0  0  0  0  0  0  0
  146.6101  131.5730  154.2165 H   0  0  0  0  0  0  0  0  0  0  0  0
  145.6972  129.6339  153.8298 H   0  0  0  0  0  0  0  0  0  0  0  0
  144.4166  128.3519  152.1580 H   0  0  0  0  0  0  0  0  0  0  0  0
  145.5004  128.9680  150.8078 H   0  0  0  0  0  0  0  0  0  0  0  0
  146.3778  127.3504  153.3166 H   0  0  0  0  0  0  0  0  0  0  0  0
  147.9974  128.4577  150.9337 H   0  0  0  0  0  0  0  0  0  0  0  0
  147.7261  126.7477  151.2911 H   0  0  0  0  0  0  0  0  0  0  0  0
  148.7142  127.7295  152.3811 H   0  0  0  0  0  0  0  0  0  0  0  0
  145.7855  130.6102  150.6840 H   0  0  0  0  0  0  0  0  0  0  0  0
  147.0376  131.7996  150.6585 H   0  0  0  0  0  0  0  0  0  0  0  0
  1  2  1  0  0  0  0
  1 30  1  0  0  0  0
  1 31  1  0  0  0  0
  1 32  1  0  0  0  0
  2 29  1  0  0  0  0
  2  3  1  0  0  0  0
  2 33  1  0  0  0  0
  3  4  1  0  0  0  0
  3 34  1  0  0  0  0
  3 35  1  0  0  0  0
  4  5  1  0  0  0  0
  4 22  1  0  0  0  0
  5 10  1  0  0  0  0
  5  6  2  0  0  0  0
  6  7  1  0  0  0  0
  7  8  2  0  0  0  0
  7 36  1  0  0  0  0
  8  9  1  0  0  0  0
  9 13  1  0  0  0  0
  9 10  2  0  0  0  0
 10 11  1  0  0  0  0
 11 12  2  0  0  0  0
 12 13  1  0  0  0  0
 12 37  1  0  0  0  0
 13 14  1  0  0  0  0
 14 15  1  0  0  0  0
 14 38  1  0  0  0  0
 14 39  1  0  0  0  0
 15 21  1  0  0  0  0
 15 16  1  0  0  0  0
 15 17  1  0  0  0  0
 16 40  1  0  0  0  0
 17 18  1  0  0  0  0
 17 41  1  0  0  0  0
 17 42  1  0  0  0  0
 18 19  1  0  0  0  0
 18 43  1  0  0  0  0
 18 44  1  0  0  0  0
 19 20  1  0  0  0  0
 20 21  1  0  0  0  0
 20 45  1  0  0  0  0
 20 46  1  0  0  0  0
 21 47  1  0  0  0  0
 21 48  1  0  0  0  0
 22 23  1  0  0  0  0
 22 49  1  0  0  0  0
 22 50  1  0  0  0  0
 23 24  1  0  0  0  0
 23 51  1  0  0  0  0
 23 52  1  0  0  0  0
 24 25  1  0  0  0  0
 24 29  1  0  0  0  0
 25 27  1  0  0  0  0
 25 26  1  0  0  0  0
 25 53  1  0  0  0  0
 26 27  1  0  0  0  0
 26 54  1  0  0  0  0
 26 55  1  0  0  0  0
 27 28  1  0  0  0  0
 27 56  1  0  0  0  0
 28 57  1  0  0  0  0
 28 58  1  0  0  0  0
 28 59  1  0  0  0  0
 29 60  1  0  0  0  0
 29 61  1  0  0  0  0
M  END
> <s_m_source_file>
AV-unprocessed.smi

> <i_m_source_file_index>
193

> <i_lp_mmshare_version>
43012

> <i_f3d_flags>
0

> <s_epik_input>
W0NIM11bQ0BASF0xW0NIMl1bQ0BIXTFOKFtDSDJdMilbQ0gyXVtDSDJdTihbQ0gyXVtDQEhdMltDSDNdKWMobltjSF1uMyljKGMzNCluW2NIXW40W0NIMl1DNShbT0hdKVtDSDJdW0NIMl1PW0NIMl1bQ0gyXTU=

> <s_epik_cmdline>
J2VwaWtfcHl0aG9uJywgJy1waCcsICc3LjAnLCAnLXRuJywgJzgnLCAnLW1hJywgJzIwMCcsICctbWV0YWxfYmluZGluZycsICctaW1hZScsICc8aW5maWxlLm1hZT4nLCAnLW9tYWUnLCAnPG91dGZpbGUubWFlPic=

> <r_lp_tautomer_probability>
1

> <r_epik_Ionization_Penalty>
1.45227

> <r_epik_Ionization_Penalty_Charging>
0

> <r_epik_Ionization_Penalty_Neutral>
1.45227

> <r_epik_State_Penalty>
2.02377

> <r_epik_Charging_Adjusted_Penalty>
2.02377

> <i_epik_Tot_Q>
0

> <i_epik_Tot_abs_Q>
0

> <r_epik_Metal_State_Penalty>
2.01937

> <b_epik_Metal_Only>
0

> <s_lp_Force_Field>
OPLS_2005

> <r_lp_Energy>
54.496

> <b_lp_Chiralities_Consistent>
1

> <s_lp_Variant>
AV-unprocessed.smi:193-19

> <Gold.Version>
5.8.1

> <Gold.Id.Protein>
6NUR|6NUR_protein|mol2

> <Gold.PLP.Fitness>
42.8987

> <Gold.PLP.PLP>
-42.7724

> <Gold.PLP.part.hbond>
-2.0000

> <Gold.PLP.part.metal>
0.0000

> <Gold.PLP.part.buried>
-1.7713

> <Gold.PLP.part.nonpolar>
-39.5971

> <Gold.PLP.part.repulsive>
1.8775

> <Gold.PLP.ligand.clash>
0.0000

> <Gold.PLP.ligand.torsion>
1.3724

> <Gold.PLP.Chemscore.Hbond>
0.5073

> <Gold.PLP.Chemscore.CHOScore>
0.0000

> <Gold.PLP.Chemscore.Metal>
0.0000

> <Gold.Chemscore.Hbonds>
donor molecule, donor type, donor heavy atom, donor atom, acceptor molecule, acceptor atom, score
      P1  H  7989  7998       L1    19  0.03
      P1  H 10752 10765       L1    16  0.34

> <Gold.PLP.Chemscore.Internal.Correction>
1.3493

> <Gold.Rescore>
     Score         DG    S(hbond)    S(metal)    S(lipo)     H(rot)  DE(clash)    DE(int)     intcor
     11.99     -14.76       0.41        0.00     109.45       1.91       0.02       2.74       ----

> <Gold.Chemscore.Fitness>
11.9925

> <Gold.Chemscore.DG>
-14.7603

> <Gold.Chemscore.ZeroCoef>
-5.4800

> <Gold.Chemscore.Hbond>
0.4061

> <Gold.Chemscore.Metal>
0.0000

> <Gold.Chemscore.Lipo>
109.4480

> <Gold.Chemscore.Internal_Hbond>
0.0000

> <Gold.Chemscore.DEClash>
0.0232

> <Gold.Chemscore.DEInternal>
2.7446

> <Gold.Chemscore.Rot>
1.9068

> <Gold.Chemscore.Internal.Correction>
   9.000000E+99

> <Gold.Chemscore.Hbonds>
donor molecule, donor type, donor heavy atom, donor atom, acceptor molecule, acceptor atom, score
      P1  H 10752 10765       L1    16  0.30

> <Gold.Chemscore.Hbond.Weighted>
-1.3563

> <Gold.Chemscore.Metal.Weighted>
-0.0000

> <Gold.Chemscore.Lipo.Weighted>
-12.8054

> <Gold.Chemscore.Internal_Hbond.Weighted>
0.0000

> <Gold.Chemscore.DEClash.Weighted>
0.0232

> <Gold.Chemscore.DEInternal.Weighted>
2.7446

> <Gold.Chemscore.Rot.Weighted>
4.8814

> <Gold.Chemscore.Internal.Correction.Weighted>
   9.000000E+99

> <Gold.Protein.RotatedTorsions>
[ 6907 6896 6895 6894 ] final -141.69 input  -60.11 | X-H torsion
[ 7974 7965 7964 7962 ] final  -79.32 input  175.53 | X-H torsion
[ 8008 7997 7996 7995 ] final  -39.42 input   59.86 | X-H torsion
[ 10167 10162 10161 10158 ] final  -68.70 input  -65.29 | X-H torsion
[ 10718 10713 10712 10709 ] final  172.41 input   66.30 | X-H torsion
[ 10763 10752 10751 10750 ] final  164.41 input  -60.55 | X-H torsion
[ 11005 11000 10999 10996 ] final  112.00 input  -57.11 | X-H torsion

> <Gold.Protein.ActiveResidues>
 VAL166  LYS551  ARG553  GLY616  TRP617  ASP618  TYR619  PRO620  LYS621  CYS622 
 ASP623  PHE694  ASN695  SER759  ASP760  ASP761  ALA762  ILE779  LEU786  VAL792 
 PHE793  MET794  SER795  GLU796  ALA797  LYS798  CYS799  TRP800  GLU811  SER814 

> <Gold.Protein.RotatedAtoms>
  151.0772  133.5419  159.2622 H   0  0  0  0  0  0  0  0  0  0  0  0  # atno 6907 bound_to 6896
  151.2336  135.0563  159.9007 H   0  0  0  0  0  0  0  0  0  0  0  0  # atno 6908 bound_to 6896
  152.5419  134.0557  159.8183 H   0  0  0  0  0  0  0  0  0  0  0  0  # atno 6909 bound_to 6896
  145.5748  140.9459  143.1376 H   0  0  0  0  0  0  0  0  0  0  0  0  # atno 7974 bound_to 7965
  154.4023  140.1552  156.2861 H   0  0  0  0  0  0  0  0  0  0  0  0  # atno 8008 bound_to 7997
  155.8827  140.3443  155.5877 H   0  0  0  0  0  0  0  0  0  0  0  0  # atno 8009 bound_to 7997
  155.7649  140.0822  157.2127 H   0  0  0  0  0  0  0  0  0  0  0  0  # atno 8010 bound_to 7997
  140.5487  143.2312  151.6952 H   0  0  0  0  0  0  0  0  0  0  0  0  # atno 10167 bound_to 10162
  156.9794  131.0114  151.2885 H   0  0  0  0  0  0  0  0  0  0  0  0  # atno 10718 bound_to 10713
  154.3084  135.2758  155.2577 H   0  0  0  0  0  0  0  0  0  0  0  0  # atno 10763 bound_to 10752
  154.4983  135.5815  153.6515 H   0  0  0  0  0  0  0  0  0  0  0  0  # atno 10764 bound_to 10752
  152.9891  135.6151  154.3260 H   0  0  0  0  0  0  0  0  0  0  0  0  # atno 10765 bound_to 10752
  139.8917  134.9520  156.6519 H   0  0  0  0  0  0  0  0  0  0  0  0  # atno 11005 bound_to 11000
  144.7421  139.7420  143.7307 LP  0  0  0  0  0  0  0  0  0  0  0  0  # atno 17320 bound_to 7965
  146.1758  139.4929  142.9898 LP  0  0  0  0  0  0  0  0  0  0  0  0  # atno 17321 bound_to 7965
  139.5018  144.3853  152.0335 LP  0  0  0  0  0  0  0  0  0  0  0  0  # atno 17342 bound_to 10162
  140.2968  144.3692  150.6072 LP  0  0  0  0  0  0  0  0  0  0  0  0  # atno 17343 bound_to 10162
  157.5537  130.8199  149.8177 LP  0  0  0  0  0  0  0  0  0  0  0  0  # atno 17370 bound_to 10713
  156.0251  130.3782  150.1848 LP  0  0  0  0  0  0  0  0  0  0  0  0  # atno 17371 bound_to 10713
  140.7514  133.8894  155.8349 LP  0  0  0  0  0  0  0  0  0  0  0  0  # atno 17394 bound_to 11000
  140.9998  134.1166  157.4329 LP  0  0  0  0  0  0  0  0  0  0  0  0  # atno 17395 bound_to 11000

$$$$
