AV-unprocessed.smi:2844|AV-procd|sdf|10940|dock6
  -GOLD-   2272015383D 1   1.00000     0.00000
 Structure written by MMmdl.
 38 40  0  0  0  0  0  0  0  0  1 V2000
  152.8049  143.3984  161.2905 C   0  0  0  0  0  0  0  0  0  0  0  0
  152.2464  142.8786  159.9776 C   0  0  0  0  0  0  0  0  0  0  0  0
  152.4720  141.5300  159.6214 C   0  0  0  0  0  0  0  0  0  0  0  0
  151.9683  141.0068  158.4104 C   0  0  0  0  0  0  0  0  0  0  0  0
  152.0654  139.7355  157.8710 N   0  0  0  0  0  0  0  0  0  0  0  0
  151.3938  139.8760  156.7319 C   0  0  0  0  0  0  0  0  0  0  0  0
  150.8732  141.0901  156.4685 N   0  0  0  0  0  0  0  0  0  0  0  0
  150.1072  141.4828  155.2994 C   0  0  0  0  0  0  0  0  0  0  0  0
  148.5890  141.3310  155.5119 C   0  0  1  0  0  0  0  0  0  0  0  0
  148.1646  142.1910  156.5541 O   0  0  0  0  0  0  0  0  0  0  0  0
  147.7956  141.6362  154.2267 C   0  0  0  0  0  0  0  0  0  0  0  0
  146.5816  142.3915  154.4815 N   0  0  0  0  0  0  0  0  0  0  0  0
  146.1157  143.5093  153.8163 C   0  0  0  0  0  0  0  0  0  0  0  0
  144.9451  143.8346  154.4305 C   0  0  0  0  0  0  0  0  0  0  0  0
  143.9034  145.1513  154.0353 Cl  0  0  0  0  0  0  0  0  0  0  0  0
  144.7517  142.8766  155.4579 C   0  0  0  0  0  0  0  0  0  0  0  0
  145.7474  142.0022  155.4796 N   0  0  0  0  0  0  0  0  0  0  0  0
  151.2284  141.8774  157.5579 C   0  0  0  0  0  0  0  0  0  0  0  0
  150.9988  143.2218  157.9002 C   0  0  0  0  0  0  0  0  0  0  0  0
  151.5073  143.7277  159.1149 C   0  0  0  0  0  0  0  0  0  0  0  0
  151.2518  145.1798  159.4781 C   0  0  0  0  0  0  0  0  0  0  0  0
  153.3169  142.6113  161.8448 H   0  0  0  0  0  0  0  0  0  0  0  0
  152.0038  143.7837  161.9216 H   0  0  0  0  0  0  0  0  0  0  0  0
  153.5208  144.2004  161.1096 H   0  0  0  0  0  0  0  0  0  0  0  0
  153.0355  140.8831  160.2778 H   0  0  0  0  0  0  0  0  0  0  0  0
  151.2749  139.0490  156.0471 H   0  0  0  0  0  0  0  0  0  0  0  0
  150.3587  142.5137  155.0460 H   0  0  0  0  0  0  0  0  0  0  0  0
  150.4326  140.8677  154.4596 H   0  0  0  0  0  0  0  0  0  0  0  0
  148.3776  140.3070  155.8228 H   0  0  0  0  0  0  0  0  0  0  0  0
  148.6211  143.0139  156.4714 H   0  0  0  0  0  0  0  0  0  0  0  0
  148.4123  142.1985  153.5240 H   0  0  0  0  0  0  0  0  0  0  0  0
  147.5203  140.7075  153.7247 H   0  0  0  0  0  0  0  0  0  0  0  0
  146.6439  143.9621  152.9904 H   0  0  0  0  0  0  0  0  0  0  0  0
  143.9437  142.7869  156.1690 H   0  0  0  0  0  0  0  0  0  0  0  0
  150.4354  143.8571  157.2327 H   0  0  0  0  0  0  0  0  0  0  0  0
  150.6815  145.6900  158.7014 H   0  0  0  0  0  0  0  0  0  0  0  0
  152.1935  145.7137  159.6067 H   0  0  0  0  0  0  0  0  0  0  0  0
  150.6854  145.2464  160.4072 H   0  0  0  0  0  0  0  0  0  0  0  0
  1  2  1  0  0  0  0
  1 22  1  0  0  0  0
  1 23  1  0  0  0  0
  1 24  1  0  0  0  0
  2 20  1  0  0  0  0
  2  3  2  0  0  0  0
  3  4  1  0  0  0  0
  3 25  1  0  0  0  0
  4 18  2  0  0  0  0
  4  5  1  0  0  0  0
  5  6  2  0  0  0  0
  6  7  1  0  0  0  0
  6 26  1  0  0  0  0
  7  8  1  0  0  0  0
  7 18  1  0  0  0  0
  8  9  1  0  0  0  0
  8 27  1  0  0  0  0
  8 28  1  0  0  0  0
  9 10  1  0  0  0  0
  9 11  1  0  0  0  0
  9 29  1  0  0  0  0
 10 30  1  0  0  0  0
 11 12  1  0  0  0  0
 11 31  1  0  0  0  0
 11 32  1  0  0  0  0
 12 17  1  0  0  0  0
 12 13  1  0  0  0  0
 13 14  2  0  0  0  0
 13 33  1  0  0  0  0
 14 15  1  0  0  0  0
 14 16  1  0  0  0  0
 16 17  2  0  0  0  0
 16 34  1  0  0  0  0
 18 19  1  0  0  0  0
 19 20  2  0  0  0  0
 19 35  1  0  0  0  0
 20 21  1  0  0  0  0
 21 36  1  0  0  0  0
 21 37  1  0  0  0  0
 21 38  1  0  0  0  0
M  END
> <s_m_source_file>
AV-unprocessed.smi

> <i_m_source_file_index>
2844

> <i_lp_mmshare_version>
43012

> <i_f3d_flags>
0

> <s_epik_input>
W0NIM11jKFtjSF0xKWMoW0NIM10pW2NIXWMoYzEyKW4oW2NIXW4yKVtDSDJdW0NASF0oW09IXSlbQ0gyXW4zW2NIXWMoQ2wpW2NIXW4z

> <s_epik_cmdline>
J2VwaWtfcHl0aG9uJywgJy1waCcsICc3LjAnLCAnLXRuJywgJzgnLCAnLW1hJywgJzIwMCcsICctbWV0YWxfYmluZGluZycsICctaW1hZScsICc8aW5maWxlLm1hZT4nLCAnLW9tYWUnLCAnPG91dGZpbGUubWFlPic=

> <r_lp_tautomer_probability>
1

> <r_epik_Ionization_Penalty>
0.1021

> <r_epik_Ionization_Penalty_Charging>
0

> <r_epik_Ionization_Penalty_Neutral>
0.1021

> <r_epik_State_Penalty>
0.0920694

> <r_epik_Charging_Adjusted_Penalty>
0.0920694

> <i_epik_Tot_Q>
0

> <i_epik_Tot_abs_Q>
0

> <r_epik_Metal_State_Penalty>
0.0784292

> <b_epik_Metal_Only>
0

> <s_lp_Force_Field>
OPLS_2005

> <r_lp_Energy>
10.226

> <b_lp_Chiralities_Consistent>
1

> <s_lp_Variant>
AV-unprocessed.smi:2844-2

> <Gold.Version>
5.8.1

> <Gold.Id.Protein>
6NUR|6NUR_protein|mol2

> <Gold.PLP.Fitness>
49.8009

> <Gold.PLP.PLP>
-48.9842

> <Gold.PLP.part.hbond>
-1.0000

> <Gold.PLP.part.metal>
0.0000

> <Gold.PLP.part.buried>
-6.0465

> <Gold.PLP.part.nonpolar>
-41.6805

> <Gold.PLP.part.repulsive>
0.1319

> <Gold.PLP.ligand.clash>
0.0000

> <Gold.PLP.ligand.torsion>
1.1058

> <Gold.PLP.Chemscore.Hbond>
1.0000

> <Gold.PLP.Chemscore.CHOScore>
0.0000

> <Gold.PLP.Chemscore.Metal>
0.0000

> <Gold.Chemscore.Hbonds>
donor molecule, donor type, donor heavy atom, donor atom, acceptor molecule, acceptor atom, score
      L1  H    10    30       P1  8028  1.00

> <Gold.PLP.Chemscore.Internal.Correction>
0.0284

> <Gold.Rescore>
     Score         DG    S(hbond)    S(metal)    S(lipo)     H(rot)  DE(clash)    DE(int)     intcor
     15.11     -17.85       0.94        0.00     126.12       2.15       0.21       2.53       ----

> <Gold.Chemscore.Fitness>
15.1083

> <Gold.Chemscore.DG>
-17.8483

> <Gold.Chemscore.ZeroCoef>
-5.4800

> <Gold.Chemscore.Hbond>
0.9355

> <Gold.Chemscore.Metal>
0.0000

> <Gold.Chemscore.Lipo>
126.1229

> <Gold.Chemscore.Internal_Hbond>
0.0000

> <Gold.Chemscore.DEClash>
0.2138

> <Gold.Chemscore.DEInternal>
2.5263

> <Gold.Chemscore.Rot>
2.1534

> <Gold.Chemscore.Internal.Correction>
   9.000000E+99

> <Gold.Chemscore.Hbonds>
donor molecule, donor type, donor heavy atom, donor atom, acceptor molecule, acceptor atom, score
      L1  H    10    30       P1  8028  0.87

> <Gold.Chemscore.Hbond.Weighted>
-3.1247

> <Gold.Chemscore.Metal.Weighted>
-0.0000

> <Gold.Chemscore.Lipo.Weighted>
-14.7564

> <Gold.Chemscore.Internal_Hbond.Weighted>
0.0000

> <Gold.Chemscore.DEClash.Weighted>
0.2138

> <Gold.Chemscore.DEInternal.Weighted>
2.5263

> <Gold.Chemscore.Rot.Weighted>
5.5127

> <Gold.Chemscore.Internal.Correction.Weighted>
   9.000000E+99

> <Gold.Protein.RotatedTorsions>
[ 6907 6896 6895 6894 ] final  132.31 input  -60.11 | X-H torsion
[ 7974 7965 7964 7962 ] final -131.63 input  175.53 | X-H torsion
[ 8008 7997 7996 7995 ] final  142.02 input   59.86 | X-H torsion
[ 10167 10162 10161 10158 ] final   88.57 input  -65.29 | X-H torsion
[ 10718 10713 10712 10709 ] final   28.37 input   66.30 | X-H torsion
[ 10763 10752 10751 10750 ] final -145.44 input  -60.55 | X-H torsion
[ 11005 11000 10999 10996 ] final  -94.46 input  -57.11 | X-H torsion

> <Gold.Protein.ActiveResidues>
 VAL166  LYS551  ARG553  GLY616  TRP617  ASP618  TYR619  PRO620  LYS621  CYS622 
 ASP623  PHE694  ASN695  SER759  ASP760  ASP761  ALA762  ILE779  LEU786  VAL792 
 PHE793  MET794  SER795  GLU796  ALA797  LYS798  CYS799  TRP800  GLU811  SER814 

> <Gold.Protein.RotatedAtoms>
  152.3337  133.5988  159.5827 H   0  0  0  0  0  0  0  0  0  0  0  0  # atno 6907 bound_to 6896
  150.7438  133.9828  159.3590 H   0  0  0  0  0  0  0  0  0  0  0  0  # atno 6908 bound_to 6896
  151.7700  135.0789  160.0409 H   0  0  0  0  0  0  0  0  0  0  0  0  # atno 6909 bound_to 6896
  144.9361  140.7185  143.4876 H   0  0  0  0  0  0  0  0  0  0  0  0  # atno 7974 bound_to 7965
  156.2956  140.2300  156.4660 H   0  0  0  0  0  0  0  0  0  0  0  0  # atno 8008 bound_to 7997
  154.7977  140.0450  157.1270 H   0  0  0  0  0  0  0  0  0  0  0  0  # atno 8009 bound_to 7997
  154.9570  140.3049  155.5052 H   0  0  0  0  0  0  0  0  0  0  0  0  # atno 8010 bound_to 7997
  139.8660  144.6519  150.9004 H   0  0  0  0  0  0  0  0  0  0  0  0  # atno 10167 bound_to 10162
  157.2325  130.7030  149.6320 H   0  0  0  0  0  0  0  0  0  0  0  0  # atno 10718 bound_to 10713
  154.8383  135.3413  154.6504 H   0  0  0  0  0  0  0  0  0  0  0  0  # atno 10763 bound_to 10752
  153.7117  135.6963  153.5040 H   0  0  0  0  0  0  0  0  0  0  0  0  # atno 10764 bound_to 10752
  153.2447  135.4373  155.0688 H   0  0  0  0  0  0  0  0  0  0  0  0  # atno 10765 bound_to 10752
  141.1470  133.7958  157.0301 H   0  0  0  0  0  0  0  0  0  0  0  0  # atno 11005 bound_to 11000
  145.3065  139.1833  143.4662 LP  0  0  0  0  0  0  0  0  0  0  0  0  # atno 17320 bound_to 7965
  146.3267  140.3063  142.8624 LP  0  0  0  0  0  0  0  0  0  0  0  0  # atno 17321 bound_to 7965
  140.7768  143.3704  151.1660 LP  0  0  0  0  0  0  0  0  0  0  0  0  # atno 17342 bound_to 10162
  139.7329  143.9044  152.3025 LP  0  0  0  0  0  0  0  0  0  0  0  0  # atno 17343 bound_to 10162
  155.9674  130.4484  150.5619 LP  0  0  0  0  0  0  0  0  0  0  0  0  # atno 17370 bound_to 10713
  157.3463  131.0725  151.1748 LP  0  0  0  0  0  0  0  0  0  0  0  0  # atno 17371 bound_to 10713
  140.0760  134.9675  157.1546 LP  0  0  0  0  0  0  0  0  0  0  0  0  # atno 17394 bound_to 11000
  140.3644  134.2459  155.7184 LP  0  0  0  0  0  0  0  0  0  0  0  0  # atno 17395 bound_to 11000

$$$$
