AV-unprocessed.smi:749|AV-procd|sdf|3585|dock5
  -GOLD-   22720 0583D 1   1.00000     0.00000
 Structure written by MMmdl.
 43 44  0  0  0  0  0  0  0  0  1 V2000
  143.2279  132.7141  148.4064 C   0  0  0  0  0  0  0  0  0  0  0  0
  143.9678  133.1143  149.6043 N   0  0  0  0  0  0  0  0  0  0  0  0
  144.0852  134.5677  149.7998 C   0  0  0  0  0  0  0  0  0  0  0  0
  144.5354  134.9802  151.2119 C   0  0  2  0  0  0  0  0  0  0  0  0
  144.9276  136.3851  151.2120 N   0  0  0  0  0  0  0  0  0  0  0  0
  145.7041  136.9836  152.1304 C   0  0  0  0  0  0  0  0  0  0  0  0
  146.1683  136.3875  153.1008 O   0  0  0  0  0  0  0  0  0  0  0  0
  145.9557  138.2948  151.9321 N   0  0  0  0  0  0  0  0  0  0  0  0
  146.7239  139.2225  152.6916 C   0  0  0  0  0  0  0  0  0  0  0  0
  147.6522  138.7584  153.6602 C   0  0  0  0  0  0  0  0  0  0  0  0
  148.1883  139.9113  154.1663 C   0  0  0  0  0  0  0  0  0  0  0  0
  149.2250  140.1960  155.2169 C   0  0  0  0  0  0  0  0  0  0  0  0
  149.5051  141.7088  155.3132 C   0  0  0  0  0  0  0  0  0  0  0  0
  150.5424  139.4796  154.8653 C   0  0  0  0  0  0  0  0  0  0  0  0
  148.7316  139.7047  156.5907 C   0  0  0  0  0  0  0  0  0  0  0  0
  147.6304  140.9903  153.5497 O   0  0  0  0  0  0  0  0  0  0  0  0
  146.6955  140.5441  152.6097 N   0  0  0  0  0  0  0  0  0  0  0  0
  145.7008  134.0936  151.6616 C   0  0  0  0  0  0  0  0  0  0  0  0
  145.2796  132.6197  151.6718 C   0  0  0  0  0  0  0  0  0  0  0  0
  144.5444  132.1785  150.3968 C   0  0  0  0  0  0  0  0  0  0  0  0
  144.4775  130.9732  150.1540 O   0  0  0  0  0  0  0  0  0  0  0  0
  142.3380  132.1456  148.6805 H   0  0  0  0  0  0  0  0  0  0  0  0
  143.8460  132.0907  147.7583 H   0  0  0  0  0  0  0  0  0  0  0  0
  142.9042  133.5728  147.8165 H   0  0  0  0  0  0  0  0  0  0  0  0
  144.8012  134.9348  149.0627 H   0  0  0  0  0  0  0  0  0  0  0  0
  143.1331  135.0509  149.5751 H   0  0  0  0  0  0  0  0  0  0  0  0
  143.6962  134.8380  151.8961 H   0  0  0  0  0  0  0  0  0  0  0  0
  144.5878  136.9506  150.4467 H   0  0  0  0  0  0  0  0  0  0  0  0
  145.5062  138.6902  151.1192 H   0  0  0  0  0  0  0  0  0  0  0  0
  147.8877  137.7423  153.9394 H   0  0  0  0  0  0  0  0  0  0  0  0
  150.2597  141.9275  156.0696 H   0  0  0  0  0  0  0  0  0  0  0  0
  148.6054  142.2643  155.5807 H   0  0  0  0  0  0  0  0  0  0  0  0
  149.8688  142.1075  154.3652 H   0  0  0  0  0  0  0  0  0  0  0  0
  150.9253  139.8086  153.8988 H   0  0  0  0  0  0  0  0  0  0  0  0
  150.4085  138.3985  154.8138 H   0  0  0  0  0  0  0  0  0  0  0  0
  151.3149  139.6763  155.6096 H   0  0  0  0  0  0  0  0  0  0  0  0
  149.4626  139.9101  157.3739 H   0  0  0  0  0  0  0  0  0  0  0  0
  148.5490  138.6295  156.5900 H   0  0  0  0  0  0  0  0  0  0  0  0
  147.7994  140.1948  156.8745 H   0  0  0  0  0  0  0  0  0  0  0  0
  146.5550  134.2295  150.9963 H   0  0  0  0  0  0  0  0  0  0  0  0
  146.0355  134.3821  152.6587 H   0  0  0  0  0  0  0  0  0  0  0  0
  146.1540  131.9860  151.8245 H   0  0  0  0  0  0  0  0  0  0  0  0
  144.6130  132.4382  152.5155 H   0  0  0  0  0  0  0  0  0  0  0  0
  1  2  1  0  0  0  0
  1 22  1  0  0  0  0
  1 23  1  0  0  0  0
  1 24  1  0  0  0  0
  2 20  1  0  0  0  0
  2  3  1  0  0  0  0
  3  4  1  0  0  0  0
  3 25  1  0  0  0  0
  3 26  1  0  0  0  0
  4  5  1  0  0  0  0
  4 18  1  0  0  0  0
  4 27  1  0  0  0  0
  5  6  1  0  0  0  0
  5 28  1  0  0  0  0
  6  7  2  0  0  0  0
  6  8  1  0  0  0  0
  8  9  1  0  0  0  0
  8 29  1  0  0  0  0
  9 17  2  0  0  0  0
  9 10  1  0  0  0  0
 10 11  2  0  0  0  0
 10 30  1  0  0  0  0
 11 12  1  0  0  0  0
 11 16  1  0  0  0  0
 12 13  1  0  0  0  0
 12 14  1  0  0  0  0
 12 15  1  0  0  0  0
 13 31  1  0  0  0  0
 13 32  1  0  0  0  0
 13 33  1  0  0  0  0
 14 34  1  0  0  0  0
 14 35  1  0  0  0  0
 14 36  1  0  0  0  0
 15 37  1  0  0  0  0
 15 38  1  0  0  0  0
 15 39  1  0  0  0  0
 16 17  1  0  0  0  0
 18 19  1  0  0  0  0
 18 40  1  0  0  0  0
 18 41  1  0  0  0  0
 19 20  1  0  0  0  0
 19 42  1  0  0  0  0
 19 43  1  0  0  0  0
 20 21  2  0  0  0  0
M  END
> <s_m_source_file>
AV-unprocessed.smi

> <i_m_source_file_index>
749

> <i_lp_mmshare_version>
43012

> <i_f3d_flags>
0

> <s_epik_input>
Tz1DMVtDSDJdW0NIMl1bQ0BASF0oW0NIMl1OMVtDSDNdKVtOSF1DKD1PKVtOSF1jMltjSF1jKG9uMilDKFtDSDNdKShbQ0gzXSlbQ0gzXQ==

> <s_epik_cmdline>
J2VwaWtfcHl0aG9uJywgJy1waCcsICc3LjAnLCAnLXRuJywgJzgnLCAnLW1hJywgJzIwMCcsICctbWV0YWxfYmluZGluZycsICctaW1hZScsICc8aW5maWxlLm1hZT4nLCAnLW9tYWUnLCAnPG91dGZpbGUubWFlPic=

> <r_lp_tautomer_probability>
1

> <r_epik_Ionization_Penalty>
2.91905e-05

> <r_epik_Ionization_Penalty_Charging>
0

> <r_epik_Ionization_Penalty_Neutral>
2.91905e-05

> <r_epik_State_Penalty>
-0

> <r_epik_Charging_Adjusted_Penalty>
0

> <i_epik_Tot_Q>
0

> <i_epik_Tot_abs_Q>
0

> <r_epik_Metal_State_Penalty>
0.0102923

> <b_epik_Metal_Only>
0

> <s_lp_Force_Field>
OPLS_2005

> <r_lp_Energy>
15.3042

> <b_lp_Chiralities_Consistent>
1

> <s_lp_Variant>
AV-unprocessed.smi:749-2

> <Gold.Version>
5.8.1

> <Gold.Id.Protein>
6NUR|6NUR_protein|mol2

> <Gold.PLP.Fitness>
36.2036

> <Gold.PLP.PLP>
-30.9770

> <Gold.PLP.part.hbond>
-3.2888

> <Gold.PLP.part.metal>
0.0000

> <Gold.PLP.part.buried>
3.5480

> <Gold.PLP.part.nonpolar>
-33.6524

> <Gold.PLP.part.repulsive>
1.8667

> <Gold.PLP.ligand.clash>
0.0695

> <Gold.PLP.ligand.torsion>
0.3867

> <Gold.PLP.Chemscore.Hbond>
2.0228

> <Gold.PLP.Chemscore.CHOScore>
0.0000

> <Gold.PLP.Chemscore.Metal>
0.0000

> <Gold.Chemscore.Hbonds>
donor molecule, donor type, donor heavy atom, donor atom, acceptor molecule, acceptor atom, score
      L1  H     5    28       P1 10171  1.00
      L1  H     8    29       P1 10171  0.81
      P1  H 10785 10796       L1    21  0.30

> <Gold.PLP.Chemscore.Internal.Correction>
0.0013

> <Gold.Rescore>
     Score         DG    S(hbond)    S(metal)    S(lipo)     H(rot)  DE(clash)    DE(int)     intcor
     11.29     -17.52       2.04        0.00      71.48       1.23       3.17       3.06       ----

> <Gold.Chemscore.Fitness>
11.2868

> <Gold.Chemscore.DG>
-17.5172

> <Gold.Chemscore.ZeroCoef>
-5.4800

> <Gold.Chemscore.Hbond>
2.0440

> <Gold.Chemscore.Metal>
0.0000

> <Gold.Chemscore.Lipo>
71.4796

> <Gold.Chemscore.Internal_Hbond>
0.0000

> <Gold.Chemscore.DEClash>
3.1733

> <Gold.Chemscore.DEInternal>
3.0571

> <Gold.Chemscore.Rot>
1.2317

> <Gold.Chemscore.Internal.Correction>
   9.000000E+99

> <Gold.Chemscore.Hbonds>
donor molecule, donor type, donor heavy atom, donor atom, acceptor molecule, acceptor atom, score
      L1  H     5    28       P1 10171  0.95
      L1  H     8    29       P1 10171  0.76
      P1  H 10785 10796       L1    21  0.29

> <Gold.Chemscore.Hbond.Weighted>
-6.8271

> <Gold.Chemscore.Metal.Weighted>
-0.0000

> <Gold.Chemscore.Lipo.Weighted>
-8.3631

> <Gold.Chemscore.Internal_Hbond.Weighted>
0.0000

> <Gold.Chemscore.DEClash.Weighted>
3.1733

> <Gold.Chemscore.DEInternal.Weighted>
3.0571

> <Gold.Chemscore.Rot.Weighted>
3.1531

> <Gold.Chemscore.Internal.Correction.Weighted>
   9.000000E+99

> <Gold.Protein.RotatedTorsions>
[ 6907 6896 6895 6894 ] final  -21.06 input  -60.11 | X-H torsion
[ 7974 7965 7964 7962 ] final  164.42 input  175.53 | X-H torsion
[ 8008 7997 7996 7995 ] final  159.80 input   59.86 | X-H torsion
[ 10167 10162 10161 10158 ] final  -57.37 input  -65.29 | X-H torsion
[ 10718 10713 10712 10709 ] final -107.57 input   66.30 | X-H torsion
[ 10763 10752 10751 10750 ] final -125.19 input  -60.55 | X-H torsion
[ 11005 11000 10999 10996 ] final   51.01 input  -57.11 | X-H torsion

> <Gold.Protein.ActiveResidues>
 VAL166  LYS551  ARG553  GLY616  TRP617  ASP618  TYR619  PRO620  LYS621  CYS622 
 ASP623  PHE694  ASN695  SER759  ASP760  ASP761  ALA762  ILE779  LEU786  VAL792 
 PHE793  MET794  SER795  GLU796  ALA797  LYS798  CYS799  TRP800  GLU811  SER814 

> <Gold.Protein.RotatedAtoms>
  151.2390  135.0582  159.9017 H   0  0  0  0  0  0  0  0  0  0  0  0  # atno 6907 bound_to 6896
  152.5395  134.0455  159.8097 H   0  0  0  0  0  0  0  0  0  0  0  0  # atno 6908 bound_to 6896
  151.0646  133.5467  159.2663 H   0  0  0  0  0  0  0  0  0  0  0  0  # atno 6909 bound_to 6896
  144.7546  139.8323  143.6354 H   0  0  0  0  0  0  0  0  0  0  0  0  # atno 7974 bound_to 7965
  156.2215  140.1821  156.7465 H   0  0  0  0  0  0  0  0  0  0  0  0  # atno 8008 bound_to 7997
  154.5873  140.0656  156.9218 H   0  0  0  0  0  0  0  0  0  0  0  0  # atno 8009 bound_to 7997
  155.2397  140.3321  155.4296 H   0  0  0  0  0  0  0  0  0  0  0  0  # atno 8010 bound_to 7997
  140.6262  143.2439  151.5357 H   0  0  0  0  0  0  0  0  0  0  0  0  # atno 10167 bound_to 10162
  156.0443  130.5669  150.7840 H   0  0  0  0  0  0  0  0  0  0  0  0  # atno 10718 bound_to 10713
  154.8733  135.4038  154.3227 H   0  0  0  0  0  0  0  0  0  0  0  0  # atno 10763 bound_to 10752
  153.4053  135.7019  153.6403 H   0  0  0  0  0  0  0  0  0  0  0  0  # atno 10764 bound_to 10752
  153.5128  135.3703  155.2565 H   0  0  0  0  0  0  0  0  0  0  0  0  # atno 10765 bound_to 10752
  140.0969  134.5134  155.8799 H   0  0  0  0  0  0  0  0  0  0  0  0  # atno 11005 bound_to 11000
  146.1540  139.4632  143.0030 LP  0  0  0  0  0  0  0  0  0  0  0  0  # atno 17320 bound_to 7965
  145.6824  141.0187  143.1599 LP  0  0  0  0  0  0  0  0  0  0  0  0  # atno 17321 bound_to 7965
  139.5482  144.2465  152.1482 LP  0  0  0  0  0  0  0  0  0  0  0  0  # atno 17342 bound_to 10162
  140.1697  144.4947  150.6586 LP  0  0  0  0  0  0  0  0  0  0  0  0  # atno 17343 bound_to 10162
  157.5300  131.0936  150.9968 LP  0  0  0  0  0  0  0  0  0  0  0  0  # atno 17370 bound_to 10713
  157.0277  130.5699  149.5339 LP  0  0  0  0  0  0  0  0  0  0  0  0  # atno 17371 bound_to 10713
  141.2094  133.6684  156.6440 LP  0  0  0  0  0  0  0  0  0  0  0  0  # atno 17394 bound_to 11000
  140.3274  134.7957  157.4300 LP  0  0  0  0  0  0  0  0  0  0  0  0  # atno 17395 bound_to 11000

$$$$
