AV-unprocessed.smi:1061|AV-procd|sdf|4660|dock2
  -GOLD-   22720 3173D 1   1.00000     0.00000
 Structure written by MMmdl.
 50 52  0  0  0  0  0  0  0  0  1 V2000
  146.7759  139.6839  153.6203 O   0  0  0  0  0  0  0  0  0  0  0  0
  147.5125  138.7881  153.2086 C   0  0  0  0  0  0  0  0  0  0  0  0
  147.1226  137.8638  152.3190 N   0  0  0  0  0  0  0  0  0  0  0  0
  145.7889  137.7772  151.7338 C   0  0  0  0  0  0  0  0  0  0  0  0
  145.4809  136.3521  151.2304 C   0  0  0  0  0  0  0  0  0  0  0  0
  145.8747  135.2479  152.2258 C   0  0  0  0  0  0  0  0  0  0  0  0
  146.2333  135.5490  153.3653 O   0  0  0  0  0  0  0  0  0  0  0  0
  145.8107  133.9651  151.8118 N   0  0  0  0  0  0  0  0  0  0  0  0
  146.1121  132.7881  152.6263 C   0  0  0  0  0  0  0  0  0  0  0  0
  145.6555  131.5857  151.7993 C   0  0  0  0  0  0  0  0  0  0  0  0
  145.7247  132.0758  150.3597 C   0  0  0  0  0  0  0  0  0  0  0  0
  145.4188  133.5705  150.4601 C   0  0  0  0  0  0  0  0  0  0  0  0
  148.7971  138.6098  153.5625 N   0  0  0  0  0  0  0  0  0  0  0  0
  149.5863  139.3680  154.4702 C   0  0  0  0  0  0  0  0  0  0  0  0
  150.9153  139.0524  154.8373 C   0  0  0  0  0  0  0  0  0  0  0  0
  151.5927  139.8950  155.7393 C   0  0  0  0  0  0  0  0  0  0  0  0
  150.9332  141.0369  156.2514 C   0  0  0  0  0  0  0  0  0  0  0  0
  151.5946  141.8922  157.1598 N   0  0  0  0  0  0  0  0  0  0  0  0
  151.9809  141.2871  158.4322 C   0  0  0  0  0  0  0  0  0  0  0  0
  152.9495  142.2094  159.1927 C   0  0  0  0  0  0  0  0  0  0  0  0
  152.3660  143.4984  159.3491 O   0  0  0  0  0  0  0  0  0  0  0  0
  152.1019  144.1155  158.0937 C   0  0  0  0  0  0  0  0  0  0  0  0
  151.1019  143.2618  157.2957 C   0  0  0  0  0  0  0  0  0  0  0  0
  149.6661  141.3466  155.8819 N   0  0  0  0  0  0  0  0  0  0  0  0
  149.0199  140.5357  155.0185 C   0  0  0  0  0  0  0  0  0  0  0  0
  147.7932  137.1668  152.0295 H   0  0  0  0  0  0  0  0  0  0  0  0
  145.0694  138.0685  152.4999 H   0  0  0  0  0  0  0  0  0  0  0  0
  145.6946  138.5043  150.9249 H   0  0  0  0  0  0  0  0  0  0  0  0
  144.4137  136.2667  151.0229 H   0  0  0  0  0  0  0  0  0  0  0  0
  146.0039  136.1766  150.2895 H   0  0  0  0  0  0  0  0  0  0  0  0
  147.1879  132.7415  152.8016 H   0  0  0  0  0  0  0  0  0  0  0  0
  145.6087  132.8116  153.5935 H   0  0  0  0  0  0  0  0  0  0  0  0
  146.2619  130.6965  151.9745 H   0  0  0  0  0  0  0  0  0  0  0  0
  144.6223  131.3404  152.0498 H   0  0  0  0  0  0  0  0  0  0  0  0
  146.7352  131.9339  149.9744 H   0  0  0  0  0  0  0  0  0  0  0  0
  145.0378  131.5468  149.6984 H   0  0  0  0  0  0  0  0  0  0  0  0
  144.3508  133.7523  150.3323 H   0  0  0  0  0  0  0  0  0  0  0  0
  145.9537  134.1360  149.6957 H   0  0  0  0  0  0  0  0  0  0  0  0
  149.2863  137.8666  153.0858 H   0  0  0  0  0  0  0  0  0  0  0  0
  151.4369  138.1966  154.4390 H   0  0  0  0  0  0  0  0  0  0  0  0
  152.6121  139.6657  156.0115 H   0  0  0  0  0  0  0  0  0  0  0  0
  151.0824  141.1186  159.0274 H   0  0  0  0  0  0  0  0  0  0  0  0
  152.4543  140.3165  158.2920 H   0  0  0  0  0  0  0  0  0  0  0  0
  153.1642  141.7962  160.1783 H   0  0  0  0  0  0  0  0  0  0  0  0
  153.9025  142.2901  158.6670 H   0  0  0  0  0  0  0  0  0  0  0  0
  151.6908  145.1101  158.2668 H   0  0  0  0  0  0  0  0  0  0  0  0
  153.0316  144.2470  157.5376 H   0  0  0  0  0  0  0  0  0  0  0  0
  150.9513  143.7089  156.3124 H   0  0  0  0  0  0  0  0  0  0  0  0
  150.1351  143.2492  157.8008 H   0  0  0  0  0  0  0  0  0  0  0  0
  148.0133  140.8303  154.7597 H   0  0  0  0  0  0  0  0  0  0  0  0
  1  2  2  0  0  0  0
  2  3  1  0  0  0  0
  2 13  1  0  0  0  0
  3  4  1  0  0  0  0
  3 26  1  0  0  0  0
  4  5  1  0  0  0  0
  4 27  1  0  0  0  0
  4 28  1  0  0  0  0
  5  6  1  0  0  0  0
  5 29  1  0  0  0  0
  5 30  1  0  0  0  0
  6  7  2  0  0  0  0
  6  8  1  0  0  0  0
  8 12  1  0  0  0  0
  8  9  1  0  0  0  0
  9 10  1  0  0  0  0
  9 31  1  0  0  0  0
  9 32  1  0  0  0  0
 10 11  1  0  0  0  0
 10 33  1  0  0  0  0
 10 34  1  0  0  0  0
 11 12  1  0  0  0  0
 11 35  1  0  0  0  0
 11 36  1  0  0  0  0
 12 37  1  0  0  0  0
 12 38  1  0  0  0  0
 13 14  1  0  0  0  0
 13 39  1  0  0  0  0
 14 25  1  0  0  0  0
 14 15  2  0  0  0  0
 15 16  1  0  0  0  0
 15 40  1  0  0  0  0
 16 17  2  0  0  0  0
 16 41  1  0  0  0  0
 17 18  1  0  0  0  0
 17 24  1  0  0  0  0
 18 23  1  0  0  0  0
 18 19  1  0  0  0  0
 19 20  1  0  0  0  0
 19 42  1  0  0  0  0
 19 43  1  0  0  0  0
 20 21  1  0  0  0  0
 20 44  1  0  0  0  0
 20 45  1  0  0  0  0
 21 22  1  0  0  0  0
 22 23  1  0  0  0  0
 22 46  1  0  0  0  0
 22 47  1  0  0  0  0
 23 48  1  0  0  0  0
 23 49  1  0  0  0  0
 24 25  2  0  0  0  0
 25 50  1  0  0  0  0
M  END
> <s_m_source_file>
AV-unprocessed.smi

> <i_m_source_file_index>
1061

> <i_lp_mmshare_version>
43012

> <i_f3d_flags>
0

> <s_epik_input>
W0NIMl0xW0NIMl1bQ0gyXVtDSDJdTjFDKD1PKVtDSDJdW0NIMl1bTkhdQyg9TylbTkhdYzJbY0hdW2NIXWMobltjSF0yKU4zW0NIMl1bQ0gyXU9bQ0gyXVtDSDJdMw==

> <s_epik_cmdline>
J2VwaWtfcHl0aG9uJywgJy1waCcsICc3LjAnLCAnLXRuJywgJzgnLCAnLW1hJywgJzIwMCcsICctbWV0YWxfYmluZGluZycsICctaW1hZScsICc8aW5maWxlLm1hZT4nLCAnLW9tYWUnLCAnPG91dGZpbGUubWFlPic=

> <r_lp_tautomer_probability>
1

> <r_epik_Ionization_Penalty>
0.00191188

> <r_epik_Ionization_Penalty_Charging>
0

> <r_epik_Ionization_Penalty_Neutral>
0.00191188

> <r_epik_State_Penalty>
0.00127902

> <r_epik_Charging_Adjusted_Penalty>
0.00127902

> <i_epik_Tot_Q>
0

> <i_epik_Tot_abs_Q>
0

> <r_epik_Metal_State_Penalty>
-0

> <b_epik_Metal_Only>
0

> <s_lp_Force_Field>
OPLS_2005

> <r_lp_Energy>
44.4165

> <b_lp_Chiralities_Consistent>
1

> <s_lp_Variant>
AV-unprocessed.smi:1061-1

> <Gold.Version>
5.8.1

> <Gold.Id.Protein>
6NUR|6NUR_protein|mol2

> <Gold.PLP.Fitness>
48.9766

> <Gold.PLP.PLP>
-44.3394

> <Gold.PLP.part.hbond>
-2.9016

> <Gold.PLP.part.metal>
0.0000

> <Gold.PLP.part.buried>
0.0255

> <Gold.PLP.part.nonpolar>
-42.6085

> <Gold.PLP.part.repulsive>
0.5206

> <Gold.PLP.ligand.clash>
0.0000

> <Gold.PLP.ligand.torsion>
0.5974

> <Gold.PLP.Chemscore.Hbond>
1.8148

> <Gold.PLP.Chemscore.CHOScore>
0.0000

> <Gold.PLP.Chemscore.Metal>
0.0000

> <Gold.Chemscore.Hbonds>
donor molecule, donor type, donor heavy atom, donor atom, acceptor molecule, acceptor atom, score
      L1  H     3    26       P1  7948  0.88
      L1  H    13    39       P1  7948  0.83

> <Gold.PLP.Chemscore.Internal.Correction>
0.3876

> <Gold.Rescore>
     Score         DG    S(hbond)    S(metal)    S(lipo)     H(rot)  DE(clash)    DE(int)     intcor
     15.39     -19.67       1.74        0.00     109.05       1.71       0.82       3.45       ----

> <Gold.Chemscore.Fitness>
15.3946

> <Gold.Chemscore.DG>
-19.6669

> <Gold.Chemscore.ZeroCoef>
-5.4800

> <Gold.Chemscore.Hbond>
1.7405

> <Gold.Chemscore.Metal>
0.0000

> <Gold.Chemscore.Lipo>
109.0473

> <Gold.Chemscore.Internal_Hbond>
0.0000

> <Gold.Chemscore.DEClash>
0.8237

> <Gold.Chemscore.DEInternal>
3.4486

> <Gold.Chemscore.Rot>
1.7129

> <Gold.Chemscore.Internal.Correction>
   9.000000E+99

> <Gold.Chemscore.Hbonds>
donor molecule, donor type, donor heavy atom, donor atom, acceptor molecule, acceptor atom, score
      L1  H     3    26       P1  7948  0.86
      L1  H    13    39       P1  7948  0.77

> <Gold.Chemscore.Hbond.Weighted>
-5.8133

> <Gold.Chemscore.Metal.Weighted>
-0.0000

> <Gold.Chemscore.Lipo.Weighted>
-12.7585

> <Gold.Chemscore.Internal_Hbond.Weighted>
0.0000

> <Gold.Chemscore.DEClash.Weighted>
0.8237

> <Gold.Chemscore.DEInternal.Weighted>
3.4486

> <Gold.Chemscore.Rot.Weighted>
4.3849

> <Gold.Chemscore.Internal.Correction.Weighted>
   9.000000E+99

> <Gold.Protein.RotatedTorsions>
[ 6907 6896 6895 6894 ] final   42.77 input  -60.11 | X-H torsion
[ 7974 7965 7964 7962 ] final -116.34 input  175.53 | X-H torsion
[ 8008 7997 7996 7995 ] final  104.06 input   59.86 | X-H torsion
[ 10167 10162 10161 10158 ] final  -81.04 input  -65.29 | X-H torsion
[ 10718 10713 10712 10709 ] final   78.04 input   66.30 | X-H torsion
[ 10763 10752 10751 10750 ] final  -93.21 input  -60.55 | X-H torsion
[ 11005 11000 10999 10996 ] final -135.11 input  -57.11 | X-H torsion

> <Gold.Protein.ActiveResidues>
 VAL166  LYS551  ARG553  GLY616  TRP617  ASP618  TYR619  PRO620  LYS621  CYS622 
 ASP623  PHE694  ASN695  SER759  ASP760  ASP761  ALA762  ILE779  LEU786  VAL792 
 PHE793  MET794  SER795  GLU796  ALA797  LYS798  CYS799  TRP800  GLU811  SER814 

> <Gold.Protein.RotatedAtoms>
  152.2120  134.8493  160.0496 H   0  0  0  0  0  0  0  0  0  0  0  0  # atno 6907 bound_to 6896
  151.9307  133.3605  159.3938 H   0  0  0  0  0  0  0  0  0  0  0  0  # atno 6908 bound_to 6896
  150.6978  134.4465  159.5360 H   0  0  0  0  0  0  0  0  0  0  0  0  # atno 6909 bound_to 6896
  145.0978  140.8532  143.3944 H   0  0  0  0  0  0  0  0  0  0  0  0  # atno 7974 bound_to 7965
  156.1539  140.3154  155.8694 H   0  0  0  0  0  0  0  0  0  0  0  0  # atno 8008 bound_to 7997
  155.3916  140.0494  157.3057 H   0  0  0  0  0  0  0  0  0  0  0  0  # atno 8009 bound_to 7997
  154.5084  140.2155  155.9217 H   0  0  0  0  0  0  0  0  0  0  0  0  # atno 8010 bound_to 7997
  140.4448  143.2502  151.8574 H   0  0  0  0  0  0  0  0  0  0  0  0  # atno 10167 bound_to 10162
  157.6731  130.9849  150.1728 H   0  0  0  0  0  0  0  0  0  0  0  0  # atno 10718 bound_to 10713
  154.6937  135.5203  153.8428 H   0  0  0  0  0  0  0  0  0  0  0  0  # atno 10763 bound_to 10752
  153.0651  135.6582  154.0382 H   0  0  0  0  0  0  0  0  0  0  0  0  # atno 10764 bound_to 10752
  154.0253  135.2990  155.3355 H   0  0  0  0  0  0  0  0  0  0  0  0  # atno 10765 bound_to 10752
  140.8928  134.1789  157.4515 H   0  0  0  0  0  0  0  0  0  0  0  0  # atno 11005 bound_to 11000
  145.0990  139.2836  143.5696 LP  0  0  0  0  0  0  0  0  0  0  0  0  # atno 17320 bound_to 7965
  146.3530  140.0551  142.8633 LP  0  0  0  0  0  0  0  0  0  0  0  0  # atno 17321 bound_to 7965
  139.4792  144.5188  151.8831 LP  0  0  0  0  0  0  0  0  0  0  0  0  # atno 17342 bound_to 10162
  140.4276  144.2159  150.5887 LP  0  0  0  0  0  0  0  0  0  0  0  0  # atno 17343 bound_to 10162
  156.2478  130.3697  149.8265 LP  0  0  0  0  0  0  0  0  0  0  0  0  # atno 17370 bound_to 10713
  156.6047  130.8561  151.3440 LP  0  0  0  0  0  0  0  0  0  0  0  0  # atno 17371 bound_to 10713
  139.8732  134.9866  156.5331 LP  0  0  0  0  0  0  0  0  0  0  0  0  # atno 17394 bound_to 11000
  140.8325  133.8268  155.8998 LP  0  0  0  0  0  0  0  0  0  0  0  0  # atno 17395 bound_to 11000

$$$$
