AV-unprocessed.smi:1601|AV-procd|sdf|6433|dock8
  -GOLD-   22720 7 73D 1   1.00000     0.00000
 Structure written by MMmdl.
 41 42  0  0  0  0  0  0  0  0  1 V2000
  153.3931  142.7562  162.8793 C   0  0  0  0  0  0  0  0  0  0  0  0
  152.9796  142.3695  161.4352 C   0  0  2  0  0  0  0  0  0  0  0  0
  153.9418  141.2661  160.9158 C   0  0  0  0  0  0  0  0  0  0  0  0
  154.3329  140.3368  161.9686 N   0  0  0  0  0  0  0  0  0  0  0  0
  155.5353  139.7506  162.0702 C   0  0  0  0  0  0  0  0  0  0  0  0
  156.4278  139.9069  161.2361 O   0  0  0  0  0  0  0  0  0  0  0  0
  155.7489  138.8492  163.2997 C   0  0  1  0  0  0  0  0  0  0  0  0
  157.0664  138.0488  163.2432 C   0  0  0  0  0  0  0  0  0  0  0  0
  155.6373  139.6231  164.5324 N   0  0  0  0  0  0  0  0  0  0  0  0
  155.5952  139.1524  165.8295 C   0  0  0  0  0  0  0  0  0  0  0  0
  155.4466  140.2308  166.6535 C   0  0  0  0  0  0  0  0  0  0  0  0
  155.3978  141.3354  165.7585 C   0  0  0  0  0  0  0  0  0  0  0  0
  155.5055  140.9696  164.4919 N   0  0  0  0  0  0  0  0  0  0  0  0
  152.8900  143.5412  160.5325 N   0  0  0  0  0  0  0  0  0  0  0  0
  152.4545  143.1839  159.1772 C   0  0  0  0  0  0  0  0  0  0  0  0
  152.3300  144.4036  158.2476 C   0  0  0  0  0  0  0  0  0  0  0  0
  151.4354  145.3501  158.8150 O   0  0  0  0  0  0  0  0  0  0  0  0
  151.8642  145.7852  160.0978 C   0  0  0  0  0  0  0  0  0  0  0  0
  151.9821  144.5759  161.0415 C   0  0  0  0  0  0  0  0  0  0  0  0
  153.5131  141.8899  163.5293 H   0  0  0  0  0  0  0  0  0  0  0  0
  152.6440  143.3753  163.3710 H   0  0  0  0  0  0  0  0  0  0  0  0
  154.3383  143.3005  162.8858 H   0  0  0  0  0  0  0  0  0  0  0  0
  151.9873  141.9201  161.4991 H   0  0  0  0  0  0  0  0  0  0  0  0
  153.4779  140.6555  160.1427 H   0  0  0  0  0  0  0  0  0  0  0  0
  154.8275  141.7271  160.4745 H   0  0  0  0  0  0  0  0  0  0  0  0
  153.6524  140.1538  162.6916 H   0  0  0  0  0  0  0  0  0  0  0  0
  154.9320  138.1258  163.3006 H   0  0  0  0  0  0  0  0  0  0  0  0
  157.1045  137.4126  162.3583 H   0  0  0  0  0  0  0  0  0  0  0  0
  157.1630  137.3998  164.1138 H   0  0  0  0  0  0  0  0  0  0  0  0
  157.9395  138.7018  163.2193 H   0  0  0  0  0  0  0  0  0  0  0  0
  155.6725  138.0991  166.0557 H   0  0  0  0  0  0  0  0  0  0  0  0
  155.3794  140.2307  167.7313 H   0  0  0  0  0  0  0  0  0  0  0  0
  155.2850  142.3845  165.9891 H   0  0  0  0  0  0  0  0  0  0  0  0
  153.1648  142.5048  158.7102 H   0  0  0  0  0  0  0  0  0  0  0  0
  151.4967  142.6631  159.2213 H   0  0  0  0  0  0  0  0  0  0  0  0
  153.3050  144.8650  158.0825 H   0  0  0  0  0  0  0  0  0  0  0  0
  151.9516  144.0981  157.2720 H   0  0  0  0  0  0  0  0  0  0  0  0
  152.8196  146.3056  160.0148 H   0  0  0  0  0  0  0  0  0  0  0  0
  151.1423  146.5020  160.4894 H   0  0  0  0  0  0  0  0  0  0  0  0
  150.9916  144.1494  161.2086 H   0  0  0  0  0  0  0  0  0  0  0  0
  152.3302  144.9542  162.0009 H   0  0  0  0  0  0  0  0  0  0  0  0
  1  2  1  0  0  0  0
  1 20  1  0  0  0  0
  1 21  1  0  0  0  0
  1 22  1  0  0  0  0
  2  3  1  0  0  0  0
  2 14  1  0  0  0  0
  2 23  1  0  0  0  0
  3  4  1  0  0  0  0
  3 24  1  0  0  0  0
  3 25  1  0  0  0  0
  4  5  1  0  0  0  0
  4 26  1  0  0  0  0
  5  6  2  0  0  0  0
  5  7  1  0  0  0  0
  7  8  1  0  0  0  0
  7  9  1  0  0  0  0
  7 27  1  0  0  0  0
  8 28  1  0  0  0  0
  8 29  1  0  0  0  0
  8 30  1  0  0  0  0
  9 13  1  0  0  0  0
  9 10  1  0  0  0  0
 10 11  2  0  0  0  0
 10 31  1  0  0  0  0
 11 12  1  0  0  0  0
 11 32  1  0  0  0  0
 12 13  2  0  0  0  0
 12 33  1  0  0  0  0
 14 19  1  0  0  0  0
 14 15  1  0  0  0  0
 15 16  1  0  0  0  0
 15 34  1  0  0  0  0
 15 35  1  0  0  0  0
 16 17  1  0  0  0  0
 16 36  1  0  0  0  0
 16 37  1  0  0  0  0
 17 18  1  0  0  0  0
 18 19  1  0  0  0  0
 18 38  1  0  0  0  0
 18 39  1  0  0  0  0
 19 40  1  0  0  0  0
 19 41  1  0  0  0  0
M  END
> <s_m_source_file>
AV-unprocessed.smi

> <i_m_source_file_index>
1601

> <i_lp_mmshare_version>
43012

> <i_f3d_flags>
0

> <s_epik_input>
W0NIMl0xW0NIMl1PW0NIMl1bQ0gyXU4xW0NASF0oW0NIM10pW0NIMl1bTkhdQyg9TylbQ0BIXShbQ0gzXSluMltjSF1bY0hdW2NIXW4y

> <s_epik_cmdline>
J2VwaWtfcHl0aG9uJywgJy1waCcsICc3LjAnLCAnLXRuJywgJzgnLCAnLW1hJywgJzIwMCcsICctbWV0YWxfYmluZGluZycsICctaW1hZScsICc8aW5maWxlLm1hZT4nLCAnLW9tYWUnLCAnPG91dGZpbGUubWFlPic=

> <r_lp_tautomer_probability>
1

> <r_epik_Ionization_Penalty>
0.203323

> <r_epik_Ionization_Penalty_Charging>
0

> <r_epik_Ionization_Penalty_Neutral>
0.203323

> <r_epik_State_Penalty>
0.193192

> <r_epik_Charging_Adjusted_Penalty>
0.193192

> <i_epik_Tot_Q>
0

> <i_epik_Tot_abs_Q>
0

> <r_epik_Metal_State_Penalty>
0.193187

> <b_epik_Metal_Only>
0

> <s_lp_Force_Field>
OPLS_2005

> <r_lp_Energy>
33.4287

> <b_lp_Chiralities_Consistent>
1

> <s_lp_Variant>
AV-unprocessed.smi:1601-3

> <Gold.Version>
5.8.1

> <Gold.Id.Protein>
6NUR|6NUR_protein|mol2

> <Gold.PLP.Fitness>
42.1714

> <Gold.PLP.PLP>
-43.0433

> <Gold.PLP.part.hbond>
-1.5487

> <Gold.PLP.part.metal>
0.0000

> <Gold.PLP.part.buried>
-6.7562

> <Gold.PLP.part.nonpolar>
-35.3846

> <Gold.PLP.part.repulsive>
0.1538

> <Gold.PLP.ligand.clash>
0.0000

> <Gold.PLP.ligand.torsion>
0.5197

> <Gold.PLP.Chemscore.Hbond>
0.0000

> <Gold.PLP.Chemscore.CHOScore>
0.0000

> <Gold.PLP.Chemscore.Metal>
0.0000

> <Gold.PLP.Chemscore.Internal.Correction>
0.1676

> <Gold.Rescore>
     Score         DG    S(hbond)    S(metal)    S(lipo)     H(rot)  DE(clash)    DE(int)     intcor
     11.45     -13.48       0.00        0.00     107.49       1.79       0.06       1.98       ----

> <Gold.Chemscore.Fitness>
11.4463

> <Gold.Chemscore.DG>
-13.4814

> <Gold.Chemscore.ZeroCoef>
-5.4800

> <Gold.Chemscore.Hbond>
0.0000

> <Gold.Chemscore.Metal>
0.0000

> <Gold.Chemscore.Lipo>
107.4925

> <Gold.Chemscore.Internal_Hbond>
0.0000

> <Gold.Chemscore.DEClash>
0.0560

> <Gold.Chemscore.DEInternal>
1.9791

> <Gold.Chemscore.Rot>
1.7872

> <Gold.Chemscore.Internal.Correction>
   9.000000E+99

> <Gold.Chemscore.Hbond.Weighted>
-0.0000

> <Gold.Chemscore.Metal.Weighted>
-0.0000

> <Gold.Chemscore.Lipo.Weighted>
-12.5766

> <Gold.Chemscore.Internal_Hbond.Weighted>
0.0000

> <Gold.Chemscore.DEClash.Weighted>
0.0560

> <Gold.Chemscore.DEInternal.Weighted>
1.9791

> <Gold.Chemscore.Rot.Weighted>
4.5752

> <Gold.Chemscore.Internal.Correction.Weighted>
   9.000000E+99

> <Gold.Protein.RotatedTorsions>
[ 6907 6896 6895 6894 ] final  130.59 input  -60.11 | X-H torsion
[ 7974 7965 7964 7962 ] final   17.13 input  175.53 | X-H torsion
[ 8008 7997 7996 7995 ] final   50.86 input   59.86 | X-H torsion
[ 10167 10162 10161 10158 ] final -170.48 input  -65.29 | X-H torsion
[ 10718 10713 10712 10709 ] final   94.74 input   66.30 | X-H torsion
[ 10763 10752 10751 10750 ] final -116.58 input  -60.55 | X-H torsion
[ 11005 11000 10999 10996 ] final  -83.32 input  -57.11 | X-H torsion

> <Gold.Protein.ActiveResidues>
 VAL166  LYS551  ARG553  GLY616  TRP617  ASP618  TYR619  PRO620  LYS621  CYS622 
 ASP623  PHE694  ASN695  SER759  ASP760  ASP761  ALA762  ILE779  LEU786  VAL792 
 PHE793  MET794  SER795  GLU796  ALA797  LYS798  CYS799  TRP800  GLU811  SER814 

> <Gold.Protein.RotatedAtoms>
  152.3511  133.6181  159.5945 H   0  0  0  0  0  0  0  0  0  0  0  0  # atno 6907 bound_to 6896
  150.7538  133.9572  159.3513 H   0  0  0  0  0  0  0  0  0  0  0  0  # atno 6908 bound_to 6896
  151.7424  135.0852  160.0369 H   0  0  0  0  0  0  0  0  0  0  0  0  # atno 6909 bound_to 6896
  146.2228  139.8646  142.8598 H   0  0  0  0  0  0  0  0  0  0  0  0  # atno 7974 bound_to 7965
  155.4257  140.3448  155.4275 H   0  0  0  0  0  0  0  0  0  0  0  0  # atno 8008 bound_to 7997
  156.1366  140.1530  156.9015 H   0  0  0  0  0  0  0  0  0  0  0  0  # atno 8009 bound_to 7997
  154.4937  140.0834  156.7630 H   0  0  0  0  0  0  0  0  0  0  0  0  # atno 8010 bound_to 7997
  139.5859  144.1319  152.1575 H   0  0  0  0  0  0  0  0  0  0  0  0  # atno 10167 bound_to 10162
  157.6945  131.0522  150.4232 H   0  0  0  0  0  0  0  0  0  0  0  0  # atno 10718 bound_to 10713
  154.8524  135.4340  154.1843 H   0  0  0  0  0  0  0  0  0  0  0  0  # atno 10763 bound_to 10752
  153.2926  135.6962  153.7284 H   0  0  0  0  0  0  0  0  0  0  0  0  # atno 10764 bound_to 10752
  153.6445  135.3462  155.3056 H   0  0  0  0  0  0  0  0  0  0  0  0  # atno 10765 bound_to 10752
  141.1658  133.7289  156.8703 H   0  0  0  0  0  0  0  0  0  0  0  0  # atno 11005 bound_to 11000
  145.2669  141.0096  143.3794 LP  0  0  0  0  0  0  0  0  0  0  0  0  # atno 17320 bound_to 7965
  144.9254  139.4361  143.6521 LP  0  0  0  0  0  0  0  0  0  0  0  0  # atno 17321 bound_to 7965
  140.0882  144.5643  150.7073 LP  0  0  0  0  0  0  0  0  0  0  0  0  # atno 17342 bound_to 10162
  140.7131  143.2521  151.4519 LP  0  0  0  0  0  0  0  0  0  0  0  0  # atno 17343 bound_to 10162
  156.4605  130.4031  149.6579 LP  0  0  0  0  0  0  0  0  0  0  0  0  # atno 17370 bound_to 10713
  156.3696  130.7523  151.2505 LP  0  0  0  0  0  0  0  0  0  0  0  0  # atno 17371 bound_to 10713
  140.1786  134.9049  157.2921 LP  0  0  0  0  0  0  0  0  0  0  0  0  # atno 17394 bound_to 11000
  140.2420  134.3784  155.7476 LP  0  0  0  0  0  0  0  0  0  0  0  0  # atno 17395 bound_to 11000

$$$$
