AV-unprocessed.smi:438|AV-procd|sdf|2563|dock8
  -GOLD-   2262022533D 1   1.00000     0.00000
 Structure written by MMmdl.
 48 49  0  0  0  0  0  0  0  0  1 V2000
  151.5170  131.9139  157.0014 C   0  0  0  0  0  0  0  0  0  0  0  0
  150.8867  132.8564  155.9916 C   0  0  0  0  0  0  0  0  0  0  0  0
  151.1665  134.2162  156.1756 N   0  0  0  0  0  0  0  0  0  0  0  0
  150.6768  135.0963  155.3620 C   0  0  0  0  0  0  0  0  0  0  0  0
  150.8779  136.9007  155.3663 S   0  0  0  0  0  0  0  0  0  0  0  0
  151.7321  137.1547  156.9472 C   0  0  0  0  0  0  0  0  0  0  0  0
  152.3603  138.5419  157.0513 C   0  0  0  0  0  0  0  0  0  0  0  0
  153.1601  138.9210  156.1960 O   0  0  0  0  0  0  0  0  0  0  0  0
  151.9937  139.2874  158.1052 N   0  0  0  0  0  0  0  0  0  0  0  0
  152.4657  140.6400  158.3938 C   0  0  2  0  0  0  0  0  0  0  0  0
  153.2349  140.6480  159.7323 C   0  0  0  0  0  0  0  0  0  0  0  0
  153.6910  142.0624  160.1179 C   0  0  0  0  0  0  0  0  0  0  0  0
  152.5007  143.0292  160.1667 C   0  0  0  0  0  0  0  0  0  0  0  0
  151.7472  143.0410  158.8286 C   0  0  0  0  0  0  0  0  0  0  0  0
  151.2742  141.6304  158.4229 C   0  0  1  0  0  0  0  0  0  0  0  0
  150.5157  141.6806  157.0841 C   0  0  0  0  0  0  0  0  0  0  0  0
  149.8655  134.7017  154.2973 N   0  0  0  0  0  0  0  0  0  0  0  0
  149.5299  133.4180  154.0390 C   0  0  0  0  0  0  0  0  0  0  0  0
  148.8005  133.1434  153.0874 O   0  0  0  0  0  0  0  0  0  0  0  0
  150.0949  132.4266  154.9695 C   0  0  0  0  0  0  0  0  0  0  0  0
  149.7753  130.9551  154.7215 C   0  0  0  0  0  0  0  0  0  0  0  0
  151.0428  130.0904  154.6601 C   0  0  0  0  0  0  0  0  0  0  0  0
  150.7270  128.8146  154.1472 O   0  0  0  0  0  0  0  0  0  0  0  0
  150.7670  131.2483  157.4293 H   0  0  0  0  0  0  0  0  0  0  0  0
  151.9799  132.4638  157.8218 H   0  0  0  0  0  0  0  0  0  0  0  0
  152.2885  131.3085  156.5250 H   0  0  0  0  0  0  0  0  0  0  0  0
  152.4959  136.3849  157.0680 H   0  0  0  0  0  0  0  0  0  0  0  0
  151.0190  137.0295  157.7626 H   0  0  0  0  0  0  0  0  0  0  0  0
  151.3318  138.8908  158.7563 H   0  0  0  0  0  0  0  0  0  0  0  0
  153.1464  140.9560  157.6007 H   0  0  0  0  0  0  0  0  0  0  0  0
  152.6018  140.2460  160.5244 H   0  0  0  0  0  0  0  0  0  0  0  0
  154.1041  139.9918  159.6712 H   0  0  0  0  0  0  0  0  0  0  0  0
  154.1929  142.0405  161.0857 H   0  0  0  0  0  0  0  0  0  0  0  0
  154.4256  142.4205  159.3954 H   0  0  0  0  0  0  0  0  0  0  0  0
  151.8216  142.7357  160.9681 H   0  0  0  0  0  0  0  0  0  0  0  0
  152.8481  144.0344  160.4073 H   0  0  0  0  0  0  0  0  0  0  0  0
  150.8921  143.7142  158.9004 H   0  0  0  0  0  0  0  0  0  0  0  0
  152.3951  143.4498  158.0518 H   0  0  0  0  0  0  0  0  0  0  0  0
  150.5703  141.2894  159.1840 H   0  0  0  0  0  0  0  0  0  0  0  0
  151.1718  141.9896  156.2698 H   0  0  0  0  0  0  0  0  0  0  0  0
  149.6882  142.3891  157.1302 H   0  0  0  0  0  0  0  0  0  0  0  0
  150.0942  140.7102  156.8212 H   0  0  0  0  0  0  0  0  0  0  0  0
  149.4985  135.4134  153.6822 H   0  0  0  0  0  0  0  0  0  0  0  0
  149.2118  130.8441  153.7953 H   0  0  0  0  0  0  0  0  0  0  0  0
  149.1098  130.5894  155.5050 H   0  0  0  0  0  0  0  0  0  0  0  0
  151.7954  130.5532  154.0212 H   0  0  0  0  0  0  0  0  0  0  0  0
  151.4819  129.9747  155.6517 H   0  0  0  0  0  0  0  0  0  0  0  0
  151.2739  128.6494  153.3946 H   0  0  0  0  0  0  0  0  0  0  0  0
  1 24  1  0  0  0  0
  1 25  1  0  0  0  0
  1 26  1  0  0  0  0
  1  2  1  0  0  0  0
  2 20  2  0  0  0  0
  2  3  1  0  0  0  0
  3  4  2  0  0  0  0
  4  5  1  0  0  0  0
  4 17  1  0  0  0  0
  5  6  1  0  0  0  0
  6  7  1  0  0  0  0
  6 27  1  0  0  0  0
  6 28  1  0  0  0  0
  7  8  2  0  0  0  0
  7  9  1  0  0  0  0
  9 10  1  0  0  0  0
  9 29  1  0  0  0  0
 10 15  1  0  0  0  0
 10 11  1  0  0  0  0
 10 30  1  0  0  0  0
 11 12  1  0  0  0  0
 11 31  1  0  0  0  0
 11 32  1  0  0  0  0
 12 13  1  0  0  0  0
 12 33  1  0  0  0  0
 12 34  1  0  0  0  0
 13 14  1  0  0  0  0
 13 35  1  0  0  0  0
 13 36  1  0  0  0  0
 14 15  1  0  0  0  0
 14 37  1  0  0  0  0
 14 38  1  0  0  0  0
 15 16  1  0  0  0  0
 15 39  1  0  0  0  0
 16 40  1  0  0  0  0
 16 41  1  0  0  0  0
 16 42  1  0  0  0  0
 17 43  1  0  0  0  0
 17 18  1  0  0  0  0
 18 19  2  0  0  0  0
 18 20  1  0  0  0  0
 20 21  1  0  0  0  0
 21 22  1  0  0  0  0
 21 44  1  0  0  0  0
 21 45  1  0  0  0  0
 22 23  1  0  0  0  0
 22 46  1  0  0  0  0
 22 47  1  0  0  0  0
 23 48  1  0  0  0  0
M  END
> <s_m_source_file>
AV-unprocessed.smi

> <i_m_source_file_index>
438

> <i_lp_mmshare_version>
43012

> <i_f3d_flags>
0

> <s_epik_input>
W09IXVtDSDJdW0NIMl1jMWMoW09IXSluYyhuYzFbQ0gzXSlTW0NIMl1DKD1PKVtOSF1bQ0BASF0yW0NIMl1bQ0gyXVtDSDJdW0NIMl1bQ0BIXTJbQ0gzXQ==

> <s_epik_cmdline>
J2VwaWtfcHl0aG9uJywgJy1waCcsICc3LjAnLCAnLXRuJywgJzgnLCAnLW1hJywgJzIwMCcsICctbWV0YWxfYmluZGluZycsICctaW1hZScsICc8aW5maWxlLm1hZT4nLCAnLW9tYWUnLCAnPG91dGZpbGUubWFlPic=

> <r_lp_tautomer_probability>
0.660323

> <r_epik_Ionization_Penalty>
0.00860626

> <r_epik_Ionization_Penalty_Charging>
0.00860522

> <r_epik_Ionization_Penalty_Neutral>
1.04215e-06

> <r_epik_State_Penalty>
0.156825

> <r_epik_Charging_Adjusted_Penalty>
0.16543

> <i_epik_Tot_Q>
0

> <i_epik_Tot_abs_Q>
0

> <r_epik_Metal_State_Penalty>
0.752038

> <b_epik_Metal_Only>
0

> <s_lp_Force_Field>
OPLS_2005

> <r_lp_Energy>
14.035

> <b_lp_Chiralities_Consistent>
1

> <s_lp_Variant>
AV-unprocessed.smi:438-1

> <Gold.Version>
5.8.1

> <Gold.Id.Protein>
6NUR|6NUR_protein|mol2

> <Gold.PLP.Fitness>
49.7581

> <Gold.PLP.PLP>
-41.1917

> <Gold.PLP.part.hbond>
-3.0000

> <Gold.PLP.part.metal>
0.0000

> <Gold.PLP.part.buried>
-6.7265

> <Gold.PLP.part.nonpolar>
-31.6107

> <Gold.PLP.part.repulsive>
0.3432

> <Gold.PLP.ligand.clash>
0.0000

> <Gold.PLP.ligand.torsion>
0.2352

> <Gold.PLP.Chemscore.Hbond>
2.9913

> <Gold.PLP.Chemscore.CHOScore>
0.0000

> <Gold.PLP.Chemscore.Metal>
0.0000

> <Gold.Chemscore.Hbonds>
donor molecule, donor type, donor heavy atom, donor atom, acceptor molecule, acceptor atom, score
      L1  H    17    43       P1  7948  0.90
      L1  H    23    48       P1 10737  0.94
      P1  H  7997  8009       L1     8  1.00

> <Gold.PLP.Chemscore.Internal.Correction>
0.0630

> <Gold.Rescore>
     Score         DG    S(hbond)    S(metal)    S(lipo)     H(rot)  DE(clash)    DE(int)     intcor
     15.40     -17.01       2.15        0.00      99.76       2.86       0.23       1.39       ----

> <Gold.Chemscore.Fitness>
15.3983

> <Gold.Chemscore.DG>
-17.0144

> <Gold.Chemscore.ZeroCoef>
-5.4800

> <Gold.Chemscore.Hbond>
2.1544

> <Gold.Chemscore.Metal>
0.0000

> <Gold.Chemscore.Lipo>
99.7593

> <Gold.Chemscore.Internal_Hbond>
0.0000

> <Gold.Chemscore.DEClash>
0.2277

> <Gold.Chemscore.DEInternal>
1.3884

> <Gold.Chemscore.Rot>
2.8645

> <Gold.Chemscore.Internal.Correction>
   9.000000E+99

> <Gold.Chemscore.Hbonds>
donor molecule, donor type, donor heavy atom, donor atom, acceptor molecule, acceptor atom, score
      L1  H    17    43       P1  7948  0.16
      L1  H    23    48       P1 10737  0.85
      P1  H  7997  8009       L1     8  0.99

> <Gold.Chemscore.Hbond.Weighted>
-7.1957

> <Gold.Chemscore.Metal.Weighted>
-0.0000

> <Gold.Chemscore.Lipo.Weighted>
-11.6718

> <Gold.Chemscore.Internal_Hbond.Weighted>
0.0000

> <Gold.Chemscore.DEClash.Weighted>
0.2277

> <Gold.Chemscore.DEInternal.Weighted>
1.3884

> <Gold.Chemscore.Rot.Weighted>
7.3331

> <Gold.Chemscore.Internal.Correction.Weighted>
   9.000000E+99

> <Gold.Protein.RotatedTorsions>
[ 6907 6896 6895 6894 ] final   86.06 input  -60.11 | X-H torsion
[ 7974 7965 7964 7962 ] final -166.29 input  175.53 | X-H torsion
[ 8008 7997 7996 7995 ] final -161.40 input   59.86 | X-H torsion
[ 10167 10162 10161 10158 ] final   99.16 input  -65.29 | X-H torsion
[ 10718 10713 10712 10709 ] final   18.72 input   66.30 | X-H torsion
[ 10763 10752 10751 10750 ] final  140.31 input  -60.55 | X-H torsion
[ 11005 11000 10999 10996 ] final -100.52 input  -57.11 | X-H torsion

> <Gold.Protein.ActiveResidues>
 VAL166  LYS551  ARG553  GLY616  TRP617  ASP618  TYR619  PRO620  LYS621  CYS622 
 ASP623  PHE694  ASN695  SER759  ASP760  ASP761  ALA762  ILE779  LEU786  VAL792 
 PHE793  MET794  SER795  GLU796  ALA797  LYS798  CYS799  TRP800  GLU811  SER814 

> <Gold.Protein.RotatedAtoms>
  152.5387  134.2489  159.8890 H   0  0  0  0  0  0  0  0  0  0  0  0  # atno 6907 bound_to 6896
  151.2453  133.4371  159.2616 H   0  0  0  0  0  0  0  0  0  0  0  0  # atno 6908 bound_to 6896
  151.0589  134.9737  159.8306 H   0  0  0  0  0  0  0  0  0  0  0  0  # atno 6909 bound_to 6896
  144.7249  140.2689  143.6253 H   0  0  0  0  0  0  0  0  0  0  0  0  # atno 7974 bound_to 7965
  155.7917  140.0879  157.2005 H   0  0  0  0  0  0  0  0  0  0  0  0  # atno 8008 bound_to 7997
  154.3985  140.1489  156.3228 H   0  0  0  0  0  0  0  0  0  0  0  0  # atno 8009 bound_to 7997
  155.8552  140.3433  155.5722 H   0  0  0  0  0  0  0  0  0  0  0  0  # atno 8010 bound_to 7997
  139.7642  144.6944  151.0248 H   0  0  0  0  0  0  0  0  0  0  0  0  # atno 10167 bound_to 10162
  157.1003  130.6465  149.5870 H   0  0  0  0  0  0  0  0  0  0  0  0  # atno 10718 bound_to 10713
  153.9206  135.3001  155.3447 H   0  0  0  0  0  0  0  0  0  0  0  0  # atno 10763 bound_to 10752
  154.7577  135.4949  153.9409 H   0  0  0  0  0  0  0  0  0  0  0  0  # atno 10764 bound_to 10752
  153.1144  135.6767  153.9547 H   0  0  0  0  0  0  0  0  0  0  0  0  # atno 10765 bound_to 10752
  141.1267  133.8405  157.1113 H   0  0  0  0  0  0  0  0  0  0  0  0  # atno 11005 bound_to 11000
  145.8063  139.1984  143.2019 LP  0  0  0  0  0  0  0  0  0  0  0  0  # atno 17320 bound_to 7965
  146.0634  140.7946  142.9723 LP  0  0  0  0  0  0  0  0  0  0  0  0  # atno 17321 bound_to 7965
  140.7809  143.4661  151.0210 LP  0  0  0  0  0  0  0  0  0  0  0  0  # atno 17342 bound_to 10162
  139.8347  143.7644  152.3180 LP  0  0  0  0  0  0  0  0  0  0  0  0  # atno 17343 bound_to 10162
  155.9875  130.4915  150.7129 LP  0  0  0  0  0  0  0  0  0  0  0  0  # atno 17370 bound_to 10713
  157.4647  131.0887  151.0708 LP  0  0  0  0  0  0  0  0  0  0  0  0  # atno 17371 bound_to 10713
  140.0273  134.9918  157.0712 LP  0  0  0  0  0  0  0  0  0  0  0  0  # atno 17394 bound_to 11000
  140.4341  134.1749  155.7170 LP  0  0  0  0  0  0  0  0  0  0  0  0  # atno 17395 bound_to 11000

$$$$
