AV-unprocessed.smi:2468|AV-procd|sdf|9730|dock6
  -GOLD-   2272013373D 1   1.00000     0.00000
 Structure written by MMmdl.
 32 33  0  0  0  0  0  0  0  0  1 V2000
  153.3630  142.2897  161.4973 C   0  0  0  0  0  0  0  0  0  0  0  0
  152.7287  142.6221  160.1596 C   0  0  0  0  0  0  0  0  0  0  0  0
  152.4860  143.9322  159.9371 N   0  0  0  0  0  0  0  0  0  0  0  0
  151.9307  144.2832  158.7593 C   0  0  0  0  0  0  0  0  0  0  0  0
  151.5880  143.3558  157.7572 C   0  0  0  0  0  0  0  0  0  0  0  0
  151.8251  141.9802  157.9935 C   0  0  0  0  0  0  0  0  0  0  0  0
  151.5380  140.9599  157.0442 N   0  0  0  0  0  0  0  0  0  0  0  0
  150.4963  140.8576  156.1985 C   0  0  0  0  0  0  0  0  0  0  0  0
  149.5584  141.6534  156.1458 O   0  0  0  0  0  0  0  0  0  0  0  0
  150.5035  139.6193  155.2858 C   0  0  1  0  0  0  0  0  0  0  0  0
  151.6883  139.6757  154.4890 O   0  0  0  0  0  0  0  0  0  0  0  0
  152.5495  138.5762  154.7758 C   0  0  0  0  0  0  0  0  0  0  0  0
  152.0714  138.0144  156.1101 C   0  0  0  0  0  0  0  0  0  0  0  0
  150.5796  138.2605  156.0148 C   0  0  1  0  0  0  0  0  0  0  0  0
  149.8246  138.1350  157.3506 C   0  0  0  0  0  0  0  0  0  0  0  0
  152.4227  141.6088  159.2211 C   0  0  0  0  0  0  0  0  0  0  0  0
  152.7687  139.9479  159.5712 Cl  0  0  0  0  0  0  0  0  0  0  0  0
  152.7174  141.6205  162.0666 H   0  0  0  0  0  0  0  0  0  0  0  0
  153.5318  143.1856  162.0961 H   0  0  0  0  0  0  0  0  0  0  0  0
  154.3247  141.7978  161.3484 H   0  0  0  0  0  0  0  0  0  0  0  0
  151.7607  145.3388  158.6068 H   0  0  0  0  0  0  0  0  0  0  0  0
  151.1672  143.7183  156.8323 H   0  0  0  0  0  0  0  0  0  0  0  0
  152.1789  140.1795  157.0469 H   0  0  0  0  0  0  0  0  0  0  0  0
  149.6312  139.6428  154.6305 H   0  0  0  0  0  0  0  0  0  0  0  0
  152.4351  137.8308  153.9879 H   0  0  0  0  0  0  0  0  0  0  0  0
  153.5948  138.8842  154.8019 H   0  0  0  0  0  0  0  0  0  0  0  0
  152.3242  136.9619  156.2405 H   0  0  0  0  0  0  0  0  0  0  0  0
  152.5069  138.5754  156.9379 H   0  0  0  0  0  0  0  0  0  0  0  0
  150.1646  137.5109  155.3387 H   0  0  0  0  0  0  0  0  0  0  0  0
  150.2353  138.7913  158.1183 H   0  0  0  0  0  0  0  0  0  0  0  0
  149.8834  137.1153  157.7314 H   0  0  0  0  0  0  0  0  0  0  0  0
  148.7695  138.3807  157.2272 H   0  0  0  0  0  0  0  0  0  0  0  0
  1  2  1  0  0  0  0
  1 18  1  0  0  0  0
  1 19  1  0  0  0  0
  1 20  1  0  0  0  0
  2 16  1  0  0  0  0
  2  3  2  0  0  0  0
  3  4  1  0  0  0  0
  4  5  2  0  0  0  0
  4 21  1  0  0  0  0
  5  6  1  0  0  0  0
  5 22  1  0  0  0  0
  6  7  1  0  0  0  0
  6 16  2  0  0  0  0
  7  8  1  0  0  0  0
  7 23  1  0  0  0  0
  8  9  2  0  0  0  0
  8 10  1  0  0  0  0
 10 14  1  0  0  0  0
 10 11  1  0  0  0  0
 10 24  1  0  0  0  0
 11 12  1  0  0  0  0
 12 13  1  0  0  0  0
 12 25  1  0  0  0  0
 12 26  1  0  0  0  0
 13 14  1  0  0  0  0
 13 27  1  0  0  0  0
 13 28  1  0  0  0  0
 14 15  1  0  0  0  0
 14 29  1  0  0  0  0
 15 30  1  0  0  0  0
 15 31  1  0  0  0  0
 15 32  1  0  0  0  0
 16 17  1  0  0  0  0
M  END
> <s_m_source_file>
AV-unprocessed.smi

> <i_m_source_file_index>
2468

> <i_lp_mmshare_version>
43012

> <i_f3d_flags>
0

> <s_epik_input>
W0NIM11jMW5bY0hdW2NIXWMoYzFDbClbTkhdQyg9TylbQ0BASF0yT1tDSDJdW0NIMl1bQ0BIXTJbQ0gzXQ==

> <s_epik_cmdline>
J2VwaWtfcHl0aG9uJywgJy1waCcsICc3LjAnLCAnLXRuJywgJzgnLCAnLW1hJywgJzIwMCcsICctbWV0YWxfYmluZGluZycsICctaW1hZScsICc8aW5maWxlLm1hZT4nLCAnLW9tYWUnLCAnPG91dGZpbGUubWFlPic=

> <r_epik_Ionization_Penalty>
0.000361027

> <r_epik_Ionization_Penalty_Charging>
0

> <r_epik_Ionization_Penalty_Neutral>
0.000361027

> <r_epik_State_Penalty>
0.000217849

> <r_epik_Charging_Adjusted_Penalty>
0.000217849

> <i_epik_Tot_Q>
0

> <i_epik_Tot_abs_Q>
0

> <r_epik_Metal_State_Penalty>
-0

> <b_epik_Metal_Only>
0

> <s_lp_Force_Field>
OPLS_2005

> <r_lp_Energy>
25.7151

> <b_lp_Chiralities_Consistent>
1

> <s_lp_Variant>
AV-unprocessed.smi:2468-2

> <Gold.Version>
5.8.1

> <Gold.Id.Protein>
6NUR|6NUR_protein|mol2

> <Gold.PLP.Fitness>
35.3684

> <Gold.PLP.PLP>
-32.9189

> <Gold.PLP.part.hbond>
-0.9186

> <Gold.PLP.part.metal>
0.0000

> <Gold.PLP.part.buried>
-4.7776

> <Gold.PLP.part.nonpolar>
-27.4115

> <Gold.PLP.part.repulsive>
0.3168

> <Gold.PLP.ligand.clash>
0.0000

> <Gold.PLP.ligand.torsion>
0.2829

> <Gold.PLP.Chemscore.Hbond>
1.0000

> <Gold.PLP.Chemscore.CHOScore>
0.0000

> <Gold.PLP.Chemscore.Metal>
0.0000

> <Gold.Chemscore.Hbonds>
donor molecule, donor type, donor heavy atom, donor atom, acceptor molecule, acceptor atom, score
      P1  H  7989  7998       L1    11  1.00

> <Gold.PLP.Chemscore.Internal.Correction>
0.0153

> <Gold.Rescore>
     Score         DG    S(hbond)    S(metal)    S(lipo)     H(rot)  DE(clash)    DE(int)     intcor
     17.47     -17.77       0.97        0.00      99.23       1.00       0.01       0.29       ----

> <Gold.Chemscore.Fitness>
17.4705

> <Gold.Chemscore.DG>
-17.7714

> <Gold.Chemscore.ZeroCoef>
-5.4800

> <Gold.Chemscore.Hbond>
0.9705

> <Gold.Chemscore.Metal>
0.0000

> <Gold.Chemscore.Lipo>
99.2313

> <Gold.Chemscore.Internal_Hbond>
0.0000

> <Gold.Chemscore.DEClash>
0.0119

> <Gold.Chemscore.DEInternal>
0.2890

> <Gold.Chemscore.Rot>
1.0000

> <Gold.Chemscore.Internal.Correction>
   9.000000E+99

> <Gold.Chemscore.Hbonds>
donor molecule, donor type, donor heavy atom, donor atom, acceptor molecule, acceptor atom, score
      P1  H  7989  7998       L1    11  0.76

> <Gold.Chemscore.Hbond.Weighted>
-3.2414

> <Gold.Chemscore.Metal.Weighted>
-0.0000

> <Gold.Chemscore.Lipo.Weighted>
-11.6101

> <Gold.Chemscore.Internal_Hbond.Weighted>
0.0000

> <Gold.Chemscore.DEClash.Weighted>
0.0119

> <Gold.Chemscore.DEInternal.Weighted>
0.2890

> <Gold.Chemscore.Rot.Weighted>
2.5600

> <Gold.Chemscore.Internal.Correction.Weighted>
   9.000000E+99

> <Gold.Protein.RotatedTorsions>
[ 6907 6896 6895 6894 ] final  -33.08 input  -60.11 | X-H torsion
[ 7974 7965 7964 7962 ] final  -98.94 input  175.53 | X-H torsion
[ 8008 7997 7996 7995 ] final -123.38 input   59.86 | X-H torsion
[ 10167 10162 10161 10158 ] final  -10.41 input  -65.29 | X-H torsion
[ 10718 10713 10712 10709 ] final   76.99 input   66.30 | X-H torsion
[ 10763 10752 10751 10750 ] final -134.53 input  -60.55 | X-H torsion
[ 11005 11000 10999 10996 ] final  -35.65 input  -57.11 | X-H torsion

> <Gold.Protein.ActiveResidues>
 VAL166  LYS551  ARG553  GLY616  TRP617  ASP618  TYR619  PRO620  LYS621  CYS622 
 ASP623  PHE694  ASN695  SER759  ASP760  ASP761  ALA762  ILE779  LEU786  VAL792 
 PHE793  MET794  SER795  GLU796  ALA797  LYS798  CYS799  TRP800  GLU811  SER814 

> <Gold.Protein.RotatedAtoms>
  151.0703  134.9794  159.8305 H   0  0  0  0  0  0  0  0  0  0  0  0  # atno 6907 bound_to 6896
  152.5407  134.2307  159.8834 H   0  0  0  0  0  0  0  0  0  0  0  0  # atno 6908 bound_to 6896
  151.2331  133.4396  159.2638 H   0  0  0  0  0  0  0  0  0  0  0  0  # atno 6909 bound_to 6896
  145.3140  140.9407  143.2753 H   0  0  0  0  0  0  0  0  0  0  0  0  # atno 7974 bound_to 7965
  155.1797  140.0410  157.2879 H   0  0  0  0  0  0  0  0  0  0  0  0  # atno 8008 bound_to 7997
  154.6212  140.2501  155.7519 H   0  0  0  0  0  0  0  0  0  0  0  0  # atno 8009 bound_to 7997
  156.2434  140.2894  156.0521 H   0  0  0  0  0  0  0  0  0  0  0  0  # atno 8010 bound_to 7997
  140.7113  143.5752  150.9050 H   0  0  0  0  0  0  0  0  0  0  0  0  # atno 10167 bound_to 10162
  157.6694  130.9800  150.1576 H   0  0  0  0  0  0  0  0  0  0  0  0  # atno 10718 bound_to 10713
  154.8718  135.3732  154.4750 H   0  0  0  0  0  0  0  0  0  0  0  0  # atno 10763 bound_to 10752
  153.5408  135.7026  153.5643 H   0  0  0  0  0  0  0  0  0  0  0  0  # atno 10764 bound_to 10752
  153.3805  135.3998  155.1818 H   0  0  0  0  0  0  0  0  0  0  0  0  # atno 10765 bound_to 10752
  140.9813  133.7055  156.1688 H   0  0  0  0  0  0  0  0  0  0  0  0  # atno 11005 bound_to 11000
  144.8993  139.4671  143.6640 LP  0  0  0  0  0  0  0  0  0  0  0  0  # atno 17320 bound_to 7965
  146.3107  139.7737  142.9022 LP  0  0  0  0  0  0  0  0  0  0  0  0  # atno 17321 bound_to 7965
  139.9478  143.6308  152.3037 LP  0  0  0  0  0  0  0  0  0  0  0  0  # atno 17342 bound_to 10162
  139.6815  144.7655  151.1600 LP  0  0  0  0  0  0  0  0  0  0  0  0  # atno 17343 bound_to 10162
  156.2360  130.3686  149.8391 LP  0  0  0  0  0  0  0  0  0  0  0  0  # atno 17370 bound_to 10713
  156.6204  130.8624  151.3474 LP  0  0  0  0  0  0  0  0  0  0  0  0  # atno 17371 bound_to 10713
  140.7183  134.4387  157.5577 LP  0  0  0  0  0  0  0  0  0  0  0  0  # atno 17394 bound_to 11000
  139.8951  134.8690  156.2146 LP  0  0  0  0  0  0  0  0  0  0  0  0  # atno 17395 bound_to 11000

$$$$
