AV-unprocessed.smi:886|AV-procd|sdf|4051|dock3
  -GOLD-   22720 1533D 1   1.00000     0.00000
 Structure written by MMmdl.
 35 37  0  0  0  0  0  0  0  0  1 V2000
  146.8235  140.9724  153.9079 C   0  0  0  0  0  0  0  0  0  0  0  0
  148.0557  140.2753  154.2423 N   0  0  0  0  0  0  0  0  0  0  0  0
  148.7531  140.4743  155.3714 C   0  0  0  0  0  0  0  0  0  0  0  0
  148.4219  141.2880  156.2347 O   0  0  0  0  0  0  0  0  0  0  0  0
  150.0092  139.6510  155.5042 C   0  0  0  0  0  0  0  0  0  0  0  0
  150.0659  138.3673  154.9118 C   0  0  0  0  0  0  0  0  0  0  0  0
  151.2256  137.5852  155.0556 C   0  0  0  0  0  0  0  0  0  0  0  0
  152.2954  138.1136  155.7977 C   0  0  0  0  0  0  0  0  0  0  0  0
  152.2597  139.3306  156.3760 N   0  0  0  0  0  0  0  0  0  0  0  0
  151.1453  140.0912  156.2440 C   0  0  0  0  0  0  0  0  0  0  0  0
  151.1652  141.3606  156.8487 N   0  0  0  0  0  0  0  0  0  0  0  0
  151.1932  141.4888  158.3028 C   0  0  1  0  0  0  0  0  0  0  0  0
  152.5643  141.1641  158.9008 C   0  0  0  0  0  0  0  0  0  0  0  0
  152.8616  142.4297  159.7168 C   0  0  1  0  0  0  0  0  0  0  0  0
  153.2431  143.6073  158.8101 C   0  0  0  0  0  0  0  0  0  0  0  0
  151.8952  143.9712  158.1915 C   0  0  0  0  0  0  0  0  0  0  0  0
  150.9620  142.9231  158.8220 C   0  0  2  0  0  0  0  0  0  0  0  0
  151.5529  142.8125  160.1058 O   0  0  0  0  0  0  0  0  0  0  0  0
  146.4463  140.6210  152.9476 H   0  0  0  0  0  0  0  0  0  0  0  0
  146.9935  142.0473  153.8347 H   0  0  0  0  0  0  0  0  0  0  0  0
  146.0571  140.7909  154.6626 H   0  0  0  0  0  0  0  0  0  0  0  0
  148.4020  139.6014  153.5748 H   0  0  0  0  0  0  0  0  0  0  0  0
  149.2281  137.9738  154.3543 H   0  0  0  0  0  0  0  0  0  0  0  0
  151.2917  136.6035  154.6109 H   0  0  0  0  0  0  0  0  0  0  0  0
  153.2033  137.5445  155.9311 H   0  0  0  0  0  0  0  0  0  0  0  0
  150.7333  142.1166  156.3365 H   0  0  0  0  0  0  0  0  0  0  0  0
  150.4563  140.8155  158.7433 H   0  0  0  0  0  0  0  0  0  0  0  0
  152.4951  140.2909  159.5502 H   0  0  0  0  0  0  0  0  0  0  0  0
  153.3361  140.9689  158.1549 H   0  0  0  0  0  0  0  0  0  0  0  0
  153.5502  142.2701  160.5467 H   0  0  0  0  0  0  0  0  0  0  0  0
  153.6336  144.4410  159.3950 H   0  0  0  0  0  0  0  0  0  0  0  0
  153.9902  143.3322  158.0647 H   0  0  0  0  0  0  0  0  0  0  0  0
  151.5994  144.9759  158.4952 H   0  0  0  0  0  0  0  0  0  0  0  0
  151.9024  143.9411  157.1020 H   0  0  0  0  0  0  0  0  0  0  0  0
  149.9140  143.2235  158.8410 H   0  0  0  0  0  0  0  0  0  0  0  0
  1  2  1  0  0  0  0
  1 19  1  0  0  0  0
  1 20  1  0  0  0  0
  1 21  1  0  0  0  0
  2  3  1  0  0  0  0
  2 22  1  0  0  0  0
  3  4  2  0  0  0  0
  3  5  1  0  0  0  0
  5 10  1  0  0  0  0
  5  6  2  0  0  0  0
  6  7  1  0  0  0  0
  6 23  1  0  0  0  0
  7  8  2  0  0  0  0
  7 24  1  0  0  0  0
  8  9  1  0  0  0  0
  8 25  1  0  0  0  0
  9 10  2  0  0  0  0
 10 11  1  0  0  0  0
 11 12  1  0  0  0  0
 11 26  1  0  0  0  0
 12 17  1  0  0  0  0
 12 13  1  0  0  0  0
 12 27  1  0  0  0  0
 13 14  1  0  0  0  0
 13 28  1  0  0  0  0
 13 29  1  0  0  0  0
 14 18  1  0  0  0  0
 14 15  1  0  0  0  0
 14 30  1  0  0  0  0
 15 16  1  0  0  0  0
 15 31  1  0  0  0  0
 15 32  1  0  0  0  0
 16 17  1  0  0  0  0
 16 33  1  0  0  0  0
 16 34  1  0  0  0  0
 17 18  1  0  0  0  0
 17 35  1  0  0  0  0
M  END
> <s_m_source_file>
AV-unprocessed.smi

> <i_m_source_file_index>
886

> <i_lp_mmshare_version>
43012

> <i_f3d_flags>
0

> <s_epik_input>
W0NIM11bTkhdQyg9TyljMVtjSF1bY0hdW2NIXW5jMVtOSF1bQ0BIXShbQ0gyXVtDQEhdMjMpW0NASF0oTzMpW0NIMl1bQ0gyXTI=

> <s_epik_cmdline>
J2VwaWtfcHl0aG9uJywgJy1waCcsICc3LjAnLCAnLXRuJywgJzgnLCAnLW1hJywgJzIwMCcsICctbWV0YWxfYmluZGluZycsICctaW1hZScsICc8aW5maWxlLm1hZT4nLCAnLW9tYWUnLCAnPG91dGZpbGUubWFlPic=

> <r_lp_tautomer_probability>
1

> <r_epik_Ionization_Penalty>
0.0065447

> <r_epik_Ionization_Penalty_Charging>
0

> <r_epik_Ionization_Penalty_Neutral>
0.0065447

> <r_epik_State_Penalty>
0.00484214

> <r_epik_Charging_Adjusted_Penalty>
0.00484214

> <i_epik_Tot_Q>
0

> <i_epik_Tot_abs_Q>
0

> <r_epik_Metal_State_Penalty>
-0

> <b_epik_Metal_Only>
0

> <s_lp_Force_Field>
OPLS_2005

> <r_lp_Energy>
46.6605

> <b_lp_Chiralities_Consistent>
1

> <s_lp_Variant>
AV-unprocessed.smi:886-4

> <Gold.Version>
5.8.1

> <Gold.Id.Protein>
6NUR|6NUR_protein|mol2

> <Gold.PLP.Fitness>
45.4389

> <Gold.PLP.PLP>
-41.7714

> <Gold.PLP.part.hbond>
-2.9671

> <Gold.PLP.part.metal>
0.0000

> <Gold.PLP.part.buried>
-4.5414

> <Gold.PLP.part.nonpolar>
-33.8774

> <Gold.PLP.part.repulsive>
0.3857

> <Gold.PLP.ligand.clash>
0.0000

> <Gold.PLP.ligand.torsion>
1.1291

> <Gold.PLP.Chemscore.Hbond>
1.9680

> <Gold.PLP.Chemscore.CHOScore>
0.0000

> <Gold.PLP.Chemscore.Metal>
0.0000

> <Gold.Chemscore.Hbonds>
donor molecule, donor type, donor heavy atom, donor atom, acceptor molecule, acceptor atom, score
      P1  H  7997  8010       L1     9  0.46

> <Gold.PLP.Chemscore.Internal.Correction>
0.0216

> <Gold.Rescore>
     Score         DG    S(hbond)    S(metal)    S(lipo)     H(rot)  DE(clash)    DE(int)     intcor
     16.27     -17.11       0.81        0.00      98.24       1.00       0.12       0.73       ----

> <Gold.Chemscore.Fitness>
16.2664

> <Gold.Chemscore.DG>
-17.1115

> <Gold.Chemscore.ZeroCoef>
-5.4800

> <Gold.Chemscore.Hbond>
0.8077

> <Gold.Chemscore.Metal>
0.0000

> <Gold.Chemscore.Lipo>
98.2363

> <Gold.Chemscore.Internal_Hbond>
0.0000

> <Gold.Chemscore.DEClash>
0.1172

> <Gold.Chemscore.DEInternal>
0.7278

> <Gold.Chemscore.Rot>
1.0000

> <Gold.Chemscore.Internal.Correction>
   9.000000E+99

> <Gold.Chemscore.Hbonds>
donor molecule, donor type, donor heavy atom, donor atom, acceptor molecule, acceptor atom, score
      P1  H  7997  8010       L1     9  0.32

> <Gold.Chemscore.Hbond.Weighted>
-2.6979

> <Gold.Chemscore.Metal.Weighted>
-0.0000

> <Gold.Chemscore.Lipo.Weighted>
-11.4936

> <Gold.Chemscore.Internal_Hbond.Weighted>
0.0000

> <Gold.Chemscore.DEClash.Weighted>
0.1172

> <Gold.Chemscore.DEInternal.Weighted>
0.7278

> <Gold.Chemscore.Rot.Weighted>
2.5600

> <Gold.Chemscore.Internal.Correction.Weighted>
   9.000000E+99

> <Gold.Protein.RotatedTorsions>
[ 6907 6896 6895 6894 ] final  111.24 input  -60.11 | X-H torsion
[ 7974 7965 7964 7962 ] final  112.05 input  175.53 | X-H torsion
[ 8008 7997 7996 7995 ] final   61.92 input   59.86 | X-H torsion
[ 10167 10162 10161 10158 ] final -176.70 input  -65.29 | X-H torsion
[ 10718 10713 10712 10709 ] final   35.52 input   66.30 | X-H torsion
[ 10763 10752 10751 10750 ] final   38.61 input  -60.55 | X-H torsion
[ 11005 11000 10999 10996 ] final   98.18 input  -57.11 | X-H torsion

> <Gold.Protein.ActiveResidues>
 VAL166  LYS551  ARG553  GLY616  TRP617  ASP618  TYR619  PRO620  LYS621  CYS622 
 ASP623  PHE694  ASN695  SER759  ASP760  ASP761  ALA762  ILE779  LEU786  VAL792 
 PHE793  MET794  SER795  GLU796  ALA797  LYS798  CYS799  TRP800  GLU811  SER814 

> <Gold.Protein.RotatedAtoms>
  152.4979  133.8686  159.7286 H   0  0  0  0  0  0  0  0  0  0  0  0  # atno 6907 bound_to 6896
  150.9179  133.6908  159.2846 H   0  0  0  0  0  0  0  0  0  0  0  0  # atno 6908 bound_to 6896
  151.4295  135.1012  159.9690 H   0  0  0  0  0  0  0  0  0  0  0  0  # atno 6909 bound_to 6896
  145.2344  139.2805  143.4151 H   0  0  0  0  0  0  0  0  0  0  0  0  # atno 7974 bound_to 7965
  155.6061  140.3494  155.4608 H   0  0  0  0  0  0  0  0  0  0  0  0  # atno 8008 bound_to 7997
  156.0191  140.1249  157.0400 H   0  0  0  0  0  0  0  0  0  0  0  0  # atno 8009 bound_to 7997
  154.4308  140.1066  156.5924 H   0  0  0  0  0  0  0  0  0  0  0  0  # atno 8010 bound_to 7997
  139.5516  144.2094  152.1087 H   0  0  0  0  0  0  0  0  0  0  0  0  # atno 10167 bound_to 10162
  157.3237  130.7461  149.6801 H   0  0  0  0  0  0  0  0  0  0  0  0  # atno 10718 bound_to 10713
  152.9995  135.6244  154.2333 H   0  0  0  0  0  0  0  0  0  0  0  0  # atno 10763 bound_to 10752
  154.2074  135.2801  155.2971 H   0  0  0  0  0  0  0  0  0  0  0  0  # atno 10764 bound_to 10752
  154.5634  135.5698  153.7087 H   0  0  0  0  0  0  0  0  0  0  0  0  # atno 10765 bound_to 10752
  139.8773  134.9037  156.4418 H   0  0  0  0  0  0  0  0  0  0  0  0  # atno 11005 bound_to 11000
  146.3344  140.2689  142.8605 LP  0  0  0  0  0  0  0  0  0  0  0  0  # atno 17320 bound_to 7965
  144.9646  140.8309  143.5492 LP  0  0  0  0  0  0  0  0  0  0  0  0  # atno 17321 bound_to 7965
  140.1590  144.5043  150.6643 LP  0  0  0  0  0  0  0  0  0  0  0  0  # atno 17342 bound_to 10162
  140.6780  143.2314  151.5457 LP  0  0  0  0  0  0  0  0  0  0  0  0  # atno 17343 bound_to 10162
  155.9688  130.4215  150.4475 LP  0  0  0  0  0  0  0  0  0  0  0  0  # atno 17370 bound_to 10713
  157.2495  131.0543  151.2388 LP  0  0  0  0  0  0  0  0  0  0  0  0  # atno 17371 bound_to 10713
  140.8994  133.7790  155.9663 LP  0  0  0  0  0  0  0  0  0  0  0  0  # atno 17394 bound_to 11000
  140.8667  134.2775  157.5210 LP  0  0  0  0  0  0  0  0  0  0  0  0  # atno 17395 bound_to 11000

$$$$
