AV-unprocessed.smi:2724|AV-procd|sdf|10508|dock3
  -GOLD-   2272014553D 1   1.00000     0.00000
 Structure written by MMmdl.
 25 26  0  0  0  0  0  0  0  0  1 V2000
  149.2549  143.9090  158.4530 O   0  0  0  0  0  0  0  0  0  0  0  0
  150.4536  144.5768  158.7959 C   0  0  1  0  0  0  0  0  0  0  0  0
  150.6786  144.6434  160.3064 C   0  0  0  0  0  0  0  0  0  0  0  0
  152.1711  144.9421  160.4253 C   0  0  0  0  0  0  0  0  0  0  0  0
  152.8160  144.1127  159.3105 C   0  0  0  0  0  0  0  0  0  0  0  0
  151.7481  143.9685  158.2041 C   0  0  1  0  0  0  0  0  0  0  0  0
  151.6214  142.5345  157.6926 C   0  0  0  0  0  0  0  0  0  0  0  0
  152.1925  141.4452  158.3879 C   0  0  0  0  0  0  0  0  0  0  0  0
  152.0377  140.1460  157.8683 C   0  0  0  0  0  0  0  0  0  0  0  0
  151.3173  139.9860  156.6685 C   0  0  0  0  0  0  0  0  0  0  0  0
  150.7683  141.0169  155.9913 N   0  0  0  0  0  0  0  0  0  0  0  0
  150.9208  142.2594  156.4977 C   0  0  0  0  0  0  0  0  0  0  0  0
  149.1830  143.8869  157.5110 H   0  0  0  0  0  0  0  0  0  0  0  0
  150.3676  145.6023  158.4334 H   0  0  0  0  0  0  0  0  0  0  0  0
  150.0573  145.3964  160.7923 H   0  0  0  0  0  0  0  0  0  0  0  0
  150.4587  143.6797  160.7682 H   0  0  0  0  0  0  0  0  0  0  0  0
  152.3471  146.0033  160.2441 H   0  0  0  0  0  0  0  0  0  0  0  0
  152.5709  144.7021  161.4109 H   0  0  0  0  0  0  0  0  0  0  0  0
  153.7358  144.5654  158.9387 H   0  0  0  0  0  0  0  0  0  0  0  0
  153.0878  143.1386  159.7184 H   0  0  0  0  0  0  0  0  0  0  0  0
  152.0434  144.5923  157.3589 H   0  0  0  0  0  0  0  0  0  0  0  0
  152.7388  141.5993  159.3067 H   0  0  0  0  0  0  0  0  0  0  0  0
  152.4600  139.2926  158.3778 H   0  0  0  0  0  0  0  0  0  0  0  0
  151.1785  139.0040  156.2413 H   0  0  0  0  0  0  0  0  0  0  0  0
  150.4678  143.0575  155.9284 H   0  0  0  0  0  0  0  0  0  0  0  0
  1  2  1  0  0  0  0
  1 13  1  0  0  0  0
  2  6  1  0  0  0  0
  2  3  1  0  0  0  0
  2 14  1  0  0  0  0
  3  4  1  0  0  0  0
  3 15  1  0  0  0  0
  3 16  1  0  0  0  0
  4  5  1  0  0  0  0
  4 17  1  0  0  0  0
  4 18  1  0  0  0  0
  5  6  1  0  0  0  0
  5 19  1  0  0  0  0
  5 20  1  0  0  0  0
  6  7  1  0  0  0  0
  6 21  1  0  0  0  0
  7 12  1  0  0  0  0
  7  8  2  0  0  0  0
  8  9  1  0  0  0  0
  8 22  1  0  0  0  0
  9 10  2  0  0  0  0
  9 23  1  0  0  0  0
 10 11  1  0  0  0  0
 10 24  1  0  0  0  0
 11 12  2  0  0  0  0
 12 25  1  0  0  0  0
M  END
> <s_m_source_file>
AV-unprocessed.smi

> <i_m_source_file_index>
2724

> <i_lp_mmshare_version>
43012

> <i_f3d_flags>
0

> <s_epik_input>
W09IXVtDQEBIXTFbQ0gyXVtDSDJdW0NIMl1bQ0BIXTFjMltjSF1bY0hdW2NIXW5bY0hdMg==

> <s_epik_cmdline>
J2VwaWtfcHl0aG9uJywgJy1waCcsICc3LjAnLCAnLXRuJywgJzgnLCAnLW1hJywgJzIwMCcsICctbWV0YWxfYmluZGluZycsICctaW1hZScsICc8aW5maWxlLm1hZT4nLCAnLW9tYWUnLCAnPG91dGZpbGUubWFlPic=

> <r_epik_Ionization_Penalty>
0.0175299

> <r_epik_Ionization_Penalty_Charging>
0

> <r_epik_Ionization_Penalty_Neutral>
0.0175299

> <r_epik_State_Penalty>
0.0138989

> <r_epik_Charging_Adjusted_Penalty>
0.0138989

> <i_epik_Tot_Q>
0

> <i_epik_Tot_abs_Q>
0

> <r_epik_Metal_State_Penalty>
1.40631e-05

> <b_epik_Metal_Only>
0

> <s_lp_Force_Field>
OPLS_2005

> <r_lp_Energy>
23.8775

> <b_lp_Chiralities_Consistent>
1

> <s_lp_Variant>
AV-unprocessed.smi:2724-2

> <Gold.Version>
5.8.1

> <Gold.Id.Protein>
6NUR|6NUR_protein|mol2

> <Gold.PLP.Fitness>
32.6852

> <Gold.PLP.PLP>
-27.4462

> <Gold.PLP.part.hbond>
-2.0000

> <Gold.PLP.part.metal>
0.0000

> <Gold.PLP.part.buried>
-3.3294

> <Gold.PLP.part.nonpolar>
-21.2098

> <Gold.PLP.part.repulsive>
0.0387

> <Gold.PLP.ligand.clash>
0.0000

> <Gold.PLP.ligand.torsion>
0.3063

> <Gold.PLP.Chemscore.Hbond>
0.9500

> <Gold.PLP.Chemscore.CHOScore>
1.0000

> <Gold.PLP.Chemscore.Metal>
0.0000

> <Gold.Chemscore.Hbonds>
donor molecule, donor type, donor heavy atom, donor atom, acceptor molecule, acceptor atom, score
      L1  H     1    13       P1  8028  0.85
      L1  C    12    25       P1  8028  1.00

> <Gold.PLP.Chemscore.Internal.Correction>
0.0015

> <Gold.Rescore>
     Score         DG    S(hbond)    S(metal)    S(lipo)     H(rot)  DE(clash)    DE(int)     intcor
     13.26     -13.73       0.21        0.00      93.56       1.32       0.05       0.43       ----

> <Gold.Chemscore.Fitness>
13.2609

> <Gold.Chemscore.DG>
-13.7348

> <Gold.Chemscore.ZeroCoef>
-5.4800

> <Gold.Chemscore.Hbond>
0.2052

> <Gold.Chemscore.Metal>
0.0000

> <Gold.Chemscore.Lipo>
93.5602

> <Gold.Chemscore.Internal_Hbond>
0.0000

> <Gold.Chemscore.DEClash>
0.0467

> <Gold.Chemscore.DEInternal>
0.4272

> <Gold.Chemscore.Rot>
1.3192

> <Gold.Chemscore.Internal.Correction>
   9.000000E+99

> <Gold.Chemscore.Hbonds>
donor molecule, donor type, donor heavy atom, donor atom, acceptor molecule, acceptor atom, score
      L1  H     1    13       P1  8028  0.13

> <Gold.Chemscore.Hbond.Weighted>
-0.6855

> <Gold.Chemscore.Metal.Weighted>
-0.0000

> <Gold.Chemscore.Lipo.Weighted>
-10.9465

> <Gold.Chemscore.Internal_Hbond.Weighted>
0.0000

> <Gold.Chemscore.DEClash.Weighted>
0.0467

> <Gold.Chemscore.DEInternal.Weighted>
0.4272

> <Gold.Chemscore.Rot.Weighted>
3.3772

> <Gold.Chemscore.Internal.Correction.Weighted>
   9.000000E+99

> <Gold.Protein.RotatedTorsions>
[ 6907 6896 6895 6894 ] final   84.07 input  -60.11 | X-H torsion
[ 7974 7965 7964 7962 ] final   89.13 input  175.53 | X-H torsion
[ 8008 7997 7996 7995 ] final -150.09 input   59.86 | X-H torsion
[ 10167 10162 10161 10158 ] final  108.11 input  -65.29 | X-H torsion
[ 10718 10713 10712 10709 ] final   48.52 input   66.30 | X-H torsion
[ 10763 10752 10751 10750 ] final  111.14 input  -60.55 | X-H torsion
[ 11005 11000 10999 10996 ] final -153.04 input  -57.11 | X-H torsion

> <Gold.Protein.ActiveResidues>
 VAL166  LYS551  ARG553  GLY616  TRP617  ASP618  TYR619  PRO620  LYS621  CYS622 
 ASP623  PHE694  ASN695  SER759  ASP760  ASP761  ALA762  ILE779  LEU786  VAL792 
 PHE793  MET794  SER795  GLU796  ALA797  LYS798  CYS799  TRP800  GLU811  SER814 

> <Gold.Protein.RotatedAtoms>
  152.5343  134.2797  159.9002 H   0  0  0  0  0  0  0  0  0  0  0  0  # atno 6907 bound_to 6896
  151.2751  133.4229  159.2631 H   0  0  0  0  0  0  0  0  0  0  0  0  # atno 6908 bound_to 6896
  151.0333  134.9570  159.8179 H   0  0  0  0  0  0  0  0  0  0  0  0  # atno 6909 bound_to 6896
  145.5364  139.2286  143.2590 H   0  0  0  0  0  0  0  0  0  0  0  0  # atno 7974 bound_to 7965
  155.6181  140.0678  157.2686 H   0  0  0  0  0  0  0  0  0  0  0  0  # atno 8008 bound_to 7997
  154.4236  140.1789  156.1391 H   0  0  0  0  0  0  0  0  0  0  0  0  # atno 8009 bound_to 7997
  156.0031  140.3334  155.6869 H   0  0  0  0  0  0  0  0  0  0  0  0  # atno 8010 bound_to 7997
  139.6872  144.7112  151.1411 H   0  0  0  0  0  0  0  0  0  0  0  0  # atno 10167 bound_to 10162
  157.4695  130.8246  149.7973 H   0  0  0  0  0  0  0  0  0  0  0  0  # atno 10718 bound_to 10713
  153.4590  135.3726  155.2327 H   0  0  0  0  0  0  0  0  0  0  0  0  # atno 10763 bound_to 10752
  154.8757  135.3904  154.3947 H   0  0  0  0  0  0  0  0  0  0  0  0  # atno 10764 bound_to 10752
  153.4518  135.7085  153.6168 H   0  0  0  0  0  0  0  0  0  0  0  0  # atno 10765 bound_to 10752
  140.7125  134.3817  157.5195 H   0  0  0  0  0  0  0  0  0  0  0  0  # atno 11005 bound_to 11000
  146.2010  140.6183  142.9102 LP  0  0  0  0  0  0  0  0  0  0  0  0  # atno 17320 bound_to 7965
  144.7599  140.5397  143.6743 LP  0  0  0  0  0  0  0  0  0  0  0  0  # atno 17321 bound_to 7965
  140.7671  143.5611  150.9098 LP  0  0  0  0  0  0  0  0  0  0  0  0  # atno 17342 bound_to 10162
  139.9287  143.6519  152.3081 LP  0  0  0  0  0  0  0  0  0  0  0  0  # atno 17343 bound_to 10162
  156.0066  130.3852  150.2408 LP  0  0  0  0  0  0  0  0  0  0  0  0  # atno 17370 bound_to 10713
  157.0590  131.0084  151.3229 LP  0  0  0  0  0  0  0  0  0  0  0  0  # atno 17371 bound_to 10713
  139.8868  134.8899  156.2564 LP  0  0  0  0  0  0  0  0  0  0  0  0  # atno 17394 bound_to 11000
  141.0073  133.7116  156.1054 LP  0  0  0  0  0  0  0  0  0  0  0  0  # atno 17395 bound_to 11000

$$$$
