AV-unprocessed.smi:2124|AV-procd|sdf|8653|dock4
  -GOLD-   2272011403D 1   1.00000     0.00000
 Structure written by MMmdl.
 47 49  0  0  0  0  0  0  0  0  1 V2000
  150.5062  134.7978  154.2685 C   0  0  0  0  0  0  0  0  0  0  0  0
  151.0870  136.0818  154.8223 C   0  0  0  0  0  0  0  0  0  0  0  0
  151.9670  136.1267  155.7679 N   0  0  0  0  0  0  0  0  0  0  0  0
  152.4288  137.3781  156.1994 C   0  0  0  0  0  0  0  0  0  0  0  0
  153.4543  137.3496  157.3198 C   0  0  0  0  0  0  0  0  0  0  0  0
  151.9764  138.5391  155.6414 C   0  0  0  0  0  0  0  0  0  0  0  0
  152.4555  139.9188  156.0917 C   0  0  0  0  0  0  0  0  0  0  0  0
  151.9900  140.3787  157.4757 C   0  0  0  0  0  0  0  0  0  0  0  0
  150.8005  140.3183  157.7879 O   0  0  0  0  0  0  0  0  0  0  0  0
  152.9545  140.8307  158.2947 N   0  0  0  0  0  0  0  0  0  0  0  0
  152.8054  141.2996  159.6757 C   0  0  1  0  0  0  0  0  0  0  0  0
  154.1740  141.6970  160.2643 C   0  0  0  0  0  0  0  0  0  0  0  0
  151.7295  142.4136  159.8035 C   0  0  1  0  0  0  0  0  0  0  0  0
  151.9839  143.4037  160.9687 C   0  0  0  0  0  0  0  0  0  0  0  0
  151.9397  144.7799  160.2823 C   0  0  2  0  0  0  0  0  0  0  0  0
  150.4996  145.0874  159.8339 C   0  0  0  0  0  0  0  0  0  0  0  0
  150.3068  144.1330  158.6408 C   0  0  0  0  0  0  0  0  0  0  0  0
  151.6476  143.3749  158.5909 C   0  0  1  0  0  0  0  0  0  0  0  0
  152.6308  144.4818  158.9588 C   0  0  0  0  0  0  0  0  0  0  0  0
  150.9713  138.4761  154.5633 C   0  0  0  0  0  0  0  0  0  0  0  0
  150.4915  139.4580  153.9986 O   0  0  0  0  0  0  0  0  0  0  0  0
  150.5814  137.2297  154.2143 N   0  0  0  0  0  0  0  0  0  0  0  0
  149.8924  137.1334  153.4828 H   0  0  0  0  0  0  0  0  0  0  0  0
  150.0125  134.2364  155.0619 H   0  0  0  0  0  0  0  0  0  0  0  0
  151.2988  134.1767  153.8507 H   0  0  0  0  0  0  0  0  0  0  0  0
  149.7750  134.9924  153.4826 H   0  0  0  0  0  0  0  0  0  0  0  0
  154.4134  137.7313  156.9692 H   0  0  0  0  0  0  0  0  0  0  0  0
  153.6119  136.3346  157.6864 H   0  0  0  0  0  0  0  0  0  0  0  0
  153.1244  137.9588  158.1614 H   0  0  0  0  0  0  0  0  0  0  0  0
  153.5457  139.9264  156.0854 H   0  0  0  0  0  0  0  0  0  0  0  0
  152.1686  140.6763  155.3615 H   0  0  0  0  0  0  0  0  0  0  0  0
  153.8955  140.8392  157.9286 H   0  0  0  0  0  0  0  0  0  0  0  0
  152.4582  140.4287  160.2321 H   0  0  0  0  0  0  0  0  0  0  0  0
  154.1184  141.8547  161.3405 H   0  0  0  0  0  0  0  0  0  0  0  0
  154.5554  142.6158  159.8187 H   0  0  0  0  0  0  0  0  0  0  0  0
  154.9144  140.9143  160.0958 H   0  0  0  0  0  0  0  0  0  0  0  0
  150.7585  141.9364  159.9410 H   0  0  0  0  0  0  0  0  0  0  0  0
  151.2397  143.3092  161.7605 H   0  0  0  0  0  0  0  0  0  0  0  0
  152.9649  143.2513  161.4204 H   0  0  0  0  0  0  0  0  0  0  0  0
  152.3953  145.5766  160.8711 H   0  0  0  0  0  0  0  0  0  0  0  0
  149.7740  144.9128  160.6293 H   0  0  0  0  0  0  0  0  0  0  0  0
  150.4035  146.1254  159.5133 H   0  0  0  0  0  0  0  0  0  0  0  0
  149.4525  143.4678  158.7706 H   0  0  0  0  0  0  0  0  0  0  0  0
  150.1501  144.6988  157.7216 H   0  0  0  0  0  0  0  0  0  0  0  0
  151.8298  142.9079  157.6239 H   0  0  0  0  0  0  0  0  0  0  0  0
  152.6151  145.3230  158.2634 H   0  0  0  0  0  0  0  0  0  0  0  0
  153.6587  144.1347  159.0738 H   0  0  0  0  0  0  0  0  0  0  0  0
  1  2  1  0  0  0  0
  1 24  1  0  0  0  0
  1 25  1  0  0  0  0
  1 26  1  0  0  0  0
  2 22  1  0  0  0  0
  2  3  2  0  0  0  0
  3  4  1  0  0  0  0
  4  5  1  0  0  0  0
  4  6  2  0  0  0  0
  5 27  1  0  0  0  0
  5 28  1  0  0  0  0
  5 29  1  0  0  0  0
  6  7  1  0  0  0  0
  6 20  1  0  0  0  0
  7  8  1  0  0  0  0
  7 30  1  0  0  0  0
  7 31  1  0  0  0  0
  8  9  2  0  0  0  0
  8 10  1  0  0  0  0
 10 11  1  0  0  0  0
 10 32  1  0  0  0  0
 11 12  1  0  0  0  0
 11 13  1  0  0  0  0
 11 33  1  0  0  0  0
 12 34  1  0  0  0  0
 12 35  1  0  0  0  0
 12 36  1  0  0  0  0
 13 18  1  0  0  0  0
 13 14  1  0  0  0  0
 13 37  1  0  0  0  0
 14 15  1  0  0  0  0
 14 38  1  0  0  0  0
 14 39  1  0  0  0  0
 15 19  1  0  0  0  0
 15 16  1  0  0  0  0
 15 40  1  0  0  0  0
 16 17  1  0  0  0  0
 16 41  1  0  0  0  0
 16 42  1  0  0  0  0
 17 18  1  0  0  0  0
 17 43  1  0  0  0  0
 17 44  1  0  0  0  0
 18 19  1  0  0  0  0
 18 45  1  0  0  0  0
 19 46  1  0  0  0  0
 19 47  1  0  0  0  0
 20 21  2  0  0  0  0
 20 22  1  0  0  0  0
 22 23  1  0  0  0  0
M  END
> <s_m_source_file>
AV-unprocessed.smi

> <i_m_source_file_index>
2124

> <i_lp_mmshare_version>
43012

> <i_f3d_flags>
0

> <s_epik_input>
W0NIM11jMW5jKFtDSDNdKWMoYyg9TylbbkhdMSlbQ0gyXUMoPU8pW05IXVtDQEhdKFtDSDNdKVtDQEhdKFtDSDJdW0NASF0yMylbQ0BIXShbQ0gyXTMpW0NIMl1bQ0gyXTI=

> <s_epik_cmdline>
J2VwaWtfcHl0aG9uJywgJy1waCcsICc3LjAnLCAnLXRuJywgJzgnLCAnLW1hJywgJzIwMCcsICctbWV0YWxfYmluZGluZycsICctaW1hZScsICc8aW5maWxlLm1hZT4nLCAnLW9tYWUnLCAnPG91dGZpbGUubWFlPic=

> <r_lp_tautomer_probability>
0.839158

> <r_epik_Ionization_Penalty>
0.000383628

> <r_epik_Ionization_Penalty_Charging>
0.00035045

> <r_epik_Ionization_Penalty_Neutral>
3.31781e-05

> <r_epik_State_Penalty>
0.09125

> <r_epik_Charging_Adjusted_Penalty>
0.0916005

> <i_epik_Tot_Q>
0

> <i_epik_Tot_abs_Q>
0

> <r_epik_Metal_State_Penalty>
0.255229

> <b_epik_Metal_Only>
0

> <s_lp_Force_Field>
OPLS_2005

> <r_lp_Energy>
52.6925

> <b_lp_Chiralities_Consistent>
1

> <s_lp_Variant>
AV-unprocessed.smi:2124-4

> <Gold.Version>
5.8.1

> <Gold.Id.Protein>
6NUR|6NUR_protein|mol2

> <Gold.PLP.Fitness>
48.1357

> <Gold.PLP.PLP>
-42.2554

> <Gold.PLP.part.hbond>
-3.2532

> <Gold.PLP.part.metal>
0.0000

> <Gold.PLP.part.buried>
-2.6757

> <Gold.PLP.part.nonpolar>
-37.2557

> <Gold.PLP.part.repulsive>
1.2220

> <Gold.PLP.ligand.clash>
0.0000

> <Gold.PLP.ligand.torsion>
0.9638

> <Gold.PLP.Chemscore.Hbond>
2.5805

> <Gold.PLP.Chemscore.CHOScore>
0.0000

> <Gold.PLP.Chemscore.Metal>
0.0000

> <Gold.Chemscore.Hbonds>
donor molecule, donor type, donor heavy atom, donor atom, acceptor molecule, acceptor atom, score
      L1  H    22    23       P1  7948  0.98
      P1  H  7989  7998       L1    21  1.00
      P1  H 10752 10765       L1     3  1.00

> <Gold.PLP.Chemscore.Internal.Correction>
0.0665

> <Gold.Rescore>
     Score         DG    S(hbond)    S(metal)    S(lipo)     H(rot)  DE(clash)    DE(int)     intcor
     19.01     -21.68       1.83        0.00     122.47       1.65       0.92       1.75       ----

> <Gold.Chemscore.Fitness>
19.0099

> <Gold.Chemscore.DG>
-21.6756

> <Gold.Chemscore.ZeroCoef>
-5.4800

> <Gold.Chemscore.Hbond>
1.8260

> <Gold.Chemscore.Metal>
0.0000

> <Gold.Chemscore.Lipo>
122.4741

> <Gold.Chemscore.Internal_Hbond>
0.0000

> <Gold.Chemscore.DEClash>
0.9172

> <Gold.Chemscore.DEInternal>
1.7485

> <Gold.Chemscore.Rot>
1.6534

> <Gold.Chemscore.Internal.Correction>
   9.000000E+99

> <Gold.Chemscore.Hbonds>
donor molecule, donor type, donor heavy atom, donor atom, acceptor molecule, acceptor atom, score
      L1  H    22    23       P1  7948  0.41
      P1  H  7989  7998       L1    21  0.95
      P1  H 10752 10765       L1     3  0.21

> <Gold.Chemscore.Hbond.Weighted>
-6.0988

> <Gold.Chemscore.Metal.Weighted>
-0.0000

> <Gold.Chemscore.Lipo.Weighted>
-14.3295

> <Gold.Chemscore.Internal_Hbond.Weighted>
0.0000

> <Gold.Chemscore.DEClash.Weighted>
0.9172

> <Gold.Chemscore.DEInternal.Weighted>
1.7485

> <Gold.Chemscore.Rot.Weighted>
4.2326

> <Gold.Chemscore.Internal.Correction.Weighted>
   9.000000E+99

> <Gold.Protein.RotatedTorsions>
[ 6907 6896 6895 6894 ] final   63.92 input  -60.11 | X-H torsion
[ 7974 7965 7964 7962 ] final  177.22 input  175.53 | X-H torsion
[ 8008 7997 7996 7995 ] final -107.55 input   59.86 | X-H torsion
[ 10167 10162 10161 10158 ] final  -57.67 input  -65.29 | X-H torsion
[ 10718 10713 10712 10709 ] final  -64.93 input   66.30 | X-H torsion
[ 10763 10752 10751 10750 ] final -139.85 input  -60.55 | X-H torsion
[ 11005 11000 10999 10996 ] final  -27.09 input  -57.11 | X-H torsion

> <Gold.Protein.ActiveResidues>
 VAL166  LYS551  ARG553  GLY616  TRP617  ASP618  TYR619  PRO620  LYS621  CYS622 
 ASP623  PHE694  ASN695  SER759  ASP760  ASP761  ALA762  ILE779  LEU786  VAL792 
 PHE793  MET794  SER795  GLU796  ALA797  LYS798  CYS799  TRP800  GLU811  SER814 

> <Gold.Protein.RotatedAtoms>
  152.4291  134.5812  159.9948 H   0  0  0  0  0  0  0  0  0  0  0  0  # atno 6907 bound_to 6896
  151.5940  133.3357  159.3041 H   0  0  0  0  0  0  0  0  0  0  0  0  # atno 6908 bound_to 6896
  150.8182  134.7412  159.6814 H   0  0  0  0  0  0  0  0  0  0  0  0  # atno 6909 bound_to 6896
  144.7172  140.0215  143.6440 H   0  0  0  0  0  0  0  0  0  0  0  0  # atno 7974 bound_to 7965
  154.9310  140.0405  157.2048 H   0  0  0  0  0  0  0  0  0  0  0  0  # atno 8008 bound_to 7997
  154.8161  140.2876  155.5797 H   0  0  0  0  0  0  0  0  0  0  0  0  # atno 8009 bound_to 7997
  156.2976  140.2527  156.3059 H   0  0  0  0  0  0  0  0  0  0  0  0  # atno 8010 bound_to 7997
  140.6244  143.2432  151.5401 H   0  0  0  0  0  0  0  0  0  0  0  0  # atno 10167 bound_to 10162
  156.0699  130.4240  150.1491 H   0  0  0  0  0  0  0  0  0  0  0  0  # atno 10718 bound_to 10713
  154.8597  135.3570  154.5613 H   0  0  0  0  0  0  0  0  0  0  0  0  # atno 10763 bound_to 10752
  153.6228  135.7005  153.5309 H   0  0  0  0  0  0  0  0  0  0  0  0  # atno 10764 bound_to 10752
  153.3115  135.4177  155.1299 H   0  0  0  0  0  0  0  0  0  0  0  0  # atno 10765 bound_to 10752
  140.9088  133.7474  156.0643 H   0  0  0  0  0  0  0  0  0  0  0  0  # atno 11005 bound_to 11000
  146.0177  139.3224  143.0832 LP  0  0  0  0  0  0  0  0  0  0  0  0  # atno 17320 bound_to 7965
  145.8606  140.9477  143.0702 LP  0  0  0  0  0  0  0  0  0  0  0  0  # atno 17321 bound_to 7965
  139.5466  144.2504  152.1454 LP  0  0  0  0  0  0  0  0  0  0  0  0  # atno 17342 bound_to 10162
  140.1732  144.4916  150.6568 LP  0  0  0  0  0  0  0  0  0  0  0  0  # atno 17343 bound_to 10162
  156.9544  130.9785  151.3492 LP  0  0  0  0  0  0  0  0  0  0  0  0  # atno 17370 bound_to 10713
  157.5764  130.8346  149.8462 LP  0  0  0  0  0  0  0  0  0  0  0  0  # atno 17371 bound_to 10713
  140.8136  134.3370  157.5404 LP  0  0  0  0  0  0  0  0  0  0  0  0  # atno 17394 bound_to 11000
  139.8754  134.9268  156.3410 LP  0  0  0  0  0  0  0  0  0  0  0  0  # atno 17395 bound_to 11000

$$$$
