AV-unprocessed.smi:1591|AV-procd|sdf|6398|dock3
  -GOLD-   22720 7 33D 1   1.00000     0.00000
 Structure written by MMmdl.
 52 55  0  0  0  0  0  0  0  0  1 V2000
  145.0423  136.1328  156.6883 C   0  0  0  0  0  0  0  0  0  0  0  0
  145.6480  137.5447  156.6687 C   0  0  0  0  0  0  0  0  0  0  0  0
  145.9754  138.0726  155.2491 C   0  0  1  0  0  0  0  0  0  0  0  0
  144.8219  137.8573  154.3755 N   0  0  0  0  0  0  0  0  0  0  0  0
  144.6380  136.8602  153.4938 C   0  0  0  0  0  0  0  0  0  0  0  0
  145.4196  135.9186  153.3684 O   0  0  0  0  0  0  0  0  0  0  0  0
  143.3914  136.9355  152.5951 C   0  0  0  0  0  0  0  0  0  0  0  0
  142.1188  136.9511  153.3377 N   0  0  0  0  0  0  0  0  0  0  0  0
  141.2539  138.0303  153.2217 C   0  0  0  0  0  0  0  0  0  0  0  0
  140.0462  138.0868  153.8318 C   0  0  0  0  0  0  0  0  0  0  0  0
  139.5861  136.9797  154.6635 C   0  0  0  0  0  0  0  0  0  0  0  0
  138.5082  136.9348  155.2519 O   0  0  0  0  0  0  0  0  0  0  0  0
  140.4854  135.9145  154.7588 N   0  0  0  0  0  0  0  0  0  0  0  0
  141.7322  135.8509  154.1355 C   0  0  0  0  0  0  0  0  0  0  0  0
  142.4442  134.8582  154.2797 O   0  0  0  0  0  0  0  0  0  0  0  0
  146.4121  139.5743  155.1757 C   0  0  0  0  0  0  0  0  0  0  0  0
  146.8895  139.9058  153.7290 C   0  0  0  0  0  0  0  0  0  0  0  0
  147.3346  141.3774  153.6118 C   0  0  1  0  0  0  0  0  0  0  0  0
  146.1516  142.3011  153.9664 C   0  0  0  0  0  0  0  0  0  0  0  0
  145.7011  142.0133  155.4128 C   0  0  2  0  0  0  0  0  0  0  0  0
  146.8725  142.2725  156.3825 C   0  0  0  0  0  0  0  0  0  0  0  0
  148.0495  141.3448  156.0163 C   0  0  2  0  0  0  0  0  0  0  0  0
  148.5092  141.6361  154.5745 C   0  0  0  0  0  0  0  0  0  0  0  0
  147.6003  139.8720  156.1353 C   0  0  0  0  0  0  0  0  0  0  0  0
  145.2447  140.5435  155.5304 C   0  0  0  0  0  0  0  0  0  0  0  0
  140.2101  135.1246  155.3245 H   0  0  0  0  0  0  0  0  0  0  0  0
  144.9106  135.7841  157.7127 H   0  0  0  0  0  0  0  0  0  0  0  0
  145.6896  135.4205  156.1763 H   0  0  0  0  0  0  0  0  0  0  0  0
  144.0644  136.1050  156.2074 H   0  0  0  0  0  0  0  0  0  0  0  0
  144.9654  138.2239  157.1790 H   0  0  0  0  0  0  0  0  0  0  0  0
  146.5543  137.5108  157.2712 H   0  0  0  0  0  0  0  0  0  0  0  0
  146.8153  137.4795  154.8827 H   0  0  0  0  0  0  0  0  0  0  0  0
  144.1140  138.5769  154.3997 H   0  0  0  0  0  0  0  0  0  0  0  0
  143.4686  137.8152  151.9534 H   0  0  0  0  0  0  0  0  0  0  0  0
  143.4159  136.0830  151.9150 H   0  0  0  0  0  0  0  0  0  0  0  0
  141.5494  138.8688  152.6071 H   0  0  0  0  0  0  0  0  0  0  0  0
  139.4151  138.9537  153.6999 H   0  0  0  0  0  0  0  0  0  0  0  0
  147.7123  139.2485  153.4446 H   0  0  0  0  0  0  0  0  0  0  0  0
  146.0975  139.7253  153.0029 H   0  0  0  0  0  0  0  0  0  0  0  0
  147.6551  141.5776  152.5890 H   0  0  0  0  0  0  0  0  0  0  0  0
  146.4438  143.3467  153.8618 H   0  0  0  0  0  0  0  0  0  0  0  0
  145.3242  142.1402  153.2736 H   0  0  0  0  0  0  0  0  0  0  0  0
  144.8690  142.6703  155.6682 H   0  0  0  0  0  0  0  0  0  0  0  0
  147.1832  143.3168  156.3298 H   0  0  0  0  0  0  0  0  0  0  0  0
  146.5572  142.0959  157.4115 H   0  0  0  0  0  0  0  0  0  0  0  0
  148.8780  141.5254  156.7018 H   0  0  0  0  0  0  0  0  0  0  0  0
  149.3595  141.0051  154.3131 H   0  0  0  0  0  0  0  0  0  0  0  0
  148.8507  142.6682  154.4865 H   0  0  0  0  0  0  0  0  0  0  0  0
  147.3201  139.6872  157.1716 H   0  0  0  0  0  0  0  0  0  0  0  0
  148.4378  139.2072  155.9194 H   0  0  0  0  0  0  0  0  0  0  0  0
  144.3892  140.3837  154.8734 H   0  0  0  0  0  0  0  0  0  0  0  0
  144.8880  140.3607  156.5440 H   0  0  0  0  0  0  0  0  0  0  0  0
  1  2  1  0  0  0  0
  1 27  1  0  0  0  0
  1 28  1  0  0  0  0
  1 29  1  0  0  0  0
  2  3  1  0  0  0  0
  2 30  1  0  0  0  0
  2 31  1  0  0  0  0
  3  4  1  0  0  0  0
  3 16  1  0  0  0  0
  3 32  1  0  0  0  0
  4  5  1  0  0  0  0
  4 33  1  0  0  0  0
  5  6  2  0  0  0  0
  5  7  1  0  0  0  0
  7  8  1  0  0  0  0
  7 34  1  0  0  0  0
  7 35  1  0  0  0  0
  8 14  1  0  0  0  0
  8  9  1  0  0  0  0
  9 10  2  0  0  0  0
  9 36  1  0  0  0  0
 10 11  1  0  0  0  0
 10 37  1  0  0  0  0
 11 12  2  0  0  0  0
 11 13  1  0  0  0  0
 13 26  1  0  0  0  0
 13 14  1  0  0  0  0
 14 15  2  0  0  0  0
 16 24  1  0  0  0  0
 16 25  1  0  0  0  0
 16 17  1  0  0  0  0
 17 18  1  0  0  0  0
 17 38  1  0  0  0  0
 17 39  1  0  0  0  0
 18 23  1  0  0  0  0
 18 19  1  0  0  0  0
 18 40  1  0  0  0  0
 19 20  1  0  0  0  0
 19 41  1  0  0  0  0
 19 42  1  0  0  0  0
 20 21  1  0  0  0  0
 20 25  1  0  0  0  0
 20 43  1  0  0  0  0
 21 22  1  0  0  0  0
 21 44  1  0  0  0  0
 21 45  1  0  0  0  0
 22 23  1  0  0  0  0
 22 24  1  0  0  0  0
 22 46  1  0  0  0  0
 23 47  1  0  0  0  0
 23 48  1  0  0  0  0
 24 49  1  0  0  0  0
 24 50  1  0  0  0  0
 25 51  1  0  0  0  0
 25 52  1  0  0  0  0
M  END
> <s_m_source_file>
AV-unprocessed.smi

> <i_m_source_file_index>
1591

> <i_lp_mmshare_version>
43012

> <i_f3d_flags>
0

> <s_epik_input>
W0NIMl0xW0NASF0oW0NIMl0yKVtDSDJdW0NASF0oW0NIMl0zKVtDSDJdW0NAQEhdMVtDSDJdQzIzW0NASF0oW0NIMl1bQ0gzXSlbTkhdQyg9TylbQ0gyXW40W2NIXVtjSF1jKD1PKVtuSF1jND1P

> <s_epik_cmdline>
J2VwaWtfcHl0aG9uJywgJy1waCcsICc3LjAnLCAnLXRuJywgJzgnLCAnLW1hJywgJzIwMCcsICctbWV0YWxfYmluZGluZycsICctaW1hZScsICc8aW5maWxlLm1hZT4nLCAnLW9tYWUnLCAnPG91dGZpbGUubWFlPic=

> <r_lp_tautomer_probability>
0.999537

> <r_epik_Ionization_Penalty>
0.00297067

> <r_epik_Ionization_Penalty_Charging>
0.00297065

> <r_epik_Ionization_Penalty_Neutral>
1.95363e-08

> <r_epik_State_Penalty>
0.00208437

> <r_epik_Charging_Adjusted_Penalty>
0.00505502

> <i_epik_Tot_Q>
0

> <i_epik_Tot_abs_Q>
0

> <r_epik_Metal_State_Penalty>
0.36072

> <b_epik_Metal_Only>
0

> <s_lp_Force_Field>
OPLS_2005

> <r_lp_Energy>
36.0514

> <b_lp_Chiralities_Consistent>
1

> <s_lp_Variant>
AV-unprocessed.smi:1591-2

> <Gold.Version>
5.8.1

> <Gold.Id.Protein>
6NUR|6NUR_protein|mol2

> <Gold.PLP.Fitness>
40.8653

> <Gold.PLP.PLP>
-32.4330

> <Gold.PLP.part.hbond>
-1.9018

> <Gold.PLP.part.metal>
0.0000

> <Gold.PLP.part.buried>
-4.4563

> <Gold.PLP.part.nonpolar>
-25.3078

> <Gold.PLP.part.repulsive>
0.3074

> <Gold.PLP.ligand.clash>
0.0000

> <Gold.PLP.ligand.torsion>
0.3325

> <Gold.PLP.Chemscore.Hbond>
0.9920

> <Gold.PLP.Chemscore.CHOScore>
2.0000

> <Gold.PLP.Chemscore.Metal>
0.0000

> <Gold.Chemscore.Hbonds>
donor molecule, donor type, donor heavy atom, donor atom, acceptor molecule, acceptor atom, score
      L1  H    13    26       P1 11000  1.00
      L1  C     9    36       P1 10160  0.79
      L1  C     9    36       P1 10175  0.89

> <Gold.PLP.Chemscore.Internal.Correction>
0.1213

> <Gold.Rescore>
     Score         DG    S(hbond)    S(metal)    S(lipo)     H(rot)  DE(clash)    DE(int)     intcor
      9.41     -10.73       0.99        0.00      61.40       2.04       0.05       1.27       ----

> <Gold.Chemscore.Fitness>
9.4057

> <Gold.Chemscore.DG>
-10.7298

> <Gold.Chemscore.ZeroCoef>
-5.4800

> <Gold.Chemscore.Hbond>
0.9851

> <Gold.Chemscore.Metal>
0.0000

> <Gold.Chemscore.Lipo>
61.4037

> <Gold.Chemscore.Internal_Hbond>
0.0000

> <Gold.Chemscore.DEClash>
0.0513

> <Gold.Chemscore.DEInternal>
1.2727

> <Gold.Chemscore.Rot>
2.0409

> <Gold.Chemscore.Internal.Correction>
   9.000000E+99

> <Gold.Chemscore.Hbonds>
donor molecule, donor type, donor heavy atom, donor atom, acceptor molecule, acceptor atom, score
      L1  H    13    26       P1 11000  0.92

> <Gold.Chemscore.Hbond.Weighted>
-3.2902

> <Gold.Chemscore.Metal.Weighted>
-0.0000

> <Gold.Chemscore.Lipo.Weighted>
-7.1842

> <Gold.Chemscore.Internal_Hbond.Weighted>
0.0000

> <Gold.Chemscore.DEClash.Weighted>
0.0513

> <Gold.Chemscore.DEInternal.Weighted>
1.2727

> <Gold.Chemscore.Rot.Weighted>
5.2246

> <Gold.Chemscore.Internal.Correction.Weighted>
   9.000000E+99

> <Gold.Protein.RotatedTorsions>
[ 6907 6896 6895 6894 ] final   47.95 input  -60.11 | X-H torsion
[ 7974 7965 7964 7962 ] final  104.39 input  175.53 | X-H torsion
[ 8008 7997 7996 7995 ] final  152.08 input   59.86 | X-H torsion
[ 10167 10162 10161 10158 ] final  149.53 input  -65.29 | X-H torsion
[ 10718 10713 10712 10709 ] final -126.12 input   66.30 | X-H torsion
[ 10763 10752 10751 10750 ] final   93.18 input  -60.55 | X-H torsion
[ 11005 11000 10999 10996 ] final  -88.07 input  -57.11 | X-H torsion

> <Gold.Protein.ActiveResidues>
 VAL166  LYS551  ARG553  GLY616  TRP617  ASP618  TYR619  PRO620  LYS621  CYS622 
 ASP623  PHE694  ASN695  SER759  ASP760  ASP761  ALA762  ILE779  LEU786  VAL792 
 PHE793  MET794  SER795  GLU796  ALA797  LYS798  CYS799  TRP800  GLU811  SER814 

> <Gold.Protein.RotatedAtoms>
  152.2740  134.7902  160.0408 H   0  0  0  0  0  0  0  0  0  0  0  0  # atno 6907 bound_to 6896
  151.8505  133.3434  159.3680 H   0  0  0  0  0  0  0  0  0  0  0  0  # atno 6908 bound_to 6896
  150.7163  134.5232  159.5708 H   0  0  0  0  0  0  0  0  0  0  0  0  # atno 6909 bound_to 6896
  145.3333  139.2481  143.3649 H   0  0  0  0  0  0  0  0  0  0  0  0  # atno 7974 bound_to 7965
  156.2645  140.2030  156.6276 H   0  0  0  0  0  0  0  0  0  0  0  0  # atno 8008 bound_to 7997
  154.6707  140.0550  157.0187 H   0  0  0  0  0  0  0  0  0  0  0  0  # atno 8009 bound_to 7997
  155.1140  140.3218  155.4517 H   0  0  0  0  0  0  0  0  0  0  0  0  # atno 8010 bound_to 7997
  139.4860  144.5595  151.7257 H   0  0  0  0  0  0  0  0  0  0  0  0  # atno 10167 bound_to 10162
  156.1736  130.6684  151.0213 H   0  0  0  0  0  0  0  0  0  0  0  0  # atno 10718 bound_to 10713
  153.2275  135.4334  155.0558 H   0  0  0  0  0  0  0  0  0  0  0  0  # atno 10763 bound_to 10752
  154.8280  135.3371  154.6837 H   0  0  0  0  0  0  0  0  0  0  0  0  # atno 10764 bound_to 10752
  153.7265  135.7013  153.5056 H   0  0  0  0  0  0  0  0  0  0  0  0  # atno 10765 bound_to 10752
  141.1607  133.7548  156.9398 H   0  0  0  0  0  0  0  0  0  0  0  0  # atno 11005 bound_to 11000
  146.3037  140.3916  142.8695 LP  0  0  0  0  0  0  0  0  0  0  0  0  # atno 17320 bound_to 7965
  144.8847  140.7446  143.5964 LP  0  0  0  0  0  0  0  0  0  0  0  0  # atno 17321 bound_to 7965
  140.5162  144.0949  150.6009 LP  0  0  0  0  0  0  0  0  0  0  0  0  # atno 17342 bound_to 10162
  140.3892  143.2761  152.0080 LP  0  0  0  0  0  0  0  0  0  0  0  0  # atno 17343 bound_to 10162
  157.6820  131.0835  150.7344 LP  0  0  0  0  0  0  0  0  0  0  0  0  # atno 17370 bound_to 10713
  156.7402  130.4737  149.5479 LP  0  0  0  0  0  0  0  0  0  0  0  0  # atno 17371 bound_to 10713
  140.1329  134.9344  157.2362 LP  0  0  0  0  0  0  0  0  0  0  0  0  # atno 17394 bound_to 11000
  140.2931  134.3218  155.7310 LP  0  0  0  0  0  0  0  0  0  0  0  0  # atno 17395 bound_to 11000

$$$$
