AV-unprocessed.smi:1592|AV-procd|sdf|6405|dock1
  -GOLD-   22720 7 43D 1   1.00000     0.00000
 Structure written by MMmdl.
 26 27  0  0  0  0  0  0  0  0  2 V2000
  149.0743  141.9862  157.2761 O   0  0  0  0  0  0  0  0  0  0  0  0
  150.0503  141.3994  156.7997 C   0  0  0  0  0  0  0  0  0  0  0  0
  151.1877  140.9144  157.4405 N   0  0  0  0  0  0  0  0  0  0  0  0
  151.7818  141.5325  158.4250 C   0  0  0  0  0  0  0  0  0  0  0  0
  151.3422  142.7640  158.9415 N   0  0  0  0  0  0  0  0  0  0  0  0
  151.9788  143.4163  159.9760 C   0  0  0  0  0  0  0  0  0  0  0  0
  153.0648  142.9064  160.5589 C   0  0  0  0  0  0  0  0  0  0  0  0
  153.5808  141.6375  160.0884 C   0  0  0  0  0  0  0  0  0  0  0  0
  152.9783  140.9310  159.0408 C   0  0  0  0  0  0  0  0  0  0  0  0
  153.4606  139.8374  158.6647 O   0  5  0  0  0  0  0  0  0  0  0  0
  150.0901  141.1115  155.2889 C   0  0  2  0  0  0  0  0  0  0  0  0
  148.8628  140.3204  154.7931 C   0  0  0  0  0  0  0  0  0  0  0  0
  149.4498  139.0672  154.1673 C   0  0  0  0  0  0  0  0  0  0  0  0
  150.7951  138.9420  154.8659 C   0  0  0  0  0  0  0  0  0  0  0  0
  151.2182  140.2926  154.9741 O   0  0  0  0  0  0  0  0  0  0  0  0
  151.5307  144.3555  160.2647 H   0  0  0  0  0  0  0  0  0  0  0  0
  153.5520  143.4309  161.3674 H   0  0  0  0  0  0  0  0  0  0  0  0
  154.4606  141.2340  160.5687 H   0  0  0  0  0  0  0  0  0  0  0  0
  150.5282  143.2216  158.5589 H   0  0  0  0  0  0  0  0  0  0  0  0
  150.1913  142.0536  154.7482 H   0  0  0  0  0  0  0  0  0  0  0  0
  148.1973  140.0469  155.6138 H   0  0  0  0  0  0  0  0  0  0  0  0
  148.2737  140.8890  154.0731 H   0  0  0  0  0  0  0  0  0  0  0  0
  148.8188  138.1878  154.2981 H   0  0  0  0  0  0  0  0  0  0  0  0
  149.6017  139.2225  153.0986 H   0  0  0  0  0  0  0  0  0  0  0  0
  150.6816  138.5069  155.8600 H   0  0  0  0  0  0  0  0  0  0  0  0
  151.5089  138.3394  154.3039 H   0  0  0  0  0  0  0  0  0  0  0  0
  1  2  2  0  0  0  0
  2  3  1  0  0  0  0
  2 11  1  0  0  0  0
  3  4  2  0  0  0  0
  4  9  1  0  0  0  0
  4  5  1  0  0  0  0
  5 19  1  0  0  0  0
  5  6  1  0  0  0  0
  6 16  1  0  0  0  0
  6  7  2  0  0  0  0
  7 17  1  0  0  0  0
  7  8  1  0  0  0  0
  8  9  2  0  0  0  0
  8 18  1  0  0  0  0
  9 10  1  0  0  0  0
 11 15  1  0  0  0  0
 11 12  1  0  0  0  0
 11 20  1  0  0  0  0
 12 13  1  0  0  0  0
 12 21  1  0  0  0  0
 12 22  1  0  0  0  0
 13 14  1  0  0  0  0
 13 23  1  0  0  0  0
 13 24  1  0  0  0  0
 14 15  1  0  0  0  0
 14 25  1  0  0  0  0
 14 26  1  0  0  0  0
M  CHG  1  10  -1
M  END
> <s_m_source_file>
AV-unprocessed.smi

> <i_m_source_file_index>
1592

> <i_lp_mmshare_version>
43012

> <i_f3d_flags>
0

> <s_epik_input>
TzFbQ0gyXVtDSDJdW0NIMl1bQ0BIXTFDKD1PKVtOSF1jMm5bY0hdW2NIXVtjSF1jMltPSF0=

> <s_epik_cmdline>
J2VwaWtfcHl0aG9uJywgJy1waCcsICc3LjAnLCAnLXRuJywgJzgnLCAnLW1hJywgJzIwMCcsICctbWV0YWxfYmluZGluZycsICctaW1hZScsICc8aW5maWxlLm1hZT4nLCAnLW9tYWUnLCAnPG91dGZpbGUubWFlPic=

> <r_epik_Ionization_Penalty>
0.780127

> <r_epik_Ionization_Penalty_Charging>
0.780127

> <r_epik_Ionization_Penalty_Neutral>
6.55423e-13

> <r_epik_State_Penalty>
1.4426

> <r_epik_Charging_Adjusted_Penalty>
2.22273

> <i_epik_Tot_Q>
-1

> <i_epik_Tot_abs_Q>
1

> <r_epik_Metal_State_Penalty>
1.40439

> <b_epik_Metal_Only>
0

> <s_lp_Force_Field>
OPLS_2005

> <r_lp_Energy>
49.557

> <b_lp_Chiralities_Consistent>
1

> <s_lp_Variant>
AV-unprocessed.smi:1592-5

> <Gold.Version>
5.8.1

> <Gold.Id.Protein>
6NUR|6NUR_protein|mol2

> <Gold.PLP.Fitness>
37.7685

> <Gold.PLP.PLP>
-29.4432

> <Gold.PLP.part.hbond>
-2.0000

> <Gold.PLP.part.metal>
0.0000

> <Gold.PLP.part.buried>
-2.9530

> <Gold.PLP.part.nonpolar>
-24.4165

> <Gold.PLP.part.repulsive>
0.2650

> <Gold.PLP.ligand.clash>
0.0000

> <Gold.PLP.ligand.torsion>
0.3409

> <Gold.PLP.Chemscore.Hbond>
3.0000

> <Gold.PLP.Chemscore.CHOScore>
0.0000

> <Gold.PLP.Chemscore.Metal>
0.0000

> <Gold.Chemscore.Hbonds>
donor molecule, donor type, donor heavy atom, donor atom, acceptor molecule, acceptor atom, score
      P1  H  7989  7998       L1    15  1.00
      P1  H  7997  8008       L1    10  2.00

> <Gold.PLP.Chemscore.Internal.Correction>
0.0072

> <Gold.Rescore>
     Score         DG    S(hbond)    S(metal)    S(lipo)     H(rot)  DE(clash)    DE(int)     intcor
     16.15     -16.41       1.72        0.00      66.16       1.00       0.01       0.25       ----

> <Gold.Chemscore.Fitness>
16.1485

> <Gold.Chemscore.DG>
-16.4107

> <Gold.Chemscore.ZeroCoef>
-5.4800

> <Gold.Chemscore.Hbond>
1.7215

> <Gold.Chemscore.Metal>
0.0000

> <Gold.Chemscore.Lipo>
66.1618

> <Gold.Chemscore.Internal_Hbond>
0.0000

> <Gold.Chemscore.DEClash>
0.0106

> <Gold.Chemscore.DEInternal>
0.2516

> <Gold.Chemscore.Rot>
1.0000

> <Gold.Chemscore.Internal.Correction>
   9.000000E+99

> <Gold.Chemscore.Hbonds>
donor molecule, donor type, donor heavy atom, donor atom, acceptor molecule, acceptor atom, score
      P1  H  7989  7998       L1    15  0.23
      P1  H  7997  8008       L1    10  0.77

> <Gold.Chemscore.Hbond.Weighted>
-5.7498

> <Gold.Chemscore.Metal.Weighted>
-0.0000

> <Gold.Chemscore.Lipo.Weighted>
-7.7409

> <Gold.Chemscore.Internal_Hbond.Weighted>
0.0000

> <Gold.Chemscore.DEClash.Weighted>
0.0106

> <Gold.Chemscore.DEInternal.Weighted>
0.2516

> <Gold.Chemscore.Rot.Weighted>
2.5600

> <Gold.Chemscore.Internal.Correction.Weighted>
   9.000000E+99

> <Gold.Protein.RotatedTorsions>
[ 6907 6896 6895 6894 ] final   16.30 input  -60.11 | X-H torsion
[ 7974 7965 7964 7962 ] final   55.47 input  175.53 | X-H torsion
[ 8008 7997 7996 7995 ] final -107.94 input   59.86 | X-H torsion
[ 10167 10162 10161 10158 ] final  108.46 input  -65.29 | X-H torsion
[ 10718 10713 10712 10709 ] final   71.43 input   66.30 | X-H torsion
[ 10763 10752 10751 10750 ] final   69.31 input  -60.55 | X-H torsion
[ 11005 11000 10999 10996 ] final  -37.12 input  -57.11 | X-H torsion

> <Gold.Protein.ActiveResidues>
 VAL166  LYS551  ARG553  GLY616  TRP617  ASP618  TYR619  PRO620  LYS621  CYS622 
 ASP623  PHE694  ASN695  SER759  ASP760  ASP761  ALA762  ILE779  LEU786  VAL792 
 PHE793  MET794  SER795  GLU796  ALA797  LYS798  CYS799  TRP800  GLU811  SER814 

> <Gold.Protein.RotatedAtoms>
  151.8318  135.0619  160.0437 H   0  0  0  0  0  0  0  0  0  0  0  0  # atno 6907 bound_to 6896
  152.2875  133.5524  159.5544 H   0  0  0  0  0  0  0  0  0  0  0  0  # atno 6908 bound_to 6896
  150.7215  134.0393  159.3802 H   0  0  0  0  0  0  0  0  0  0  0  0  # atno 6909 bound_to 6896
  145.9500  139.3964  143.0312 H   0  0  0  0  0  0  0  0  0  0  0  0  # atno 7974 bound_to 7965
  154.9368  140.0403  157.2076 H   0  0  0  0  0  0  0  0  0  0  0  0  # atno 8008 bound_to 7997
  154.8107  140.2867  155.5833 H   0  0  0  0  0  0  0  0  0  0  0  0  # atno 8009 bound_to 7997
  156.2971  140.2537  156.2995 H   0  0  0  0  0  0  0  0  0  0  0  0  # atno 8010 bound_to 7997
  139.6845  144.7115  151.1457 H   0  0  0  0  0  0  0  0  0  0  0  0  # atno 10167 bound_to 10162
  157.6451  130.9528  150.0789 H   0  0  0  0  0  0  0  0  0  0  0  0  # atno 10718 bound_to 10713
  153.0280  135.5215  154.7268 H   0  0  0  0  0  0  0  0  0  0  0  0  # atno 10763 bound_to 10752
  154.6308  135.2900  155.0221 H   0  0  0  0  0  0  0  0  0  0  0  0  # atno 10764 bound_to 10752
  154.1174  135.6613  153.4949 H   0  0  0  0  0  0  0  0  0  0  0  0  # atno 10765 bound_to 10752
  140.9928  133.6996  156.1880 H   0  0  0  0  0  0  0  0  0  0  0  0  # atno 11005 bound_to 11000
  145.8184  140.9691  143.0912 LP  0  0  0  0  0  0  0  0  0  0  0  0  # atno 17320 bound_to 7965
  144.6794  140.0010  143.7484 LP  0  0  0  0  0  0  0  0  0  0  0  0  # atno 17321 bound_to 7965
  140.7663  143.5650  150.9057 LP  0  0  0  0  0  0  0  0  0  0  0  0  # atno 17342 bound_to 10162
  139.9324  143.6477  152.3073 LP  0  0  0  0  0  0  0  0  0  0  0  0  # atno 17343 bound_to 10162
  156.1771  130.3648  149.9086 LP  0  0  0  0  0  0  0  0  0  0  0  0  # atno 17370 bound_to 10713
  156.7047  130.8947  151.3603 LP  0  0  0  0  0  0  0  0  0  0  0  0  # atno 17371 bound_to 10713
  140.7014  134.4560  157.5586 LP  0  0  0  0  0  0  0  0  0  0  0  0  # atno 17394 bound_to 11000
  139.9000  134.8578  156.1936 LP  0  0  0  0  0  0  0  0  0  0  0  0  # atno 17395 bound_to 11000

$$$$
