AV-unprocessed.smi:1423|AV-procd|sdf|5794|dock8
  -GOLD-   22720 5443D 1   1.00000     0.00000
 Structure written by MMmdl.
 43 44  0  0  0  0  0  0  0  0  1 V2000
  154.8007  142.7653  164.8574 C   0  0  0  0  0  0  0  0  0  0  0  0
  153.7023  143.2217  164.0752 O   0  0  0  0  0  0  0  0  0  0  0  0
  153.5068  142.6599  162.8302 C   0  0  0  0  0  0  0  0  0  0  0  0
  152.4863  143.1775  162.0084 C   0  0  0  0  0  0  0  0  0  0  0  0
  152.2803  142.6104  160.7358 C   0  0  0  0  0  0  0  0  0  0  0  0
  153.1084  141.5388  160.3214 C   0  0  0  0  0  0  0  0  0  0  0  0
  153.0206  140.8724  159.0672 N   0  0  0  0  0  0  0  0  0  0  0  0
  151.9496  140.6509  158.2853 C   0  0  0  0  0  0  0  0  0  0  0  0
  150.7890  140.9607  158.5511 O   0  0  0  0  0  0  0  0  0  0  0  0
  152.3056  140.0343  157.1493 N   0  0  0  0  0  0  0  0  0  0  0  0
  151.3952  139.6648  156.0699 C   0  0  0  0  0  0  0  0  0  0  0  0
  150.4595  140.8306  155.7134 C   0  0  0  0  0  0  0  0  0  0  0  0
  149.4174  140.4000  154.6665 C   0  0  0  0  0  0  0  0  0  0  0  0
  148.6270  139.2637  155.1527 N   0  0  0  0  0  0  0  0  0  0  0  0
  147.5628  138.9584  154.1688 C   0  0  0  0  0  0  0  0  0  0  0  0
  146.6926  137.7454  154.5219 C   0  0  0  0  0  0  0  0  0  0  0  0
  146.8498  136.6460  153.7806 N   0  0  0  0  0  0  0  0  0  0  0  0
  145.8926  137.8001  155.4534 O   0  0  0  0  0  0  0  0  0  0  0  0
  149.5002  138.1103  155.4165 C   0  0  0  0  0  0  0  0  0  0  0  0
  150.5457  138.4581  156.4910 C   0  0  0  0  0  0  0  0  0  0  0  0
  154.0989  141.0941  161.2218 C   0  0  0  0  0  0  0  0  0  0  0  0
  154.3008  141.6320  162.4426 N   0  0  0  0  0  0  0  0  0  0  0  0
  154.8176  143.3033  165.8050 H   0  0  0  0  0  0  0  0  0  0  0  0
  155.7523  142.9491  164.3566 H   0  0  0  0  0  0  0  0  0  0  0  0
  154.7141  141.7013  165.0824 H   0  0  0  0  0  0  0  0  0  0  0  0
  151.8700  143.9965  162.3489 H   0  0  0  0  0  0  0  0  0  0  0  0
  151.4944  143.0134  160.1182 H   0  0  0  0  0  0  0  0  0  0  0  0
  153.9019  140.5450  158.6992 H   0  0  0  0  0  0  0  0  0  0  0  0
  153.2812  139.8130  157.0143 H   0  0  0  0  0  0  0  0  0  0  0  0
  151.9734  139.3861  155.1867 H   0  0  0  0  0  0  0  0  0  0  0  0
  149.9486  141.1884  156.6088 H   0  0  0  0  0  0  0  0  0  0  0  0
  151.0370  141.6727  155.3299 H   0  0  0  0  0  0  0  0  0  0  0  0
  148.7596  141.2447  154.4584 H   0  0  0  0  0  0  0  0  0  0  0  0
  149.9117  140.1446  153.7273 H   0  0  0  0  0  0  0  0  0  0  0  0
  146.8920  139.8147  154.0855 H   0  0  0  0  0  0  0  0  0  0  0  0
  148.0070  138.8173  153.1813 H   0  0  0  0  0  0  0  0  0  0  0  0
  146.3004  135.8221  153.9761 H   0  0  0  0  0  0  0  0  0  0  0  0
  147.5210  136.6431  153.0261 H   0  0  0  0  0  0  0  0  0  0  0  0
  148.9229  137.2577  155.7738 H   0  0  0  0  0  0  0  0  0  0  0  0
  149.9938  137.7939  154.4958 H   0  0  0  0  0  0  0  0  0  0  0  0
  151.1880  137.5954  156.6721 H   0  0  0  0  0  0  0  0  0  0  0  0
  150.0375  138.6683  157.4338 H   0  0  0  0  0  0  0  0  0  0  0  0
  154.7556  140.2790  160.9540 H   0  0  0  0  0  0  0  0  0  0  0  0
  1  2  1  0  0  0  0
  1 23  1  0  0  0  0
  1 24  1  0  0  0  0
  1 25  1  0  0  0  0
  2  3  1  0  0  0  0
  3 22  1  0  0  0  0
  3  4  2  0  0  0  0
  4  5  1  0  0  0  0
  4 26  1  0  0  0  0
  5  6  2  0  0  0  0
  5 27  1  0  0  0  0
  6  7  1  0  0  0  0
  6 21  1  0  0  0  0
  7  8  1  0  0  0  0
  7 28  1  0  0  0  0
  8  9  2  0  0  0  0
  8 10  1  0  0  0  0
 10 11  1  0  0  0  0
 10 29  1  0  0  0  0
 11 20  1  0  0  0  0
 11 12  1  0  0  0  0
 11 30  1  0  0  0  0
 12 13  1  0  0  0  0
 12 31  1  0  0  0  0
 12 32  1  0  0  0  0
 13 14  1  0  0  0  0
 13 33  1  0  0  0  0
 13 34  1  0  0  0  0
 14 15  1  0  0  0  0
 14 19  1  0  0  0  0
 15 16  1  0  0  0  0
 15 35  1  0  0  0  0
 15 36  1  0  0  0  0
 16 17  1  0  0  0  0
 16 18  2  0  0  0  0
 17 37  1  0  0  0  0
 17 38  1  0  0  0  0
 19 20  1  0  0  0  0
 19 39  1  0  0  0  0
 19 40  1  0  0  0  0
 20 41  1  0  0  0  0
 20 42  1  0  0  0  0
 21 22  2  0  0  0  0
 21 43  1  0  0  0  0
M  END
> <s_m_source_file>
AV-unprocessed.smi

> <i_m_source_file_index>
1423

> <i_lp_mmshare_version>
43012

> <i_f3d_flags>
0

> <s_epik_input>
W0NIM11PYzFbY0hdW2NIXWMoW2NIXW4xKVtOSF1DKD1PKVtOSF1bQ0hdMltDSDJdW0NIMl1OKFtDSDJdW0NIMl0yKVtDSDJdQyg9TylbTkgyXQ==

> <s_epik_cmdline>
J2VwaWtfcHl0aG9uJywgJy1waCcsICc3LjAnLCAnLXRuJywgJzgnLCAnLW1hJywgJzIwMCcsICctbWV0YWxfYmluZGluZycsICctaW1hZScsICc8aW5maWxlLm1hZT4nLCAnLW9tYWUnLCAnPG91dGZpbGUubWFlPic=

> <r_lp_tautomer_probability>
1

> <r_epik_Ionization_Penalty>
0.16483

> <r_epik_Ionization_Penalty_Charging>
0

> <r_epik_Ionization_Penalty_Neutral>
0.16483

> <r_epik_State_Penalty>
0.154069

> <r_epik_Charging_Adjusted_Penalty>
0.154069

> <i_epik_Tot_Q>
0

> <i_epik_Tot_abs_Q>
0

> <r_epik_Metal_State_Penalty>
0.171364

> <b_epik_Metal_Only>
0

> <s_lp_Force_Field>
OPLS_2005

> <r_lp_Energy>
14.563

> <b_lp_Chiralities_Consistent>
1

> <s_lp_Variant>
AV-unprocessed.smi:1423-1

> <Gold.Version>
5.8.1

> <Gold.Id.Protein>
6NUR|6NUR_protein|mol2

> <Gold.PLP.Fitness>
41.6818

> <Gold.PLP.PLP>
-39.6646

> <Gold.PLP.part.hbond>
-2.2686

> <Gold.PLP.part.metal>
0.0000

> <Gold.PLP.part.buried>
-4.5737

> <Gold.PLP.part.nonpolar>
-32.5101

> <Gold.PLP.part.repulsive>
1.1551

> <Gold.PLP.ligand.clash>
0.0000

> <Gold.PLP.ligand.torsion>
0.4953

> <Gold.PLP.Chemscore.Hbond>
1.0000

> <Gold.PLP.Chemscore.CHOScore>
0.0000

> <Gold.PLP.Chemscore.Metal>
0.0000

> <Gold.Chemscore.Hbonds>
donor molecule, donor type, donor heavy atom, donor atom, acceptor molecule, acceptor atom, score
      L1  H    17    38       P1  7948  1.00

> <Gold.PLP.Chemscore.Internal.Correction>
0.0079

> <Gold.Rescore>
     Score         DG    S(hbond)    S(metal)    S(lipo)     H(rot)  DE(clash)    DE(int)     intcor
     10.34     -12.86       1.00        0.00      84.77       2.29       0.79       1.73       ----

> <Gold.Chemscore.Fitness>
10.3354

> <Gold.Chemscore.DG>
-12.8624

> <Gold.Chemscore.ZeroCoef>
-5.4800

> <Gold.Chemscore.Hbond>
0.9999

> <Gold.Chemscore.Metal>
0.0000

> <Gold.Chemscore.Lipo>
84.7682

> <Gold.Chemscore.Internal_Hbond>
0.0000

> <Gold.Chemscore.DEClash>
0.7943

> <Gold.Chemscore.DEInternal>
1.7328

> <Gold.Chemscore.Rot>
2.2949

> <Gold.Chemscore.Internal.Correction>
   9.000000E+99

> <Gold.Chemscore.Hbonds>
donor molecule, donor type, donor heavy atom, donor atom, acceptor molecule, acceptor atom, score
      L1  H    17    38       P1  7948  1.00

> <Gold.Chemscore.Hbond.Weighted>
-3.3396

> <Gold.Chemscore.Metal.Weighted>
-0.0000

> <Gold.Chemscore.Lipo.Weighted>
-9.9179

> <Gold.Chemscore.Internal_Hbond.Weighted>
0.0000

> <Gold.Chemscore.DEClash.Weighted>
0.7943

> <Gold.Chemscore.DEInternal.Weighted>
1.7328

> <Gold.Chemscore.Rot.Weighted>
5.8750

> <Gold.Chemscore.Internal.Correction.Weighted>
   9.000000E+99

> <Gold.Protein.RotatedTorsions>
[ 6907 6896 6895 6894 ] final   38.54 input  -60.11 | X-H torsion
[ 7974 7965 7964 7962 ] final  175.95 input  175.53 | X-H torsion
[ 8008 7997 7996 7995 ] final -169.66 input   59.86 | X-H torsion
[ 10167 10162 10161 10158 ] final   62.15 input  -65.29 | X-H torsion
[ 10718 10713 10712 10709 ] final   71.40 input   66.30 | X-H torsion
[ 10763 10752 10751 10750 ] final   26.74 input  -60.55 | X-H torsion
[ 11005 11000 10999 10996 ] final  129.98 input  -57.11 | X-H torsion

> <Gold.Protein.ActiveResidues>
 VAL166  LYS551  ARG553  GLY616  TRP617  ASP618  TYR619  PRO620  LYS621  CYS622 
 ASP623  PHE694  ASN695  SER759  ASP760  ASP761  ALA762  ILE779  LEU786  VAL792 
 PHE793  MET794  SER795  GLU796  ALA797  LYS798  CYS799  TRP800  GLU811  SER814 

> <Gold.Protein.RotatedAtoms>
  152.1578  134.8936  160.0543 H   0  0  0  0  0  0  0  0  0  0  0  0  # atno 6907 bound_to 6896
  151.9943  133.3797  159.4165 H   0  0  0  0  0  0  0  0  0  0  0  0  # atno 6908 bound_to 6896
  150.6884  134.3825  159.5084 H   0  0  0  0  0  0  0  0  0  0  0  0  # atno 6909 bound_to 6896
  144.7192  140.0023  143.6440 H   0  0  0  0  0  0  0  0  0  0  0  0  # atno 7974 bound_to 7965
  155.9079  140.1052  157.1301 H   0  0  0  0  0  0  0  0  0  0  0  0  # atno 8008 bound_to 7997
  154.4035  140.1280  156.4584 H   0  0  0  0  0  0  0  0  0  0  0  0  # atno 8009 bound_to 7997
  155.7345  140.3468  155.5077 H   0  0  0  0  0  0  0  0  0  0  0  0  # atno 8010 bound_to 7997
  140.1470  144.4499  150.6779 H   0  0  0  0  0  0  0  0  0  0  0  0  # atno 10167 bound_to 10162
  157.6450  130.9526  150.0784 H   0  0  0  0  0  0  0  0  0  0  0  0  # atno 10718 bound_to 10713
  153.0602  135.6553  154.0482 H   0  0  0  0  0  0  0  0  0  0  0  0  # atno 10763 bound_to 10752
  154.0151  135.2925  155.3389 H   0  0  0  0  0  0  0  0  0  0  0  0  # atno 10764 bound_to 10752
  154.6936  135.5273  153.8495 H   0  0  0  0  0  0  0  0  0  0  0  0  # atno 10765 bound_to 10752
  139.9646  134.9594  156.9227 H   0  0  0  0  0  0  0  0  0  0  0  0  # atno 11005 bound_to 11000
  146.0325  139.3348  143.0746 LP  0  0  0  0  0  0  0  0  0  0  0  0  # atno 17320 bound_to 7965
  145.8435  140.9568  143.0787 LP  0  0  0  0  0  0  0  0  0  0  0  0  # atno 17321 bound_to 7965
  140.6725  143.2291  151.5589 LP  0  0  0  0  0  0  0  0  0  0  0  0  # atno 17342 bound_to 10162
  139.5444  144.2561  152.1413 LP  0  0  0  0  0  0  0  0  0  0  0  0  # atno 17343 bound_to 10162
  156.1768  130.3648  149.9090 LP  0  0  0  0  0  0  0  0  0  0  0  0  # atno 17370 bound_to 10713
  156.7052  130.8948  151.3603 LP  0  0  0  0  0  0  0  0  0  0  0  0  # atno 17371 bound_to 10713
  140.5425  134.0706  155.7345 LP  0  0  0  0  0  0  0  0  0  0  0  0  # atno 17394 bound_to 11000
  141.1325  133.9278  157.2505 LP  0  0  0  0  0  0  0  0  0  0  0  0  # atno 17395 bound_to 11000

$$$$
