AV-unprocessed.smi:1966|AV-procd|sdf|7951|dock9
  -GOLD-   2272010123D 1   1.00000     0.00000
 Structure written by MMmdl.
 53 54  0  0  0  0  0  0  0  0  1 V2000
  147.1642  133.5057  152.3339 C   0  0  0  0  0  0  0  0  0  0  0  0
  146.4633  134.4889  153.2647 C   0  0  0  0  0  0  0  0  0  0  0  0
  145.4885  134.1294  153.9245 O   0  0  0  0  0  0  0  0  0  0  0  0
  146.9716  135.7307  153.3066 N   0  0  0  0  0  0  0  0  0  0  0  0
  146.4681  136.8289  154.1354 C   0  0  1  0  0  0  0  0  0  0  0  0
  147.6524  137.4767  154.8811 C   0  0  0  0  0  0  0  0  0  0  0  0
  148.6559  136.8096  155.1351 O   0  0  0  0  0  0  0  0  0  0  0  0
  147.4914  138.7734  155.2052 N   0  0  0  0  0  0  0  0  0  0  0  0
  148.3849  139.6525  155.8763 C   0  0  0  0  0  0  0  0  0  0  0  0
  148.5570  141.0219  155.5663 C   0  0  0  0  0  0  0  0  0  0  0  0
  149.4684  141.7838  156.3230 C   0  0  0  0  0  0  0  0  0  0  0  0
  150.1811  141.1668  157.3779 C   0  0  0  0  0  0  0  0  0  0  0  0
  151.1005  141.9132  158.1471 N   0  0  0  0  0  0  0  0  0  0  0  0
  151.8954  141.2061  159.1474 C   0  0  0  0  0  0  0  0  0  0  0  0
  153.0657  142.0854  159.6223 C   0  0  2  0  0  0  0  0  0  0  0  0
  153.8442  141.4300  160.7679 C   0  0  0  0  0  0  0  0  0  0  0  0
  152.5655  143.3383  160.0878 O   0  0  0  0  0  0  0  0  0  0  0  0
  151.8056  144.0742  159.1264 C   0  0  1  0  0  0  0  0  0  0  0  0
  152.6880  144.6537  158.0064 C   0  0  0  0  0  0  0  0  0  0  0  0
  150.6339  143.2196  158.6034 C   0  0  0  0  0  0  0  0  0  0  0  0
  150.0086  139.8558  157.6757 N   0  0  0  0  0  0  0  0  0  0  0  0
  149.1348  139.1295  156.9483 C   0  0  0  0  0  0  0  0  0  0  0  0
  145.7787  137.8793  153.2148 C   0  0  0  0  0  0  0  0  0  0  0  0
  144.5902  137.2997  152.4195 C   0  0  0  0  0  0  0  0  0  0  0  0
  146.7750  138.5225  152.2297 C   0  0  0  0  0  0  0  0  0  0  0  0
  148.2206  133.4232  152.5914 H   0  0  0  0  0  0  0  0  0  0  0  0
  147.0852  133.8397  151.2991 H   0  0  0  0  0  0  0  0  0  0  0  0
  146.7167  132.5140  152.4087 H   0  0  0  0  0  0  0  0  0  0  0  0
  147.7790  135.9300  152.7342 H   0  0  0  0  0  0  0  0  0  0  0  0
  145.7404  136.4425  154.8524 H   0  0  0  0  0  0  0  0  0  0  0  0
  146.5903  139.1694  154.9798 H   0  0  0  0  0  0  0  0  0  0  0  0
  148.0095  141.5094  154.7757 H   0  0  0  0  0  0  0  0  0  0  0  0
  149.6171  142.8247  156.0775 H   0  0  0  0  0  0  0  0  0  0  0  0
  151.2557  140.9406  159.9904 H   0  0  0  0  0  0  0  0  0  0  0  0
  152.2889  140.2779  158.7309 H   0  0  0  0  0  0  0  0  0  0  0  0
  153.7578  142.2503  158.7964 H   0  0  0  0  0  0  0  0  0  0  0  0
  154.2559  140.4678  160.4626 H   0  0  0  0  0  0  0  0  0  0  0  0
  153.2040  141.2607  161.6342 H   0  0  0  0  0  0  0  0  0  0  0  0
  154.6745  142.0612  161.0855 H   0  0  0  0  0  0  0  0  0  0  0  0
  151.3811  144.9236  159.6624 H   0  0  0  0  0  0  0  0  0  0  0  0
  152.1079  145.3142  157.3616 H   0  0  0  0  0  0  0  0  0  0  0  0
  153.1144  143.8776  157.3713 H   0  0  0  0  0  0  0  0  0  0  0  0
  153.5099  145.2371  158.4215 H   0  0  0  0  0  0  0  0  0  0  0  0
  150.1101  143.7661  157.8204 H   0  0  0  0  0  0  0  0  0  0  0  0
  149.9128  143.0600  159.4060 H   0  0  0  0  0  0  0  0  0  0  0  0
  149.0345  138.0923  157.2326 H   0  0  0  0  0  0  0  0  0  0  0  0
  145.3862  138.6830  153.8406 H   0  0  0  0  0  0  0  0  0  0  0  0
  144.9009  136.4510  151.8093 H   0  0  0  0  0  0  0  0  0  0  0  0
  144.1637  138.0481  151.7510 H   0  0  0  0  0  0  0  0  0  0  0  0
  143.7824  136.9655  153.0705 H   0  0  0  0  0  0  0  0  0  0  0  0
  147.2392  137.7700  151.5915 H   0  0  0  0  0  0  0  0  0  0  0  0
  147.5714  139.0596  152.7450 H   0  0  0  0  0  0  0  0  0  0  0  0
  146.2762  139.2437  151.5816 H   0  0  0  0  0  0  0  0  0  0  0  0
  1  2  1  0  0  0  0
  1 26  1  0  0  0  0
  1 27  1  0  0  0  0
  1 28  1  0  0  0  0
  2  3  2  0  0  0  0
  2  4  1  0  0  0  0
  4  5  1  0  0  0  0
  4 29  1  0  0  0  0
  5  6  1  0  0  0  0
  5 23  1  0  0  0  0
  5 30  1  0  0  0  0
  6  7  2  0  0  0  0
  6  8  1  0  0  0  0
  8  9  1  0  0  0  0
  8 31  1  0  0  0  0
  9 22  1  0  0  0  0
  9 10  2  0  0  0  0
 10 11  1  0  0  0  0
 10 32  1  0  0  0  0
 11 12  2  0  0  0  0
 11 33  1  0  0  0  0
 12 13  1  0  0  0  0
 12 21  1  0  0  0  0
 13 20  1  0  0  0  0
 13 14  1  0  0  0  0
 14 15  1  0  0  0  0
 14 34  1  0  0  0  0
 14 35  1  0  0  0  0
 15 16  1  0  0  0  0
 15 17  1  0  0  0  0
 15 36  1  0  0  0  0
 16 37  1  0  0  0  0
 16 38  1  0  0  0  0
 16 39  1  0  0  0  0
 17 18  1  0  0  0  0
 18 19  1  0  0  0  0
 18 20  1  0  0  0  0
 18 40  1  0  0  0  0
 19 41  1  0  0  0  0
 19 42  1  0  0  0  0
 19 43  1  0  0  0  0
 20 44  1  0  0  0  0
 20 45  1  0  0  0  0
 21 22  2  0  0  0  0
 22 46  1  0  0  0  0
 23 24  1  0  0  0  0
 23 25  1  0  0  0  0
 23 47  1  0  0  0  0
 24 48  1  0  0  0  0
 24 49  1  0  0  0  0
 24 50  1  0  0  0  0
 25 51  1  0  0  0  0
 25 52  1  0  0  0  0
 25 53  1  0  0  0  0
M  END
> <s_m_source_file>
AV-unprocessed.smi

> <i_m_source_file_index>
1966

> <i_lp_mmshare_version>
43012

> <i_f3d_flags>
0

> <s_epik_input>
W0NIM11DKD1PKVtOSF1bQ0BASF0oW0NIXShbQ0gzXSlbQ0gzXSlDKD1PKVtOSF1jMVtjSF1bY0hdYyhuW2NIXTEpTjJbQ0gyXVtDQEBIXShbQ0gzXSlPW0NAQEhdKFtDSDNdKVtDSDJdMg==

> <s_epik_cmdline>
J2VwaWtfcHl0aG9uJywgJy1waCcsICc3LjAnLCAnLXRuJywgJzgnLCAnLW1hJywgJzIwMCcsICctbWV0YWxfYmluZGluZycsICctaW1hZScsICc8aW5maWxlLm1hZT4nLCAnLW9tYWUnLCAnPG91dGZpbGUubWFlPic=

> <r_lp_tautomer_probability>
1

> <r_epik_Ionization_Penalty>
0.000679699

> <r_epik_Ionization_Penalty_Charging>
0

> <r_epik_Ionization_Penalty_Neutral>
0.000679699

> <r_epik_State_Penalty>
0.000430485

> <r_epik_Charging_Adjusted_Penalty>
0.000430485

> <i_epik_Tot_Q>
0

> <i_epik_Tot_abs_Q>
0

> <r_epik_Metal_State_Penalty>
-0

> <b_epik_Metal_Only>
0

> <s_lp_Force_Field>
OPLS_2005

> <r_lp_Energy>
28.9115

> <b_lp_Chiralities_Consistent>
1

> <s_lp_Variant>
AV-unprocessed.smi:1966-4

> <Gold.Version>
5.8.1

> <Gold.Id.Protein>
6NUR|6NUR_protein|mol2

> <Gold.PLP.Fitness>
36.8746

> <Gold.PLP.PLP>
-36.1648

> <Gold.PLP.part.hbond>
-1.0000

> <Gold.PLP.part.metal>
0.0000

> <Gold.PLP.part.buried>
-3.8403

> <Gold.PLP.part.nonpolar>
-31.7289

> <Gold.PLP.part.repulsive>
0.2326

> <Gold.PLP.ligand.clash>
0.0000

> <Gold.PLP.ligand.torsion>
1.3266

> <Gold.PLP.Chemscore.Hbond>
1.0000

> <Gold.PLP.Chemscore.CHOScore>
0.0000

> <Gold.PLP.Chemscore.Metal>
0.0000

> <Gold.Chemscore.Hbonds>
donor molecule, donor type, donor heavy atom, donor atom, acceptor molecule, acceptor atom, score
      L1  H     4    29       P1  7948  0.89

> <Gold.PLP.Chemscore.Internal.Correction>
0.3630

> <Gold.Rescore>
     Score         DG    S(hbond)    S(metal)    S(lipo)     H(rot)  DE(clash)    DE(int)     intcor
     14.00     -16.49       0.99        0.00     102.38       1.68       0.05       2.44       ----

> <Gold.Chemscore.Fitness>
14.0004

> <Gold.Chemscore.DG>
-16.4879

> <Gold.Chemscore.ZeroCoef>
-5.4800

> <Gold.Chemscore.Hbond>
0.9937

> <Gold.Chemscore.Metal>
0.0000

> <Gold.Chemscore.Lipo>
102.3845

> <Gold.Chemscore.Internal_Hbond>
0.0000

> <Gold.Chemscore.DEClash>
0.0507

> <Gold.Chemscore.DEInternal>
2.4368

> <Gold.Chemscore.Rot>
1.6759

> <Gold.Chemscore.Internal.Correction>
   9.000000E+99

> <Gold.Chemscore.Hbonds>
donor molecule, donor type, donor heavy atom, donor atom, acceptor molecule, acceptor atom, score
      L1  H     4    29       P1  7948  0.86

> <Gold.Chemscore.Hbond.Weighted>
-3.3191

> <Gold.Chemscore.Metal.Weighted>
-0.0000

> <Gold.Chemscore.Lipo.Weighted>
-11.9790

> <Gold.Chemscore.Internal_Hbond.Weighted>
0.0000

> <Gold.Chemscore.DEClash.Weighted>
0.0507

> <Gold.Chemscore.DEInternal.Weighted>
2.4368

> <Gold.Chemscore.Rot.Weighted>
4.2902

> <Gold.Chemscore.Internal.Correction.Weighted>
   9.000000E+99

> <Gold.Protein.RotatedTorsions>
[ 6907 6896 6895 6894 ] final  -16.14 input  -60.11 | X-H torsion
[ 7974 7965 7964 7962 ] final   16.56 input  175.53 | X-H torsion
[ 8008 7997 7996 7995 ] final   45.55 input   59.86 | X-H torsion
[ 10167 10162 10161 10158 ] final   95.73 input  -65.29 | X-H torsion
[ 10718 10713 10712 10709 ] final  -26.15 input   66.30 | X-H torsion
[ 10763 10752 10751 10750 ] final  -73.49 input  -60.55 | X-H torsion
[ 11005 11000 10999 10996 ] final  137.84 input  -57.11 | X-H torsion

> <Gold.Protein.ActiveResidues>
 VAL166  LYS551  ARG553  GLY616  TRP617  ASP618  TYR619  PRO620  LYS621  CYS622 
 ASP623  PHE694  ASN695  SER759  ASP760  ASP761  ALA762  ILE779  LEU786  VAL792 
 PHE793  MET794  SER795  GLU796  ALA797  LYS798  CYS799  TRP800  GLU811  SER814 

> <Gold.Protein.RotatedAtoms>
  151.3132  135.0799  159.9279 H   0  0  0  0  0  0  0  0  0  0  0  0  # atno 6907 bound_to 6896
  152.5273  133.9714  159.7774 H   0  0  0  0  0  0  0  0  0  0  0  0  # atno 6908 bound_to 6896
  151.0022  133.5993  159.2724 H   0  0  0  0  0  0  0  0  0  0  0  0  # atno 6909 bound_to 6896
  146.2245  139.8729  142.8584 H   0  0  0  0  0  0  0  0  0  0  0  0  # atno 7974 bound_to 7965
  155.3377  140.3406  155.4239 H   0  0  0  0  0  0  0  0  0  0  0  0  # atno 8008 bound_to 7997
  156.1829  140.1670  156.8276 H   0  0  0  0  0  0  0  0  0  0  0  0  # atno 8009 bound_to 7997
  154.5354  140.0736  156.8401 H   0  0  0  0  0  0  0  0  0  0  0  0  # atno 8010 bound_to 7997
  139.7961  144.6833  150.9827 H   0  0  0  0  0  0  0  0  0  0  0  0  # atno 10167 bound_to 10162
  156.4549  130.4492  149.6966 H   0  0  0  0  0  0  0  0  0  0  0  0  # atno 10718 bound_to 10713
  154.4602  135.5895  153.6251 H   0  0  0  0  0  0  0  0  0  0  0  0  # atno 10763 bound_to 10752
  152.9822  135.6042  154.3495 H   0  0  0  0  0  0  0  0  0  0  0  0  # atno 10764 bound_to 10752
  154.3366  135.2842  155.2423 H   0  0  0  0  0  0  0  0  0  0  0  0  # atno 10765 bound_to 10752
  140.0142  134.9426  157.0341 H   0  0  0  0  0  0  0  0  0  0  0  0  # atno 11005 bound_to 11000
  145.2590  141.0070  143.3837 LP  0  0  0  0  0  0  0  0  0  0  0  0  # atno 17320 bound_to 7965
  144.9314  139.4294  143.6493 LP  0  0  0  0  0  0  0  0  0  0  0  0  # atno 17321 bound_to 7965
  140.7820  143.4330  151.0666 LP  0  0  0  0  0  0  0  0  0  0  0  0  # atno 17342 bound_to 10162
  139.8004  143.8092  152.3162 LP  0  0  0  0  0  0  0  0  0  0  0  0  # atno 17343 bound_to 10162
  156.3777  130.7563  151.2553 LP  0  0  0  0  0  0  0  0  0  0  0  0  # atno 17370 bound_to 10713
  157.7501  131.0305  150.4138 LP  0  0  0  0  0  0  0  0  0  0  0  0  # atno 17371 bound_to 10713
  140.4501  134.1591  155.7181 LP  0  0  0  0  0  0  0  0  0  0  0  0  # atno 17394 bound_to 11000
  141.1731  133.8568  157.1507 LP  0  0  0  0  0  0  0  0  0  0  0  0  # atno 17395 bound_to 11000

$$$$
