AV-unprocessed.smi:842|AV-procd|sdf|3917|dock4
  -GOLD-   22720 1383D 1   1.00000     0.00000
 Structure written by MMmdl.
 42 43  0  0  0  0  0  0  0  0  1 V2000
  143.2682  135.9070  152.7180 C   0  0  0  0  0  0  0  0  0  0  0  0
  144.6539  136.4108  153.1483 C   0  0  0  0  0  0  0  0  0  0  0  0
  145.5145  136.9562  151.9850 C   0  0  2  0  0  0  0  0  0  0  0  0
  145.6387  135.9383  150.8300 C   0  0  0  0  0  0  0  0  0  0  0  0
  145.5609  136.6000  149.5847 O   0  0  0  0  0  0  0  0  0  0  0  0
  146.8292  137.4230  152.4393 N   0  0  0  0  0  0  0  0  0  0  0  0
  147.0951  138.3734  153.3498 C   0  0  0  0  0  0  0  0  0  0  0  0
  146.2304  139.0184  153.9419 O   0  0  0  0  0  0  0  0  0  0  0  0
  148.4206  138.5311  153.5032 N   0  0  0  0  0  0  0  0  0  0  0  0
  149.1135  139.4199  154.3683 C   0  0  0  0  0  0  0  0  0  0  0  0
  148.6904  140.7358  154.6682 C   0  0  0  0  0  0  0  0  0  0  0  0
  149.4578  141.5127  155.5572 C   0  0  0  0  0  0  0  0  0  0  0  0
  150.6234  140.9540  156.1331 C   0  0  0  0  0  0  0  0  0  0  0  0
  151.4238  141.7011  157.0197 N   0  0  0  0  0  0  0  0  0  0  0  0
  152.1789  141.0712  158.0915 C   0  0  0  0  0  0  0  0  0  0  0  0
  152.7935  142.2360  158.8654 C   0  0  0  0  0  0  0  0  0  0  0  0
  151.7475  143.3411  158.7165 C   0  0  0  0  0  0  0  0  0  0  0  0
  151.1351  143.0938  157.3328 C   0  0  0  0  0  0  0  0  0  0  0  0
  151.0215  139.6910  155.8502 N   0  0  0  0  0  0  0  0  0  0  0  0
  150.2820  138.9498  154.9993 C   0  0  0  0  0  0  0  0  0  0  0  0
  142.7311  135.4841  153.5672 H   0  0  0  0  0  0  0  0  0  0  0  0
  143.3507  135.1304  151.9573 H   0  0  0  0  0  0  0  0  0  0  0  0
  142.6557  136.7122  152.3118 H   0  0  0  0  0  0  0  0  0  0  0  0
  144.5375  137.1679  153.9244 H   0  0  0  0  0  0  0  0  0  0  0  0
  145.1854  135.5848  153.6221 H   0  0  0  0  0  0  0  0  0  0  0  0
  144.9947  137.8354  151.6011 H   0  0  0  0  0  0  0  0  0  0  0  0
  146.5552  135.3512  150.8850 H   0  0  0  0  0  0  0  0  0  0  0  0
  144.8118  135.2283  150.8666 H   0  0  0  0  0  0  0  0  0  0  0  0
  144.8542  137.2264  149.6223 H   0  0  0  0  0  0  0  0  0  0  0  0
  147.6218  136.9621  152.0170 H   0  0  0  0  0  0  0  0  0  0  0  0
  149.0051  137.9862  152.8866 H   0  0  0  0  0  0  0  0  0  0  0  0
  147.7923  141.1608  154.2481 H   0  0  0  0  0  0  0  0  0  0  0  0
  149.1447  142.5217  155.7802 H   0  0  0  0  0  0  0  0  0  0  0  0
  151.5009  140.5006  158.7279 H   0  0  0  0  0  0  0  0  0  0  0  0
  152.9432  140.3958  157.7055 H   0  0  0  0  0  0  0  0  0  0  0  0
  153.0100  141.9877  159.9047 H   0  0  0  0  0  0  0  0  0  0  0  0
  153.7255  142.5448  158.3898 H   0  0  0  0  0  0  0  0  0  0  0  0
  150.9806  143.2191  159.4826 H   0  0  0  0  0  0  0  0  0  0  0  0
  152.1678  144.3417  158.8207 H   0  0  0  0  0  0  0  0  0  0  0  0
  151.6065  143.7291  156.5823 H   0  0  0  0  0  0  0  0  0  0  0  0
  150.0649  143.3030  157.3374 H   0  0  0  0  0  0  0  0  0  0  0  0
  150.6414  137.9483  154.8128 H   0  0  0  0  0  0  0  0  0  0  0  0
  1  2  1  0  0  0  0
  1 21  1  0  0  0  0
  1 22  1  0  0  0  0
  1 23  1  0  0  0  0
  2  3  1  0  0  0  0
  2 24  1  0  0  0  0
  2 25  1  0  0  0  0
  3  4  1  0  0  0  0
  3  6  1  0  0  0  0
  3 26  1  0  0  0  0
  4  5  1  0  0  0  0
  4 27  1  0  0  0  0
  4 28  1  0  0  0  0
  5 29  1  0  0  0  0
  6  7  1  0  0  0  0
  6 30  1  0  0  0  0
  7  8  2  0  0  0  0
  7  9  1  0  0  0  0
  9 10  1  0  0  0  0
  9 31  1  0  0  0  0
 10 20  1  0  0  0  0
 10 11  2  0  0  0  0
 11 12  1  0  0  0  0
 11 32  1  0  0  0  0
 12 13  2  0  0  0  0
 12 33  1  0  0  0  0
 13 14  1  0  0  0  0
 13 19  1  0  0  0  0
 14 18  1  0  0  0  0
 14 15  1  0  0  0  0
 15 16  1  0  0  0  0
 15 34  1  0  0  0  0
 15 35  1  0  0  0  0
 16 17  1  0  0  0  0
 16 36  1  0  0  0  0
 16 37  1  0  0  0  0
 17 18  1  0  0  0  0
 17 38  1  0  0  0  0
 17 39  1  0  0  0  0
 18 40  1  0  0  0  0
 18 41  1  0  0  0  0
 19 20  2  0  0  0  0
 20 42  1  0  0  0  0
M  END
> <s_m_source_file>
AV-unprocessed.smi

> <i_m_source_file_index>
842

> <i_lp_mmshare_version>
43012

> <i_f3d_flags>
0

> <s_epik_input>
W0NIM11bQ0gyXVtDQEhdKFtDSDJdW09IXSlbTkhdQyg9TylbTkhdYzFbY0hdW2NIXWMobltjSF0xKU4yW0NIMl1bQ0gyXVtDSDJdW0NIMl0y

> <s_epik_cmdline>
J2VwaWtfcHl0aG9uJywgJy1waCcsICc3LjAnLCAnLXRuJywgJzgnLCAnLW1hJywgJzIwMCcsICctbWV0YWxfYmluZGluZycsICctaW1hZScsICc8aW5maWxlLm1hZT4nLCAnLW9tYWUnLCAnPG91dGZpbGUubWFlPic=

> <r_lp_tautomer_probability>
1

> <r_epik_Ionization_Penalty>
0.0996525

> <r_epik_Ionization_Penalty_Charging>
0

> <r_epik_Ionization_Penalty_Neutral>
0.0996525

> <r_epik_State_Penalty>
0.0891422

> <r_epik_Charging_Adjusted_Penalty>
0.0891422

> <i_epik_Tot_Q>
0

> <i_epik_Tot_abs_Q>
0

> <r_epik_Metal_State_Penalty>
0.07624

> <b_epik_Metal_Only>
0

> <s_lp_Force_Field>
OPLS_2005

> <r_lp_Energy>
30.3281

> <b_lp_Chiralities_Consistent>
1

> <s_lp_Variant>
AV-unprocessed.smi:842-1

> <Gold.Version>
5.8.1

> <Gold.Id.Protein>
6NUR|6NUR_protein|mol2

> <Gold.PLP.Fitness>
44.1173

> <Gold.PLP.PLP>
-37.2553

> <Gold.PLP.part.hbond>
-4.9967

> <Gold.PLP.part.metal>
0.0000

> <Gold.PLP.part.buried>
-4.0180

> <Gold.PLP.part.nonpolar>
-29.1551

> <Gold.PLP.part.repulsive>
0.2588

> <Gold.PLP.ligand.clash>
0.0000

> <Gold.PLP.ligand.torsion>
1.0078

> <Gold.PLP.Chemscore.Hbond>
2.8640

> <Gold.PLP.Chemscore.CHOScore>
0.0000

> <Gold.PLP.Chemscore.Metal>
0.0000

> <Gold.Chemscore.Hbonds>
donor molecule, donor type, donor heavy atom, donor atom, acceptor molecule, acceptor atom, score
      L1  H     5    29       P1 10171  1.00
      L1  H     6    30       P1  7948  0.94
      L1  H     9    31       P1  7948  0.82

> <Gold.PLP.Chemscore.Internal.Correction>
0.2857

> <Gold.Rescore>
     Score         DG    S(hbond)    S(metal)    S(lipo)     H(rot)  DE(clash)    DE(int)     intcor
     18.42     -19.95       2.93        0.00      83.52       1.99       0.09       1.44       ----

> <Gold.Chemscore.Fitness>
18.4171

> <Gold.Chemscore.DG>
-19.9478

> <Gold.Chemscore.ZeroCoef>
-5.4800

> <Gold.Chemscore.Hbond>
2.9332

> <Gold.Chemscore.Metal>
0.0000

> <Gold.Chemscore.Lipo>
83.5208

> <Gold.Chemscore.Internal_Hbond>
0.0000

> <Gold.Chemscore.DEClash>
0.0874

> <Gold.Chemscore.DEInternal>
1.4432

> <Gold.Chemscore.Rot>
1.9926

> <Gold.Chemscore.Internal.Correction>
   9.000000E+99

> <Gold.Chemscore.Hbonds>
donor molecule, donor type, donor heavy atom, donor atom, acceptor molecule, acceptor atom, score
      L1  H     5    29       P1 10171  1.00
      L1  H     6    30       P1  7948  0.90
      L1  H     9    31       P1  7948  0.78

> <Gold.Chemscore.Hbond.Weighted>
-9.7968

> <Gold.Chemscore.Metal.Weighted>
-0.0000

> <Gold.Chemscore.Lipo.Weighted>
-9.7719

> <Gold.Chemscore.Internal_Hbond.Weighted>
0.0000

> <Gold.Chemscore.DEClash.Weighted>
0.0874

> <Gold.Chemscore.DEInternal.Weighted>
1.4432

> <Gold.Chemscore.Rot.Weighted>
5.1009

> <Gold.Chemscore.Internal.Correction.Weighted>
   9.000000E+99

> <Gold.Protein.RotatedTorsions>
[ 6907 6896 6895 6894 ] final -102.31 input  -60.11 | X-H torsion
[ 7974 7965 7964 7962 ] final -148.89 input  175.53 | X-H torsion
[ 8008 7997 7996 7995 ] final  -74.78 input   59.86 | X-H torsion
[ 10167 10162 10161 10158 ] final  173.11 input  -65.29 | X-H torsion
[ 10718 10713 10712 10709 ] final  127.58 input   66.30 | X-H torsion
[ 10763 10752 10751 10750 ] final  147.89 input  -60.55 | X-H torsion
[ 11005 11000 10999 10996 ] final  -94.87 input  -57.11 | X-H torsion

> <Gold.Protein.ActiveResidues>
 VAL166  LYS551  ARG553  GLY616  TRP617  ASP618  TYR619  PRO620  LYS621  CYS622 
 ASP623  PHE694  ASN695  SER759  ASP760  ASP761  ALA762  ILE779  LEU786  VAL792 
 PHE793  MET794  SER795  GLU796  ALA797  LYS798  CYS799  TRP800  GLU811  SER814 

> <Gold.Protein.RotatedAtoms>
  150.7191  134.0600  159.3827 H   0  0  0  0  0  0  0  0  0  0  0  0  # atno 6907 bound_to 6896
  151.8580  135.0532  160.0475 H   0  0  0  0  0  0  0  0  0  0  0  0  # atno 6908 bound_to 6896
  152.2739  133.5372  159.5493 H   0  0  0  0  0  0  0  0  0  0  0  0  # atno 6909 bound_to 6896
  144.8001  140.5137  143.5713 H   0  0  0  0  0  0  0  0  0  0  0  0  # atno 7974 bound_to 7965
  154.5360  140.0755  156.8427 H   0  0  0  0  0  0  0  0  0  0  0  0  # atno 8008 bound_to 7997
  155.3278  140.3400  155.4222 H   0  0  0  0  0  0  0  0  0  0  0  0  # atno 8009 bound_to 7997
  156.1828  140.1658  156.8228 H   0  0  0  0  0  0  0  0  0  0  0  0  # atno 8010 bound_to 7997
  139.5097  144.3298  152.0122 H   0  0  0  0  0  0  0  0  0  0  0  0  # atno 10167 bound_to 10162
  157.5320  131.1098  150.8993 H   0  0  0  0  0  0  0  0  0  0  0  0  # atno 10718 bound_to 10713
  154.0457  135.2886  155.3348 H   0  0  0  0  0  0  0  0  0  0  0  0  # atno 10763 bound_to 10752
  154.6901  135.5230  153.8383 H   0  0  0  0  0  0  0  0  0  0  0  0  # atno 10764 bound_to 10752
  153.0581  135.6603  154.0658 H   0  0  0  0  0  0  0  0  0  0  0  0  # atno 10765 bound_to 10752
  141.1458  133.7986  157.0357 H   0  0  0  0  0  0  0  0  0  0  0  0  # atno 11005 bound_to 11000
  145.5574  139.1478  143.3360 LP  0  0  0  0  0  0  0  0  0  0  0  0  # atno 17320 bound_to 7965
  146.2280  140.5711  142.8988 LP  0  0  0  0  0  0  0  0  0  0  0  0  # atno 17321 bound_to 7965
  140.2738  144.3935  150.6142 LP  0  0  0  0  0  0  0  0  0  0  0  0  # atno 17342 bound_to 10162
  140.6069  143.2168  151.6964 LP  0  0  0  0  0  0  0  0  0  0  0  0  # atno 17343 bound_to 10162
  156.9572  130.5441  149.5284 LP  0  0  0  0  0  0  0  0  0  0  0  0  # atno 17370 bound_to 10713
  156.0430  130.5510  150.8815 LP  0  0  0  0  0  0  0  0  0  0  0  0  # atno 17371 bound_to 10713
  140.0725  134.9694  157.1490 LP  0  0  0  0  0  0  0  0  0  0  0  0  # atno 17394 bound_to 11000
  140.3691  134.2410  155.7179 LP  0  0  0  0  0  0  0  0  0  0  0  0  # atno 17395 bound_to 11000

$$$$
