AV-unprocessed.smi:1697|AV-procd|sdf|6809|dock3
  -GOLD-   22720 7583D 1   1.00000     0.00000
 Structure written by MMmdl.
 55 57  0  0  0  0  0  0  0  0  3 V2000
  150.5167  131.6255  155.9081 C   0  0  0  0  0  0  0  0  0  0  0  0
  149.6699  132.7042  156.5972 C   0  0  0  0  0  0  0  0  0  0  0  0
  148.5730  133.1156  155.7909 O   0  0  0  0  0  0  0  0  0  0  0  0
  148.9069  133.5291  154.4696 C   0  0  2  0  0  0  0  0  0  0  0  0
  149.8382  134.7480  154.5571 C   0  0  0  0  0  0  0  0  0  0  0  0
  149.1163  135.9773  155.1352 C   0  0  0  0  0  0  0  0  0  0  0  0
  147.8967  136.3022  154.3519 N   0  3  2  0  0  0  0  0  0  0  0  0
  147.2624  137.5716  154.7930 C   0  0  0  0  0  0  0  0  0  0  0  0
  147.8687  138.8075  154.0989 C   0  0  2  0  0  0  0  0  0  0  0  0
  147.7325  138.6554  152.6988 O   0  0  0  0  0  0  0  0  0  0  0  0
  149.3564  138.9960  154.4564 C   0  0  0  0  0  0  0  0  0  0  0  0
  149.6214  140.2776  155.1267 N   0  0  0  0  0  0  0  0  0  0  0  0
  149.2095  141.5309  154.7919 C   0  0  0  0  0  0  0  0  0  0  0  0
  149.7168  142.3917  155.7168 N   0  3  0  0  0  0  0  0  0  0  0  0
  150.4634  141.6788  156.6569 C   0  0  0  0  0  0  0  0  0  0  0  0
  151.1681  142.1110  157.7741 C   0  0  0  0  0  0  0  0  0  0  0  0
  151.8362  141.1262  158.5359 C   0  0  0  0  0  0  0  0  0  0  0  0
  152.6197  141.5655  159.7611 C   0  0  0  0  0  0  0  0  0  0  0  0
  151.7805  139.7570  158.1679 C   0  0  0  0  0  0  0  0  0  0  0  0
  152.5037  138.7066  158.9940 C   0  0  0  0  0  0  0  0  0  0  0  0
  151.0564  139.3374  157.0290 C   0  0  0  0  0  0  0  0  0  0  0  0
  150.4052  140.3207  156.2869 C   0  0  0  0  0  0  0  0  0  0  0  0
  146.9537  135.1529  154.3133 C   0  0  0  0  0  0  0  0  0  0  0  0
  147.6233  133.9056  153.7112 C   0  0  0  0  0  0  0  0  0  0  0  0
  151.3035  131.2698  156.5735 H   0  0  0  0  0  0  0  0  0  0  0  0
  150.9980  132.0047  155.0068 H   0  0  0  0  0  0  0  0  0  0  0  0
  149.9045  130.7680  155.6282 H   0  0  0  0  0  0  0  0  0  0  0  0
  149.2628  132.2954  157.5221 H   0  0  0  0  0  0  0  0  0  0  0  0
  150.2808  133.5621  156.8820 H   0  0  0  0  0  0  0  0  0  0  0  0
  149.4262  132.7357  153.9288 H   0  0  0  0  0  0  0  0  0  0  0  0
  150.7121  134.5073  155.1635 H   0  0  0  0  0  0  0  0  0  0  0  0
  150.2134  134.9879  153.5615 H   0  0  0  0  0  0  0  0  0  0  0  0
  148.8459  135.8037  156.1782 H   0  0  0  0  0  0  0  0  0  0  0  0
  149.8003  136.8268  155.1231 H   0  0  0  0  0  0  0  0  0  0  0  0
  146.1876  137.5169  154.6123 H   0  0  0  0  0  0  0  0  0  0  0  0
  147.3815  137.6905  155.8711 H   0  0  0  0  0  0  0  0  0  0  0  0
  147.3303  139.7080  154.3926 H   0  0  0  0  0  0  0  0  0  0  0  0
  148.3932  139.1783  152.2704 H   0  0  0  0  0  0  0  0  0  0  0  0
  149.6740  138.2087  155.1415 H   0  0  0  0  0  0  0  0  0  0  0  0
  149.9940  138.9077  153.5764 H   0  0  0  0  0  0  0  0  0  0  0  0
  148.5937  141.7958  153.9445 H   0  0  0  0  0  0  0  0  0  0  0  0
  151.2059  143.1553  158.0478 H   0  0  0  0  0  0  0  0  0  0  0  0
  152.2218  141.0941  160.6602 H   0  0  0  0  0  0  0  0  0  0  0  0
  152.5698  142.6458  159.9009 H   0  0  0  0  0  0  0  0  0  0  0  0
  153.6703  141.2913  159.6619 H   0  0  0  0  0  0  0  0  0  0  0  0
  152.3560  137.7061  158.5865 H   0  0  0  0  0  0  0  0  0  0  0  0
  152.1342  138.7051  160.0195 H   0  0  0  0  0  0  0  0  0  0  0  0
  153.5757  138.9042  159.0116 H   0  0  0  0  0  0  0  0  0  0  0  0
  151.0191  138.2950  156.7512 H   0  0  0  0  0  0  0  0  0  0  0  0
  146.5980  134.9378  155.3223 H   0  0  0  0  0  0  0  0  0  0  0  0
  146.0748  135.3996  153.7193 H   0  0  0  0  0  0  0  0  0  0  0  0
  147.8657  134.0978  152.6654 H   0  0  0  0  0  0  0  0  0  0  0  0
  146.9228  133.0703  153.7129 H   0  0  0  0  0  0  0  0  0  0  0  0
  148.2080  136.4609  153.4039 H   0  0  0  0  0  0  0  0  0  0  0  0
  149.5640  143.3921  155.7045 H   0  0  0  0  0  0  0  0  0  0  0  0
  1  2  1  0  0  0  0
  1 25  1  0  0  0  0
  1 26  1  0  0  0  0
  1 27  1  0  0  0  0
  2  3  1  0  0  0  0
  2 28  1  0  0  0  0
  2 29  1  0  0  0  0
  3  4  1  0  0  0  0
  4 24  1  0  0  0  0
  4  5  1  0  0  0  0
  4 30  1  0  0  0  0
  5  6  1  0  0  0  0
  5 31  1  0  0  0  0
  5 32  1  0  0  0  0
  6  7  1  0  0  0  0
  6 33  1  0  0  0  0
  6 34  1  0  0  0  0
  7  8  1  0  0  0  0
  7 23  1  0  0  0  0
  7 54  1  0  0  0  0
  8  9  1  0  0  0  0
  8 35  1  0  0  0  0
  8 36  1  0  0  0  0
  9 10  1  0  0  0  0
  9 11  1  0  0  0  0
  9 37  1  0  0  0  0
 10 38  1  0  0  0  0
 11 12  1  0  0  0  0
 11 39  1  0  0  0  0
 11 40  1  0  0  0  0
 12 22  1  0  0  0  0
 12 13  1  0  0  0  0
 13 14  2  0  0  0  0
 13 41  1  0  0  0  0
 14 15  1  0  0  0  0
 14 55  1  0  0  0  0
 15 22  2  0  0  0  0
 15 16  1  0  0  0  0
 16 17  2  0  0  0  0
 16 42  1  0  0  0  0
 17 18  1  0  0  0  0
 17 19  1  0  0  0  0
 18 43  1  0  0  0  0
 18 44  1  0  0  0  0
 18 45  1  0  0  0  0
 19 20  1  0  0  0  0
 19 21  2  0  0  0  0
 20 46  1  0  0  0  0
 20 47  1  0  0  0  0
 20 48  1  0  0  0  0
 21 22  1  0  0  0  0
 21 49  1  0  0  0  0
 23 24  1  0  0  0  0
 23 50  1  0  0  0  0
 23 51  1  0  0  0  0
 24 52  1  0  0  0  0
 24 53  1  0  0  0  0
M  CHG  1   7   1
M  CHG  1  14   1
M  END
> <s_m_source_file>
AV-unprocessed.smi

> <i_m_source_file_index>
1697

> <i_lp_mmshare_version>
43012

> <i_f3d_flags>
0

> <s_epik_input>
W0NIM11bQ0gyXU9bQ0hdMVtDSDJdW0NIMl1OKFtDSDJdW0NIMl0xKVtDSDJdW0NASF0oW09IXSlbQ0gyXW4oW2NIXW4yKWMoYzIzKVtjSF1jKFtDSDNdKWMoW2NIXTMpW0NIM10=

> <s_epik_cmdline>
J2VwaWtfcHl0aG9uJywgJy1waCcsICc3LjAnLCAnLXRuJywgJzgnLCAnLW1hJywgJzIwMCcsICctbWV0YWxfYmluZGluZycsICctaW1hZScsICc8aW5maWxlLm1hZT4nLCAnLW9tYWUnLCAnPG91dGZpbGUubWFlPic=

> <r_epik_Ionization_Penalty>
1.20016

> <r_epik_Ionization_Penalty_Charging>
1.20016

> <r_epik_Ionization_Penalty_Neutral>
1.70998e-06

> <r_epik_State_Penalty>
1.27959

> <r_epik_Charging_Adjusted_Penalty>
2.47975

> <i_epik_Tot_Q>
2

> <i_epik_Tot_abs_Q>
2

> <r_epik_Metal_State_Penalty>
5.29682

> <b_epik_Metal_Only>
0

> <s_lp_Force_Field>
OPLS_2005

> <r_lp_Energy>
33.4822

> <b_lp_Chiralities_Consistent>
1

> <s_lp_Variant>
AV-unprocessed.smi:1697-7

> <Gold.Version>
5.8.1

> <Gold.Id.Protein>
6NUR|6NUR_protein|mol2

> <Gold.PLP.Fitness>
53.8938

> <Gold.PLP.PLP>
-41.3649

> <Gold.PLP.part.hbond>
-3.8228

> <Gold.PLP.part.metal>
0.0000

> <Gold.PLP.part.buried>
-5.0572

> <Gold.PLP.part.nonpolar>
-33.6103

> <Gold.PLP.part.repulsive>
0.1865

> <Gold.PLP.ligand.clash>
0.0000

> <Gold.PLP.ligand.torsion>
1.2855

> <Gold.PLP.Chemscore.Hbond>
5.0000

> <Gold.PLP.Chemscore.CHOScore>
0.0000

> <Gold.PLP.Chemscore.Metal>
0.0000

> <Gold.Chemscore.Hbonds>
donor molecule, donor type, donor heavy atom, donor atom, acceptor molecule, acceptor atom, score
      L1  H     7    54       P1  7948  2.00
      L1  H    10    38       P1  7957  1.00
      L1  H    14    55       P1  8028  1.79

> <Gold.PLP.Chemscore.Internal.Correction>
0.1000

> <Gold.Rescore>
     Score         DG    S(hbond)    S(metal)    S(lipo)     H(rot)  DE(clash)    DE(int)     intcor
     19.77     -21.09       2.95        0.00     100.44       2.35       0.04       1.28       ----

> <Gold.Chemscore.Fitness>
19.7727

> <Gold.Chemscore.DG>
-21.0922

> <Gold.Chemscore.ZeroCoef>
-5.4800

> <Gold.Chemscore.Hbond>
2.9548

> <Gold.Chemscore.Metal>
0.0000

> <Gold.Chemscore.Lipo>
100.4359

> <Gold.Chemscore.Internal_Hbond>
0.0000

> <Gold.Chemscore.DEClash>
0.0442

> <Gold.Chemscore.DEInternal>
1.2753

> <Gold.Chemscore.Rot>
2.3468

> <Gold.Chemscore.Internal.Correction>
   9.000000E+99

> <Gold.Chemscore.Hbonds>
donor molecule, donor type, donor heavy atom, donor atom, acceptor molecule, acceptor atom, score
      L1  H     7    54       P1  7948  1.00
      L1  H    10    38       P1  7957  1.00
      L1  H    14    55       P1  8028  0.87

> <Gold.Chemscore.Hbond.Weighted>
-9.8689

> <Gold.Chemscore.Metal.Weighted>
-0.0000

> <Gold.Chemscore.Lipo.Weighted>
-11.7510

> <Gold.Chemscore.Internal_Hbond.Weighted>
0.0000

> <Gold.Chemscore.DEClash.Weighted>
0.0442

> <Gold.Chemscore.DEInternal.Weighted>
1.2753

> <Gold.Chemscore.Rot.Weighted>
6.0077

> <Gold.Chemscore.Internal.Correction.Weighted>
   9.000000E+99

> <Gold.Protein.RotatedTorsions>
[ 6907 6896 6895 6894 ] final   13.10 input  -60.11 | X-H torsion
[ 7974 7965 7964 7962 ] final -153.87 input  175.53 | X-H torsion
[ 8008 7997 7996 7995 ] final  145.21 input   59.86 | X-H torsion
[ 10167 10162 10161 10158 ] final -108.52 input  -65.29 | X-H torsion
[ 10718 10713 10712 10709 ] final  179.89 input   66.30 | X-H torsion
[ 10763 10752 10751 10750 ] final   24.00 input  -60.55 | X-H torsion
[ 11005 11000 10999 10996 ] final  -86.50 input  -57.11 | X-H torsion

> <Gold.Protein.ActiveResidues>
 VAL166  LYS551  ARG553  GLY616  TRP617  ASP618  TYR619  PRO620  LYS621  CYS622 
 ASP623  PHE694  ASN695  SER759  ASP760  ASP761  ALA762  ILE779  LEU786  VAL792 
 PHE793  MET794  SER795  GLU796  ALA797  LYS798  CYS799  TRP800  GLU811  SER814 

> <Gold.Protein.RotatedAtoms>
  151.7810  135.0761  160.0373 H   0  0  0  0  0  0  0  0  0  0  0  0  # atno 6907 bound_to 6896
  152.3223  133.5863  159.5761 H   0  0  0  0  0  0  0  0  0  0  0  0  # atno 6908 bound_to 6896
  150.7376  133.9908  159.3648 H   0  0  0  0  0  0  0  0  0  0  0  0  # atno 6909 bound_to 6896
  144.7718  140.4466  143.5901 H   0  0  0  0  0  0  0  0  0  0  0  0  # atno 7974 bound_to 7965
  156.2889  140.2215  156.5179 H   0  0  0  0  0  0  0  0  0  0  0  0  # atno 8008 bound_to 7997
  154.7554  140.0477  157.0950 H   0  0  0  0  0  0  0  0  0  0  0  0  # atno 8009 bound_to 7997
  155.0058  140.3107  155.4852 H   0  0  0  0  0  0  0  0  0  0  0  0  # atno 8010 bound_to 7997
  140.1653  143.4087  152.1395 H   0  0  0  0  0  0  0  0  0  0  0  0  # atno 10167 bound_to 10162
  156.8691  130.9777  151.3075 H   0  0  0  0  0  0  0  0  0  0  0  0  # atno 10718 bound_to 10713
  153.0796  135.6615  154.0073 H   0  0  0  0  0  0  0  0  0  0  0  0  # atno 10763 bound_to 10752
  153.9698  135.2965  155.3429 H   0  0  0  0  0  0  0  0  0  0  0  0  # atno 10764 bound_to 10752
  154.7192  135.5172  153.8857 H   0  0  0  0  0  0  0  0  0  0  0  0  # atno 10765 bound_to 10752
  141.1629  133.7458  156.9170 H   0  0  0  0  0  0  0  0  0  0  0  0  # atno 11005 bound_to 11000
  145.6301  139.1535  143.2974 LP  0  0  0  0  0  0  0  0  0  0  0  0  # atno 17320 bound_to 7965
  146.1870  140.6405  142.9163 LP  0  0  0  0  0  0  0  0  0  0  0  0  # atno 17321 bound_to 7965
  139.5362  144.7212  151.4884 LP  0  0  0  0  0  0  0  0  0  0  0  0  # atno 17342 bound_to 10162
  140.6617  143.8484  150.6895 LP  0  0  0  0  0  0  0  0  0  0  0  0  # atno 17343 bound_to 10162
  157.6206  130.8652  149.9102 LP  0  0  0  0  0  0  0  0  0  0  0  0  # atno 17370 bound_to 10713
  156.0736  130.3682  150.0724 LP  0  0  0  0  0  0  0  0  0  0  0  0  # atno 17371 bound_to 10713
  140.1478  134.9251  157.2552 LP  0  0  0  0  0  0  0  0  0  0  0  0  # atno 17394 bound_to 11000
  140.2759  134.3406  155.7358 LP  0  0  0  0  0  0  0  0  0  0  0  0  # atno 17395 bound_to 11000

$$$$
