AV-unprocessed.smi:2489|AV-procd|sdf|9799|dock6
  -GOLD-   2272013433D 1   1.00000     0.00000
 Structure written by MMmdl.
 33 34  0  0  0  0  0  0  0  0  1 V2000
  153.9252  141.3914  160.4953 C   0  0  0  0  0  0  0  0  0  0  0  0
  153.2364  142.6315  160.5710 O   0  0  0  0  0  0  0  0  0  0  0  0
  152.4022  142.9593  159.5269 C   0  0  0  0  0  0  0  0  0  0  0  0
  152.2890  144.3096  158.9809 C   0  0  0  0  0  0  0  0  0  0  0  0
  151.4387  144.5145  157.9639 C   0  0  0  0  0  0  0  0  0  0  0  0
  150.6734  143.4924  157.4213 N   0  0  0  0  0  0  0  0  0  0  0  0
  150.7352  142.1695  157.8947 C   0  0  0  0  0  0  0  0  0  0  0  0
  150.0478  141.1676  157.4287 N   0  0  0  0  0  0  0  0  0  0  0  0
  149.1394  141.3004  156.3821 C   0  0  0  0  0  0  0  0  0  0  0  0
  147.9709  141.6981  156.4059 O   0  0  0  0  0  0  0  0  0  0  0  0
  149.7512  140.8753  155.0394 C   0  0  2  0  0  0  0  0  0  0  0  0
  149.1312  139.5817  154.4830 C   0  0  0  0  0  0  0  0  0  0  0  0
  150.3369  138.7495  154.0958 C   0  0  0  0  0  0  0  0  0  0  0  0
  151.3739  139.2001  155.1172 C   0  0  1  0  0  0  0  0  0  0  0  0
  152.8236  138.9258  154.7045 C   0  0  0  0  0  0  0  0  0  0  0  0
  151.1415  140.5983  155.2192 O   0  0  0  0  0  0  0  0  0  0  0  0
  151.6600  141.9574  158.9997 C   0  0  0  0  0  0  0  0  0  0  0  0
  154.5432  141.2701  161.3848 H   0  0  0  0  0  0  0  0  0  0  0  0
  154.5871  141.3522  159.6291 H   0  0  0  0  0  0  0  0  0  0  0  0
  153.2316  140.5501  160.4615 H   0  0  0  0  0  0  0  0  0  0  0  0
  152.8612  145.1411  159.3635 H   0  0  0  0  0  0  0  0  0  0  0  0
  151.2923  145.4789  157.5005 H   0  0  0  0  0  0  0  0  0  0  0  0
  149.6706  141.6821  154.3088 H   0  0  0  0  0  0  0  0  0  0  0  0
  148.5491  139.0548  155.2410 H   0  0  0  0  0  0  0  0  0  0  0  0
  148.4738  139.7688  153.6336 H   0  0  0  0  0  0  0  0  0  0  0  0
  150.1445  137.6767  154.1265 H   0  0  0  0  0  0  0  0  0  0  0  0
  150.6588  139.0108  153.0867 H   0  0  0  0  0  0  0  0  0  0  0  0
  151.1638  138.7397  156.0841 H   0  0  0  0  0  0  0  0  0  0  0  0
  153.0049  137.8561  154.5969 H   0  0  0  0  0  0  0  0  0  0  0  0
  153.5190  139.3083  155.4519 H   0  0  0  0  0  0  0  0  0  0  0  0
  153.0606  139.4039  153.7537 H   0  0  0  0  0  0  0  0  0  0  0  0
  151.7762  140.9754  159.4356 H   0  0  0  0  0  0  0  0  0  0  0  0
  150.0613  143.7447  156.6582 H   0  0  0  0  0  0  0  0  0  0  0  0
  1  2  1  0  0  0  0
  1 18  1  0  0  0  0
  1 19  1  0  0  0  0
  1 20  1  0  0  0  0
  2  3  1  0  0  0  0
  3 17  2  0  0  0  0
  3  4  1  0  0  0  0
  4  5  2  0  0  0  0
  4 21  1  0  0  0  0
  5  6  1  0  0  0  0
  5 22  1  0  0  0  0
  6  7  1  0  0  0  0
  6 33  1  0  0  0  0
  7  8  2  0  0  0  0
  7 17  1  0  0  0  0
  8  9  1  0  0  0  0
  9 10  2  0  0  0  0
  9 11  1  0  0  0  0
 11 16  1  0  0  0  0
 11 12  1  0  0  0  0
 11 23  1  0  0  0  0
 12 13  1  0  0  0  0
 12 24  1  0  0  0  0
 12 25  1  0  0  0  0
 13 14  1  0  0  0  0
 13 26  1  0  0  0  0
 13 27  1  0  0  0  0
 14 15  1  0  0  0  0
 14 16  1  0  0  0  0
 14 28  1  0  0  0  0
 15 29  1  0  0  0  0
 15 30  1  0  0  0  0
 15 31  1  0  0  0  0
 17 32  1  0  0  0  0
M  END
> <s_m_source_file>
AV-unprocessed.smi

> <i_m_source_file_index>
2489

> <i_lp_mmshare_version>
43012

> <i_f3d_flags>
0

> <s_epik_input>
W0NIM11PYzFbY0hdW2NIXW5jKFtjSF0xKVtOSF1DKD1PKVtDQEBIXTJbQ0gyXVtDSDJdW0NASF0oTzIpW0NIM10=

> <s_epik_cmdline>
J2VwaWtfcHl0aG9uJywgJy1waCcsICc3LjAnLCAnLXRuJywgJzgnLCAnLW1hJywgJzIwMCcsICctbWV0YWxfYmluZGluZycsICctaW1hZScsICc8aW5maWxlLm1hZT4nLCAnLW9tYWUnLCAnPG91dGZpbGUubWFlPic=

> <r_epik_Ionization_Penalty>
0.410206

> <r_epik_Ionization_Penalty_Charging>
0.410206

> <r_epik_Ionization_Penalty_Neutral>
6.57528e-13

> <r_epik_State_Penalty>
1.30987

> <r_epik_Charging_Adjusted_Penalty>
1.72007

> <i_epik_Tot_Q>
0

> <i_epik_Tot_abs_Q>
0

> <r_epik_Metal_State_Penalty>
1.32171

> <b_epik_Metal_Only>
0

> <s_lp_Force_Field>
OPLS_2005

> <r_lp_Energy>
36.165

> <b_lp_Chiralities_Consistent>
1

> <s_lp_Variant>
AV-unprocessed.smi:2489-5

> <Gold.Version>
5.8.1

> <Gold.Id.Protein>
6NUR|6NUR_protein|mol2

> <Gold.PLP.Fitness>
43.6293

> <Gold.PLP.PLP>
-40.6944

> <Gold.PLP.part.hbond>
-2.0000

> <Gold.PLP.part.metal>
0.0000

> <Gold.PLP.part.buried>
-5.1988

> <Gold.PLP.part.nonpolar>
-34.0793

> <Gold.PLP.part.repulsive>
0.3137

> <Gold.PLP.ligand.clash>
0.0000

> <Gold.PLP.ligand.torsion>
1.1350

> <Gold.PLP.Chemscore.Hbond>
1.7320

> <Gold.PLP.Chemscore.CHOScore>
0.0000

> <Gold.PLP.Chemscore.Metal>
0.0000

> <Gold.Chemscore.Hbonds>
donor molecule, donor type, donor heavy atom, donor atom, acceptor molecule, acceptor atom, score
      L1  H     6    33       P1  8028  1.00
      P1  H  7989  7998       L1    16  0.50

> <Gold.PLP.Chemscore.Internal.Correction>
0.0089

> <Gold.Rescore>
     Score         DG    S(hbond)    S(metal)    S(lipo)     H(rot)  DE(clash)    DE(int)     intcor
     16.37     -17.48       1.25        0.00      93.87       1.23       0.00       1.11       ----

> <Gold.Chemscore.Fitness>
16.3700

> <Gold.Chemscore.DG>
-17.4837

> <Gold.Chemscore.ZeroCoef>
-5.4800

> <Gold.Chemscore.Hbond>
1.2456

> <Gold.Chemscore.Metal>
0.0000

> <Gold.Chemscore.Lipo>
93.8709

> <Gold.Chemscore.Internal_Hbond>
0.0000

> <Gold.Chemscore.DEClash>
0.0000

> <Gold.Chemscore.DEInternal>
1.1137

> <Gold.Chemscore.Rot>
1.2264

> <Gold.Chemscore.Internal.Correction>
   9.000000E+99

> <Gold.Chemscore.Hbonds>
donor molecule, donor type, donor heavy atom, donor atom, acceptor molecule, acceptor atom, score
      L1  H     6    33       P1  8028  0.99
      P1  H  7989  7998       L1    16  0.01

> <Gold.Chemscore.Hbond.Weighted>
-4.1604

> <Gold.Chemscore.Metal.Weighted>
-0.0000

> <Gold.Chemscore.Lipo.Weighted>
-10.9829

> <Gold.Chemscore.Internal_Hbond.Weighted>
0.0000

> <Gold.Chemscore.DEClash.Weighted>
0.0000

> <Gold.Chemscore.DEInternal.Weighted>
1.1137

> <Gold.Chemscore.Rot.Weighted>
3.1396

> <Gold.Chemscore.Internal.Correction.Weighted>
   9.000000E+99

> <Gold.Protein.RotatedTorsions>
[ 6907 6896 6895 6894 ] final  119.64 input  -60.11 | X-H torsion
[ 7974 7965 7964 7962 ] final  -31.19 input  175.53 | X-H torsion
[ 8008 7997 7996 7995 ] final  150.83 input   59.86 | X-H torsion
[ 10167 10162 10161 10158 ] final   43.81 input  -65.29 | X-H torsion
[ 10718 10713 10712 10709 ] final  -50.60 input   66.30 | X-H torsion
[ 10763 10752 10751 10750 ] final  -33.67 input  -60.55 | X-H torsion
[ 11005 11000 10999 10996 ] final   53.46 input  -57.11 | X-H torsion

> <Gold.Protein.ActiveResidues>
 VAL166  LYS551  ARG553  GLY616  TRP617  ASP618  TYR619  PRO620  LYS621  CYS622 
 ASP623  PHE694  ASN695  SER759  ASP760  ASP761  ALA762  ILE779  LEU786  VAL792 
 PHE793  MET794  SER795  GLU796  ALA797  LYS798  CYS799  TRP800  GLU811  SER814 

> <Gold.Protein.RotatedAtoms>
  152.4457  133.7532  159.6705 H   0  0  0  0  0  0  0  0  0  0  0  0  # atno 6907 bound_to 6896
  150.8357  133.8008  159.3087 H   0  0  0  0  0  0  0  0  0  0  0  0  # atno 6908 bound_to 6896
  151.5648  135.1067  160.0033 H   0  0  0  0  0  0  0  0  0  0  0  0  # atno 6909 bound_to 6896
  146.1086  140.5635  142.8788 H   0  0  0  0  0  0  0  0  0  0  0  0  # atno 7974 bound_to 7965
  156.2700  140.2064  156.6079 H   0  0  0  0  0  0  0  0  0  0  0  0  # atno 8008 bound_to 7997
  154.6855  140.0535  157.0333 H   0  0  0  0  0  0  0  0  0  0  0  0  # atno 8009 bound_to 7997
  155.0940  140.3199  155.4568 H   0  0  0  0  0  0  0  0  0  0  0  0  # atno 8010 bound_to 7997
  140.3406  144.2475  150.6156 H   0  0  0  0  0  0  0  0  0  0  0  0  # atno 10167 bound_to 10162
  156.1786  130.4150  149.9540 H   0  0  0  0  0  0  0  0  0  0  0  0  # atno 10718 bound_to 10713
  153.8341  135.6863  153.4811 H   0  0  0  0  0  0  0  0  0  0  0  0  # atno 10763 bound_to 10752
  153.1493  135.4625  154.9611 H   0  0  0  0  0  0  0  0  0  0  0  0  # atno 10764 bound_to 10752
  154.7874  135.3289  154.7801 H   0  0  0  0  0  0  0  0  0  0  0  0  # atno 10765 bound_to 10752
  140.0765  134.5397  155.8991 H   0  0  0  0  0  0  0  0  0  0  0  0  # atno 11005 bound_to 11000
  144.7492  140.5147  143.6814 LP  0  0  0  0  0  0  0  0  0  0  0  0  # atno 17320 bound_to 7965
  145.5709  139.1483  143.3289 LP  0  0  0  0  0  0  0  0  0  0  0  0  # atno 17321 bound_to 7965
  140.5313  143.2243  151.8234 LP  0  0  0  0  0  0  0  0  0  0  0  0  # atno 17342 bound_to 10162
  139.4841  144.4717  151.9417 LP  0  0  0  0  0  0  0  0  0  0  0  0  # atno 17343 bound_to 10162
  156.7317  130.9046  151.3626 LP  0  0  0  0  0  0  0  0  0  0  0  0  # atno 17370 bound_to 10713
  157.6853  130.9179  150.0370 LP  0  0  0  0  0  0  0  0  0  0  0  0  # atno 17371 bound_to 10713
  141.2031  133.6630  156.6045 LP  0  0  0  0  0  0  0  0  0  0  0  0  # atno 17394 bound_to 11000
  140.3550  134.7736  157.4494 LP  0  0  0  0  0  0  0  0  0  0  0  0  # atno 17395 bound_to 11000

$$$$
