AV-unprocessed.smi:66|AV-procd|sdf|622|dock5
  -GOLD-   2262016513D 1   1.00000     0.00000
 Structure written by MMmdl.
 28 30  0  0  0  0  0  0  0  0  2 V2000
  152.9868  139.4242  154.8911 O   0  0  0  0  0  0  0  0  0  0  0  0
  152.1289  138.5228  154.7725 C   0  0  0  0  0  0  0  0  0  0  0  0
  152.3433  137.3716  154.3303 O   0  5  0  0  0  0  0  0  0  0  0  0
  150.6999  138.8669  155.2109 C   0  0  1  0  0  0  0  0  0  0  0  0
  150.1074  140.0523  154.4381 C   0  0  0  0  0  0  0  0  0  0  0  0
  148.6104  139.7804  154.5456 C   0  0  1  0  0  0  0  0  0  0  0  0
  147.8630  140.4378  153.5441 O   0  0  0  0  0  0  0  0  0  0  0  0
  148.5271  138.2560  154.4365 C   0  0  0  0  0  0  0  0  0  0  0  0
  149.7842  137.7499  154.9751 N   0  0  0  0  0  0  0  0  0  0  0  0
  149.6542  136.7966  155.9958 C   0  0  0  0  0  0  0  0  0  0  0  0
  149.2355  137.1623  157.2300 N   0  0  0  0  0  0  0  0  0  0  0  0
  149.1121  136.1988  158.1540 C   0  0  0  0  0  0  0  0  0  0  0  0
  149.3363  134.8783  158.0400 N   0  0  0  0  0  0  0  0  0  0  0  0
  149.7442  134.5089  156.8175 C   0  0  0  0  0  0  0  0  0  0  0  0
  150.0473  133.2186  156.4030 N   0  0  0  0  0  0  0  0  0  0  0  0
  150.3911  133.4113  155.1289 C   0  0  0  0  0  0  0  0  0  0  0  0
  150.3391  134.6762  154.6782 N   0  0  0  0  0  0  0  0  0  0  0  0
  149.9174  135.4394  155.7524 C   0  0  0  0  0  0  0  0  0  0  0  0
  150.5784  134.9837  153.7462 H   0  0  0  0  0  0  0  0  0  0  0  0
  150.7118  139.1197  156.2720 H   0  0  0  0  0  0  0  0  0  0  0  0
  150.3921  141.0161  154.8612 H   0  0  0  0  0  0  0  0  0  0  0  0
  150.4191  140.0352  153.3917 H   0  0  0  0  0  0  0  0  0  0  0  0
  148.2551  140.0965  155.5276 H   0  0  0  0  0  0  0  0  0  0  0  0
  148.3484  140.3963  152.7344 H   0  0  0  0  0  0  0  0  0  0  0  0
  147.6460  137.8653  154.9485 H   0  0  0  0  0  0  0  0  0  0  0  0
  148.4676  137.9427  153.3933 H   0  0  0  0  0  0  0  0  0  0  0  0
  148.7810  136.5304  159.1270 H   0  0  0  0  0  0  0  0  0  0  0  0
  150.6967  132.5936  154.4928 H   0  0  0  0  0  0  0  0  0  0  0  0
  1  2  2  0  0  0  0
  2  3  1  0  0  0  0
  2  4  1  0  0  0  0
  4  9  1  0  0  0  0
  4  5  1  0  0  0  0
  4 20  1  0  0  0  0
  5  6  1  0  0  0  0
  5 21  1  0  0  0  0
  5 22  1  0  0  0  0
  6  7  1  0  0  0  0
  6  8  1  0  0  0  0
  6 23  1  0  0  0  0
  7 24  1  0  0  0  0
  8  9  1  0  0  0  0
  8 25  1  0  0  0  0
  8 26  1  0  0  0  0
  9 10  1  0  0  0  0
 10 18  1  0  0  0  0
 10 11  2  0  0  0  0
 11 12  1  0  0  0  0
 12 13  2  0  0  0  0
 12 27  1  0  0  0  0
 13 14  1  0  0  0  0
 14 18  2  0  0  0  0
 14 15  1  0  0  0  0
 15 16  2  0  0  0  0
 16 17  1  0  0  0  0
 16 28  1  0  0  0  0
 17 19  1  0  0  0  0
 17 18  1  0  0  0  0
M  CHG  1   3  -1
M  END
> <s_m_source_file>
AV-unprocessed.smi

> <i_m_source_file_index>
66

> <i_lp_mmshare_version>
43012

> <i_f3d_flags>
0

> <s_epik_input>
Tz1DKFtPSF0pW0NAQEhdMVtDSDJdW0NAQEhdKFtPSF0pW0NIMl1OMWMobltjSF1uMiljKGMyMylbbkhdW2NIXW4z

> <s_epik_cmdline>
J2VwaWtfcHl0aG9uJywgJy1waCcsICc3LjAnLCAnLXRuJywgJzgnLCAnLW1hJywgJzIwMCcsICctbWV0YWxfYmluZGluZycsICctaW1hZScsICc8aW5maWxlLm1hZT4nLCAnLW9tYWUnLCAnPG91dGZpbGUubWFlPic=

> <r_lp_tautomer_probability>
0.0419193

> <r_epik_Ionization_Penalty>
0.0157405

> <r_epik_Ionization_Penalty_Charging>
0.000248217

> <r_epik_Ionization_Penalty_Neutral>
0.0154923

> <r_epik_State_Penalty>
1.99742

> <r_epik_Charging_Adjusted_Penalty>
1.99767

> <i_epik_Tot_Q>
-1

> <i_epik_Tot_abs_Q>
1

> <r_epik_Metal_State_Penalty>
2.31035

> <b_epik_Metal_Only>
0

> <s_lp_Force_Field>
OPLS_2005

> <r_lp_Energy>
24.7496

> <b_lp_Chiralities_Consistent>
1

> <s_lp_Variant>
AV-unprocessed.smi:66-6

> <Gold.Version>
5.8.1

> <Gold.Id.Protein>
6NUR|6NUR_protein|mol2

> <Gold.PLP.Fitness>
38.7969

> <Gold.PLP.PLP>
-22.2255

> <Gold.PLP.part.hbond>
-5.0000

> <Gold.PLP.part.metal>
0.0000

> <Gold.PLP.part.buried>
-2.5681

> <Gold.PLP.part.nonpolar>
-15.9947

> <Gold.PLP.part.repulsive>
0.3714

> <Gold.PLP.ligand.clash>
0.0000

> <Gold.PLP.ligand.torsion>
0.1590

> <Gold.PLP.Chemscore.Hbond>
5.5865

> <Gold.PLP.Chemscore.CHOScore>
0.0000

> <Gold.PLP.Chemscore.Metal>
0.0000

> <Gold.Chemscore.Hbonds>
donor molecule, donor type, donor heavy atom, donor atom, acceptor molecule, acceptor atom, score
      L1  H     7    24       P1  7957  0.98
      P1  H  6896  6908       L1    13  1.00
      P1  H  7989  7998       L1     1  0.03
      P1  H  7997  8009       L1     1  2.00
      P1  H 10752 10765       L1     3  1.50

> <Gold.PLP.Chemscore.Internal.Correction>
0.1297

> <Gold.Rescore>
     Score         DG    S(hbond)    S(metal)    S(lipo)     H(rot)  DE(clash)    DE(int)     intcor
     12.89     -13.84       3.42        0.00      28.10       2.48       0.81       0.14       ----

> <Gold.Chemscore.Fitness>
12.8902

> <Gold.Chemscore.DG>
-13.8426

> <Gold.Chemscore.ZeroCoef>
-5.4800

> <Gold.Chemscore.Hbond>
3.4173

> <Gold.Chemscore.Metal>
0.0000

> <Gold.Chemscore.Lipo>
28.1021

> <Gold.Chemscore.Internal_Hbond>
0.0000

> <Gold.Chemscore.DEClash>
0.8086

> <Gold.Chemscore.DEInternal>
0.1438

> <Gold.Chemscore.Rot>
2.4762

> <Gold.Chemscore.Internal.Correction>
   9.000000E+99

> <Gold.Chemscore.Hbonds>
donor molecule, donor type, donor heavy atom, donor atom, acceptor molecule, acceptor atom, score
      L1  H     7    24       P1  7957  0.92
      P1  H  6896  6908       L1    13  0.52
      P1  H  7997  8009       L1     1  0.99
      P1  H 10752 10765       L1     3  0.76

> <Gold.Chemscore.Hbond.Weighted>
-11.4137

> <Gold.Chemscore.Metal.Weighted>
-0.0000

> <Gold.Chemscore.Lipo.Weighted>
-3.2880

> <Gold.Chemscore.Internal_Hbond.Weighted>
0.0000

> <Gold.Chemscore.DEClash.Weighted>
0.8086

> <Gold.Chemscore.DEInternal.Weighted>
0.1438

> <Gold.Chemscore.Rot.Weighted>
6.3391

> <Gold.Chemscore.Internal.Correction.Weighted>
   9.000000E+99

> <Gold.Protein.RotatedTorsions>
[ 6907 6896 6895 6894 ] final  154.94 input  -60.11 | X-H torsion
[ 7974 7965 7964 7962 ] final -179.32 input  175.53 | X-H torsion
[ 8008 7997 7996 7995 ] final -126.61 input   59.86 | X-H torsion
[ 10167 10162 10161 10158 ] final  158.86 input  -65.29 | X-H torsion
[ 10718 10713 10712 10709 ] final -117.27 input   66.30 | X-H torsion
[ 10763 10752 10751 10750 ] final  155.77 input  -60.55 | X-H torsion
[ 11005 11000 10999 10996 ] final -108.27 input  -57.11 | X-H torsion

> <Gold.Protein.ActiveResidues>
 VAL166  LYS551  ARG553  GLY616  TRP617  ASP618  TYR619  PRO620  LYS621  CYS622 
 ASP623  PHE694  ASN695  SER759  ASP760  ASP761  ALA762  ILE779  LEU786  VAL792 
 PHE793  MET794  SER795  GLU796  ALA797  LYS798  CYS799  TRP800  GLU811  SER814 

> <Gold.Protein.RotatedAtoms>
  152.0513  133.4020  159.4378 H   0  0  0  0  0  0  0  0  0  0  0  0  # atno 6907 bound_to 6896
  150.6870  134.3304  159.4834 H   0  0  0  0  0  0  0  0  0  0  0  0  # atno 6908 bound_to 6896
  152.1115  134.9271  160.0617 H   0  0  0  0  0  0  0  0  0  0  0  0  # atno 6909 bound_to 6896
  144.7136  140.0736  143.6428 H   0  0  0  0  0  0  0  0  0  0  0  0  # atno 7974 bound_to 7965
  155.2325  140.0426  157.2964 H   0  0  0  0  0  0  0  0  0  0  0  0  # atno 8008 bound_to 7997
  154.5879  140.2419  155.7932 H   0  0  0  0  0  0  0  0  0  0  0  0  # atno 8009 bound_to 7997
  156.2239  140.2961  156.0027 H   0  0  0  0  0  0  0  0  0  0  0  0  # atno 8010 bound_to 7997
  139.4829  144.4784  151.8478 H   0  0  0  0  0  0  0  0  0  0  0  0  # atno 10167 bound_to 10162
  156.1022  130.6181  150.9142 H   0  0  0  0  0  0  0  0  0  0  0  0  # atno 10718 bound_to 10713
  154.1737  135.2803  155.3073 H   0  0  0  0  0  0  0  0  0  0  0  0  # atno 10763 bound_to 10752
  154.6056  135.5515  153.7423 H   0  0  0  0  0  0  0  0  0  0  0  0  # atno 10764 bound_to 10752
  153.0157  135.6402  154.1876 H   0  0  0  0  0  0  0  0  0  0  0  0  # atno 10765 bound_to 10752
  141.0910  133.9054  157.2075 H   0  0  0  0  0  0  0  0  0  0  0  0  # atno 11005 bound_to 11000
  145.9762  139.2907  143.1069 LP  0  0  0  0  0  0  0  0  0  0  0  0  # atno 17320 bound_to 7965
  145.9061  140.9211  143.0478 LP  0  0  0  0  0  0  0  0  0  0  0  0  # atno 17321 bound_to 7965
  140.4258  144.2182  150.5887 LP  0  0  0  0  0  0  0  0  0  0  0  0  # atno 17342 bound_to 10162
  140.4828  143.2373  151.8931 LP  0  0  0  0  0  0  0  0  0  0  0  0  # atno 17343 bound_to 10162
  157.6194  131.0931  150.8651 LP  0  0  0  0  0  0  0  0  0  0  0  0  # atno 17370 bound_to 10713
  156.8777  130.5168  149.5293 LP  0  0  0  0  0  0  0  0  0  0  0  0  # atno 17371 bound_to 10713
  139.9736  135.0120  156.9575 LP  0  0  0  0  0  0  0  0  0  0  0  0  # atno 17394 bound_to 11000
  140.5251  134.0868  155.7301 LP  0  0  0  0  0  0  0  0  0  0  0  0  # atno 17395 bound_to 11000

$$$$
