AV-unprocessed.smi:1914|AV-procd|sdf|7757|dock6
  -GOLD-   22720 9493D 1   1.00000     0.00000
 Structure written by MMmdl.
 44 45  0  0  0  0  0  0  0  0  2 V2000
  146.4854  137.6769  151.0379 C   0  0  0  0  0  0  0  0  0  0  0  0
  146.0015  138.2948  152.3621 C   0  0  1  0  0  0  0  0  0  0  0  0
  145.3356  137.2646  153.2930 C   0  0  0  0  0  0  0  0  0  0  0  0
  146.3785  136.3386  153.9341 C   0  0  0  0  0  0  0  0  0  0  0  0
  147.4831  137.1490  154.6301 C   0  0  0  0  0  0  0  0  0  0  0  0
  148.1242  138.1034  153.6889 N   0  3  2  0  0  0  0  0  0  0  0  0
  149.2893  138.7906  154.3003 C   0  0  0  0  0  0  0  0  0  0  0  0
  148.8903  139.7017  155.4784 C   0  0  0  0  0  0  0  0  0  0  0  0
  149.7557  140.8718  155.5604 N   0  0  0  0  0  0  0  0  0  0  0  0
  150.2561  141.3767  156.6982 C   0  0  0  0  0  0  0  0  0  0  0  0
  150.0037  140.9090  157.8094 O   0  0  0  0  0  0  0  0  0  0  0  0
  151.1687  142.6020  156.5538 C   0  0  0  0  0  0  0  0  0  0  0  0
  151.6626  143.1017  157.8476 N   0  0  0  0  0  0  0  0  0  0  0  0
  151.4404  144.4622  158.1400 C   0  0  0  0  0  0  0  0  0  0  0  0
  151.8478  145.0159  159.2930 C   0  0  0  0  0  0  0  0  0  0  0  0
  152.5324  144.1779  160.2489 C   0  0  0  0  0  0  0  0  0  0  0  0
  152.7467  142.8745  159.9811 C   0  0  0  0  0  0  0  0  0  0  0  0
  152.2996  142.2640  158.7236 C   0  0  0  0  0  0  0  0  0  0  0  0
  152.4835  141.0720  158.4735 O   0  0  0  0  0  0  0  0  0  0  0  0
  147.1289  139.0431  153.1033 C   0  0  0  0  0  0  0  0  0  0  0  0
  147.2736  136.9404  151.1946 H   0  0  0  0  0  0  0  0  0  0  0  0
  146.8802  138.4433  150.3704 H   0  0  0  0  0  0  0  0  0  0  0  0
  145.6673  137.1800  150.5155 H   0  0  0  0  0  0  0  0  0  0  0  0
  145.2408  139.0303  152.0967 H   0  0  0  0  0  0  0  0  0  0  0  0
  144.7956  137.7909  154.0814 H   0  0  0  0  0  0  0  0  0  0  0  0
  144.5910  136.6807  152.7509 H   0  0  0  0  0  0  0  0  0  0  0  0
  145.8937  135.6790  154.6543 H   0  0  0  0  0  0  0  0  0  0  0  0
  146.8190  135.6903  153.1760 H   0  0  0  0  0  0  0  0  0  0  0  0
  147.0718  137.6960  155.4802 H   0  0  0  0  0  0  0  0  0  0  0  0
  148.2301  136.4610  155.0273 H   0  0  0  0  0  0  0  0  0  0  0  0
  150.0276  138.0476  154.6063 H   0  0  0  0  0  0  0  0  0  0  0  0
  149.7751  139.4130  153.5472 H   0  0  0  0  0  0  0  0  0  0  0  0
  147.8642  140.0476  155.3502 H   0  0  0  0  0  0  0  0  0  0  0  0
  148.9230  139.1704  156.4299 H   0  0  0  0  0  0  0  0  0  0  0  0
  150.0053  141.3212  154.6908 H   0  0  0  0  0  0  0  0  0  0  0  0
  152.0118  142.3607  155.9030 H   0  0  0  0  0  0  0  0  0  0  0  0
  150.6123  143.3778  156.0265 H   0  0  0  0  0  0  0  0  0  0  0  0
  150.9156  145.0183  157.3770 H   0  0  0  0  0  0  0  0  0  0  0  0
  151.6653  146.0597  159.5022 H   0  0  0  0  0  0  0  0  0  0  0  0
  152.8728  144.5976  161.1839 H   0  0  0  0  0  0  0  0  0  0  0  0
  153.2598  142.2632  160.7088 H   0  0  0  0  0  0  0  0  0  0  0  0
  147.6093  139.7368  152.4146 H   0  0  0  0  0  0  0  0  0  0  0  0
  146.7027  139.6511  153.9033 H   0  0  0  0  0  0  0  0  0  0  0  0
  148.4873  137.5466  152.9288 H   0  0  0  0  0  0  0  0  0  0  0  0
  1  2  1  0  0  0  0
  1 21  1  0  0  0  0
  1 22  1  0  0  0  0
  1 23  1  0  0  0  0
  2 20  1  0  0  0  0
  2  3  1  0  0  0  0
  2 24  1  0  0  0  0
  3  4  1  0  0  0  0
  3 25  1  0  0  0  0
  3 26  1  0  0  0  0
  4  5  1  0  0  0  0
  4 27  1  0  0  0  0
  4 28  1  0  0  0  0
  5  6  1  0  0  0  0
  5 29  1  0  0  0  0
  5 30  1  0  0  0  0
  6  7  1  0  0  0  0
  6 20  1  0  0  0  0
  6 44  1  0  0  0  0
  7  8  1  0  0  0  0
  7 31  1  0  0  0  0
  7 32  1  0  0  0  0
  8  9  1  0  0  0  0
  8 33  1  0  0  0  0
  8 34  1  0  0  0  0
  9 10  1  0  0  0  0
  9 35  1  0  0  0  0
 10 11  2  0  0  0  0
 10 12  1  0  0  0  0
 12 13  1  0  0  0  0
 12 36  1  0  0  0  0
 12 37  1  0  0  0  0
 13 18  1  0  0  0  0
 13 14  1  0  0  0  0
 14 15  2  0  0  0  0
 14 38  1  0  0  0  0
 15 16  1  0  0  0  0
 15 39  1  0  0  0  0
 16 17  2  0  0  0  0
 16 40  1  0  0  0  0
 17 18  1  0  0  0  0
 17 41  1  0  0  0  0
 18 19  2  0  0  0  0
 20 42  1  0  0  0  0
 20 43  1  0  0  0  0
M  CHG  1   6   1
M  END
> <s_m_source_file>
AV-unprocessed.smi

> <i_m_source_file_index>
1914

> <i_lp_mmshare_version>
43012

> <i_f3d_flags>
0

> <s_epik_input>
W0NIM11bQ0BASF0xW0NIMl1bQ0gyXVtDSDJdTihbQ0gyXTEpW0NIMl1bQ0gyXVtOSF1DKD1PKVtDSDJdbjJbY0hdW2NIXVtjSF1bY0hdYzI9Tw==

> <s_epik_cmdline>
J2VwaWtfcHl0aG9uJywgJy1waCcsICc3LjAnLCAnLXRuJywgJzgnLCAnLW1hJywgJzIwMCcsICctbWV0YWxfYmluZGluZycsICctaW1hZScsICc8aW5maWxlLm1hZT4nLCAnLW9tYWUnLCAnPG91dGZpbGUubWFlPic=

> <r_lp_tautomer_probability>
1

> <r_epik_Ionization_Penalty>
0.00192477

> <r_epik_Ionization_Penalty_Charging>
0.00192469

> <r_epik_Ionization_Penalty_Neutral>
8.16761e-08

> <r_epik_State_Penalty>
0.00131115

> <r_epik_Charging_Adjusted_Penalty>
0.00323584

> <i_epik_Tot_Q>
1

> <i_epik_Tot_abs_Q>
1

> <r_epik_Metal_State_Penalty>
-0

> <b_epik_Metal_Only>
0

> <s_lp_Force_Field>
OPLS_2005

> <r_lp_Energy>
26.9479

> <b_lp_Chiralities_Consistent>
1

> <s_lp_Variant>
AV-unprocessed.smi:1914-2

> <Gold.Version>
5.8.1

> <Gold.Id.Protein>
6NUR|6NUR_protein|mol2

> <Gold.PLP.Fitness>
41.9388

> <Gold.PLP.PLP>
-33.6820

> <Gold.PLP.part.hbond>
-1.0000

> <Gold.PLP.part.metal>
0.0000

> <Gold.PLP.part.buried>
-0.4506

> <Gold.PLP.part.nonpolar>
-33.0399

> <Gold.PLP.part.repulsive>
0.1333

> <Gold.PLP.ligand.clash>
0.0000

> <Gold.PLP.ligand.torsion>
0.3851

> <Gold.PLP.Chemscore.Hbond>
2.0000

> <Gold.PLP.Chemscore.CHOScore>
1.0000

> <Gold.PLP.Chemscore.Metal>
0.0000

> <Gold.Chemscore.Hbonds>
donor molecule, donor type, donor heavy atom, donor atom, acceptor molecule, acceptor atom, score
      L1  H     6    44       P1  7948  2.00
      L1  C    14    38       P1  8028  0.76

> <Gold.PLP.Chemscore.Internal.Correction>
0.0271

> <Gold.Rescore>
     Score         DG    S(hbond)    S(metal)    S(lipo)     H(rot)  DE(clash)    DE(int)     intcor
     10.22     -15.25       1.00        0.00      95.66       1.86       1.39       3.64       ----

> <Gold.Chemscore.Fitness>
10.2247

> <Gold.Chemscore.DG>
-15.2531

> <Gold.Chemscore.ZeroCoef>
-5.4800

> <Gold.Chemscore.Hbond>
0.9997

> <Gold.Chemscore.Metal>
0.0000

> <Gold.Chemscore.Lipo>
95.6600

> <Gold.Chemscore.Internal_Hbond>
0.0000

> <Gold.Chemscore.DEClash>
1.3885

> <Gold.Chemscore.DEInternal>
3.6399

> <Gold.Chemscore.Rot>
1.8586

> <Gold.Chemscore.Internal.Correction>
   9.000000E+99

> <Gold.Chemscore.Hbonds>
donor molecule, donor type, donor heavy atom, donor atom, acceptor molecule, acceptor atom, score
      L1  H     6    44       P1  7948  1.00

> <Gold.Chemscore.Hbond.Weighted>
-3.3390

> <Gold.Chemscore.Metal.Weighted>
-0.0000

> <Gold.Chemscore.Lipo.Weighted>
-11.1922

> <Gold.Chemscore.Internal_Hbond.Weighted>
0.0000

> <Gold.Chemscore.DEClash.Weighted>
1.3885

> <Gold.Chemscore.DEInternal.Weighted>
3.6399

> <Gold.Chemscore.Rot.Weighted>
4.7581

> <Gold.Chemscore.Internal.Correction.Weighted>
   9.000000E+99

> <Gold.Protein.RotatedTorsions>
[ 6907 6896 6895 6894 ] final  -95.60 input  -60.11 | X-H torsion
[ 7974 7965 7964 7962 ] final  131.73 input  175.53 | X-H torsion
[ 8008 7997 7996 7995 ] final   18.82 input   59.86 | X-H torsion
[ 10167 10162 10161 10158 ] final   94.18 input  -65.29 | X-H torsion
[ 10718 10713 10712 10709 ] final  152.89 input   66.30 | X-H torsion
[ 10763 10752 10751 10750 ] final   98.38 input  -60.55 | X-H torsion
[ 11005 11000 10999 10996 ] final  127.06 input  -57.11 | X-H torsion

> <Gold.Protein.ActiveResidues>
 VAL166  LYS551  ARG553  GLY616  TRP617  ASP618  TYR619  PRO620  LYS621  CYS622 
 ASP623  PHE694  ASN695  SER759  ASP760  ASP761  ALA762  ILE779  LEU786  VAL792 
 PHE793  MET794  SER795  GLU796  ALA797  LYS798  CYS799  TRP800  GLU811  SER814 

> <Gold.Protein.RotatedAtoms>
  150.6968  134.1632  159.4184 H   0  0  0  0  0  0  0  0  0  0  0  0  # atno 6907 bound_to 6896
  151.9612  135.0120  160.0557 H   0  0  0  0  0  0  0  0  0  0  0  0  # atno 6908 bound_to 6896
  152.1925  133.4748  159.5052 H   0  0  0  0  0  0  0  0  0  0  0  0  # atno 6909 bound_to 6896
  145.0043  139.4282  143.5277 H   0  0  0  0  0  0  0  0  0  0  0  0  # atno 7974 bound_to 7965
  154.9116  140.3015  155.5263 H   0  0  0  0  0  0  0  0  0  0  0  0  # atno 8008 bound_to 7997
  156.3014  140.2388  156.4091 H   0  0  0  0  0  0  0  0  0  0  0  0  # atno 8009 bound_to 7997
  154.8420  140.0413  157.1536 H   0  0  0  0  0  0  0  0  0  0  0  0  # atno 8010 bound_to 7997
  139.8108  144.6774  150.9643 H   0  0  0  0  0  0  0  0  0  0  0  0  # atno 10167 bound_to 10162
  157.2519  131.0780  151.1724 H   0  0  0  0  0  0  0  0  0  0  0  0  # atno 10718 bound_to 10713
  153.2883  135.4150  155.1143 H   0  0  0  0  0  0  0  0  0  0  0  0  # atno 10763 bound_to 10752
  154.8512  135.3512  154.6016 H   0  0  0  0  0  0  0  0  0  0  0  0  # atno 10764 bound_to 10752
  153.6438  135.7055  153.5290 H   0  0  0  0  0  0  0  0  0  0  0  0  # atno 10765 bound_to 10752
  139.9488  134.9625  156.8799 H   0  0  0  0  0  0  0  0  0  0  0  0  # atno 11005 bound_to 11000
  146.3458  139.9449  142.8736 LP  0  0  0  0  0  0  0  0  0  0  0  0  # atno 17320 bound_to 7965
  145.2110  140.9895  143.4100 LP  0  0  0  0  0  0  0  0  0  0  0  0  # atno 17321 bound_to 7965
  140.7818  143.4187  151.0876 LP  0  0  0  0  0  0  0  0  0  0  0  0  # atno 17342 bound_to 10162
  139.7854  143.8295  152.3144 LP  0  0  0  0  0  0  0  0  0  0  0  0  # atno 17343 bound_to 10162
  157.3269  130.6965  149.6301 LP  0  0  0  0  0  0  0  0  0  0  0  0  # atno 17370 bound_to 10713
  155.9666  130.4319  150.4940 LP  0  0  0  0  0  0  0  0  0  0  0  0  # atno 17371 bound_to 10713
  140.5769  134.0389  155.7450 LP  0  0  0  0  0  0  0  0  0  0  0  0  # atno 17394 bound_to 11000
  141.1146  133.9562  157.2847 LP  0  0  0  0  0  0  0  0  0  0  0  0  # atno 17395 bound_to 11000

$$$$
