AV-unprocessed.smi:215|AV-procd|sdf|1654|dock6
  -GOLD-   2262020 43D 1   1.00000     0.00000
 Structure written by MMmdl.
 59 62  0  0  0  0  0  0  0  0  2 V2000
  149.6592  139.0336  155.7187 C   0  0  0  0  0  0  0  0  0  0  0  0
  148.7665  139.6821  154.6414 C   0  0  2  0  0  0  0  0  0  0  0  0
  148.9614  141.1957  154.4287 C   0  0  2  0  0  0  0  0  0  0  0  0
  149.3721  141.9625  155.6483 N   0  3  1  0  0  0  0  0  0  0  0  0
  148.4578  141.7061  156.7887 C   0  0  0  0  0  0  0  0  0  0  0  0
  150.8119  141.8539  156.0223 C   0  0  0  0  0  0  0  0  0  0  0  0
  151.1934  142.7250  157.2327 C   0  0  0  0  0  0  0  0  0  0  0  0
  151.2192  144.0888  156.8686 O   0  0  0  0  0  0  0  0  0  0  0  0
  147.6273  141.6399  153.8087 C   0  0  0  0  0  0  0  0  0  0  0  0
  146.5905  140.6152  154.2876 C   0  0  0  0  0  0  0  0  0  0  0  0
  147.3321  139.4929  154.8524 N   0  0  0  0  0  0  0  0  0  0  0  0
  146.7477  138.2703  154.7516 C   0  0  0  0  0  0  0  0  0  0  0  0
  146.5905  137.4992  155.8599 N   0  0  0  0  0  0  0  0  0  0  0  0
  146.0251  136.2920  155.7713 C   0  0  0  0  0  0  0  0  0  0  0  0
  145.5479  135.6727  154.6909 N   0  0  0  0  0  0  0  0  0  0  0  0
  145.6950  136.4419  153.5747 C   0  0  0  0  0  0  0  0  0  0  0  0
  146.2858  137.7361  153.5147 C   0  0  0  0  0  0  0  0  0  0  0  0
  146.2681  138.2015  152.2048 N   0  0  0  0  0  0  0  0  0  0  0  0
  145.7075  137.2351  151.5297 C   0  0  0  0  0  0  0  0  0  0  0  0
  145.3040  136.1531  152.2791 N   0  0  0  0  0  0  0  0  0  0  0  0
  144.6927  134.9495  151.7964 C   0  0  0  0  0  0  0  0  0  0  0  0
  145.3814  133.5905  151.9441 C   0  0  0  0  0  0  0  0  0  0  0  0
  144.7469  133.1312  150.6125 C   0  0  0  0  0  0  0  0  0  0  0  0
  145.6759  132.3271  149.6880 C   0  0  0  0  0  0  0  0  0  0  0  0
  145.1478  132.2396  148.3801 O   0  0  0  0  0  0  0  0  0  0  0  0
  143.4005  132.3913  150.7465 C   0  0  0  0  0  0  0  0  0  0  0  0
  142.8462  132.0925  149.4810 O   0  0  0  0  0  0  0  0  0  0  0  0
  144.6399  134.6405  150.2986 C   0  0  0  0  0  0  0  0  0  0  0  0
  149.0078  139.2074  153.6889 H   0  0  0  0  0  0  0  0  0  0  0  0
  149.7592  141.3152  153.6939 H   0  0  0  0  0  0  0  0  0  0  0  0
  150.7091  139.2732  155.5487 H   0  0  0  0  0  0  0  0  0  0  0  0
  149.5733  137.9476  155.7131 H   0  0  0  0  0  0  0  0  0  0  0  0
  149.3962  139.3702  156.7205 H   0  0  0  0  0  0  0  0  0  0  0  0
  148.5667  140.6862  157.1585 H   0  0  0  0  0  0  0  0  0  0  0  0
  147.4175  141.8505  156.4955 H   0  0  0  0  0  0  0  0  0  0  0  0
  148.6429  142.3892  157.6160 H   0  0  0  0  0  0  0  0  0  0  0  0
  151.0596  140.8121  156.2283 H   0  0  0  0  0  0  0  0  0  0  0  0
  151.4447  142.1602  155.1912 H   0  0  0  0  0  0  0  0  0  0  0  0
  150.5233  142.5798  158.0790 H   0  0  0  0  0  0  0  0  0  0  0  0
  152.1902  142.4492  157.5781 H   0  0  0  0  0  0  0  0  0  0  0  0
  150.3318  144.3776  156.7158 H   0  0  0  0  0  0  0  0  0  0  0  0
  147.3470  142.6676  154.0401 H   0  0  0  0  0  0  0  0  0  0  0  0
  147.7053  141.5718  152.7230 H   0  0  0  0  0  0  0  0  0  0  0  0
  145.9624  141.0498  155.0656 H   0  0  0  0  0  0  0  0  0  0  0  0
  145.9399  140.3042  153.4687 H   0  0  0  0  0  0  0  0  0  0  0  0
  145.9412  135.7452  156.6990 H   0  0  0  0  0  0  0  0  0  0  0  0
  145.5642  137.2915  150.4602 H   0  0  0  0  0  0  0  0  0  0  0  0
  143.6919  134.9251  152.2304 H   0  0  0  0  0  0  0  0  0  0  0  0
  146.4694  133.6639  151.8902 H   0  0  0  0  0  0  0  0  0  0  0  0
  145.0719  133.0200  152.8203 H   0  0  0  0  0  0  0  0  0  0  0  0
  146.6734  132.7645  149.6401 H   0  0  0  0  0  0  0  0  0  0  0  0
  145.8069  131.3109  150.0606 H   0  0  0  0  0  0  0  0  0  0  0  0
  145.0860  133.1125  148.0230 H   0  0  0  0  0  0  0  0  0  0  0  0
  143.5086  131.4639  151.3093 H   0  0  0  0  0  0  0  0  0  0  0  0
  142.6733  132.9917  151.2932 H   0  0  0  0  0  0  0  0  0  0  0  0
  142.1589  132.7155  149.3002 H   0  0  0  0  0  0  0  0  0  0  0  0
  143.7153  134.9483  149.8095 H   0  0  0  0  0  0  0  0  0  0  0  0
  145.5088  135.0290  149.7641 H   0  0  0  0  0  0  0  0  0  0  0  0
  149.2318  142.9326  155.4029 H   0  0  0  0  0  0  0  0  0  0  0  0
  1  2  1  0  0  0  0
  1 31  1  0  0  0  0
  1 32  1  0  0  0  0
  1 33  1  0  0  0  0
  2 29  1  0  0  0  0
  2 11  1  0  0  0  0
  2  3  1  0  0  0  0
  3 30  1  0  0  0  0
  3  4  1  0  0  0  0
  3  9  1  0  0  0  0
  4  5  1  0  0  0  0
  4  6  1  0  0  0  0
  4 59  1  0  0  0  0
  5 34  1  0  0  0  0
  5 35  1  0  0  0  0
  5 36  1  0  0  0  0
  6  7  1  0  0  0  0
  6 37  1  0  0  0  0
  6 38  1  0  0  0  0
  7  8  1  0  0  0  0
  7 39  1  0  0  0  0
  7 40  1  0  0  0  0
  8 41  1  0  0  0  0
  9 10  1  0  0  0  0
  9 42  1  0  0  0  0
  9 43  1  0  0  0  0
 10 11  1  0  0  0  0
 10 44  1  0  0  0  0
 10 45  1  0  0  0  0
 11 12  1  0  0  0  0
 12 17  1  0  0  0  0
 12 13  2  0  0  0  0
 13 14  1  0  0  0  0
 14 15  2  0  0  0  0
 14 46  1  0  0  0  0
 15 16  1  0  0  0  0
 16 20  1  0  0  0  0
 16 17  2  0  0  0  0
 17 18  1  0  0  0  0
 18 19  2  0  0  0  0
 19 20  1  0  0  0  0
 19 47  1  0  0  0  0
 20 21  1  0  0  0  0
 21 28  1  0  0  0  0
 21 22  1  0  0  0  0
 21 48  1  0  0  0  0
 22 23  1  0  0  0  0
 22 49  1  0  0  0  0
 22 50  1  0  0  0  0
 23 24  1  0  0  0  0
 23 26  1  0  0  0  0
 23 28  1  0  0  0  0
 24 25  1  0  0  0  0
 24 51  1  0  0  0  0
 24 52  1  0  0  0  0
 25 53  1  0  0  0  0
 26 27  1  0  0  0  0
 26 54  1  0  0  0  0
 26 55  1  0  0  0  0
 27 56  1  0  0  0  0
 28 57  1  0  0  0  0
 28 58  1  0  0  0  0
M  CHG  1   4   1
M  END
> <s_m_source_file>
AV-unprocessed.smi

> <i_m_source_file_index>
215

> <i_lp_mmshare_version>
43012

> <i_f3d_flags>
0

> <s_epik_input>
W09IXVtDSDJdW0NIMl1OKFtDSDNdKVtDQEBIXShbQ0BIXTFbQ0gzXSlbQ0gyXVtDSDJdTjFjKG5bY0hdbjIpYyhjMjMpbltjSF1uM1tDSF0oW0NIMl00KVtDSDJdQzQoW0NIMl1bT0hdKVtDSDJdW09IXQ==

> <s_epik_cmdline>
J2VwaWtfcHl0aG9uJywgJy1waCcsICc3LjAnLCAnLXRuJywgJzgnLCAnLW1hJywgJzIwMCcsICctbWV0YWxfYmluZGluZycsICctaW1hZScsICc8aW5maWxlLm1hZT4nLCAnLW9tYWUnLCAnPG91dGZpbGUubWFlPic=

> <r_lp_tautomer_probability>
1

> <r_epik_Ionization_Penalty>
0.0036237

> <r_epik_Ionization_Penalty_Charging>
0.0032725

> <r_epik_Ionization_Penalty_Neutral>
0.000351196

> <r_epik_State_Penalty>
-0

> <r_epik_Charging_Adjusted_Penalty>
0.0032725

> <i_epik_Tot_Q>
1

> <i_epik_Tot_abs_Q>
1

> <r_epik_Metal_State_Penalty>
-0

> <b_epik_Metal_Only>
0

> <s_lp_Force_Field>
OPLS_2005

> <r_lp_Energy>
70.2974

> <b_lp_Chiralities_Consistent>
1

> <s_lp_Variant>
AV-unprocessed.smi:215-5

> <Gold.Version>
5.8.1

> <Gold.Id.Protein>
6NUR|6NUR_protein|mol2

> <Gold.PLP.Fitness>
61.2023

> <Gold.PLP.PLP>
-43.4302

> <Gold.PLP.part.hbond>
-6.8493

> <Gold.PLP.part.metal>
0.0000

> <Gold.PLP.part.buried>
-5.3146

> <Gold.PLP.part.nonpolar>
-31.8688

> <Gold.PLP.part.repulsive>
0.5461

> <Gold.PLP.ligand.clash>
0.0000

> <Gold.PLP.ligand.torsion>
0.9856

> <Gold.PLP.Chemscore.Hbond>
5.5865

> <Gold.PLP.Chemscore.CHOScore>
0.6680

> <Gold.PLP.Chemscore.Metal>
0.0000

> <Gold.Chemscore.Hbonds>
donor molecule, donor type, donor heavy atom, donor atom, acceptor molecule, acceptor atom, score
      L1  H     4    59       P1  8028  2.00
      L1  H     8    41       P1  8028  1.00
      L1  H    25    53       P1  7921  0.84
      L1  H    27    56       P1 10186  0.93
      P1  H 10785 10796       L1    27  0.80
      L1  C    19    47       P1 10171  0.71

> <Gold.PLP.Chemscore.Internal.Correction>
0.9797

> <Gold.Rescore>
     Score         DG    S(hbond)    S(metal)    S(lipo)     H(rot)  DE(clash)    DE(int)     intcor
     15.01     -17.62       3.91        0.00      97.32       4.81       0.95       1.66       ----

> <Gold.Chemscore.Fitness>
15.0121

> <Gold.Chemscore.DG>
-17.6185

> <Gold.Chemscore.ZeroCoef>
-5.4800

> <Gold.Chemscore.Hbond>
3.9116

> <Gold.Chemscore.Metal>
0.0000

> <Gold.Chemscore.Lipo>
97.3239

> <Gold.Chemscore.Internal_Hbond>
0.0000

> <Gold.Chemscore.DEClash>
0.9511

> <Gold.Chemscore.DEInternal>
1.6553

> <Gold.Chemscore.Rot>
4.8098

> <Gold.Chemscore.Internal.Correction>
   9.000000E+99

> <Gold.Chemscore.Hbonds>
donor molecule, donor type, donor heavy atom, donor atom, acceptor molecule, acceptor atom, score
      L1  H     4    59       P1  8028  0.99
      L1  H     8    41       P1  8028  0.94
      L1  H    25    53       P1  7921  0.18
      L1  H    27    56       P1 10186  0.88
      P1  H 10785 10796       L1    27  0.73

> <Gold.Chemscore.Hbond.Weighted>
-13.0646

> <Gold.Chemscore.Metal.Weighted>
-0.0000

> <Gold.Chemscore.Lipo.Weighted>
-11.3869

> <Gold.Chemscore.Internal_Hbond.Weighted>
0.0000

> <Gold.Chemscore.DEClash.Weighted>
0.9511

> <Gold.Chemscore.DEInternal.Weighted>
1.6553

> <Gold.Chemscore.Rot.Weighted>
12.3130

> <Gold.Chemscore.Internal.Correction.Weighted>
   9.000000E+99

> <Gold.Protein.RotatedTorsions>
[ 6907 6896 6895 6894 ] final  124.80 input  -60.11 | X-H torsion
[ 7974 7965 7964 7962 ] final   99.09 input  175.53 | X-H torsion
[ 8008 7997 7996 7995 ] final   53.72 input   59.86 | X-H torsion
[ 10167 10162 10161 10158 ] final  162.80 input  -65.29 | X-H torsion
[ 10718 10713 10712 10709 ] final  -75.97 input   66.30 | X-H torsion
[ 10763 10752 10751 10750 ] final   27.86 input  -60.55 | X-H torsion
[ 11005 11000 10999 10996 ] final  -34.15 input  -57.11 | X-H torsion

> <Gold.Protein.ActiveResidues>
 VAL166  LYS551  ARG553  GLY616  TRP617  ASP618  TYR619  PRO620  LYS621  CYS622 
 ASP623  PHE694  ASN695  SER759  ASP760  ASP761  ALA762  ILE779  LEU786  VAL792 
 PHE793  MET794  SER795  GLU796  ALA797  LYS798  CYS799  TRP800  GLU811  SER814 

> <Gold.Protein.RotatedAtoms>
  152.4047  133.6871  159.6346 H   0  0  0  0  0  0  0  0  0  0  0  0  # atno 6907 bound_to 6896
  150.7934  133.8729  159.3272 H   0  0  0  0  0  0  0  0  0  0  0  0  # atno 6908 bound_to 6896
  151.6486  135.1006  160.0207 H   0  0  0  0  0  0  0  0  0  0  0  0  # atno 6909 bound_to 6896
  145.4034  139.2344  143.3287 H   0  0  0  0  0  0  0  0  0  0  0  0  # atno 7974 bound_to 7965
  155.4730  140.3466  155.4328 H   0  0  0  0  0  0  0  0  0  0  0  0  # atno 8008 bound_to 7997
  156.1088  140.1455  156.9395 H   0  0  0  0  0  0  0  0  0  0  0  0  # atno 8009 bound_to 7997
  154.4742  140.0890  156.7200 H   0  0  0  0  0  0  0  0  0  0  0  0  # atno 8010 bound_to 7997
  139.4865  144.4401  151.8962 H   0  0  0  0  0  0  0  0  0  0  0  0  # atno 10167 bound_to 10162
  156.0190  130.4454  150.3123 H   0  0  0  0  0  0  0  0  0  0  0  0  # atno 10718 bound_to 10713
  153.0528  135.6527  154.0651 H   0  0  0  0  0  0  0  0  0  0  0  0  # atno 10763 bound_to 10752
  154.0335  135.2909  155.3366 H   0  0  0  0  0  0  0  0  0  0  0  0  # atno 10764 bound_to 10752
  154.6827  135.5314  153.8351 H   0  0  0  0  0  0  0  0  0  0  0  0  # atno 10765 bound_to 10752
  140.9693  133.7119  156.1497 H   0  0  0  0  0  0  0  0  0  0  0  0  # atno 11005 bound_to 11000
  146.2740  140.4735  142.8803 LP  0  0  0  0  0  0  0  0  0  0  0  0  # atno 17320 bound_to 7965
  144.8358  140.6779  143.6261 LP  0  0  0  0  0  0  0  0  0  0  0  0  # atno 17321 bound_to 7965
  140.3853  144.2685  150.5904 LP  0  0  0  0  0  0  0  0  0  0  0  0  # atno 17342 bound_to 10162
  140.5196  143.2269  151.8409 LP  0  0  0  0  0  0  0  0  0  0  0  0  # atno 17343 bound_to 10162
  157.1224  131.0250  151.3003 LP  0  0  0  0  0  0  0  0  0  0  0  0  # atno 17370 bound_to 10713
  157.4617  130.7657  149.7242 LP  0  0  0  0  0  0  0  0  0  0  0  0  # atno 17371 bound_to 10713
  140.7352  134.4210  157.5561 LP  0  0  0  0  0  0  0  0  0  0  0  0  # atno 17394 bound_to 11000
  139.8906  134.8800  156.2361 LP  0  0  0  0  0  0  0  0  0  0  0  0  # atno 17395 bound_to 11000

$$$$
