AV-unprocessed.smi:392|AV-procd|sdf|2480|dock3
  -GOLD-   2262022423D 1   1.00000     0.00000
 Structure written by MMmdl.
 32 34  0  0  0  0  0  0  0  0  1 V2000
  150.1661  141.1135  158.4586 O   0  0  0  0  0  0  0  0  0  0  0  0
  150.9552  141.3070  157.3020 C   0  0  2  0  0  0  0  0  0  0  0  0
  151.3136  142.8029  157.2103 C   0  0  0  0  0  0  0  0  0  0  0  0
  151.3940  143.4283  158.5178 N   0  0  0  0  0  0  0  0  0  0  0  0
  150.7362  144.5267  158.9366 C   0  0  0  0  0  0  0  0  0  0  0  0
  150.9661  144.9377  160.1804 N   0  0  0  0  0  0  0  0  0  0  0  0
  151.8777  143.9939  160.6221 C   0  0  0  0  0  0  0  0  0  0  0  0
  152.5258  143.8580  161.8707 C   0  0  0  0  0  0  0  0  0  0  0  0
  153.4301  142.7989  162.0947 C   0  0  0  0  0  0  0  0  0  0  0  0
  153.7006  141.8617  161.0763 C   0  0  0  0  0  0  0  0  0  0  0  0
  153.0678  141.9770  159.8236 C   0  0  0  0  0  0  0  0  0  0  0  0
  152.1655  143.0344  159.6050 C   0  0  0  0  0  0  0  0  0  0  0  0
  150.2653  140.8018  156.0395 C   0  0  0  0  0  0  0  0  0  0  0  0
  149.0674  141.4043  155.5942 C   0  0  0  0  0  0  0  0  0  0  0  0
  148.4376  140.9540  154.4181 C   0  0  0  0  0  0  0  0  0  0  0  0
  149.0022  139.8992  153.6768 C   0  0  0  0  0  0  0  0  0  0  0  0
  150.1977  139.2966  154.1119 C   0  0  0  0  0  0  0  0  0  0  0  0
  150.8298  139.7454  155.2880 C   0  0  0  0  0  0  0  0  0  0  0  0
  151.9858  139.1611  155.6850 F   0  0  0  0  0  0  0  0  0  0  0  0
  150.4881  141.6849  159.1392 H   0  0  0  0  0  0  0  0  0  0  0  0
  151.8684  140.7334  157.4639 H   0  0  0  0  0  0  0  0  0  0  0  0
  152.2627  142.9436  156.6908 H   0  0  0  0  0  0  0  0  0  0  0  0
  150.5587  143.3373  156.6317 H   0  0  0  0  0  0  0  0  0  0  0  0
  150.0554  145.0593  158.2884 H   0  0  0  0  0  0  0  0  0  0  0  0
  152.3262  144.5698  162.6578 H   0  0  0  0  0  0  0  0  0  0  0  0
  153.9194  142.7050  163.0530 H   0  0  0  0  0  0  0  0  0  0  0  0
  154.3946  141.0541  161.2573 H   0  0  0  0  0  0  0  0  0  0  0  0
  153.2732  141.2626  159.0405 H   0  0  0  0  0  0  0  0  0  0  0  0
  148.6288  142.2189  156.1515 H   0  0  0  0  0  0  0  0  0  0  0  0
  147.5222  141.4198  154.0839 H   0  0  0  0  0  0  0  0  0  0  0  0
  148.5200  139.5544  152.7739 H   0  0  0  0  0  0  0  0  0  0  0  0
  150.6328  138.4897  153.5407 H   0  0  0  0  0  0  0  0  0  0  0  0
  1  2  1  0  0  0  0
  1 20  1  0  0  0  0
  2  3  1  0  0  0  0
  2 13  1  0  0  0  0
  2 21  1  0  0  0  0
  3  4  1  0  0  0  0
  3 22  1  0  0  0  0
  3 23  1  0  0  0  0
  4 12  1  0  0  0  0
  4  5  1  0  0  0  0
  5  6  2  0  0  0  0
  5 24  1  0  0  0  0
  6  7  1  0  0  0  0
  7 12  2  0  0  0  0
  7  8  1  0  0  0  0
  8  9  2  0  0  0  0
  8 25  1  0  0  0  0
  9 10  1  0  0  0  0
  9 26  1  0  0  0  0
 10 11  2  0  0  0  0
 10 27  1  0  0  0  0
 11 12  1  0  0  0  0
 11 28  1  0  0  0  0
 13 18  1  0  0  0  0
 13 14  2  0  0  0  0
 14 15  1  0  0  0  0
 14 29  1  0  0  0  0
 15 16  2  0  0  0  0
 15 30  1  0  0  0  0
 16 17  1  0  0  0  0
 16 31  1  0  0  0  0
 17 18  2  0  0  0  0
 17 32  1  0  0  0  0
 18 19  1  0  0  0  0
M  END
> <s_m_source_file>
AV-unprocessed.smi

> <i_m_source_file_index>
392

> <i_lp_mmshare_version>
43012

> <i_f3d_flags>
0

> <s_epik_input>
RmMxW2NIXVtjSF1bY0hdW2NIXWMxW0NASF0oW09IXSlbQ0gyXW4oW2NIXW4yKWMoYzIzKVtjSF1bY0hdW2NIXVtjSF0z

> <s_epik_cmdline>
J2VwaWtfcHl0aG9uJywgJy1waCcsICc3LjAnLCAnLXRuJywgJzgnLCAnLW1hJywgJzIwMCcsICctbWV0YWxfYmluZGluZycsICctaW1hZScsICc8aW5maWxlLm1hZT4nLCAnLW9tYWUnLCAnPG91dGZpbGUubWFlPic=

> <r_epik_Ionization_Penalty>
0.0696512

> <r_epik_Ionization_Penalty_Charging>
0

> <r_epik_Ionization_Penalty_Neutral>
0.0696512

> <r_epik_State_Penalty>
0.0610247

> <r_epik_Charging_Adjusted_Penalty>
0.0610247

> <i_epik_Tot_Q>
0

> <i_epik_Tot_abs_Q>
0

> <r_epik_Metal_State_Penalty>
6.42746e-05

> <b_epik_Metal_Only>
0

> <s_lp_Force_Field>
OPLS_2005

> <r_lp_Energy>
12.7977

> <b_lp_Chiralities_Consistent>
1

> <s_lp_Variant>
AV-unprocessed.smi:392-1

> <Gold.Version>
5.8.1

> <Gold.Id.Protein>
6NUR|6NUR_protein|mol2

> <Gold.PLP.Fitness>
48.3951

> <Gold.PLP.PLP>
-46.0768

> <Gold.PLP.part.hbond>
0.0000

> <Gold.PLP.part.metal>
0.0000

> <Gold.PLP.part.buried>
-0.0967

> <Gold.PLP.part.nonpolar>
-44.3054

> <Gold.PLP.part.repulsive>
0.1636

> <Gold.PLP.ligand.clash>
0.0000

> <Gold.PLP.ligand.torsion>
0.3849

> <Gold.PLP.Chemscore.Hbond>
0.0000

> <Gold.PLP.Chemscore.CHOScore>
1.0226

> <Gold.PLP.Chemscore.Metal>
0.0000

> <Gold.Chemscore.Hbonds>
donor molecule, donor type, donor heavy atom, donor atom, acceptor molecule, acceptor atom, score
      L1  C     5    24       P1  8028  0.05
      L1  C     5    24       P1  8029  1.00

> <Gold.PLP.Chemscore.Internal.Correction>
0.0203

> <Gold.Rescore>
     Score         DG    S(hbond)    S(metal)    S(lipo)     H(rot)  DE(clash)    DE(int)     intcor
     13.56     -15.57       0.00        0.00     128.11       1.91       1.80       0.22       ----

> <Gold.Chemscore.Fitness>
13.5559

> <Gold.Chemscore.DG>
-15.5748

> <Gold.Chemscore.ZeroCoef>
-5.4800

> <Gold.Chemscore.Hbond>
0.0000

> <Gold.Chemscore.Metal>
0.0000

> <Gold.Chemscore.Lipo>
128.1067

> <Gold.Chemscore.Internal_Hbond>
0.0000

> <Gold.Chemscore.DEClash>
1.7999

> <Gold.Chemscore.DEInternal>
0.2190

> <Gold.Chemscore.Rot>
1.9116

> <Gold.Chemscore.Internal.Correction>
   9.000000E+99

> <Gold.Chemscore.Hbond.Weighted>
-0.0000

> <Gold.Chemscore.Metal.Weighted>
-0.0000

> <Gold.Chemscore.Lipo.Weighted>
-14.9885

> <Gold.Chemscore.Internal_Hbond.Weighted>
0.0000

> <Gold.Chemscore.DEClash.Weighted>
1.7999

> <Gold.Chemscore.DEInternal.Weighted>
0.2190

> <Gold.Chemscore.Rot.Weighted>
4.8937

> <Gold.Chemscore.Internal.Correction.Weighted>
   9.000000E+99

> <Gold.Protein.RotatedTorsions>
[ 6907 6896 6895 6894 ] final   97.95 input  -60.11 | X-H torsion
[ 7974 7965 7964 7962 ] final  126.15 input  175.53 | X-H torsion
[ 8008 7997 7996 7995 ] final -111.68 input   59.86 | X-H torsion
[ 10167 10162 10161 10158 ] final -129.23 input  -65.29 | X-H torsion
[ 10718 10713 10712 10709 ] final   48.05 input   66.30 | X-H torsion
[ 10763 10752 10751 10750 ] final   47.47 input  -60.55 | X-H torsion
[ 11005 11000 10999 10996 ] final  -45.46 input  -57.11 | X-H torsion

> <Gold.Protein.ActiveResidues>
 VAL166  LYS551  ARG553  GLY616  TRP617  ASP618  TYR619  PRO620  LYS621  CYS622 
 ASP623  PHE694  ASN695  SER759  ASP760  ASP761  ALA762  ILE779  LEU786  VAL792 
 PHE793  MET794  SER795  GLU796  ALA797  LYS798  CYS799  TRP800  GLU811  SER814 

> <Gold.Protein.RotatedAtoms>
  152.5416  134.0655  159.8170 H   0  0  0  0  0  0  0  0  0  0  0  0  # atno 6907 bound_to 6896
  151.0777  133.5407  159.2630 H   0  0  0  0  0  0  0  0  0  0  0  0  # atno 6908 bound_to 6896
  151.2246  135.0540  159.9017 H   0  0  0  0  0  0  0  0  0  0  0  0  # atno 6909 bound_to 6896
  145.0650  139.3775  143.4987 H   0  0  0  0  0  0  0  0  0  0  0  0  # atno 7974 bound_to 7965
  154.9935  140.0395  157.2329 H   0  0  0  0  0  0  0  0  0  0  0  0  # atno 8008 bound_to 7997
  154.7607  140.2784  155.6193 H   0  0  0  0  0  0  0  0  0  0  0  0  # atno 8009 bound_to 7997
  156.2903  140.2629  156.2385 H   0  0  0  0  0  0  0  0  0  0  0  0  # atno 8010 bound_to 7997
  139.9420  143.6152  152.2501 H   0  0  0  0  0  0  0  0  0  0  0  0  # atno 10167 bound_to 10162
  157.4647  130.8218  149.7924 H   0  0  0  0  0  0  0  0  0  0  0  0  # atno 10718 bound_to 10713
  152.9800  135.5975  154.3768 H   0  0  0  0  0  0  0  0  0  0  0  0  # atno 10763 bound_to 10752
  154.3436  135.2767  155.2411 H   0  0  0  0  0  0  0  0  0  0  0  0  # atno 10764 bound_to 10752
  154.4482  135.5996  153.6229 H   0  0  0  0  0  0  0  0  0  0  0  0  # atno 10765 bound_to 10752
  141.0517  133.6740  156.3017 H   0  0  0  0  0  0  0  0  0  0  0  0  # atno 11005 bound_to 11000
  146.3526  140.0366  142.8646 LP  0  0  0  0  0  0  0  0  0  0  0  0  # atno 17320 bound_to 7965
  145.1362  140.9546  143.4515 LP  0  0  0  0  0  0  0  0  0  0  0  0  # atno 17321 bound_to 7965
  139.6697  144.7661  151.1806 LP  0  0  0  0  0  0  0  0  0  0  0  0  # atno 17342 bound_to 10162
  140.7608  143.5884  150.8822 LP  0  0  0  0  0  0  0  0  0  0  0  0  # atno 17343 bound_to 10162
  156.0045  130.3863  150.2482 LP  0  0  0  0  0  0  0  0  0  0  0  0  # atno 17370 bound_to 10713
  157.0661  131.0104  151.3206 LP  0  0  0  0  0  0  0  0  0  0  0  0  # atno 17371 bound_to 10713
  140.6043  134.5523  157.5523 LP  0  0  0  0  0  0  0  0  0  0  0  0  # atno 17394 bound_to 11000
  139.9356  134.7882  156.0813 LP  0  0  0  0  0  0  0  0  0  0  0  0  # atno 17395 bound_to 11000

$$$$
