AV-unprocessed.smi:996|AV-procd|sdf|4347|dock3
  -GOLD-   22720 2243D 1   1.00000     0.00000
 Structure written by MMmdl.
 22 23  0  0  0  0  0  0  0  0  1 V2000
  152.7670  139.6989  157.8950 O   0  0  0  0  0  0  0  0  0  0  0  0
  152.5010  140.8205  158.3231 C   0  0  0  0  0  0  0  0  0  0  0  0
  152.9487  141.3376  159.5119 O   0  0  0  0  0  0  0  0  0  0  0  0
  152.4419  142.5948  159.6657 C   0  0  0  0  0  0  0  0  0  0  0  0
  152.6176  143.5026  160.7236 C   0  0  0  0  0  0  0  0  0  0  0  0
  151.9623  144.7532  160.6314 C   0  0  0  0  0  0  0  0  0  0  0  0
  151.1581  145.0699  159.5063 C   0  0  0  0  0  0  0  0  0  0  0  0
  150.9949  144.1422  158.4517 C   0  0  0  0  0  0  0  0  0  0  0  0
  151.6607  142.9107  158.5742 C   0  0  0  0  0  0  0  0  0  0  0  0
  151.7038  141.8036  157.7310 N   0  0  0  0  0  0  0  0  0  0  0  0
  151.0096  141.6711  156.4544 C   0  0  0  0  0  0  0  0  0  0  0  0
  149.4873  141.6669  156.6514 C   0  0  0  0  0  0  0  0  0  0  0  0
  148.8494  142.0121  155.4414 O   0  0  0  0  0  0  0  0  0  0  0  0
  153.2301  143.2536  161.5774 H   0  0  0  0  0  0  0  0  0  0  0  0
  152.0749  145.4747  161.4272 H   0  0  0  0  0  0  0  0  0  0  0  0
  150.6651  146.0294  159.4545 H   0  0  0  0  0  0  0  0  0  0  0  0
  150.3835  144.3734  157.5920 H   0  0  0  0  0  0  0  0  0  0  0  0
  151.3039  142.4892  155.7957 H   0  0  0  0  0  0  0  0  0  0  0  0
  151.3270  140.7520  155.9591 H   0  0  0  0  0  0  0  0  0  0  0  0
  149.1404  140.6828  156.9687 H   0  0  0  0  0  0  0  0  0  0  0  0
  149.1959  142.3818  157.4216 H   0  0  0  0  0  0  0  0  0  0  0  0
  148.8198  142.9544  155.3751 H   0  0  0  0  0  0  0  0  0  0  0  0
  1  2  2  0  0  0  0
  2 10  1  0  0  0  0
  2  3  1  0  0  0  0
  3  4  1  0  0  0  0
  4  9  2  0  0  0  0
  4  5  1  0  0  0  0
  5  6  2  0  0  0  0
  5 14  1  0  0  0  0
  6  7  1  0  0  0  0
  6 15  1  0  0  0  0
  7  8  2  0  0  0  0
  7 16  1  0  0  0  0
  8  9  1  0  0  0  0
  8 17  1  0  0  0  0
  9 10  1  0  0  0  0
 10 11  1  0  0  0  0
 11 12  1  0  0  0  0
 11 18  1  0  0  0  0
 11 19  1  0  0  0  0
 12 13  1  0  0  0  0
 12 20  1  0  0  0  0
 12 21  1  0  0  0  0
 13 22  1  0  0  0  0
M  END
> <s_m_source_file>
AV-unprocessed.smi

> <i_m_source_file_index>
996

> <i_lp_mmshare_version>
43012

> <i_f3d_flags>
0

> <s_epik_input>
W09IXVtDSDJdW0NIMl1uKGMoPU8pbzEpYyhjMTIpW2NIXVtjSF1bY0hdW2NIXTI=

> <s_epik_cmdline>
J2VwaWtfcHl0aG9uJywgJy1waCcsICc3LjAnLCAnLXRuJywgJzgnLCAnLW1hJywgJzIwMCcsICctbWV0YWxfYmluZGluZycsICctaW1hZScsICc8aW5maWxlLm1hZT4nLCAnLW9tYWUnLCAnPG91dGZpbGUubWFlPic=

> <r_lp_tautomer_probability>
1

> <r_epik_Ionization_Penalty>
1.98202e-07

> <r_epik_Ionization_Penalty_Charging>
1.40767e-14

> <r_epik_Ionization_Penalty_Neutral>
1.98202e-07

> <r_epik_State_Penalty>
-0

> <r_epik_Charging_Adjusted_Penalty>
1.40767e-14

> <i_epik_Tot_Q>
0

> <i_epik_Tot_abs_Q>
0

> <r_epik_Metal_State_Penalty>
-0

> <b_epik_Metal_Only>
0

> <s_lp_Force_Field>
OPLS_2005

> <r_lp_Energy>
24.1442

> <b_lp_Chiralities_Consistent>
1

> <s_lp_Variant>
AV-unprocessed.smi:996-1

> <Gold.Version>
5.8.1

> <Gold.Id.Protein>
6NUR|6NUR_protein|mol2

> <Gold.PLP.Fitness>
36.3148

> <Gold.PLP.PLP>
-30.5850

> <Gold.PLP.part.hbond>
-2.0000

> <Gold.PLP.part.metal>
0.0000

> <Gold.PLP.part.buried>
-4.9719

> <Gold.PLP.part.nonpolar>
-23.4174

> <Gold.PLP.part.repulsive>
0.0000

> <Gold.PLP.ligand.clash>
0.0000

> <Gold.PLP.ligand.torsion>
0.1358

> <Gold.PLP.Chemscore.Hbond>
2.0000

> <Gold.PLP.Chemscore.CHOScore>
0.0000

> <Gold.PLP.Chemscore.Metal>
0.0000

> <Gold.Chemscore.Hbonds>
donor molecule, donor type, donor heavy atom, donor atom, acceptor molecule, acceptor atom, score
      L1  H    13    22       P1  8028  1.00
      P1  H  7997  8010       L1     1  0.99

> <Gold.PLP.Chemscore.Internal.Correction>
0.0013

> <Gold.Rescore>
     Score         DG    S(hbond)    S(metal)    S(lipo)     H(rot)  DE(clash)    DE(int)     intcor
     16.35     -16.60       1.93        0.00      79.06       1.79       0.16       0.08       ----

> <Gold.Chemscore.Fitness>
16.3543

> <Gold.Chemscore.DG>
-16.5954

> <Gold.Chemscore.ZeroCoef>
-5.4800

> <Gold.Chemscore.Hbond>
1.9308

> <Gold.Chemscore.Metal>
0.0000

> <Gold.Chemscore.Lipo>
79.0568

> <Gold.Chemscore.Internal_Hbond>
0.0000

> <Gold.Chemscore.DEClash>
0.1629

> <Gold.Chemscore.DEInternal>
0.0782

> <Gold.Chemscore.Rot>
1.7903

> <Gold.Chemscore.Internal.Correction>
   9.000000E+99

> <Gold.Chemscore.Hbonds>
donor molecule, donor type, donor heavy atom, donor atom, acceptor molecule, acceptor atom, score
      L1  H    13    22       P1  8028  1.00
      P1  H  7997  8010       L1     1  0.28

> <Gold.Chemscore.Hbond.Weighted>
-6.4490

> <Gold.Chemscore.Metal.Weighted>
-0.0000

> <Gold.Chemscore.Lipo.Weighted>
-9.2497

> <Gold.Chemscore.Internal_Hbond.Weighted>
0.0000

> <Gold.Chemscore.DEClash.Weighted>
0.1629

> <Gold.Chemscore.DEInternal.Weighted>
0.0782

> <Gold.Chemscore.Rot.Weighted>
4.5833

> <Gold.Chemscore.Internal.Correction.Weighted>
   9.000000E+99

> <Gold.Protein.RotatedTorsions>
[ 6907 6896 6895 6894 ] final   26.11 input  -60.11 | X-H torsion
[ 7974 7965 7964 7962 ] final   48.47 input  175.53 | X-H torsion
[ 8008 7997 7996 7995 ] final   51.92 input   59.86 | X-H torsion
[ 10167 10162 10161 10158 ] final -116.57 input  -65.29 | X-H torsion
[ 10718 10713 10712 10709 ] final  -23.66 input   66.30 | X-H torsion
[ 10763 10752 10751 10750 ] final   89.80 input  -60.55 | X-H torsion
[ 11005 11000 10999 10996 ] final   59.97 input  -57.11 | X-H torsion

> <Gold.Protein.ActiveResidues>
 VAL166  LYS551  ARG553  GLY616  TRP617  ASP618  TYR619  PRO620  LYS621  CYS622 
 ASP623  PHE694  ASN695  SER759  ASP760  ASP761  ALA762  ILE779  LEU786  VAL792 
 PHE793  MET794  SER795  GLU796  ALA797  LYS798  CYS799  TRP800  GLU811  SER814 

> <Gold.Protein.RotatedAtoms>
  151.9826  135.0021  160.0557 H   0  0  0  0  0  0  0  0  0  0  0  0  # atno 6907 bound_to 6896
  152.1682  133.4621  159.4904 H   0  0  0  0  0  0  0  0  0  0  0  0  # atno 6908 bound_to 6896
  150.6897  134.1904  159.4326 H   0  0  0  0  0  0  0  0  0  0  0  0  # atno 6909 bound_to 6896
  146.0201  139.4641  142.9902 H   0  0  0  0  0  0  0  0  0  0  0  0  # atno 7974 bound_to 7965
  155.4433  140.3455  155.4292 H   0  0  0  0  0  0  0  0  0  0  0  0  # atno 8008 bound_to 7997
  156.1265  140.1502  156.9158 H   0  0  0  0  0  0  0  0  0  0  0  0  # atno 8009 bound_to 7997
  154.4862  140.0854  156.7472 H   0  0  0  0  0  0  0  0  0  0  0  0  # atno 8010 bound_to 7997
  140.0778  143.4816  152.1943 H   0  0  0  0  0  0  0  0  0  0  0  0  # atno 10167 bound_to 10162
  156.4881  130.4560  149.6772 H   0  0  0  0  0  0  0  0  0  0  0  0  # atno 10718 bound_to 10713
  153.1908  135.4457  155.0147 H   0  0  0  0  0  0  0  0  0  0  0  0  # atno 10763 bound_to 10752
  154.8089  135.3286  154.7360 H   0  0  0  0  0  0  0  0  0  0  0  0  # atno 10764 bound_to 10752
  153.7814  135.6977  153.4943 H   0  0  0  0  0  0  0  0  0  0  0  0  # atno 10765 bound_to 10752
  140.0265  134.6075  155.9566 H   0  0  0  0  0  0  0  0  0  0  0  0  # atno 11005 bound_to 11000
  145.7207  141.0076  143.1404 LP  0  0  0  0  0  0  0  0  0  0  0  0  # atno 17320 bound_to 7965
  144.6986  139.8867  143.7450 LP  0  0  0  0  0  0  0  0  0  0  0  0  # atno 17321 bound_to 7965
  139.5798  144.7505  151.3671 LP  0  0  0  0  0  0  0  0  0  0  0  0  # atno 17342 bound_to 10162
  140.7093  143.7432  150.7538 LP  0  0  0  0  0  0  0  0  0  0  0  0  # atno 17343 bound_to 10162
  156.3454  130.7404  151.2355 LP  0  0  0  0  0  0  0  0  0  0  0  0  # atno 17370 bound_to 10713
  157.7476  131.0392  150.4539 LP  0  0  0  0  0  0  0  0  0  0  0  0  # atno 17371 bound_to 10713
  141.1806  133.6546  156.5003 LP  0  0  0  0  0  0  0  0  0  0  0  0  # atno 17394 bound_to 11000
  140.4298  134.7112  157.4935 LP  0  0  0  0  0  0  0  0  0  0  0  0  # atno 17395 bound_to 11000

$$$$
