AV-unprocessed.smi:1978|AV-procd|sdf|8013|dock10
  -GOLD-   2272010203D 1   1.00000     0.00000
 Structure written by MMmdl.
 44 45  0  0  0  0  0  0  0  0  3 V2000
  152.0407  139.7394  155.7261 C   0  0  0  0  0  0  0  0  0  0  0  0
  151.5266  138.3627  155.4796 C   0  0  0  0  0  0  0  0  0  0  0  0
  150.4498  137.8811  154.7901 C   0  0  0  0  0  0  0  0  0  0  0  0
  150.5633  136.4752  154.9581 C   0  0  0  0  0  0  0  0  0  0  0  0
  149.6119  135.5975  154.3745 N   0  0  0  0  0  0  0  0  0  0  0  0
  149.2912  134.3424  154.7372 C   0  0  0  0  0  0  0  0  0  0  0  0
  149.8605  133.8033  155.6937 O   0  0  0  0  0  0  0  0  0  0  0  0
  148.3170  133.8103  153.9483 N   0  5  0  0  0  0  0  0  0  0  0  0
  147.8639  132.4194  154.0027 C   0  0  0  0  0  0  0  0  0  0  0  0
  146.3871  132.3262  154.5168 C   0  0  1  0  0  0  0  0  0  0  0  0
  146.1604  133.0817  155.8494 C   0  0  0  0  0  0  0  0  0  0  0  0
  145.3250  132.6998  153.5106 N   0  3  1  0  0  0  0  0  0  0  0  0
  145.0200  134.1629  153.4125 C   0  0  0  0  0  0  0  0  0  0  0  0
  143.7042  134.4132  152.6639 C   0  0  0  0  0  0  0  0  0  0  0  0
  143.7605  133.7993  151.2640 C   0  0  0  0  0  0  0  0  0  0  0  0
  144.0881  132.3069  151.3707 C   0  0  0  0  0  0  0  0  0  0  0  0
  145.3950  132.0505  152.1534 C   0  0  2  0  0  0  0  0  0  0  0  0
  145.6472  130.5289  152.2004 C   0  0  0  0  0  0  0  0  0  0  0  0
  151.6123  136.1314  155.6908 N   0  0  0  0  0  0  0  0  0  0  0  0
  152.2347  137.3388  156.0283 O   0  0  0  0  0  0  0  0  0  0  0  0
  151.4803  140.4744  155.1479 H   0  0  0  0  0  0  0  0  0  0  0  0
  153.0905  139.8158  155.4427 H   0  0  0  0  0  0  0  0  0  0  0  0
  151.9542  140.0004  156.7807 H   0  0  0  0  0  0  0  0  0  0  0  0
  149.7037  138.4443  154.2495 H   0  0  0  0  0  0  0  0  0  0  0  0
  149.1116  135.9646  153.5787 H   0  0  0  0  0  0  0  0  0  0  0  0
  147.9275  131.9442  153.0236 H   0  0  0  0  0  0  0  0  0  0  0  0
  148.5054  131.8199  154.6494 H   0  0  0  0  0  0  0  0  0  0  0  0
  146.2003  131.2877  154.7823 H   0  0  0  0  0  0  0  0  0  0  0  0
  146.7401  132.6459  156.6655 H   0  0  0  0  0  0  0  0  0  0  0  0
  145.1138  133.0255  156.1503 H   0  0  0  0  0  0  0  0  0  0  0  0
  146.4286  134.1378  155.7974 H   0  0  0  0  0  0  0  0  0  0  0  0
  144.9371  134.6120  154.4007 H   0  0  0  0  0  0  0  0  0  0  0  0
  145.8295  134.6836  152.8988 H   0  0  0  0  0  0  0  0  0  0  0  0
  142.8717  133.9857  153.2248 H   0  0  0  0  0  0  0  0  0  0  0  0
  143.5135  135.4845  152.5923 H   0  0  0  0  0  0  0  0  0  0  0  0
  142.8088  133.9410  150.7509 H   0  0  0  0  0  0  0  0  0  0  0  0
  144.5195  134.3049  150.6653 H   0  0  0  0  0  0  0  0  0  0  0  0
  143.2607  131.7901  151.8593 H   0  0  0  0  0  0  0  0  0  0  0  0
  144.1636  131.8847  150.3678 H   0  0  0  0  0  0  0  0  0  0  0  0
  146.2117  132.5083  151.5933 H   0  0  0  0  0  0  0  0  0  0  0  0
  145.5494  130.0873  151.2084 H   0  0  0  0  0  0  0  0  0  0  0  0
  144.9353  130.0255  152.8552 H   0  0  0  0  0  0  0  0  0  0  0  0
  146.6540  130.2885  152.5399 H   0  0  0  0  0  0  0  0  0  0  0  0
  144.4903  132.3023  153.9162 H   0  0  0  0  0  0  0  0  0  0  0  0
  1  2  1  0  0  0  0
  1 21  1  0  0  0  0
  1 22  1  0  0  0  0
  1 23  1  0  0  0  0
  2 20  1  0  0  0  0
  2  3  2  0  0  0  0
  3  4  1  0  0  0  0
  3 24  1  0  0  0  0
  4  5  1  0  0  0  0
  4 19  2  0  0  0  0
  5  6  1  0  0  0  0
  5 25  1  0  0  0  0
  6  7  2  0  0  0  0
  6  8  1  0  0  0  0
  8  9  1  0  0  0  0
  9 10  1  0  0  0  0
  9 26  1  0  0  0  0
  9 27  1  0  0  0  0
 10 11  1  0  0  0  0
 10 12  1  0  0  0  0
 10 28  1  0  0  0  0
 11 29  1  0  0  0  0
 11 30  1  0  0  0  0
 11 31  1  0  0  0  0
 12 17  1  0  0  0  0
 12 13  1  0  0  0  0
 12 44  1  0  0  0  0
 13 14  1  0  0  0  0
 13 32  1  0  0  0  0
 13 33  1  0  0  0  0
 14 15  1  0  0  0  0
 14 34  1  0  0  0  0
 14 35  1  0  0  0  0
 15 16  1  0  0  0  0
 15 36  1  0  0  0  0
 15 37  1  0  0  0  0
 16 17  1  0  0  0  0
 16 38  1  0  0  0  0
 16 39  1  0  0  0  0
 17 18  1  0  0  0  0
 17 40  1  0  0  0  0
 18 41  1  0  0  0  0
 18 42  1  0  0  0  0
 18 43  1  0  0  0  0
 19 20  1  0  0  0  0
M  CHG  1   8  -1
M  CHG  1  12   1
M  END
> <s_m_source_file>
AV-unprocessed.smi

> <i_m_source_file_index>
1978

> <i_lp_mmshare_version>
43012

> <i_f3d_flags>
0

> <s_epik_input>
W0NIM11jMVtjSF1jKG5vMSlbTkhdQyg9TylbTkhdW0NIMl1bQ0BIXShbQ0gzXSlOMltDSDJdW0NIMl1bQ0gyXVtDSDJdW0NASF0yW0NIM10=

> <s_epik_cmdline>
J2VwaWtfcHl0aG9uJywgJy1waCcsICc3LjAnLCAnLXRuJywgJzgnLCAnLW1hJywgJzIwMCcsICctbWV0YWxfYmluZGluZycsICctaW1hZScsICc8aW5maWxlLm1hZT4nLCAnLW9tYWUnLCAnPG91dGZpbGUubWFlPic=

> <r_epik_Ionization_Penalty>
6.7666

> <r_epik_Ionization_Penalty_Charging>
6.7666

> <r_epik_Ionization_Penalty_Neutral>
5.77131e-06

> <r_epik_State_Penalty>
6.79217

> <r_epik_Charging_Adjusted_Penalty>
13.5588

> <i_epik_Tot_Q>
0

> <i_epik_Tot_abs_Q>
2

> <r_epik_Metal_State_Penalty>
2.72569

> <b_epik_Metal_Only>
1

> <s_lp_Force_Field>
OPLS_2005

> <r_lp_Energy>
22.3243

> <b_lp_Chiralities_Consistent>
1

> <s_lp_Variant>
AV-unprocessed.smi:1978-22

> <Gold.Version>
5.8.1

> <Gold.Id.Protein>
6NUR|6NUR_protein|mol2

> <Gold.PLP.Fitness>
39.6814

> <Gold.PLP.PLP>
-29.9561

> <Gold.PLP.part.hbond>
-4.2418

> <Gold.PLP.part.metal>
0.0000

> <Gold.PLP.part.buried>
-4.6873

> <Gold.PLP.part.nonpolar>
-22.9652

> <Gold.PLP.part.repulsive>
0.2817

> <Gold.PLP.ligand.clash>
0.0000

> <Gold.PLP.ligand.torsion>
0.4488

> <Gold.PLP.Chemscore.Hbond>
3.4700

> <Gold.PLP.Chemscore.CHOScore>
0.0000

> <Gold.PLP.Chemscore.Metal>
0.0000

> <Gold.Chemscore.Hbonds>
donor molecule, donor type, donor heavy atom, donor atom, acceptor molecule, acceptor atom, score
      L1  H     5    25       P1  7948  0.99
      L1  H    12    44       P1 10957  1.79
      P1  H 10752 10763       L1    19  0.75

> <Gold.PLP.Chemscore.Internal.Correction>
0.2129

> <Gold.Rescore>
     Score         DG    S(hbond)    S(metal)    S(lipo)     H(rot)  DE(clash)    DE(int)     intcor
     12.74     -14.39       1.61        0.00      63.36       1.52       0.02       1.62       ----

> <Gold.Chemscore.Fitness>
12.7420

> <Gold.Chemscore.DG>
-14.3855

> <Gold.Chemscore.ZeroCoef>
-5.4800

> <Gold.Chemscore.Hbond>
1.6110

> <Gold.Chemscore.Metal>
0.0000

> <Gold.Chemscore.Lipo>
63.3618

> <Gold.Chemscore.Internal_Hbond>
0.0000

> <Gold.Chemscore.DEClash>
0.0195

> <Gold.Chemscore.DEInternal>
1.6240

> <Gold.Chemscore.Rot>
1.5190

> <Gold.Chemscore.Internal.Correction>
   9.000000E+99

> <Gold.Chemscore.Hbonds>
donor molecule, donor type, donor heavy atom, donor atom, acceptor molecule, acceptor atom, score
      L1  H     5    25       P1  7948  0.83
      L1  H    12    44       P1 10957  0.22
      P1  H 10752 10763       L1    19  0.07

> <Gold.Chemscore.Hbond.Weighted>
-5.3808

> <Gold.Chemscore.Metal.Weighted>
-0.0000

> <Gold.Chemscore.Lipo.Weighted>
-7.4133

> <Gold.Chemscore.Internal_Hbond.Weighted>
0.0000

> <Gold.Chemscore.DEClash.Weighted>
0.0195

> <Gold.Chemscore.DEInternal.Weighted>
1.6240

> <Gold.Chemscore.Rot.Weighted>
3.8886

> <Gold.Chemscore.Internal.Correction.Weighted>
   9.000000E+99

> <Gold.Protein.RotatedTorsions>
[ 6907 6896 6895 6894 ] final  118.02 input  -60.11 | X-H torsion
[ 7974 7965 7964 7962 ] final  -73.00 input  175.53 | X-H torsion
[ 8008 7997 7996 7995 ] final -126.28 input   59.86 | X-H torsion
[ 10167 10162 10161 10158 ] final  -80.12 input  -65.29 | X-H torsion
[ 10718 10713 10712 10709 ] final    4.68 input   66.30 | X-H torsion
[ 10763 10752 10751 10750 ] final   60.38 input  -60.55 | X-H torsion
[ 11005 11000 10999 10996 ] final   87.22 input  -57.11 | X-H torsion

> <Gold.Protein.ActiveResidues>
 VAL166  LYS551  ARG553  GLY616  TRP617  ASP618  TYR619  PRO620  LYS621  CYS622 
 ASP623  PHE694  ASN695  SER759  ASP760  ASP761  ALA762  ILE779  LEU786  VAL792 
 PHE793  MET794  SER795  GLU796  ALA797  LYS798  CYS799  TRP800  GLU811  SER814 

> <Gold.Protein.RotatedAtoms>
  152.4572  133.7747  159.6817 H   0  0  0  0  0  0  0  0  0  0  0  0  # atno 6907 bound_to 6896
  150.8502  133.7788  159.3034 H   0  0  0  0  0  0  0  0  0  0  0  0  # atno 6908 bound_to 6896
  151.5386  135.1071  159.9972 H   0  0  0  0  0  0  0  0  0  0  0  0  # atno 6909 bound_to 6896
  145.6579  140.9262  143.0950 H   0  0  0  0  0  0  0  0  0  0  0  0  # atno 7974 bound_to 7965
  155.2270  140.0424  157.2957 H   0  0  0  0  0  0  0  0  0  0  0  0  # atno 8008 bound_to 7997
  154.5913  140.2427  155.7888 H   0  0  0  0  0  0  0  0  0  0  0  0  # atno 8009 bound_to 7997
  156.2260  140.2954  156.0078 H   0  0  0  0  0  0  0  0  0  0  0  0  # atno 8010 bound_to 7997
  140.4532  143.2476  151.8459 H   0  0  0  0  0  0  0  0  0  0  0  0  # atno 10167 bound_to 10162
  156.8961  130.5705  149.5649 H   0  0  0  0  0  0  0  0  0  0  0  0  # atno 10718 bound_to 10713
  152.9919  135.5538  154.5865 H   0  0  0  0  0  0  0  0  0  0  0  0  # atno 10763 bound_to 10752
  154.5235  135.2809  155.1244 H   0  0  0  0  0  0  0  0  0  0  0  0  # atno 10764 bound_to 10752
  154.2588  135.6385  153.5319 H   0  0  0  0  0  0  0  0  0  0  0  0  # atno 10765 bound_to 10752
  139.8925  134.8408  156.2830 H   0  0  0  0  0  0  0  0  0  0  0  0  # atno 11005 bound_to 11000
  144.7099  139.8410  143.7418 LP  0  0  0  0  0  0  0  0  0  0  0  0  # atno 17320 bound_to 7965
  146.1150  139.4160  143.0264 LP  0  0  0  0  0  0  0  0  0  0  0  0  # atno 17321 bound_to 7965
  139.4798  144.5096  151.8951 LP  0  0  0  0  0  0  0  0  0  0  0  0  # atno 17342 bound_to 10162
  140.4183  144.2278  150.5887 LP  0  0  0  0  0  0  0  0  0  0  0  0  # atno 17343 bound_to 10162
  156.0605  130.5658  150.9182 LP  0  0  0  0  0  0  0  0  0  0  0  0  # atno 17370 bound_to 10713
  157.6054  131.0939  150.8888 LP  0  0  0  0  0  0  0  0  0  0  0  0  # atno 17371 bound_to 10713
  141.0026  133.7142  156.0985 LP  0  0  0  0  0  0  0  0  0  0  0  0  # atno 17394 bound_to 11000
  140.7477  134.4080  157.5546 LP  0  0  0  0  0  0  0  0  0  0  0  0  # atno 17395 bound_to 11000

$$$$
