AV-unprocessed.smi:1761|AV-procd|sdf|7097|dock7
  -GOLD-   22720 8313D 1   1.00000     0.00000
 Structure written by MMmdl.
 34 35  0  0  0  0  0  0  0  0  1 V2000
  144.9375  137.3108  153.2542 O   0  0  0  0  0  0  0  0  0  0  0  0
  146.0378  136.9226  152.8606 C   0  0  0  0  0  0  0  0  0  0  0  0
  146.2669  135.7766  152.1953 N   0  0  0  0  0  0  0  0  0  0  0  0
  145.3327  134.7709  151.8287 C   0  0  0  0  0  0  0  0  0  0  0  0
  145.6410  134.0730  150.6390 C   0  0  0  0  0  0  0  0  0  0  0  0
  144.7802  133.0522  150.1911 C   0  0  0  0  0  0  0  0  0  0  0  0
  143.6316  132.7545  150.9458 C   0  0  0  0  0  0  0  0  0  0  0  0
  143.3976  133.4973  152.1175 C   0  0  0  0  0  0  0  0  0  0  0  0
  144.2211  134.4764  152.5484 N   0  0  0  0  0  0  0  0  0  0  0  0
  147.1748  137.6076  153.0519 N   0  0  0  0  0  0  0  0  0  0  0  0
  147.2832  138.8893  153.7463 C   0  0  2  0  0  0  0  0  0  0  0  0
  146.9873  140.0520  152.7789 C   0  0  0  0  0  0  0  0  0  0  0  0
  147.0885  141.4099  153.4927 C   0  0  0  0  0  0  0  0  0  0  0  0
  148.4594  141.5896  154.1638 C   0  0  0  0  0  0  0  0  0  0  0  0
  148.7742  140.4286  155.1248 C   0  0  0  0  0  0  0  0  0  0  0  0
  148.6599  139.0544  154.4367 C   0  0  2  0  0  0  0  0  0  0  0  0
  149.7138  138.9183  153.5006 O   0  0  0  0  0  0  0  0  0  0  0  0
  147.2235  135.5974  151.9287 H   0  0  0  0  0  0  0  0  0  0  0  0
  146.5287  134.3131  150.0721 H   0  0  0  0  0  0  0  0  0  0  0  0
  144.9990  132.5069  149.2851 H   0  0  0  0  0  0  0  0  0  0  0  0
  142.9484  131.9779  150.6350 H   0  0  0  0  0  0  0  0  0  0  0  0
  142.5270  133.3006  152.7256 H   0  0  0  0  0  0  0  0  0  0  0  0
  148.0330  137.2140  152.6950 H   0  0  0  0  0  0  0  0  0  0  0  0
  146.5139  138.9147  154.5207 H   0  0  0  0  0  0  0  0  0  0  0  0
  147.6841  140.0285  151.9400 H   0  0  0  0  0  0  0  0  0  0  0  0
  145.9896  139.9389  152.3533 H   0  0  0  0  0  0  0  0  0  0  0  0
  146.9158  142.2173  152.7806 H   0  0  0  0  0  0  0  0  0  0  0  0
  146.3017  141.4870  154.2441 H   0  0  0  0  0  0  0  0  0  0  0  0
  149.2340  141.6537  153.3986 H   0  0  0  0  0  0  0  0  0  0  0  0
  148.4856  142.5353  154.7056 H   0  0  0  0  0  0  0  0  0  0  0  0
  149.7699  140.5556  155.5519 H   0  0  0  0  0  0  0  0  0  0  0  0
  148.0776  140.4644  155.9634 H   0  0  0  0  0  0  0  0  0  0  0  0
  148.7908  138.2743  155.1876 H   0  0  0  0  0  0  0  0  0  0  0  0
  149.5391  139.4926  152.7710 H   0  0  0  0  0  0  0  0  0  0  0  0
  1  2  2  0  0  0  0
  2  3  1  0  0  0  0
  2 10  1  0  0  0  0
  3  4  1  0  0  0  0
  3 18  1  0  0  0  0
  4  9  1  0  0  0  0
  4  5  2  0  0  0  0
  5  6  1  0  0  0  0
  5 19  1  0  0  0  0
  6  7  2  0  0  0  0
  6 20  1  0  0  0  0
  7  8  1  0  0  0  0
  7 21  1  0  0  0  0
  8  9  2  0  0  0  0
  8 22  1  0  0  0  0
 10 11  1  0  0  0  0
 10 23  1  0  0  0  0
 11 16  1  0  0  0  0
 11 12  1  0  0  0  0
 11 24  1  0  0  0  0
 12 13  1  0  0  0  0
 12 25  1  0  0  0  0
 12 26  1  0  0  0  0
 13 14  1  0  0  0  0
 13 27  1  0  0  0  0
 13 28  1  0  0  0  0
 14 15  1  0  0  0  0
 14 29  1  0  0  0  0
 14 30  1  0  0  0  0
 15 16  1  0  0  0  0
 15 31  1  0  0  0  0
 15 32  1  0  0  0  0
 16 17  1  0  0  0  0
 16 33  1  0  0  0  0
 17 34  1  0  0  0  0
M  END
> <s_m_source_file>
AV-unprocessed.smi

> <i_m_source_file_index>
1761

> <i_lp_mmshare_version>
43012

> <i_f3d_flags>
0

> <s_epik_input>
bjFbY0hdW2NIXVtjSF1bY0hdYzFbTkhdQyg9TylbTkhdW0NAQEhdMltDSDJdW0NIMl1bQ0gyXVtDSDJdW0NASF0yW09IXQ==

> <s_epik_cmdline>
J2VwaWtfcHl0aG9uJywgJy1waCcsICc3LjAnLCAnLXRuJywgJzgnLCAnLW1hJywgJzIwMCcsICctbWV0YWxfYmluZGluZycsICctaW1hZScsICc8aW5maWxlLm1hZT4nLCAnLW9tYWUnLCAnPG91dGZpbGUubWFlPic=

> <r_lp_tautomer_probability>
1

> <r_epik_Ionization_Penalty>
4.92589e-05

> <r_epik_Ionization_Penalty_Charging>
0

> <r_epik_Ionization_Penalty_Neutral>
4.92589e-05

> <r_epik_State_Penalty>
-0

> <r_epik_Charging_Adjusted_Penalty>
0

> <i_epik_Tot_Q>
0

> <i_epik_Tot_abs_Q>
0

> <r_epik_Metal_State_Penalty>
-0

> <b_epik_Metal_Only>
0

> <s_lp_Force_Field>
OPLS_2005

> <r_lp_Energy>
15.389

> <b_lp_Chiralities_Consistent>
1

> <s_lp_Variant>
AV-unprocessed.smi:1761-3

> <Gold.Version>
5.8.1

> <Gold.Id.Protein>
6NUR|6NUR_protein|mol2

> <Gold.PLP.Fitness>
37.3742

> <Gold.PLP.PLP>
-27.0352

> <Gold.PLP.part.hbond>
-3.4431

> <Gold.PLP.part.metal>
0.0000

> <Gold.PLP.part.buried>
-1.8396

> <Gold.PLP.part.nonpolar>
-22.3677

> <Gold.PLP.part.repulsive>
0.3222

> <Gold.PLP.ligand.clash>
0.0000

> <Gold.PLP.ligand.torsion>
0.5578

> <Gold.PLP.Chemscore.Hbond>
2.9760

> <Gold.PLP.Chemscore.CHOScore>
0.8378

> <Gold.PLP.Chemscore.Metal>
0.0000

> <Gold.Chemscore.Hbonds>
donor molecule, donor type, donor heavy atom, donor atom, acceptor molecule, acceptor atom, score
      L1  H     3    18       P1  7948  0.96
      L1  H    10    23       P1  7948  1.00
      L1  H    17    34       P1  7957  1.00
      L1  C     8    22       P1 10957  0.79

> <Gold.PLP.Chemscore.Internal.Correction>
0.0130

> <Gold.Rescore>
     Score         DG    S(hbond)    S(metal)    S(lipo)     H(rot)  DE(clash)    DE(int)     intcor
     17.61     -19.28       2.90        0.00      67.31       1.47       0.03       1.63       ----

> <Gold.Chemscore.Fitness>
17.6099

> <Gold.Chemscore.DG>
-19.2775

> <Gold.Chemscore.ZeroCoef>
-5.4800

> <Gold.Chemscore.Hbond>
2.8962

> <Gold.Chemscore.Metal>
0.0000

> <Gold.Chemscore.Lipo>
67.3110

> <Gold.Chemscore.Internal_Hbond>
0.0000

> <Gold.Chemscore.DEClash>
0.0341

> <Gold.Chemscore.DEInternal>
1.6336

> <Gold.Chemscore.Rot>
1.4653

> <Gold.Chemscore.Internal.Correction>
   9.000000E+99

> <Gold.Chemscore.Hbonds>
donor molecule, donor type, donor heavy atom, donor atom, acceptor molecule, acceptor atom, score
      L1  H     3    18       P1  7948  0.92
      L1  H    10    23       P1  7948  0.97
      L1  H    17    34       P1  7957  0.98

> <Gold.Chemscore.Hbond.Weighted>
-9.6733

> <Gold.Chemscore.Metal.Weighted>
-0.0000

> <Gold.Chemscore.Lipo.Weighted>
-7.8754

> <Gold.Chemscore.Internal_Hbond.Weighted>
0.0000

> <Gold.Chemscore.DEClash.Weighted>
0.0341

> <Gold.Chemscore.DEInternal.Weighted>
1.6336

> <Gold.Chemscore.Rot.Weighted>
3.7511

> <Gold.Chemscore.Internal.Correction.Weighted>
   9.000000E+99

> <Gold.Protein.RotatedTorsions>
[ 6907 6896 6895 6894 ] final  150.93 input  -60.11 | X-H torsion
[ 7974 7965 7964 7962 ] final   83.72 input  175.53 | X-H torsion
[ 8008 7997 7996 7995 ] final  147.37 input   59.86 | X-H torsion
[ 10167 10162 10161 10158 ] final   58.18 input  -65.29 | X-H torsion
[ 10718 10713 10712 10709 ] final  -22.13 input   66.30 | X-H torsion
[ 10763 10752 10751 10750 ] final -102.07 input  -60.55 | X-H torsion
[ 11005 11000 10999 10996 ] final  -64.34 input  -57.11 | X-H torsion

> <Gold.Protein.ActiveResidues>
 VAL166  LYS551  ARG553  GLY616  TRP617  ASP618  TYR619  PRO620  LYS621  CYS622 
 ASP623  PHE694  ASN695  SER759  ASP760  ASP761  ALA762  ILE779  LEU786  VAL792 
 PHE793  MET794  SER795  GLU796  ALA797  LYS798  CYS799  TRP800  GLU811  SER814 

> <Gold.Protein.RotatedAtoms>
  152.1076  133.4283  159.4615 H   0  0  0  0  0  0  0  0  0  0  0  0  # atno 6907 bound_to 6896
  150.6866  134.2686  159.4588 H   0  0  0  0  0  0  0  0  0  0  0  0  # atno 6908 bound_to 6896
  152.0552  134.9628  160.0625 H   0  0  0  0  0  0  0  0  0  0  0  0  # atno 6909 bound_to 6896
  145.6082  139.2363  143.2207 H   0  0  0  0  0  0  0  0  0  0  0  0  # atno 7974 bound_to 7965
  156.2827  140.2157  156.5527 H   0  0  0  0  0  0  0  0  0  0  0  0  # atno 8008 bound_to 7997
  154.7278  140.0498  157.0721 H   0  0  0  0  0  0  0  0  0  0  0  0  # atno 8009 bound_to 7997
  155.0393  140.3144  155.4733 H   0  0  0  0  0  0  0  0  0  0  0  0  # atno 8010 bound_to 7997
  140.1900  144.4095  150.6575 H   0  0  0  0  0  0  0  0  0  0  0  0  # atno 10167 bound_to 10162
  156.5088  130.4605  149.6660 H   0  0  0  0  0  0  0  0  0  0  0  0  # atno 10718 bound_to 10713
  154.7706  135.4874  153.9642 H   0  0  0  0  0  0  0  0  0  0  0  0  # atno 10763 bound_to 10752
  153.1363  135.6763  153.9105 H   0  0  0  0  0  0  0  0  0  0  0  0  # atno 10764 bound_to 10752
  153.8793  135.3134  155.3423 H   0  0  0  0  0  0  0  0  0  0  0  0  # atno 10765 bound_to 10752
  141.1422  133.6664  156.5818 H   0  0  0  0  0  0  0  0  0  0  0  0  # atno 11005 bound_to 11000
  146.1525  140.6905  142.9315 LP  0  0  0  0  0  0  0  0  0  0  0  0  # atno 17320 bound_to 7965
  144.7281  140.4588  143.6958 LP  0  0  0  0  0  0  0  0  0  0  0  0  # atno 17321 bound_to 7965
  140.6462  143.2214  151.6180 LP  0  0  0  0  0  0  0  0  0  0  0  0  # atno 17342 bound_to 10162
  139.5260  144.3059  152.1034 LP  0  0  0  0  0  0  0  0  0  0  0  0  # atno 17343 bound_to 10162
  156.3261  130.7306  151.2227 LP  0  0  0  0  0  0  0  0  0  0  0  0  # atno 17370 bound_to 10713
  157.7453  131.0442  150.4784 LP  0  0  0  0  0  0  0  0  0  0  0  0  # atno 17371 bound_to 10713
  140.3831  134.7505  157.4674 LP  0  0  0  0  0  0  0  0  0  0  0  0  # atno 17394 bound_to 11000
  140.0622  134.5979  155.8736 LP  0  0  0  0  0  0  0  0  0  0  0  0  # atno 17395 bound_to 11000

$$$$
