AV-unprocessed.smi:3045|AV-procd|sdf|11610|dock5
  -GOLD-   2272016593D 1   1.00000     0.00000
 Structure written by MMmdl.
 35 36  0  0  0  0  0  0  0  0  1 V2000
  151.5581  145.4467  159.9965 C   0  0  0  0  0  0  0  0  0  0  0  0
  151.8409  144.0731  159.6035 N   0  0  0  0  0  0  0  0  0  0  0  0
  151.7849  143.6637  158.2104 C   0  0  0  0  0  0  0  0  0  0  0  0
  151.9761  142.1306  158.2226 C   0  0  2  0  0  0  0  0  0  0  0  0
  150.6936  141.3699  157.8533 C   0  0  0  0  0  0  0  0  0  0  0  0
  149.6673  141.5286  158.5151 O   0  0  0  0  0  0  0  0  0  0  0  0
  150.7758  140.5318  156.8074 N   0  0  0  0  0  0  0  0  0  0  0  0
  149.7067  139.6541  156.3376 C   0  0  0  0  0  0  0  0  0  0  0  0
  149.5220  139.7277  154.8090 C   0  0  0  0  0  0  0  0  0  0  0  0
  148.2021  140.3473  154.3828 C   0  0  0  0  0  0  0  0  0  0  0  0
  147.9602  141.7275  154.5446 C   0  0  0  0  0  0  0  0  0  0  0  0
  146.7319  142.2570  154.1053 C   0  0  0  0  0  0  0  0  0  0  0  0
  145.7937  141.3811  153.5242 C   0  0  0  0  0  0  0  0  0  0  0  0
  146.0115  140.0574  153.3694 N   0  0  0  0  0  0  0  0  0  0  0  0
  147.1927  139.5580  153.7919 C   0  0  0  0  0  0  0  0  0  0  0  0
  152.4249  141.7925  159.6590 C   0  0  0  0  0  0  0  0  0  0  0  0
  152.2211  143.0893  160.4235 C   0  0  0  0  0  0  0  0  0  0  0  0
  152.3872  143.1811  161.6388 O   0  0  0  0  0  0  0  0  0  0  0  0
  152.4758  145.9500  160.3031 H   0  0  0  0  0  0  0  0  0  0  0  0
  150.8561  145.4728  160.8309 H   0  0  0  0  0  0  0  0  0  0  0  0
  151.1212  146.0101  159.1714 H   0  0  0  0  0  0  0  0  0  0  0  0
  150.8429  143.9754  157.7556 H   0  0  0  0  0  0  0  0  0  0  0  0
  152.5913  144.1497  157.6595 H   0  0  0  0  0  0  0  0  0  0  0  0
  152.7639  141.8599  157.5174 H   0  0  0  0  0  0  0  0  0  0  0  0
  151.6591  140.4695  156.3221 H   0  0  0  0  0  0  0  0  0  0  0  0
  149.8923  138.6232  156.6440 H   0  0  0  0  0  0  0  0  0  0  0  0
  148.7813  139.9523  156.8307 H   0  0  0  0  0  0  0  0  0  0  0  0
  150.3351  140.3068  154.3701 H   0  0  0  0  0  0  0  0  0  0  0  0
  149.5997  138.7268  154.3825 H   0  0  0  0  0  0  0  0  0  0  0  0
  148.7051  142.3726  154.9868 H   0  0  0  0  0  0  0  0  0  0  0  0
  146.5149  143.3100  154.2075 H   0  0  0  0  0  0  0  0  0  0  0  0
  144.8422  141.7537  153.1749 H   0  0  0  0  0  0  0  0  0  0  0  0
  147.3414  138.4984  153.6443 H   0  0  0  0  0  0  0  0  0  0  0  0
  151.8520  140.9864  160.1204 H   0  0  0  0  0  0  0  0  0  0  0  0
  153.4790  141.5145  159.6866 H   0  0  0  0  0  0  0  0  0  0  0  0
  1  2  1  0  0  0  0
  1 19  1  0  0  0  0
  1 20  1  0  0  0  0
  1 21  1  0  0  0  0
  2 17  1  0  0  0  0
  2  3  1  0  0  0  0
  3  4  1  0  0  0  0
  3 22  1  0  0  0  0
  3 23  1  0  0  0  0
  4  5  1  0  0  0  0
  4 16  1  0  0  0  0
  4 24  1  0  0  0  0
  5  6  2  0  0  0  0
  5  7  1  0  0  0  0
  7  8  1  0  0  0  0
  7 25  1  0  0  0  0
  8  9  1  0  0  0  0
  8 26  1  0  0  0  0
  8 27  1  0  0  0  0
  9 10  1  0  0  0  0
  9 28  1  0  0  0  0
  9 29  1  0  0  0  0
 10 15  1  0  0  0  0
 10 11  2  0  0  0  0
 11 12  1  0  0  0  0
 11 30  1  0  0  0  0
 12 13  2  0  0  0  0
 12 31  1  0  0  0  0
 13 14  1  0  0  0  0
 13 32  1  0  0  0  0
 14 15  2  0  0  0  0
 15 33  1  0  0  0  0
 16 17  1  0  0  0  0
 16 34  1  0  0  0  0
 16 35  1  0  0  0  0
 17 18  2  0  0  0  0
M  END
> <s_m_source_file>
AV-unprocessed.smi

> <i_m_source_file_index>
3045

> <i_lp_mmshare_version>
43012

> <i_f3d_flags>
0

> <s_epik_input>
W0NIM11OMVtDSDJdW0NASF0oW0NIMl1DMT1PKUMoPU8pW05IXVtDSDJdW0NIMl1jMltjSF1bY0hdW2NIXW5bY0hdMg==

> <s_epik_cmdline>
J2VwaWtfcHl0aG9uJywgJy1waCcsICc3LjAnLCAnLXRuJywgJzgnLCAnLW1hJywgJzIwMCcsICctbWV0YWxfYmluZGluZycsICctaW1hZScsICc8aW5maWxlLm1hZT4nLCAnLW9tYWUnLCAnPG91dGZpbGUubWFlPic=

> <r_epik_Ionization_Penalty>
0.0130932

> <r_epik_Ionization_Penalty_Charging>
0

> <r_epik_Ionization_Penalty_Neutral>
0.0130932

> <r_epik_State_Penalty>
0.0101714

> <r_epik_Charging_Adjusted_Penalty>
0.0101714

> <i_epik_Tot_Q>
0

> <i_epik_Tot_abs_Q>
0

> <r_epik_Metal_State_Penalty>
0.00995082

> <b_epik_Metal_Only>
0

> <s_lp_Force_Field>
OPLS_2005

> <r_lp_Energy>
10.4335

> <b_lp_Chiralities_Consistent>
1

> <s_lp_Variant>
AV-unprocessed.smi:3045-2

> <Gold.Version>
5.8.1

> <Gold.Id.Protein>
6NUR|6NUR_protein|mol2

> <Gold.PLP.Fitness>
47.7856

> <Gold.PLP.PLP>
-42.8811

> <Gold.PLP.part.hbond>
-0.0660

> <Gold.PLP.part.metal>
0.0000

> <Gold.PLP.part.buried>
-4.1887

> <Gold.PLP.part.nonpolar>
-38.6861

> <Gold.PLP.part.repulsive>
1.0986

> <Gold.PLP.ligand.clash>
0.0000

> <Gold.PLP.ligand.torsion>
0.5473

> <Gold.PLP.Chemscore.Hbond>
0.0000

> <Gold.PLP.Chemscore.CHOScore>
1.9949

> <Gold.PLP.Chemscore.Metal>
0.0000

> <Gold.Chemscore.Hbonds>
donor molecule, donor type, donor heavy atom, donor atom, acceptor molecule, acceptor atom, score
      L1  C    13    32       P1 10175  0.04

> <Gold.PLP.Chemscore.Internal.Correction>
0.0144

> <Gold.Rescore>
     Score         DG    S(hbond)    S(metal)    S(lipo)     H(rot)  DE(clash)    DE(int)     intcor
     11.54     -11.94       0.00        0.00      90.65       1.62       0.09       0.31       ----

> <Gold.Chemscore.Fitness>
11.5363

> <Gold.Chemscore.DG>
-11.9366

> <Gold.Chemscore.ZeroCoef>
-5.4800

> <Gold.Chemscore.Hbond>
0.0000

> <Gold.Chemscore.Metal>
0.0000

> <Gold.Chemscore.Lipo>
90.6529

> <Gold.Chemscore.Internal_Hbond>
0.0000

> <Gold.Chemscore.DEClash>
0.0913

> <Gold.Chemscore.DEInternal>
0.3090

> <Gold.Chemscore.Rot>
1.6210

> <Gold.Chemscore.Internal.Correction>
   9.000000E+99

> <Gold.Chemscore.Hbond.Weighted>
-0.0000

> <Gold.Chemscore.Metal.Weighted>
-0.0000

> <Gold.Chemscore.Lipo.Weighted>
-10.6064

> <Gold.Chemscore.Internal_Hbond.Weighted>
0.0000

> <Gold.Chemscore.DEClash.Weighted>
0.0913

> <Gold.Chemscore.DEInternal.Weighted>
0.3090

> <Gold.Chemscore.Rot.Weighted>
4.1498

> <Gold.Chemscore.Internal.Correction.Weighted>
   9.000000E+99

> <Gold.Protein.RotatedTorsions>
[ 6907 6896 6895 6894 ] final -163.54 input  -60.11 | X-H torsion
[ 7974 7965 7964 7962 ] final   12.73 input  175.53 | X-H torsion
[ 8008 7997 7996 7995 ] final  -29.21 input   59.86 | X-H torsion
[ 10167 10162 10161 10158 ] final -177.42 input  -65.29 | X-H torsion
[ 10718 10713 10712 10709 ] final  134.54 input   66.30 | X-H torsion
[ 10763 10752 10751 10750 ] final  173.77 input  -60.55 | X-H torsion
[ 11005 11000 10999 10996 ] final -142.31 input  -57.11 | X-H torsion

> <Gold.Protein.ActiveResidues>
 VAL166  LYS551  ARG553  GLY616  TRP617  ASP618  TYR619  PRO620  LYS621  CYS622 
 ASP623  PHE694  ASN695  SER759  ASP760  ASP761  ALA762  ILE779  LEU786  VAL792 
 PHE793  MET794  SER795  GLU796  ALA797  LYS798  CYS799  TRP800  GLU811  SER814 

> <Gold.Protein.RotatedAtoms>
  151.3976  133.3768  159.2728 H   0  0  0  0  0  0  0  0  0  0  0  0  # atno 6907 bound_to 6896
  150.9458  134.8864  159.7651 H   0  0  0  0  0  0  0  0  0  0  0  0  # atno 6908 bound_to 6896
  152.5091  134.3929  159.9442 H   0  0  0  0  0  0  0  0  0  0  0  0  # atno 6909 bound_to 6896
  146.2345  139.9293  142.8498 H   0  0  0  0  0  0  0  0  0  0  0  0  # atno 7974 bound_to 7965
  154.4299  140.1824  156.1212 H   0  0  0  0  0  0  0  0  0  0  0  0  # atno 8008 bound_to 7997
  156.0141  140.3347  155.6946 H   0  0  0  0  0  0  0  0  0  0  0  0  # atno 8009 bound_to 7997
  155.6069  140.0646  157.2708 H   0  0  0  0  0  0  0  0  0  0  0  0  # atno 8010 bound_to 7997
  139.5481  144.2181  152.1026 H   0  0  0  0  0  0  0  0  0  0  0  0  # atno 10167 bound_to 10162
  157.4662  131.1077  150.9859 H   0  0  0  0  0  0  0  0  0  0  0  0  # atno 10718 bound_to 10713
  154.4447  135.2763  155.1823 H   0  0  0  0  0  0  0  0  0  0  0  0  # atno 10763 bound_to 10752
  154.3675  135.6116  153.5726 H   0  0  0  0  0  0  0  0  0  0  0  0  # atno 10764 bound_to 10752
  152.9843  135.5849  154.4781 H   0  0  0  0  0  0  0  0  0  0  0  0  # atno 10765 bound_to 10752
  140.8237  134.2600  157.4888 H   0  0  0  0  0  0  0  0  0  0  0  0  # atno 11005 bound_to 11000
  145.2060  140.9875  143.4128 LP  0  0  0  0  0  0  0  0  0  0  0  0  # atno 17320 bound_to 7965
  144.9732  139.3858  143.6298 LP  0  0  0  0  0  0  0  0  0  0  0  0  # atno 17321 bound_to 7965
  140.1671  144.4971  150.6600 LP  0  0  0  0  0  0  0  0  0  0  0  0  # atno 17342 bound_to 10162
  140.6736  143.2295  151.5564 LP  0  0  0  0  0  0  0  0  0  0  0  0  # atno 17343 bound_to 10162
  157.0639  130.5837  149.5390 LP  0  0  0  0  0  0  0  0  0  0  0  0  # atno 17370 bound_to 10713
  156.0051  130.5137  150.7803 LP  0  0  0  0  0  0  0  0  0  0  0  0  # atno 17371 bound_to 10713
  139.8707  134.9549  156.4191 LP  0  0  0  0  0  0  0  0  0  0  0  0  # atno 17394 bound_to 11000
  140.9071  133.7738  155.9748 LP  0  0  0  0  0  0  0  0  0  0  0  0  # atno 17395 bound_to 11000

$$$$
