AV-unprocessed.smi:2554|AV-procd|sdf|10020|dock2
  -GOLD-   2272014 63D 1   1.00000     0.00000
 Structure written by MMmdl.
 21 21  0  0  0  0  0  0  0  0  2 V2000
  145.6201  130.2087  151.8808 C   0  0  0  0  0  0  0  0  0  0  0  0
  145.8454  131.6664  151.6228 C   0  0  0  0  0  0  0  0  0  0  0  0
  147.0078  132.3017  152.0666 N   0  0  0  0  0  0  0  0  0  0  0  0
  146.8676  133.5577  151.6620 C   0  0  0  0  0  0  0  0  0  0  0  0
  145.7268  133.7735  151.0021 N   0  0  0  0  0  0  0  0  0  0  0  0
  145.0397  132.5711  150.9611 C   0  0  0  0  0  0  0  0  0  0  0  0
  143.7141  132.4118  150.2919 C   0  0  0  0  0  0  0  0  0  0  0  0
  143.7881  132.6065  148.7719 C   0  0  0  0  0  0  0  0  0  0  0  0
  142.4601  132.4803  148.1488 N   0  3  0  0  0  0  0  0  0  0  0  0
  145.4229  134.6538  150.6114 H   0  0  0  0  0  0  0  0  0  0  0  0
  144.6708  129.8677  151.4679 H   0  0  0  0  0  0  0  0  0  0  0  0
  145.6090  129.9965  152.9501 H   0  0  0  0  0  0  0  0  0  0  0  0
  146.4090  129.6047  151.4326 H   0  0  0  0  0  0  0  0  0  0  0  0
  147.6030  134.3270  151.8463 H   0  0  0  0  0  0  0  0  0  0  0  0
  143.0083  133.1264  150.7177 H   0  0  0  0  0  0  0  0  0  0  0  0
  143.3124  131.4232  150.5175 H   0  0  0  0  0  0  0  0  0  0  0  0
  144.1952  133.5899  148.5341 H   0  0  0  0  0  0  0  0  0  0  0  0
  144.4541  131.8664  148.3271 H   0  0  0  0  0  0  0  0  0  0  0  0
  141.8949  133.2804  148.3957 H   0  0  0  0  0  0  0  0  0  0  0  0
  142.0113  131.6372  148.4774 H   0  0  0  0  0  0  0  0  0  0  0  0
  142.5615  132.4383  147.1448 H   0  0  0  0  0  0  0  0  0  0  0  0
  1 11  1  0  0  0  0
  1 12  1  0  0  0  0
  1 13  1  0  0  0  0
  1  2  1  0  0  0  0
  2  6  2  0  0  0  0
  2  3  1  0  0  0  0
  3  4  2  0  0  0  0
  4  5  1  0  0  0  0
  4 14  1  0  0  0  0
  5  6  1  0  0  0  0
  5 10  1  0  0  0  0
  6  7  1  0  0  0  0
  7  8  1  0  0  0  0
  7 15  1  0  0  0  0
  7 16  1  0  0  0  0
  8  9  1  0  0  0  0
  8 17  1  0  0  0  0
  8 18  1  0  0  0  0
  9 19  1  0  0  0  0
  9 20  1  0  0  0  0
  9 21  1  0  0  0  0
M  CHG  1   9   1
M  END
> <s_m_source_file>
AV-unprocessed.smi

> <i_m_source_file_index>
2554

> <i_lp_mmshare_version>
43012

> <i_f3d_flags>
0

> <s_epik_input>
W0NIM11jMVtuSF1bY0hdbmMxW0NIMl1bQ0gyXVtOSDJd

> <s_epik_cmdline>
J2VwaWtfcHl0aG9uJywgJy1waCcsICc3LjAnLCAnLXRuJywgJzgnLCAnLW1hJywgJzIwMCcsICctbWV0YWxfYmluZGluZycsICctaW1hZScsICc8aW5maWxlLm1hZT4nLCAnLW9tYWUnLCAnPG91dGZpbGUubWFlPic=

> <r_lp_tautomer_probability>
0.5

> <r_epik_Ionization_Penalty>
0.309087

> <r_epik_Ionization_Penalty_Charging>
0.309086

> <r_epik_Ionization_Penalty_Neutral>
3.24025e-07

> <r_epik_State_Penalty>
0.652852

> <r_epik_Charging_Adjusted_Penalty>
0.961938

> <i_epik_Tot_Q>
1

> <i_epik_Tot_abs_Q>
1

> <r_epik_Metal_State_Penalty>
0.386365

> <b_epik_Metal_Only>
0

> <s_lp_Force_Field>
OPLS_2005

> <r_lp_Energy>
3.85871

> <b_lp_Chiralities_Consistent>
1

> <s_lp_Variant>
AV-unprocessed.smi:2554-2

> <Gold.Version>
5.8.1

> <Gold.Id.Protein>
6NUR|6NUR_protein|mol2

> <Gold.PLP.Fitness>
37.2583

> <Gold.PLP.PLP>
-22.3357

> <Gold.PLP.part.hbond>
-3.0000

> <Gold.PLP.part.metal>
0.0000

> <Gold.PLP.part.buried>
-4.9895

> <Gold.PLP.part.nonpolar>
-15.7310

> <Gold.PLP.part.repulsive>
1.0671

> <Gold.PLP.ligand.clash>
0.0000

> <Gold.PLP.ligand.torsion>
0.0389

> <Gold.PLP.Chemscore.Hbond>
4.0000

> <Gold.PLP.Chemscore.CHOScore>
1.0000

> <Gold.PLP.Chemscore.Metal>
0.0000

> <Gold.Chemscore.Hbonds>
donor molecule, donor type, donor heavy atom, donor atom, acceptor molecule, acceptor atom, score
      L1  H     9    19       P1 10186  2.00
      L1  H     9    20       P1 10952  0.96
      L1  H     9    21       P1 10195  0.80
      L1  C     4    14       P1  7948  1.00

> <Gold.PLP.Chemscore.Internal.Correction>
0.0004

> <Gold.Rescore>
     Score         DG    S(hbond)    S(metal)    S(lipo)     H(rot)  DE(clash)    DE(int)     intcor
     16.51     -16.89       2.82        0.00      48.66       1.45       0.29       0.09       ----

> <Gold.Chemscore.Fitness>
16.5066

> <Gold.Chemscore.DG>
-16.8883

> <Gold.Chemscore.ZeroCoef>
-5.4800

> <Gold.Chemscore.Hbond>
2.8193

> <Gold.Chemscore.Metal>
0.0000

> <Gold.Chemscore.Lipo>
48.6571

> <Gold.Chemscore.Internal_Hbond>
0.0000

> <Gold.Chemscore.DEClash>
0.2946

> <Gold.Chemscore.DEInternal>
0.0871

> <Gold.Chemscore.Rot>
1.4458

> <Gold.Chemscore.Internal.Correction>
   9.000000E+99

> <Gold.Chemscore.Hbonds>
donor molecule, donor type, donor heavy atom, donor atom, acceptor molecule, acceptor atom, score
      L1  H     9    19       P1 10186  0.99
      L1  H     9    20       P1 10952  0.90
      L1  H     9    21       P1 10195  0.79

> <Gold.Chemscore.Hbond.Weighted>
-9.4166

> <Gold.Chemscore.Metal.Weighted>
-0.0000

> <Gold.Chemscore.Lipo.Weighted>
-5.6929

> <Gold.Chemscore.Internal_Hbond.Weighted>
0.0000

> <Gold.Chemscore.DEClash.Weighted>
0.2946

> <Gold.Chemscore.DEInternal.Weighted>
0.0871

> <Gold.Chemscore.Rot.Weighted>
3.7012

> <Gold.Chemscore.Internal.Correction.Weighted>
   9.000000E+99

> <Gold.Protein.RotatedTorsions>
[ 6907 6896 6895 6894 ] final   57.68 input  -60.11 | X-H torsion
[ 7974 7965 7964 7962 ] final  109.72 input  175.53 | X-H torsion
[ 8008 7997 7996 7995 ] final -146.66 input   59.86 | X-H torsion
[ 10167 10162 10161 10158 ] final -150.30 input  -65.29 | X-H torsion
[ 10718 10713 10712 10709 ] final   21.85 input   66.30 | X-H torsion
[ 10763 10752 10751 10750 ] final  -91.17 input  -60.55 | X-H torsion
[ 11005 11000 10999 10996 ] final   36.62 input  -57.11 | X-H torsion

> <Gold.Protein.ActiveResidues>
 VAL166  LYS551  ARG553  GLY616  TRP617  ASP618  TYR619  PRO620  LYS621  CYS622 
 ASP623  PHE694  ASN695  SER759  ASP760  ASP761  ALA762  ILE779  LEU786  VAL792 
 PHE793  MET794  SER795  GLU796  ALA797  LYS798  CYS799  TRP800  GLU811  SER814 

> <Gold.Protein.RotatedAtoms>
  152.3754  134.6671  160.0161 H   0  0  0  0  0  0  0  0  0  0  0  0  # atno 6907 bound_to 6896
  151.6951  133.3305  159.3260 H   0  0  0  0  0  0  0  0  0  0  0  0  # atno 6908 bound_to 6896
  150.7705  134.6600  159.6379 H   0  0  0  0  0  0  0  0  0  0  0  0  # atno 6909 bound_to 6896
  145.2642  139.2691  143.4000 H   0  0  0  0  0  0  0  0  0  0  0  0  # atno 7974 bound_to 7965
  155.5630  140.0627  157.2824 H   0  0  0  0  0  0  0  0  0  0  0  0  # atno 8008 bound_to 7997
  154.4384  140.1882  156.0848 H   0  0  0  0  0  0  0  0  0  0  0  0  # atno 8009 bound_to 7997
  156.0432  140.3293  155.7271 H   0  0  0  0  0  0  0  0  0  0  0  0  # atno 8010 bound_to 7997
  139.7367  143.8725  152.2551 H   0  0  0  0  0  0  0  0  0  0  0  0  # atno 10167 bound_to 10162
  157.1442  130.6646  149.5991 H   0  0  0  0  0  0  0  0  0  0  0  0  # atno 10718 bound_to 10713
  154.6733  135.5278  153.8166 H   0  0  0  0  0  0  0  0  0  0  0  0  # atno 10763 bound_to 10752
  153.0515  135.6534  154.0691 H   0  0  0  0  0  0  0  0  0  0  0  0  # atno 10764 bound_to 10752
  154.0587  135.2963  155.3308 H   0  0  0  0  0  0  0  0  0  0  0  0  # atno 10765 bound_to 10752
  140.2307  134.3531  155.7965 H   0  0  0  0  0  0  0  0  0  0  0  0  # atno 11005 bound_to 11000
  146.3266  140.3067  142.8624 LP  0  0  0  0  0  0  0  0  0  0  0  0  # atno 17320 bound_to 7965
  144.9391  140.8059  143.5641 LP  0  0  0  0  0  0  0  0  0  0  0  0  # atno 17321 bound_to 7965
  139.8664  144.7091  150.9039 LP  0  0  0  0  0  0  0  0  0  0  0  0  # atno 17342 bound_to 10162
  140.7780  143.3775  151.1537 LP  0  0  0  0  0  0  0  0  0  0  0  0  # atno 17343 bound_to 10162
  155.9782  130.4767  150.6645 LP  0  0  0  0  0  0  0  0  0  0  0  0  # atno 17370 bound_to 10713
  157.4279  131.0845  151.1067 LP  0  0  0  0  0  0  0  0  0  0  0  0  # atno 17371 bound_to 10713
  141.2218  133.7244  156.8727 LP  0  0  0  0  0  0  0  0  0  0  0  0  # atno 17394 bound_to 11000
  140.1753  134.9071  157.2884 LP  0  0  0  0  0  0  0  0  0  0  0  0  # atno 17395 bound_to 11000

$$$$
