AV-unprocessed.smi:1033|AV-procd|sdf|4510|dock8
  -GOLD-   22720 2513D 1   1.00000     0.00000
 Structure written by MMmdl.
 57 59  0  0  0  0  0  0  0  0  3 V2000
  152.3141  143.1512  160.3371 C   0  0  0  0  0  0  0  0  0  0  0  0
  151.8017  142.5076  159.0607 C   0  0  0  0  0  0  0  0  0  0  0  0
  152.4907  141.3948  158.5275 C   0  0  0  0  0  0  0  0  0  0  0  0
  152.0463  140.7672  157.3432 C   0  0  0  0  0  0  0  0  0  0  0  0
  152.5573  139.6812  156.6530 N   0  0  0  0  0  0  0  0  0  0  0  0
  151.7032  139.5807  155.6385 C   0  0  0  0  0  0  0  0  0  0  0  0
  150.6923  140.4702  155.5946 N   0  0  0  0  0  0  0  0  0  0  0  0
  149.6356  140.5565  154.6031 C   0  0  0  0  0  0  0  0  0  0  0  0
  149.0516  139.1732  154.2589 C   0  0  2  0  0  0  0  0  0  0  0  0
  149.8653  138.5544  153.2812 O   0  0  0  0  0  0  0  0  0  0  0  0
  147.6125  139.2727  153.7160 C   0  0  0  0  0  0  0  0  0  0  0  0
  147.0825  137.9627  153.2559 N   0  3  2  0  0  0  0  0  0  0  0  0
  145.8709  138.1084  152.4110 C   0  0  0  0  0  0  0  0  0  0  0  0
  145.3898  136.7447  151.8730 C   0  0  0  0  0  0  0  0  0  0  0  0
  145.1897  135.7477  152.9578 N   0  3  2  0  0  0  0  0  0  0  0  0
  143.9350  135.9193  153.7400 C   0  0  0  0  0  0  0  0  0  0  0  0
  142.7037  135.3537  153.0051 C   0  0  2  0  0  0  0  0  0  0  0  0
  141.4039  135.5935  153.7839 C   0  0  0  0  0  0  0  0  0  0  0  0
  142.8652  133.9600  152.8357 O   0  0  0  0  0  0  0  0  0  0  0  0
  146.4047  135.6264  153.8018 C   0  0  0  0  0  0  0  0  0  0  0  0
  146.8546  136.9908  154.3568 C   0  0  0  0  0  0  0  0  0  0  0  0
  150.8831  141.2863  156.7038 C   0  0  0  0  0  0  0  0  0  0  0  0
  150.1904  142.3948  157.2224 C   0  0  0  0  0  0  0  0  0  0  0  0
  150.6491  143.0109  158.4053 C   0  0  0  0  0  0  0  0  0  0  0  0
  149.8962  144.2088  158.9567 C   0  0  0  0  0  0  0  0  0  0  0  0
  153.1974  142.6362  160.7160 H   0  0  0  0  0  0  0  0  0  0  0  0
  151.5506  143.1205  161.1147 H   0  0  0  0  0  0  0  0  0  0  0  0
  152.5847  144.1920  160.1579 H   0  0  0  0  0  0  0  0  0  0  0  0
  153.3697  141.0128  159.0255 H   0  0  0  0  0  0  0  0  0  0  0  0
  151.8143  138.8112  154.8882 H   0  0  0  0  0  0  0  0  0  0  0  0
  148.8559  141.2080  154.9996 H   0  0  0  0  0  0  0  0  0  0  0  0
  150.0272  141.0451  153.7094 H   0  0  0  0  0  0  0  0  0  0  0  0
  149.0751  138.5583  155.1577 H   0  0  0  0  0  0  0  0  0  0  0  0
  149.3098  138.0611  152.6955 H   0  0  0  0  0  0  0  0  0  0  0  0
  146.9447  139.6851  154.4738 H   0  0  0  0  0  0  0  0  0  0  0  0
  147.6065  139.9823  152.8867 H   0  0  0  0  0  0  0  0  0  0  0  0
  145.0824  138.5955  152.9863 H   0  0  0  0  0  0  0  0  0  0  0  0
  146.0910  138.7645  151.5679 H   0  0  0  0  0  0  0  0  0  0  0  0
  144.4832  136.8692  151.2822 H   0  0  0  0  0  0  0  0  0  0  0  0
  146.1400  136.3479  151.1877 H   0  0  0  0  0  0  0  0  0  0  0  0
  144.0262  135.4072  154.6994 H   0  0  0  0  0  0  0  0  0  0  0  0
  143.7847  136.9727  153.9774 H   0  0  0  0  0  0  0  0  0  0  0  0
  142.6009  135.8070  152.0197 H   0  0  0  0  0  0  0  0  0  0  0  0
  141.2238  136.6597  153.9256 H   0  0  0  0  0  0  0  0  0  0  0  0
  141.4366  135.1282  154.7698 H   0  0  0  0  0  0  0  0  0  0  0  0
  140.5449  135.1845  153.2507 H   0  0  0  0  0  0  0  0  0  0  0  0
  142.7190  133.5323  153.6661 H   0  0  0  0  0  0  0  0  0  0  0  0
  146.2378  134.9159  154.6123 H   0  0  0  0  0  0  0  0  0  0  0  0
  147.2044  135.2038  153.1916 H   0  0  0  0  0  0  0  0  0  0  0  0
  147.7664  136.8478  154.9350 H   0  0  0  0  0  0  0  0  0  0  0  0
  146.1062  137.3855  155.0459 H   0  0  0  0  0  0  0  0  0  0  0  0
  149.3144  142.7683  156.7134 H   0  0  0  0  0  0  0  0  0  0  0  0
  149.0344  144.4575  158.3366 H   0  0  0  0  0  0  0  0  0  0  0  0
  150.5458  145.0837  158.9928 H   0  0  0  0  0  0  0  0  0  0  0  0
  149.5345  144.0036  159.9643 H   0  0  0  0  0  0  0  0  0  0  0  0
  145.0830  134.8504  152.5045 H   0  0  0  0  0  0  0  0  0  0  0  0
  147.7976  137.5712  152.6585 H   0  0  0  0  0  0  0  0  0  0  0  0
  1  2  1  0  0  0  0
  1 26  1  0  0  0  0
  1 27  1  0  0  0  0
  1 28  1  0  0  0  0
  2 24  1  0  0  0  0
  2  3  2  0  0  0  0
  3  4  1  0  0  0  0
  3 29  1  0  0  0  0
  4 22  2  0  0  0  0
  4  5  1  0  0  0  0
  5  6  2  0  0  0  0
  6  7  1  0  0  0  0
  6 30  1  0  0  0  0
  7  8  1  0  0  0  0
  7 22  1  0  0  0  0
  8  9  1  0  0  0  0
  8 31  1  0  0  0  0
  8 32  1  0  0  0  0
  9 10  1  0  0  0  0
  9 11  1  0  0  0  0
  9 33  1  0  0  0  0
 10 34  1  0  0  0  0
 11 12  1  0  0  0  0
 11 35  1  0  0  0  0
 11 36  1  0  0  0  0
 12 21  1  0  0  0  0
 12 13  1  0  0  0  0
 12 57  1  0  0  0  0
 13 14  1  0  0  0  0
 13 37  1  0  0  0  0
 13 38  1  0  0  0  0
 14 15  1  0  0  0  0
 14 39  1  0  0  0  0
 14 40  1  0  0  0  0
 15 16  1  0  0  0  0
 15 20  1  0  0  0  0
 15 56  1  0  0  0  0
 16 17  1  0  0  0  0
 16 41  1  0  0  0  0
 16 42  1  0  0  0  0
 17 18  1  0  0  0  0
 17 19  1  0  0  0  0
 17 43  1  0  0  0  0
 18 44  1  0  0  0  0
 18 45  1  0  0  0  0
 18 46  1  0  0  0  0
 19 47  1  0  0  0  0
 20 21  1  0  0  0  0
 20 48  1  0  0  0  0
 20 49  1  0  0  0  0
 21 50  1  0  0  0  0
 21 51  1  0  0  0  0
 22 23  1  0  0  0  0
 23 24  2  0  0  0  0
 23 52  1  0  0  0  0
 24 25  1  0  0  0  0
 25 53  1  0  0  0  0
 25 54  1  0  0  0  0
 25 55  1  0  0  0  0
M  CHG  1  12   1
M  CHG  1  15   1
M  END
> <s_m_source_file>
AV-unprocessed.smi

> <i_m_source_file_index>
1033

> <i_lp_mmshare_version>
43012

> <i_f3d_flags>
0

> <s_epik_input>
W0NIM11jKFtjSF0xKWMoW0NIM10pW2NIXWMoYzEyKW4oW2NIXW4yKVtDSDJdW0NASF0oW09IXSlbQ0gyXU4zW0NIMl1bQ0gyXU4oW0NIMl1bQ0gyXTMpW0NIMl1bQ0BIXShbQ0gzXSlbT0hd

> <s_epik_cmdline>
J2VwaWtfcHl0aG9uJywgJy1waCcsICc3LjAnLCAnLXRuJywgJzgnLCAnLW1hJywgJzIwMCcsICctbWV0YWxfYmluZGluZycsICctaW1hZScsICc8aW5maWxlLm1hZT4nLCAnLW9tYWUnLCAnPG91dGZpbGUubWFlPic=

> <r_epik_Ionization_Penalty>
3.16016

> <r_epik_Ionization_Penalty_Charging>
3.07679

> <r_epik_Ionization_Penalty_Neutral>
0.083365

> <r_epik_State_Penalty>
2.09701

> <r_epik_Charging_Adjusted_Penalty>
5.1738

> <i_epik_Tot_Q>
2

> <i_epik_Tot_abs_Q>
2

> <r_epik_Metal_State_Penalty>
2.02534

> <b_epik_Metal_Only>
0

> <s_lp_Force_Field>
OPLS_2005

> <r_lp_Energy>
28.3009

> <b_lp_Chiralities_Consistent>
1

> <s_lp_Variant>
AV-unprocessed.smi:1033-21

> <Gold.Version>
5.8.1

> <Gold.Id.Protein>
6NUR|6NUR_protein|mol2

> <Gold.PLP.Fitness>
58.4899

> <Gold.PLP.PLP>
-44.9654

> <Gold.PLP.part.hbond>
-5.1958

> <Gold.PLP.part.metal>
0.0000

> <Gold.PLP.part.buried>
-3.7909

> <Gold.PLP.part.nonpolar>
-35.8954

> <Gold.PLP.part.repulsive>
0.0245

> <Gold.PLP.ligand.clash>
0.0000

> <Gold.PLP.ligand.torsion>
0.8239

> <Gold.PLP.Chemscore.Hbond>
4.9913

> <Gold.PLP.Chemscore.CHOScore>
0.0000

> <Gold.PLP.Chemscore.Metal>
0.0000

> <Gold.Chemscore.Hbonds>
donor molecule, donor type, donor heavy atom, donor atom, acceptor molecule, acceptor atom, score
      L1  H    10    34       P1  7948  0.90
      L1  H    12    57       P1  7948  2.00
      L1  H    19    47       P1 10957  0.84
      P1  H  7997  8008       L1     5  1.00

> <Gold.PLP.Chemscore.Internal.Correction>
0.1985

> <Gold.Rescore>
     Score         DG    S(hbond)    S(metal)    S(lipo)     H(rot)  DE(clash)    DE(int)     intcor
     20.53     -21.60       3.47        0.00     107.30       3.14       0.30       0.77       ----

> <Gold.Chemscore.Fitness>
20.5322

> <Gold.Chemscore.DG>
-21.6039

> <Gold.Chemscore.ZeroCoef>
-5.4800

> <Gold.Chemscore.Hbond>
3.4740

> <Gold.Chemscore.Metal>
0.0000

> <Gold.Chemscore.Lipo>
107.2988

> <Gold.Chemscore.Internal_Hbond>
0.0000

> <Gold.Chemscore.DEClash>
0.3017

> <Gold.Chemscore.DEInternal>
0.7700

> <Gold.Chemscore.Rot>
3.1380

> <Gold.Chemscore.Internal.Correction>
   9.000000E+99

> <Gold.Chemscore.Hbonds>
donor molecule, donor type, donor heavy atom, donor atom, acceptor molecule, acceptor atom, score
      L1  H    10    34       P1  7948  0.77
      L1  H    12    57       P1  7948  0.99
      L1  H    19    47       P1 10957  0.78
      P1  H  7997  8008       L1     5  0.40

> <Gold.Chemscore.Hbond.Weighted>
-11.6031

> <Gold.Chemscore.Metal.Weighted>
-0.0000

> <Gold.Chemscore.Lipo.Weighted>
-12.5540

> <Gold.Chemscore.Internal_Hbond.Weighted>
0.0000

> <Gold.Chemscore.DEClash.Weighted>
0.3017

> <Gold.Chemscore.DEInternal.Weighted>
0.7700

> <Gold.Chemscore.Rot.Weighted>
8.0332

> <Gold.Chemscore.Internal.Correction.Weighted>
   9.000000E+99

> <Gold.Protein.RotatedTorsions>
[ 6907 6896 6895 6894 ] final  -85.04 input  -60.11 | X-H torsion
[ 7974 7965 7964 7962 ] final  124.84 input  175.53 | X-H torsion
[ 8008 7997 7996 7995 ] final  -50.81 input   59.86 | X-H torsion
[ 10167 10162 10161 10158 ] final   95.35 input  -65.29 | X-H torsion
[ 10718 10713 10712 10709 ] final  -50.67 input   66.30 | X-H torsion
[ 10763 10752 10751 10750 ] final  -16.87 input  -60.55 | X-H torsion
[ 11005 11000 10999 10996 ] final   72.07 input  -57.11 | X-H torsion

> <Gold.Protein.ActiveResidues>
 VAL166  LYS551  ARG553  GLY616  TRP617  ASP618  TYR619  PRO620  LYS621  CYS622 
 ASP623  PHE694  ASN695  SER759  ASP760  ASP761  ALA762  ILE779  LEU786  VAL792 
 PHE793  MET794  SER795  GLU796  ALA797  LYS798  CYS799  TRP800  GLU811  SER814 

> <Gold.Protein.RotatedAtoms>
  150.6872  134.3267  159.4809 H   0  0  0  0  0  0  0  0  0  0  0  0  # atno 6907 bound_to 6896
  152.1136  134.9254  160.0575 H   0  0  0  0  0  0  0  0  0  0  0  0  # atno 6908 bound_to 6896
  152.0487  133.3974  159.4405 H   0  0  0  0  0  0  0  0  0  0  0  0  # atno 6909 bound_to 6896
  145.0798  139.3666  143.4915 H   0  0  0  0  0  0  0  0  0  0  0  0  # atno 7974 bound_to 7965
  154.4069  140.1263  156.4727 H   0  0  0  0  0  0  0  0  0  0  0  0  # atno 8008 bound_to 7997
  155.7163  140.3493  155.4976 H   0  0  0  0  0  0  0  0  0  0  0  0  # atno 8009 bound_to 7997
  155.9255  140.1060  157.1164 H   0  0  0  0  0  0  0  0  0  0  0  0  # atno 8010 bound_to 7997
  139.7997  144.6819  150.9781 H   0  0  0  0  0  0  0  0  0  0  0  0  # atno 10167 bound_to 10162
  156.1779  130.4150  149.9549 H   0  0  0  0  0  0  0  0  0  0  0  0  # atno 10718 bound_to 10713
  153.5651  135.7009  153.5530 H   0  0  0  0  0  0  0  0  0  0  0  0  # atno 10763 bound_to 10752
  153.3394  135.4025  155.1560 H   0  0  0  0  0  0  0  0  0  0  0  0  # atno 10764 bound_to 10752
  154.8642  135.3738  154.5170 H   0  0  0  0  0  0  0  0  0  0  0  0  # atno 10765 bound_to 10752
  139.9510  134.7227  156.0863 H   0  0  0  0  0  0  0  0  0  0  0  0  # atno 11005 bound_to 11000
  146.3531  140.0583  142.8631 LP  0  0  0  0  0  0  0  0  0  0  0  0  # atno 17320 bound_to 7965
  145.1192  140.9452  143.4610 LP  0  0  0  0  0  0  0  0  0  0  0  0  # atno 17321 bound_to 7965
  140.7820  143.4294  151.0717 LP  0  0  0  0  0  0  0  0  0  0  0  0  # atno 17342 bound_to 10162
  139.7967  143.8142  152.3158 LP  0  0  0  0  0  0  0  0  0  0  0  0  # atno 17343 bound_to 10162
  156.7329  130.9050  151.3627 LP  0  0  0  0  0  0  0  0  0  0  0  0  # atno 17370 bound_to 10713
  157.6848  130.9175  150.0359 LP  0  0  0  0  0  0  0  0  0  0  0  0  # atno 17371 bound_to 10713
  141.1172  133.6624  156.3124 LP  0  0  0  0  0  0  0  0  0  0  0  0  # atno 17394 bound_to 11000
  140.5720  134.5831  157.5460 LP  0  0  0  0  0  0  0  0  0  0  0  0  # atno 17395 bound_to 11000

$$$$
