AV-unprocessed.smi:1560|AV-procd|sdf|6279|dock3
  -GOLD-   22720 6473D 1   1.00000     0.00000
 Structure written by MMmdl.
 46 47  0  0  0  0  0  0  0  0  2 V2000
  152.1622  139.4038  155.6543 C   0  0  0  0  0  0  0  0  0  0  0  0
  151.0672  140.4304  155.9980 C   0  0  0  0  0  0  0  0  0  0  0  0
  150.5280  140.3793  157.4630 C   0  0  1  0  0  0  0  0  0  0  0  0
  149.0407  140.8200  157.3969 C   0  0  0  0  0  0  0  0  0  0  0  0
  150.5761  138.8991  157.9636 C   0  0  0  0  0  0  0  0  0  0  0  0
  149.7279  137.9848  157.1991 N   0  0  0  0  0  0  0  0  0  0  0  0
  149.9911  136.6932  156.9476 C   0  0  0  0  0  0  0  0  0  0  0  0
  151.0221  136.1276  157.3141 O   0  0  0  0  0  0  0  0  0  0  0  0
  148.9390  135.9393  156.1237 C   0  0  0  0  0  0  0  0  0  0  0  0
  149.3463  134.5619  155.8031 N   0  0  0  0  0  0  0  0  0  0  0  0
  149.3164  134.1658  154.4541 C   0  0  0  0  0  0  0  0  0  0  0  0
  149.6730  132.9251  154.0702 C   0  0  0  0  0  0  0  0  0  0  0  0
  150.0989  131.9805  155.0957 C   0  0  0  0  0  0  0  0  0  0  0  0
  150.4227  130.8416  154.7642 O   0  0  0  0  0  0  0  0  0  0  0  0
  150.1165  132.4145  156.3902 N   0  5  0  0  0  0  0  0  0  0  0  0
  149.7527  133.6798  156.7659 C   0  0  0  0  0  0  0  0  0  0  0  0
  149.7768  134.0510  157.9401 O   0  0  0  0  0  0  0  0  0  0  0  0
  151.3058  141.2929  158.3476 N   0  0  0  0  0  0  0  0  0  0  0  0
  151.3491  142.6949  157.9130 C   0  0  0  0  0  0  0  0  0  0  0  0
  152.0392  143.5978  158.9490 C   0  0  0  0  0  0  0  0  0  0  0  0
  153.3520  143.1143  159.2070 O   0  0  0  0  0  0  0  0  0  0  0  0
  153.3530  141.7745  159.6845 C   0  0  0  0  0  0  0  0  0  0  0  0
  152.6734  140.8563  158.6542 C   0  0  0  0  0  0  0  0  0  0  0  0
  152.4719  139.5121  154.6149 H   0  0  0  0  0  0  0  0  0  0  0  0
  151.8141  138.3791  155.7830 H   0  0  0  0  0  0  0  0  0  0  0  0
  153.0503  139.5367  156.2714 H   0  0  0  0  0  0  0  0  0  0  0  0
  151.4760  141.4187  155.7869 H   0  0  0  0  0  0  0  0  0  0  0  0
  150.2464  140.3204  155.2891 H   0  0  0  0  0  0  0  0  0  0  0  0
  148.5025  140.3272  156.5865 H   0  0  0  0  0  0  0  0  0  0  0  0
  148.9457  141.8946  157.2378 H   0  0  0  0  0  0  0  0  0  0  0  0
  148.5024  140.5784  158.3136 H   0  0  0  0  0  0  0  0  0  0  0  0
  151.5999  138.5247  157.9764 H   0  0  0  0  0  0  0  0  0  0  0  0
  150.2280  138.8340  158.9938 H   0  0  0  0  0  0  0  0  0  0  0  0
  148.8584  138.3611  156.8502 H   0  0  0  0  0  0  0  0  0  0  0  0
  147.9842  135.9321  156.6531 H   0  0  0  0  0  0  0  0  0  0  0  0
  148.7558  136.5069  155.2105 H   0  0  0  0  0  0  0  0  0  0  0  0
  148.9950  134.9265  153.7579 H   0  0  0  0  0  0  0  0  0  0  0  0
  149.6472  132.6370  153.0295 H   0  0  0  0  0  0  0  0  0  0  0  0
  151.8835  142.7819  156.9673 H   0  0  0  0  0  0  0  0  0  0  0  0
  150.3468  143.0847  157.7459 H   0  0  0  0  0  0  0  0  0  0  0  0
  152.1036  144.6204  158.5766 H   0  0  0  0  0  0  0  0  0  0  0  0
  151.4651  143.6297  159.8764 H   0  0  0  0  0  0  0  0  0  0  0  0
  154.3821  141.4576  159.8541 H   0  0  0  0  0  0  0  0  0  0  0  0
  152.8392  141.7222  160.6457 H   0  0  0  0  0  0  0  0  0  0  0  0
  152.6792  139.8453  159.0577 H   0  0  0  0  0  0  0  0  0  0  0  0
  153.2791  140.8402  157.7483 H   0  0  0  0  0  0  0  0  0  0  0  0
  1  2  1  0  0  0  0
  1 24  1  0  0  0  0
  1 25  1  0  0  0  0
  1 26  1  0  0  0  0
  2  3  1  0  0  0  0
  2 27  1  0  0  0  0
  2 28  1  0  0  0  0
  3  4  1  0  0  0  0
  3  5  1  0  0  0  0
  3 18  1  0  0  0  0
  4 29  1  0  0  0  0
  4 30  1  0  0  0  0
  4 31  1  0  0  0  0
  5  6  1  0  0  0  0
  5 32  1  0  0  0  0
  5 33  1  0  0  0  0
  6  7  1  0  0  0  0
  6 34  1  0  0  0  0
  7  8  2  0  0  0  0
  7  9  1  0  0  0  0
  9 10  1  0  0  0  0
  9 35  1  0  0  0  0
  9 36  1  0  0  0  0
 10 16  1  0  0  0  0
 10 11  1  0  0  0  0
 11 12  2  0  0  0  0
 11 37  1  0  0  0  0
 12 13  1  0  0  0  0
 12 38  1  0  0  0  0
 13 14  2  0  0  0  0
 13 15  1  0  0  0  0
 15 16  1  0  0  0  0
 16 17  2  0  0  0  0
 18 23  1  0  0  0  0
 18 19  1  0  0  0  0
 19 20  1  0  0  0  0
 19 39  1  0  0  0  0
 19 40  1  0  0  0  0
 20 21  1  0  0  0  0
 20 41  1  0  0  0  0
 20 42  1  0  0  0  0
 21 22  1  0  0  0  0
 22 23  1  0  0  0  0
 22 43  1  0  0  0  0
 22 44  1  0  0  0  0
 23 45  1  0  0  0  0
 23 46  1  0  0  0  0
M  CHG  1  15  -1
M  END
> <s_m_source_file>
AV-unprocessed.smi

> <i_m_source_file_index>
1560

> <i_lp_mmshare_version>
43012

> <i_f3d_flags>
0

> <s_epik_input>
W0NIMl0xW0NIMl1PW0NIMl1bQ0gyXU4xW0NAQF0oW0NIM10pKFtDSDJdW0NIM10pW0NIMl1bTkhdQyg9TylbQ0gyXW4yW2NIXVtjSF1jKD1PKVtuSF1jMj1P

> <s_epik_cmdline>
J2VwaWtfcHl0aG9uJywgJy1waCcsICc3LjAnLCAnLXRuJywgJzgnLCAnLW1hJywgJzIwMCcsICctbWV0YWxfYmluZGluZycsICctaW1hZScsICc8aW5maWxlLm1hZT4nLCAnLW9tYWUnLCAnPG91dGZpbGUubWFlPic=

> <r_lp_tautomer_probability>
0.999537

> <r_epik_Ionization_Penalty>
3.35108

> <r_epik_Ionization_Penalty_Charging>
2.65778e-08

> <r_epik_Ionization_Penalty_Neutral>
3.35108

> <r_epik_State_Penalty>
3.36199

> <r_epik_Charging_Adjusted_Penalty>
3.36199

> <i_epik_Tot_Q>
-1

> <i_epik_Tot_abs_Q>
1

> <r_epik_Metal_State_Penalty>
0.748914

> <b_epik_Metal_Only>
1

> <s_lp_Force_Field>
OPLS_2005

> <r_lp_Energy>
51.7621

> <b_lp_Chiralities_Consistent>
1

> <s_lp_Variant>
AV-unprocessed.smi:1560-5

> <Gold.Version>
5.8.1

> <Gold.Id.Protein>
6NUR|6NUR_protein|mol2

> <Gold.PLP.Fitness>
38.3831

> <Gold.PLP.PLP>
-34.0388

> <Gold.PLP.part.hbond>
-1.0000

> <Gold.PLP.part.metal>
0.0000

> <Gold.PLP.part.buried>
-5.8050

> <Gold.PLP.part.nonpolar>
-26.8819

> <Gold.PLP.part.repulsive>
0.0313

> <Gold.PLP.ligand.clash>
0.0000

> <Gold.PLP.ligand.torsion>
0.9151

> <Gold.PLP.Chemscore.Hbond>
1.0000

> <Gold.PLP.Chemscore.CHOScore>
1.0000

> <Gold.PLP.Chemscore.Metal>
0.0000

> <Gold.Chemscore.Hbonds>
donor molecule, donor type, donor heavy atom, donor atom, acceptor molecule, acceptor atom, score
      P1  H  6896  6908       L1    17  1.00
      L1  C    11    37       P1  7948  1.00

> <Gold.PLP.Chemscore.Internal.Correction>
0.1745

> <Gold.Rescore>
     Score         DG    S(hbond)    S(metal)    S(lipo)     H(rot)  DE(clash)    DE(int)     intcor
      7.48     -11.53       0.99        0.00      76.35       2.42       0.08       3.98       ----

> <Gold.Chemscore.Fitness>
7.4759

> <Gold.Chemscore.DG>
-11.5347

> <Gold.Chemscore.ZeroCoef>
-5.4800

> <Gold.Chemscore.Hbond>
0.9930

> <Gold.Chemscore.Metal>
0.0000

> <Gold.Chemscore.Lipo>
76.3460

> <Gold.Chemscore.Internal_Hbond>
0.0000

> <Gold.Chemscore.DEClash>
0.0778

> <Gold.Chemscore.DEInternal>
3.9810

> <Gold.Chemscore.Rot>
2.4197

> <Gold.Chemscore.Internal.Correction>
   9.000000E+99

> <Gold.Chemscore.Hbonds>
donor molecule, donor type, donor heavy atom, donor atom, acceptor molecule, acceptor atom, score
      P1  H  6896  6908       L1    17  0.98

> <Gold.Chemscore.Hbond.Weighted>
-3.3165

> <Gold.Chemscore.Metal.Weighted>
-0.0000

> <Gold.Chemscore.Lipo.Weighted>
-8.9325

> <Gold.Chemscore.Internal_Hbond.Weighted>
0.0000

> <Gold.Chemscore.DEClash.Weighted>
0.0778

> <Gold.Chemscore.DEInternal.Weighted>
3.9810

> <Gold.Chemscore.Rot.Weighted>
6.1943

> <Gold.Chemscore.Internal.Correction.Weighted>
   9.000000E+99

> <Gold.Protein.RotatedTorsions>
[ 6907 6896 6895 6894 ] final  122.84 input  -60.11 | X-H torsion
[ 7974 7965 7964 7962 ] final  -74.40 input  175.53 | X-H torsion
[ 8008 7997 7996 7995 ] final  131.71 input   59.86 | X-H torsion
[ 10167 10162 10161 10158 ] final  107.52 input  -65.29 | X-H torsion
[ 10718 10713 10712 10709 ] final  -62.41 input   66.30 | X-H torsion
[ 10763 10752 10751 10750 ] final   85.35 input  -60.55 | X-H torsion
[ 11005 11000 10999 10996 ] final  134.04 input  -57.11 | X-H torsion

> <Gold.Protein.ActiveResidues>
 VAL166  LYS551  ARG553  GLY616  TRP617  ASP618  TYR619  PRO620  LYS621  CYS622 
 ASP623  PHE694  ASN695  SER759  ASP760  ASP761  ALA762  ILE779  LEU786  VAL792 
 PHE793  MET794  SER795  GLU796  ALA797  LYS798  CYS799  TRP800  GLU811  SER814 

> <Gold.Protein.RotatedAtoms>
  152.4210  133.7117  159.6482 H   0  0  0  0  0  0  0  0  0  0  0  0  # atno 6907 bound_to 6896
  150.8086  133.8452  159.3199 H   0  0  0  0  0  0  0  0  0  0  0  0  # atno 6908 bound_to 6896
  151.6169  135.1037  160.0145 H   0  0  0  0  0  0  0  0  0  0  0  0  # atno 6909 bound_to 6896
  145.6397  140.9314  143.1043 H   0  0  0  0  0  0  0  0  0  0  0  0  # atno 7974 bound_to 7965
  156.2973  140.2564  156.2970 H   0  0  0  0  0  0  0  0  0  0  0  0  # atno 8008 bound_to 7997
  154.9454  140.0395  157.2136 H   0  0  0  0  0  0  0  0  0  0  0  0  # atno 8009 bound_to 7997
  154.8086  140.2840  155.5874 H   0  0  0  0  0  0  0  0  0  0  0  0  # atno 8010 bound_to 7997
  139.6920  144.7106  151.1331 H   0  0  0  0  0  0  0  0  0  0  0  0  # atno 10167 bound_to 10162
  156.0857  130.4209  150.1131 H   0  0  0  0  0  0  0  0  0  0  0  0  # atno 10718 bound_to 10713
  153.1467  135.4620  154.9576 H   0  0  0  0  0  0  0  0  0  0  0  0  # atno 10763 bound_to 10752
  154.7791  135.3183  154.8030 H   0  0  0  0  0  0  0  0  0  0  0  0  # atno 10764 bound_to 10752
  153.8542  135.6918  153.4843 H   0  0  0  0  0  0  0  0  0  0  0  0  # atno 10765 bound_to 10752
  139.9889  134.9522  156.9810 H   0  0  0  0  0  0  0  0  0  0  0  0  # atno 11005 bound_to 11000
  144.7162  139.8188  143.7398 LP  0  0  0  0  0  0  0  0  0  0  0  0  # atno 17320 bound_to 7965
  146.1291  139.4323  143.0180 LP  0  0  0  0  0  0  0  0  0  0  0  0  # atno 17321 bound_to 7965
  140.7685  143.5545  150.9167 LP  0  0  0  0  0  0  0  0  0  0  0  0  # atno 17342 bound_to 10162
  139.9223  143.6591  152.3094 LP  0  0  0  0  0  0  0  0  0  0  0  0  # atno 17343 bound_to 10162
  156.9152  130.9665  151.3557 LP  0  0  0  0  0  0  0  0  0  0  0  0  # atno 17370 bound_to 10713
  157.5991  130.8499  149.8774 LP  0  0  0  0  0  0  0  0  0  0  0  0  # atno 17371 bound_to 10713
  140.4946  134.1158  155.7239 LP  0  0  0  0  0  0  0  0  0  0  0  0  # atno 17394 bound_to 11000
  141.1549  133.8901  157.2003 LP  0  0  0  0  0  0  0  0  0  0  0  0  # atno 17395 bound_to 11000

$$$$
