AV-unprocessed.smi:2905|AV-procd|sdf|11161|dock9
  -GOLD-   2272016 43D 1   1.00000     0.00000
 Structure written by MMmdl.
 39 40  0  0  0  0  0  0  0  0  1 V2000
  146.5181  140.8639  155.9756 C   0  0  0  0  0  0  0  0  0  0  0  0
  147.0005  141.1884  154.5404 C   0  0  0  0  0  0  0  0  0  0  0  0
  146.2310  142.4396  154.0697 C   0  0  0  0  0  0  0  0  0  0  0  0
  148.5122  141.4835  154.6222 C   0  0  0  0  0  0  0  0  0  0  0  0
  146.7477  140.0234  153.5664 C   0  0  0  0  0  0  0  0  0  0  0  0
  147.1084  140.1766  152.2855 N   0  0  0  0  0  0  0  0  0  0  0  0
  146.8810  139.1478  151.4413 C   0  0  0  0  0  0  0  0  0  0  0  0
  146.2849  137.9427  151.8838 C   0  0  0  0  0  0  0  0  0  0  0  0
  145.9857  136.8252  151.0600 N   0  0  0  0  0  0  0  0  0  0  0  0
  145.2450  135.7386  151.3521 C   0  0  0  0  0  0  0  0  0  0  0  0
  144.6241  135.5763  152.4002 O   0  0  0  0  0  0  0  0  0  0  0  0
  145.1992  134.8234  150.3672 N   0  0  0  0  0  0  0  0  0  0  0  0
  144.4916  133.5416  150.3579 C   0  0  0  0  0  0  0  0  0  0  0  0
  144.3641  132.9123  151.7691 C   0  0  0  0  0  0  0  0  0  0  0  0
  144.7359  131.4711  151.5499 C   0  0  0  0  0  0  0  0  0  0  0  0
  145.1941  131.2465  150.3201 C   0  0  0  0  0  0  0  0  0  0  0  0
  145.2176  132.4942  149.4796 C   0  0  0  0  0  0  0  0  0  0  0  0
  145.9369  137.8958  153.2485 C   0  0  0  0  0  0  0  0  0  0  0  0
  146.1718  138.9302  154.0830 N   0  0  0  0  0  0  0  0  0  0  0  0
  146.7051  141.6965  156.6546 H   0  0  0  0  0  0  0  0  0  0  0  0
  147.0320  139.9938  156.3867 H   0  0  0  0  0  0  0  0  0  0  0  0
  145.4466  140.6613  156.0047 H   0  0  0  0  0  0  0  0  0  0  0  0
  145.1597  142.2448  154.0104 H   0  0  0  0  0  0  0  0  0  0  0  0
  146.5598  142.7681  153.0831 H   0  0  0  0  0  0  0  0  0  0  0  0
  146.3769  143.2772  154.7528 H   0  0  0  0  0  0  0  0  0  0  0  0
  148.7233  142.2891  155.3265 H   0  0  0  0  0  0  0  0  0  0  0  0
  148.9173  141.7867  153.6564 H   0  0  0  0  0  0  0  0  0  0  0  0
  149.0686  140.6046  154.9500 H   0  0  0  0  0  0  0  0  0  0  0  0
  147.1625  139.3196  150.4143 H   0  0  0  0  0  0  0  0  0  0  0  0
  146.3626  136.8632  150.1242 H   0  0  0  0  0  0  0  0  0  0  0  0
  145.6829  135.0605  149.5130 H   0  0  0  0  0  0  0  0  0  0  0  0
  143.4914  133.6776  149.9423 H   0  0  0  0  0  0  0  0  0  0  0  0
  145.0550  133.3549  152.4881 H   0  0  0  0  0  0  0  0  0  0  0  0
  143.3506  132.9994  152.1615 H   0  0  0  0  0  0  0  0  0  0  0  0
  144.6509  130.7277  152.3287 H   0  0  0  0  0  0  0  0  0  0  0  0
  145.5382  130.2931  149.9470 H   0  0  0  0  0  0  0  0  0  0  0  0
  144.7046  132.3353  148.5306 H   0  0  0  0  0  0  0  0  0  0  0  0
  146.2536  132.7664  149.2735 H   0  0  0  0  0  0  0  0  0  0  0  0
  145.4671  137.0225  153.6769 H   0  0  0  0  0  0  0  0  0  0  0  0
  1  2  1  0  0  0  0
  1 20  1  0  0  0  0
  1 21  1  0  0  0  0
  1 22  1  0  0  0  0
  2  3  1  0  0  0  0
  2  4  1  0  0  0  0
  2  5  1  0  0  0  0
  3 23  1  0  0  0  0
  3 24  1  0  0  0  0
  3 25  1  0  0  0  0
  4 26  1  0  0  0  0
  4 27  1  0  0  0  0
  4 28  1  0  0  0  0
  5 19  1  0  0  0  0
  5  6  2  0  0  0  0
  6  7  1  0  0  0  0
  7  8  2  0  0  0  0
  7 29  1  0  0  0  0
  8  9  1  0  0  0  0
  8 18  1  0  0  0  0
  9 10  1  0  0  0  0
  9 30  1  0  0  0  0
 10 11  2  0  0  0  0
 10 12  1  0  0  0  0
 12 13  1  0  0  0  0
 12 31  1  0  0  0  0
 13 17  1  0  0  0  0
 13 14  1  0  0  0  0
 13 32  1  0  0  0  0
 14 15  1  0  0  0  0
 14 33  1  0  0  0  0
 14 34  1  0  0  0  0
 15 16  2  0  0  0  0
 15 35  1  0  0  0  0
 16 17  1  0  0  0  0
 16 36  1  0  0  0  0
 17 37  1  0  0  0  0
 17 38  1  0  0  0  0
 18 19  2  0  0  0  0
 18 39  1  0  0  0  0
M  END
> <s_m_source_file>
AV-unprocessed.smi

> <i_m_source_file_index>
2905

> <i_lp_mmshare_version>
43012

> <i_f3d_flags>
0

> <s_epik_input>
W0NIM11DKFtDSDNdKShbQ0gzXSljMW5bY0hdYyhbY0hdbjEpW05IXUMoPU8pW05IXVtDSF0yW0NIMl1bQ0hdPVtDSF1bQ0gyXTI=

> <s_epik_cmdline>
J2VwaWtfcHl0aG9uJywgJy1waCcsICc3LjAnLCAnLXRuJywgJzgnLCAnLW1hJywgJzIwMCcsICctbWV0YWxfYmluZGluZycsICctaW1hZScsICc8aW5maWxlLm1hZT4nLCAnLW9tYWUnLCAnPG91dGZpbGUubWFlPic=

> <r_lp_tautomer_probability>
1

> <r_epik_Ionization_Penalty>
2.65275e-05

> <r_epik_Ionization_Penalty_Charging>
0

> <r_epik_Ionization_Penalty_Neutral>
2.65275e-05

> <r_epik_State_Penalty>
-0

> <r_epik_Charging_Adjusted_Penalty>
0

> <i_epik_Tot_Q>
0

> <i_epik_Tot_abs_Q>
0

> <r_epik_Metal_State_Penalty>
-0

> <b_epik_Metal_Only>
0

> <s_lp_Force_Field>
OPLS_2005

> <r_lp_Energy>
27.7511

> <b_lp_Chiralities_Consistent>
1

> <s_lp_Variant>
AV-unprocessed.smi:2905-1

> <Gold.Version>
5.8.1

> <Gold.Id.Protein>
6NUR|6NUR_protein|mol2

> <Gold.PLP.Fitness>
36.3445

> <Gold.PLP.PLP>
-33.8217

> <Gold.PLP.part.hbond>
-2.6287

> <Gold.PLP.part.metal>
0.0000

> <Gold.PLP.part.buried>
-2.0249

> <Gold.PLP.part.nonpolar>
-32.3893

> <Gold.PLP.part.repulsive>
2.9340

> <Gold.PLP.ligand.clash>
0.0000

> <Gold.PLP.ligand.torsion>
0.4002

> <Gold.PLP.Chemscore.Hbond>
1.0000

> <Gold.PLP.Chemscore.CHOScore>
0.1059

> <Gold.PLP.Chemscore.Metal>
0.0000

> <Gold.Chemscore.Hbonds>
donor molecule, donor type, donor heavy atom, donor atom, acceptor molecule, acceptor atom, score
      L1  H    12    31       P1  7921  1.00
      L1  C     7    29       P1  7957  0.21

> <Gold.PLP.Chemscore.Internal.Correction>
0.0057

> <Gold.Rescore>
     Score         DG    S(hbond)    S(metal)    S(lipo)     H(rot)  DE(clash)    DE(int)     intcor
     11.52     -16.43       0.96        0.00      91.72       1.17       1.89       3.02       ----

> <Gold.Chemscore.Fitness>
11.5159

> <Gold.Chemscore.DG>
-16.4307

> <Gold.Chemscore.ZeroCoef>
-5.4800

> <Gold.Chemscore.Hbond>
0.9624

> <Gold.Chemscore.Metal>
0.0000

> <Gold.Chemscore.Lipo>
91.7193

> <Gold.Chemscore.Internal_Hbond>
0.0000

> <Gold.Chemscore.DEClash>
1.8901

> <Gold.Chemscore.DEInternal>
3.0247

> <Gold.Chemscore.Rot>
1.1699

> <Gold.Chemscore.Internal.Correction>
   9.000000E+99

> <Gold.Chemscore.Hbonds>
donor molecule, donor type, donor heavy atom, donor atom, acceptor molecule, acceptor atom, score
      L1  H    12    31       P1  7921  0.96

> <Gold.Chemscore.Hbond.Weighted>
-3.2144

> <Gold.Chemscore.Metal.Weighted>
-0.0000

> <Gold.Chemscore.Lipo.Weighted>
-10.7312

> <Gold.Chemscore.Internal_Hbond.Weighted>
0.0000

> <Gold.Chemscore.DEClash.Weighted>
1.8901

> <Gold.Chemscore.DEInternal.Weighted>
3.0247

> <Gold.Chemscore.Rot.Weighted>
2.9949

> <Gold.Chemscore.Internal.Correction.Weighted>
   9.000000E+99

> <Gold.Protein.RotatedTorsions>
[ 6907 6896 6895 6894 ] final   52.74 input  -60.11 | X-H torsion
[ 7974 7965 7964 7962 ] final  -36.21 input  175.53 | X-H torsion
[ 8008 7997 7996 7995 ] final  -12.50 input   59.86 | X-H torsion
[ 10167 10162 10161 10158 ] final   46.47 input  -65.29 | X-H torsion
[ 10718 10713 10712 10709 ] final   92.85 input   66.30 | X-H torsion
[ 10763 10752 10751 10750 ] final   20.19 input  -60.55 | X-H torsion
[ 11005 11000 10999 10996 ] final   84.01 input  -57.11 | X-H torsion

> <Gold.Protein.ActiveResidues>
 VAL166  LYS551  ARG553  GLY616  TRP617  ASP618  TYR619  PRO620  LYS621  CYS622 
 ASP623  PHE694  ASN695  SER759  ASP760  ASP761  ALA762  ILE779  LEU786  VAL792 
 PHE793  MET794  SER795  GLU796  ALA797  LYS798  CYS799  TRP800  GLU811  SER814 

> <Gold.Protein.RotatedAtoms>
  152.3264  134.7315  160.0300 H   0  0  0  0  0  0  0  0  0  0  0  0  # atno 6907 bound_to 6896
  151.7746  133.3339  159.3462 H   0  0  0  0  0  0  0  0  0  0  0  0  # atno 6908 bound_to 6896
  150.7398  134.5919  159.6036 H   0  0  0  0  0  0  0  0  0  0  0  0  # atno 6909 bound_to 6896
  146.0681  140.6252  142.8965 H   0  0  0  0  0  0  0  0  0  0  0  0  # atno 7974 bound_to 7965
  154.5372  140.2274  155.8703 H   0  0  0  0  0  0  0  0  0  0  0  0  # atno 8008 bound_to 7997
  156.1823  140.3097  155.9134 H   0  0  0  0  0  0  0  0  0  0  0  0  # atno 8009 bound_to 7997
  155.3331  140.0446  157.3034 H   0  0  0  0  0  0  0  0  0  0  0  0  # atno 8010 bound_to 7997
  140.3136  144.2790  150.6195 H   0  0  0  0  0  0  0  0  0  0  0  0  # atno 10167 bound_to 10162
  157.6957  131.0457  150.3944 H   0  0  0  0  0  0  0  0  0  0  0  0  # atno 10718 bound_to 10713
  153.1098  135.6694  153.9520 H   0  0  0  0  0  0  0  0  0  0  0  0  # atno 10763 bound_to 10752
  153.9067  135.3030  155.3450 H   0  0  0  0  0  0  0  0  0  0  0  0  # atno 10764 bound_to 10752
  154.7518  135.5031  153.9380 H   0  0  0  0  0  0  0  0  0  0  0  0  # atno 10765 bound_to 10752
  139.9013  134.8186  156.2387 H   0  0  0  0  0  0  0  0  0  0  0  0  # atno 11005 bound_to 11000
  144.7214  140.4386  143.7005 LP  0  0  0  0  0  0  0  0  0  0  0  0  # atno 17320 bound_to 7965
  145.6441  139.1554  143.2899 LP  0  0  0  0  0  0  0  0  0  0  0  0  # atno 17321 bound_to 7965
  140.5546  143.2201  151.7869 LP  0  0  0  0  0  0  0  0  0  0  0  0  # atno 17342 bound_to 10162
  139.4888  144.4431  151.9742 LP  0  0  0  0  0  0  0  0  0  0  0  0  # atno 17343 bound_to 10162
  156.4344  130.3978  149.6739 LP  0  0  0  0  0  0  0  0  0  0  0  0  # atno 17370 bound_to 10713
  156.3944  130.7643  151.2647 LP  0  0  0  0  0  0  0  0  0  0  0  0  # atno 17371 bound_to 10713
  141.0298  133.6995  156.1411 LP  0  0  0  0  0  0  0  0  0  0  0  0  # atno 17394 bound_to 11000
  140.7112  134.4459  157.5581 LP  0  0  0  0  0  0  0  0  0  0  0  0  # atno 17395 bound_to 11000

$$$$
