AV-unprocessed.smi:824|AV-procd|sdf|3848|dock7
  -GOLD-   22720 1293D 1   1.00000     0.00000
 Structure written by MMmdl.
 52 53  0  0  0  0  0  0  0  0  1 V2000
  152.9477  138.3223  159.6498 C   0  0  0  0  0  0  0  0  0  0  0  0
  151.9547  139.3255  159.0895 C   0  0  0  0  0  0  0  0  0  0  0  0
  152.2824  140.6736  159.2800 N   0  0  0  0  0  0  0  0  0  0  0  0
  151.4958  141.6063  158.8424 C   0  0  0  0  0  0  0  0  0  0  0  0
  151.7106  142.9814  158.9631 N   0  0  0  0  0  0  0  0  0  0  0  0
  151.6355  143.8773  157.8060 C   0  0  0  0  0  0  0  0  0  0  0  0
  152.4174  145.1784  158.0530 C   0  0  0  0  0  0  0  0  0  0  0  0
  151.9460  145.8036  159.2388 O   0  0  0  0  0  0  0  0  0  0  0  0
  152.1455  144.9739  160.3747 C   0  0  0  0  0  0  0  0  0  0  0  0
  151.3549  143.6657  160.2063 C   0  0  0  0  0  0  0  0  0  0  0  0
  150.3187  141.2703  158.1647 N   0  0  0  0  0  0  0  0  0  0  0  0
  149.9168  140.0026  157.9256 C   0  0  0  0  0  0  0  0  0  0  0  0
  148.8701  139.7849  157.3171 O   0  0  0  0  0  0  0  0  0  0  0  0
  150.8175  138.9567  158.4365 C   0  0  0  0  0  0  0  0  0  0  0  0
  150.4123  137.5013  158.2198 C   0  0  0  0  0  0  0  0  0  0  0  0
  149.2342  137.0888  159.1243 C   0  0  0  0  0  0  0  0  0  0  0  0
  148.6087  135.7311  158.7553 C   0  0  0  0  0  0  0  0  0  0  0  0
  149.2311  134.9605  158.0219 O   0  0  0  0  0  0  0  0  0  0  0  0
  147.3870  135.4228  159.2542 N   0  0  0  0  0  0  0  0  0  0  0  0
  146.7252  134.1409  158.9901 C   0  0  0  0  0  0  0  0  0  0  0  0
  146.6626  136.3471  160.1410 C   0  0  0  0  0  0  0  0  0  0  0  0
  146.2828  135.7122  161.4991 C   0  0  0  0  0  0  0  0  0  0  0  0
  145.2646  136.5903  162.2408 C   0  0  0  0  0  0  0  0  0  0  0  0
  147.5077  135.4378  162.3884 C   0  0  0  0  0  0  0  0  0  0  0  0
  149.7292  142.0164  157.8258 H   0  0  0  0  0  0  0  0  0  0  0  0
  153.2402  137.6016  158.8859 H   0  0  0  0  0  0  0  0  0  0  0  0
  152.5089  137.7818  160.4888 H   0  0  0  0  0  0  0  0  0  0  0  0
  153.8528  138.8167  160.0051 H   0  0  0  0  0  0  0  0  0  0  0  0
  152.0221  143.4059  156.9025 H   0  0  0  0  0  0  0  0  0  0  0  0
  150.5869  144.1077  157.6131 H   0  0  0  0  0  0  0  0  0  0  0  0
  153.4876  144.9800  158.1308 H   0  0  0  0  0  0  0  0  0  0  0  0
  152.2816  145.8622  157.2149 H   0  0  0  0  0  0  0  0  0  0  0  0
  153.2091  144.7706  160.5109 H   0  0  0  0  0  0  0  0  0  0  0  0
  151.8072  145.5043  161.2647 H   0  0  0  0  0  0  0  0  0  0  0  0
  150.2843  143.8740  160.1999 H   0  0  0  0  0  0  0  0  0  0  0  0
  151.5490  143.0228  161.0660 H   0  0  0  0  0  0  0  0  0  0  0  0
  150.1497  137.3404  157.1741 H   0  0  0  0  0  0  0  0  0  0  0  0
  151.2744  136.8568  158.3999 H   0  0  0  0  0  0  0  0  0  0  0  0
  149.5751  137.0420  160.1591 H   0  0  0  0  0  0  0  0  0  0  0  0
  148.4646  137.8598  159.0750 H   0  0  0  0  0  0  0  0  0  0  0  0
  147.2643  133.3247  159.4722 H   0  0  0  0  0  0  0  0  0  0  0  0
  146.6716  133.9369  157.9203 H   0  0  0  0  0  0  0  0  0  0  0  0
  145.6997  134.1189  159.3598 H   0  0  0  0  0  0  0  0  0  0  0  0
  147.2484  137.2514  160.3112 H   0  0  0  0  0  0  0  0  0  0  0  0
  145.7605  136.6955  159.6344 H   0  0  0  0  0  0  0  0  0  0  0  0
  145.7977  134.7547  161.3063 H   0  0  0  0  0  0  0  0  0  0  0  0
  145.6839  137.5687  162.4786 H   0  0  0  0  0  0  0  0  0  0  0  0
  144.9524  136.1257  163.1764 H   0  0  0  0  0  0  0  0  0  0  0  0
  144.3690  136.7491  161.6393 H   0  0  0  0  0  0  0  0  0  0  0  0
  148.0603  136.3549  162.5950 H   0  0  0  0  0  0  0  0  0  0  0  0
  148.1937  134.7323  161.9191 H   0  0  0  0  0  0  0  0  0  0  0  0
  147.2094  135.0075  163.3446 H   0  0  0  0  0  0  0  0  0  0  0  0
  1  2  1  0  0  0  0
  1 26  1  0  0  0  0
  1 27  1  0  0  0  0
  1 28  1  0  0  0  0
  2 14  2  0  0  0  0
  2  3  1  0  0  0  0
  3  4  2  0  0  0  0
  4  5  1  0  0  0  0
  4 11  1  0  0  0  0
  5 10  1  0  0  0  0
  5  6  1  0  0  0  0
  6  7  1  0  0  0  0
  6 29  1  0  0  0  0
  6 30  1  0  0  0  0
  7  8  1  0  0  0  0
  7 31  1  0  0  0  0
  7 32  1  0  0  0  0
  8  9  1  0  0  0  0
  9 10  1  0  0  0  0
  9 33  1  0  0  0  0
  9 34  1  0  0  0  0
 10 35  1  0  0  0  0
 10 36  1  0  0  0  0
 11 25  1  0  0  0  0
 11 12  1  0  0  0  0
 12 13  2  0  0  0  0
 12 14  1  0  0  0  0
 14 15  1  0  0  0  0
 15 16  1  0  0  0  0
 15 37  1  0  0  0  0
 15 38  1  0  0  0  0
 16 17  1  0  0  0  0
 16 39  1  0  0  0  0
 16 40  1  0  0  0  0
 17 18  2  0  0  0  0
 17 19  1  0  0  0  0
 19 20  1  0  0  0  0
 19 21  1  0  0  0  0
 20 41  1  0  0  0  0
 20 42  1  0  0  0  0
 20 43  1  0  0  0  0
 21 22  1  0  0  0  0
 21 44  1  0  0  0  0
 21 45  1  0  0  0  0
 22 23  1  0  0  0  0
 22 24  1  0  0  0  0
 22 46  1  0  0  0  0
 23 47  1  0  0  0  0
 23 48  1  0  0  0  0
 23 49  1  0  0  0  0
 24 50  1  0  0  0  0
 24 51  1  0  0  0  0
 24 52  1  0  0  0  0
M  END
> <s_m_source_file>
AV-unprocessed.smi

> <i_m_source_file_index>
824

> <i_lp_mmshare_version>
43012

> <i_f3d_flags>
0

> <s_epik_input>
W0NIMl0xW0NIMl1PW0NIMl1bQ0gyXU4xYyhuYzJbQ0gzXSlbbkhdYyg9TyljMltDSDJdW0NIMl1DKD1PKU4oW0NIM10pW0NIMl1bQ0hdKFtDSDNdKVtDSDNd

> <s_epik_cmdline>
J2VwaWtfcHl0aG9uJywgJy1waCcsICc3LjAnLCAnLXRuJywgJzgnLCAnLW1hJywgJzIwMCcsICctbWV0YWxfYmluZGluZycsICctaW1hZScsICc8aW5maWxlLm1hZT4nLCAnLW9tYWUnLCAnPG91dGZpbGUubWFlPic=

> <r_lp_tautomer_probability>
0.878553

> <r_epik_Ionization_Penalty>
0.00115806

> <r_epik_Ionization_Penalty_Charging>
0.00113132

> <r_epik_Ionization_Penalty_Neutral>
2.67354e-05

> <r_epik_State_Penalty>
0.0423856

> <r_epik_Charging_Adjusted_Penalty>
0.0435169

> <i_epik_Tot_Q>
0

> <i_epik_Tot_abs_Q>
0

> <r_epik_Metal_State_Penalty>
1.05917

> <b_epik_Metal_Only>
0

> <s_lp_Force_Field>
OPLS_2005

> <r_lp_Energy>
33.2944

> <b_lp_Chiralities_Consistent>
1

> <s_lp_Variant>
AV-unprocessed.smi:824-1

> <Gold.Version>
5.8.1

> <Gold.Id.Protein>
6NUR|6NUR_protein|mol2

> <Gold.PLP.Fitness>
40.0094

> <Gold.PLP.PLP>
-40.0744

> <Gold.PLP.part.hbond>
-2.0000

> <Gold.PLP.part.metal>
0.0000

> <Gold.PLP.part.buried>
-7.0971

> <Gold.PLP.part.nonpolar>
-30.7296

> <Gold.PLP.part.repulsive>
0.2594

> <Gold.PLP.ligand.clash>
0.0000

> <Gold.PLP.ligand.torsion>
1.6610

> <Gold.PLP.Chemscore.Hbond>
0.9760

> <Gold.PLP.Chemscore.CHOScore>
0.0000

> <Gold.PLP.Chemscore.Metal>
0.0000

> <Gold.Chemscore.Hbonds>
donor molecule, donor type, donor heavy atom, donor atom, acceptor molecule, acceptor atom, score
      P1  H  6896  6908       L1    18  0.71

> <Gold.PLP.Chemscore.Internal.Correction>
0.3290

> <Gold.Rescore>
     Score         DG    S(hbond)    S(metal)    S(lipo)     H(rot)  DE(clash)    DE(int)     intcor
     14.84     -16.63       0.93        0.00     106.10       1.71       0.20       1.59       ----

> <Gold.Chemscore.Fitness>
14.8381

> <Gold.Chemscore.DG>
-16.6292

> <Gold.Chemscore.ZeroCoef>
-5.4800

> <Gold.Chemscore.Hbond>
0.9317

> <Gold.Chemscore.Metal>
0.0000

> <Gold.Chemscore.Lipo>
106.0973

> <Gold.Chemscore.Internal_Hbond>
0.0000

> <Gold.Chemscore.DEClash>
0.2037

> <Gold.Chemscore.DEInternal>
1.5874

> <Gold.Chemscore.Rot>
1.7093

> <Gold.Chemscore.Internal.Correction>
   9.000000E+99

> <Gold.Chemscore.Hbonds>
donor molecule, donor type, donor heavy atom, donor atom, acceptor molecule, acceptor atom, score
      P1  H  6896  6908       L1    18  0.28

> <Gold.Chemscore.Hbond.Weighted>
-3.1117

> <Gold.Chemscore.Metal.Weighted>
-0.0000

> <Gold.Chemscore.Lipo.Weighted>
-12.4134

> <Gold.Chemscore.Internal_Hbond.Weighted>
0.0000

> <Gold.Chemscore.DEClash.Weighted>
0.2037

> <Gold.Chemscore.DEInternal.Weighted>
1.5874

> <Gold.Chemscore.Rot.Weighted>
4.3759

> <Gold.Chemscore.Internal.Correction.Weighted>
   9.000000E+99

> <Gold.Protein.RotatedTorsions>
[ 6907 6896 6895 6894 ] final  137.02 input  -60.11 | X-H torsion
[ 7974 7965 7964 7962 ] final  142.13 input  175.53 | X-H torsion
[ 8008 7997 7996 7995 ] final -147.84 input   59.86 | X-H torsion
[ 10167 10162 10161 10158 ] final  106.18 input  -65.29 | X-H torsion
[ 10718 10713 10712 10709 ] final   97.39 input   66.30 | X-H torsion
[ 10763 10752 10751 10750 ] final  123.32 input  -60.55 | X-H torsion
[ 11005 11000 10999 10996 ] final   11.96 input  -57.11 | X-H torsion

> <Gold.Protein.ActiveResidues>
 VAL166  LYS551  ARG553  GLY616  TRP617  ASP618  TYR619  PRO620  LYS621  CYS622 
 ASP623  PHE694  ASN695  SER759  ASP760  ASP761  ALA762  ILE779  LEU786  VAL792 
 PHE793  MET794  SER795  GLU796  ALA797  LYS798  CYS799  TRP800  GLU811  SER814 

> <Gold.Protein.RotatedAtoms>
  152.2828  133.5486  159.5508 H   0  0  0  0  0  0  0  0  0  0  0  0  # atno 6907 bound_to 6896
  150.7203  134.0540  159.3817 H   0  0  0  0  0  0  0  0  0  0  0  0  # atno 6908 bound_to 6896
  151.8450  135.0577  160.0503 H   0  0  0  0  0  0  0  0  0  0  0  0  # atno 6909 bound_to 6896
  144.9035  139.5391  143.5742 H   0  0  0  0  0  0  0  0  0  0  0  0  # atno 7974 bound_to 7965
  155.5820  140.0644  157.2781 H   0  0  0  0  0  0  0  0  0  0  0  0  # atno 8008 bound_to 7997
  154.4330  140.1850  156.1032 H   0  0  0  0  0  0  0  0  0  0  0  0  # atno 8009 bound_to 7997
  156.0298  140.3307  155.7131 H   0  0  0  0  0  0  0  0  0  0  0  0  # atno 8010 bound_to 7997
  139.7030  144.7091  151.1153 H   0  0  0  0  0  0  0  0  0  0  0  0  # atno 10167 bound_to 10162
  157.6913  131.0608  150.4636 H   0  0  0  0  0  0  0  0  0  0  0  0  # atno 10718 bound_to 10713
  153.6437  135.3375  155.3079 H   0  0  0  0  0  0  0  0  0  0  0  0  # atno 10763 bound_to 10752
  154.8553  135.4324  154.1977 H   0  0  0  0  0  0  0  0  0  0  0  0  # atno 10764 bound_to 10752
  153.2903  135.7016  153.7374 H   0  0  0  0  0  0  0  0  0  0  0  0  # atno 10765 bound_to 10752
  140.4974  134.0780  155.7785 H   0  0  0  0  0  0  0  0  0  0  0  0  # atno 11005 bound_to 11000
  146.3121  139.7784  142.9012 LP  0  0  0  0  0  0  0  0  0  0  0  0  # atno 17320 bound_to 7965
  145.3576  141.0320  143.3303 LP  0  0  0  0  0  0  0  0  0  0  0  0  # atno 17321 bound_to 7965
  140.7714  143.5397  150.9327 LP  0  0  0  0  0  0  0  0  0  0  0  0  # atno 17342 bound_to 10162
  139.9079  143.6755  152.3120 LP  0  0  0  0  0  0  0  0  0  0  0  0  # atno 17343 bound_to 10162
  156.4979  130.4110  149.6369 LP  0  0  0  0  0  0  0  0  0  0  0  0  # atno 17370 bound_to 10713
  156.3356  130.7354  151.2291 LP  0  0  0  0  0  0  0  0  0  0  0  0  # atno 17371 bound_to 10713
  141.1453  133.9066  157.2230 LP  0  0  0  0  0  0  0  0  0  0  0  0  # atno 17394 bound_to 11000
  139.9733  135.0121  156.9568 LP  0  0  0  0  0  0  0  0  0  0  0  0  # atno 17395 bound_to 11000

$$$$
