AV-unprocessed.smi:2896|AV-procd|sdf|11136|dock3
  -GOLD-   2272016 13D 1   1.00000     0.00000
 Structure written by MMmdl.
 50 51  0  0  0  0  0  0  0  0  2 V2000
  150.7559  136.2946  156.9596 C   0  0  0  0  0  0  0  0  0  0  0  0
  150.1681  136.3426  155.5379 C   0  0  2  0  0  0  0  0  0  0  0  0
  150.7152  137.5803  154.7927 C   0  0  0  0  0  0  0  0  0  0  0  0
  150.1941  138.8357  155.3269 N   0  0  0  0  0  0  0  0  0  0  0  0
  150.8706  139.7030  156.1004 C   0  0  0  0  0  0  0  0  0  0  0  0
  152.0349  139.4992  156.4481 O   0  0  0  0  0  0  0  0  0  0  0  0
  150.1500  141.0012  156.5459 C   0  0  0  0  0  0  0  0  0  0  0  0
  149.8045  141.9227  155.3476 C   0  0  0  0  0  0  0  0  0  0  0  0
  148.8040  140.6017  157.2023 C   0  0  0  0  0  0  0  0  0  0  0  0
  151.0930  141.7422  157.5134 C   0  0  0  0  0  0  0  0  0  0  0  0
  151.6068  141.0848  158.6577 C   0  0  0  0  0  0  0  0  0  0  0  0
  152.4664  141.7759  159.5315 C   0  0  0  0  0  0  0  0  0  0  0  0
  152.7880  143.1126  159.2338 C   0  0  0  0  0  0  0  0  0  0  0  0
  152.3116  143.7614  158.1521 N   0  0  0  0  0  0  0  0  0  0  0  0
  151.4870  143.0905  157.3194 C   0  0  0  0  0  0  0  0  0  0  0  0
  148.6199  136.3137  155.5701 C   0  0  0  0  0  0  0  0  0  0  0  0
  148.0174  135.5772  154.4294 N   0  3  0  0  0  0  0  0  0  0  0  0
  148.4511  134.1602  154.3844 C   0  0  0  0  0  0  0  0  0  0  0  0
  147.8486  133.4491  153.1611 C   0  0  0  0  0  0  0  0  0  0  0  0
  146.4310  133.5519  153.2013 O   0  0  0  0  0  0  0  0  0  0  0  0
  145.9954  134.9046  153.1536 C   0  0  0  0  0  0  0  0  0  0  0  0
  146.5368  135.6670  154.3752 C   0  0  0  0  0  0  0  0  0  0  0  0
  150.4206  137.1440  157.5557 H   0  0  0  0  0  0  0  0  0  0  0  0
  151.8458  136.3176  156.9347 H   0  0  0  0  0  0  0  0  0  0  0  0
  150.4674  135.3841  157.4847 H   0  0  0  0  0  0  0  0  0  0  0  0
  150.5296  135.4654  155.0016 H   0  0  0  0  0  0  0  0  0  0  0  0
  151.8066  137.5754  154.7938 H   0  0  0  0  0  0  0  0  0  0  0  0
  150.4181  137.5366  153.7444 H   0  0  0  0  0  0  0  0  0  0  0  0
  149.2460  139.0760  155.0752 H   0  0  0  0  0  0  0  0  0  0  0  0
  150.6850  142.2502  154.7941 H   0  0  0  0  0  0  0  0  0  0  0  0
  149.2930  142.8240  155.6873 H   0  0  0  0  0  0  0  0  0  0  0  0
  149.1413  141.4252  154.6383 H   0  0  0  0  0  0  0  0  0  0  0  0
  148.9348  139.9417  158.0611 H   0  0  0  0  0  0  0  0  0  0  0  0
  148.1606  140.0764  156.4949 H   0  0  0  0  0  0  0  0  0  0  0  0
  148.2518  141.4781  157.5432 H   0  0  0  0  0  0  0  0  0  0  0  0
  151.3448  140.0595  158.8728 H   0  0  0  0  0  0  0  0  0  0  0  0
  152.8687  141.2926  160.4096 H   0  0  0  0  0  0  0  0  0  0  0  0
  153.4446  143.6751  159.8808 H   0  0  0  0  0  0  0  0  0  0  0  0
  151.1446  143.6701  156.4763 H   0  0  0  0  0  0  0  0  0  0  0  0
  148.3073  135.8479  156.5060 H   0  0  0  0  0  0  0  0  0  0  0  0
  148.2057  137.3220  155.5797 H   0  0  0  0  0  0  0  0  0  0  0  0
  149.5394  134.1066  154.3385 H   0  0  0  0  0  0  0  0  0  0  0  0
  148.1427  133.6536  155.3005 H   0  0  0  0  0  0  0  0  0  0  0  0
  148.2311  133.8768  152.2328 H   0  0  0  0  0  0  0  0  0  0  0  0
  148.1267  132.3949  153.1647 H   0  0  0  0  0  0  0  0  0  0  0  0
  146.3240  135.3734  152.2245 H   0  0  0  0  0  0  0  0  0  0  0  0
  144.9053  134.9245  153.1514 H   0  0  0  0  0  0  0  0  0  0  0  0
  146.1102  135.2534  155.2904 H   0  0  0  0  0  0  0  0  0  0  0  0
  146.2177  136.7067  154.3153 H   0  0  0  0  0  0  0  0  0  0  0  0
  148.3724  136.0077  153.5874 H   0  0  0  0  0  0  0  0  0  0  0  0
  1  2  1  0  0  0  0
  1 23  1  0  0  0  0
  1 24  1  0  0  0  0
  1 25  1  0  0  0  0
  2  3  1  0  0  0  0
  2 16  1  0  0  0  0
  2 26  1  0  0  0  0
  3  4  1  0  0  0  0
  3 27  1  0  0  0  0
  3 28  1  0  0  0  0
  4  5  1  0  0  0  0
  4 29  1  0  0  0  0
  5  6  2  0  0  0  0
  5  7  1  0  0  0  0
  7  8  1  0  0  0  0
  7  9  1  0  0  0  0
  7 10  1  0  0  0  0
  8 30  1  0  0  0  0
  8 31  1  0  0  0  0
  8 32  1  0  0  0  0
  9 33  1  0  0  0  0
  9 34  1  0  0  0  0
  9 35  1  0  0  0  0
 10 15  1  0  0  0  0
 10 11  2  0  0  0  0
 11 12  1  0  0  0  0
 11 36  1  0  0  0  0
 12 13  2  0  0  0  0
 12 37  1  0  0  0  0
 13 14  1  0  0  0  0
 13 38  1  0  0  0  0
 14 15  2  0  0  0  0
 15 39  1  0  0  0  0
 16 17  1  0  0  0  0
 16 40  1  0  0  0  0
 16 41  1  0  0  0  0
 17 22  1  0  0  0  0
 17 18  1  0  0  0  0
 17 50  1  0  0  0  0
 18 19  1  0  0  0  0
 18 42  1  0  0  0  0
 18 43  1  0  0  0  0
 19 20  1  0  0  0  0
 19 44  1  0  0  0  0
 19 45  1  0  0  0  0
 20 21  1  0  0  0  0
 21 22  1  0  0  0  0
 21 46  1  0  0  0  0
 21 47  1  0  0  0  0
 22 48  1  0  0  0  0
 22 49  1  0  0  0  0
M  CHG  1  17   1
M  END
> <s_m_source_file>
AV-unprocessed.smi

> <i_m_source_file_index>
2896

> <i_lp_mmshare_version>
43012

> <i_f3d_flags>
0

> <s_epik_input>
W0NIMl0xW0NIMl1PW0NIMl1bQ0gyXU4xW0NIMl1bQ0BIXShbQ0gzXSlbQ0gyXVtOSF1DKD1PKUMoW0NIM10pKFtDSDNdKWMyW2NIXVtjSF1bY0hdbltjSF0y

> <s_epik_cmdline>
J2VwaWtfcHl0aG9uJywgJy1waCcsICc3LjAnLCAnLXRuJywgJzgnLCAnLW1hJywgJzIwMCcsICctbWV0YWxfYmluZGluZycsICctaW1hZScsICc8aW5maWxlLm1hZT4nLCAnLW9tYWUnLCAnPG91dGZpbGUubWFlPic=

> <r_epik_Ionization_Penalty>
0.378644

> <r_epik_Ionization_Penalty_Charging>
0.372108

> <r_epik_Ionization_Penalty_Neutral>
0.0065361

> <r_epik_State_Penalty>
0.380038

> <r_epik_Charging_Adjusted_Penalty>
0.752147

> <i_epik_Tot_Q>
1

> <i_epik_Tot_abs_Q>
1

> <r_epik_Metal_State_Penalty>
0.375202

> <b_epik_Metal_Only>
0

> <s_lp_Force_Field>
OPLS_2005

> <r_lp_Energy>
28.248

> <b_lp_Chiralities_Consistent>
1

> <s_lp_Variant>
AV-unprocessed.smi:2896-1

> <Gold.Version>
5.8.1

> <Gold.Id.Protein>
6NUR|6NUR_protein|mol2

> <Gold.PLP.Fitness>
47.8565

> <Gold.PLP.PLP>
-37.1320

> <Gold.PLP.part.hbond>
-2.0000

> <Gold.PLP.part.metal>
0.0000

> <Gold.PLP.part.buried>
-4.3704

> <Gold.PLP.part.nonpolar>
-31.5090

> <Gold.PLP.part.repulsive>
0.2368

> <Gold.PLP.ligand.clash>
0.0000

> <Gold.PLP.ligand.torsion>
0.7304

> <Gold.PLP.Chemscore.Hbond>
3.0000

> <Gold.PLP.Chemscore.CHOScore>
1.0000

> <Gold.PLP.Chemscore.Metal>
0.0000

> <Gold.Chemscore.Hbonds>
donor molecule, donor type, donor heavy atom, donor atom, acceptor molecule, acceptor atom, score
      L1  H    17    50       P1  7948  2.00
      P1  H  7997  8009       L1     6  0.11
      L1  C    15    39       P1  8028  0.82

> <Gold.PLP.Chemscore.Internal.Correction>
0.1853

> <Gold.Rescore>
     Score         DG    S(hbond)    S(metal)    S(lipo)     H(rot)  DE(clash)    DE(int)     intcor
     16.77     -19.22       1.89        0.00     102.49       1.78       0.30       2.16       ----

> <Gold.Chemscore.Fitness>
16.7652

> <Gold.Chemscore.DG>
-19.2243

> <Gold.Chemscore.ZeroCoef>
-5.4800

> <Gold.Chemscore.Hbond>
1.8868

> <Gold.Chemscore.Metal>
0.0000

> <Gold.Chemscore.Lipo>
102.4923

> <Gold.Chemscore.Internal_Hbond>
0.0000

> <Gold.Chemscore.DEClash>
0.2997

> <Gold.Chemscore.DEInternal>
2.1593

> <Gold.Chemscore.Rot>
1.7771

> <Gold.Chemscore.Internal.Correction>
   9.000000E+99

> <Gold.Chemscore.Hbonds>
donor molecule, donor type, donor heavy atom, donor atom, acceptor molecule, acceptor atom, score
      L1  H    17    50       P1  7948  1.00
      P1  H  7997  8009       L1     6  0.14

> <Gold.Chemscore.Hbond.Weighted>
-6.3021

> <Gold.Chemscore.Metal.Weighted>
-0.0000

> <Gold.Chemscore.Lipo.Weighted>
-11.9916

> <Gold.Chemscore.Internal_Hbond.Weighted>
0.0000

> <Gold.Chemscore.DEClash.Weighted>
0.2997

> <Gold.Chemscore.DEInternal.Weighted>
2.1593

> <Gold.Chemscore.Rot.Weighted>
4.5494

> <Gold.Chemscore.Internal.Correction.Weighted>
   9.000000E+99

> <Gold.Protein.RotatedTorsions>
[ 6907 6896 6895 6894 ] final  -45.60 input  -60.11 | X-H torsion
[ 7974 7965 7964 7962 ] final  -54.32 input  175.53 | X-H torsion
[ 8008 7997 7996 7995 ] final -172.59 input   59.86 | X-H torsion
[ 10167 10162 10161 10158 ] final -127.59 input  -65.29 | X-H torsion
[ 10718 10713 10712 10709 ] final -138.96 input   66.30 | X-H torsion
[ 10763 10752 10751 10750 ] final  -92.13 input  -60.55 | X-H torsion
[ 11005 11000 10999 10996 ] final  177.93 input  -57.11 | X-H torsion

> <Gold.Protein.ActiveResidues>
 VAL166  LYS551  ARG553  GLY616  TRP617  ASP618  TYR619  PRO620  LYS621  CYS622 
 ASP623  PHE694  ASN695  SER759  ASP760  ASP761  ALA762  ILE779  LEU786  VAL792 
 PHE793  MET794  SER795  GLU796  ALA797  LYS798  CYS799  TRP800  GLU811  SER814 

> <Gold.Protein.RotatedAtoms>
  150.9202  134.8619  159.7483 H   0  0  0  0  0  0  0  0  0  0  0  0  # atno 6907 bound_to 6896
  152.4988  134.4230  159.9497 H   0  0  0  0  0  0  0  0  0  0  0  0  # atno 6908 bound_to 6896
  151.4265  133.3643  159.2798 H   0  0  0  0  0  0  0  0  0  0  0  0  # atno 6909 bound_to 6896
  145.8869  140.8101  142.9811 H   0  0  0  0  0  0  0  0  0  0  0  0  # atno 7974 bound_to 7965
  155.9466  140.1118  157.1012 H   0  0  0  0  0  0  0  0  0  0  0  0  # atno 8008 bound_to 7997
  154.4100  140.1208  156.5063 H   0  0  0  0  0  0  0  0  0  0  0  0  # atno 8009 bound_to 7997
  155.6895  140.3472  155.4890 H   0  0  0  0  0  0  0  0  0  0  0  0  # atno 8010 bound_to 7997
  139.9593  143.5968  152.2450 H   0  0  0  0  0  0  0  0  0  0  0  0  # atno 10167 bound_to 10162
  156.3053  130.7451  151.1513 H   0  0  0  0  0  0  0  0  0  0  0  0  # atno 10718 bound_to 10713
  154.6830  135.5242  153.8288 H   0  0  0  0  0  0  0  0  0  0  0  0  # atno 10763 bound_to 10752
  153.0578  135.6557  154.0545 H   0  0  0  0  0  0  0  0  0  0  0  0  # atno 10764 bound_to 10752
  154.0430  135.2975  155.3332 H   0  0  0  0  0  0  0  0  0  0  0  0  # atno 10765 bound_to 10752
  140.3895  134.6875  157.4499 H   0  0  0  0  0  0  0  0  0  0  0  0  # atno 11005 bound_to 11000
  144.6729  140.1470  143.7433 LP  0  0  0  0  0  0  0  0  0  0  0  0  # atno 17320 bound_to 7965
  145.8956  139.2400  143.1524 LP  0  0  0  0  0  0  0  0  0  0  0  0  # atno 17321 bound_to 7965
  139.6567  144.7662  151.2042 LP  0  0  0  0  0  0  0  0  0  0  0  0  # atno 17342 bound_to 10162
  140.7558  143.6075  150.8638 LP  0  0  0  0  0  0  0  0  0  0  0  0  # atno 17343 bound_to 10162
  157.7378  131.0548  150.5334 LP  0  0  0  0  0  0  0  0  0  0  0  0  # atno 17370 bound_to 10713
  156.5467  130.4221  149.6127 LP  0  0  0  0  0  0  0  0  0  0  0  0  # atno 17371 bound_to 10713
  140.0417  134.6257  155.8972 LP  0  0  0  0  0  0  0  0  0  0  0  0  # atno 17394 bound_to 11000
  141.1896  133.6566  156.5374 LP  0  0  0  0  0  0  0  0  0  0  0  0  # atno 17395 bound_to 11000

$$$$
