AV-unprocessed.smi:21|AV-procd|sdf|158|dock4
  -GOLD-   2262015393D 1   1.00000     0.00000
 Structure written by MMmdl.
 61 64  0  0  0  0  0  0  0  0  1 V2000
  157.1111  130.3132  154.0673 C   0  0  0  0  0  0  0  0  0  0  0  0
  155.7076  130.4087  154.2504 O   0  0  0  0  0  0  0  0  0  0  0  0
  155.3043  130.2656  155.6049 C   0  0  2  0  0  0  0  0  0  0  0  0
  153.8051  130.5451  155.8196 C   0  0  0  0  0  0  0  0  0  0  0  0
  153.7660  131.7373  156.7890 C   0  0  1  0  0  0  0  0  0  0  0  0
  152.5214  131.7465  157.7050 C   0  0  0  0  0  0  0  0  0  0  0  0
  151.2862  131.4034  157.0000 N   0  0  0  0  0  0  0  0  0  0  0  0
  150.9777  129.9864  156.8128 C   0  0  0  0  0  0  0  0  0  0  0  0
  150.6663  132.3234  156.2024 C   0  0  0  0  0  0  0  0  0  0  0  0
  150.8678  133.6439  156.4638 N   0  0  0  0  0  0  0  0  0  0  0  0
  150.2784  134.5898  155.7293 C   0  0  0  0  0  0  0  0  0  0  0  0
  149.4579  134.4452  154.6899 N   0  0  0  0  0  0  0  0  0  0  0  0
  149.2529  133.1287  154.4047 C   0  0  0  0  0  0  0  0  0  0  0  0
  149.8097  132.0135  155.0990 C   0  0  0  0  0  0  0  0  0  0  0  0
  149.3673  130.8375  154.5003 N   0  0  0  0  0  0  0  0  0  0  0  0
  148.5972  131.2305  153.5247 C   0  0  0  0  0  0  0  0  0  0  0  0
  148.4801  132.5929  153.3891 N   0  0  0  0  0  0  0  0  0  0  0  0
  147.6977  133.2960  152.3865 C   0  0  0  0  0  0  0  0  0  0  0  0
  146.2242  132.8250  152.3265 C   0  0  1  0  0  0  0  0  0  0  0  0
  145.2750  133.9293  152.8482 C   0  0  0  0  0  0  0  0  0  0  0  0
  143.9297  133.5079  152.7612 O   0  0  0  0  0  0  0  0  0  0  0  0
  145.8288  132.2769  150.9262 C   0  0  2  0  0  0  0  0  0  0  0  0
  145.1577  133.2758  149.9865 C   0  0  0  0  0  0  0  0  0  0  0  0
  144.2255  132.3925  149.1691 C   0  0  0  0  0  0  0  0  0  0  0  0
  143.7526  131.4697  150.1349 O   0  0  0  0  0  0  0  0  0  0  0  0
  144.8583  131.0816  150.9405 C   0  0  0  0  0  0  0  0  0  0  0  0
  155.0359  131.6871  157.4947 N   0  0  0  0  0  0  0  0  0  0  0  0
  155.3868  132.9352  158.1595 C   0  0  0  0  0  0  0  0  0  0  0  0
  155.9900  131.3318  156.4627 C   0  0  0  0  0  0  0  0  0  0  0  0
  155.5635  129.2765  155.9876 H   0  0  0  0  0  0  0  0  0  0  0  0
  153.7600  132.6433  156.1807 H   0  0  0  0  0  0  0  0  0  0  0  0
  157.3494  130.4308  153.0103 H   0  0  0  0  0  0  0  0  0  0  0  0
  157.4960  129.3457  154.3904 H   0  0  0  0  0  0  0  0  0  0  0  0
  157.6335  131.0969  154.6172 H   0  0  0  0  0  0  0  0  0  0  0  0
  153.2790  130.7802  154.8937 H   0  0  0  0  0  0  0  0  0  0  0  0
  153.3298  129.6661  156.2568 H   0  0  0  0  0  0  0  0  0  0  0  0
  152.6764  131.0359  158.5175 H   0  0  0  0  0  0  0  0  0  0  0  0
  152.3986  132.7048  158.2045 H   0  0  0  0  0  0  0  0  0  0  0  0
  149.9052  129.8092  156.9007 H   0  0  0  0  0  0  0  0  0  0  0  0
  151.4726  129.3717  157.5647 H   0  0  0  0  0  0  0  0  0  0  0  0
  151.3076  129.6443  155.8312 H   0  0  0  0  0  0  0  0  0  0  0  0
  150.4950  135.6082  156.0166 H   0  0  0  0  0  0  0  0  0  0  0  0
  148.0969  130.5337  152.8678 H   0  0  0  0  0  0  0  0  0  0  0  0
  147.7491  134.3603  152.6182 H   0  0  0  0  0  0  0  0  0  0  0  0
  148.1757  133.1721  151.4142 H   0  0  0  0  0  0  0  0  0  0  0  0
  146.1308  131.9807  153.0116 H   0  0  0  0  0  0  0  0  0  0  0  0
  145.4943  134.1836  153.8852 H   0  0  0  0  0  0  0  0  0  0  0  0
  145.3709  134.8472  152.2693 H   0  0  0  0  0  0  0  0  0  0  0  0
  143.7265  132.9906  153.5258 H   0  0  0  0  0  0  0  0  0  0  0  0
  146.7289  131.9164  150.4269 H   0  0  0  0  0  0  0  0  0  0  0  0
  144.5636  134.0075  150.5322 H   0  0  0  0  0  0  0  0  0  0  0  0
  145.8692  133.8206  149.3664 H   0  0  0  0  0  0  0  0  0  0  0  0
  143.4094  132.9499  148.7091 H   0  0  0  0  0  0  0  0  0  0  0  0
  144.7709  131.8623  148.3866 H   0  0  0  0  0  0  0  0  0  0  0  0
  145.3315  130.2047  150.4962 H   0  0  0  0  0  0  0  0  0  0  0  0
  144.5241  130.7982  151.9382 H   0  0  0  0  0  0  0  0  0  0  0  0
  156.3699  132.8575  158.6249 H   0  0  0  0  0  0  0  0  0  0  0  0
  154.6703  133.1761  158.9444 H   0  0  0  0  0  0  0  0  0  0  0  0
  155.4105  133.7673  157.4545 H   0  0  0  0  0  0  0  0  0  0  0  0
  156.9318  130.9815  156.8863 H   0  0  0  0  0  0  0  0  0  0  0  0
  156.2094  132.2058  155.8465 H   0  0  0  0  0  0  0  0  0  0  0  0
  1  2  1  0  0  0  0
  1 32  1  0  0  0  0
  1 33  1  0  0  0  0
  1 34  1  0  0  0  0
  2  3  1  0  0  0  0
  3 30  1  0  0  0  0
  3 29  1  0  0  0  0
  3  4  1  0  0  0  0
  4  5  1  0  0  0  0
  4 35  1  0  0  0  0
  4 36  1  0  0  0  0
  5 31  1  0  0  0  0
  5  6  1  0  0  0  0
  5 27  1  0  0  0  0
  6  7  1  0  0  0  0
  6 37  1  0  0  0  0
  6 38  1  0  0  0  0
  7  8  1  0  0  0  0
  7  9  1  0  0  0  0
  8 39  1  0  0  0  0
  8 40  1  0  0  0  0
  8 41  1  0  0  0  0
  9 14  1  0  0  0  0
  9 10  2  0  0  0  0
 10 11  1  0  0  0  0
 11 12  2  0  0  0  0
 11 42  1  0  0  0  0
 12 13  1  0  0  0  0
 13 17  1  0  0  0  0
 13 14  2  0  0  0  0
 14 15  1  0  0  0  0
 15 16  2  0  0  0  0
 16 17  1  0  0  0  0
 16 43  1  0  0  0  0
 17 18  1  0  0  0  0
 18 19  1  0  0  0  0
 18 44  1  0  0  0  0
 18 45  1  0  0  0  0
 19 20  1  0  0  0  0
 19 22  1  0  0  0  0
 19 46  1  0  0  0  0
 20 21  1  0  0  0  0
 20 47  1  0  0  0  0
 20 48  1  0  0  0  0
 21 49  1  0  0  0  0
 22 26  1  0  0  0  0
 22 23  1  0  0  0  0
 22 50  1  0  0  0  0
 23 24  1  0  0  0  0
 23 51  1  0  0  0  0
 23 52  1  0  0  0  0
 24 25  1  0  0  0  0
 24 53  1  0  0  0  0
 24 54  1  0  0  0  0
 25 26  1  0  0  0  0
 26 55  1  0  0  0  0
 26 56  1  0  0  0  0
 27 28  1  0  0  0  0
 27 29  1  0  0  0  0
 28 57  1  0  0  0  0
 28 58  1  0  0  0  0
 28 59  1  0  0  0  0
 29 60  1  0  0  0  0
 29 61  1  0  0  0  0
M  END
> <s_m_source_file>
AV-unprocessed.smi

> <i_m_source_file_index>
21

> <i_lp_mmshare_version>
43012

> <i_f3d_flags>
0

> <s_epik_input>
W0NIM11PW0NASF0xW0NIMl1bQ0BIXShOKFtDSDNdKVtDSDJdMSlbQ0gyXU4oW0NIM10pYyhuW2NIXW4yKWMoYzIzKW5bY0hdbjNbQ0gyXVtDQEhdKFtDSDJdW09IXSlbQ0BASF00W0NIMl1bQ0gyXU9bQ0gyXTQ=

> <s_epik_cmdline>
J2VwaWtfcHl0aG9uJywgJy1waCcsICc3LjAnLCAnLXRuJywgJzgnLCAnLW1hJywgJzIwMCcsICctbWV0YWxfYmluZGluZycsICctaW1hZScsICc8aW5maWxlLm1hZT4nLCAnLW9tYWUnLCAnPG91dGZpbGUubWFlPic=

> <r_lp_tautomer_probability>
1

> <r_epik_Ionization_Penalty>
2.17574

> <r_epik_Ionization_Penalty_Charging>
0

> <r_epik_Ionization_Penalty_Neutral>
2.17574

> <r_epik_State_Penalty>
2.31336

> <r_epik_Charging_Adjusted_Penalty>
2.31336

> <i_epik_Tot_Q>
0

> <i_epik_Tot_abs_Q>
0

> <r_epik_Metal_State_Penalty>
2.31025

> <b_epik_Metal_Only>
0

> <s_lp_Force_Field>
OPLS_2005

> <r_lp_Energy>
69.5253

> <b_lp_Chiralities_Consistent>
1

> <s_lp_Variant>
AV-unprocessed.smi:21-38

> <Gold.Version>
5.8.1

> <Gold.Id.Protein>
6NUR|6NUR_protein|mol2

> <Gold.PLP.Fitness>
45.4116

> <Gold.PLP.PLP>
-42.1547

> <Gold.PLP.part.hbond>
-2.0000

> <Gold.PLP.part.metal>
0.0000

> <Gold.PLP.part.buried>
-3.8885

> <Gold.PLP.part.nonpolar>
-36.6527

> <Gold.PLP.part.repulsive>
0.3809

> <Gold.PLP.ligand.clash>
0.0000

> <Gold.PLP.ligand.torsion>
2.2299

> <Gold.PLP.Chemscore.Hbond>
1.7722

> <Gold.PLP.Chemscore.CHOScore>
0.6107

> <Gold.PLP.Chemscore.Metal>
0.0000

> <Gold.Chemscore.Hbonds>
donor molecule, donor type, donor heavy atom, donor atom, acceptor molecule, acceptor atom, score
      L1  H    21    49       P1 10957  0.96
      P1  H 10785 10796       L1    25  0.52
      L1  C    16    43       P1 10747  0.30

> <Gold.PLP.Chemscore.Internal.Correction>
0.5680

> <Gold.Rescore>
     Score         DG    S(hbond)    S(metal)    S(lipo)     H(rot)  DE(clash)    DE(int)     intcor
      8.37     -11.91       1.22        0.00      85.76       3.00       0.02       3.52       ----

> <Gold.Chemscore.Fitness>
8.3702

> <Gold.Chemscore.DG>
-11.9075

> <Gold.Chemscore.ZeroCoef>
-5.4800

> <Gold.Chemscore.Hbond>
1.2222

> <Gold.Chemscore.Metal>
0.0000

> <Gold.Chemscore.Lipo>
85.7560

> <Gold.Chemscore.Internal_Hbond>
0.0000

> <Gold.Chemscore.DEClash>
0.0153

> <Gold.Chemscore.DEInternal>
3.5220

> <Gold.Chemscore.Rot>
3.0031

> <Gold.Chemscore.Internal.Correction>
   9.000000E+99

> <Gold.Chemscore.Hbonds>
donor molecule, donor type, donor heavy atom, donor atom, acceptor molecule, acceptor atom, score
      L1  H    21    49       P1 10957  0.77
      P1  H 10785 10796       L1    25  0.04

> <Gold.Chemscore.Hbond.Weighted>
-4.0821

> <Gold.Chemscore.Metal.Weighted>
-0.0000

> <Gold.Chemscore.Lipo.Weighted>
-10.0335

> <Gold.Chemscore.Internal_Hbond.Weighted>
0.0000

> <Gold.Chemscore.DEClash.Weighted>
0.0153

> <Gold.Chemscore.DEInternal.Weighted>
3.5220

> <Gold.Chemscore.Rot.Weighted>
7.6880

> <Gold.Chemscore.Internal.Correction.Weighted>
   9.000000E+99

> <Gold.Protein.RotatedTorsions>
[ 6907 6896 6895 6894 ] final -175.22 input  -60.11 | X-H torsion
[ 7974 7965 7964 7962 ] final  -26.79 input  175.53 | X-H torsion
[ 8008 7997 7996 7995 ] final  161.19 input   59.86 | X-H torsion
[ 10167 10162 10161 10158 ] final   -4.28 input  -65.29 | X-H torsion
[ 10718 10713 10712 10709 ] final  101.51 input   66.30 | X-H torsion
[ 10763 10752 10751 10750 ] final -116.64 input  -60.55 | X-H torsion
[ 11005 11000 10999 10996 ] final   16.80 input  -57.11 | X-H torsion

> <Gold.Protein.ActiveResidues>
 VAL166  LYS551  ARG553  GLY616  TRP617  ASP618  TYR619  PRO620  LYS621  CYS622 
 ASP623  PHE694  ASN695  SER759  ASP760  ASP761  ALA762  ILE779  LEU786  VAL792 
 PHE793  MET794  SER795  GLU796  ALA797  LYS798  CYS799  TRP800  GLU811  SER814 

> <Gold.Protein.RotatedAtoms>
  151.5851  133.3373  159.3015 H   0  0  0  0  0  0  0  0  0  0  0  0  # atno 6907 bound_to 6896
  150.8292  134.7540  159.6850 H   0  0  0  0  0  0  0  0  0  0  0  0  # atno 6908 bound_to 6896
  152.4377  134.5659  159.9959 H   0  0  0  0  0  0  0  0  0  0  0  0  # atno 6909 bound_to 6896
  146.1402  140.5066  142.8655 H   0  0  0  0  0  0  0  0  0  0  0  0  # atno 7974 bound_to 7965
  156.2121  140.1784  156.7672 H   0  0  0  0  0  0  0  0  0  0  0  0  # atno 8008 bound_to 7997
  154.5737  140.0678  156.9032 H   0  0  0  0  0  0  0  0  0  0  0  0  # atno 8009 bound_to 7997
  155.2627  140.3337  155.4274 H   0  0  0  0  0  0  0  0  0  0  0  0  # atno 8010 bound_to 7997
  140.6922  143.6441  150.8409 H   0  0  0  0  0  0  0  0  0  0  0  0  # atno 10167 bound_to 10162
  157.6827  131.0728  150.5264 H   0  0  0  0  0  0  0  0  0  0  0  0  # atno 10718 bound_to 10713
  154.8527  135.4338  154.1853 H   0  0  0  0  0  0  0  0  0  0  0  0  # atno 10763 bound_to 10752
  153.2934  135.6963  153.7277 H   0  0  0  0  0  0  0  0  0  0  0  0  # atno 10764 bound_to 10752
  153.6435  135.3464  155.3053 H   0  0  0  0  0  0  0  0  0  0  0  0  # atno 10765 bound_to 10752
  140.4431  134.1301  155.7693 H   0  0  0  0  0  0  0  0  0  0  0  0  # atno 11005 bound_to 11000
  144.7784  140.5788  143.6622 LP  0  0  0  0  0  0  0  0  0  0  0  0  # atno 17320 bound_to 7965
  145.5065  139.1481  143.3628 LP  0  0  0  0  0  0  0  0  0  0  0  0  # atno 17321 bound_to 7965
  140.0155  143.5597  152.2821 LP  0  0  0  0  0  0  0  0  0  0  0  0  # atno 17342 bound_to 10162
  139.6336  144.7647  151.2484 LP  0  0  0  0  0  0  0  0  0  0  0  0  # atno 17343 bound_to 10162
  156.5575  130.4247  149.6078 LP  0  0  0  0  0  0  0  0  0  0  0  0  # atno 17370 bound_to 10713
  156.2849  130.7092  151.1926 LP  0  0  0  0  0  0  0  0  0  0  0  0  # atno 17371 bound_to 10713
  141.1697  133.8633  157.1608 LP  0  0  0  0  0  0  0  0  0  0  0  0  # atno 17394 bound_to 11000
  140.0057  135.0009  157.0286 LP  0  0  0  0  0  0  0  0  0  0  0  0  # atno 17395 bound_to 11000

$$$$
