AV-unprocessed.smi:110|AV-procd|sdf|1064|dock6
  -GOLD-   2262018143D 1   1.00000     0.00000
 Structure written by MMmdl.
 46 50  0  0  0  0  0  0  0  0  1 V2000
  147.4835  137.6893  153.5122 O   0  0  0  0  0  0  0  0  0  0  0  0
  148.3993  138.7511  153.6779 C   0  0  0  0  0  0  0  0  0  0  0  0
  149.4573  138.4975  154.7731 C   0  0  2  0  0  0  0  0  0  0  0  0
  150.7235  139.0675  154.4759 O   0  0  0  0  0  0  0  0  0  0  0  0
  151.6555  138.5983  155.4065 C   0  0  1  0  0  0  0  0  0  0  0  0
  151.8084  139.6384  156.4744 N   0  0  0  0  0  0  0  0  0  0  0  0
  151.2122  140.8764  156.5873 C   0  0  0  0  0  0  0  0  0  0  0  0
  151.5540  141.5647  157.6426 N   0  0  0  0  0  0  0  0  0  0  0  0
  152.4795  140.7582  158.2949 C   0  0  0  0  0  0  0  0  0  0  0  0
  153.2487  140.8775  159.4881 C   0  0  0  0  0  0  0  0  0  0  0  0
  153.2183  141.9433  160.3218 N   0  0  0  0  0  0  0  0  0  0  0  0
  153.4275  141.7298  161.7612 C   0  0  0  0  0  0  0  0  0  0  0  0
  152.8771  142.9640  162.5005 C   0  0  0  0  0  0  0  0  0  0  0  0
  152.4832  143.8336  161.3506 C   0  0  0  0  0  0  0  0  0  0  0  0
  151.9662  145.1396  161.4084 C   0  0  0  0  0  0  0  0  0  0  0  0
  151.6811  145.7963  160.1922 C   0  0  0  0  0  0  0  0  0  0  0  0
  151.9234  145.1505  158.9574 C   0  0  0  0  0  0  0  0  0  0  0  0
  152.4454  143.8385  158.9240 C   0  0  0  0  0  0  0  0  0  0  0  0
  152.7069  143.1798  160.1430 C   0  0  0  0  0  0  0  0  0  0  0  0
  154.0298  139.8244  159.8400 N   0  0  0  0  0  0  0  0  0  0  0  0
  154.0916  138.7424  159.0590 C   0  0  0  0  0  0  0  0  0  0  0  0
  153.4513  138.5035  157.9132 N   0  0  0  0  0  0  0  0  0  0  0  0
  152.6393  139.5442  157.5695 C   0  0  0  0  0  0  0  0  0  0  0  0
  151.0822  137.2976  156.0163 C   0  0  2  0  0  0  0  0  0  0  0  0
  151.9782  136.2045  155.9368 O   0  0  0  0  0  0  0  0  0  0  0  0
  149.7900  137.0696  155.2250 C   0  0  2  0  0  0  0  0  0  0  0  0
  149.9806  136.1907  154.1299 O   0  0  0  0  0  0  0  0  0  0  0  0
  149.0936  139.0250  155.6569 H   0  0  0  0  0  0  0  0  0  0  0  0
  152.6482  138.5021  154.9646 H   0  0  0  0  0  0  0  0  0  0  0  0
  150.8322  137.4684  157.0648 H   0  0  0  0  0  0  0  0  0  0  0  0
  149.0001  136.6580  155.8540 H   0  0  0  0  0  0  0  0  0  0  0  0
  147.7449  137.1808  152.7596 H   0  0  0  0  0  0  0  0  0  0  0  0
  148.8911  138.9417  152.7236 H   0  0  0  0  0  0  0  0  0  0  0  0
  147.8292  139.6477  153.9222 H   0  0  0  0  0  0  0  0  0  0  0  0
  150.5069  141.2609  155.8652 H   0  0  0  0  0  0  0  0  0  0  0  0
  152.9260  140.8202  162.0948 H   0  0  0  0  0  0  0  0  0  0  0  0
  154.4943  141.6124  161.9558 H   0  0  0  0  0  0  0  0  0  0  0  0
  152.0065  142.7213  163.1105 H   0  0  0  0  0  0  0  0  0  0  0  0
  153.6333  143.4464  163.1205 H   0  0  0  0  0  0  0  0  0  0  0  0
  151.7962  145.6285  162.3562 H   0  0  0  0  0  0  0  0  0  0  0  0
  151.2839  146.8006  160.2042 H   0  0  0  0  0  0  0  0  0  0  0  0
  151.7122  145.6661  158.0322 H   0  0  0  0  0  0  0  0  0  0  0  0
  152.6423  143.3576  157.9773 H   0  0  0  0  0  0  0  0  0  0  0  0
  154.7463  137.9548  159.4019 H   0  0  0  0  0  0  0  0  0  0  0  0
  151.7084  135.5498  156.5622 H   0  0  0  0  0  0  0  0  0  0  0  0
  149.5949  136.5821  153.3604 H   0  0  0  0  0  0  0  0  0  0  0  0
  1  2  1  0  0  0  0
  1 32  1  0  0  0  0
  2  3  1  0  0  0  0
  2 33  1  0  0  0  0
  2 34  1  0  0  0  0
  3 28  1  0  0  0  0
  3 26  1  0  0  0  0
  3  4  1  0  0  0  0
  4  5  1  0  0  0  0
  5 29  1  0  0  0  0
  5  6  1  0  0  0  0
  5 24  1  0  0  0  0
  6 23  1  0  0  0  0
  6  7  1  0  0  0  0
  7  8  2  0  0  0  0
  7 35  1  0  0  0  0
  8  9  1  0  0  0  0
  9 23  2  0  0  0  0
  9 10  1  0  0  0  0
 10 11  1  0  0  0  0
 10 20  2  0  0  0  0
 11 19  1  0  0  0  0
 11 12  1  0  0  0  0
 12 13  1  0  0  0  0
 12 36  1  0  0  0  0
 12 37  1  0  0  0  0
 13 14  1  0  0  0  0
 13 38  1  0  0  0  0
 13 39  1  0  0  0  0
 14 19  2  0  0  0  0
 14 15  1  0  0  0  0
 15 16  2  0  0  0  0
 15 40  1  0  0  0  0
 16 17  1  0  0  0  0
 16 41  1  0  0  0  0
 17 18  2  0  0  0  0
 17 42  1  0  0  0  0
 18 19  1  0  0  0  0
 18 43  1  0  0  0  0
 20 21  1  0  0  0  0
 21 22  2  0  0  0  0
 21 44  1  0  0  0  0
 22 23  1  0  0  0  0
 24 30  1  0  0  0  0
 24 25  1  0  0  0  0
 24 26  1  0  0  0  0
 25 45  1  0  0  0  0
 26 31  1  0  0  0  0
 26 27  1  0  0  0  0
 27 46  1  0  0  0  0
M  END
> <s_m_source_file>
AV-unprocessed.smi

> <i_m_source_file_index>
110

> <i_lp_mmshare_version>
43012

> <i_f3d_flags>
0

> <s_epik_input>
W09IXVtDSDJdW0NASF0xT1tDQEhdKFtDQEhdKFtPSF0pW0NAQEhdMVtPSF0pbihbY0hdbjIpYyhjMjMpbltjSF1uYzNOKFtDSDJdW0NIMl00KWMoYzQ1KVtjSF1bY0hdW2NIXVtjSF01

> <s_epik_cmdline>
J2VwaWtfcHl0aG9uJywgJy1waCcsICc3LjAnLCAnLXRuJywgJzgnLCAnLW1hJywgJzIwMCcsICctbWV0YWxfYmluZGluZycsICctaW1hZScsICc8aW5maWxlLm1hZT4nLCAnLW9tYWUnLCAnPG91dGZpbGUubWFlPic=

> <r_lp_tautomer_probability>
1

> <r_epik_Ionization_Penalty>
0.00068475

> <r_epik_Ionization_Penalty_Charging>
0

> <r_epik_Ionization_Penalty_Neutral>
0.00068475

> <r_epik_State_Penalty>
0.000417442

> <r_epik_Charging_Adjusted_Penalty>
0.000417442

> <i_epik_Tot_Q>
0

> <i_epik_Tot_abs_Q>
0

> <r_epik_Metal_State_Penalty>
-0

> <b_epik_Metal_Only>
0

> <s_epik_Chemistry_Notes>
This compound contains an acetal/aminal-like group ( X-CH(R)-Y where X, Y are N, S, or O) that may be acid/base labile, releasing an aldehyde.

> <s_lp_Force_Field>
OPLS_2005

> <r_lp_Energy>
64.7575

> <b_lp_Chiralities_Consistent>
1

> <s_lp_Variant>
AV-unprocessed.smi:110-2

> <Gold.Version>
5.8.1

> <Gold.Id.Protein>
6NUR|6NUR_protein|mol2

> <Gold.PLP.Fitness>
61.0146

> <Gold.PLP.PLP>
-52.0396

> <Gold.PLP.part.hbond>
-5.1692

> <Gold.PLP.part.metal>
0.0000

> <Gold.PLP.part.buried>
2.6440

> <Gold.PLP.part.nonpolar>
-50.1444

> <Gold.PLP.part.repulsive>
0.1686

> <Gold.PLP.ligand.clash>
0.0000

> <Gold.PLP.ligand.torsion>
0.7352

> <Gold.PLP.Chemscore.Hbond>
3.4493

> <Gold.PLP.Chemscore.CHOScore>
0.0000

> <Gold.PLP.Chemscore.Metal>
0.0000

> <Gold.Chemscore.Hbonds>
donor molecule, donor type, donor heavy atom, donor atom, acceptor molecule, acceptor atom, score
      L1  H     1    32       P1  7948  1.00
      L1  H    27    46       P1  7948  0.85
      P1  H  7989  7998       L1     4  0.49
      P1  H 10752 10763       L1    25  1.00

> <Gold.PLP.Chemscore.Internal.Correction>
0.0976

> <Gold.Rescore>
     Score         DG    S(hbond)    S(metal)    S(lipo)     H(rot)  DE(clash)    DE(int)     intcor
     15.94     -19.25       2.47        0.00     121.08       3.38       1.14       2.17       ----

> <Gold.Chemscore.Fitness>
15.9418

> <Gold.Chemscore.DG>
-19.2486

> <Gold.Chemscore.ZeroCoef>
-5.4800

> <Gold.Chemscore.Hbond>
2.4743

> <Gold.Chemscore.Metal>
0.0000

> <Gold.Chemscore.Lipo>
121.0825

> <Gold.Chemscore.Internal_Hbond>
0.0000

> <Gold.Chemscore.DEClash>
1.1410

> <Gold.Chemscore.DEInternal>
2.1658

> <Gold.Chemscore.Rot>
3.3837

> <Gold.Chemscore.Internal.Correction>
   9.000000E+99

> <Gold.Chemscore.Hbonds>
donor molecule, donor type, donor heavy atom, donor atom, acceptor molecule, acceptor atom, score
      L1  H     1    32       P1  7948  0.96
      L1  H    27    46       P1  7948  0.47
      P1  H  7989  7998       L1     4  0.29
      P1  H 10752 10763       L1    25  0.45

> <Gold.Chemscore.Hbond.Weighted>
-8.2641

> <Gold.Chemscore.Metal.Weighted>
-0.0000

> <Gold.Chemscore.Lipo.Weighted>
-14.1667

> <Gold.Chemscore.Internal_Hbond.Weighted>
0.0000

> <Gold.Chemscore.DEClash.Weighted>
1.1410

> <Gold.Chemscore.DEInternal.Weighted>
2.1658

> <Gold.Chemscore.Rot.Weighted>
8.6622

> <Gold.Chemscore.Internal.Correction.Weighted>
   9.000000E+99

> <Gold.Protein.RotatedTorsions>
[ 6907 6896 6895 6894 ] final   96.48 input  -60.11 | X-H torsion
[ 7974 7965 7964 7962 ] final  -60.09 input  175.53 | X-H torsion
[ 8008 7997 7996 7995 ] final   -3.72 input   59.86 | X-H torsion
[ 10167 10162 10161 10158 ] final   72.09 input  -65.29 | X-H torsion
[ 10718 10713 10712 10709 ] final  100.68 input   66.30 | X-H torsion
[ 10763 10752 10751 10750 ] final   90.71 input  -60.55 | X-H torsion
[ 11005 11000 10999 10996 ] final  -92.51 input  -57.11 | X-H torsion

> <Gold.Protein.ActiveResidues>
 VAL166  LYS551  ARG553  GLY616  TRP617  ASP618  TYR619  PRO620  LYS621  CYS622 
 ASP623  PHE694  ASN695  SER759  ASP760  ASP761  ALA762  ILE779  LEU786  VAL792 
 PHE793  MET794  SER795  GLU796  ALA797  LYS798  CYS799  TRP800  GLU811  SER814 

> <Gold.Protein.RotatedAtoms>
  152.5434  134.0880  159.8264 H   0  0  0  0  0  0  0  0  0  0  0  0  # atno 6907 bound_to 6896
  151.0973  133.5263  159.2619 H   0  0  0  0  0  0  0  0  0  0  0  0  # atno 6908 bound_to 6896
  151.2031  135.0460  159.8934 H   0  0  0  0  0  0  0  0  0  0  0  0  # atno 6909 bound_to 6896
  145.8196  140.8548  143.0139 H   0  0  0  0  0  0  0  0  0  0  0  0  # atno 7974 bound_to 7965
  154.6219  140.2502  155.7539 H   0  0  0  0  0  0  0  0  0  0  0  0  # atno 8008 bound_to 7997
  156.2431  140.2925  156.0450 H   0  0  0  0  0  0  0  0  0  0  0  0  # atno 8009 bound_to 7997
  155.1883  140.0391  157.2886 H   0  0  0  0  0  0  0  0  0  0  0  0  # atno 8010 bound_to 7997
  140.0391  144.5404  150.7448 H   0  0  0  0  0  0  0  0  0  0  0  0  # atno 10167 bound_to 10162
  157.6848  131.0705  150.5137 H   0  0  0  0  0  0  0  0  0  0  0  0  # atno 10718 bound_to 10713
  153.2004  135.4424  155.0259 H   0  0  0  0  0  0  0  0  0  0  0  0  # atno 10763 bound_to 10752
  154.8143  135.3308  154.7221 H   0  0  0  0  0  0  0  0  0  0  0  0  # atno 10764 bound_to 10752
  153.7666  135.6987  153.4970 H   0  0  0  0  0  0  0  0  0  0  0  0  # atno 10765 bound_to 10752
  141.1520  133.7825  157.0030 H   0  0  0  0  0  0  0  0  0  0  0  0  # atno 11005 bound_to 11000
  144.6749  140.0514  143.7478 LP  0  0  0  0  0  0  0  0  0  0  0  0  # atno 17320 bound_to 7965
  145.9689  139.2855  143.1111 LP  0  0  0  0  0  0  0  0  0  0  0  0  # atno 17321 bound_to 7965
  140.7268  143.2645  151.4091 LP  0  0  0  0  0  0  0  0  0  0  0  0  # atno 17342 bound_to 10162
  139.6026  144.1264  152.2214 LP  0  0  0  0  0  0  0  0  0  0  0  0  # atno 17343 bound_to 10162
  156.5453  130.4218  149.6134 LP  0  0  0  0  0  0  0  0  0  0  0  0  # atno 17370 bound_to 10713
  156.2949  130.7145  151.2003 LP  0  0  0  0  0  0  0  0  0  0  0  0  # atno 17371 bound_to 10713
  140.0928  134.9582  157.1802 LP  0  0  0  0  0  0  0  0  0  0  0  0  # atno 17394 bound_to 11000
  140.3423  134.2690  155.7210 LP  0  0  0  0  0  0  0  0  0  0  0  0  # atno 17395 bound_to 11000

$$$$
