AV-unprocessed.smi:1699|AV-procd|sdf|6817|dock4
  -GOLD-   22720 7593D 1   1.00000     0.00000
 Structure written by MMmdl.
 37 38  0  0  0  0  0  0  0  0  1 V2000
  147.6920  133.0348  152.4587 C   0  0  0  0  0  0  0  0  0  0  0  0
  146.4054  133.0275  151.6487 C   0  0  0  0  0  0  0  0  0  0  0  0
  145.8226  131.7936  151.2890 C   0  0  0  0  0  0  0  0  0  0  0  0
  144.6324  131.7892  150.5419 C   0  0  0  0  0  0  0  0  0  0  0  0
  144.0713  133.0271  150.1843 C   0  0  0  0  0  0  0  0  0  0  0  0
  144.6218  134.2107  150.5228 N   0  0  0  0  0  0  0  0  0  0  0  0
  145.7712  134.2328  151.2437 C   0  0  0  0  0  0  0  0  0  0  0  0
  146.4116  135.4434  151.6317 N   0  0  0  0  0  0  0  0  0  0  0  0
  145.8496  136.6091  151.9973 C   0  0  0  0  0  0  0  0  0  0  0  0
  144.6398  136.8215  152.0822 O   0  0  0  0  0  0  0  0  0  0  0  0
  146.7864  137.5299  152.2699 N   0  0  0  0  0  0  0  0  0  0  0  0
  146.5328  138.8966  152.7205 C   0  0  2  0  0  0  0  0  0  0  0  0
  146.8143  139.8561  151.5541 C   0  0  0  0  0  0  0  0  0  0  0  0
  147.4020  139.2065  153.9565 C   0  0  1  0  0  0  0  0  0  0  0  0
  148.9045  139.0042  153.7522 C   0  0  0  0  0  0  0  0  0  0  0  0
  149.5383  139.9392  154.7714 C   0  0  0  0  0  0  0  0  0  0  0  0
  148.3887  140.8507  155.2080 C   0  0  0  0  0  0  0  0  0  0  0  0
  147.3396  140.5852  154.2889 O   0  0  0  0  0  0  0  0  0  0  0  0
  148.0283  132.0214  152.6792 H   0  0  0  0  0  0  0  0  0  0  0  0
  147.5424  133.5522  153.4067 H   0  0  0  0  0  0  0  0  0  0  0  0
  148.4870  133.5397  151.9091 H   0  0  0  0  0  0  0  0  0  0  0  0
  146.2800  130.8597  151.5809 H   0  0  0  0  0  0  0  0  0  0  0  0
  144.1619  130.8620  150.2510 H   0  0  0  0  0  0  0  0  0  0  0  0
  143.1571  133.0693  149.6109 H   0  0  0  0  0  0  0  0  0  0  0  0
  147.4201  135.4178  151.6264 H   0  0  0  0  0  0  0  0  0  0  0  0
  147.7544  137.2609  152.1740 H   0  0  0  0  0  0  0  0  0  0  0  0
  145.4812  139.0070  152.9917 H   0  0  0  0  0  0  0  0  0  0  0  0
  146.5829  140.8871  151.8225 H   0  0  0  0  0  0  0  0  0  0  0  0
  146.2063  139.6039  150.6846 H   0  0  0  0  0  0  0  0  0  0  0  0
  147.8613  139.8180  151.2513 H   0  0  0  0  0  0  0  0  0  0  0  0
  147.0635  138.6233  154.8155 H   0  0  0  0  0  0  0  0  0  0  0  0
  149.2108  137.9661  153.8837 H   0  0  0  0  0  0  0  0  0  0  0  0
  149.1935  139.3144  152.7472 H   0  0  0  0  0  0  0  0  0  0  0  0
  149.9409  139.3915  155.6243 H   0  0  0  0  0  0  0  0  0  0  0  0
  150.3530  140.5074  154.3212 H   0  0  0  0  0  0  0  0  0  0  0  0
  148.0555  140.5933  156.2145 H   0  0  0  0  0  0  0  0  0  0  0  0
  148.6623  141.9058  155.1988 H   0  0  0  0  0  0  0  0  0  0  0  0
  1  2  1  0  0  0  0
  1 19  1  0  0  0  0
  1 20  1  0  0  0  0
  1 21  1  0  0  0  0
  2  7  1  0  0  0  0
  2  3  2  0  0  0  0
  3  4  1  0  0  0  0
  3 22  1  0  0  0  0
  4  5  2  0  0  0  0
  4 23  1  0  0  0  0
  5  6  1  0  0  0  0
  5 24  1  0  0  0  0
  6  7  2  0  0  0  0
  7  8  1  0  0  0  0
  8  9  1  0  0  0  0
  8 25  1  0  0  0  0
  9 10  2  0  0  0  0
  9 11  1  0  0  0  0
 11 12  1  0  0  0  0
 11 26  1  0  0  0  0
 12 13  1  0  0  0  0
 12 14  1  0  0  0  0
 12 27  1  0  0  0  0
 13 28  1  0  0  0  0
 13 29  1  0  0  0  0
 13 30  1  0  0  0  0
 14 18  1  0  0  0  0
 14 15  1  0  0  0  0
 14 31  1  0  0  0  0
 15 16  1  0  0  0  0
 15 32  1  0  0  0  0
 15 33  1  0  0  0  0
 16 17  1  0  0  0  0
 16 34  1  0  0  0  0
 16 35  1  0  0  0  0
 17 18  1  0  0  0  0
 17 36  1  0  0  0  0
 17 37  1  0  0  0  0
M  END
> <s_m_source_file>
AV-unprocessed.smi

> <i_m_source_file_index>
1699

> <i_lp_mmshare_version>
43012

> <i_f3d_flags>
0

> <s_epik_input>
W0NIM11jMVtjSF1bY0hdW2NIXW5jMVtOSF1DKD1PKVtOSF1bQ0BIXShbQ0gzXSlbQ0BASF0yW0NIMl1bQ0gyXVtDSDJdTzI=

> <s_epik_cmdline>
J2VwaWtfcHl0aG9uJywgJy1waCcsICc3LjAnLCAnLXRuJywgJzgnLCAnLW1hJywgJzIwMCcsICctbWV0YWxfYmluZGluZycsICctaW1hZScsICc8aW5maWxlLm1hZT4nLCAnLW9tYWUnLCAnPG91dGZpbGUubWFlPic=

> <r_lp_tautomer_probability>
1

> <r_epik_Ionization_Penalty>
5.52788e-05

> <r_epik_Ionization_Penalty_Charging>
0

> <r_epik_Ionization_Penalty_Neutral>
5.52788e-05

> <r_epik_State_Penalty>
-0

> <r_epik_Charging_Adjusted_Penalty>
0

> <i_epik_Tot_Q>
0

> <i_epik_Tot_abs_Q>
0

> <r_epik_Metal_State_Penalty>
-0

> <b_epik_Metal_Only>
0

> <s_lp_Force_Field>
OPLS_2005

> <r_lp_Energy>
21.1127

> <b_lp_Chiralities_Consistent>
1

> <s_lp_Variant>
AV-unprocessed.smi:1699-3

> <Gold.Version>
5.8.1

> <Gold.Id.Protein>
6NUR|6NUR_protein|mol2

> <Gold.PLP.Fitness>
37.0921

> <Gold.PLP.PLP>
-28.9774

> <Gold.PLP.part.hbond>
-2.0000

> <Gold.PLP.part.metal>
0.0000

> <Gold.PLP.part.buried>
-0.1129

> <Gold.PLP.part.nonpolar>
-29.0034

> <Gold.PLP.part.repulsive>
1.4385

> <Gold.PLP.ligand.clash>
0.0000

> <Gold.PLP.ligand.torsion>
0.4497

> <Gold.PLP.Chemscore.Hbond>
2.0000

> <Gold.PLP.Chemscore.CHOScore>
0.9974

> <Gold.PLP.Chemscore.Metal>
0.0000

> <Gold.Chemscore.Hbonds>
donor molecule, donor type, donor heavy atom, donor atom, acceptor molecule, acceptor atom, score
      L1  H     8    25       P1  7948  1.00
      L1  H    11    26       P1  7948  1.00
      L1  C     5    24       P1 10186  0.98

> <Gold.PLP.Chemscore.Internal.Correction>
0.0220

> <Gold.Rescore>
     Score         DG    S(hbond)    S(metal)    S(lipo)     H(rot)  DE(clash)    DE(int)     intcor
     15.76     -17.98       1.93        0.00      78.59       1.22       1.03       1.19       ----

> <Gold.Chemscore.Fitness>
15.7579

> <Gold.Chemscore.DG>
-17.9824

> <Gold.Chemscore.ZeroCoef>
-5.4800

> <Gold.Chemscore.Hbond>
1.9254

> <Gold.Chemscore.Metal>
0.0000

> <Gold.Chemscore.Lipo>
78.5881

> <Gold.Chemscore.Internal_Hbond>
0.0000

> <Gold.Chemscore.DEClash>
1.0321

> <Gold.Chemscore.DEInternal>
1.1924

> <Gold.Chemscore.Rot>
1.2200

> <Gold.Chemscore.Internal.Correction>
   9.000000E+99

> <Gold.Chemscore.Hbonds>
donor molecule, donor type, donor heavy atom, donor atom, acceptor molecule, acceptor atom, score
      L1  H     8    25       P1  7948  0.91
      L1  H    11    26       P1  7948  0.96

> <Gold.Chemscore.Hbond.Weighted>
-6.4308

> <Gold.Chemscore.Metal.Weighted>
-0.0000

> <Gold.Chemscore.Lipo.Weighted>
-9.1948

> <Gold.Chemscore.Internal_Hbond.Weighted>
0.0000

> <Gold.Chemscore.DEClash.Weighted>
1.0321

> <Gold.Chemscore.DEInternal.Weighted>
1.1924

> <Gold.Chemscore.Rot.Weighted>
3.1232

> <Gold.Chemscore.Internal.Correction.Weighted>
   9.000000E+99

> <Gold.Protein.RotatedTorsions>
[ 6907 6896 6895 6894 ] final -154.05 input  -60.11 | X-H torsion
[ 7974 7965 7964 7962 ] final   20.68 input  175.53 | X-H torsion
[ 8008 7997 7996 7995 ] final  -68.01 input   59.86 | X-H torsion
[ 10167 10162 10161 10158 ] final -154.06 input  -65.29 | X-H torsion
[ 10718 10713 10712 10709 ] final   55.82 input   66.30 | X-H torsion
[ 10763 10752 10751 10750 ] final  142.83 input  -60.55 | X-H torsion
[ 11005 11000 10999 10996 ] final  -50.60 input  -57.11 | X-H torsion

> <Gold.Protein.ActiveResidues>
 VAL166  LYS551  ARG553  GLY616  TRP617  ASP618  TYR619  PRO620  LYS621  CYS622 
 ASP623  PHE694  ASN695  SER759  ASP760  ASP761  ALA762  ILE779  LEU786  VAL792 
 PHE793  MET794  SER795  GLU796  ALA797  LYS798  CYS799  TRP800  GLU811  SER814 

> <Gold.Protein.RotatedAtoms>
  151.2517  133.4346  159.2611 H   0  0  0  0  0  0  0  0  0  0  0  0  # atno 6907 bound_to 6896
  151.0611  134.9737  159.8271 H   0  0  0  0  0  0  0  0  0  0  0  0  # atno 6908 bound_to 6896
  152.5398  134.2468  159.8936 H   0  0  0  0  0  0  0  0  0  0  0  0  # atno 6909 bound_to 6896
  146.2101  139.8134  142.8695 H   0  0  0  0  0  0  0  0  0  0  0  0  # atno 7974 bound_to 7965
  154.4838  140.0881  156.7440 H   0  0  0  0  0  0  0  0  0  0  0  0  # atno 8008 bound_to 7997
  155.4401  140.3453  155.4271 H   0  0  0  0  0  0  0  0  0  0  0  0  # atno 8009 bound_to 7997
  156.1232  140.1480  156.9163 H   0  0  0  0  0  0  0  0  0  0  0  0  # atno 8010 bound_to 7997
  139.7045  143.9209  152.2443 H   0  0  0  0  0  0  0  0  0  0  0  0  # atno 10167 bound_to 10162
  157.5378  130.8676  149.8778 H   0  0  0  0  0  0  0  0  0  0  0  0  # atno 10718 bound_to 10713
  153.9623  135.2959  155.3432 H   0  0  0  0  0  0  0  0  0  0  0  0  # atno 10763 bound_to 10752
  154.7368  135.5043  153.9058 H   0  0  0  0  0  0  0  0  0  0  0  0  # atno 10764 bound_to 10752
  153.0940  135.6716  153.9909 H   0  0  0  0  0  0  0  0  0  0  0  0  # atno 10765 bound_to 10752
  141.0825  133.6650  156.3755 H   0  0  0  0  0  0  0  0  0  0  0  0  # atno 11005 bound_to 11000
  145.3171  141.0235  143.3521 LP  0  0  0  0  0  0  0  0  0  0  0  0  # atno 17320 bound_to 7965
  144.8893  139.4796  143.6685 LP  0  0  0  0  0  0  0  0  0  0  0  0  # atno 17321 bound_to 7965
  139.9060  144.6884  150.8613 LP  0  0  0  0  0  0  0  0  0  0  0  0  # atno 17342 bound_to 10162
  140.7718  143.3478  151.2075 LP  0  0  0  0  0  0  0  0  0  0  0  0  # atno 17343 bound_to 10162
  156.0472  130.3725  150.1288 LP  0  0  0  0  0  0  0  0  0  0  0  0  # atno 17370 bound_to 10713
  156.9469  130.9762  151.3505 LP  0  0  0  0  0  0  0  0  0  0  0  0  # atno 17371 bound_to 10713
  140.5437  134.6095  157.5387 LP  0  0  0  0  0  0  0  0  0  0  0  0  # atno 17394 bound_to 11000
  139.9640  134.7405  156.0177 LP  0  0  0  0  0  0  0  0  0  0  0  0  # atno 17395 bound_to 11000

$$$$
