AV-unprocessed.smi:198|AV-procd|sdf|1556|dock6
  -GOLD-   2262019423D 1   1.00000     0.00000
 Structure written by MMmdl.
 59 63  0  0  0  0  0  0  0  0  2 V2000
  145.6623  132.0761  150.3288 C   0  0  0  0  0  0  0  0  0  0  0  0
  146.6043  131.6824  151.3986 N   0  3  1  0  0  0  0  0  0  0  0  0
  147.1429  132.8529  152.1336 C   0  0  0  0  0  0  0  0  0  0  0  0
  148.2249  132.4220  153.1345 C   0  0  0  0  0  0  0  0  0  0  0  0
  147.6754  131.3672  154.1190 C   0  0  1  0  0  0  0  0  0  0  0  0
  147.0508  130.1759  153.3549 C   0  0  2  0  0  0  0  0  0  0  0  0
  148.1290  129.2569  152.7436 C   0  0  0  0  0  0  0  0  0  0  0  0
  149.1255  128.8122  153.8234 C   0  0  0  0  0  0  0  0  0  0  0  0
  149.7369  130.0224  154.5456 C   0  0  0  0  0  0  0  0  0  0  0  0
  148.6888  130.9001  155.0738 N   0  0  0  0  0  0  0  0  0  0  0  0
  149.0441  131.7938  156.0338 C   0  0  0  0  0  0  0  0  0  0  0  0
  150.1729  132.5363  155.8778 N   0  0  0  0  0  0  0  0  0  0  0  0
  150.5236  133.4359  156.8011 C   0  0  0  0  0  0  0  0  0  0  0  0
  149.8991  133.7517  157.9366 N   0  0  0  0  0  0  0  0  0  0  0  0
  148.7689  133.0070  158.1051 C   0  0  0  0  0  0  0  0  0  0  0  0
  148.2758  132.0125  157.2130 C   0  0  0  0  0  0  0  0  0  0  0  0
  147.1135  131.4518  157.7289 N   0  0  0  0  0  0  0  0  0  0  0  0
  146.9269  132.0825  158.8560 C   0  0  0  0  0  0  0  0  0  0  0  0
  147.8642  133.0470  159.1528 N   0  0  0  0  0  0  0  0  0  0  0  0
  147.9093  133.8764  160.3244 C   0  0  0  0  0  0  0  0  0  0  0  0
  146.7369  133.9003  161.3058 C   0  0  0  0  0  0  0  0  0  0  0  0
  146.9508  135.4126  161.5443 C   0  0  0  0  0  0  0  0  0  0  0  0
  145.6751  136.2666  161.4837 C   0  0  0  0  0  0  0  0  0  0  0  0
  145.9769  137.6469  161.5106 O   0  0  0  0  0  0  0  0  0  0  0  0
  147.7142  135.8258  162.8228 C   0  0  0  0  0  0  0  0  0  0  0  0
  148.1955  137.1536  162.7802 O   0  0  0  0  0  0  0  0  0  0  0  0
  147.7735  135.4002  160.2354 C   0  0  0  0  0  0  0  0  0  0  0  0
  146.0246  130.6659  152.3126 C   0  0  0  0  0  0  0  0  0  0  0  0
  144.7793  132.5634  150.7448 H   0  0  0  0  0  0  0  0  0  0  0  0
  145.3366  131.2035  149.7618 H   0  0  0  0  0  0  0  0  0  0  0  0
  146.1375  132.7667  149.6310 H   0  0  0  0  0  0  0  0  0  0  0  0
  147.5680  133.5657  151.4259 H   0  0  0  0  0  0  0  0  0  0  0  0
  146.3318  133.3658  152.6531 H   0  0  0  0  0  0  0  0  0  0  0  0
  149.0855  132.0331  152.5901 H   0  0  0  0  0  0  0  0  0  0  0  0
  148.5799  133.2967  153.6806 H   0  0  0  0  0  0  0  0  0  0  0  0
  146.8634  131.8383  154.6709 H   0  0  0  0  0  0  0  0  0  0  0  0
  146.5035  129.5736  154.0821 H   0  0  0  0  0  0  0  0  0  0  0  0
  147.6635  128.3809  152.2905 H   0  0  0  0  0  0  0  0  0  0  0  0
  148.6627  129.7702  151.9435 H   0  0  0  0  0  0  0  0  0  0  0  0
  148.6163  128.1765  154.5491 H   0  0  0  0  0  0  0  0  0  0  0  0
  149.9145  128.2046  153.3796 H   0  0  0  0  0  0  0  0  0  0  0  0
  150.3702  129.6671  155.3598 H   0  0  0  0  0  0  0  0  0  0  0  0
  150.3790  130.5821  153.8648 H   0  0  0  0  0  0  0  0  0  0  0  0
  151.4327  133.9830  156.5995 H   0  0  0  0  0  0  0  0  0  0  0  0
  146.0934  131.8559  159.5045 H   0  0  0  0  0  0  0  0  0  0  0  0
  148.8310  133.6215  160.8484 H   0  0  0  0  0  0  0  0  0  0  0  0
  145.7855  133.6779  160.8195 H   0  0  0  0  0  0  0  0  0  0  0  0
  146.8783  133.2738  162.1871 H   0  0  0  0  0  0  0  0  0  0  0  0
  145.0949  136.0484  160.5863 H   0  0  0  0  0  0  0  0  0  0  0  0
  145.0232  136.0536  162.3314 H   0  0  0  0  0  0  0  0  0  0  0  0
  145.5083  138.0428  162.2296 H   0  0  0  0  0  0  0  0  0  0  0  0
  147.0728  135.7359  163.7000 H   0  0  0  0  0  0  0  0  0  0  0  0
  148.5716  135.1751  162.9959 H   0  0  0  0  0  0  0  0  0  0  0  0
  148.4763  137.3996  163.6485 H   0  0  0  0  0  0  0  0  0  0  0  0
  148.7223  135.9355  160.2876 H   0  0  0  0  0  0  0  0  0  0  0  0
  147.1966  135.7289  159.3705 H   0  0  0  0  0  0  0  0  0  0  0  0
  145.1623  131.0989  152.8223 H   0  0  0  0  0  0  0  0  0  0  0  0
  145.6518  129.8193  151.7347 H   0  0  0  0  0  0  0  0  0  0  0  0
  147.3903  131.2432  150.9406 H   0  0  0  0  0  0  0  0  0  0  0  0
  1  2  1  0  0  0  0
  1 29  1  0  0  0  0
  1 30  1  0  0  0  0
  1 31  1  0  0  0  0
  2 28  1  0  0  0  0
  2  3  1  0  0  0  0
  2 59  1  0  0  0  0
  3  4  1  0  0  0  0
  3 32  1  0  0  0  0
  3 33  1  0  0  0  0
  4  5  1  0  0  0  0
  4 34  1  0  0  0  0
  4 35  1  0  0  0  0
  5 10  1  0  0  0  0
  5  6  1  0  0  0  0
  5 36  1  0  0  0  0
  6  7  1  0  0  0  0
  6 28  1  0  0  0  0
  6 37  1  0  0  0  0
  7  8  1  0  0  0  0
  7 38  1  0  0  0  0
  7 39  1  0  0  0  0
  8  9  1  0  0  0  0
  8 40  1  0  0  0  0
  8 41  1  0  0  0  0
  9 10  1  0  0  0  0
  9 42  1  0  0  0  0
  9 43  1  0  0  0  0
 10 11  1  0  0  0  0
 11 16  1  0  0  0  0
 11 12  2  0  0  0  0
 12 13  1  0  0  0  0
 13 14  2  0  0  0  0
 13 44  1  0  0  0  0
 14 15  1  0  0  0  0
 15 19  1  0  0  0  0
 15 16  2  0  0  0  0
 16 17  1  0  0  0  0
 17 18  2  0  0  0  0
 18 19  1  0  0  0  0
 18 45  1  0  0  0  0
 19 20  1  0  0  0  0
 20 27  1  0  0  0  0
 20 21  1  0  0  0  0
 20 46  1  0  0  0  0
 21 22  1  0  0  0  0
 21 47  1  0  0  0  0
 21 48  1  0  0  0  0
 22 23  1  0  0  0  0
 22 25  1  0  0  0  0
 22 27  1  0  0  0  0
 23 24  1  0  0  0  0
 23 49  1  0  0  0  0
 23 50  1  0  0  0  0
 24 51  1  0  0  0  0
 25 26  1  0  0  0  0
 25 52  1  0  0  0  0
 25 53  1  0  0  0  0
 26 54  1  0  0  0  0
 27 55  1  0  0  0  0
 27 56  1  0  0  0  0
 28 57  1  0  0  0  0
 28 58  1  0  0  0  0
M  CHG  1   2   1
M  END
> <s_m_source_file>
AV-unprocessed.smi

> <i_m_source_file_index>
198

> <i_lp_mmshare_version>
43012

> <i_f3d_flags>
0

> <s_epik_input>
W0NIMl0xW0NIMl1OKFtDSDNdKVtDSDJdW0NAQEhdKFtDQEhdMTIpW0NIMl1bQ0gyXVtDSDJdTjJjKG5bY0hdbjMpYyhjMzQpbltjSF1uNFtDSF0oW0NIMl01KVtDSDJdQzUoW0NIMl1bT0hdKVtDSDJdW09IXQ==

> <s_epik_cmdline>
J2VwaWtfcHl0aG9uJywgJy1waCcsICc3LjAnLCAnLXRuJywgJzgnLCAnLW1hJywgJzIwMCcsICctbWV0YWxfYmluZGluZycsICctaW1hZScsICc8aW5maWxlLm1hZT4nLCAnLW9tYWUnLCAnPG91dGZpbGUubWFlPic=

> <r_lp_tautomer_probability>
1

> <r_epik_Ionization_Penalty>
0.00239938

> <r_epik_Ionization_Penalty_Charging>
0.00138697

> <r_epik_Ionization_Penalty_Neutral>
0.00101241

> <r_epik_State_Penalty>
-0

> <r_epik_Charging_Adjusted_Penalty>
0.00138697

> <i_epik_Tot_Q>
1

> <i_epik_Tot_abs_Q>
1

> <r_epik_Metal_State_Penalty>
-0

> <b_epik_Metal_Only>
0

> <s_lp_Force_Field>
OPLS_2005

> <r_lp_Energy>
58.4616

> <b_lp_Chiralities_Consistent>
1

> <s_lp_Variant>
AV-unprocessed.smi:198-5

> <Gold.Version>
5.8.1

> <Gold.Id.Protein>
6NUR|6NUR_protein|mol2

> <Gold.PLP.Fitness>
50.2570

> <Gold.PLP.PLP>
-39.7465

> <Gold.PLP.part.hbond>
-3.7832

> <Gold.PLP.part.metal>
0.0000

> <Gold.PLP.part.buried>
-4.8047

> <Gold.PLP.part.nonpolar>
-31.6661

> <Gold.PLP.part.repulsive>
0.0146

> <Gold.PLP.ligand.clash>
0.0000

> <Gold.PLP.ligand.torsion>
0.7175

> <Gold.PLP.Chemscore.Hbond>
3.6784

> <Gold.PLP.Chemscore.CHOScore>
0.0000

> <Gold.PLP.Chemscore.Metal>
0.0000

> <Gold.Chemscore.Hbonds>
donor molecule, donor type, donor heavy atom, donor atom, acceptor molecule, acceptor atom, score
      L1  H     2    59       P1 10747  1.00
      P1  H  6896  6907       L1    14  1.00
      P1  H  6931  6943       L1    26  0.73
      P1  H  6934  6947       L1    24  0.96

> <Gold.PLP.Chemscore.Internal.Correction>
0.9103

> <Gold.Rescore>
     Score         DG    S(hbond)    S(metal)    S(lipo)     H(rot)  DE(clash)    DE(int)     intcor
     17.49     -18.23       2.86        0.00      94.72       3.08       0.05       0.69       ----

> <Gold.Chemscore.Fitness>
17.4893

> <Gold.Chemscore.DG>
-18.2327

> <Gold.Chemscore.ZeroCoef>
-5.4800

> <Gold.Chemscore.Hbond>
2.8595

> <Gold.Chemscore.Metal>
0.0000

> <Gold.Chemscore.Lipo>
94.7170

> <Gold.Chemscore.Internal_Hbond>
0.0000

> <Gold.Chemscore.DEClash>
0.0533

> <Gold.Chemscore.DEInternal>
0.6901

> <Gold.Chemscore.Rot>
3.0781

> <Gold.Chemscore.Internal.Correction>
   9.000000E+99

> <Gold.Chemscore.Hbonds>
donor molecule, donor type, donor heavy atom, donor atom, acceptor molecule, acceptor atom, score
      L1  H     2    59       P1 10747  1.00
      P1  H  6896  6907       L1    14  0.81
      P1  H  6931  6943       L1    26  0.14
      P1  H  6934  6947       L1    24  0.37

> <Gold.Chemscore.Hbond.Weighted>
-9.5509

> <Gold.Chemscore.Metal.Weighted>
-0.0000

> <Gold.Chemscore.Lipo.Weighted>
-11.0819

> <Gold.Chemscore.Internal_Hbond.Weighted>
0.0000

> <Gold.Chemscore.DEClash.Weighted>
0.0533

> <Gold.Chemscore.DEInternal.Weighted>
0.6901

> <Gold.Chemscore.Rot.Weighted>
7.8800

> <Gold.Chemscore.Internal.Correction.Weighted>
   9.000000E+99

> <Gold.Protein.RotatedTorsions>
[ 6907 6896 6895 6894 ] final -113.14 input  -60.11 | X-H torsion
[ 7974 7965 7964 7962 ] final  -52.15 input  175.53 | X-H torsion
[ 8008 7997 7996 7995 ] final   16.19 input   59.86 | X-H torsion
[ 10167 10162 10161 10158 ] final  -76.70 input  -65.29 | X-H torsion
[ 10718 10713 10712 10709 ] final   77.42 input   66.30 | X-H torsion
[ 10763 10752 10751 10750 ] final   70.17 input  -60.55 | X-H torsion
[ 11005 11000 10999 10996 ] final   96.49 input  -57.11 | X-H torsion

> <Gold.Protein.ActiveResidues>
 VAL166  LYS551  ARG553  GLY616  TRP617  ASP618  TYR619  PRO620  LYS621  CYS622 
 ASP623  PHE694  ASN695  SER759  ASP760  ASP761  ALA762  ILE779  LEU786  VAL792 
 PHE793  MET794  SER795  GLU796  ALA797  LYS798  CYS799  TRP800  GLU811  SER814 

> <Gold.Protein.RotatedAtoms>
  150.7808  133.8987  159.3334 H   0  0  0  0  0  0  0  0  0  0  0  0  # atno 6907 bound_to 6896
  151.6850  135.0954  160.0232 H   0  0  0  0  0  0  0  0  0  0  0  0  # atno 6908 bound_to 6896
  152.3859  133.6572  159.6233 H   0  0  0  0  0  0  0  0  0  0  0  0  # atno 6909 bound_to 6896
  145.9112  140.7914  142.9694 H   0  0  0  0  0  0  0  0  0  0  0  0  # atno 7974 bound_to 7965
  154.8734  140.2962  155.5467 H   0  0  0  0  0  0  0  0  0  0  0  0  # atno 8008 bound_to 7997
  156.3021  140.2456  156.3660 H   0  0  0  0  0  0  0  0  0  0  0  0  # atno 8009 bound_to 7997
  154.8792  140.0398  157.1761 H   0  0  0  0  0  0  0  0  0  0  0  0  # atno 8010 bound_to 7997
  140.4834  143.2397  151.8022 H   0  0  0  0  0  0  0  0  0  0  0  0  # atno 10167 bound_to 10162
  157.6710  130.9821  150.1639 H   0  0  0  0  0  0  0  0  0  0  0  0  # atno 10718 bound_to 10713
  153.0327  135.5183  154.7401 H   0  0  0  0  0  0  0  0  0  0  0  0  # atno 10763 bound_to 10752
  154.6403  135.2911  155.0114 H   0  0  0  0  0  0  0  0  0  0  0  0  # atno 10764 bound_to 10752
  154.1034  135.6633  153.4925 H   0  0  0  0  0  0  0  0  0  0  0  0  # atno 10765 bound_to 10752
  139.8781  134.8953  156.4167 H   0  0  0  0  0  0  0  0  0  0  0  0  # atno 11005 bound_to 11000
  144.6743  140.1828  143.7404 LP  0  0  0  0  0  0  0  0  0  0  0  0  # atno 17320 bound_to 7965
  145.8669  139.2252  143.1684 LP  0  0  0  0  0  0  0  0  0  0  0  0  # atno 17321 bound_to 7965
  139.4837  144.4743  151.9387 LP  0  0  0  0  0  0  0  0  0  0  0  0  # atno 17342 bound_to 10162
  140.3828  144.2714  150.5907 LP  0  0  0  0  0  0  0  0  0  0  0  0  # atno 17343 bound_to 10162
  156.2409  130.3691  149.8338 LP  0  0  0  0  0  0  0  0  0  0  0  0  # atno 17370 bound_to 10713
  156.6139  130.8598  151.3460 LP  0  0  0  0  0  0  0  0  0  0  0  0  # atno 17371 bound_to 10713
  140.9162  133.7677  155.9851 LP  0  0  0  0  0  0  0  0  0  0  0  0  # atno 17394 bound_to 11000
  140.8491  134.2976  157.5283 LP  0  0  0  0  0  0  0  0  0  0  0  0  # atno 17395 bound_to 11000

$$$$
