AV-unprocessed.smi:1289|AV-procd|sdf|5387|dock10
  -GOLD-   22720 4533D 1   1.00000     0.00000
 Structure written by MMmdl.
 38 40  0  0  0  0  0  0  0  0  2 V2000
  143.8901  131.4246  149.3833 N   0  0  0  0  0  0  0  0  0  0  0  0
  144.2254  132.3217  150.0324 C   0  0  0  0  0  0  0  0  0  0  0  0
  144.6466  133.4487  150.8477 C   0  0  0  0  0  0  0  0  0  0  0  0
  145.6080  133.2690  151.8616 C   0  0  0  0  0  0  0  0  0  0  0  0
  146.0156  134.3640  152.6478 C   0  0  0  0  0  0  0  0  0  0  0  0
  145.4733  135.6481  152.4356 C   0  0  0  0  0  0  0  0  0  0  0  0
  145.9306  136.6610  153.2504 O   0  0  0  0  0  0  0  0  0  0  0  0
  145.2542  137.9120  153.2178 C   0  0  0  0  0  0  0  0  0  0  0  0
  146.0852  138.9769  153.9523 C   0  0  2  0  0  0  0  0  0  0  0  0
  145.3237  140.1616  154.0715 O   0  0  0  0  0  0  0  0  0  0  0  0
  147.4594  139.2425  153.3049 C   0  0  0  0  0  0  0  0  0  0  0  0
  148.2525  140.2371  154.0409 N   0  0  0  0  0  0  0  0  0  0  0  0
  147.9799  141.5448  154.2996 C   0  0  0  0  0  0  0  0  0  0  0  0
  149.0187  142.0467  155.0232 N   0  3  0  0  0  0  0  0  0  0  0  0
  149.9689  141.0449  155.2319 C   0  0  0  0  0  0  0  0  0  0  0  0
  151.1861  141.0703  155.9058 C   0  0  0  0  0  0  0  0  0  0  0  0
  151.9205  139.8666  155.9318 C   0  0  0  0  0  0  0  0  0  0  0  0
  151.4402  138.6994  155.3032 C   0  0  0  0  0  0  0  0  0  0  0  0
  150.2047  138.6849  154.6228 C   0  0  0  0  0  0  0  0  0  0  0  0
  149.4835  139.8785  154.6032 C   0  0  0  0  0  0  0  0  0  0  0  0
  144.5047  135.8206  151.4145 C   0  0  0  0  0  0  0  0  0  0  0  0
  144.0957  134.7265  150.6270 C   0  0  0  0  0  0  0  0  0  0  0  0
  146.0378  132.2940  152.0418 H   0  0  0  0  0  0  0  0  0  0  0  0
  146.7538  134.2168  153.4225 H   0  0  0  0  0  0  0  0  0  0  0  0
  145.0566  138.2261  152.1914 H   0  0  0  0  0  0  0  0  0  0  0  0
  144.2929  137.8085  153.7240 H   0  0  0  0  0  0  0  0  0  0  0  0
  146.2480  138.6223  154.9709 H   0  0  0  0  0  0  0  0  0  0  0  0
  144.5456  140.0722  153.5428 H   0  0  0  0  0  0  0  0  0  0  0  0
  148.0415  138.3205  153.2845 H   0  0  0  0  0  0  0  0  0  0  0  0
  147.3606  139.5628  152.2675 H   0  0  0  0  0  0  0  0  0  0  0  0
  147.0979  142.0863  153.9888 H   0  0  0  0  0  0  0  0  0  0  0  0
  151.5566  141.9633  156.3875 H   0  0  0  0  0  0  0  0  0  0  0  0
  152.8717  139.8382  156.4436 H   0  0  0  0  0  0  0  0  0  0  0  0
  152.0316  137.7961  155.3427 H   0  0  0  0  0  0  0  0  0  0  0  0
  149.8491  137.7860  154.1408 H   0  0  0  0  0  0  0  0  0  0  0  0
  144.0593  136.7830  151.2141 H   0  0  0  0  0  0  0  0  0  0  0  0
  143.3568  134.8762  149.8528 H   0  0  0  0  0  0  0  0  0  0  0  0
  149.0719  143.0031  155.3503 H   0  0  0  0  0  0  0  0  0  0  0  0
  1  2  3  0  0  0  0
  2  3  1  0  0  0  0
  3 22  1  0  0  0  0
  3  4  2  0  0  0  0
  4  5  1  0  0  0  0
  4 23  1  0  0  0  0
  5  6  2  0  0  0  0
  5 24  1  0  0  0  0
  6  7  1  0  0  0  0
  6 21  1  0  0  0  0
  7  8  1  0  0  0  0
  8  9  1  0  0  0  0
  8 25  1  0  0  0  0
  8 26  1  0  0  0  0
  9 10  1  0  0  0  0
  9 11  1  0  0  0  0
  9 27  1  0  0  0  0
 10 28  1  0  0  0  0
 11 12  1  0  0  0  0
 11 29  1  0  0  0  0
 11 30  1  0  0  0  0
 12 20  1  0  0  0  0
 12 13  1  0  0  0  0
 13 14  2  0  0  0  0
 13 31  1  0  0  0  0
 14 15  1  0  0  0  0
 14 38  1  0  0  0  0
 15 20  2  0  0  0  0
 15 16  1  0  0  0  0
 16 17  2  0  0  0  0
 16 32  1  0  0  0  0
 17 18  1  0  0  0  0
 17 33  1  0  0  0  0
 18 19  2  0  0  0  0
 18 34  1  0  0  0  0
 19 20  1  0  0  0  0
 19 35  1  0  0  0  0
 21 22  2  0  0  0  0
 21 36  1  0  0  0  0
 22 37  1  0  0  0  0
M  CHG  1  14   1
M  END
> <s_m_source_file>
AV-unprocessed.smi

> <i_m_source_file_index>
1289

> <i_lp_mmshare_version>
43012

> <i_f3d_flags>
0

> <s_epik_input>
TiNDYzFbY0hdW2NIXWMoW2NIXVtjSF0xKU9bQ0gyXVtDQEhdKFtPSF0pW0NIMl1uKFtjSF1uMiljKGMyMylbY0hdW2NIXVtjSF1bY0hdMw==

> <s_epik_cmdline>
J2VwaWtfcHl0aG9uJywgJy1waCcsICc3LjAnLCAnLXRuJywgJzgnLCAnLW1hJywgJzIwMCcsICctbWV0YWxfYmluZGluZycsICctaW1hZScsICc8aW5maWxlLm1hZT4nLCAnLW9tYWUnLCAnPG91dGZpbGUubWFlPic=

> <r_epik_Ionization_Penalty>
1.39523

> <r_epik_Ionization_Penalty_Charging>
1.39523

> <r_epik_Ionization_Penalty_Neutral>
2.3993e-06

> <r_epik_State_Penalty>
1.47691

> <r_epik_Charging_Adjusted_Penalty>
2.87215

> <i_epik_Tot_Q>
1

> <i_epik_Tot_abs_Q>
1

> <r_epik_Metal_State_Penalty>
5.51858

> <b_epik_Metal_Only>
0

> <s_lp_Force_Field>
OPLS_2005

> <r_lp_Energy>
21.3748

> <b_lp_Chiralities_Consistent>
1

> <s_lp_Variant>
AV-unprocessed.smi:1289-3

> <Gold.Version>
5.8.1

> <Gold.Id.Protein>
6NUR|6NUR_protein|mol2

> <Gold.PLP.Fitness>
52.0750

> <Gold.PLP.PLP>
-41.5307

> <Gold.PLP.part.hbond>
-3.0000

> <Gold.PLP.part.metal>
0.0000

> <Gold.PLP.part.buried>
-1.3564

> <Gold.PLP.part.nonpolar>
-37.4275

> <Gold.PLP.part.repulsive>
0.5638

> <Gold.PLP.ligand.clash>
0.0000

> <Gold.PLP.ligand.torsion>
0.1586

> <Gold.PLP.Chemscore.Hbond>
3.6080

> <Gold.PLP.Chemscore.CHOScore>
0.0000

> <Gold.PLP.Chemscore.Metal>
0.0000

> <Gold.Chemscore.Hbonds>
donor molecule, donor type, donor heavy atom, donor atom, acceptor molecule, acceptor atom, score
      L1  H    10    28       P1 10175  0.75
      L1  H    14    38       P1  8028  2.00
      P1  H 10785 10796       L1     1  0.69

> <Gold.PLP.Chemscore.Internal.Correction>
0.0374

> <Gold.Rescore>
     Score         DG    S(hbond)    S(metal)    S(lipo)     H(rot)  DE(clash)    DE(int)     intcor
     16.45     -18.51       2.81        0.00      87.76       2.58       0.70       1.36       ----

> <Gold.Chemscore.Fitness>
16.4484

> <Gold.Chemscore.DG>
-18.5138

> <Gold.Chemscore.ZeroCoef>
-5.4800

> <Gold.Chemscore.Hbond>
2.8054

> <Gold.Chemscore.Metal>
0.0000

> <Gold.Chemscore.Lipo>
87.7622

> <Gold.Chemscore.Internal_Hbond>
0.0000

> <Gold.Chemscore.DEClash>
0.7013

> <Gold.Chemscore.DEInternal>
1.3641

> <Gold.Chemscore.Rot>
2.5798

> <Gold.Chemscore.Internal.Correction>
   9.000000E+99

> <Gold.Chemscore.Hbonds>
donor molecule, donor type, donor heavy atom, donor atom, acceptor molecule, acceptor atom, score
      L1  H    10    28       P1 10175  0.72
      L1  H    14    38       P1  8028  1.00
      P1  H 10785 10796       L1     1  0.68

> <Gold.Chemscore.Hbond.Weighted>
-9.3699

> <Gold.Chemscore.Metal.Weighted>
-0.0000

> <Gold.Chemscore.Lipo.Weighted>
-10.2682

> <Gold.Chemscore.Internal_Hbond.Weighted>
0.0000

> <Gold.Chemscore.DEClash.Weighted>
0.7013

> <Gold.Chemscore.DEInternal.Weighted>
1.3641

> <Gold.Chemscore.Rot.Weighted>
6.6043

> <Gold.Chemscore.Internal.Correction.Weighted>
   9.000000E+99

> <Gold.Protein.RotatedTorsions>
[ 6907 6896 6895 6894 ] final -116.65 input  -60.11 | X-H torsion
[ 7974 7965 7964 7962 ] final  136.83 input  175.53 | X-H torsion
[ 8008 7997 7996 7995 ] final  154.36 input   59.86 | X-H torsion
[ 10167 10162 10161 10158 ] final  141.12 input  -65.29 | X-H torsion
[ 10718 10713 10712 10709 ] final -107.16 input   66.30 | X-H torsion
[ 10763 10752 10751 10750 ] final  108.15 input  -60.55 | X-H torsion
[ 11005 11000 10999 10996 ] final  116.18 input  -57.11 | X-H torsion

> <Gold.Protein.ActiveResidues>
 VAL166  LYS551  ARG553  GLY616  TRP617  ASP618  TYR619  PRO620  LYS621  CYS622 
 ASP623  PHE694  ASN695  SER759  ASP760  ASP761  ALA762  ILE779  LEU786  VAL792 
 PHE793  MET794  SER795  GLU796  ALA797  LYS798  CYS799  TRP800  GLU811  SER814 

> <Gold.Protein.RotatedAtoms>
  150.8073  133.8487  159.3199 H   0  0  0  0  0  0  0  0  0  0  0  0  # atno 6907 bound_to 6896
  151.6283  135.1024  160.0126 H   0  0  0  0  0  0  0  0  0  0  0  0  # atno 6908 bound_to 6896
  152.4164  133.7004  159.6477 H   0  0  0  0  0  0  0  0  0  0  0  0  # atno 6909 bound_to 6896
  144.9526  139.4801  143.5518 H   0  0  0  0  0  0  0  0  0  0  0  0  # atno 7974 bound_to 7965
  156.2535  140.1968  156.6634 H   0  0  0  0  0  0  0  0  0  0  0  0  # atno 8008 bound_to 7997
  154.6447  140.0579  156.9912 H   0  0  0  0  0  0  0  0  0  0  0  0  # atno 8009 bound_to 7997
  155.1509  140.3251  155.4434 H   0  0  0  0  0  0  0  0  0  0  0  0  # atno 8010 bound_to 7997
  139.5029  144.6191  151.6093 H   0  0  0  0  0  0  0  0  0  0  0  0  # atno 10167 bound_to 10162
  156.0423  130.5648  150.7782 H   0  0  0  0  0  0  0  0  0  0  0  0  # atno 10718 bound_to 10713
  153.4166  135.3821  155.2084 H   0  0  0  0  0  0  0  0  0  0  0  0  # atno 10763 bound_to 10752
  154.8742  135.3807  154.4435 H   0  0  0  0  0  0  0  0  0  0  0  0  # atno 10764 bound_to 10752
  153.4950  135.7088  153.5925 H   0  0  0  0  0  0  0  0  0  0  0  0  # atno 10765 bound_to 10752
  139.9033  134.9594  156.7158 H   0  0  0  0  0  0  0  0  0  0  0  0  # atno 11005 bound_to 11000
  146.3326  139.8622  142.8854 LP  0  0  0  0  0  0  0  0  0  0  0  0  # atno 17320 bound_to 7965
  145.2820  141.0141  143.3712 LP  0  0  0  0  0  0  0  0  0  0  0  0  # atno 17321 bound_to 7965
  140.5888  143.9816  150.6312 LP  0  0  0  0  0  0  0  0  0  0  0  0  # atno 17342 bound_to 10162
  140.2990  143.3273  152.0990 LP  0  0  0  0  0  0  0  0  0  0  0  0  # atno 17343 bound_to 10162
  157.5257  131.0934  151.0021 LP  0  0  0  0  0  0  0  0  0  0  0  0  # atno 17370 bound_to 10713
  157.0340  130.5722  149.5347 LP  0  0  0  0  0  0  0  0  0  0  0  0  # atno 17371 bound_to 10713
  140.7039  133.9282  155.8041 LP  0  0  0  0  0  0  0  0  0  0  0  0  # atno 17394 bound_to 11000
  141.0351  134.0701  157.3969 LP  0  0  0  0  0  0  0  0  0  0  0  0  # atno 17395 bound_to 11000

$$$$
