AV-unprocessed.smi:2482|AV-procd|sdf|9783|dock3
  -GOLD-   2272013423D 1   1.00000     0.00000
 Structure written by MMmdl.
 34 35  0  0  0  0  0  0  0  0  3 V2000
  152.5343  143.8887  161.3819 C   0  0  0  0  0  0  0  0  0  0  0  0
  152.4568  142.7225  160.4141 C   0  0  0  0  0  0  0  0  0  0  0  0
  153.1416  141.6172  160.7786 N   0  0  0  0  0  0  0  0  0  0  0  0
  153.1074  140.5556  159.9493 C   0  0  0  0  0  0  0  0  0  0  0  0
  152.3955  140.5462  158.7350 C   0  0  0  0  0  0  0  0  0  0  0  0
  151.6677  141.6924  158.3446 C   0  0  0  0  0  0  0  0  0  0  0  0
  150.9887  141.6999  157.1855 N   0  5  0  0  0  0  0  0  0  0  0  0
  151.3090  140.8178  156.2081 C   0  0  0  0  0  0  0  0  0  0  0  0
  152.3911  140.2649  155.9993 O   0  0  0  0  0  0  0  0  0  0  0  0
  150.1008  140.5286  155.2892 C   0  0  2  0  0  0  0  0  0  0  0  0
  148.9356  139.7804  155.9795 C   0  0  0  0  0  0  0  0  0  0  0  0
  149.3039  138.3754  156.2750 N   0  3  1  0  0  0  0  0  0  0  0  0
  148.2405  137.6457  156.9969 C   0  0  0  0  0  0  0  0  0  0  0  0
  149.7473  137.6775  155.0472 C   0  0  0  0  0  0  0  0  0  0  0  0
  150.9018  138.4461  154.3839 C   0  0  0  0  0  0  0  0  0  0  0  0
  150.4970  139.7901  154.1268 O   0  0  0  0  0  0  0  0  0  0  0  0
  151.7107  142.8130  159.2147 C   0  0  0  0  0  0  0  0  0  0  0  0
  150.8651  144.2752  158.8231 Cl  0  0  0  0  0  0  0  0  0  0  0  0
  151.5389  144.1473  161.7441 H   0  0  0  0  0  0  0  0  0  0  0  0
  152.9605  144.7625  160.8884 H   0  0  0  0  0  0  0  0  0  0  0  0
  153.1567  143.6529  162.2460 H   0  0  0  0  0  0  0  0  0  0  0  0
  153.6654  139.6855  160.2617 H   0  0  0  0  0  0  0  0  0  0  0  0
  152.4077  139.6642  158.1114 H   0  0  0  0  0  0  0  0  0  0  0  0
  149.7236  141.4937  154.9472 H   0  0  0  0  0  0  0  0  0  0  0  0
  148.6486  140.2904  156.9005 H   0  0  0  0  0  0  0  0  0  0  0  0
  148.0577  139.7941  155.3316 H   0  0  0  0  0  0  0  0  0  0  0  0
  147.3373  137.5682  156.3902 H   0  0  0  0  0  0  0  0  0  0  0  0
  147.9874  138.1573  157.9260 H   0  0  0  0  0  0  0  0  0  0  0  0
  148.5707  136.6381  157.2509 H   0  0  0  0  0  0  0  0  0  0  0  0
  150.0698  136.6650  155.2928 H   0  0  0  0  0  0  0  0  0  0  0  0
  148.9099  137.5893  154.3531 H   0  0  0  0  0  0  0  0  0  0  0  0
  151.7982  138.4152  155.0044 H   0  0  0  0  0  0  0  0  0  0  0  0
  151.1663  137.9758  153.4368 H   0  0  0  0  0  0  0  0  0  0  0  0
  150.1029  138.4140  156.8927 H   0  0  0  0  0  0  0  0  0  0  0  0
  1  2  1  0  0  0  0
  1 19  1  0  0  0  0
  1 20  1  0  0  0  0
  1 21  1  0  0  0  0
  2 17  1  0  0  0  0
  2  3  2  0  0  0  0
  3  4  1  0  0  0  0
  4  5  2  0  0  0  0
  4 22  1  0  0  0  0
  5  6  1  0  0  0  0
  5 23  1  0  0  0  0
  6  7  1  0  0  0  0
  6 17  2  0  0  0  0
  7  8  1  0  0  0  0
  8  9  2  0  0  0  0
  8 10  1  0  0  0  0
 10 16  1  0  0  0  0
 10 11  1  0  0  0  0
 10 24  1  0  0  0  0
 11 12  1  0  0  0  0
 11 25  1  0  0  0  0
 11 26  1  0  0  0  0
 12 13  1  0  0  0  0
 12 14  1  0  0  0  0
 12 34  1  0  0  0  0
 13 27  1  0  0  0  0
 13 28  1  0  0  0  0
 13 29  1  0  0  0  0
 14 15  1  0  0  0  0
 14 30  1  0  0  0  0
 14 31  1  0  0  0  0
 15 16  1  0  0  0  0
 15 32  1  0  0  0  0
 15 33  1  0  0  0  0
 17 18  1  0  0  0  0
M  CHG  1   7  -1
M  CHG  1  12   1
M  END
> <s_m_source_file>
AV-unprocessed.smi

> <i_m_source_file_index>
2482

> <i_lp_mmshare_version>
43012

> <i_f3d_flags>
0

> <s_epik_input>
W0NIM11jMW5bY0hdW2NIXWMoYzFDbClbTkhdQyg9TylbQ0BASF0yW0NIMl1OKFtDSDNdKVtDSDJdW0NIMl1PMg==

> <s_epik_cmdline>
J2VwaWtfcHl0aG9uJywgJy1waCcsICc3LjAnLCAnLXRuJywgJzgnLCAnLW1hJywgJzIwMCcsICctbWV0YWxfYmluZGluZycsICctaW1hZScsICc8aW5maWxlLm1hZT4nLCAnLW9tYWUnLCAnPG91dGZpbGUubWFlPic=

> <r_epik_Ionization_Penalty>
6.9249

> <r_epik_Ionization_Penalty_Charging>
6.74596

> <r_epik_Ionization_Penalty_Neutral>
0.178941

> <r_epik_State_Penalty>
6.78185

> <r_epik_Charging_Adjusted_Penalty>
13.5278

> <i_epik_Tot_Q>
0

> <i_epik_Tot_abs_Q>
2

> <r_epik_Metal_State_Penalty>
2.70608

> <b_epik_Metal_Only>
1

> <s_lp_Force_Field>
OPLS_2005

> <r_lp_Energy>
12.3895

> <b_lp_Chiralities_Consistent>
1

> <s_lp_Variant>
AV-unprocessed.smi:2482-9

> <Gold.Version>
5.8.1

> <Gold.Id.Protein>
6NUR|6NUR_protein|mol2

> <Gold.PLP.Fitness>
36.4118

> <Gold.PLP.PLP>
-30.6885

> <Gold.PLP.part.hbond>
-2.0000

> <Gold.PLP.part.metal>
0.0000

> <Gold.PLP.part.buried>
-3.9768

> <Gold.PLP.part.nonpolar>
-24.0506

> <Gold.PLP.part.repulsive>
0.4358

> <Gold.PLP.ligand.clash>
0.0000

> <Gold.PLP.ligand.torsion>
0.3820

> <Gold.PLP.Chemscore.Hbond>
2.0000

> <Gold.PLP.Chemscore.CHOScore>
0.0000

> <Gold.PLP.Chemscore.Metal>
0.0000

> <Gold.Chemscore.Hbonds>
donor molecule, donor type, donor heavy atom, donor atom, acceptor molecule, acceptor atom, score
      P1  H  7989  7998       L1    16  1.00
      P1  H  7997  8009       L1     9  1.00

> <Gold.PLP.Chemscore.Internal.Correction>
0.4873

> <Gold.Rescore>
     Score         DG    S(hbond)    S(metal)    S(lipo)     H(rot)  DE(clash)    DE(int)     intcor
     15.42     -18.96       1.82        0.00      85.24       1.00       0.45       3.09       ----

> <Gold.Chemscore.Fitness>
15.4223

> <Gold.Chemscore.DG>
-18.9575

> <Gold.Chemscore.ZeroCoef>
-5.4800

> <Gold.Chemscore.Hbond>
1.8159

> <Gold.Chemscore.Metal>
0.0000

> <Gold.Chemscore.Lipo>
85.2350

> <Gold.Chemscore.Internal_Hbond>
0.0000

> <Gold.Chemscore.DEClash>
0.4455

> <Gold.Chemscore.DEInternal>
3.0897

> <Gold.Chemscore.Rot>
1.0000

> <Gold.Chemscore.Internal.Correction>
   9.000000E+99

> <Gold.Chemscore.Hbonds>
donor molecule, donor type, donor heavy atom, donor atom, acceptor molecule, acceptor atom, score
      P1  H  7989  7998       L1    16  0.25
      P1  H  7997  8009       L1     9  0.96

> <Gold.Chemscore.Hbond.Weighted>
-6.0650

> <Gold.Chemscore.Metal.Weighted>
-0.0000

> <Gold.Chemscore.Lipo.Weighted>
-9.9725

> <Gold.Chemscore.Internal_Hbond.Weighted>
0.0000

> <Gold.Chemscore.DEClash.Weighted>
0.4455

> <Gold.Chemscore.DEInternal.Weighted>
3.0897

> <Gold.Chemscore.Rot.Weighted>
2.5600

> <Gold.Chemscore.Internal.Correction.Weighted>
   9.000000E+99

> <Gold.Protein.RotatedTorsions>
[ 6907 6896 6895 6894 ] final  123.85 input  -60.11 | X-H torsion
[ 7974 7965 7964 7962 ] final  -55.44 input  175.53 | X-H torsion
[ 8008 7997 7996 7995 ] final -159.93 input   59.86 | X-H torsion
[ 10167 10162 10161 10158 ] final   98.25 input  -65.29 | X-H torsion
[ 10718 10713 10712 10709 ] final    9.86 input   66.30 | X-H torsion
[ 10763 10752 10751 10750 ] final  -25.16 input  -60.55 | X-H torsion
[ 11005 11000 10999 10996 ] final   95.45 input  -57.11 | X-H torsion

> <Gold.Protein.ActiveResidues>
 VAL166  LYS551  ARG553  GLY616  TRP617  ASP618  TYR619  PRO620  LYS621  CYS622 
 ASP623  PHE694  ASN695  SER759  ASP760  ASP761  ALA762  ILE779  LEU786  VAL792 
 PHE793  MET794  SER795  GLU796  ALA797  LYS798  CYS799  TRP800  GLU811  SER814 

> <Gold.Protein.RotatedAtoms>
  152.4128  133.6990  159.6412 H   0  0  0  0  0  0  0  0  0  0  0  0  # atno 6907 bound_to 6896
  150.8007  133.8594  159.3236 H   0  0  0  0  0  0  0  0  0  0  0  0  # atno 6908 bound_to 6896
  151.6332  135.1022  160.0177 H   0  0  0  0  0  0  0  0  0  0  0  0  # atno 6909 bound_to 6896
  145.8742  140.8193  142.9873 H   0  0  0  0  0  0  0  0  0  0  0  0  # atno 7974 bound_to 7965
  155.7699  140.0850  157.2113 H   0  0  0  0  0  0  0  0  0  0  0  0  # atno 8008 bound_to 7997
  154.3997  140.1527  156.2987 H   0  0  0  0  0  0  0  0  0  0  0  0  # atno 8009 bound_to 7997
  155.8757  140.3423  155.5855 H   0  0  0  0  0  0  0  0  0  0  0  0  # atno 8010 bound_to 7997
  139.7726  144.6917  151.0135 H   0  0  0  0  0  0  0  0  0  0  0  0  # atno 10167 bound_to 10162
  156.9725  130.5974  149.5670 H   0  0  0  0  0  0  0  0  0  0  0  0  # atno 10718 bound_to 10713
  153.6954  135.6959  153.5078 H   0  0  0  0  0  0  0  0  0  0  0  0  # atno 10763 bound_to 10752
  153.2382  135.4315  155.0668 H   0  0  0  0  0  0  0  0  0  0  0  0  # atno 10764 bound_to 10752
  154.8360  135.3501  154.6495 H   0  0  0  0  0  0  0  0  0  0  0  0  # atno 10765 bound_to 10752
  139.8789  134.8900  156.4013 H   0  0  0  0  0  0  0  0  0  0  0  0  # atno 11005 bound_to 11000
  144.6726  140.1285  143.7445 LP  0  0  0  0  0  0  0  0  0  0  0  0  # atno 17320 bound_to 7965
  145.9101  139.2482  143.1442 LP  0  0  0  0  0  0  0  0  0  0  0  0  # atno 17321 bound_to 7965
  140.7815  143.4572  151.0329 LP  0  0  0  0  0  0  0  0  0  0  0  0  # atno 17342 bound_to 10162
  139.8255  143.7762  152.3178 LP  0  0  0  0  0  0  0  0  0  0  0  0  # atno 17343 bound_to 10162
  156.0277  130.5370  150.8451 LP  0  0  0  0  0  0  0  0  0  0  0  0  # atno 17370 bound_to 10713
  157.5583  131.0945  150.9597 LP  0  0  0  0  0  0  0  0  0  0  0  0  # atno 17371 bound_to 10713
  140.9265  133.7609  155.9970 LP  0  0  0  0  0  0  0  0  0  0  0  0  # atno 17394 bound_to 11000
  140.8380  134.3100  157.5324 LP  0  0  0  0  0  0  0  0  0  0  0  0  # atno 17395 bound_to 11000

$$$$
