AV-unprocessed.smi:3340|AV-procd|sdf|12880|dock9
  -GOLD-   2272019283D 1   1.00000     0.00000
 Structure written by MMmdl.
 42 43  0  0  0  0  0  0  0  0  2 V2000
  153.3448  137.5626  156.3311 C   0  0  0  0  0  0  0  0  0  0  0  0
  152.4181  138.7109  156.7367 C   0  0  0  0  0  0  0  0  0  0  0  0
  152.8712  139.5826  157.4786 O   0  0  0  0  0  0  0  0  0  0  0  0
  151.1446  138.7319  156.2745 N   0  0  0  0  0  0  0  0  0  0  0  0
  150.6178  137.7174  155.3486 C   0  0  0  0  0  0  0  0  0  0  0  0
  150.2405  138.3980  154.0173 C   0  0  0  0  0  0  0  0  0  0  0  0
  149.2435  139.4521  154.2859 N   0  0  0  0  0  0  0  0  0  0  0  0
  147.9350  139.4295  153.9282 C   0  0  0  0  0  0  0  0  0  0  0  0
  147.1197  140.2700  154.3086 O   0  0  0  0  0  0  0  0  0  0  0  0
  147.6064  138.4425  153.0738 N   0  0  0  0  0  0  0  0  0  0  0  0
  146.2924  138.1606  152.4878 C   0  0  1  0  0  0  0  0  0  0  0  0
  146.3423  138.2166  150.9516 C   0  0  0  0  0  0  0  0  0  0  0  0
  145.6667  136.8438  153.0029 C   0  0  0  0  0  0  0  0  0  0  0  0
  145.0872  136.0291  151.9305 N   0  0  0  0  0  0  0  0  0  0  0  0
  145.7600  135.2712  151.0068 C   0  0  0  0  0  0  0  0  0  0  0  0
  144.8074  134.6907  150.2095 C   0  0  0  0  0  0  0  0  0  0  0  0
  143.5949  135.1205  150.6785 N   0  3  0  0  0  0  0  0  0  0  0  0
  143.7674  135.9366  151.7236 C   0  0  0  0  0  0  0  0  0  0  0  0
  149.7852  140.4674  155.2016 C   0  0  0  0  0  0  0  0  0  0  0  0
  150.1586  139.7926  156.5365 C   0  0  0  0  0  0  0  0  0  0  0  0
  152.9451  136.6057  156.6674 H   0  0  0  0  0  0  0  0  0  0  0  0
  154.3303  137.6873  156.7813 H   0  0  0  0  0  0  0  0  0  0  0  0
  153.4756  137.5340  155.2491 H   0  0  0  0  0  0  0  0  0  0  0  0
  151.3274  136.9117  155.1556 H   0  0  0  0  0  0  0  0  0  0  0  0
  149.7413  137.2445  155.7943 H   0  0  0  0  0  0  0  0  0  0  0  0
  151.1244  138.8509  153.5655 H   0  0  0  0  0  0  0  0  0  0  0  0
  149.9073  137.6397  153.3095 H   0  0  0  0  0  0  0  0  0  0  0  0
  148.3487  137.8109  152.8094 H   0  0  0  0  0  0  0  0  0  0  0  0
  145.6497  138.9794  152.8129 H   0  0  0  0  0  0  0  0  0  0  0  0
  145.3422  138.1292  150.5267 H   0  0  0  0  0  0  0  0  0  0  0  0
  146.9458  137.4094  150.5356 H   0  0  0  0  0  0  0  0  0  0  0  0
  146.7640  139.1609  150.6056 H   0  0  0  0  0  0  0  0  0  0  0  0
  146.4247  136.2377  153.5015 H   0  0  0  0  0  0  0  0  0  0  0  0
  144.8892  137.0307  153.7440 H   0  0  0  0  0  0  0  0  0  0  0  0
  146.8384  135.2018  150.9885 H   0  0  0  0  0  0  0  0  0  0  0  0
  144.8992  134.0223  149.3658 H   0  0  0  0  0  0  0  0  0  0  0  0
  142.9933  136.4225  152.2905 H   0  0  0  0  0  0  0  0  0  0  0  0
  150.6672  140.9248  154.7510 H   0  0  0  0  0  0  0  0  0  0  0  0
  149.0884  141.2864  155.3844 H   0  0  0  0  0  0  0  0  0  0  0  0
  149.2728  139.3502  156.9950 H   0  0  0  0  0  0  0  0  0  0  0  0
  150.5052  140.5494  157.2383 H   0  0  0  0  0  0  0  0  0  0  0  0
  142.6960  134.8614  150.2913 H   0  0  0  0  0  0  0  0  0  0  0  0
  1  2  1  0  0  0  0
  1 21  1  0  0  0  0
  1 22  1  0  0  0  0
  1 23  1  0  0  0  0
  2  3  2  0  0  0  0
  2  4  1  0  0  0  0
  4 20  1  0  0  0  0
  4  5  1  0  0  0  0
  5  6  1  0  0  0  0
  5 24  1  0  0  0  0
  5 25  1  0  0  0  0
  6  7  1  0  0  0  0
  6 26  1  0  0  0  0
  6 27  1  0  0  0  0
  7  8  1  0  0  0  0
  7 19  1  0  0  0  0
  8  9  2  0  0  0  0
  8 10  1  0  0  0  0
 10 11  1  0  0  0  0
 10 28  1  0  0  0  0
 11 12  1  0  0  0  0
 11 13  1  0  0  0  0
 11 29  1  0  0  0  0
 12 30  1  0  0  0  0
 12 31  1  0  0  0  0
 12 32  1  0  0  0  0
 13 14  1  0  0  0  0
 13 33  1  0  0  0  0
 13 34  1  0  0  0  0
 14 18  1  0  0  0  0
 14 15  1  0  0  0  0
 15 16  2  0  0  0  0
 15 35  1  0  0  0  0
 16 17  1  0  0  0  0
 16 36  1  0  0  0  0
 17 18  2  0  0  0  0
 17 42  1  0  0  0  0
 18 37  1  0  0  0  0
 19 20  1  0  0  0  0
 19 38  1  0  0  0  0
 19 39  1  0  0  0  0
 20 40  1  0  0  0  0
 20 41  1  0  0  0  0
M  CHG  1  17   1
M  END
> <s_m_source_file>
AV-unprocessed.smi

> <i_m_source_file_index>
3340

> <i_lp_mmshare_version>
43012

> <i_f3d_flags>
0

> <s_epik_input>
W0NIM11DKD1PKU4xW0NIMl1bQ0gyXU4oW0NIMl1bQ0gyXTEpQyg9TylbTkhdW0NASF0oW0NIM10pW0NIMl1uMltjSF1bY0hdbltjSF0y

> <s_epik_cmdline>
J2VwaWtfcHl0aG9uJywgJy1waCcsICc3LjAnLCAnLXRuJywgJzgnLCAnLW1hJywgJzIwMCcsICctbWV0YWxfYmluZGluZycsICctaW1hZScsICc8aW5maWxlLm1hZT4nLCAnLW9tYWUnLCAnPG91dGZpbGUubWFlPic=

> <r_lp_tautomer_probability>
1

> <r_epik_Ionization_Penalty>
0.254791

> <r_epik_Ionization_Penalty_Charging>
0

> <r_epik_Ionization_Penalty_Neutral>
0.254791

> <r_epik_State_Penalty>
0.246235

> <r_epik_Charging_Adjusted_Penalty>
0.246235

> <i_epik_Tot_Q>
1

> <i_epik_Tot_abs_Q>
1

> <r_epik_Metal_State_Penalty>
0.536161

> <b_epik_Metal_Only>
0

> <s_lp_Force_Field>
OPLS_2005

> <r_lp_Energy>
52.654

> <b_lp_Chiralities_Consistent>
1

> <s_lp_Variant>
AV-unprocessed.smi:3340-2

> <Gold.Version>
5.8.1

> <Gold.Id.Protein>
6NUR|6NUR_protein|mol2

> <Gold.PLP.Fitness>
41.2186

> <Gold.PLP.PLP>
-28.0160

> <Gold.PLP.part.hbond>
-3.3463

> <Gold.PLP.part.metal>
0.0000

> <Gold.PLP.part.buried>
2.1748

> <Gold.PLP.part.nonpolar>
-29.1020

> <Gold.PLP.part.repulsive>
0.1791

> <Gold.PLP.ligand.clash>
0.0000

> <Gold.PLP.ligand.torsion>
0.9253

> <Gold.PLP.Chemscore.Hbond>
3.9920

> <Gold.PLP.Chemscore.CHOScore>
1.0000

> <Gold.PLP.Chemscore.Metal>
0.0000

> <Gold.Chemscore.Hbonds>
donor molecule, donor type, donor heavy atom, donor atom, acceptor molecule, acceptor atom, score
      L1  H    10    28       P1  7948  1.00
      L1  H    17    42       P1 10186  1.90
      P1  H  7997  8009       L1     3  1.00
      L1  C    15    35       P1  7948  1.00

> <Gold.PLP.Chemscore.Internal.Correction>
0.0773

> <Gold.Rescore>
     Score         DG    S(hbond)    S(metal)    S(lipo)     H(rot)  DE(clash)    DE(int)     intcor
     12.83     -16.34       2.31        0.00      63.93       1.70       2.40       1.11       ----

> <Gold.Chemscore.Fitness>
12.8272

> <Gold.Chemscore.DG>
-16.3434

> <Gold.Chemscore.ZeroCoef>
-5.4800

> <Gold.Chemscore.Hbond>
2.3142

> <Gold.Chemscore.Metal>
0.0000

> <Gold.Chemscore.Lipo>
63.9271

> <Gold.Chemscore.Internal_Hbond>
0.0000

> <Gold.Chemscore.DEClash>
2.4017

> <Gold.Chemscore.DEInternal>
1.1145

> <Gold.Chemscore.Rot>
1.6975

> <Gold.Chemscore.Internal.Correction>
   9.000000E+99

> <Gold.Chemscore.Hbonds>
donor molecule, donor type, donor heavy atom, donor atom, acceptor molecule, acceptor atom, score
      L1  H    10    28       P1  7948  0.95
      L1  H    17    42       P1 10186  0.22
      P1  H  7997  8009       L1     3  0.70

> <Gold.Chemscore.Hbond.Weighted>
-7.7295

> <Gold.Chemscore.Metal.Weighted>
-0.0000

> <Gold.Chemscore.Lipo.Weighted>
-7.4795

> <Gold.Chemscore.Internal_Hbond.Weighted>
0.0000

> <Gold.Chemscore.DEClash.Weighted>
2.4017

> <Gold.Chemscore.DEInternal.Weighted>
1.1145

> <Gold.Chemscore.Rot.Weighted>
4.3455

> <Gold.Chemscore.Internal.Correction.Weighted>
   9.000000E+99

> <Gold.Protein.RotatedTorsions>
[ 6907 6896 6895 6894 ] final  -37.47 input  -60.11 | X-H torsion
[ 7974 7965 7964 7962 ] final   49.14 input  175.53 | X-H torsion
[ 8008 7997 7996 7995 ] final  162.01 input   59.86 | X-H torsion
[ 10167 10162 10161 10158 ] final  144.79 input  -65.29 | X-H torsion
[ 10718 10713 10712 10709 ] final  142.69 input   66.30 | X-H torsion
[ 10763 10752 10751 10750 ] final  113.95 input  -60.55 | X-H torsion
[ 11005 11000 10999 10996 ] final -160.07 input  -57.11 | X-H torsion

> <Gold.Protein.ActiveResidues>
 VAL166  LYS551  ARG553  GLY616  TRP617  ASP618  TYR619  PRO620  LYS621  CYS622 
 ASP623  PHE694  ASN695  SER759  ASP760  ASP761  ALA762  ILE779  LEU786  VAL792 
 PHE793  MET794  SER795  GLU796  ALA797  LYS798  CYS799  TRP800  GLU811  SER814 

> <Gold.Protein.RotatedAtoms>
  151.0144  134.9421  159.8024 H   0  0  0  0  0  0  0  0  0  0  0  0  # atno 6907 bound_to 6896
  152.5310  134.2986  159.9080 H   0  0  0  0  0  0  0  0  0  0  0  0  # atno 6908 bound_to 6896
  151.2993  133.4088  159.2673 H   0  0  0  0  0  0  0  0  0  0  0  0  # atno 6909 bound_to 6896
  146.0138  139.4573  142.9940 H   0  0  0  0  0  0  0  0  0  0  0  0  # atno 7974 bound_to 7965
  156.2062  140.1762  156.7794 H   0  0  0  0  0  0  0  0  0  0  0  0  # atno 8008 bound_to 7997
  154.5659  140.0691  156.8920 H   0  0  0  0  0  0  0  0  0  0  0  0  # atno 8009 bound_to 7997
  155.2762  140.3346  155.4264 H   0  0  0  0  0  0  0  0  0  0  0  0  # atno 8010 bound_to 7997
  139.4939  144.5947  151.6607 H   0  0  0  0  0  0  0  0  0  0  0  0  # atno 10167 bound_to 10162
  157.3776  131.0988  151.0769 H   0  0  0  0  0  0  0  0  0  0  0  0  # atno 10718 bound_to 10713
  153.5001  135.3640  155.2535 H   0  0  0  0  0  0  0  0  0  0  0  0  # atno 10763 bound_to 10752
  154.8748  135.3998  154.3489 H   0  0  0  0  0  0  0  0  0  0  0  0  # atno 10764 bound_to 10752
  153.4123  135.7078  153.6417 H   0  0  0  0  0  0  0  0  0  0  0  0  # atno 10765 bound_to 10752
  140.6356  134.4605  157.5231 H   0  0  0  0  0  0  0  0  0  0  0  0  # atno 11005 bound_to 11000
  145.7301  141.0045  143.1356 LP  0  0  0  0  0  0  0  0  0  0  0  0  # atno 17320 bound_to 7965
  144.6963  139.8974  143.7456 LP  0  0  0  0  0  0  0  0  0  0  0  0  # atno 17321 bound_to 7965
  140.5582  144.0312  150.6157 LP  0  0  0  0  0  0  0  0  0  0  0  0  # atno 17342 bound_to 10162
  140.3389  143.3032  152.0609 LP  0  0  0  0  0  0  0  0  0  0  0  0  # atno 17343 bound_to 10162
  157.1849  130.6326  149.5684 LP  0  0  0  0  0  0  0  0  0  0  0  0  # atno 17370 bound_to 10713
  155.9769  130.4741  150.6557 LP  0  0  0  0  0  0  0  0  0  0  0  0  # atno 17371 bound_to 10713
  139.9099  134.8367  156.1566 LP  0  0  0  0  0  0  0  0  0  0  0  0  # atno 17394 bound_to 11000
  141.0644  133.6826  156.2015 LP  0  0  0  0  0  0  0  0  0  0  0  0  # atno 17395 bound_to 11000

$$$$
