AV-unprocessed.smi:1751|AV-procd|sdf|7057|dock2
  -GOLD-   22720 8273D 1   1.00000     0.00000
 Structure written by MMmdl.
 35 36  0  0  0  0  0  0  0  0  1 V2000
  152.1057  140.9834  158.2307 C   0  0  0  0  0  0  0  0  0  0  0  0
  151.6329  141.0822  156.8918 O   0  0  0  0  0  0  0  0  0  0  0  0
  151.2321  139.9275  156.2517 C   0  0  0  0  0  0  0  0  0  0  0  0
  150.9874  138.7776  157.0275 C   0  0  0  0  0  0  0  0  0  0  0  0
  150.5855  137.5953  156.3782 C   0  0  0  0  0  0  0  0  0  0  0  0
  150.4433  137.5915  154.9759 C   0  0  0  0  0  0  0  0  0  0  0  0
  150.0282  136.3787  154.3599 N   0  0  0  0  0  0  0  0  0  0  0  0
  149.9043  135.1518  154.8954 C   0  0  0  0  0  0  0  0  0  0  0  0
  150.1420  134.8538  156.0650 O   0  0  0  0  0  0  0  0  0  0  0  0
  149.4732  134.2713  153.9813 N   0  0  0  0  0  0  0  0  0  0  0  0
  149.2390  132.8500  154.2172 C   0  0  0  0  0  0  0  0  0  0  0  0
  147.8231  132.4288  153.7898 C   0  0  1  0  0  0  0  0  0  0  0  0
  147.4108  132.8709  152.3864 C   0  0  0  0  0  0  0  0  0  0  0  0
  146.3110  131.8832  152.0723 C   0  0  0  0  0  0  0  0  0  0  0  0
  146.8392  130.6014  152.7129 C   0  0  0  0  0  0  0  0  0  0  0  0
  147.7175  131.0090  153.7604 O   0  0  0  0  0  0  0  0  0  0  0  0
  150.7003  138.8026  154.2866 C   0  0  0  0  0  0  0  0  0  0  0  0
  151.0867  139.9400  154.9038 N   0  0  0  0  0  0  0  0  0  0  0  0
  152.3693  141.9766  158.5942 H   0  0  0  0  0  0  0  0  0  0  0  0
  152.9989  140.3602  158.2932 H   0  0  0  0  0  0  0  0  0  0  0  0
  151.3405  140.5808  158.8957 H   0  0  0  0  0  0  0  0  0  0  0  0
  151.1074  138.8019  158.1006 H   0  0  0  0  0  0  0  0  0  0  0  0
  150.3926  136.7015  156.9537 H   0  0  0  0  0  0  0  0  0  0  0  0
  149.7477  136.4640  153.3940 H   0  0  0  0  0  0  0  0  0  0  0  0
  149.2996  134.6070  153.0453 H   0  0  0  0  0  0  0  0  0  0  0  0
  149.9896  132.2364  153.7157 H   0  0  0  0  0  0  0  0  0  0  0  0
  149.3634  132.6685  155.2850 H   0  0  0  0  0  0  0  0  0  0  0  0
  147.0914  132.7956  154.5117 H   0  0  0  0  0  0  0  0  0  0  0  0
  147.0785  133.9086  152.3454 H   0  0  0  0  0  0  0  0  0  0  0  0
  148.2372  132.7455  151.6851 H   0  0  0  0  0  0  0  0  0  0  0  0
  145.3844  132.1913  152.5586 H   0  0  0  0  0  0  0  0  0  0  0  0
  146.1182  131.7791  151.0043 H   0  0  0  0  0  0  0  0  0  0  0  0
  146.0341  129.9722  153.0936 H   0  0  0  0  0  0  0  0  0  0  0  0
  147.4109  130.0182  151.9902 H   0  0  0  0  0  0  0  0  0  0  0  0
  150.5868  138.8951  153.2186 H   0  0  0  0  0  0  0  0  0  0  0  0
  1  2  1  0  0  0  0
  1 19  1  0  0  0  0
  1 20  1  0  0  0  0
  1 21  1  0  0  0  0
  2  3  1  0  0  0  0
  3 18  1  0  0  0  0
  3  4  2  0  0  0  0
  4  5  1  0  0  0  0
  4 22  1  0  0  0  0
  5  6  2  0  0  0  0
  5 23  1  0  0  0  0
  6  7  1  0  0  0  0
  6 17  1  0  0  0  0
  7  8  1  0  0  0  0
  7 24  1  0  0  0  0
  8  9  2  0  0  0  0
  8 10  1  0  0  0  0
 10 11  1  0  0  0  0
 10 25  1  0  0  0  0
 11 12  1  0  0  0  0
 11 26  1  0  0  0  0
 11 27  1  0  0  0  0
 12 16  1  0  0  0  0
 12 13  1  0  0  0  0
 12 28  1  0  0  0  0
 13 14  1  0  0  0  0
 13 29  1  0  0  0  0
 13 30  1  0  0  0  0
 14 15  1  0  0  0  0
 14 31  1  0  0  0  0
 14 32  1  0  0  0  0
 15 16  1  0  0  0  0
 15 33  1  0  0  0  0
 15 34  1  0  0  0  0
 17 18  2  0  0  0  0
 17 35  1  0  0  0  0
M  END
> <s_m_source_file>
AV-unprocessed.smi

> <i_m_source_file_index>
1751

> <i_lp_mmshare_version>
43012

> <i_f3d_flags>
0

> <s_epik_input>
W0NIM11PYzFbY0hdW2NIXWMoW2NIXW4xKVtOSF1DKD1PKVtOSF1bQ0gyXVtDQEBIXTJbQ0gyXVtDSDJdW0NIMl1PMg==

> <s_epik_cmdline>
J2VwaWtfcHl0aG9uJywgJy1waCcsICc3LjAnLCAnLXRuJywgJzgnLCAnLW1hJywgJzIwMCcsICctbWV0YWxfYmluZGluZycsICctaW1hZScsICc8aW5maWxlLm1hZT4nLCAnLW9tYWUnLCAnPG91dGZpbGUubWFlPic=

> <r_lp_tautomer_probability>
1

> <r_epik_Ionization_Penalty>
9.01694e-05

> <r_epik_Ionization_Penalty_Charging>
0

> <r_epik_Ionization_Penalty_Neutral>
9.01694e-05

> <r_epik_State_Penalty>
-0

> <r_epik_Charging_Adjusted_Penalty>
0

> <i_epik_Tot_Q>
0

> <i_epik_Tot_abs_Q>
0

> <r_epik_Metal_State_Penalty>
-0

> <b_epik_Metal_Only>
0

> <s_lp_Force_Field>
OPLS_2005

> <r_lp_Energy>
20.1941

> <b_lp_Chiralities_Consistent>
1

> <s_lp_Variant>
AV-unprocessed.smi:1751-2

> <Gold.Version>
5.8.1

> <Gold.Id.Protein>
6NUR|6NUR_protein|mol2

> <Gold.PLP.Fitness>
35.3997

> <Gold.PLP.PLP>
-26.1340

> <Gold.PLP.part.hbond>
-3.6838

> <Gold.PLP.part.metal>
0.0000

> <Gold.PLP.part.buried>
-2.9184

> <Gold.PLP.part.nonpolar>
-20.1661

> <Gold.PLP.part.repulsive>
0.2491

> <Gold.PLP.ligand.clash>
0.0000

> <Gold.PLP.ligand.torsion>
0.3055

> <Gold.PLP.Chemscore.Hbond>
2.2880

> <Gold.PLP.Chemscore.CHOScore>
1.0000

> <Gold.PLP.Chemscore.Metal>
0.0000

> <Gold.Chemscore.Hbonds>
donor molecule, donor type, donor heavy atom, donor atom, acceptor molecule, acceptor atom, score
      L1  H     7    24       P1  7948  1.00
      L1  H    10    25       P1  7948  0.24
      P1  H  7989  7998       L1    18  1.00
      L1  C    17    35       P1  7957  1.00

> <Gold.PLP.Chemscore.Internal.Correction>
0.0127

> <Gold.Rescore>
     Score         DG    S(hbond)    S(metal)    S(lipo)     H(rot)  DE(clash)    DE(int)     intcor
     12.12     -14.11       1.83        0.00      54.36       1.50       0.27       1.72       ----

> <Gold.Chemscore.Fitness>
12.1232

> <Gold.Chemscore.DG>
-14.1124

> <Gold.Chemscore.ZeroCoef>
-5.4800

> <Gold.Chemscore.Hbond>
1.8277

> <Gold.Chemscore.Metal>
0.0000

> <Gold.Chemscore.Lipo>
54.3643

> <Gold.Chemscore.Internal_Hbond>
0.0000

> <Gold.Chemscore.DEClash>
0.2714

> <Gold.Chemscore.DEInternal>
1.7178

> <Gold.Chemscore.Rot>
1.4971

> <Gold.Chemscore.Internal.Correction>
   9.000000E+99

> <Gold.Chemscore.Hbonds>
donor molecule, donor type, donor heavy atom, donor atom, acceptor molecule, acceptor atom, score
      L1  H     7    24       P1  7948  0.30
      P1  H  7989  7998       L1    18  0.26

> <Gold.Chemscore.Hbond.Weighted>
-6.1044

> <Gold.Chemscore.Metal.Weighted>
-0.0000

> <Gold.Chemscore.Lipo.Weighted>
-6.3606

> <Gold.Chemscore.Internal_Hbond.Weighted>
0.0000

> <Gold.Chemscore.DEClash.Weighted>
0.2714

> <Gold.Chemscore.DEInternal.Weighted>
1.7178

> <Gold.Chemscore.Rot.Weighted>
3.8326

> <Gold.Chemscore.Internal.Correction.Weighted>
   9.000000E+99

> <Gold.Protein.RotatedTorsions>
[ 6907 6896 6895 6894 ] final  -73.05 input  -60.11 | X-H torsion
[ 7974 7965 7964 7962 ] final -178.11 input  175.53 | X-H torsion
[ 8008 7997 7996 7995 ] final  115.22 input   59.86 | X-H torsion
[ 10167 10162 10161 10158 ] final  -13.96 input  -65.29 | X-H torsion
[ 10718 10713 10712 10709 ] final   86.69 input   66.30 | X-H torsion
[ 10763 10752 10751 10750 ] final  -15.09 input  -60.55 | X-H torsion
[ 11005 11000 10999 10996 ] final -172.06 input  -57.11 | X-H torsion

> <Gold.Protein.ActiveResidues>
 VAL166  LYS551  ARG553  GLY616  TRP617  ASP618  TYR619  PRO620  LYS621  CYS622 
 ASP623  PHE694  ASN695  SER759  ASP760  ASP761  ALA762  ILE779  LEU786  VAL792 
 PHE793  MET794  SER795  GLU796  ALA797  LYS798  CYS799  TRP800  GLU811  SER814 

> <Gold.Protein.RotatedAtoms>
  150.7145  134.5073  159.5589 H   0  0  0  0  0  0  0  0  0  0  0  0  # atno 6907 bound_to 6896
  152.2657  134.7984  160.0432 H   0  0  0  0  0  0  0  0  0  0  0  0  # atno 6908 bound_to 6896
  151.8682  133.3435  159.3763 H   0  0  0  0  0  0  0  0  0  0  0  0  # atno 6909 bound_to 6896
  144.7130  140.0918  143.6421 H   0  0  0  0  0  0  0  0  0  0  0  0  # atno 7974 bound_to 7965
  156.2368  140.2943  156.0335 H   0  0  0  0  0  0  0  0  0  0  0  0  # atno 8008 bound_to 7997
  155.2068  140.0411  157.2944 H   0  0  0  0  0  0  0  0  0  0  0  0  # atno 8009 bound_to 7997
  154.6094  140.2447  155.7696 H   0  0  0  0  0  0  0  0  0  0  0  0  # atno 8010 bound_to 7997
  140.7192  143.5372  150.9451 H   0  0  0  0  0  0  0  0  0  0  0  0  # atno 10167 bound_to 10162
  157.6931  131.0225  150.3010 H   0  0  0  0  0  0  0  0  0  0  0  0  # atno 10718 bound_to 10713
  153.5381  135.7013  153.5650 H   0  0  0  0  0  0  0  0  0  0  0  0  # atno 10763 bound_to 10752
  153.3627  135.3965  155.1730 H   0  0  0  0  0  0  0  0  0  0  0  0  # atno 10764 bound_to 10752
  154.8677  135.3792  154.4884 H   0  0  0  0  0  0  0  0  0  0  0  0  # atno 10765 bound_to 10752
  140.5013  134.5891  157.4988 H   0  0  0  0  0  0  0  0  0  0  0  0  # atno 11005 bound_to 11000
  145.9613  139.2803  143.1153 LP  0  0  0  0  0  0  0  0  0  0  0  0  # atno 17320 bound_to 7965
  145.9217  140.9110  143.0402 LP  0  0  0  0  0  0  0  0  0  0  0  0  # atno 17321 bound_to 7965
  139.9093  143.6739  152.3118 LP  0  0  0  0  0  0  0  0  0  0  0  0  # atno 17342 bound_to 10162
  139.7117  144.7619  151.1101 LP  0  0  0  0  0  0  0  0  0  0  0  0  # atno 17343 bound_to 10162
  156.3526  130.3833  149.7317 LP  0  0  0  0  0  0  0  0  0  0  0  0  # atno 17370 bound_to 10713
  156.4789  130.8032  151.3047 LP  0  0  0  0  0  0  0  0  0  0  0  0  # atno 17371 bound_to 10713
  139.9712  134.7290  156.0038 LP  0  0  0  0  0  0  0  0  0  0  0  0  # atno 17394 bound_to 11000
  141.1434  133.6560  156.3796 LP  0  0  0  0  0  0  0  0  0  0  0  0  # atno 17395 bound_to 11000

$$$$
