AV-unprocessed.smi:2032|AV-procd|sdf|8241|dock8
  -GOLD-   2272010513D 1   1.00000     0.00000
 Structure written by MMmdl.
 43 44  0  0  0  0  0  0  0  0  2 V2000
  151.9702  138.9705  154.7994 C   0  0  0  0  0  0  0  0  0  0  0  0
  150.8062  138.0357  154.4515 C   0  0  2  0  0  0  0  0  0  0  0  0
  149.5244  138.8115  154.0983 C   0  0  0  0  0  0  0  0  0  0  0  0
  148.3926  137.8852  153.8199 N   0  3  2  0  0  0  0  0  0  0  0  0
  147.1505  138.6055  153.3853 C   0  0  2  0  0  0  0  0  0  0  0  0
  146.4672  139.3955  154.5285 C   0  0  0  0  0  0  0  0  0  0  0  0
  146.1406  137.6134  152.7445 C   0  0  0  0  0  0  0  0  0  0  0  0
  144.7591  138.0849  152.7846 N   0  0  0  0  0  0  0  0  0  0  0  0
  143.7137  137.3611  153.2103 C   0  0  0  0  0  0  0  0  0  0  0  0
  143.8148  136.2046  153.6210 O   0  0  0  0  0  0  0  0  0  0  0  0
  142.5692  138.0617  153.1301 N   0  0  0  0  0  0  0  0  0  0  0  0
  141.2508  137.6225  153.4196 C   0  0  0  0  0  0  0  0  0  0  0  0
  140.9595  136.5058  154.0970 N   0  0  0  0  0  0  0  0  0  0  0  0
  139.5811  136.3136  154.2224 C   0  0  0  0  0  0  0  0  0  0  0  0
  138.8329  137.3004  153.6299 C   0  0  0  0  0  0  0  0  0  0  0  0
  139.8354  138.5163  152.8841 S   0  0  0  0  0  0  0  0  0  0  0  0
  148.2212  136.9586  154.9729 C   0  0  0  0  0  0  0  0  0  0  0  0
  149.5417  136.2437  155.3184 C   0  0  2  0  0  0  0  0  0  0  0  0
  149.4058  135.3512  156.5571 C   0  0  0  0  0  0  0  0  0  0  0  0
  150.5483  137.2120  155.5802 O   0  0  0  0  0  0  0  0  0  0  0  0
  152.2161  139.6209  153.9594 H   0  0  0  0  0  0  0  0  0  0  0  0
  152.8654  138.4012  155.0513 H   0  0  0  0  0  0  0  0  0  0  0  0
  151.7276  139.6040  155.6533 H   0  0  0  0  0  0  0  0  0  0  0  0
  151.1047  137.4116  153.6070 H   0  0  0  0  0  0  0  0  0  0  0  0
  149.2536  139.4764  154.9202 H   0  0  0  0  0  0  0  0  0  0  0  0
  149.7352  139.4449  153.2392 H   0  0  0  0  0  0  0  0  0  0  0  0
  147.4507  139.3386  152.6352 H   0  0  0  0  0  0  0  0  0  0  0  0
  145.5493  139.8790  154.1953 H   0  0  0  0  0  0  0  0  0  0  0  0
  147.0986  140.2006  154.9042 H   0  0  0  0  0  0  0  0  0  0  0  0
  146.2079  138.7446  155.3643 H   0  0  0  0  0  0  0  0  0  0  0  0
  146.3800  137.3956  151.7047 H   0  0  0  0  0  0  0  0  0  0  0  0
  146.1816  136.6583  153.2691 H   0  0  0  0  0  0  0  0  0  0  0  0
  144.5886  139.0284  152.4676 H   0  0  0  0  0  0  0  0  0  0  0  0
  142.6463  139.0158  152.8100 H   0  0  0  0  0  0  0  0  0  0  0  0
  139.2181  135.4441  154.7504 H   0  0  0  0  0  0  0  0  0  0  0  0
  137.7571  137.3844  153.5862 H   0  0  0  0  0  0  0  0  0  0  0  0
  147.8534  137.5160  155.8363 H   0  0  0  0  0  0  0  0  0  0  0  0
  147.4865  136.1876  154.7429 H   0  0  0  0  0  0  0  0  0  0  0  0
  149.8523  135.6209  154.4775 H   0  0  0  0  0  0  0  0  0  0  0  0
  148.6483  134.5819  156.4058 H   0  0  0  0  0  0  0  0  0  0  0  0
  149.1213  135.9331  157.4343 H   0  0  0  0  0  0  0  0  0  0  0  0
  150.3473  134.8496  156.7813 H   0  0  0  0  0  0  0  0  0  0  0  0
  148.6710  137.3059  153.0408 H   0  0  0  0  0  0  0  0  0  0  0  0
  1  2  1  0  0  0  0
  1 21  1  0  0  0  0
  1 22  1  0  0  0  0
  1 23  1  0  0  0  0
  2 20  1  0  0  0  0
  2  3  1  0  0  0  0
  2 24  1  0  0  0  0
  3  4  1  0  0  0  0
  3 25  1  0  0  0  0
  3 26  1  0  0  0  0
  4  5  1  0  0  0  0
  4 17  1  0  0  0  0
  4 43  1  0  0  0  0
  5  6  1  0  0  0  0
  5  7  1  0  0  0  0
  5 27  1  0  0  0  0
  6 28  1  0  0  0  0
  6 29  1  0  0  0  0
  6 30  1  0  0  0  0
  7  8  1  0  0  0  0
  7 31  1  0  0  0  0
  7 32  1  0  0  0  0
  8  9  1  0  0  0  0
  8 33  1  0  0  0  0
  9 10  2  0  0  0  0
  9 11  1  0  0  0  0
 11 12  1  0  0  0  0
 11 34  1  0  0  0  0
 12 16  1  0  0  0  0
 12 13  2  0  0  0  0
 13 14  1  0  0  0  0
 14 15  2  0  0  0  0
 14 35  1  0  0  0  0
 15 16  1  0  0  0  0
 15 36  1  0  0  0  0
 17 18  1  0  0  0  0
 17 37  1  0  0  0  0
 17 38  1  0  0  0  0
 18 19  1  0  0  0  0
 18 20  1  0  0  0  0
 18 39  1  0  0  0  0
 19 40  1  0  0  0  0
 19 41  1  0  0  0  0
 19 42  1  0  0  0  0
M  CHG  1   4   1
M  END
> <s_m_source_file>
AV-unprocessed.smi

> <i_m_source_file_index>
2032

> <i_lp_mmshare_version>
43012

> <i_f3d_flags>
0

> <s_epik_input>
W0NIM11bQ0BASF0xW0NIMl1OKFtDSDJdW0NASF0oTzEpW0NIM10pW0NASF0oW0NIM10pW0NIMl1bTkhdQyg9TylbTkhdYzJuW2NIXVtjSF1zMg==

> <s_epik_cmdline>
J2VwaWtfcHl0aG9uJywgJy1waCcsICc3LjAnLCAnLXRuJywgJzgnLCAnLW1hJywgJzIwMCcsICctbWV0YWxfYmluZGluZycsICctaW1hZScsICc8aW5maWxlLm1hZT4nLCAnLW9tYWUnLCAnPG91dGZpbGUubWFlPic=

> <r_lp_tautomer_probability>
0.999

> <r_epik_Ionization_Penalty>
0.695838

> <r_epik_Ionization_Penalty_Charging>
0.695697

> <r_epik_Ionization_Penalty_Neutral>
0.000141198

> <r_epik_State_Penalty>
0.717972

> <r_epik_Charging_Adjusted_Penalty>
1.41367

> <i_epik_Tot_Q>
1

> <i_epik_Tot_abs_Q>
1

> <r_epik_Metal_State_Penalty>
0.756405

> <b_epik_Metal_Only>
0

> <s_lp_Force_Field>
OPLS_2005

> <r_lp_Energy>
16.7575

> <b_lp_Chiralities_Consistent>
1

> <s_lp_Variant>
AV-unprocessed.smi:2032-11

> <Gold.Version>
5.8.1

> <Gold.Id.Protein>
6NUR|6NUR_protein|mol2

> <Gold.PLP.Fitness>
43.8933

> <Gold.PLP.PLP>
-29.9051

> <Gold.PLP.part.hbond>
-3.6186

> <Gold.PLP.part.metal>
0.0000

> <Gold.PLP.part.buried>
-1.5381

> <Gold.PLP.part.nonpolar>
-25.3615

> <Gold.PLP.part.repulsive>
0.2345

> <Gold.PLP.ligand.clash>
0.0000

> <Gold.PLP.ligand.torsion>
0.5224

> <Gold.PLP.Chemscore.Hbond>
4.0000

> <Gold.PLP.Chemscore.CHOScore>
0.9939

> <Gold.PLP.Chemscore.Metal>
0.0000

> <Gold.Chemscore.Hbonds>
donor molecule, donor type, donor heavy atom, donor atom, acceptor molecule, acceptor atom, score
      L1  H     4    43       P1  7948  2.00
      L1  H     8    33       P1 10175  1.00
      L1  H    11    34       P1 10175  1.00
      L1  C    14    35       P1 11000  0.97

> <Gold.PLP.Chemscore.Internal.Correction>
0.0512

> <Gold.Rescore>
     Score         DG    S(hbond)    S(metal)    S(lipo)     H(rot)  DE(clash)    DE(int)     intcor
     17.25     -19.03       2.94        0.00      67.03       1.61       0.02       1.76       ----

> <Gold.Chemscore.Fitness>
17.2516

> <Gold.Chemscore.DG>
-19.0298

> <Gold.Chemscore.ZeroCoef>
-5.4800

> <Gold.Chemscore.Hbond>
2.9436

> <Gold.Chemscore.Metal>
0.0000

> <Gold.Chemscore.Lipo>
67.0271

> <Gold.Chemscore.Internal_Hbond>
0.0000

> <Gold.Chemscore.DEClash>
0.0174

> <Gold.Chemscore.DEInternal>
1.7608

> <Gold.Chemscore.Rot>
1.6110

> <Gold.Chemscore.Internal.Correction>
   9.000000E+99

> <Gold.Chemscore.Hbonds>
donor molecule, donor type, donor heavy atom, donor atom, acceptor molecule, acceptor atom, score
      L1  H     4    43       P1  7948  0.99
      L1  H     8    33       P1 10175  0.95
      L1  H    11    34       P1 10175  0.95

> <Gold.Chemscore.Hbond.Weighted>
-9.8317

> <Gold.Chemscore.Metal.Weighted>
-0.0000

> <Gold.Chemscore.Lipo.Weighted>
-7.8422

> <Gold.Chemscore.Internal_Hbond.Weighted>
0.0000

> <Gold.Chemscore.DEClash.Weighted>
0.0174

> <Gold.Chemscore.DEInternal.Weighted>
1.7608

> <Gold.Chemscore.Rot.Weighted>
4.1242

> <Gold.Chemscore.Internal.Correction.Weighted>
   9.000000E+99

> <Gold.Protein.RotatedTorsions>
[ 6907 6896 6895 6894 ] final   42.72 input  -60.11 | X-H torsion
[ 7974 7965 7964 7962 ] final  -88.39 input  175.53 | X-H torsion
[ 8008 7997 7996 7995 ] final -126.55 input   59.86 | X-H torsion
[ 10167 10162 10161 10158 ] final  174.12 input  -65.29 | X-H torsion
[ 10718 10713 10712 10709 ] final  129.20 input   66.30 | X-H torsion
[ 10763 10752 10751 10750 ] final  -52.21 input  -60.55 | X-H torsion
[ 11005 11000 10999 10996 ] final -157.40 input  -57.11 | X-H torsion

> <Gold.Protein.ActiveResidues>
 VAL166  LYS551  ARG553  GLY616  TRP617  ASP618  TYR619  PRO620  LYS621  CYS622 
 ASP623  PHE694  ASN695  SER759  ASP760  ASP761  ALA762  ILE779  LEU786  VAL792 
 PHE793  MET794  SER795  GLU796  ALA797  LYS798  CYS799  TRP800  GLU811  SER814 

> <Gold.Protein.RotatedAtoms>
  152.2114  134.8498  160.0496 H   0  0  0  0  0  0  0  0  0  0  0  0  # atno 6907 bound_to 6896
  151.9315  133.3607  159.3941 H   0  0  0  0  0  0  0  0  0  0  0  0  # atno 6908 bound_to 6896
  150.6977  134.4457  159.5357 H   0  0  0  0  0  0  0  0  0  0  0  0  # atno 6909 bound_to 6896
  145.4538  140.9561  143.2008 H   0  0  0  0  0  0  0  0  0  0  0  0  # atno 7974 bound_to 7965
  155.2316  140.0425  157.2963 H   0  0  0  0  0  0  0  0  0  0  0  0  # atno 8008 bound_to 7997
  154.5885  140.2420  155.7924 H   0  0  0  0  0  0  0  0  0  0  0  0  # atno 8009 bound_to 7997
  156.2243  140.2960  156.0036 H   0  0  0  0  0  0  0  0  0  0  0  0  # atno 8010 bound_to 7997
  139.5131  144.3182  152.0227 H   0  0  0  0  0  0  0  0  0  0  0  0  # atno 10167 bound_to 10162
  157.5176  131.1098  150.9201 H   0  0  0  0  0  0  0  0  0  0  0  0  # atno 10718 bound_to 10713
  154.1391  135.6508  153.4938 H   0  0  0  0  0  0  0  0  0  0  0  0  # atno 10763 bound_to 10752
  153.0171  135.5311  154.6923 H   0  0  0  0  0  0  0  0  0  0  0  0  # atno 10764 bound_to 10752
  154.6179  135.2961  155.0329 H   0  0  0  0  0  0  0  0  0  0  0  0  # atno 10765 bound_to 10752
  140.6651  134.4308  157.5233 H   0  0  0  0  0  0  0  0  0  0  0  0  # atno 11005 bound_to 11000
  144.8045  139.6077  143.7057 LP  0  0  0  0  0  0  0  0  0  0  0  0  # atno 17320 bound_to 7965
  146.2489  139.6158  142.9440 LP  0  0  0  0  0  0  0  0  0  0  0  0  # atno 17321 bound_to 7965
  140.2625  144.4052  150.6180 LP  0  0  0  0  0  0  0  0  0  0  0  0  # atno 17342 bound_to 10162
  140.6147  143.2171  151.6816 LP  0  0  0  0  0  0  0  0  0  0  0  0  # atno 17343 bound_to 10162
  156.9822  130.5531  149.5297 LP  0  0  0  0  0  0  0  0  0  0  0  0  # atno 17370 bound_to 10713
  156.0331  130.5421  150.8585 LP  0  0  0  0  0  0  0  0  0  0  0  0  # atno 17371 bound_to 10713
  139.9000  134.8578  156.1937 LP  0  0  0  0  0  0  0  0  0  0  0  0  # atno 17394 bound_to 11000
  141.0436  133.6925  156.1642 LP  0  0  0  0  0  0  0  0  0  0  0  0  # atno 17395 bound_to 11000

$$$$
