AV-unprocessed.smi:1820|AV-procd|sdf|7384|dock1
  -GOLD-   22720 9 53D 1   1.00000     0.00000
 Structure written by MMmdl.
 34 35  0  0  0  0  0  0  0  0  1 V2000
  144.4526  136.4134  152.1616 O   0  0  0  0  0  0  0  0  0  0  0  0
  145.6735  136.2606  152.1353 C   0  0  0  0  0  0  0  0  0  0  0  0
  146.5422  137.1638  152.6106 N   0  0  0  0  0  0  0  0  0  0  0  0
  146.1804  138.4268  153.2488 C   0  0  0  0  0  0  0  0  0  0  0  0
  147.4025  139.3400  153.5274 C   0  0  0  0  0  0  0  0  0  0  0  0
  148.5361  138.7691  152.9033 O   0  0  0  0  0  0  0  0  0  0  0  0
  147.2178  140.8096  153.1160 C   0  0  0  0  0  0  0  0  0  0  0  0
  146.4489  141.4483  154.2769 C   0  0  0  0  0  0  0  0  0  0  0  0
  146.7963  140.6174  155.5223 C   0  0  0  0  0  0  0  0  0  0  0  0
  147.6741  139.4562  155.0345 C   0  0  0  0  0  0  0  0  0  0  0  0
  146.3162  135.1967  151.6225 N   0  0  0  0  0  0  0  0  0  0  0  0
  145.7725  134.0266  151.0254 C   0  0  0  0  0  0  0  0  0  0  0  0
  144.3710  133.9562  150.8835 C   0  0  0  0  0  0  0  0  0  0  0  0
  143.8048  132.8141  150.2831 C   0  0  0  0  0  0  0  0  0  0  0  0
  144.5366  131.7772  149.8247 N   0  0  0  0  0  0  0  0  0  0  0  0
  145.8786  131.8517  149.9485 C   0  0  0  0  0  0  0  0  0  0  0  0
  146.5453  132.9476  150.5321 C   0  0  0  0  0  0  0  0  0  0  0  0
  147.5277  136.9567  152.5436 H   0  0  0  0  0  0  0  0  0  0  0  0
  145.4976  138.9273  152.5617 H   0  0  0  0  0  0  0  0  0  0  0  0
  145.6051  138.2587  154.1610 H   0  0  0  0  0  0  0  0  0  0  0  0
  148.6973  139.2279  152.0933 H   0  0  0  0  0  0  0  0  0  0  0  0
  148.1937  141.2924  153.0411 H   0  0  0  0  0  0  0  0  0  0  0  0
  146.7241  140.9492  152.1544 H   0  0  0  0  0  0  0  0  0  0  0  0
  146.7047  142.5014  154.3987 H   0  0  0  0  0  0  0  0  0  0  0  0
  145.3763  141.3930  154.0868 H   0  0  0  0  0  0  0  0  0  0  0  0
  147.3158  141.2124  156.2741 H   0  0  0  0  0  0  0  0  0  0  0  0
  145.8830  140.2380  155.9821 H   0  0  0  0  0  0  0  0  0  0  0  0
  147.4833  138.5289  155.5761 H   0  0  0  0  0  0  0  0  0  0  0  0
  148.7199  139.7179  155.2060 H   0  0  0  0  0  0  0  0  0  0  0  0
  147.3238  135.2545  151.6129 H   0  0  0  0  0  0  0  0  0  0  0  0
  143.7362  134.7582  151.2309 H   0  0  0  0  0  0  0  0  0  0  0  0
  142.7342  132.7329  150.1670 H   0  0  0  0  0  0  0  0  0  0  0  0
  146.4406  131.0131  149.5649 H   0  0  0  0  0  0  0  0  0  0  0  0
  147.6233  132.9401  150.5767 H   0  0  0  0  0  0  0  0  0  0  0  0
  1  2  2  0  0  0  0
  2  3  1  0  0  0  0
  2 11  1  0  0  0  0
  3  4  1  0  0  0  0
  3 18  1  0  0  0  0
  4  5  1  0  0  0  0
  4 19  1  0  0  0  0
  4 20  1  0  0  0  0
  5 10  1  0  0  0  0
  5  6  1  0  0  0  0
  5  7  1  0  0  0  0
  6 21  1  0  0  0  0
  7  8  1  0  0  0  0
  7 22  1  0  0  0  0
  7 23  1  0  0  0  0
  8  9  1  0  0  0  0
  8 24  1  0  0  0  0
  8 25  1  0  0  0  0
  9 10  1  0  0  0  0
  9 26  1  0  0  0  0
  9 27  1  0  0  0  0
 10 28  1  0  0  0  0
 10 29  1  0  0  0  0
 11 12  1  0  0  0  0
 11 30  1  0  0  0  0
 12 17  1  0  0  0  0
 12 13  2  0  0  0  0
 13 14  1  0  0  0  0
 13 31  1  0  0  0  0
 14 15  2  0  0  0  0
 14 32  1  0  0  0  0
 15 16  1  0  0  0  0
 16 17  2  0  0  0  0
 16 33  1  0  0  0  0
 17 34  1  0  0  0  0
M  END
> <s_m_source_file>
AV-unprocessed.smi

> <i_m_source_file_index>
1820

> <i_lp_mmshare_version>
43012

> <i_f3d_flags>
0

> <s_epik_input>
W2NIXTFbY0hdbltjSF1bY0hdYzFbTkhdQyg9TylbTkhdW0NIMl1DMihbT0hdKVtDSDJdW0NIMl1bQ0gyXVtDSDJdMg==

> <s_epik_cmdline>
J2VwaWtfcHl0aG9uJywgJy1waCcsICc3LjAnLCAnLXRuJywgJzgnLCAnLW1hJywgJzIwMCcsICctbWV0YWxfYmluZGluZycsICctaW1hZScsICc8aW5maWxlLm1hZT4nLCAnLW9tYWUnLCAnPG91dGZpbGUubWFlPic=

> <r_epik_Ionization_Penalty>
0.127626

> <r_epik_Ionization_Penalty_Charging>
0

> <r_epik_Ionization_Penalty_Neutral>
0.127626

> <r_epik_State_Penalty>
0.11702

> <r_epik_Charging_Adjusted_Penalty>
0.11702

> <i_epik_Tot_Q>
0

> <i_epik_Tot_abs_Q>
0

> <r_epik_Metal_State_Penalty>
0.0961027

> <b_epik_Metal_Only>
0

> <s_lp_Force_Field>
OPLS_2005

> <r_lp_Energy>
30.5055

> <b_lp_Chiralities_Consistent>
1

> <s_lp_Variant>
AV-unprocessed.smi:1820-1

> <Gold.Version>
5.8.1

> <Gold.Id.Protein>
6NUR|6NUR_protein|mol2

> <Gold.PLP.Fitness>
41.7118

> <Gold.PLP.PLP>
-29.8424

> <Gold.PLP.part.hbond>
-4.5092

> <Gold.PLP.part.metal>
0.0000

> <Gold.PLP.part.buried>
-4.6836

> <Gold.PLP.part.nonpolar>
-21.6172

> <Gold.PLP.part.repulsive>
0.4287

> <Gold.PLP.ligand.clash>
0.0000

> <Gold.PLP.ligand.torsion>
1.0714

> <Gold.PLP.Chemscore.Hbond>
3.0915

> <Gold.PLP.Chemscore.CHOScore>
1.5742

> <Gold.PLP.Chemscore.Metal>
0.0000

> <Gold.Chemscore.Hbonds>
donor molecule, donor type, donor heavy atom, donor atom, acceptor molecule, acceptor atom, score
      L1  H     3    18       P1  7948  1.00
      L1  H     6    21       P1  7957  0.98
      L1  H    11    30       P1  7948  1.00
      P1  H 10785 10796       L1    15  0.09
      L1  C    14    32       P1 10186  1.00
      L1  C    16    33       P1 10747  0.60

> <Gold.PLP.Chemscore.Internal.Correction>
0.0152

> <Gold.Rescore>
     Score         DG    S(hbond)    S(metal)    S(lipo)     H(rot)  DE(clash)    DE(int)     intcor
     17.13     -19.76       3.12        0.00      71.40       1.76       0.09       2.54       ----

> <Gold.Chemscore.Fitness>
17.1269

> <Gold.Chemscore.DG>
-19.7564

> <Gold.Chemscore.ZeroCoef>
-5.4800

> <Gold.Chemscore.Hbond>
3.1194

> <Gold.Chemscore.Metal>
0.0000

> <Gold.Chemscore.Lipo>
71.4017

> <Gold.Chemscore.Internal_Hbond>
0.0000

> <Gold.Chemscore.DEClash>
0.0899

> <Gold.Chemscore.DEInternal>
2.5396

> <Gold.Chemscore.Rot>
1.7564

> <Gold.Chemscore.Internal.Correction>
   9.000000E+99

> <Gold.Chemscore.Hbonds>
donor molecule, donor type, donor heavy atom, donor atom, acceptor molecule, acceptor atom, score
      L1  H     3    18       P1  7948  0.98
      L1  H     6    21       P1  7957  0.88
      L1  H    11    30       P1  7948  0.90
      P1  H 10785 10796       L1    15  0.09

> <Gold.Chemscore.Hbond.Weighted>
-10.4187

> <Gold.Chemscore.Metal.Weighted>
-0.0000

> <Gold.Chemscore.Lipo.Weighted>
-8.3540

> <Gold.Chemscore.Internal_Hbond.Weighted>
0.0000

> <Gold.Chemscore.DEClash.Weighted>
0.0899

> <Gold.Chemscore.DEInternal.Weighted>
2.5396

> <Gold.Chemscore.Rot.Weighted>
4.4963

> <Gold.Chemscore.Internal.Correction.Weighted>
   9.000000E+99

> <Gold.Protein.RotatedTorsions>
[ 6907 6896 6895 6894 ] final  -53.55 input  -60.11 | X-H torsion
[ 7974 7965 7964 7962 ] final   53.37 input  175.53 | X-H torsion
[ 8008 7997 7996 7995 ] final  137.96 input   59.86 | X-H torsion
[ 10167 10162 10161 10158 ] final   16.19 input  -65.29 | X-H torsion
[ 10718 10713 10712 10709 ] final -138.05 input   66.30 | X-H torsion
[ 10763 10752 10751 10750 ] final -140.25 input  -60.55 | X-H torsion
[ 11005 11000 10999 10996 ] final   31.83 input  -57.11 | X-H torsion

> <Gold.Protein.ActiveResidues>
 VAL166  LYS551  ARG553  GLY616  TRP617  ASP618  TYR619  PRO620  LYS621  CYS622 
 ASP623  PHE694  ASN695  SER759  ASP760  ASP761  ALA762  ILE779  LEU786  VAL792 
 PHE793  MET794  SER795  GLU796  ALA797  LYS798  CYS799  TRP800  GLU811  SER814 

> <Gold.Protein.RotatedAtoms>
  150.8417  134.7711  159.6937 H   0  0  0  0  0  0  0  0  0  0  0  0  # atno 6907 bound_to 6896
  152.4503  134.5405  159.9847 H   0  0  0  0  0  0  0  0  0  0  0  0  # atno 6908 bound_to 6896
  151.5544  133.3375  159.2995 H   0  0  0  0  0  0  0  0  0  0  0  0  # atno 6909 bound_to 6896
  145.9718  139.4157  143.0185 H   0  0  0  0  0  0  0  0  0  0  0  0  # atno 7974 bound_to 7965
  156.3000  140.2406  156.3995 H   0  0  0  0  0  0  0  0  0  0  0  0  # atno 8008 bound_to 7997
  154.8540  140.0423  157.1642 H   0  0  0  0  0  0  0  0  0  0  0  0  # atno 8009 bound_to 7997
  154.8968  140.2971  155.5343 H   0  0  0  0  0  0  0  0  0  0  0  0  # atno 8010 bound_to 7997
  140.5815  143.8972  150.6794 H   0  0  0  0  0  0  0  0  0  0  0  0  # atno 10167 bound_to 10162
  156.2950  130.7396  151.1433 H   0  0  0  0  0  0  0  0  0  0  0  0  # atno 10718 bound_to 10713
  154.8584  135.3559  154.5677 H   0  0  0  0  0  0  0  0  0  0  0  0  # atno 10763 bound_to 10752
  153.6290  135.7003  153.5287 H   0  0  0  0  0  0  0  0  0  0  0  0  # atno 10764 bound_to 10752
  153.3065  135.4191  155.1258 H   0  0  0  0  0  0  0  0  0  0  0  0  # atno 10765 bound_to 10752
  140.2798  134.2986  155.7804 H   0  0  0  0  0  0  0  0  0  0  0  0  # atno 11005 bound_to 11000
  145.7895  140.9821  143.1056 LP  0  0  0  0  0  0  0  0  0  0  0  0  # atno 17320 bound_to 7965
  144.6839  139.9664  143.7481 LP  0  0  0  0  0  0  0  0  0  0  0  0  # atno 17321 bound_to 7965
  140.2472  143.3620  152.1436 LP  0  0  0  0  0  0  0  0  0  0  0  0  # atno 17342 bound_to 10162
  139.5172  144.6989  151.5551 LP  0  0  0  0  0  0  0  0  0  0  0  0  # atno 17343 bound_to 10162
  157.7353  131.0574  150.5478 LP  0  0  0  0  0  0  0  0  0  0  0  0  # atno 17370 bound_to 10713
  156.5599  130.4253  149.6068 LP  0  0  0  0  0  0  0  0  0  0  0  0  # atno 17371 bound_to 10713
  141.2164  133.7518  156.9463 LP  0  0  0  0  0  0  0  0  0  0  0  0  # atno 17394 bound_to 11000
  140.1294  134.9366  157.2316 LP  0  0  0  0  0  0  0  0  0  0  0  0  # atno 17395 bound_to 11000

$$$$
