AV-unprocessed.smi:1196|AV-procd|sdf|4999|dock10
  -GOLD-   22720 4 03D 1   1.00000     0.00000
 Structure written by MMmdl.
 37 38  0  0  0  0  0  0  0  0  1 V2000
  153.1012  139.6565  159.0132 C   0  0  0  0  0  0  0  0  0  0  0  0
  152.0602  140.7861  159.0486 C   0  0  1  0  0  0  0  0  0  0  0  0
  152.5788  142.0084  159.8307 C   0  0  0  0  0  0  0  0  0  0  0  0
  151.8317  143.2156  159.5232 N   0  0  0  0  0  0  0  0  0  0  0  0
  152.3183  144.4797  159.2651 C   0  0  0  0  0  0  0  0  0  0  0  0
  151.2430  145.2914  159.0439 C   0  0  0  0  0  0  0  0  0  0  0  0
  150.1266  144.4215  159.1916 C   0  0  0  0  0  0  0  0  0  0  0  0
  150.4820  143.1793  159.4767 N   0  0  0  0  0  0  0  0  0  0  0  0
  151.7028  141.1790  157.6871 N   0  0  0  0  0  0  0  0  0  0  0  0
  150.5463  140.8955  157.0697 C   0  0  0  0  0  0  0  0  0  0  0  0
  149.6551  140.2174  157.5818 O   0  0  0  0  0  0  0  0  0  0  0  0
  150.3841  141.4713  155.6596 C   0  0  0  0  0  0  0  0  0  0  0  0
  149.2700  140.7877  154.8430 C   0  0  0  0  0  0  0  0  0  0  0  0
  147.8558  141.2070  155.2886 C   0  0  1  0  0  0  0  0  0  0  0  0
  147.4724  142.5149  154.7846 N   0  0  0  0  0  0  0  0  0  0  0  0
  146.3730  142.4675  154.0205 C   0  0  0  0  0  0  0  0  0  0  0  0
  145.8321  143.4257  153.4741 O   0  0  0  0  0  0  0  0  0  0  0  0
  145.9688  141.1940  153.9571 N   0  0  0  0  0  0  0  0  0  0  0  0
  146.7611  140.3740  154.6454 C   0  0  0  0  0  0  0  0  0  0  0  0
  146.6481  139.1547  154.7553 O   0  0  0  0  0  0  0  0  0  0  0  0
  153.3648  139.3364  160.0217 H   0  0  0  0  0  0  0  0  0  0  0  0
  154.0175  139.9758  158.5157 H   0  0  0  0  0  0  0  0  0  0  0  0
  152.7196  138.7835  158.4828 H   0  0  0  0  0  0  0  0  0  0  0  0
  151.1715  140.4121  159.5604 H   0  0  0  0  0  0  0  0  0  0  0  0
  152.4956  141.8291  160.9033 H   0  0  0  0  0  0  0  0  0  0  0  0
  153.6372  142.1788  159.6261 H   0  0  0  0  0  0  0  0  0  0  0  0
  153.3769  144.6942  159.2636 H   0  0  0  0  0  0  0  0  0  0  0  0
  151.2526  146.3465  158.8136 H   0  0  0  0  0  0  0  0  0  0  0  0
  149.0759  144.6538  159.1007 H   0  0  0  0  0  0  0  0  0  0  0  0
  152.3762  141.7435  157.1895 H   0  0  0  0  0  0  0  0  0  0  0  0
  150.1688  142.5379  155.7407 H   0  0  0  0  0  0  0  0  0  0  0  0
  151.3402  141.3819  155.1429 H   0  0  0  0  0  0  0  0  0  0  0  0
  149.4036  141.0101  153.7825 H   0  0  0  0  0  0  0  0  0  0  0  0
  149.3649  139.7048  154.9413 H   0  0  0  0  0  0  0  0  0  0  0  0
  147.7559  141.1809  156.3744 H   0  0  0  0  0  0  0  0  0  0  0  0
  147.9851  143.3582  154.9980 H   0  0  0  0  0  0  0  0  0  0  0  0
  145.1597  140.8876  153.4372 H   0  0  0  0  0  0  0  0  0  0  0  0
  1  2  1  0  0  0  0
  1 21  1  0  0  0  0
  1 22  1  0  0  0  0
  1 23  1  0  0  0  0
  2  3  1  0  0  0  0
  2  9  1  0  0  0  0
  2 24  1  0  0  0  0
  3  4  1  0  0  0  0
  3 25  1  0  0  0  0
  3 26  1  0  0  0  0
  4  8  1  0  0  0  0
  4  5  1  0  0  0  0
  5  6  2  0  0  0  0
  5 27  1  0  0  0  0
  6  7  1  0  0  0  0
  6 28  1  0  0  0  0
  7  8  2  0  0  0  0
  7 29  1  0  0  0  0
  9 10  1  0  0  0  0
  9 30  1  0  0  0  0
 10 11  2  0  0  0  0
 10 12  1  0  0  0  0
 12 13  1  0  0  0  0
 12 31  1  0  0  0  0
 12 32  1  0  0  0  0
 13 14  1  0  0  0  0
 13 33  1  0  0  0  0
 13 34  1  0  0  0  0
 14 19  1  0  0  0  0
 14 15  1  0  0  0  0
 14 35  1  0  0  0  0
 15 16  1  0  0  0  0
 15 36  1  0  0  0  0
 16 17  2  0  0  0  0
 16 18  1  0  0  0  0
 18 19  1  0  0  0  0
 18 37  1  0  0  0  0
 19 20  2  0  0  0  0
M  END
> <s_m_source_file>
AV-unprocessed.smi

> <i_m_source_file_index>
1196

> <i_lp_mmshare_version>
43012

> <i_f3d_flags>
0

> <s_epik_input>
bjFbY0hdW2NIXVtjSF1uMVtDSDJdW0NAQEhdKFtDSDNdKVtOSF1DKD1PKVtDSDJdW0NIMl1bQ0BASF0yW05IXUMoPU8pW05IXUMyPU8=

> <s_epik_cmdline>
J2VwaWtfcHl0aG9uJywgJy1waCcsICc3LjAnLCAnLXRuJywgJzgnLCAnLW1hJywgJzIwMCcsICctbWV0YWxfYmluZGluZycsICctaW1hZScsICc8aW5maWxlLm1hZT4nLCAnLW9tYWUnLCAnPG91dGZpbGUubWFlPic=

> <r_lp_tautomer_probability>
1

> <r_epik_Ionization_Penalty>
0.00815973

> <r_epik_Ionization_Penalty_Charging>
0

> <r_epik_Ionization_Penalty_Neutral>
0.00815973

> <r_epik_State_Penalty>
0.00583796

> <r_epik_Charging_Adjusted_Penalty>
0.00583796

> <i_epik_Tot_Q>
0

> <i_epik_Tot_abs_Q>
0

> <r_epik_Metal_State_Penalty>
0.409204

> <b_epik_Metal_Only>
0

> <s_lp_Force_Field>
OPLS_2005

> <r_lp_Energy>
17.2443

> <b_lp_Chiralities_Consistent>
1

> <s_lp_Variant>
AV-unprocessed.smi:1196-4

> <Gold.Version>
5.8.1

> <Gold.Id.Protein>
6NUR|6NUR_protein|mol2

> <Gold.PLP.Fitness>
46.1243

> <Gold.PLP.PLP>
-38.8784

> <Gold.PLP.part.hbond>
-2.8365

> <Gold.PLP.part.metal>
0.0000

> <Gold.PLP.part.buried>
-5.6596

> <Gold.PLP.part.nonpolar>
-30.2977

> <Gold.PLP.part.repulsive>
0.5578

> <Gold.PLP.ligand.clash>
0.0000

> <Gold.PLP.ligand.torsion>
0.8881

> <Gold.PLP.Chemscore.Hbond>
2.0000

> <Gold.PLP.Chemscore.CHOScore>
0.9868

> <Gold.PLP.Chemscore.Metal>
0.0000

> <Gold.Chemscore.Hbonds>
donor molecule, donor type, donor heavy atom, donor atom, acceptor molecule, acceptor atom, score
      L1  H    15    36       P1  8028  1.00
      L1  H    18    37       P1 10175  1.00
      L1  C     7    29       P1  8029  0.97

> <Gold.PLP.Chemscore.Internal.Correction>
0.0617

> <Gold.Rescore>
     Score         DG    S(hbond)    S(metal)    S(lipo)     H(rot)  DE(clash)    DE(int)     intcor
     12.59     -13.43       1.90        0.00      78.37       2.96       0.02       0.82       ----

> <Gold.Chemscore.Fitness>
12.5876

> <Gold.Chemscore.DG>
-13.4337

> <Gold.Chemscore.ZeroCoef>
-5.4800

> <Gold.Chemscore.Hbond>
1.9028

> <Gold.Chemscore.Metal>
0.0000

> <Gold.Chemscore.Lipo>
78.3748

> <Gold.Chemscore.Internal_Hbond>
0.0000

> <Gold.Chemscore.DEClash>
0.0234

> <Gold.Chemscore.DEInternal>
0.8227

> <Gold.Chemscore.Rot>
2.9575

> <Gold.Chemscore.Internal.Correction>
   9.000000E+99

> <Gold.Chemscore.Hbonds>
donor molecule, donor type, donor heavy atom, donor atom, acceptor molecule, acceptor atom, score
      L1  H    15    36       P1  8028  0.78
      L1  H    18    37       P1 10175  0.74

> <Gold.Chemscore.Hbond.Weighted>
-6.3552

> <Gold.Chemscore.Metal.Weighted>
-0.0000

> <Gold.Chemscore.Lipo.Weighted>
-9.1699

> <Gold.Chemscore.Internal_Hbond.Weighted>
0.0000

> <Gold.Chemscore.DEClash.Weighted>
0.0234

> <Gold.Chemscore.DEInternal.Weighted>
0.8227

> <Gold.Chemscore.Rot.Weighted>
7.5713

> <Gold.Chemscore.Internal.Correction.Weighted>
   9.000000E+99

> <Gold.Protein.RotatedTorsions>
[ 6907 6896 6895 6894 ] final  -39.54 input  -60.11 | X-H torsion
[ 7974 7965 7964 7962 ] final  117.70 input  175.53 | X-H torsion
[ 8008 7997 7996 7995 ] final  178.22 input   59.86 | X-H torsion
[ 10167 10162 10161 10158 ] final  -39.85 input  -65.29 | X-H torsion
[ 10718 10713 10712 10709 ] final  114.81 input   66.30 | X-H torsion
[ 10763 10752 10751 10750 ] final  -68.33 input  -60.55 | X-H torsion
[ 11005 11000 10999 10996 ] final  130.97 input  -57.11 | X-H torsion

> <Gold.Protein.ActiveResidues>
 VAL166  LYS551  ARG553  GLY616  TRP617  ASP618  TYR619  PRO620  LYS621  CYS622 
 ASP623  PHE694  ASN695  SER759  ASP760  ASP761  ALA762  ILE779  LEU786  VAL792 
 PHE793  MET794  SER795  GLU796  ALA797  LYS798  CYS799  TRP800  GLU811  SER814 

> <Gold.Protein.RotatedAtoms>
  150.9891  134.9230  159.7888 H   0  0  0  0  0  0  0  0  0  0  0  0  # atno 6907 bound_to 6896
  152.5245  134.3306  159.9191 H   0  0  0  0  0  0  0  0  0  0  0  0  # atno 6908 bound_to 6896
  151.3312  133.3958  159.2697 H   0  0  0  0  0  0  0  0  0  0  0  0  # atno 6909 bound_to 6896
  145.1642  139.3138  143.4501 H   0  0  0  0  0  0  0  0  0  0  0  0  # atno 7974 bound_to 7965
  156.0571  140.1339  156.9984 H   0  0  0  0  0  0  0  0  0  0  0  0  # atno 8008 bound_to 7997
  154.4463  140.0999  156.6532 H   0  0  0  0  0  0  0  0  0  0  0  0  # atno 8009 bound_to 7997
  155.5435  140.3461  155.4454 H   0  0  0  0  0  0  0  0  0  0  0  0  # atno 8010 bound_to 7997
  140.7052  143.3189  151.2841 H   0  0  0  0  0  0  0  0  0  0  0  0  # atno 10167 bound_to 10162
  157.6259  131.1004  150.7240 H   0  0  0  0  0  0  0  0  0  0  0  0  # atno 10718 bound_to 10713
  154.3875  135.6060  153.5824 H   0  0  0  0  0  0  0  0  0  0  0  0  # atno 10763 bound_to 10752
  152.9787  135.5875  154.4337 H   0  0  0  0  0  0  0  0  0  0  0  0  # atno 10764 bound_to 10752
  154.4116  135.2844  155.2011 H   0  0  0  0  0  0  0  0  0  0  0  0  # atno 10765 bound_to 10752
  139.9703  134.9579  156.9371 H   0  0  0  0  0  0  0  0  0  0  0  0  # atno 11005 bound_to 11000
  146.3478  140.1763  142.8589 LP  0  0  0  0  0  0  0  0  0  0  0  0  # atno 17320 bound_to 7965
  145.0300  140.8863  143.5115 LP  0  0  0  0  0  0  0  0  0  0  0  0  # atno 17321 bound_to 7965
  139.6637  144.0144  152.2709 LP  0  0  0  0  0  0  0  0  0  0  0  0  # atno 17342 bound_to 10162
  139.9720  144.6487  150.7981 LP  0  0  0  0  0  0  0  0  0  0  0  0  # atno 17343 bound_to 10162
  156.7588  130.4792  149.5441 LP  0  0  0  0  0  0  0  0  0  0  0  0  # atno 17370 bound_to 10713
  156.1431  130.6258  151.0494 LP  0  0  0  0  0  0  0  0  0  0  0  0  # atno 17371 bound_to 10713
  140.5308  134.0815  155.7315 LP  0  0  0  0  0  0  0  0  0  0  0  0  # atno 17394 bound_to 11000
  141.1382  133.9184  157.2385 LP  0  0  0  0  0  0  0  0  0  0  0  0  # atno 17395 bound_to 11000

$$$$
