AV-unprocessed.smi:1674|AV-procd|sdf|6713|dock2
  -GOLD-   22720 7453D 1   1.00000     0.00000
 Structure written by MMmdl.
 47 48  0  0  0  0  0  0  0  0  1 V2000
  146.7177  135.6440  156.1611 C   0  0  0  0  0  0  0  0  0  0  0  0
  147.9563  136.4765  156.3540 C   0  0  0  0  0  0  0  0  0  0  0  0
  148.2403  137.3182  155.4156 N   0  0  0  0  0  0  0  0  0  0  0  0
  149.3598  138.1236  155.4833 N   0  0  0  0  0  0  0  0  0  0  0  0
  149.5363  138.9735  154.2952 C   0  0  0  0  0  0  0  0  0  0  0  0
  148.9576  140.4070  154.4427 C   0  0  2  0  0  0  0  0  0  0  0  0
  149.2247  141.1379  153.2616 O   0  0  0  0  0  0  0  0  0  0  0  0
  149.3677  141.1452  155.7137 C   0  0  0  0  0  0  0  0  0  0  0  0
  150.7178  141.5087  155.9030 C   0  0  0  0  0  0  0  0  0  0  0  0
  151.1101  142.2158  157.0555 C   0  0  0  0  0  0  0  0  0  0  0  0
  150.1553  142.5645  158.0330 C   0  0  0  0  0  0  0  0  0  0  0  0
  150.5745  143.3289  159.2771 C   0  0  0  0  0  0  0  0  0  0  0  0
  152.0958  143.5678  159.3710 C   0  0  0  0  0  0  0  0  0  0  0  0
  152.5082  143.8990  160.8130 C   0  0  0  0  0  0  0  0  0  0  0  0
  152.5810  144.6580  158.4003 C   0  0  0  0  0  0  0  0  0  0  0  0
  148.8053  142.2024  157.8474 C   0  0  0  0  0  0  0  0  0  0  0  0
  148.4133  141.4950  156.6952 C   0  0  0  0  0  0  0  0  0  0  0  0
  150.2439  138.1358  156.5234 C   0  0  0  0  0  0  0  0  0  0  0  0
  151.2290  138.8749  156.5519 O   0  0  0  0  0  0  0  0  0  0  0  0
  149.9164  137.1794  157.5832 C   0  0  0  0  0  0  0  0  0  0  0  0
  150.8285  137.1449  158.6803 C   0  0  0  0  0  0  0  0  0  0  0  0
  151.5770  137.0994  159.5624 N   0  0  0  0  0  0  0  0  0  0  0  0
  148.8254  136.3759  157.5216 C   0  0  0  0  0  0  0  0  0  0  0  0
  148.4441  135.3655  158.5948 C   0  0  0  0  0  0  0  0  0  0  0  0
  145.9626  135.8977  156.9051 H   0  0  0  0  0  0  0  0  0  0  0  0
  146.9438  134.5818  156.2560 H   0  0  0  0  0  0  0  0  0  0  0  0
  146.2746  135.7966  155.1756 H   0  0  0  0  0  0  0  0  0  0  0  0
  150.5886  139.0077  154.0062 H   0  0  0  0  0  0  0  0  0  0  0  0
  149.0482  138.5006  153.4418 H   0  0  0  0  0  0  0  0  0  0  0  0
  147.8706  140.3172  154.4628 H   0  0  0  0  0  0  0  0  0  0  0  0
  149.0423  140.5824  152.5191 H   0  0  0  0  0  0  0  0  0  0  0  0
  151.4566  141.2558  155.1566 H   0  0  0  0  0  0  0  0  0  0  0  0
  152.1467  142.4899  157.1859 H   0  0  0  0  0  0  0  0  0  0  0  0
  150.0442  144.2817  159.3145 H   0  0  0  0  0  0  0  0  0  0  0  0
  150.2361  142.7632  160.1463 H   0  0  0  0  0  0  0  0  0  0  0  0
  152.5992  142.6383  159.1010 H   0  0  0  0  0  0  0  0  0  0  0  0
  152.0375  144.8201  161.1583 H   0  0  0  0  0  0  0  0  0  0  0  0
  153.5879  144.0271  160.8944 H   0  0  0  0  0  0  0  0  0  0  0  0
  152.2208  143.1007  161.4980 H   0  0  0  0  0  0  0  0  0  0  0  0
  152.0881  145.6107  158.5966 H   0  0  0  0  0  0  0  0  0  0  0  0
  152.3837  144.3883  157.3626 H   0  0  0  0  0  0  0  0  0  0  0  0
  153.6561  144.8146  158.4932 H   0  0  0  0  0  0  0  0  0  0  0  0
  148.0659  142.4687  158.5884 H   0  0  0  0  0  0  0  0  0  0  0  0
  147.3731  141.2359  156.5626 H   0  0  0  0  0  0  0  0  0  0  0  0
  149.0849  135.4356  159.4732 H   0  0  0  0  0  0  0  0  0  0  0  0
  148.5260  134.3501  158.2060 H   0  0  0  0  0  0  0  0  0  0  0  0
  147.4183  135.5250  158.9289 H   0  0  0  0  0  0  0  0  0  0  0  0
  1  2  1  0  0  0  0
  1 25  1  0  0  0  0
  1 26  1  0  0  0  0
  1 27  1  0  0  0  0
  2 23  1  0  0  0  0
  2  3  2  0  0  0  0
  3  4  1  0  0  0  0
  4  5  1  0  0  0  0
  4 18  1  0  0  0  0
  5  6  1  0  0  0  0
  5 28  1  0  0  0  0
  5 29  1  0  0  0  0
  6  7  1  0  0  0  0
  6  8  1  0  0  0  0
  6 30  1  0  0  0  0
  7 31  1  0  0  0  0
  8 17  1  0  0  0  0
  8  9  2  0  0  0  0
  9 10  1  0  0  0  0
  9 32  1  0  0  0  0
 10 11  2  0  0  0  0
 10 33  1  0  0  0  0
 11 12  1  0  0  0  0
 11 16  1  0  0  0  0
 12 13  1  0  0  0  0
 12 34  1  0  0  0  0
 12 35  1  0  0  0  0
 13 14  1  0  0  0  0
 13 15  1  0  0  0  0
 13 36  1  0  0  0  0
 14 37  1  0  0  0  0
 14 38  1  0  0  0  0
 14 39  1  0  0  0  0
 15 40  1  0  0  0  0
 15 41  1  0  0  0  0
 15 42  1  0  0  0  0
 16 17  2  0  0  0  0
 16 43  1  0  0  0  0
 17 44  1  0  0  0  0
 18 19  2  0  0  0  0
 18 20  1  0  0  0  0
 20 21  1  0  0  0  0
 20 23  2  0  0  0  0
 21 22  3  0  0  0  0
 23 24  1  0  0  0  0
 24 45  1  0  0  0  0
 24 46  1  0  0  0  0
 24 47  1  0  0  0  0
M  END
> <s_m_source_file>
AV-unprocessed.smi

> <i_m_source_file_index>
1674

> <i_lp_mmshare_version>
43012

> <i_f3d_flags>
0

> <s_epik_input>
TiNDYyhjMVtDSDNdKWMoPU8pbihuYzFbQ0gzXSlbQ0gyXVtDQEhdKFtPSF0pYzJbY0hdW2NIXWMoW2NIXVtjSF0yKVtDSDJdW0NIXShbQ0gzXSlbQ0gzXQ==

> <s_epik_cmdline>
J2VwaWtfcHl0aG9uJywgJy1waCcsICc3LjAnLCAnLXRuJywgJzgnLCAnLW1hJywgJzIwMCcsICctbWV0YWxfYmluZGluZycsICctaW1hZScsICc8aW5maWxlLm1hZT4nLCAnLW9tYWUnLCAnPG91dGZpbGUubWFlPic=

> <r_lp_tautomer_probability>
1

> <r_epik_Ionization_Penalty>
4.60566e-08

> <r_epik_Ionization_Penalty_Charging>
1.40848e-10

> <r_epik_Ionization_Penalty_Neutral>
4.59158e-08

> <r_epik_State_Penalty>
-0

> <r_epik_Charging_Adjusted_Penalty>
1.40848e-10

> <i_epik_Tot_Q>
0

> <i_epik_Tot_abs_Q>
0

> <r_epik_Metal_State_Penalty>
-0

> <b_epik_Metal_Only>
0

> <s_lp_Force_Field>
OPLS_2005

> <r_lp_Energy>
29.2193

> <b_lp_Chiralities_Consistent>
1

> <s_lp_Variant>
AV-unprocessed.smi:1674-1

> <Gold.Version>
5.8.1

> <Gold.Id.Protein>
6NUR|6NUR_protein|mol2

> <Gold.PLP.Fitness>
44.6665

> <Gold.PLP.PLP>
-37.5751

> <Gold.PLP.part.hbond>
-3.4004

> <Gold.PLP.part.metal>
0.0000

> <Gold.PLP.part.buried>
-5.9774

> <Gold.PLP.part.nonpolar>
-28.4083

> <Gold.PLP.part.repulsive>
0.0621

> <Gold.PLP.ligand.clash>
0.0000

> <Gold.PLP.ligand.torsion>
0.5643

> <Gold.PLP.Chemscore.Hbond>
2.6974

> <Gold.PLP.Chemscore.CHOScore>
0.0000

> <Gold.PLP.Chemscore.Metal>
0.0000

> <Gold.Chemscore.Hbonds>
donor molecule, donor type, donor heavy atom, donor atom, acceptor molecule, acceptor atom, score
      L1  H     7    31       P1  7957  0.88
      P1  H  6896  6909       L1    22  1.00
      P1  H  7989  7998       L1     7  0.01
      P1  H  8011  8017       L1     7  0.70

> <Gold.PLP.Chemscore.Internal.Correction>
0.1276

> <Gold.Rescore>
     Score         DG    S(hbond)    S(metal)    S(lipo)     H(rot)  DE(clash)    DE(int)     intcor
     17.48     -18.57       1.91        0.00     103.98       2.13       0.25       0.84       ----

> <Gold.Chemscore.Fitness>
17.4834

> <Gold.Chemscore.DG>
-18.5709

> <Gold.Chemscore.ZeroCoef>
-5.4800

> <Gold.Chemscore.Hbond>
1.9097

> <Gold.Chemscore.Metal>
0.0000

> <Gold.Chemscore.Lipo>
103.9754

> <Gold.Chemscore.Internal_Hbond>
0.0000

> <Gold.Chemscore.DEClash>
0.2511

> <Gold.Chemscore.DEInternal>
0.8364

> <Gold.Chemscore.Rot>
2.1299

> <Gold.Chemscore.Internal.Correction>
   9.000000E+99

> <Gold.Chemscore.Hbonds>
donor molecule, donor type, donor heavy atom, donor atom, acceptor molecule, acceptor atom, score
      L1  H     7    31       P1  7957  0.83
      P1  H  6896  6909       L1    22  0.29
      P1  H  8011  8017       L1     7  0.07

> <Gold.Chemscore.Hbond.Weighted>
-6.3784

> <Gold.Chemscore.Metal.Weighted>
-0.0000

> <Gold.Chemscore.Lipo.Weighted>
-12.1651

> <Gold.Chemscore.Internal_Hbond.Weighted>
0.0000

> <Gold.Chemscore.DEClash.Weighted>
0.2511

> <Gold.Chemscore.DEInternal.Weighted>
0.8364

> <Gold.Chemscore.Rot.Weighted>
5.4526

> <Gold.Chemscore.Internal.Correction.Weighted>
   9.000000E+99

> <Gold.Protein.RotatedTorsions>
[ 6907 6896 6895 6894 ] final  118.89 input  -60.11 | X-H torsion
[ 7974 7965 7964 7962 ] final    5.24 input  175.53 | X-H torsion
[ 8008 7997 7996 7995 ] final  119.34 input   59.86 | X-H torsion
[ 10167 10162 10161 10158 ] final  -37.63 input  -65.29 | X-H torsion
[ 10718 10713 10712 10709 ] final -122.21 input   66.30 | X-H torsion
[ 10763 10752 10751 10750 ] final -122.31 input  -60.55 | X-H torsion
[ 11005 11000 10999 10996 ] final  -74.77 input  -57.11 | X-H torsion

> <Gold.Protein.ActiveResidues>
 VAL166  LYS551  ARG553  GLY616  TRP617  ASP618  TYR619  PRO620  LYS621  CYS622 
 ASP623  PHE694  ASN695  SER759  ASP760  ASP761  ALA762  ILE779  LEU786  VAL792 
 PHE793  MET794  SER795  GLU796  ALA797  LYS798  CYS799  TRP800  GLU811  SER814 

> <Gold.Protein.RotatedAtoms>
  152.4511  133.7631  159.6757 H   0  0  0  0  0  0  0  0  0  0  0  0  # atno 6907 bound_to 6896
  150.8423  133.7906  159.3062 H   0  0  0  0  0  0  0  0  0  0  0  0  # atno 6908 bound_to 6896
  151.5526  135.1070  160.0005 H   0  0  0  0  0  0  0  0  0  0  0  0  # atno 6909 bound_to 6896
  146.2441  140.0413  142.8382 H   0  0  0  0  0  0  0  0  0  0  0  0  # atno 7974 bound_to 7965
  156.2591  140.2855  156.0977 H   0  0  0  0  0  0  0  0  0  0  0  0  # atno 8008 bound_to 7997
  155.1394  140.0395  157.2812 H   0  0  0  0  0  0  0  0  0  0  0  0  # atno 8009 bound_to 7997
  154.6541  140.2551  155.7187 H   0  0  0  0  0  0  0  0  0  0  0  0  # atno 8010 bound_to 7997
  140.7113  143.3329  151.2528 H   0  0  0  0  0  0  0  0  0  0  0  0  # atno 10167 bound_to 10162
  156.1400  130.6459  150.9756 H   0  0  0  0  0  0  0  0  0  0  0  0  # atno 10718 bound_to 10713
  154.8687  135.4137  154.2762 H   0  0  0  0  0  0  0  0  0  0  0  0  # atno 10763 bound_to 10752
  153.3663  135.7005  153.6678 H   0  0  0  0  0  0  0  0  0  0  0  0  # atno 10764 bound_to 10752
  153.5559  135.3619  155.2751 H   0  0  0  0  0  0  0  0  0  0  0  0  # atno 10765 bound_to 10752
  141.1638  133.6923  156.7415 H   0  0  0  0  0  0  0  0  0  0  0  0  # atno 11005 bound_to 11000
  145.1067  140.9379  143.4681 LP  0  0  0  0  0  0  0  0  0  0  0  0  # atno 17320 bound_to 7965
  145.0618  139.3100  143.5876 LP  0  0  0  0  0  0  0  0  0  0  0  0  # atno 17321 bound_to 7965
  139.6816  143.9845  152.2811 LP  0  0  0  0  0  0  0  0  0  0  0  0  # atno 17342 bound_to 10162
  139.9476  144.6641  150.8203 LP  0  0  0  0  0  0  0  0  0  0  0  0  # atno 17343 bound_to 10162
  157.6567  131.0888  150.7931 LP  0  0  0  0  0  0  0  0  0  0  0  0  # atno 17370 bound_to 10713
  156.8007  130.4920  149.5370 LP  0  0  0  0  0  0  0  0  0  0  0  0  # atno 17371 bound_to 10713
  140.2671  134.8421  157.3813 LP  0  0  0  0  0  0  0  0  0  0  0  0  # atno 17394 bound_to 11000
  140.1556  134.4793  155.7930 LP  0  0  0  0  0  0  0  0  0  0  0  0  # atno 17395 bound_to 11000

$$$$
