AV-unprocessed.smi:72|AV-procd|sdf|731|dock1
  -GOLD-   2262017 63D 1   1.00000     0.00000
 Structure written by MMmdl.
 28 29  0  0  0  0  0  0  0  0  2 V2000
  148.3938  136.8779  160.7498 N   0  0  0  0  0  0  0  0  0  0  0  0
  148.7315  136.9864  159.5399 C   0  0  0  0  0  0  0  0  0  0  0  0
  148.2539  138.1004  158.7518 N   0  0  0  0  0  0  0  0  0  0  0  0
  148.5740  138.1321  157.4949 C   0  0  0  0  0  0  0  0  0  0  0  0
  149.3482  137.0666  156.8640 N   0  0  0  0  0  0  0  0  0  0  0  0
  149.7419  137.1275  155.3918 C   0  0  2  0  0  0  0  0  0  0  0  0
  151.1295  137.3035  155.2794 O   0  0  0  0  0  0  0  0  0  0  0  0
  151.4669  138.6347  154.8907 C   0  0  2  0  0  0  0  0  0  0  0  0
  151.6281  139.5495  156.1272 C   0  0  0  0  0  0  0  0  0  0  0  0
  152.7989  139.2005  156.8347 O   0  0  0  0  0  0  0  0  0  0  0  0
  150.2922  138.9844  153.9721 C   0  0  2  0  0  0  0  0  0  0  0  0
  150.0997  140.3767  153.8140 O   0  0  0  0  0  0  0  0  0  0  0  0
  149.0981  138.3223  154.6466 C   0  0  1  0  0  0  0  0  0  0  0  0
  148.1846  137.8958  153.6555 O   0  0  0  0  0  0  0  0  0  0  0  0
  149.9012  136.0520  157.6952 C   0  0  0  0  0  0  0  0  0  0  0  0
  150.6789  135.2422  157.1909 O   0  0  0  0  0  0  0  0  0  0  0  0
  149.5630  136.0238  159.0143 N   0  5  0  0  0  0  0  0  0  0  0  0
  149.4625  136.1496  154.9961 H   0  0  0  0  0  0  0  0  0  0  0  0
  152.3966  138.6323  154.3199 H   0  0  0  0  0  0  0  0  0  0  0  0
  150.4715  138.5343  152.9940 H   0  0  0  0  0  0  0  0  0  0  0  0
  148.6258  139.0034  155.3567 H   0  0  0  0  0  0  0  0  0  0  0  0
  148.7936  136.0651  161.1954 H   0  0  0  0  0  0  0  0  0  0  0  0
  148.2800  138.9545  156.8428 H   0  0  0  0  0  0  0  0  0  0  0  0
  151.7560  140.5875  155.8210 H   0  0  0  0  0  0  0  0  0  0  0  0
  150.7592  139.5251  156.7831 H   0  0  0  0  0  0  0  0  0  0  0  0
  152.5477  138.8621  157.6805 H   0  0  0  0  0  0  0  0  0  0  0  0
  149.6956  140.5251  152.9726 H   0  0  0  0  0  0  0  0  0  0  0  0
  148.6043  137.2223  153.1407 H   0  0  0  0  0  0  0  0  0  0  0  0
  1  2  2  0  0  0  0
  1 22  1  0  0  0  0
  2 17  1  0  0  0  0
  2  3  1  0  0  0  0
  3  4  2  0  0  0  0
  4  5  1  0  0  0  0
  4 23  1  0  0  0  0
  5  6  1  0  0  0  0
  5 15  1  0  0  0  0
  6 18  1  0  0  0  0
  6 13  1  0  0  0  0
  6  7  1  0  0  0  0
  7  8  1  0  0  0  0
  8 19  1  0  0  0  0
  8  9  1  0  0  0  0
  8 11  1  0  0  0  0
  9 10  1  0  0  0  0
  9 24  1  0  0  0  0
  9 25  1  0  0  0  0
 10 26  1  0  0  0  0
 11 20  1  0  0  0  0
 11 12  1  0  0  0  0
 11 13  1  0  0  0  0
 12 27  1  0  0  0  0
 13 21  1  0  0  0  0
 13 14  1  0  0  0  0
 14 28  1  0  0  0  0
 15 16  2  0  0  0  0
 15 17  1  0  0  0  0
M  CHG  1  17  -1
M  END
> <s_m_source_file>
AV-unprocessed.smi

> <i_m_source_file_index>
72

> <i_lp_mmshare_version>
43012

> <i_f3d_flags>
0

> <s_epik_input>
W05IMl1jMW5bY0hdbihjKD1PKW4xKVtDQEBIXTJPW0NASF0oW0NIMl1bT0hdKVtDQEBIXShbT0hdKVtDQEhdMltPSF0=

> <s_epik_cmdline>
J2VwaWtfcHl0aG9uJywgJy1waCcsICc3LjAnLCAnLXRuJywgJzgnLCAnLW1hJywgJzIwMCcsICctbWV0YWxfYmluZGluZycsICctaW1hZScsICc8aW5maWxlLm1hZT4nLCAnLW9tYWUnLCAnPG91dGZpbGUubWFlPic=

> <r_lp_tautomer_probability>
7.17554e-07

> <r_epik_Ionization_Penalty>
12.8705

> <r_epik_Ionization_Penalty_Charging>
5.64144

> <r_epik_Ionization_Penalty_Neutral>
7.22905

> <r_epik_State_Penalty>
3.30104

> <r_epik_Charging_Adjusted_Penalty>
8.94249

> <i_epik_Tot_Q>
-1

> <i_epik_Tot_abs_Q>
1

> <r_epik_Metal_State_Penalty>
0.529074

> <b_epik_Metal_Only>
1

> <s_epik_Chemistry_Notes>
This compound contains an acetal/aminal-like group ( X-CH(R)-Y where X, Y are N, S, or O) that may be acid/base labile, releasing an aldehyde.

> <s_lp_Force_Field>
OPLS_2005

> <r_lp_Energy>
34.678

> <b_lp_Chiralities_Consistent>
1

> <s_lp_Variant>
AV-unprocessed.smi:72-69

> <Gold.Version>
5.8.1

> <Gold.Id.Protein>
6NUR|6NUR_protein|mol2

> <Gold.PLP.Fitness>
42.2928

> <Gold.PLP.PLP>
-22.5700

> <Gold.PLP.part.hbond>
-7.9527

> <Gold.PLP.part.metal>
0.0000

> <Gold.PLP.part.buried>
-3.0186

> <Gold.PLP.part.nonpolar>
-11.6575

> <Gold.PLP.part.repulsive>
0.0947

> <Gold.PLP.ligand.clash>
0.0000

> <Gold.PLP.ligand.torsion>
0.0942

> <Gold.PLP.Chemscore.Hbond>
6.6040

> <Gold.PLP.Chemscore.CHOScore>
0.0000

> <Gold.PLP.Chemscore.Metal>
0.0000

> <Gold.Chemscore.Hbonds>
donor molecule, donor type, donor heavy atom, donor atom, acceptor molecule, acceptor atom, score
      L1  H    12    27       P1  7957  0.94
      L1  H    14    28       P1  7948  1.00
      P1  H  6896  6908       L1    17  2.00
      P1  H  6931  6943       L1     1  0.98
      P1  H  7989  7998       L1    12  0.68
      P1  H  7997  8008       L1    10  1.00

> <Gold.PLP.Chemscore.Internal.Correction>
0.0992

> <Gold.Rescore>
     Score         DG    S(hbond)    S(metal)    S(lipo)     H(rot)  DE(clash)    DE(int)     intcor
     11.21     -13.01       4.42        0.00      26.68       4.04       0.42       1.38       ----

> <Gold.Chemscore.Fitness>
11.2118

> <Gold.Chemscore.DG>
-13.0129

> <Gold.Chemscore.ZeroCoef>
-5.4800

> <Gold.Chemscore.Hbond>
4.4175

> <Gold.Chemscore.Metal>
0.0000

> <Gold.Chemscore.Lipo>
26.6799

> <Gold.Chemscore.Internal_Hbond>
0.0000

> <Gold.Chemscore.DEClash>
0.4212

> <Gold.Chemscore.DEInternal>
1.3799

> <Gold.Chemscore.Rot>
4.0403

> <Gold.Chemscore.Internal.Correction>
   9.000000E+99

> <Gold.Chemscore.Hbonds>
donor molecule, donor type, donor heavy atom, donor atom, acceptor molecule, acceptor atom, score
      L1  H    12    27       P1  7957  0.91
      L1  H    14    28       P1  7948  0.99
      P1  H  6896  6908       L1    17  0.35
      P1  H  6931  6943       L1     1  0.22
      P1  H  7989  7998       L1    12  0.05
      P1  H  7997  8008       L1    10  0.89

> <Gold.Chemscore.Hbond.Weighted>
-14.7545

> <Gold.Chemscore.Metal.Weighted>
-0.0000

> <Gold.Chemscore.Lipo.Weighted>
-3.1216

> <Gold.Chemscore.Internal_Hbond.Weighted>
0.0000

> <Gold.Chemscore.DEClash.Weighted>
0.4212

> <Gold.Chemscore.DEInternal.Weighted>
1.3799

> <Gold.Chemscore.Rot.Weighted>
10.3431

> <Gold.Chemscore.Internal.Correction.Weighted>
   9.000000E+99

> <Gold.Protein.RotatedTorsions>
[ 6907 6896 6895 6894 ] final -168.34 input  -60.11 | X-H torsion
[ 7974 7965 7964 7962 ] final -158.53 input  175.53 | X-H torsion
[ 8008 7997 7996 7995 ] final  -39.93 input   59.86 | X-H torsion
[ 10167 10162 10161 10158 ] final   43.32 input  -65.29 | X-H torsion
[ 10718 10713 10712 10709 ] final -136.11 input   66.30 | X-H torsion
[ 10763 10752 10751 10750 ] final  -47.97 input  -60.55 | X-H torsion
[ 11005 11000 10999 10996 ] final  121.15 input  -57.11 | X-H torsion

> <Gold.Protein.ActiveResidues>
 VAL166  LYS551  ARG553  GLY616  TRP617  ASP618  TYR619  PRO620  LYS621  CYS622 
 ASP623  PHE694  ASN695  SER759  ASP760  ASP761  ALA762  ILE779  LEU786  VAL792 
 PHE793  MET794  SER795  GLU796  ALA797  LYS798  CYS799  TRP800  GLU811  SER814 

> <Gold.Protein.RotatedAtoms>
  151.4741  133.3562  159.2827 H   0  0  0  0  0  0  0  0  0  0  0  0  # atno 6907 bound_to 6896
  150.8941  134.8350  159.7325 H   0  0  0  0  0  0  0  0  0  0  0  0  # atno 6908 bound_to 6896
  152.4841  134.4654  159.9670 H   0  0  0  0  0  0  0  0  0  0  0  0  # atno 6909 bound_to 6896
  144.7502  140.3814  143.6054 H   0  0  0  0  0  0  0  0  0  0  0  0  # atno 7974 bound_to 7965
  154.4017  140.1538  156.2945 H   0  0  0  0  0  0  0  0  0  0  0  0  # atno 8008 bound_to 7997
  155.8756  140.3446  155.5830 H   0  0  0  0  0  0  0  0  0  0  0  0  # atno 8009 bound_to 7997
  155.7725  140.0832  157.2091 H   0  0  0  0  0  0  0  0  0  0  0  0  # atno 8010 bound_to 7997
  140.3456  144.2415  150.6151 H   0  0  0  0  0  0  0  0  0  0  0  0  # atno 10167 bound_to 10162
  156.2735  130.7279  151.1253 H   0  0  0  0  0  0  0  0  0  0  0  0  # atno 10718 bound_to 10713
  154.0701  135.6606  153.4823 H   0  0  0  0  0  0  0  0  0  0  0  0  # atno 10763 bound_to 10752
  153.0394  135.5155  154.7575 H   0  0  0  0  0  0  0  0  0  0  0  0  # atno 10764 bound_to 10752
  154.6638  135.3019  154.9799 H   0  0  0  0  0  0  0  0  0  0  0  0  # atno 10765 bound_to 10752
  139.9214  134.9638  156.7914 H   0  0  0  0  0  0  0  0  0  0  0  0  # atno 11005 bound_to 11000
  145.6973  139.1653  143.2612 LP  0  0  0  0  0  0  0  0  0  0  0  0  # atno 17320 bound_to 7965
  146.1440  140.7018  142.9353 LP  0  0  0  0  0  0  0  0  0  0  0  0  # atno 17321 bound_to 7965
  140.5268  143.2252  151.8302 LP  0  0  0  0  0  0  0  0  0  0  0  0  # atno 17342 bound_to 10162
  139.4834  144.4770  151.9355 LP  0  0  0  0  0  0  0  0  0  0  0  0  # atno 17343 bound_to 10162
  157.7291  131.0626  150.5787 LP  0  0  0  0  0  0  0  0  0  0  0  0  # atno 17370 bound_to 10713
  156.5886  130.4323  149.5946 LP  0  0  0  0  0  0  0  0  0  0  0  0  # atno 17371 bound_to 10713
  140.6464  133.9771  155.7733 LP  0  0  0  0  0  0  0  0  0  0  0  0  # atno 17394 bound_to 11000
  141.0737  134.0167  157.3489 LP  0  0  0  0  0  0  0  0  0  0  0  0  # atno 17395 bound_to 11000

$$$$
