AV-unprocessed.smi:2198|AV-procd|sdf|8920|dock7
  -GOLD-   2272012133D 1   1.00000     0.00000
 Structure written by MMmdl.
 42 43  0  0  0  0  0  0  0  0  2 V2000
  147.3047  136.1093  160.2453 C   0  0  0  0  0  0  0  0  0  0  0  0
  148.2291  136.9517  159.3926 C   0  0  0  0  0  0  0  0  0  0  0  0
  147.7719  138.0039  158.8286 N   0  0  0  0  0  0  0  0  0  0  0  0
  148.6232  138.7853  158.0289 C   0  0  0  0  0  0  0  0  0  0  0  0
  147.9938  140.0117  157.3916 C   0  0  0  0  0  0  0  0  0  0  0  0
  149.9304  138.4422  157.8448 C   0  0  0  0  0  0  0  0  0  0  0  0
  150.8935  139.2502  156.9741 C   0  0  0  0  0  0  0  0  0  0  0  0
  151.8400  140.2039  157.7074 C   0  0  0  0  0  0  0  0  0  0  0  0
  152.9169  139.8060  158.1529 O   0  0  0  0  0  0  0  0  0  0  0  0
  151.4129  141.4693  157.8354 N   0  0  0  0  0  0  0  0  0  0  0  0
  152.1323  142.5351  158.5260 C   0  0  1  0  0  0  0  0  0  0  0  0
  151.4818  143.8929  158.2054 C   0  0  0  0  0  0  0  0  0  0  0  0
  152.1804  145.0352  158.9588 C   0  0  0  0  0  0  0  0  0  0  0  0
  152.1920  144.7781  160.4738 C   0  0  0  0  0  0  0  0  0  0  0  0
  152.8432  143.4238  160.8128 C   0  0  1  0  0  0  0  0  0  0  0  0
  152.8449  143.1660  162.3263 C   0  0  0  0  0  0  0  0  0  0  0  0
  152.1453  142.2822  160.0483 C   0  0  0  0  0  0  0  0  0  0  0  0
  150.4213  137.2296  158.5235 C   0  0  0  0  0  0  0  0  0  0  0  0
  151.5979  136.8880  158.4097 O   0  0  0  0  0  0  0  0  0  0  0  0
  149.5307  136.5192  159.2730 N   0  5  0  0  0  0  0  0  0  0  0  0
  146.3772  136.6410  160.4619 H   0  0  0  0  0  0  0  0  0  0  0  0
  147.7820  135.8585  161.1932 H   0  0  0  0  0  0  0  0  0  0  0  0
  147.0568  135.1831  159.7265 H   0  0  0  0  0  0  0  0  0  0  0  0
  147.9483  139.8960  156.3086 H   0  0  0  0  0  0  0  0  0  0  0  0
  148.5703  140.9075  157.6231 H   0  0  0  0  0  0  0  0  0  0  0  0
  146.9780  140.1678  157.7564 H   0  0  0  0  0  0  0  0  0  0  0  0
  151.4881  138.5871  156.3448 H   0  0  0  0  0  0  0  0  0  0  0  0
  150.3046  139.8417  156.2728 H   0  0  0  0  0  0  0  0  0  0  0  0
  150.5171  141.7081  157.4356 H   0  0  0  0  0  0  0  0  0  0  0  0
  153.1617  142.5602  158.1627 H   0  0  0  0  0  0  0  0  0  0  0  0
  151.5206  144.0833  157.1321 H   0  0  0  0  0  0  0  0  0  0  0  0
  150.4256  143.8723  158.4785 H   0  0  0  0  0  0  0  0  0  0  0  0
  153.2043  145.1387  158.5974 H   0  0  0  0  0  0  0  0  0  0  0  0
  151.6806  145.9808  158.7467 H   0  0  0  0  0  0  0  0  0  0  0  0
  152.7258  145.5855  160.9766 H   0  0  0  0  0  0  0  0  0  0  0  0
  151.1697  144.8014  160.8535 H   0  0  0  0  0  0  0  0  0  0  0  0
  153.8830  143.4595  160.4847 H   0  0  0  0  0  0  0  0  0  0  0  0
  151.8299  143.1258  162.7225 H   0  0  0  0  0  0  0  0  0  0  0  0
  153.3790  143.9541  162.8579 H   0  0  0  0  0  0  0  0  0  0  0  0
  153.3327  142.2201  162.5633 H   0  0  0  0  0  0  0  0  0  0  0  0
  151.1218  142.1727  160.4102 H   0  0  0  0  0  0  0  0  0  0  0  0
  152.6488  141.3385  160.2627 H   0  0  0  0  0  0  0  0  0  0  0  0
  1  2  1  0  0  0  0
  1 21  1  0  0  0  0
  1 22  1  0  0  0  0
  1 23  1  0  0  0  0
  2 20  1  0  0  0  0
  2  3  2  0  0  0  0
  3  4  1  0  0  0  0
  4  5  1  0  0  0  0
  4  6  2  0  0  0  0
  5 24  1  0  0  0  0
  5 25  1  0  0  0  0
  5 26  1  0  0  0  0
  6  7  1  0  0  0  0
  6 18  1  0  0  0  0
  7  8  1  0  0  0  0
  7 27  1  0  0  0  0
  7 28  1  0  0  0  0
  8  9  2  0  0  0  0
  8 10  1  0  0  0  0
 10 11  1  0  0  0  0
 10 29  1  0  0  0  0
 11 17  1  0  0  0  0
 11 12  1  0  0  0  0
 11 30  1  0  0  0  0
 12 13  1  0  0  0  0
 12 31  1  0  0  0  0
 12 32  1  0  0  0  0
 13 14  1  0  0  0  0
 13 33  1  0  0  0  0
 13 34  1  0  0  0  0
 14 15  1  0  0  0  0
 14 35  1  0  0  0  0
 14 36  1  0  0  0  0
 15 16  1  0  0  0  0
 15 17  1  0  0  0  0
 15 37  1  0  0  0  0
 16 38  1  0  0  0  0
 16 39  1  0  0  0  0
 16 40  1  0  0  0  0
 17 41  1  0  0  0  0
 17 42  1  0  0  0  0
 18 19  2  0  0  0  0
 18 20  1  0  0  0  0
M  CHG  1  20  -1
M  END
> <s_m_source_file>
AV-unprocessed.smi

> <i_m_source_file_index>
2198

> <i_lp_mmshare_version>
43012

> <i_f3d_flags>
0

> <s_epik_input>
W0NIM11jMW5jKFtDSDNdKWMoYyg9TylbbkhdMSlbQ0gyXUMoPU8pW05IXVtDQEBIXTJbQ0gyXVtDSDJdW0NIMl1bQ0BASF0oW0NIM10pW0NIMl0y

> <s_epik_cmdline>
J2VwaWtfcHl0aG9uJywgJy1waCcsICc3LjAnLCAnLXRuJywgJzgnLCAnLW1hJywgJzIwMCcsICctbWV0YWxfYmluZGluZycsICctaW1hZScsICc8aW5maWxlLm1hZT4nLCAnLW9tYWUnLCAnPG91dGZpbGUubWFlPic=

> <r_lp_tautomer_probability>
0.839158

> <r_epik_Ionization_Penalty>
6.67193

> <r_epik_Ionization_Penalty_Charging>
7.66837e-08

> <r_epik_Ionization_Penalty_Neutral>
6.67193

> <r_epik_State_Penalty>
4.51643

> <r_epik_Charging_Adjusted_Penalty>
4.51643

> <i_epik_Tot_Q>
-1

> <i_epik_Tot_abs_Q>
1

> <r_epik_Metal_State_Penalty>
0.851582

> <b_epik_Metal_Only>
1

> <s_lp_Force_Field>
OPLS_2005

> <r_lp_Energy>
13.5939

> <b_lp_Chiralities_Consistent>
1

> <s_lp_Variant>
AV-unprocessed.smi:2198-10

> <Gold.Version>
5.8.1

> <Gold.Id.Protein>
6NUR|6NUR_protein|mol2

> <Gold.PLP.Fitness>
47.2894

> <Gold.PLP.PLP>
-39.7978

> <Gold.PLP.part.hbond>
-3.5025

> <Gold.PLP.part.metal>
0.0000

> <Gold.PLP.part.buried>
-6.4887

> <Gold.PLP.part.nonpolar>
-29.5085

> <Gold.PLP.part.repulsive>
0.0666

> <Gold.PLP.ligand.clash>
0.0000

> <Gold.PLP.ligand.torsion>
0.7560

> <Gold.PLP.Chemscore.Hbond>
3.0000

> <Gold.PLP.Chemscore.CHOScore>
0.0000

> <Gold.PLP.Chemscore.Metal>
0.0000

> <Gold.Chemscore.Hbonds>
donor molecule, donor type, donor heavy atom, donor atom, acceptor molecule, acceptor atom, score
      P1  H  6896  6909       L1    20  1.05
      P1  H  6934  6947       L1     3  0.03
      P1  H  7997  8010       L1     9  0.99

> <Gold.PLP.Chemscore.Internal.Correction>
0.0037

> <Gold.Rescore>
     Score         DG    S(hbond)    S(metal)    S(lipo)     H(rot)  DE(clash)    DE(int)     intcor
     18.66     -19.30       1.91        0.00      95.12       1.45       0.00       0.64       ----

> <Gold.Chemscore.Fitness>
18.6568

> <Gold.Chemscore.DG>
-19.3027

> <Gold.Chemscore.ZeroCoef>
-5.4800

> <Gold.Chemscore.Hbond>
1.9139

> <Gold.Chemscore.Metal>
0.0000

> <Gold.Chemscore.Lipo>
95.1247

> <Gold.Chemscore.Internal_Hbond>
0.0000

> <Gold.Chemscore.DEClash>
0.0038

> <Gold.Chemscore.DEInternal>
0.6421

> <Gold.Chemscore.Rot>
1.4450

> <Gold.Chemscore.Internal.Correction>
   9.000000E+99

> <Gold.Chemscore.Hbonds>
donor molecule, donor type, donor heavy atom, donor atom, acceptor molecule, acceptor atom, score
      P1  H  6896  6909       L1    20  0.07
      P1  H  7997  8010       L1     9  0.81

> <Gold.Chemscore.Hbond.Weighted>
-6.3923

> <Gold.Chemscore.Metal.Weighted>
-0.0000

> <Gold.Chemscore.Lipo.Weighted>
-11.1296

> <Gold.Chemscore.Internal_Hbond.Weighted>
0.0000

> <Gold.Chemscore.DEClash.Weighted>
0.0038

> <Gold.Chemscore.DEInternal.Weighted>
0.6421

> <Gold.Chemscore.Rot.Weighted>
3.6992

> <Gold.Chemscore.Internal.Correction.Weighted>
   9.000000E+99

> <Gold.Protein.RotatedTorsions>
[ 6907 6896 6895 6894 ] final   78.13 input  -60.11 | X-H torsion
[ 7974 7965 7964 7962 ] final   50.05 input  175.53 | X-H torsion
[ 8008 7997 7996 7995 ] final   46.68 input   59.86 | X-H torsion
[ 10167 10162 10161 10158 ] final  158.01 input  -65.29 | X-H torsion
[ 10718 10713 10712 10709 ] final  -91.12 input   66.30 | X-H torsion
[ 10763 10752 10751 10750 ] final  175.04 input  -60.55 | X-H torsion
[ 11005 11000 10999 10996 ] final -160.65 input  -57.11 | X-H torsion

> <Gold.Protein.ActiveResidues>
 VAL166  LYS551  ARG553  GLY616  TRP617  ASP618  TYR619  PRO620  LYS621  CYS622 
 ASP623  PHE694  ASN695  SER759  ASP760  ASP761  ALA762  ILE779  LEU786  VAL792 
 PHE793  MET794  SER795  GLU796  ALA797  LYS798  CYS799  TRP800  GLU811  SER814 

> <Gold.Protein.RotatedAtoms>
  152.5147  134.3710  159.9317 H   0  0  0  0  0  0  0  0  0  0  0  0  # atno 6907 bound_to 6896
  151.3665  133.3864  159.2703 H   0  0  0  0  0  0  0  0  0  0  0  0  # atno 6908 bound_to 6896
  150.9611  134.9018  159.7789 H   0  0  0  0  0  0  0  0  0  0  0  0  # atno 6909 bound_to 6896
  146.0050  139.4480  142.9991 H   0  0  0  0  0  0  0  0  0  0  0  0  # atno 7974 bound_to 7965
  155.3565  140.3416  155.4240 H   0  0  0  0  0  0  0  0  0  0  0  0  # atno 8008 bound_to 7997
  156.1736  140.1640  156.8437 H   0  0  0  0  0  0  0  0  0  0  0  0  # atno 8009 bound_to 7997
  154.5259  140.0756  156.8240 H   0  0  0  0  0  0  0  0  0  0  0  0  # atno 8010 bound_to 7997
  139.4825  144.4864  151.8371 H   0  0  0  0  0  0  0  0  0  0  0  0  # atno 10167 bound_to 10162
  155.9991  130.4936  150.5427 H   0  0  0  0  0  0  0  0  0  0  0  0  # atno 10718 bound_to 10713
  154.4622  135.2768  155.1704 H   0  0  0  0  0  0  0  0  0  0  0  0  # atno 10763 bound_to 10752
  154.3487  135.6154  153.5636 H   0  0  0  0  0  0  0  0  0  0  0  0  # atno 10764 bound_to 10752
  152.9856  135.5806  154.4987 H   0  0  0  0  0  0  0  0  0  0  0  0  # atno 10765 bound_to 10752
  140.6292  134.4669  157.5228 H   0  0  0  0  0  0  0  0  0  0  0  0  # atno 11005 bound_to 11000
  145.7430  141.0001  143.1291 LP  0  0  0  0  0  0  0  0  0  0  0  0  # atno 17320 bound_to 7965
  144.6932  139.9122  143.7464 LP  0  0  0  0  0  0  0  0  0  0  0  0  # atno 17321 bound_to 7965
  140.4344  144.2072  150.5889 LP  0  0  0  0  0  0  0  0  0  0  0  0  # atno 17342 bound_to 10162
  140.4747  143.2400  151.9040 LP  0  0  0  0  0  0  0  0  0  0  0  0  # atno 17343 bound_to 10162
  157.3361  131.0708  151.1824 LP  0  0  0  0  0  0  0  0  0  0  0  0  # atno 17370 bound_to 10713
  157.2688  130.6694  149.6009 LP  0  0  0  0  0  0  0  0  0  0  0  0  # atno 17371 bound_to 10713
  139.9123  134.8319  156.1486 LP  0  0  0  0  0  0  0  0  0  0  0  0  # atno 17394 bound_to 11000
  141.0687  133.6807  156.2097 LP  0  0  0  0  0  0  0  0  0  0  0  0  # atno 17395 bound_to 11000

$$$$
