AV-unprocessed.smi:1824|AV-procd|sdf|7399|dock2
  -GOLD-   22720 9 73D 1   1.00000     0.00000
 Structure written by MMmdl.
 45 47  0  0  0  0  0  0  0  0  2 V2000
  146.0777  134.2940  154.9441 C   0  0  0  0  0  0  0  0  0  0  0  0
  146.7518  135.6558  154.7439 C   0  0  2  0  0  0  0  0  0  0  0  0
  148.0526  135.7811  155.5574 C   0  0  0  0  0  0  0  0  0  0  0  0
  148.6273  137.1378  155.4077 N   0  3  2  0  0  0  0  0  0  0  0  0
  149.9446  137.2776  156.0795 C   0  0  0  0  0  0  0  0  0  0  0  0
  151.0063  137.9262  155.1695 C   0  0  2  0  0  0  0  0  0  0  0  0
  151.5503  136.9309  154.3229 O   0  0  0  0  0  0  0  0  0  0  0  0
  152.1366  138.5787  155.9888 C   0  0  0  0  0  0  0  0  0  0  0  0
  151.7333  139.8355  156.5950 N   0  0  0  0  0  0  0  0  0  0  0  0
  150.6596  140.5824  156.2727 C   0  0  0  0  0  0  0  0  0  0  0  0
  150.4719  141.7072  156.9569 N   0  0  0  0  0  0  0  0  0  0  0  0
  151.5484  141.6887  157.8272 C   0  0  0  0  0  0  0  0  0  0  0  0
  151.9337  142.6072  158.8298 C   0  0  0  0  0  0  0  0  0  0  0  0
  153.0885  142.3760  159.6062 C   0  0  0  0  0  0  0  0  0  0  0  0
  153.4427  143.2658  160.5636 F   0  0  0  0  0  0  0  0  0  0  0  0
  153.8749  141.2245  159.3910 C   0  0  0  0  0  0  0  0  0  0  0  0
  154.9820  141.0094  160.1405 F   0  0  0  0  0  0  0  0  0  0  0  0
  153.5114  140.2955  158.3973 C   0  0  0  0  0  0  0  0  0  0  0  0
  152.3575  140.5296  157.6263 C   0  0  0  0  0  0  0  0  0  0  0  0
  147.6374  138.1638  155.8186 C   0  0  0  0  0  0  0  0  0  0  0  0
  146.3174  138.0030  155.0395 C   0  0  1  0  0  0  0  0  0  0  0  0
  146.4092  138.4635  153.5738 C   0  0  0  0  0  0  0  0  0  0  0  0
  145.8344  136.6648  155.1586 O   0  0  0  0  0  0  0  0  0  0  0  0
  146.7327  133.4804  154.6310 H   0  0  0  0  0  0  0  0  0  0  0  0
  145.1600  134.2244  154.3593 H   0  0  0  0  0  0  0  0  0  0  0  0
  145.8177  134.1308  155.9906 H   0  0  0  0  0  0  0  0  0  0  0  0
  146.9711  135.7705  153.6821 H   0  0  0  0  0  0  0  0  0  0  0  0
  147.8638  135.5795  156.6133 H   0  0  0  0  0  0  0  0  0  0  0  0
  148.7705  135.0360  155.2119 H   0  0  0  0  0  0  0  0  0  0  0  0
  149.8198  137.8554  156.9966 H   0  0  0  0  0  0  0  0  0  0  0  0
  150.3070  136.2957  156.3878 H   0  0  0  0  0  0  0  0  0  0  0  0
  150.5510  138.6914  154.5414 H   0  0  0  0  0  0  0  0  0  0  0  0
  151.1045  136.9634  153.4899 H   0  0  0  0  0  0  0  0  0  0  0  0
  152.4596  137.9063  156.7847 H   0  0  0  0  0  0  0  0  0  0  0  0
  153.0108  138.7579  155.3614 H   0  0  0  0  0  0  0  0  0  0  0  0
  149.9772  140.2838  155.4901 H   0  0  0  0  0  0  0  0  0  0  0  0
  151.3399  143.4925  159.0032 H   0  0  0  0  0  0  0  0  0  0  0  0
  154.1132  139.4149  158.2317 H   0  0  0  0  0  0  0  0  0  0  0  0
  147.4434  138.0621  156.8875 H   0  0  0  0  0  0  0  0  0  0  0  0
  148.0304  139.1686  155.6670 H   0  0  0  0  0  0  0  0  0  0  0  0
  145.5706  138.6357  155.5205 H   0  0  0  0  0  0  0  0  0  0  0  0
  146.6541  139.5245  153.5172 H   0  0  0  0  0  0  0  0  0  0  0  0
  145.4579  138.3186  153.0610 H   0  0  0  0  0  0  0  0  0  0  0  0
  147.1756  137.9258  153.0163 H   0  0  0  0  0  0  0  0  0  0  0  0
  148.7976  137.2662  154.4200 H   0  0  0  0  0  0  0  0  0  0  0  0
  1  2  1  0  0  0  0
  1 24  1  0  0  0  0
  1 25  1  0  0  0  0
  1 26  1  0  0  0  0
  2 23  1  0  0  0  0
  2  3  1  0  0  0  0
  2 27  1  0  0  0  0
  3  4  1  0  0  0  0
  3 28  1  0  0  0  0
  3 29  1  0  0  0  0
  4  5  1  0  0  0  0
  4 20  1  0  0  0  0
  4 45  1  0  0  0  0
  5  6  1  0  0  0  0
  5 30  1  0  0  0  0
  5 31  1  0  0  0  0
  6  7  1  0  0  0  0
  6  8  1  0  0  0  0
  6 32  1  0  0  0  0
  7 33  1  0  0  0  0
  8  9  1  0  0  0  0
  8 34  1  0  0  0  0
  8 35  1  0  0  0  0
  9 19  1  0  0  0  0
  9 10  1  0  0  0  0
 10 11  2  0  0  0  0
 10 36  1  0  0  0  0
 11 12  1  0  0  0  0
 12 19  2  0  0  0  0
 12 13  1  0  0  0  0
 13 14  2  0  0  0  0
 13 37  1  0  0  0  0
 14 15  1  0  0  0  0
 14 16  1  0  0  0  0
 16 17  1  0  0  0  0
 16 18  2  0  0  0  0
 18 19  1  0  0  0  0
 18 38  1  0  0  0  0
 20 21  1  0  0  0  0
 20 39  1  0  0  0  0
 20 40  1  0  0  0  0
 21 22  1  0  0  0  0
 21 23  1  0  0  0  0
 21 41  1  0  0  0  0
 22 42  1  0  0  0  0
 22 43  1  0  0  0  0
 22 44  1  0  0  0  0
M  CHG  1   4   1
M  END
> <s_m_source_file>
AV-unprocessed.smi

> <i_m_source_file_index>
1824

> <i_lp_mmshare_version>
43012

> <i_f3d_flags>
0

> <s_epik_input>
W0NIM11bQ0BASF0xW0NIMl1OKFtDSDJdW0NASF0oTzEpW0NIM10pW0NIMl1bQ0BIXShbT0hdKVtDSDJdbihbY0hdbjIpYyhjMjMpW2NIXWMoRiljKEYpW2NIXTM=

> <s_epik_cmdline>
J2VwaWtfcHl0aG9uJywgJy1waCcsICc3LjAnLCAnLXRuJywgJzgnLCAnLW1hJywgJzIwMCcsICctbWV0YWxfYmluZGluZycsICctaW1hZScsICc8aW5maWxlLm1hZT4nLCAnLW9tYWUnLCAnPG91dGZpbGUubWFlPic=

> <r_epik_Ionization_Penalty>
0.61967

> <r_epik_Ionization_Penalty_Charging>
0.608065

> <r_epik_Ionization_Penalty_Neutral>
0.0116057

> <r_epik_State_Penalty>
0.664205

> <r_epik_Charging_Adjusted_Penalty>
1.27227

> <i_epik_Tot_Q>
1

> <i_epik_Tot_abs_Q>
1

> <r_epik_Metal_State_Penalty>
0.654947

> <b_epik_Metal_Only>
0

> <s_lp_Force_Field>
OPLS_2005

> <r_lp_Energy>
23.0723

> <b_lp_Chiralities_Consistent>
1

> <s_lp_Variant>
AV-unprocessed.smi:1824-7

> <Gold.Version>
5.8.1

> <Gold.Id.Protein>
6NUR|6NUR_protein|mol2

> <Gold.PLP.Fitness>
48.9576

> <Gold.PLP.PLP>
-39.3335

> <Gold.PLP.part.hbond>
-3.2176

> <Gold.PLP.part.metal>
0.0000

> <Gold.PLP.part.buried>
-1.6600

> <Gold.PLP.part.nonpolar>
-34.8934

> <Gold.PLP.part.repulsive>
1.1920

> <Gold.PLP.ligand.clash>
0.0000

> <Gold.PLP.ligand.torsion>
1.2077

> <Gold.PLP.Chemscore.Hbond>
4.0000

> <Gold.PLP.Chemscore.CHOScore>
0.0000

> <Gold.PLP.Chemscore.Metal>
0.0000

> <Gold.Chemscore.Hbonds>
donor molecule, donor type, donor heavy atom, donor atom, acceptor molecule, acceptor atom, score
      L1  H     7    33       P1  7949  0.42
      P1  H 10752 10765       L1     7  1.00

> <Gold.PLP.Chemscore.Internal.Correction>
0.0394

> <Gold.Rescore>
     Score         DG    S(hbond)    S(metal)    S(lipo)     H(rot)  DE(clash)    DE(int)     intcor
     13.70     -16.95       2.26        0.00      84.44       2.33       2.51       0.74       ----

> <Gold.Chemscore.Fitness>
13.6995

> <Gold.Chemscore.DG>
-16.9456

> <Gold.Chemscore.ZeroCoef>
-5.4800

> <Gold.Chemscore.Hbond>
2.2571

> <Gold.Chemscore.Metal>
0.0000

> <Gold.Chemscore.Lipo>
84.4380

> <Gold.Chemscore.Internal_Hbond>
0.0000

> <Gold.Chemscore.DEClash>
2.5108

> <Gold.Chemscore.DEInternal>
0.7352

> <Gold.Chemscore.Rot>
2.3251

> <Gold.Chemscore.Internal.Correction>
   9.000000E+99

> <Gold.Chemscore.Hbonds>
donor molecule, donor type, donor heavy atom, donor atom, acceptor molecule, acceptor atom, score
      L1  H     7    33       P1  7949  0.19
      P1  H 10752 10765       L1     7  0.78

> <Gold.Chemscore.Hbond.Weighted>
-7.5386

> <Gold.Chemscore.Metal.Weighted>
-0.0000

> <Gold.Chemscore.Lipo.Weighted>
-9.8792

> <Gold.Chemscore.Internal_Hbond.Weighted>
0.0000

> <Gold.Chemscore.DEClash.Weighted>
2.5108

> <Gold.Chemscore.DEInternal.Weighted>
0.7352

> <Gold.Chemscore.Rot.Weighted>
5.9523

> <Gold.Chemscore.Internal.Correction.Weighted>
   9.000000E+99

> <Gold.Protein.RotatedTorsions>
[ 6907 6896 6895 6894 ] final   56.33 input  -60.11 | X-H torsion
[ 7974 7965 7964 7962 ] final  -96.48 input  175.53 | X-H torsion
[ 8008 7997 7996 7995 ] final   65.18 input   59.86 | X-H torsion
[ 10167 10162 10161 10158 ] final  -23.28 input  -65.29 | X-H torsion
[ 10718 10713 10712 10709 ] final   55.11 input   66.30 | X-H torsion
[ 10763 10752 10751 10750 ] final  163.47 input  -60.55 | X-H torsion
[ 11005 11000 10999 10996 ] final  -56.06 input  -57.11 | X-H torsion

> <Gold.Protein.ActiveResidues>
 VAL166  LYS551  ARG553  GLY616  TRP617  ASP618  TYR619  PRO620  LYS621  CYS622 
 ASP623  PHE694  ASN695  SER759  ASP760  ASP761  ALA762  ILE779  LEU786  VAL792 
 PHE793  MET794  SER795  GLU796  ALA797  LYS798  CYS799  TRP800  GLU811  SER814 

> <Gold.Protein.RotatedAtoms>
  152.3626  134.6850  160.0201 H   0  0  0  0  0  0  0  0  0  0  0  0  # atno 6907 bound_to 6896
  151.7168  133.3308  159.3313 H   0  0  0  0  0  0  0  0  0  0  0  0  # atno 6908 bound_to 6896
  150.7615  134.6417  159.6285 H   0  0  0  0  0  0  0  0  0  0  0  0  # atno 6909 bound_to 6896
  145.3463  140.9469  143.2579 H   0  0  0  0  0  0  0  0  0  0  0  0  # atno 7974 bound_to 7965
  155.6578  140.3497  155.4771 H   0  0  0  0  0  0  0  0  0  0  0  0  # atno 8008 bound_to 7997
  155.9794  140.1171  157.0763 H   0  0  0  0  0  0  0  0  0  0  0  0  # atno 8009 bound_to 7997
  154.4187  140.1141  156.5401 H   0  0  0  0  0  0  0  0  0  0  0  0  # atno 8010 bound_to 7997
  140.7288  143.4457  151.0590 H   0  0  0  0  0  0  0  0  0  0  0  0  # atno 10167 bound_to 10162
  157.5316  130.8634  149.8696 H   0  0  0  0  0  0  0  0  0  0  0  0  # atno 10718 bound_to 10713
  154.2941  135.2760  155.2641 H   0  0  0  0  0  0  0  0  0  0  0  0  # atno 10763 bound_to 10752
  154.5107  135.5783  153.6606 H   0  0  0  0  0  0  0  0  0  0  0  0  # atno 10764 bound_to 10752
  152.9910  135.6180  154.3108 H   0  0  0  0  0  0  0  0  0  0  0  0  # atno 10765 bound_to 10752
  141.1103  133.6611  156.4562 H   0  0  0  0  0  0  0  0  0  0  0  0  # atno 11005 bound_to 11000
  144.8751  139.4982  143.6749 LP  0  0  0  0  0  0  0  0  0  0  0  0  # atno 17320 bound_to 7965
  146.2986  139.7356  142.9108 LP  0  0  0  0  0  0  0  0  0  0  0  0  # atno 17321 bound_to 7965
  139.8129  143.7926  152.3172 LP  0  0  0  0  0  0  0  0  0  0  0  0  # atno 17342 bound_to 10162
  139.7982  144.7384  150.9861 LP  0  0  0  0  0  0  0  0  0  0  0  0  # atno 17343 bound_to 10162
  156.0427  130.3735  150.1395 LP  0  0  0  0  0  0  0  0  0  0  0  0  # atno 17370 bound_to 10713
  156.9579  130.9795  151.3485 LP  0  0  0  0  0  0  0  0  0  0  0  0  # atno 17371 bound_to 10713
  140.4794  134.6679  157.5164 LP  0  0  0  0  0  0  0  0  0  0  0  0  # atno 17394 bound_to 11000
  139.9993  134.6862  155.9557 LP  0  0  0  0  0  0  0  0  0  0  0  0  # atno 17395 bound_to 11000

$$$$
