AV-unprocessed.smi:159|AV-procd|sdf|1342|dock6
  -GOLD-   2262019 43D 1   1.00000     0.00000
 Structure written by MMmdl.
 28 29  0  0  0  0  0  0  0  0  1 V2000
  146.3899  139.6792  152.9747 N   0  0  0  0  0  0  0  0  0  0  0  0
  147.4845  140.0352  153.6618 C   0  0  0  0  0  0  0  0  0  0  0  0
  147.5886  141.3578  154.2359 C   0  0  0  0  0  0  0  0  0  0  0  0
  148.7247  141.6424  154.9098 C   0  0  0  0  0  0  0  0  0  0  0  0
  149.7556  140.7228  155.0440 N   0  0  0  0  0  0  0  0  0  0  0  0
  151.0143  141.0679  155.8084 C   0  0  2  0  0  0  0  0  0  0  0  0
  151.2374  140.0711  156.9515 C   0  0  0  0  0  0  0  0  0  0  0  0
  150.8117  140.8767  158.1607 C   0  0  0  0  0  0  0  0  0  0  0  0
  151.2097  142.2938  157.7533 C   0  0  2  0  0  0  0  0  0  0  0  0
  150.4581  143.3856  158.5287 C   0  0  0  0  0  0  0  0  0  0  0  0
  150.6389  144.6368  157.9010 O   0  0  0  0  0  0  0  0  0  0  0  0
  150.8657  142.3385  156.3722 O   0  0  0  0  0  0  0  0  0  0  0  0
  149.6149  139.4276  154.4893 C   0  0  0  0  0  0  0  0  0  0  0  0
  150.4844  138.5663  154.6165 O   0  0  0  0  0  0  0  0  0  0  0  0
  148.4588  139.1582  153.8067 N   0  0  0  0  0  0  0  0  0  0  0  0
  151.8346  141.0976  155.0892 H   0  0  0  0  0  0  0  0  0  0  0  0
  152.2901  142.4056  157.8626 H   0  0  0  0  0  0  0  0  0  0  0  0
  146.3188  138.7537  152.5774 H   0  0  0  0  0  0  0  0  0  0  0  0
  145.6342  140.3394  152.8601 H   0  0  0  0  0  0  0  0  0  0  0  0
  146.8144  142.1067  154.1492 H   0  0  0  0  0  0  0  0  0  0  0  0
  148.8144  142.6238  155.3520 H   0  0  0  0  0  0  0  0  0  0  0  0
  150.6731  139.1476  156.8147 H   0  0  0  0  0  0  0  0  0  0  0  0
  152.3003  139.8320  157.0031 H   0  0  0  0  0  0  0  0  0  0  0  0
  149.7317  140.8047  158.2968 H   0  0  0  0  0  0  0  0  0  0  0  0
  151.2937  140.5484  159.0817 H   0  0  0  0  0  0  0  0  0  0  0  0
  149.3966  143.1524  158.6159 H   0  0  0  0  0  0  0  0  0  0  0  0
  150.8565  143.4677  159.5405 H   0  0  0  0  0  0  0  0  0  0  0  0
  149.9772  144.7369  157.2337 H   0  0  0  0  0  0  0  0  0  0  0  0
  1  2  1  0  0  0  0
  1 18  1  0  0  0  0
  1 19  1  0  0  0  0
  2 15  2  0  0  0  0
  2  3  1  0  0  0  0
  3  4  2  0  0  0  0
  3 20  1  0  0  0  0
  4  5  1  0  0  0  0
  4 21  1  0  0  0  0
  5  6  1  0  0  0  0
  5 13  1  0  0  0  0
  6 16  1  0  0  0  0
  6 12  1  0  0  0  0
  6  7  1  0  0  0  0
  7  8  1  0  0  0  0
  7 22  1  0  0  0  0
  7 23  1  0  0  0  0
  8  9  1  0  0  0  0
  8 24  1  0  0  0  0
  8 25  1  0  0  0  0
  9 17  1  0  0  0  0
  9 10  1  0  0  0  0
  9 12  1  0  0  0  0
 10 11  1  0  0  0  0
 10 26  1  0  0  0  0
 10 27  1  0  0  0  0
 11 28  1  0  0  0  0
 13 14  2  0  0  0  0
 13 15  1  0  0  0  0
M  END
> <s_m_source_file>
AV-unprocessed.smi

> <i_m_source_file_index>
159

> <i_lp_mmshare_version>
43012

> <i_f3d_flags>
0

> <s_epik_input>
W05IMl1jMVtjSF1bY0hdbihjKD1PKW4xKVtDQEhdMltDSDJdW0NIMl1bQ0BIXShPMilbQ0gyXVtPSF0=

> <s_epik_cmdline>
J2VwaWtfcHl0aG9uJywgJy1waCcsICc3LjAnLCAnLXRuJywgJzgnLCAnLW1hJywgJzIwMCcsICctbWV0YWxfYmluZGluZycsICctaW1hZScsICc8aW5maWxlLm1hZT4nLCAnLW9tYWUnLCAnPG91dGZpbGUubWFlPic=

> <r_lp_tautomer_probability>
0.99996

> <r_epik_Ionization_Penalty>
0.00126102

> <r_epik_Ionization_Penalty_Charging>
4.46248e-08

> <r_epik_Ionization_Penalty_Neutral>
0.00126097

> <r_epik_State_Penalty>
1.15523e-05

> <r_epik_Charging_Adjusted_Penalty>
1.1597e-05

> <i_epik_Tot_Q>
0

> <i_epik_Tot_abs_Q>
0

> <r_epik_Metal_State_Penalty>
-0

> <b_epik_Metal_Only>
0

> <s_epik_Chemistry_Notes>
This compound contains an acetal/aminal-like group ( X-CH(R)-Y where X, Y are N, S, or O) that may be acid/base labile, releasing an aldehyde.

> <s_lp_Force_Field>
OPLS_2005

> <r_lp_Energy>
25.8801

> <b_lp_Chiralities_Consistent>
1

> <s_lp_Variant>
AV-unprocessed.smi:159-4

> <Gold.Version>
5.8.1

> <Gold.Id.Protein>
6NUR|6NUR_protein|mol2

> <Gold.PLP.Fitness>
34.2590

> <Gold.PLP.PLP>
-25.9285

> <Gold.PLP.part.hbond>
-2.6866

> <Gold.PLP.part.metal>
0.0000

> <Gold.PLP.part.buried>
-3.2410

> <Gold.PLP.part.nonpolar>
-20.8264

> <Gold.PLP.part.repulsive>
1.2121

> <Gold.PLP.ligand.clash>
0.0000

> <Gold.PLP.ligand.torsion>
0.1021

> <Gold.PLP.Chemscore.Hbond>
1.8406

> <Gold.PLP.Chemscore.CHOScore>
1.0000

> <Gold.PLP.Chemscore.Metal>
0.0000

> <Gold.Chemscore.Hbonds>
donor molecule, donor type, donor heavy atom, donor atom, acceptor molecule, acceptor atom, score
      L1  H     1    19       P1 10175  0.86
      L1  H    11    28       P1  8028  0.90
      L1  C     4    21       P1  8028  1.00

> <Gold.PLP.Chemscore.Internal.Correction>
0.0130

> <Gold.Rescore>
     Score         DG    S(hbond)    S(metal)    S(lipo)     H(rot)  DE(clash)    DE(int)     intcor
      9.94     -11.16       1.93        0.00      39.19       2.09       0.00       1.22       ----

> <Gold.Chemscore.Fitness>
9.9411

> <Gold.Chemscore.DG>
-11.1608

> <Gold.Chemscore.ZeroCoef>
-5.4800

> <Gold.Chemscore.Hbond>
1.9327

> <Gold.Chemscore.Metal>
0.0000

> <Gold.Chemscore.Lipo>
39.1889

> <Gold.Chemscore.Internal_Hbond>
0.0000

> <Gold.Chemscore.DEClash>
0.0004

> <Gold.Chemscore.DEInternal>
1.2193

> <Gold.Chemscore.Rot>
2.0935

> <Gold.Chemscore.Internal.Correction>
   9.000000E+99

> <Gold.Chemscore.Hbonds>
donor molecule, donor type, donor heavy atom, donor atom, acceptor molecule, acceptor atom, score
      L1  H     1    19       P1 10175  0.74
      L1  H    11    28       P1  8028  0.18

> <Gold.Chemscore.Hbond.Weighted>
-6.4551

> <Gold.Chemscore.Metal.Weighted>
-0.0000

> <Gold.Chemscore.Lipo.Weighted>
-4.5851

> <Gold.Chemscore.Internal_Hbond.Weighted>
0.0000

> <Gold.Chemscore.DEClash.Weighted>
0.0004

> <Gold.Chemscore.DEInternal.Weighted>
1.2193

> <Gold.Chemscore.Rot.Weighted>
5.3594

> <Gold.Chemscore.Internal.Correction.Weighted>
   9.000000E+99

> <Gold.Protein.RotatedTorsions>
[ 6907 6896 6895 6894 ] final  104.42 input  -60.11 | X-H torsion
[ 7974 7965 7964 7962 ] final  -21.81 input  175.53 | X-H torsion
[ 8008 7997 7996 7995 ] final  -13.91 input   59.86 | X-H torsion
[ 10167 10162 10161 10158 ] final  -75.62 input  -65.29 | X-H torsion
[ 10718 10713 10712 10709 ] final  121.04 input   66.30 | X-H torsion
[ 10763 10752 10751 10750 ] final  -31.31 input  -60.55 | X-H torsion
[ 11005 11000 10999 10996 ] final  -14.87 input  -57.11 | X-H torsion

> <Gold.Protein.ActiveResidues>
 VAL166  LYS551  ARG553  GLY616  TRP617  ASP618  TYR619  PRO620  LYS621  CYS622 
 ASP623  PHE694  ASN695  SER759  ASP760  ASP761  ALA762  ILE779  LEU786  VAL792 
 PHE793  MET794  SER795  GLU796  ALA797  LYS798  CYS799  TRP800  GLU811  SER814 

> <Gold.Protein.RotatedAtoms>
  152.5265  133.9679  159.7747 H   0  0  0  0  0  0  0  0  0  0  0  0  # atno 6907 bound_to 6896
  150.9957  133.6098  159.2709 H   0  0  0  0  0  0  0  0  0  0  0  0  # atno 6908 bound_to 6896
  151.3225  135.0828  159.9364 H   0  0  0  0  0  0  0  0  0  0  0  0  # atno 6909 bound_to 6896
  146.1712  140.4392  142.8532 H   0  0  0  0  0  0  0  0  0  0  0  0  # atno 7974 bound_to 7965
  154.5253  140.2237  155.8901 H   0  0  0  0  0  0  0  0  0  0  0  0  # atno 8008 bound_to 7997
  156.1706  140.3122  155.8932 H   0  0  0  0  0  0  0  0  0  0  0  0  # atno 8009 bound_to 7997
  155.3565  140.0458  157.3037 H   0  0  0  0  0  0  0  0  0  0  0  0  # atno 8010 bound_to 7997
  140.4927  143.2377  151.7880 H   0  0  0  0  0  0  0  0  0  0  0  0  # atno 10167 bound_to 10162
  157.5847  131.1071  150.8119 H   0  0  0  0  0  0  0  0  0  0  0  0  # atno 10718 bound_to 10713
  153.7952  135.6894  153.4865 H   0  0  0  0  0  0  0  0  0  0  0  0  # atno 10763 bound_to 10752
  153.1724  135.4537  154.9918 H   0  0  0  0  0  0  0  0  0  0  0  0  # atno 10764 bound_to 10752
  154.8029  135.3345  154.7445 H   0  0  0  0  0  0  0  0  0  0  0  0  # atno 10765 bound_to 10752
  140.7908  133.8289  155.9378 H   0  0  0  0  0  0  0  0  0  0  0  0  # atno 11005 bound_to 11000
  144.8166  140.6478  143.6380 LP  0  0  0  0  0  0  0  0  0  0  0  0  # atno 17320 bound_to 7965
  145.4336  139.1545  143.4009 LP  0  0  0  0  0  0  0  0  0  0  0  0  # atno 17321 bound_to 7965
  139.4855  144.4627  151.9521 LP  0  0  0  0  0  0  0  0  0  0  0  0  # atno 17342 bound_to 10162
  140.3714  144.2850  150.5919 LP  0  0  0  0  0  0  0  0  0  0  0  0  # atno 17343 bound_to 10162
  156.8556  130.5095  149.5308 LP  0  0  0  0  0  0  0  0  0  0  0  0  # atno 17370 bound_to 10713
  156.0895  130.5884  150.9707 LP  0  0  0  0  0  0  0  0  0  0  0  0  # atno 17371 bound_to 10713
  140.9391  134.1924  157.4810 LP  0  0  0  0  0  0  0  0  0  0  0  0  # atno 17394 bound_to 11000
  139.8731  134.9864  156.5325 LP  0  0  0  0  0  0  0  0  0  0  0  0  # atno 17395 bound_to 11000

$$$$
