AV-unprocessed.smi:790|AV-procd|sdf|3743|dock5
  -GOLD-   22720 1173D 1   1.00000     0.00000
 Structure written by MMmdl.
 38 40  0  0  0  0  0  0  0  0  1 V2000
  145.7249  137.5226  154.4643 O   0  0  0  0  0  0  0  0  0  0  0  0
  146.6317  137.0084  153.8110 C   0  0  0  0  0  0  0  0  0  0  0  0
  147.8222  137.5743  153.5482 N   0  0  0  0  0  0  0  0  0  0  0  0
  148.2968  138.8631  153.9154 C   0  0  0  0  0  0  0  0  0  0  0  0
  147.3795  139.9338  153.8876 C   0  0  0  0  0  0  0  0  0  0  0  0
  147.8123  141.2202  154.2609 C   0  0  0  0  0  0  0  0  0  0  0  0
  149.1530  141.3862  154.6577 C   0  0  0  0  0  0  0  0  0  0  0  0
  150.0414  140.3714  154.7034 N   0  0  0  0  0  0  0  0  0  0  0  0
  149.6196  139.1397  154.3432 C   0  0  0  0  0  0  0  0  0  0  0  0
  146.5569  135.7782  153.2840 N   0  0  0  0  0  0  0  0  0  0  0  0
  145.3964  134.8888  153.3649 C   0  0  1  0  0  0  0  0  0  0  0  0
  144.1816  135.4344  152.5735 C   0  0  1  0  0  0  0  0  0  0  0  0
  144.5752  135.8214  151.1319 C   0  0  0  0  0  0  0  0  0  0  0  0
  144.8377  134.4533  150.4776 C   0  0  0  0  0  0  0  0  0  0  0  0
  144.5262  133.4596  151.6165 C   0  0  2  0  0  0  0  0  0  0  0  0
  143.3731  134.1664  152.3191 C   0  0  0  0  0  0  0  0  0  0  0  0
  145.6082  133.4858  152.7241 C   0  0  1  0  0  0  0  0  0  0  0  0
  147.0401  133.1105  152.2797 C   0  0  0  0  0  0  0  0  0  0  0  0
  147.0500  131.8294  151.6862 O   0  0  0  0  0  0  0  0  0  0  0  0
  148.4886  136.9939  153.0599 H   0  0  0  0  0  0  0  0  0  0  0  0
  146.3558  139.7748  153.5811 H   0  0  0  0  0  0  0  0  0  0  0  0
  147.1332  142.0597  154.2443 H   0  0  0  0  0  0  0  0  0  0  0  0
  149.5201  142.3587  154.9502 H   0  0  0  0  0  0  0  0  0  0  0  0
  150.3698  138.3695  154.4257 H   0  0  0  0  0  0  0  0  0  0  0  0
  147.3555  135.4315  152.7733 H   0  0  0  0  0  0  0  0  0  0  0  0
  145.1019  134.7647  154.4090 H   0  0  0  0  0  0  0  0  0  0  0  0
  143.6399  136.2214  153.0992 H   0  0  0  0  0  0  0  0  0  0  0  0
  143.7443  136.3227  150.6336 H   0  0  0  0  0  0  0  0  0  0  0  0
  145.4346  136.4890  151.0722 H   0  0  0  0  0  0  0  0  0  0  0  0
  144.1557  134.2995  149.6404 H   0  0  0  0  0  0  0  0  0  0  0  0
  145.8506  134.3604  150.0881 H   0  0  0  0  0  0  0  0  0  0  0  0
  144.2905  132.4549  151.2640 H   0  0  0  0  0  0  0  0  0  0  0  0
  143.0495  133.6678  153.2347 H   0  0  0  0  0  0  0  0  0  0  0  0
  142.5051  134.3259  151.6766 H   0  0  0  0  0  0  0  0  0  0  0  0
  145.3172  132.7477  153.4742 H   0  0  0  0  0  0  0  0  0  0  0  0
  147.4595  133.8339  151.5815 H   0  0  0  0  0  0  0  0  0  0  0  0
  147.7043  133.0840  153.1437 H   0  0  0  0  0  0  0  0  0  0  0  0
  147.7669  131.7882  151.0718 H   0  0  0  0  0  0  0  0  0  0  0  0
  1  2  2  0  0  0  0
  2  3  1  0  0  0  0
  2 10  1  0  0  0  0
  3  4  1  0  0  0  0
  3 20  1  0  0  0  0
  4  9  1  0  0  0  0
  4  5  2  0  0  0  0
  5  6  1  0  0  0  0
  5 21  1  0  0  0  0
  6  7  2  0  0  0  0
  6 22  1  0  0  0  0
  7  8  1  0  0  0  0
  7 23  1  0  0  0  0
  8  9  2  0  0  0  0
  9 24  1  0  0  0  0
 10 11  1  0  0  0  0
 10 25  1  0  0  0  0
 11 17  1  0  0  0  0
 11 12  1  0  0  0  0
 11 26  1  0  0  0  0
 12 16  1  0  0  0  0
 12 13  1  0  0  0  0
 12 27  1  0  0  0  0
 13 14  1  0  0  0  0
 13 28  1  0  0  0  0
 13 29  1  0  0  0  0
 14 15  1  0  0  0  0
 14 30  1  0  0  0  0
 14 31  1  0  0  0  0
 15 16  1  0  0  0  0
 15 17  1  0  0  0  0
 15 32  1  0  0  0  0
 16 33  1  0  0  0  0
 16 34  1  0  0  0  0
 17 18  1  0  0  0  0
 17 35  1  0  0  0  0
 18 19  1  0  0  0  0
 18 36  1  0  0  0  0
 18 37  1  0  0  0  0
 19 38  1  0  0  0  0
M  END
> <s_m_source_file>
AV-unprocessed.smi

> <i_m_source_file_index>
790

> <i_lp_mmshare_version>
43012

> <i_f3d_flags>
0

> <s_epik_input>
W0NIMl0xW0NIMl1bQ0BASF0oW0NIMl0yKVtDQEBIXShbQ0gyXVtPSF0pW0NAQEhdKFtDQEhdMTIpW05IXUMoPU8pW05IXWMzW2NIXVtjSF1bY0hdbltjSF0z

> <s_epik_cmdline>
J2VwaWtfcHl0aG9uJywgJy1waCcsICc3LjAnLCAnLXRuJywgJzgnLCAnLW1hJywgJzIwMCcsICctbWV0YWxfYmluZGluZycsICctaW1hZScsICc8aW5maWxlLm1hZT4nLCAnLW9tYWUnLCAnPG91dGZpbGUubWFlPic=

> <r_epik_Ionization_Penalty>
0.00497582

> <r_epik_Ionization_Penalty_Charging>
0

> <r_epik_Ionization_Penalty_Neutral>
0.00497582

> <r_epik_State_Penalty>
0.00358602

> <r_epik_Charging_Adjusted_Penalty>
0.00358602

> <i_epik_Tot_Q>
0

> <i_epik_Tot_abs_Q>
0

> <r_epik_Metal_State_Penalty>
-0

> <b_epik_Metal_Only>
0

> <s_lp_Force_Field>
OPLS_2005

> <r_lp_Energy>
55.7442

> <b_lp_Chiralities_Consistent>
1

> <s_lp_Variant>
AV-unprocessed.smi:790-4

> <Gold.Version>
5.8.1

> <Gold.Id.Protein>
6NUR|6NUR_protein|mol2

> <Gold.PLP.Fitness>
43.6651

> <Gold.PLP.PLP>
-30.4083

> <Gold.PLP.part.hbond>
-3.7787

> <Gold.PLP.part.metal>
0.0000

> <Gold.PLP.part.buried>
-1.3032

> <Gold.PLP.part.nonpolar>
-24.7918

> <Gold.PLP.part.repulsive>
0.2175

> <Gold.PLP.ligand.clash>
0.0000

> <Gold.PLP.ligand.torsion>
0.3240

> <Gold.PLP.Chemscore.Hbond>
3.6320

> <Gold.PLP.Chemscore.CHOScore>
1.0000

> <Gold.PLP.Chemscore.Metal>
0.0000

> <Gold.Chemscore.Hbonds>
donor molecule, donor type, donor heavy atom, donor atom, acceptor molecule, acceptor atom, score
      L1  H     3    20       P1  7948  0.89
      L1  H    10    25       P1  7948  0.75
      L1  H    19    38       P1 10747  0.99
      P1  H  7989  7998       L1     8  0.92
      L1  C     7    23       P1  8028  0.98

> <Gold.PLP.Chemscore.Internal.Correction>
0.0087

> <Gold.Rescore>
     Score         DG    S(hbond)    S(metal)    S(lipo)     H(rot)  DE(clash)    DE(int)     intcor
     18.42     -20.02       3.28        0.00      69.66       1.78       0.08       1.53       ----

> <Gold.Chemscore.Fitness>
18.4159

> <Gold.Chemscore.DG>
-20.0234

> <Gold.Chemscore.ZeroCoef>
-5.4800

> <Gold.Chemscore.Hbond>
3.2771

> <Gold.Chemscore.Metal>
0.0000

> <Gold.Chemscore.Lipo>
69.6625

> <Gold.Chemscore.Internal_Hbond>
0.0000

> <Gold.Chemscore.DEClash>
0.0821

> <Gold.Chemscore.DEInternal>
1.5253

> <Gold.Chemscore.Rot>
1.7783

> <Gold.Chemscore.Internal.Correction>
   9.000000E+99

> <Gold.Chemscore.Hbonds>
donor molecule, donor type, donor heavy atom, donor atom, acceptor molecule, acceptor atom, score
      L1  H     3    20       P1  7948  0.84
      L1  H    10    25       P1  7948  0.71
      L1  H    19    38       P1 10747  0.93
      P1  H  7989  7998       L1     8  0.33

> <Gold.Chemscore.Hbond.Weighted>
-10.9454

> <Gold.Chemscore.Metal.Weighted>
-0.0000

> <Gold.Chemscore.Lipo.Weighted>
-8.1505

> <Gold.Chemscore.Internal_Hbond.Weighted>
0.0000

> <Gold.Chemscore.DEClash.Weighted>
0.0821

> <Gold.Chemscore.DEInternal.Weighted>
1.5253

> <Gold.Chemscore.Rot.Weighted>
4.5525

> <Gold.Chemscore.Internal.Correction.Weighted>
   9.000000E+99

> <Gold.Protein.RotatedTorsions>
[ 6907 6896 6895 6894 ] final  103.55 input  -60.11 | X-H torsion
[ 7974 7965 7964 7962 ] final   26.44 input  175.53 | X-H torsion
[ 8008 7997 7996 7995 ] final   40.37 input   59.86 | X-H torsion
[ 10167 10162 10161 10158 ] final -100.71 input  -65.29 | X-H torsion
[ 10718 10713 10712 10709 ] final  -40.18 input   66.30 | X-H torsion
[ 10763 10752 10751 10750 ] final   74.80 input  -60.55 | X-H torsion
[ 11005 11000 10999 10996 ] final  151.83 input  -57.11 | X-H torsion

> <Gold.Protein.ActiveResidues>
 VAL166  LYS551  ARG553  GLY616  TRP617  ASP618  TYR619  PRO620  LYS621  CYS622 
 ASP623  PHE694  ASN695  SER759  ASP760  ASP761  ALA762  ILE779  LEU786  VAL792 
 PHE793  MET794  SER795  GLU796  ALA797  LYS798  CYS799  TRP800  GLU811  SER814 

> <Gold.Protein.RotatedAtoms>
  152.5292  133.9809  159.7805 H   0  0  0  0  0  0  0  0  0  0  0  0  # atno 6907 bound_to 6896
  151.0062  133.6000  159.2695 H   0  0  0  0  0  0  0  0  0  0  0  0  # atno 6908 bound_to 6896
  151.3091  135.0796  159.9319 H   0  0  0  0  0  0  0  0  0  0  0  0  # atno 6909 bound_to 6896
  146.1837  139.7328  142.8882 H   0  0  0  0  0  0  0  0  0  0  0  0  # atno 7974 bound_to 7965
  155.2520  140.3353  155.4281 H   0  0  0  0  0  0  0  0  0  0  0  0  # atno 8008 bound_to 7997
  156.2212  140.1809  156.7517 H   0  0  0  0  0  0  0  0  0  0  0  0  # atno 8009 bound_to 7997
  154.5828  140.0651  156.9113 H   0  0  0  0  0  0  0  0  0  0  0  0  # atno 8010 bound_to 7997
  140.2490  143.3485  152.0732 H   0  0  0  0  0  0  0  0  0  0  0  0  # atno 10167 bound_to 10162
  156.2842  130.4220  149.8305 H   0  0  0  0  0  0  0  0  0  0  0  0  # atno 10718 bound_to 10713
  153.0611  135.5012  154.8095 H   0  0  0  0  0  0  0  0  0  0  0  0  # atno 10763 bound_to 10752
  154.6884  135.2980  154.9517 H   0  0  0  0  0  0  0  0  0  0  0  0  # atno 10764 bound_to 10752
  154.0280  135.6733  153.4831 H   0  0  0  0  0  0  0  0  0  0  0  0  # atno 10765 bound_to 10752
  140.1253  134.8837  157.2129 H   0  0  0  0  0  0  0  0  0  0  0  0  # atno 11005 bound_to 11000
  145.4000  141.0384  143.3075 LP  0  0  0  0  0  0  0  0  0  0  0  0  # atno 17320 bound_to 7965
  144.8360  139.5550  143.6922 LP  0  0  0  0  0  0  0  0  0  0  0  0  # atno 17321 bound_to 7965
  139.5052  144.6791  151.6055 LP  0  0  0  0  0  0  0  0  0  0  0  0  # atno 17342 bound_to 10162
  140.6055  143.9532  150.6416 LP  0  0  0  0  0  0  0  0  0  0  0  0  # atno 17343 bound_to 10162
  156.5741  130.8437  151.3365 LP  0  0  0  0  0  0  0  0  0  0  0  0  # atno 17370 bound_to 10713
  157.7323  130.9714  150.1924 LP  0  0  0  0  0  0  0  0  0  0  0  0  # atno 17371 bound_to 10713
  140.2911  134.3239  155.7315 LP  0  0  0  0  0  0  0  0  0  0  0  0  # atno 17394 bound_to 11000
  141.2160  133.7535  156.9505 LP  0  0  0  0  0  0  0  0  0  0  0  0  # atno 17395 bound_to 11000

$$$$
