AV-unprocessed.smi:1005|AV-procd|sdf|4370|dock8
  -GOLD-   22720 2283D 1   1.00000     0.00000
 Structure written by MMmdl.
 57 59  0  0  0  0  0  0  0  0  3 V2000
  153.2457  143.0456  160.3252 C   0  0  0  0  0  0  0  0  0  0  0  0
  152.4812  142.6209  159.0838 C   0  0  0  0  0  0  0  0  0  0  0  0
  152.3134  141.2431  158.8181 C   0  0  0  0  0  0  0  0  0  0  0  0
  151.6088  140.8059  157.6752 C   0  0  0  0  0  0  0  0  0  0  0  0
  151.3159  139.5278  157.2320 N   0  0  0  0  0  0  0  0  0  0  0  0
  150.6266  139.7779  156.1224 C   0  0  0  0  0  0  0  0  0  0  0  0
  150.4315  141.0701  155.7974 N   0  0  0  0  0  0  0  0  0  0  0  0
  149.6922  141.5828  154.6573 C   0  0  0  0  0  0  0  0  0  0  0  0
  148.2922  140.9470  154.5185 C   0  0  2  0  0  0  0  0  0  0  0  0
  148.4119  139.8271  153.6651 O   0  0  0  0  0  0  0  0  0  0  0  0
  147.2369  141.9147  153.9376 C   0  0  0  0  0  0  0  0  0  0  0  0
  146.9025  143.0530  154.8351 N   0  3  1  0  0  0  0  0  0  0  0  0
  145.6687  143.7987  154.4753 C   0  0  0  0  0  0  0  0  0  0  0  0
  144.3990  143.0300  154.8899 C   0  0  0  0  0  0  0  0  0  0  0  0
  144.4605  142.7056  156.2749 O   0  0  0  0  0  0  0  0  0  0  0  0
  145.5729  141.8776  156.5953 C   0  0  2  0  0  0  0  0  0  0  0  0
  145.4632  141.4999  158.0854 C   0  0  0  0  0  0  0  0  0  0  0  0
  144.1678  140.8632  158.4423 N   0  3  0  0  0  0  0  0  0  0  0  0
  143.9197  139.6378  157.6505 C   0  0  0  0  0  0  0  0  0  0  0  0
  144.0090  140.6102  159.8941 C   0  0  0  0  0  0  0  0  0  0  0  0
  146.8639  142.6624  156.2662 C   0  0  0  0  0  0  0  0  0  0  0  0
  151.0763  141.7934  156.7963 C   0  0  0  0  0  0  0  0  0  0  0  0
  151.2422  143.1676  157.0468 C   0  0  0  0  0  0  0  0  0  0  0  0
  151.9417  143.5869  158.1971 C   0  0  0  0  0  0  0  0  0  0  0  0
  152.1063  145.0727  158.4637 C   0  0  0  0  0  0  0  0  0  0  0  0
  153.6173  142.1830  160.8791 H   0  0  0  0  0  0  0  0  0  0  0  0
  152.6026  143.6195  160.9925 H   0  0  0  0  0  0  0  0  0  0  0  0
  154.1030  143.6623  160.0542 H   0  0  0  0  0  0  0  0  0  0  0  0
  152.7242  140.5073  159.4940 H   0  0  0  0  0  0  0  0  0  0  0  0
  150.2317  138.9758  155.5157 H   0  0  0  0  0  0  0  0  0  0  0  0
  149.6105  142.6655  154.7651 H   0  0  0  0  0  0  0  0  0  0  0  0
  150.2803  141.4051  153.7555 H   0  0  0  0  0  0  0  0  0  0  0  0
  147.9805  140.5934  155.5007 H   0  0  0  0  0  0  0  0  0  0  0  0
  149.0671  140.0118  153.0092 H   0  0  0  0  0  0  0  0  0  0  0  0
  147.5712  142.3109  152.9808 H   0  0  0  0  0  0  0  0  0  0  0  0
  146.3306  141.3437  153.7308 H   0  0  0  0  0  0  0  0  0  0  0  0
  145.6900  144.7549  154.9997 H   0  0  0  0  0  0  0  0  0  0  0  0
  145.6425  144.0413  153.4144 H   0  0  0  0  0  0  0  0  0  0  0  0
  143.5178  143.6472  154.7152 H   0  0  0  0  0  0  0  0  0  0  0  0
  144.2671  142.1254  154.2949 H   0  0  0  0  0  0  0  0  0  0  0  0
  145.5058  140.9746  155.9889 H   0  0  0  0  0  0  0  0  0  0  0  0
  146.2812  140.8202  158.3295 H   0  0  0  0  0  0  0  0  0  0  0  0
  145.6068  142.3848  158.7075 H   0  0  0  0  0  0  0  0  0  0  0  0
  144.6685  138.8745  157.8663 H   0  0  0  0  0  0  0  0  0  0  0  0
  143.9484  139.8527  156.5818 H   0  0  0  0  0  0  0  0  0  0  0  0
  142.9357  139.2248  157.8750 H   0  0  0  0  0  0  0  0  0  0  0  0
  144.8013  139.9604  160.2678 H   0  0  0  0  0  0  0  0  0  0  0  0
  143.0529  140.1266  160.0968 H   0  0  0  0  0  0  0  0  0  0  0  0
  144.0230  141.5351  160.4694 H   0  0  0  0  0  0  0  0  0  0  0  0
  147.7518  142.0828  156.5210 H   0  0  0  0  0  0  0  0  0  0  0  0
  146.9076  143.5682  156.8723 H   0  0  0  0  0  0  0  0  0  0  0  0
  150.8306  143.8938  156.3619 H   0  0  0  0  0  0  0  0  0  0  0  0
  151.5750  145.6714  157.7233 H   0  0  0  0  0  0  0  0  0  0  0  0
  153.1598  145.3508  158.4275 H   0  0  0  0  0  0  0  0  0  0  0  0
  151.7128  145.3329  159.4465 H   0  0  0  0  0  0  0  0  0  0  0  0
  143.4408  141.5126  158.1780 H   0  0  0  0  0  0  0  0  0  0  0  0
  147.6718  143.7009  154.7362 H   0  0  0  0  0  0  0  0  0  0  0  0
  1  2  1  0  0  0  0
  1 26  1  0  0  0  0
  1 27  1  0  0  0  0
  1 28  1  0  0  0  0
  2 24  1  0  0  0  0
  2  3  2  0  0  0  0
  3  4  1  0  0  0  0
  3 29  1  0  0  0  0
  4 22  2  0  0  0  0
  4  5  1  0  0  0  0
  5  6  2  0  0  0  0
  6  7  1  0  0  0  0
  6 30  1  0  0  0  0
  7  8  1  0  0  0  0
  7 22  1  0  0  0  0
  8  9  1  0  0  0  0
  8 31  1  0  0  0  0
  8 32  1  0  0  0  0
  9 10  1  0  0  0  0
  9 11  1  0  0  0  0
  9 33  1  0  0  0  0
 10 34  1  0  0  0  0
 11 12  1  0  0  0  0
 11 35  1  0  0  0  0
 11 36  1  0  0  0  0
 12 21  1  0  0  0  0
 12 13  1  0  0  0  0
 12 57  1  0  0  0  0
 13 14  1  0  0  0  0
 13 37  1  0  0  0  0
 13 38  1  0  0  0  0
 14 15  1  0  0  0  0
 14 39  1  0  0  0  0
 14 40  1  0  0  0  0
 15 16  1  0  0  0  0
 16 17  1  0  0  0  0
 16 21  1  0  0  0  0
 16 41  1  0  0  0  0
 17 18  1  0  0  0  0
 17 42  1  0  0  0  0
 17 43  1  0  0  0  0
 18 19  1  0  0  0  0
 18 20  1  0  0  0  0
 18 56  1  0  0  0  0
 19 44  1  0  0  0  0
 19 45  1  0  0  0  0
 19 46  1  0  0  0  0
 20 47  1  0  0  0  0
 20 48  1  0  0  0  0
 20 49  1  0  0  0  0
 21 50  1  0  0  0  0
 21 51  1  0  0  0  0
 22 23  1  0  0  0  0
 23 24  2  0  0  0  0
 23 52  1  0  0  0  0
 24 25  1  0  0  0  0
 25 53  1  0  0  0  0
 25 54  1  0  0  0  0
 25 55  1  0  0  0  0
M  CHG  1  12   1
M  CHG  1  18   1
M  END
> <s_m_source_file>
AV-unprocessed.smi

> <i_m_source_file_index>
1005

> <i_lp_mmshare_version>
43012

> <i_f3d_flags>
0

> <s_epik_input>
W0NIM11jKFtjSF0xKWMoW0NIM10pW2NIXWMoYzEyKW4oW2NIXW4yKVtDSDJdW0NASF0oW09IXSlbQ0gyXU4zW0NIMl1bQ0gyXU9bQ0BIXShbQ0gyXTMpW0NIMl1OKFtDSDNdKVtDSDNd

> <s_epik_cmdline>
J2VwaWtfcHl0aG9uJywgJy1waCcsICc3LjAnLCAnLXRuJywgJzgnLCAnLW1hJywgJzIwMCcsICctbWV0YWxfYmluZGluZycsICctaW1hZScsICc8aW5maWxlLm1hZT4nLCAnLW9tYWUnLCAnPG91dGZpbGUubWFlPic=

> <r_epik_Ionization_Penalty>
1.0968

> <r_epik_Ionization_Penalty_Charging>
1.0096

> <r_epik_Ionization_Penalty_Neutral>
0.0871956

> <r_epik_State_Penalty>
1.31185

> <r_epik_Charging_Adjusted_Penalty>
2.32145

> <i_epik_Tot_Q>
2

> <i_epik_Tot_abs_Q>
2

> <r_epik_Metal_State_Penalty>
1.22442

> <b_epik_Metal_Only>
0

> <s_lp_Force_Field>
OPLS_2005

> <r_lp_Energy>
36.3086

> <b_lp_Chiralities_Consistent>
1

> <s_lp_Variant>
AV-unprocessed.smi:1005-9

> <Gold.Version>
5.8.1

> <Gold.Id.Protein>
6NUR|6NUR_protein|mol2

> <Gold.PLP.Fitness>
51.4114

> <Gold.PLP.PLP>
-43.7254

> <Gold.PLP.part.hbond>
-2.0000

> <Gold.PLP.part.metal>
0.0000

> <Gold.PLP.part.buried>
-4.1533

> <Gold.PLP.part.nonpolar>
-37.7602

> <Gold.PLP.part.repulsive>
0.1927

> <Gold.PLP.ligand.clash>
0.0000

> <Gold.PLP.ligand.torsion>
0.7273

> <Gold.PLP.Chemscore.Hbond>
2.9920

> <Gold.PLP.Chemscore.CHOScore>
0.0000

> <Gold.PLP.Chemscore.Metal>
0.0000

> <Gold.Chemscore.Hbonds>
donor molecule, donor type, donor heavy atom, donor atom, acceptor molecule, acceptor atom, score
      L1  H    10    34       P1  7957  0.99
      L1  H    12    57       P1  8028  1.70

> <Gold.PLP.Chemscore.Internal.Correction>
0.1645

> <Gold.Rescore>
     Score         DG    S(hbond)    S(metal)    S(lipo)     H(rot)  DE(clash)    DE(int)     intcor
     15.92     -16.91       1.34        0.00     113.63       2.48       0.12       0.86       ----

> <Gold.Chemscore.Fitness>
15.9217

> <Gold.Chemscore.DG>
-16.9065

> <Gold.Chemscore.ZeroCoef>
-5.4800

> <Gold.Chemscore.Hbond>
1.3426

> <Gold.Chemscore.Metal>
0.0000

> <Gold.Chemscore.Lipo>
113.6280

> <Gold.Chemscore.Internal_Hbond>
0.0000

> <Gold.Chemscore.DEClash>
0.1198

> <Gold.Chemscore.DEInternal>
0.8650

> <Gold.Chemscore.Rot>
2.4814

> <Gold.Chemscore.Internal.Correction>
   9.000000E+99

> <Gold.Chemscore.Hbonds>
donor molecule, donor type, donor heavy atom, donor atom, acceptor molecule, acceptor atom, score
      L1  H    10    34       P1  7957  0.94
      L1  H    12    57       P1  8028  0.19

> <Gold.Chemscore.Hbond.Weighted>
-4.4843

> <Gold.Chemscore.Metal.Weighted>
-0.0000

> <Gold.Chemscore.Lipo.Weighted>
-13.2945

> <Gold.Chemscore.Internal_Hbond.Weighted>
0.0000

> <Gold.Chemscore.DEClash.Weighted>
0.1198

> <Gold.Chemscore.DEInternal.Weighted>
0.8650

> <Gold.Chemscore.Rot.Weighted>
6.3524

> <Gold.Chemscore.Internal.Correction.Weighted>
   9.000000E+99

> <Gold.Protein.RotatedTorsions>
[ 6907 6896 6895 6894 ] final   53.84 input  -60.11 | X-H torsion
[ 7974 7965 7964 7962 ] final  -62.33 input  175.53 | X-H torsion
[ 8008 7997 7996 7995 ] final   27.06 input   59.86 | X-H torsion
[ 10167 10162 10161 10158 ] final  133.41 input  -65.29 | X-H torsion
[ 10718 10713 10712 10709 ] final  116.24 input   66.30 | X-H torsion
[ 10763 10752 10751 10750 ] final  -75.29 input  -60.55 | X-H torsion
[ 11005 11000 10999 10996 ] final   71.66 input  -57.11 | X-H torsion

> <Gold.Protein.ActiveResidues>
 VAL166  LYS551  ARG553  GLY616  TRP617  ASP618  TYR619  PRO620  LYS621  CYS622 
 ASP623  PHE694  ASN695  SER759  ASP760  ASP761  ALA762  ILE779  LEU786  VAL792 
 PHE793  MET794  SER795  GLU796  ALA797  LYS798  CYS799  TRP800  GLU811  SER814 

> <Gold.Protein.RotatedAtoms>
  152.3378  134.7174  160.0271 H   0  0  0  0  0  0  0  0  0  0  0  0  # atno 6907 bound_to 6896
  151.7569  133.3325  159.3415 H   0  0  0  0  0  0  0  0  0  0  0  0  # atno 6908 bound_to 6896
  150.7461  134.6073  159.6112 H   0  0  0  0  0  0  0  0  0  0  0  0  # atno 6909 bound_to 6896
  145.7926  140.8701  143.0273 H   0  0  0  0  0  0  0  0  0  0  0  0  # atno 7974 bound_to 7965
  155.0370  140.3165  155.4738 H   0  0  0  0  0  0  0  0  0  0  0  0  # atno 8008 bound_to 7997
  156.2862  140.2170  156.5435 H   0  0  0  0  0  0  0  0  0  0  0  0  # atno 8009 bound_to 7997
  154.7322  140.0480  157.0725 H   0  0  0  0  0  0  0  0  0  0  0  0  # atno 8010 bound_to 7997
  139.5298  144.6617  151.4992 H   0  0  0  0  0  0  0  0  0  0  0  0  # atno 10167 bound_to 10162
  157.6173  131.1023  150.7444 H   0  0  0  0  0  0  0  0  0  0  0  0  # atno 10718 bound_to 10713
  154.4846  135.5836  153.6414 H   0  0  0  0  0  0  0  0  0  0  0  0  # atno 10763 bound_to 10752
  152.9853  135.6098  154.3202 H   0  0  0  0  0  0  0  0  0  0  0  0  # atno 10764 bound_to 10752
  154.3097  135.2845  155.2551 H   0  0  0  0  0  0  0  0  0  0  0  0  # atno 10765 bound_to 10752
  139.9531  134.7191  156.0815 H   0  0  0  0  0  0  0  0  0  0  0  0  # atno 11005 bound_to 11000
  144.6779  140.0145  143.7484 LP  0  0  0  0  0  0  0  0  0  0  0  0  # atno 17320 bound_to 7965
  145.9961  139.3054  143.0955 LP  0  0  0  0  0  0  0  0  0  0  0  0  # atno 17321 bound_to 7965
  140.6468  143.8778  150.6745 LP  0  0  0  0  0  0  0  0  0  0  0  0  # atno 17342 bound_to 10162
  140.2130  143.3868  152.1703 LP  0  0  0  0  0  0  0  0  0  0  0  0  # atno 17343 bound_to 10162
  156.7809  130.4859  149.5401 LP  0  0  0  0  0  0  0  0  0  0  0  0  # atno 17370 bound_to 10713
  156.1301  130.6172  151.0320 LP  0  0  0  0  0  0  0  0  0  0  0  0  # atno 17371 bound_to 10713
  141.1198  133.6616  156.3186 LP  0  0  0  0  0  0  0  0  0  0  0  0  # atno 17394 bound_to 11000
  140.5671  134.5876  157.5448 LP  0  0  0  0  0  0  0  0  0  0  0  0  # atno 17395 bound_to 11000

$$$$
