AV-unprocessed.smi:2777|AV-procd|sdf|10709|dock7
  -GOLD-   2272015143D 1   1.00000     0.00000
 Structure written by MMmdl.
 31 32  0  0  0  0  0  0  0  0  1 V2000
  151.6480  144.3833  160.8285 C   0  0  0  0  0  0  0  0  0  0  0  0
  152.0393  143.1463  160.1263 N   0  0  0  0  0  0  0  0  0  0  0  0
  151.4700  142.8852  158.9074 C   0  0  0  0  0  0  0  0  0  0  0  0
  150.6436  143.6063  158.3479 O   0  0  0  0  0  0  0  0  0  0  0  0
  151.9294  141.6350  158.2930 C   0  0  0  0  0  0  0  0  0  0  0  0
  152.8293  140.8121  158.8842 C   0  0  0  0  0  0  0  0  0  0  0  0
  153.0892  139.6955  158.0979 N   0  0  0  0  0  0  0  0  0  0  0  0
  152.3076  139.9132  157.0398 C   0  0  0  0  0  0  0  0  0  0  0  0
  151.5809  141.0488  157.0760 N   0  0  0  0  0  0  0  0  0  0  0  0
  150.6591  141.5062  156.0469 C   0  0  0  0  0  0  0  0  0  0  0  0
  149.1984  141.5642  156.5396 C   0  0  1  0  0  0  0  0  0  0  0  0
  148.3552  142.0500  155.5121 O   0  0  0  0  0  0  0  0  0  0  0  0
  148.6771  140.1954  157.0165 C   0  0  0  0  0  0  0  0  0  0  0  0
  149.4503  139.7247  157.9953 F   0  0  0  0  0  0  0  0  0  0  0  0
  147.4177  140.2863  157.4458 F   0  0  0  0  0  0  0  0  0  0  0  0
  148.7208  139.3280  156.0052 F   0  0  0  0  0  0  0  0  0  0  0  0
  153.3546  141.1740  160.1491 N   0  0  0  0  0  0  0  0  0  0  0  0
  154.3232  140.2573  160.7573 C   0  0  0  0  0  0  0  0  0  0  0  0
  152.9631  142.3374  160.7667 C   0  0  0  0  0  0  0  0  0  0  0  0
  153.4245  142.6524  161.8670 O   0  0  0  0  0  0  0  0  0  0  0  0
  150.9214  145.0020  160.3010 H   0  0  0  0  0  0  0  0  0  0  0  0
  152.5214  145.0138  161.0027 H   0  0  0  0  0  0  0  0  0  0  0  0
  151.2068  144.1469  161.7982 H   0  0  0  0  0  0  0  0  0  0  0  0
  152.2609  139.2233  156.2100 H   0  0  0  0  0  0  0  0  0  0  0  0
  150.9858  142.4743  155.6700 H   0  0  0  0  0  0  0  0  0  0  0  0
  150.7340  140.8201  155.2025 H   0  0  0  0  0  0  0  0  0  0  0  0
  149.1349  142.2696  157.3693 H   0  0  0  0  0  0  0  0  0  0  0  0
  148.4044  142.9935  155.5033 H   0  0  0  0  0  0  0  0  0  0  0  0
  154.7051  140.5814  161.7257 H   0  0  0  0  0  0  0  0  0  0  0  0
  155.1818  140.1325  160.0966 H   0  0  0  0  0  0  0  0  0  0  0  0
  153.8669  139.2772  160.9005 H   0  0  0  0  0  0  0  0  0  0  0  0
  1  2  1  0  0  0  0
  1 21  1  0  0  0  0
  1 22  1  0  0  0  0
  1 23  1  0  0  0  0
  2 19  1  0  0  0  0
  2  3  1  0  0  0  0
  3  4  2  0  0  0  0
  3  5  1  0  0  0  0
  5  9  1  0  0  0  0
  5  6  2  0  0  0  0
  6  7  1  0  0  0  0
  6 17  1  0  0  0  0
  7  8  2  0  0  0  0
  8  9  1  0  0  0  0
  8 24  1  0  0  0  0
  9 10  1  0  0  0  0
 10 11  1  0  0  0  0
 10 25  1  0  0  0  0
 10 26  1  0  0  0  0
 11 12  1  0  0  0  0
 11 13  1  0  0  0  0
 11 27  1  0  0  0  0
 12 28  1  0  0  0  0
 13 14  1  0  0  0  0
 13 15  1  0  0  0  0
 13 16  1  0  0  0  0
 17 18  1  0  0  0  0
 17 19  1  0  0  0  0
 18 29  1  0  0  0  0
 18 30  1  0  0  0  0
 18 31  1  0  0  0  0
 19 20  2  0  0  0  0
M  END
> <s_m_source_file>
AV-unprocessed.smi

> <i_m_source_file_index>
2777

> <i_lp_mmshare_version>
43012

> <i_f3d_flags>
0

> <s_epik_input>
Tz1jMW4oW0NIM10pYyg9TyluKFtDSDNdKWMoYzEyKW5bY0hdbjJbQ0gyXVtDQEhdKFtPSF0pQyhGKShGKUY=

> <s_epik_cmdline>
J2VwaWtfcHl0aG9uJywgJy1waCcsICc3LjAnLCAnLXRuJywgJzgnLCAnLW1hJywgJzIwMCcsICctbWV0YWxfYmluZGluZycsICctaW1hZScsICc8aW5maWxlLm1hZT4nLCAnLW9tYWUnLCAnPG91dGZpbGUubWFlPic=

> <r_epik_Ionization_Penalty>
0.000551612

> <r_epik_Ionization_Penalty_Charging>
2.619e-09

> <r_epik_Ionization_Penalty_Neutral>
0.00055161

> <r_epik_State_Penalty>
0.000345115

> <r_epik_Charging_Adjusted_Penalty>
0.000345118

> <i_epik_Tot_Q>
0

> <i_epik_Tot_abs_Q>
0

> <r_epik_Metal_State_Penalty>
-0

> <b_epik_Metal_Only>
0

> <s_lp_Force_Field>
OPLS_2005

> <r_lp_Energy>
33.5503

> <b_lp_Chiralities_Consistent>
1

> <s_lp_Variant>
AV-unprocessed.smi:2777-2

> <Gold.Version>
5.8.1

> <Gold.Id.Protein>
6NUR|6NUR_protein|mol2

> <Gold.PLP.Fitness>
40.5032

> <Gold.PLP.PLP>
-34.5406

> <Gold.PLP.part.hbond>
-2.0000

> <Gold.PLP.part.metal>
0.0000

> <Gold.PLP.part.buried>
-3.6480

> <Gold.PLP.part.nonpolar>
-28.2901

> <Gold.PLP.part.repulsive>
0.1983

> <Gold.PLP.ligand.clash>
0.0000

> <Gold.PLP.ligand.torsion>
0.0239

> <Gold.PLP.Chemscore.Hbond>
2.0000

> <Gold.PLP.Chemscore.CHOScore>
0.0000

> <Gold.PLP.Chemscore.Metal>
0.0000

> <Gold.Chemscore.Hbonds>
donor molecule, donor type, donor heavy atom, donor atom, acceptor molecule, acceptor atom, score
      L1  H    12    28       P1  8028  1.00
      P1  H  7997  8009       L1     7  0.55

> <Gold.PLP.Chemscore.Internal.Correction>
0.0105

> <Gold.Rescore>
     Score         DG    S(hbond)    S(metal)    S(lipo)     H(rot)  DE(clash)    DE(int)     intcor
      6.72      -8.30       1.04        0.00      42.54       2.20       0.04       1.54       ----

> <Gold.Chemscore.Fitness>
6.7191

> <Gold.Chemscore.DG>
-8.2983

> <Gold.Chemscore.ZeroCoef>
-5.4800

> <Gold.Chemscore.Hbond>
1.0375

> <Gold.Chemscore.Metal>
0.0000

> <Gold.Chemscore.Lipo>
42.5391

> <Gold.Chemscore.Internal_Hbond>
0.0000

> <Gold.Chemscore.DEClash>
0.0410

> <Gold.Chemscore.DEInternal>
1.5383

> <Gold.Chemscore.Rot>
2.1969

> <Gold.Chemscore.Internal.Correction>
   9.000000E+99

> <Gold.Chemscore.Hbonds>
donor molecule, donor type, donor heavy atom, donor atom, acceptor molecule, acceptor atom, score
      L1  H    12    28       P1  8028  0.99
      P1  H  7997  8009       L1     7  0.02

> <Gold.Chemscore.Hbond.Weighted>
-3.4651

> <Gold.Chemscore.Metal.Weighted>
-0.0000

> <Gold.Chemscore.Lipo.Weighted>
-4.9771

> <Gold.Chemscore.Internal_Hbond.Weighted>
0.0000

> <Gold.Chemscore.DEClash.Weighted>
0.0410

> <Gold.Chemscore.DEInternal.Weighted>
1.5383

> <Gold.Chemscore.Rot.Weighted>
5.6239

> <Gold.Chemscore.Internal.Correction.Weighted>
   9.000000E+99

> <Gold.Protein.RotatedTorsions>
[ 6907 6896 6895 6894 ] final -169.30 input  -60.11 | X-H torsion
[ 7974 7965 7964 7962 ] final -100.83 input  175.53 | X-H torsion
[ 8008 7997 7996 7995 ] final  150.53 input   59.86 | X-H torsion
[ 10167 10162 10161 10158 ] final   14.81 input  -65.29 | X-H torsion
[ 10718 10713 10712 10709 ] final -157.40 input   66.30 | X-H torsion
[ 10763 10752 10751 10750 ] final  178.04 input  -60.55 | X-H torsion
[ 11005 11000 10999 10996 ] final -120.02 input  -57.11 | X-H torsion

> <Gold.Protein.ActiveResidues>
 VAL166  LYS551  ARG553  GLY616  TRP617  ASP618  TYR619  PRO620  LYS621  CYS622 
 ASP623  PHE694  ASN695  SER759  ASP760  ASP761  ALA762  ILE779  LEU786  VAL792 
 PHE793  MET794  SER795  GLU796  ALA797  LYS798  CYS799  TRP800  GLU811  SER814 

> <Gold.Protein.RotatedAtoms>
  151.4894  133.3528  159.2850 H   0  0  0  0  0  0  0  0  0  0  0  0  # atno 6907 bound_to 6896
  150.8845  134.8242  159.7260 H   0  0  0  0  0  0  0  0  0  0  0  0  # atno 6908 bound_to 6896
  152.4784  134.4796  159.9713 H   0  0  0  0  0  0  0  0  0  0  0  0  # atno 6909 bound_to 6896
  145.2895  140.9349  143.2886 H   0  0  0  0  0  0  0  0  0  0  0  0  # atno 7974 bound_to 7965
  156.2712  140.2072  156.6032 H   0  0  0  0  0  0  0  0  0  0  0  0  # atno 8008 bound_to 7997
  154.6890  140.0532  157.0367 H   0  0  0  0  0  0  0  0  0  0  0  0  # atno 8009 bound_to 7997
  155.0894  140.3195  155.4581 H   0  0  0  0  0  0  0  0  0  0  0  0  # atno 8010 bound_to 7997
  140.5910  143.8795  150.6874 H   0  0  0  0  0  0  0  0  0  0  0  0  # atno 10167 bound_to 10162
  156.5398  130.8558  151.2745 H   0  0  0  0  0  0  0  0  0  0  0  0  # atno 10718 bound_to 10713
  154.5024  135.2784  155.1410 H   0  0  0  0  0  0  0  0  0  0  0  0  # atno 10763 bound_to 10752
  154.3038  135.6243  153.5439 H   0  0  0  0  0  0  0  0  0  0  0  0  # atno 10764 bound_to 10752
  152.9904  135.5703  154.5470 H   0  0  0  0  0  0  0  0  0  0  0  0  # atno 10765 bound_to 10752
  141.0174  134.0175  157.3331 H   0  0  0  0  0  0  0  0  0  0  0  0  # atno 11005 bound_to 11000
  144.9184  139.4441  143.6553 LP  0  0  0  0  0  0  0  0  0  0  0  0  # atno 17320 bound_to 7965
  146.3189  139.8031  142.8961 LP  0  0  0  0  0  0  0  0  0  0  0  0  # atno 17321 bound_to 7965
  140.2318  143.3730  152.1559 LP  0  0  0  0  0  0  0  0  0  0  0  0  # atno 17342 bound_to 10162
  139.5227  144.7063  151.5344 LP  0  0  0  0  0  0  0  0  0  0  0  0  # atno 17343 bound_to 10162
  157.7407  130.9856  150.2397 LP  0  0  0  0  0  0  0  0  0  0  0  0  # atno 17370 bound_to 10713
  156.2982  130.3755  149.7776 LP  0  0  0  0  0  0  0  0  0  0  0  0  # atno 17371 bound_to 10713
  139.9125  135.0192  156.7750 LP  0  0  0  0  0  0  0  0  0  0  0  0  # atno 17394 bound_to 11000
  140.6632  133.9627  155.7816 LP  0  0  0  0  0  0  0  0  0  0  0  0  # atno 17395 bound_to 11000

$$$$
