AV-unprocessed.smi:1820|AV-procd|sdf|7385|dock6
  -GOLD-   22720 9 53D 1   1.00000     0.00000
 Structure written by MMmdl.
 35 36  0  0  0  0  0  0  0  0  2 V2000
  145.1337  138.2468  153.3567 O   0  0  0  0  0  0  0  0  0  0  0  0
  146.2145  137.6946  153.1522 C   0  0  0  0  0  0  0  0  0  0  0  0
  146.3334  136.4125  152.7810 N   0  0  0  0  0  0  0  0  0  0  0  0
  145.2185  135.5049  152.5231 C   0  0  0  0  0  0  0  0  0  0  0  0
  145.2592  134.8833  151.1031 C   0  0  0  0  0  0  0  0  0  0  0  0
  145.5067  135.9176  150.1705 O   0  0  0  0  0  0  0  0  0  0  0  0
  146.2597  133.7285  150.9351 C   0  0  0  0  0  0  0  0  0  0  0  0
  145.5302  132.4956  151.4777 C   0  0  0  0  0  0  0  0  0  0  0  0
  144.0303  132.7783  151.2976 C   0  0  0  0  0  0  0  0  0  0  0  0
  143.9234  134.2108  150.7551 C   0  0  0  0  0  0  0  0  0  0  0  0
  147.4197  138.2754  153.2830 N   0  0  0  0  0  0  0  0  0  0  0  0
  147.7237  139.6169  153.6422 C   0  0  0  0  0  0  0  0  0  0  0  0
  148.9377  139.8497  154.3262 C   0  0  0  0  0  0  0  0  0  0  0  0
  149.2889  141.1646  154.6936 C   0  0  0  0  0  0  0  0  0  0  0  0
  148.4703  142.1915  154.3803 N   0  3  0  0  0  0  0  0  0  0  0  0
  147.3085  142.0215  153.7138 C   0  0  0  0  0  0  0  0  0  0  0  0
  146.9041  140.7293  153.3211 C   0  0  0  0  0  0  0  0  0  0  0  0
  147.2608  136.0397  152.6400 H   0  0  0  0  0  0  0  0  0  0  0  0
  145.2911  134.7151  153.2712 H   0  0  0  0  0  0  0  0  0  0  0  0
  144.2594  135.9933  152.7060 H   0  0  0  0  0  0  0  0  0  0  0  0
  145.8465  135.5327  149.3773 H   0  0  0  0  0  0  0  0  0  0  0  0
  146.4616  133.5718  149.8742 H   0  0  0  0  0  0  0  0  0  0  0  0
  147.2231  133.8950  151.4167 H   0  0  0  0  0  0  0  0  0  0  0  0
  145.8428  131.5843  150.9671 H   0  0  0  0  0  0  0  0  0  0  0  0
  145.7544  132.3691  152.5377 H   0  0  0  0  0  0  0  0  0  0  0  0
  143.5633  132.0658  150.6167 H   0  0  0  0  0  0  0  0  0  0  0  0
  143.5184  132.6943  152.2570 H   0  0  0  0  0  0  0  0  0  0  0  0
  143.0593  134.7465  151.1503 H   0  0  0  0  0  0  0  0  0  0  0  0
  143.8013  134.1613  149.6715 H   0  0  0  0  0  0  0  0  0  0  0  0
  148.2168  137.6685  153.1600 H   0  0  0  0  0  0  0  0  0  0  0  0
  149.5946  139.0286  154.5747 H   0  0  0  0  0  0  0  0  0  0  0  0
  150.1945  141.4234  155.2225 H   0  0  0  0  0  0  0  0  0  0  0  0
  146.7425  142.9188  153.5108 H   0  0  0  0  0  0  0  0  0  0  0  0
  145.9809  140.6208  152.7727 H   0  0  0  0  0  0  0  0  0  0  0  0
  148.7431  143.1359  154.6542 H   0  0  0  0  0  0  0  0  0  0  0  0
  1  2  2  0  0  0  0
  2  3  1  0  0  0  0
  2 11  1  0  0  0  0
  3  4  1  0  0  0  0
  3 18  1  0  0  0  0
  4  5  1  0  0  0  0
  4 19  1  0  0  0  0
  4 20  1  0  0  0  0
  5 10  1  0  0  0  0
  5  6  1  0  0  0  0
  5  7  1  0  0  0  0
  6 21  1  0  0  0  0
  7  8  1  0  0  0  0
  7 22  1  0  0  0  0
  7 23  1  0  0  0  0
  8  9  1  0  0  0  0
  8 24  1  0  0  0  0
  8 25  1  0  0  0  0
  9 10  1  0  0  0  0
  9 26  1  0  0  0  0
  9 27  1  0  0  0  0
 10 28  1  0  0  0  0
 10 29  1  0  0  0  0
 11 12  1  0  0  0  0
 11 30  1  0  0  0  0
 12 17  1  0  0  0  0
 12 13  2  0  0  0  0
 13 14  1  0  0  0  0
 13 31  1  0  0  0  0
 14 15  2  0  0  0  0
 14 32  1  0  0  0  0
 15 16  1  0  0  0  0
 15 35  1  0  0  0  0
 16 17  2  0  0  0  0
 16 33  1  0  0  0  0
 17 34  1  0  0  0  0
M  CHG  1  15   1
M  END
> <s_m_source_file>
AV-unprocessed.smi

> <i_m_source_file_index>
1820

> <i_lp_mmshare_version>
43012

> <i_f3d_flags>
0

> <s_epik_input>
W2NIXTFbY0hdbltjSF1bY0hdYzFbTkhdQyg9TylbTkhdW0NIMl1DMihbT0hdKVtDSDJdW0NIMl1bQ0gyXVtDSDJdMg==

> <s_epik_cmdline>
J2VwaWtfcHl0aG9uJywgJy1waCcsICc3LjAnLCAnLXRuJywgJzgnLCAnLW1hJywgJzIwMCcsICctbWV0YWxfYmluZGluZycsICctaW1hZScsICc8aW5maWxlLm1hZT4nLCAnLW9tYWUnLCAnPG91dGZpbGUubWFlPic=

> <r_epik_Ionization_Penalty>
0.972463

> <r_epik_Ionization_Penalty_Charging>
0.972441

> <r_epik_Ionization_Penalty_Neutral>
2.25054e-05

> <r_epik_State_Penalty>
1.01855

> <r_epik_Charging_Adjusted_Penalty>
1.99099

> <i_epik_Tot_Q>
1

> <i_epik_Tot_abs_Q>
1

> <r_epik_Metal_State_Penalty>
1.12508

> <b_epik_Metal_Only>
0

> <s_lp_Force_Field>
OPLS_2005

> <r_lp_Energy>
34.043

> <b_lp_Chiralities_Consistent>
1

> <s_lp_Variant>
AV-unprocessed.smi:1820-2

> <Gold.Version>
5.8.1

> <Gold.Id.Protein>
6NUR|6NUR_protein|mol2

> <Gold.PLP.Fitness>
45.2924

> <Gold.PLP.PLP>
-31.5682

> <Gold.PLP.part.hbond>
-4.6924

> <Gold.PLP.part.metal>
0.0000

> <Gold.PLP.part.buried>
-5.6117

> <Gold.PLP.part.nonpolar>
-22.5157

> <Gold.PLP.part.repulsive>
0.4199

> <Gold.PLP.ligand.clash>
0.0000

> <Gold.PLP.ligand.torsion>
0.3669

> <Gold.PLP.Chemscore.Hbond>
4.8160

> <Gold.PLP.Chemscore.CHOScore>
0.0000

> <Gold.PLP.Chemscore.Metal>
0.0000

> <Gold.Chemscore.Hbonds>
donor molecule, donor type, donor heavy atom, donor atom, acceptor molecule, acceptor atom, score
      L1  H     3    18       P1  7948  0.96
      L1  H     6    21       P1  7921  1.00
      L1  H    11    30       P1  7948  0.76
      L1  H    15    35       P1  8028  2.00

> <Gold.PLP.Chemscore.Internal.Correction>
0.0100

> <Gold.Rescore>
     Score         DG    S(hbond)    S(metal)    S(lipo)     H(rot)  DE(clash)    DE(int)     intcor
     20.68     -22.03       3.81        0.00      71.92       1.79       0.48       0.87       ----

> <Gold.Chemscore.Fitness>
20.6826

> <Gold.Chemscore.DG>
-22.0343

> <Gold.Chemscore.ZeroCoef>
-5.4800

> <Gold.Chemscore.Hbond>
3.8059

> <Gold.Chemscore.Metal>
0.0000

> <Gold.Chemscore.Lipo>
71.9156

> <Gold.Chemscore.Internal_Hbond>
0.0000

> <Gold.Chemscore.DEClash>
0.4832

> <Gold.Chemscore.DEInternal>
0.8685

> <Gold.Chemscore.Rot>
1.7858

> <Gold.Chemscore.Internal.Correction>
   9.000000E+99

> <Gold.Chemscore.Hbonds>
donor molecule, donor type, donor heavy atom, donor atom, acceptor molecule, acceptor atom, score
      L1  H     3    18       P1  7948  0.92
      L1  H     6    21       P1  7921  0.99
      L1  H    11    30       P1  7948  0.72
      L1  H    15    35       P1  8028  1.00

> <Gold.Chemscore.Hbond.Weighted>
-12.7119

> <Gold.Chemscore.Metal.Weighted>
-0.0000

> <Gold.Chemscore.Lipo.Weighted>
-8.4141

> <Gold.Chemscore.Internal_Hbond.Weighted>
0.0000

> <Gold.Chemscore.DEClash.Weighted>
0.4832

> <Gold.Chemscore.DEInternal.Weighted>
0.8685

> <Gold.Chemscore.Rot.Weighted>
4.5717

> <Gold.Chemscore.Internal.Correction.Weighted>
   9.000000E+99

> <Gold.Protein.RotatedTorsions>
[ 6907 6896 6895 6894 ] final   95.64 input  -60.11 | X-H torsion
[ 7974 7965 7964 7962 ] final  -36.62 input  175.53 | X-H torsion
[ 8008 7997 7996 7995 ] final  115.84 input   59.86 | X-H torsion
[ 10167 10162 10161 10158 ] final -179.79 input  -65.29 | X-H torsion
[ 10718 10713 10712 10709 ] final -167.04 input   66.30 | X-H torsion
[ 10763 10752 10751 10750 ] final  107.69 input  -60.55 | X-H torsion
[ 11005 11000 10999 10996 ] final   56.69 input  -57.11 | X-H torsion

> <Gold.Protein.ActiveResidues>
 VAL166  LYS551  ARG553  GLY616  TRP617  ASP618  TYR619  PRO620  LYS621  CYS622 
 ASP623  PHE694  ASN695  SER759  ASP760  ASP761  ALA762  ILE779  LEU786  VAL792 
 PHE793  MET794  SER795  GLU796  ALA797  LYS798  CYS799  TRP800  GLU811  SER814 

> <Gold.Protein.RotatedAtoms>
  152.5442  134.1009  159.8317 H   0  0  0  0  0  0  0  0  0  0  0  0  # atno 6907 bound_to 6896
  151.1087  133.5182  159.2614 H   0  0  0  0  0  0  0  0  0  0  0  0  # atno 6908 bound_to 6896
  151.1909  135.0411  159.8886 H   0  0  0  0  0  0  0  0  0  0  0  0  # atno 6909 bound_to 6896
  146.0646  140.6300  142.8981 H   0  0  0  0  0  0  0  0  0  0  0  0  # atno 7974 bound_to 7965
  156.2405  140.2930  156.0430 H   0  0  0  0  0  0  0  0  0  0  0  0  # atno 8008 bound_to 7997
  155.1966  140.0408  157.2927 H   0  0  0  0  0  0  0  0  0  0  0  0  # atno 8009 bound_to 7997
  154.6159  140.2463  155.7618 H   0  0  0  0  0  0  0  0  0  0  0  0  # atno 8010 bound_to 7997
  139.5370  144.2468  152.0816 H   0  0  0  0  0  0  0  0  0  0  0  0  # atno 10167 bound_to 10162
  156.6766  130.9105  151.3051 H   0  0  0  0  0  0  0  0  0  0  0  0  # atno 10718 bound_to 10713
  153.4103  135.3836  155.2046 H   0  0  0  0  0  0  0  0  0  0  0  0  # atno 10763 bound_to 10752
  154.8737  135.3792  154.4509 H   0  0  0  0  0  0  0  0  0  0  0  0  # atno 10764 bound_to 10752
  153.5017  135.7088  153.5890 H   0  0  0  0  0  0  0  0  0  0  0  0  # atno 10765 bound_to 10752
  140.0510  134.5737  155.9264 H   0  0  0  0  0  0  0  0  0  0  0  0  # atno 11005 bound_to 11000
  144.7195  140.4324  143.7019 LP  0  0  0  0  0  0  0  0  0  0  0  0  # atno 17320 bound_to 7965
  145.6500  139.1563  143.2867 LP  0  0  0  0  0  0  0  0  0  0  0  0  # atno 17321 bound_to 7965
  140.1941  144.4723  150.6464 LP  0  0  0  0  0  0  0  0  0  0  0  0  # atno 17342 bound_to 10162
  140.6582  143.2244  151.5919 LP  0  0  0  0  0  0  0  0  0  0  0  0  # atno 17343 bound_to 10162
  157.7058  130.9384  150.0928 LP  0  0  0  0  0  0  0  0  0  0  0  0  # atno 17370 bound_to 10713
  156.1898  130.3654  149.8924 LP  0  0  0  0  0  0  0  0  0  0  0  0  # atno 17371 bound_to 10713
  141.1930  133.6577  156.5528 LP  0  0  0  0  0  0  0  0  0  0  0  0  # atno 17394 bound_to 11000
  140.3918  134.7434  157.4726 LP  0  0  0  0  0  0  0  0  0  0  0  0  # atno 17395 bound_to 11000

$$$$
