AV-unprocessed.smi:671|AV-procd|sdf|3276|dock1
  -GOLD-   22720 0233D 1   1.00000     0.00000
 Structure written by MMmdl.
 49 50  0  0  0  0  0  0  0  0  1 V2000
  153.3465  143.1425  162.5962 C   0  0  0  0  0  0  0  0  0  0  0  0
  152.5191  143.3535  161.3607 C   0  0  0  0  0  0  0  0  0  0  0  0
  151.4492  144.1295  161.4191 N   0  0  0  0  0  0  0  0  0  0  0  0
  150.9415  144.1117  160.1702 N   0  0  0  0  0  0  0  0  0  0  0  0
  149.7443  144.8755  159.8770 C   0  0  0  0  0  0  0  0  0  0  0  0
  151.6916  143.3212  159.3218 C   0  0  0  0  0  0  0  0  0  0  0  0
  151.3407  143.1332  157.8816 C   0  0  0  0  0  0  0  0  0  0  0  0
  152.7292  142.8155  160.0572 C   0  0  0  0  0  0  0  0  0  0  0  0
  153.8392  141.9032  159.6030 C   0  0  0  0  0  0  0  0  0  0  0  0
  154.1661  140.8097  160.6435 C   0  0  1  0  0  0  0  0  0  0  0  0
  153.7184  139.4117  160.1878 C   0  0  0  0  0  0  0  0  0  0  0  0
  155.6054  140.7801  160.9128 N   0  0  0  0  0  0  0  0  0  0  0  0
  156.6065  140.4612  160.0719 C   0  0  0  0  0  0  0  0  0  0  0  0
  156.3927  140.1349  158.9059 O   0  0  0  0  0  0  0  0  0  0  0  0
  157.8365  140.5257  160.6112 N   0  0  0  0  0  0  0  0  0  0  0  0
  159.0931  140.2546  159.9117 C   0  0  1  0  0  0  0  0  0  0  0  0
  159.2349  141.2127  158.7213 C   0  0  0  0  0  0  0  0  0  0  0  0
  160.0977  142.3599  159.2380 C   0  0  0  0  0  0  0  0  0  0  0  0
  161.0939  141.6878  160.1789 C   0  0  0  0  0  0  0  0  0  0  0  0
  160.3618  140.4754  160.7832 C   0  0  1  0  0  0  0  0  0  0  0  0
  160.1319  140.6252  162.2995 C   0  0  0  0  0  0  0  0  0  0  0  0
  153.4167  142.0827  162.8411 H   0  0  0  0  0  0  0  0  0  0  0  0
  152.9222  143.6538  163.4613 H   0  0  0  0  0  0  0  0  0  0  0  0
  154.3600  143.5182  162.4541 H   0  0  0  0  0  0  0  0  0  0  0  0
  148.9554  144.2043  159.5369 H   0  0  0  0  0  0  0  0  0  0  0  0
  149.9569  145.6025  159.0930 H   0  0  0  0  0  0  0  0  0  0  0  0
  149.3971  145.4054  160.7653 H   0  0  0  0  0  0  0  0  0  0  0  0
  151.9281  142.3294  157.4395 H   0  0  0  0  0  0  0  0  0  0  0  0
  151.5352  144.0431  157.3138 H   0  0  0  0  0  0  0  0  0  0  0  0
  150.2877  142.8766  157.7641 H   0  0  0  0  0  0  0  0  0  0  0  0
  153.5876  141.4303  158.6530 H   0  0  0  0  0  0  0  0  0  0  0  0
  154.7335  142.4920  159.3973 H   0  0  0  0  0  0  0  0  0  0  0  0
  153.6367  141.0289  161.5723 H   0  0  0  0  0  0  0  0  0  0  0  0
  152.6390  139.3661  160.0415 H   0  0  0  0  0  0  0  0  0  0  0  0
  153.9753  138.6564  160.9312 H   0  0  0  0  0  0  0  0  0  0  0  0
  154.1934  139.1288  159.2478 H   0  0  0  0  0  0  0  0  0  0  0  0
  155.8763  141.0240  161.8545 H   0  0  0  0  0  0  0  0  0  0  0  0
  157.9095  140.7959  161.5811 H   0  0  0  0  0  0  0  0  0  0  0  0
  159.0759  139.2307  159.5338 H   0  0  0  0  0  0  0  0  0  0  0  0
  159.7617  140.7067  157.9110 H   0  0  0  0  0  0  0  0  0  0  0  0
  158.2786  141.5532  158.3214 H   0  0  0  0  0  0  0  0  0  0  0  0
  160.5855  142.9141  158.4356 H   0  0  0  0  0  0  0  0  0  0  0  0
  159.4825  143.0620  159.8009 H   0  0  0  0  0  0  0  0  0  0  0  0
  161.9538  141.3412  159.6040 H   0  0  0  0  0  0  0  0  0  0  0  0
  161.4712  142.3806  160.9321 H   0  0  0  0  0  0  0  0  0  0  0  0
  161.0087  139.6071  160.6496 H   0  0  0  0  0  0  0  0  0  0  0  0
  159.5191  141.4972  162.5305 H   0  0  0  0  0  0  0  0  0  0  0  0
  161.0799  140.7426  162.8250 H   0  0  0  0  0  0  0  0  0  0  0  0
  159.6401  139.7446  162.7132 H   0  0  0  0  0  0  0  0  0  0  0  0
  1  2  1  0  0  0  0
  1 22  1  0  0  0  0
  1 23  1  0  0  0  0
  1 24  1  0  0  0  0
  2  8  1  0  0  0  0
  2  3  2  0  0  0  0
  3  4  1  0  0  0  0
  4  5  1  0  0  0  0
  4  6  1  0  0  0  0
  5 25  1  0  0  0  0
  5 26  1  0  0  0  0
  5 27  1  0  0  0  0
  6  7  1  0  0  0  0
  6  8  2  0  0  0  0
  7 28  1  0  0  0  0
  7 29  1  0  0  0  0
  7 30  1  0  0  0  0
  8  9  1  0  0  0  0
  9 10  1  0  0  0  0
  9 31  1  0  0  0  0
  9 32  1  0  0  0  0
 10 11  1  0  0  0  0
 10 12  1  0  0  0  0
 10 33  1  0  0  0  0
 11 34  1  0  0  0  0
 11 35  1  0  0  0  0
 11 36  1  0  0  0  0
 12 13  1  0  0  0  0
 12 37  1  0  0  0  0
 13 14  2  0  0  0  0
 13 15  1  0  0  0  0
 15 16  1  0  0  0  0
 15 38  1  0  0  0  0
 16 20  1  0  0  0  0
 16 17  1  0  0  0  0
 16 39  1  0  0  0  0
 17 18  1  0  0  0  0
 17 40  1  0  0  0  0
 17 41  1  0  0  0  0
 18 19  1  0  0  0  0
 18 42  1  0  0  0  0
 18 43  1  0  0  0  0
 19 20  1  0  0  0  0
 19 44  1  0  0  0  0
 19 45  1  0  0  0  0
 20 21  1  0  0  0  0
 20 46  1  0  0  0  0
 21 47  1  0  0  0  0
 21 48  1  0  0  0  0
 21 49  1  0  0  0  0
M  END
> <s_m_source_file>
AV-unprocessed.smi

> <i_m_source_file_index>
671

> <i_lp_mmshare_version>
43012

> <i_f3d_flags>
0

> <s_epik_input>
W0NIM11jMW5uKFtDSDNdKWMoW0NIM10pYzFbQ0gyXVtDQEhdKFtDSDNdKVtOSF1DKD1PKVtOSF1bQ0BASF0yW0NIMl1bQ0gyXVtDSDJdW0NASF0yW0NIM10=

> <s_epik_cmdline>
J2VwaWtfcHl0aG9uJywgJy1waCcsICc3LjAnLCAnLXRuJywgJzgnLCAnLW1hJywgJzIwMCcsICctbWV0YWxfYmluZGluZycsICctaW1hZScsICc8aW5maWxlLm1hZT4nLCAnLW9tYWUnLCAnPG91dGZpbGUubWFlPic=

> <r_lp_tautomer_probability>
1

> <r_epik_Ionization_Penalty>
0.0126855

> <r_epik_Ionization_Penalty_Charging>
0

> <r_epik_Ionization_Penalty_Neutral>
0.0126855

> <r_epik_State_Penalty>
0.00977547

> <r_epik_Charging_Adjusted_Penalty>
0.00977547

> <i_epik_Tot_Q>
0

> <i_epik_Tot_abs_Q>
0

> <r_epik_Metal_State_Penalty>
0.00957132

> <b_epik_Metal_Only>
0

> <s_lp_Force_Field>
OPLS_2005

> <r_lp_Energy>
24.0852

> <b_lp_Chiralities_Consistent>
1

> <s_lp_Variant>
AV-unprocessed.smi:671-4

> <Gold.Version>
5.8.1

> <Gold.Id.Protein>
6NUR|6NUR_protein|mol2

> <Gold.PLP.Fitness>
43.8009

> <Gold.PLP.PLP>
-42.9098

> <Gold.PLP.part.hbond>
-3.0380

> <Gold.PLP.part.metal>
0.0000

> <Gold.PLP.part.buried>
-4.9243

> <Gold.PLP.part.nonpolar>
-35.0679

> <Gold.PLP.part.repulsive>
0.2544

> <Gold.PLP.ligand.clash>
0.0000

> <Gold.PLP.ligand.torsion>
0.9792

> <Gold.PLP.Chemscore.Hbond>
0.9440

> <Gold.PLP.Chemscore.CHOScore>
0.0000

> <Gold.PLP.Chemscore.Metal>
0.0000

> <Gold.Chemscore.Hbonds>
donor molecule, donor type, donor heavy atom, donor atom, acceptor molecule, acceptor atom, score
      P1  H  7997  8009       L1    14  1.00

> <Gold.PLP.Chemscore.Internal.Correction>
0.0176

> <Gold.Rescore>
     Score         DG    S(hbond)    S(metal)    S(lipo)     H(rot)  DE(clash)    DE(int)     intcor
     16.40     -18.47       0.91        0.00     116.92       1.45       1.14       0.94       ----

> <Gold.Chemscore.Fitness>
16.3989

> <Gold.Chemscore.DG>
-18.4745

> <Gold.Chemscore.ZeroCoef>
-5.4800

> <Gold.Chemscore.Hbond>
0.9061

> <Gold.Chemscore.Metal>
0.0000

> <Gold.Chemscore.Lipo>
116.9212

> <Gold.Chemscore.Internal_Hbond>
0.0000

> <Gold.Chemscore.DEClash>
1.1350

> <Gold.Chemscore.DEInternal>
0.9406

> <Gold.Chemscore.Rot>
1.4499

> <Gold.Chemscore.Internal.Correction>
   9.000000E+99

> <Gold.Chemscore.Hbonds>
donor molecule, donor type, donor heavy atom, donor atom, acceptor molecule, acceptor atom, score
      P1  H  7997  8009       L1    14  0.95

> <Gold.Chemscore.Hbond.Weighted>
-3.0265

> <Gold.Chemscore.Metal.Weighted>
-0.0000

> <Gold.Chemscore.Lipo.Weighted>
-13.6798

> <Gold.Chemscore.Internal_Hbond.Weighted>
0.0000

> <Gold.Chemscore.DEClash.Weighted>
1.1350

> <Gold.Chemscore.DEInternal.Weighted>
0.9406

> <Gold.Chemscore.Rot.Weighted>
3.7118

> <Gold.Chemscore.Internal.Correction.Weighted>
   9.000000E+99

> <Gold.Protein.RotatedTorsions>
[ 6907 6896 6895 6894 ] final  -16.11 input  -60.11 | X-H torsion
[ 7974 7965 7964 7962 ] final  108.25 input  175.53 | X-H torsion
[ 8008 7997 7996 7995 ] final   80.89 input   59.86 | X-H torsion
[ 10167 10162 10161 10158 ] final  141.03 input  -65.29 | X-H torsion
[ 10718 10713 10712 10709 ] final  -10.03 input   66.30 | X-H torsion
[ 10763 10752 10751 10750 ] final  -60.40 input  -60.55 | X-H torsion
[ 11005 11000 10999 10996 ] final   59.00 input  -57.11 | X-H torsion

> <Gold.Protein.ActiveResidues>
 VAL166  LYS551  ARG553  GLY616  TRP617  ASP618  TYR619  PRO620  LYS621  CYS622 
 ASP623  PHE694  ASN695  SER759  ASP760  ASP761  ALA762  ILE779  LEU786  VAL792 
 PHE793  MET794  SER795  GLU796  ALA797  LYS798  CYS799  TRP800  GLU811  SER814 

> <Gold.Protein.RotatedAtoms>
  151.3137  135.0801  159.9280 H   0  0  0  0  0  0  0  0  0  0  0  0  # atno 6907 bound_to 6896
  152.5272  133.9710  159.7772 H   0  0  0  0  0  0  0  0  0  0  0  0  # atno 6908 bound_to 6896
  151.0018  133.5997  159.2724 H   0  0  0  0  0  0  0  0  0  0  0  0  # atno 6909 bound_to 6896
  145.2831  139.2625  143.3905 H   0  0  0  0  0  0  0  0  0  0  0  0  # atno 7974 bound_to 7965
  155.8897  140.3439  155.5947 H   0  0  0  0  0  0  0  0  0  0  0  0  # atno 8008 bound_to 7997
  155.7625  140.0834  157.2167 H   0  0  0  0  0  0  0  0  0  0  0  0  # atno 8009 bound_to 7997
  154.4032  140.1533  156.2836 H   0  0  0  0  0  0  0  0  0  0  0  0  # atno 8010 bound_to 7997
  139.5032  144.6197  151.6081 H   0  0  0  0  0  0  0  0  0  0  0  0  # atno 10167 bound_to 10162
  156.6794  130.5032  149.5976 H   0  0  0  0  0  0  0  0  0  0  0  0  # atno 10718 bound_to 10713
  154.2687  135.6294  153.5302 H   0  0  0  0  0  0  0  0  0  0  0  0  # atno 10763 bound_to 10752
  152.9884  135.5605  154.5624 H   0  0  0  0  0  0  0  0  0  0  0  0  # atno 10764 bound_to 10752
  154.5189  135.2881  155.1254 H   0  0  0  0  0  0  0  0  0  0  0  0  # atno 10765 bound_to 10752
  140.0336  134.5976  155.9474 H   0  0  0  0  0  0  0  0  0  0  0  0  # atno 11005 bound_to 11000
  146.3210  140.3304  142.8640 LP  0  0  0  0  0  0  0  0  0  0  0  0  # atno 17320 bound_to 7965
  144.9236  140.7896  143.5733 LP  0  0  0  0  0  0  0  0  0  0  0  0  # atno 17321 bound_to 7965
  140.5895  143.9804  150.6316 LP  0  0  0  0  0  0  0  0  0  0  0  0  # atno 17342 bound_to 10162
  140.2980  143.3279  152.0999 LP  0  0  0  0  0  0  0  0  0  0  0  0  # atno 17343 bound_to 10162
  156.1879  130.6541  151.1027 LP  0  0  0  0  0  0  0  0  0  0  0  0  # atno 17370 bound_to 10713
  157.7049  131.0761  150.6700 LP  0  0  0  0  0  0  0  0  0  0  0  0  # atno 17371 bound_to 10713
  141.1845  133.6553  156.5158 LP  0  0  0  0  0  0  0  0  0  0  0  0  # atno 17394 bound_to 11000
  140.4185  134.7208  157.4876 LP  0  0  0  0  0  0  0  0  0  0  0  0  # atno 17395 bound_to 11000

$$$$
