AV-unprocessed.smi:148|AV-procd|sdf|1208|dock2
  -GOLD-   2262018383D 1   1.00000     0.00000
 Structure written by MMmdl.
 63 67  0  0  0  0  0  0  0  0  1 V2000
  148.1876  135.5949  154.4871 O   0  0  0  0  0  0  0  0  0  0  0  0
  148.4125  134.2193  154.2595 C   0  0  0  0  0  0  0  0  0  0  0  0
  149.4923  133.6619  155.2147 C   0  0  2  0  0  0  0  0  0  0  0  0
  150.7893  134.5101  155.1556 C   0  0  0  0  0  0  0  0  0  0  0  0
  150.6448  135.8050  155.7972 N   0  0  0  0  0  0  0  0  0  0  0  0
  149.9322  136.0879  156.9417 C   0  0  0  0  0  0  0  0  0  0  0  0
  149.9474  137.3397  157.3121 N   0  0  0  0  0  0  0  0  0  0  0  0
  150.7255  137.9646  156.3465 C   0  0  0  0  0  0  0  0  0  0  0  0
  151.1389  139.3042  156.1278 C   0  0  0  0  0  0  0  0  0  0  0  0
  150.7769  140.3071  156.9572 N   0  0  0  0  0  0  0  0  0  0  0  0
  151.9415  140.7657  157.7180 C   0  0  0  0  0  0  0  0  0  0  0  0
  151.5312  141.6928  158.8657 C   0  0  0  0  0  0  0  0  0  0  0  0
  150.7215  142.8677  158.3160 C   0  0  0  0  0  0  0  0  0  0  0  0
  149.5144  142.3443  157.5272 C   0  0  0  0  0  0  0  0  0  0  0  0
  149.9149  141.3652  156.3895 C   0  0  2  0  0  0  0  0  0  0  0  0
  148.6341  140.8173  155.6658 C   0  0  1  0  0  0  0  0  0  0  0  0
  147.6111  141.8886  155.2406 C   0  0  0  0  0  0  0  0  0  0  0  0
  146.6987  141.2314  154.1985 C   0  0  0  0  0  0  0  0  0  0  0  0
  147.4358  139.9775  153.7158 C   0  0  0  0  0  0  0  0  0  0  0  0
  148.8314  140.0367  154.3453 C   0  0  1  0  0  0  0  0  0  0  0  0
  149.6983  140.7264  153.4639 O   0  0  0  0  0  0  0  0  0  0  0  0
  151.9261  139.5630  155.0501 N   0  0  0  0  0  0  0  0  0  0  0  0
  152.2694  138.5701  154.2238 C   0  0  0  0  0  0  0  0  0  0  0  0
  151.9464  137.2762  154.2931 N   0  0  0  0  0  0  0  0  0  0  0  0
  151.1694  137.0165  155.3842 C   0  0  0  0  0  0  0  0  0  0  0  0
  149.7397  132.1443  154.9928 C   0  0  2  0  0  0  0  0  0  0  0  0
  148.5072  131.2500  155.1437 C   0  0  0  0  0  0  0  0  0  0  0  0
  148.9563  130.1539  156.1093 C   0  0  0  0  0  0  0  0  0  0  0  0
  150.3672  130.1331  155.9683 O   0  0  0  0  0  0  0  0  0  0  0  0
  150.7852  131.4864  155.9047 C   0  0  0  0  0  0  0  0  0  0  0  0
  148.5358  136.0821  153.7559 H   0  0  0  0  0  0  0  0  0  0  0  0
  147.4744  133.6751  154.3713 H   0  0  0  0  0  0  0  0  0  0  0  0
  148.7179  134.1130  153.2188 H   0  0  0  0  0  0  0  0  0  0  0  0
  149.0959  133.7581  156.2267 H   0  0  0  0  0  0  0  0  0  0  0  0
  151.6208  134.0002  155.6401 H   0  0  0  0  0  0  0  0  0  0  0  0
  151.0928  134.6776  154.1224 H   0  0  0  0  0  0  0  0  0  0  0  0
  149.3990  135.3314  157.4991 H   0  0  0  0  0  0  0  0  0  0  0  0
  152.4839  139.9092  158.1224 H   0  0  0  0  0  0  0  0  0  0  0  0
  152.6283  141.2916  157.0529 H   0  0  0  0  0  0  0  0  0  0  0  0
  150.9379  141.1398  159.5950 H   0  0  0  0  0  0  0  0  0  0  0  0
  152.4155  142.0565  159.3895 H   0  0  0  0  0  0  0  0  0  0  0  0
  150.3892  143.5109  159.1312 H   0  0  0  0  0  0  0  0  0  0  0  0
  151.3494  143.4802  157.6678 H   0  0  0  0  0  0  0  0  0  0  0  0
  148.8279  141.8454  158.2129 H   0  0  0  0  0  0  0  0  0  0  0  0
  148.9814  143.2068  157.1282 H   0  0  0  0  0  0  0  0  0  0  0  0
  150.5128  141.9307  155.6735 H   0  0  0  0  0  0  0  0  0  0  0  0
  148.1168  140.1567  156.3644 H   0  0  0  0  0  0  0  0  0  0  0  0
  147.0380  142.2764  156.0835 H   0  0  0  0  0  0  0  0  0  0  0  0
  148.1273  142.7318  154.7793 H   0  0  0  0  0  0  0  0  0  0  0  0
  145.7401  140.9567  154.6401 H   0  0  0  0  0  0  0  0  0  0  0  0
  146.4946  141.9173  153.3758 H   0  0  0  0  0  0  0  0  0  0  0  0
  146.9129  139.0949  154.0862 H   0  0  0  0  0  0  0  0  0  0  0  0
  147.4633  139.8985  152.6282 H   0  0  0  0  0  0  0  0  0  0  0  0
  149.2112  139.0279  154.4927 H   0  0  0  0  0  0  0  0  0  0  0  0
  149.8890  140.1626  152.7299 H   0  0  0  0  0  0  0  0  0  0  0  0
  152.8883  138.8540  153.3857 H   0  0  0  0  0  0  0  0  0  0  0  0
  150.0820  132.0019  153.9668 H   0  0  0  0  0  0  0  0  0  0  0  0
  147.6205  131.7694  155.5069 H   0  0  0  0  0  0  0  0  0  0  0  0
  148.2481  130.8153  154.1774 H   0  0  0  0  0  0  0  0  0  0  0  0
  148.6996  130.4162  157.1371 H   0  0  0  0  0  0  0  0  0  0  0  0
  148.5130  129.1839  155.8825 H   0  0  0  0  0  0  0  0  0  0  0  0
  151.7978  131.5722  155.5098 H   0  0  0  0  0  0  0  0  0  0  0  0
  150.7803  131.8969  156.9139 H   0  0  0  0  0  0  0  0  0  0  0  0
  1  2  1  0  0  0  0
  1 31  1  0  0  0  0
  2  3  1  0  0  0  0
  2 32  1  0  0  0  0
  2 33  1  0  0  0  0
  3  4  1  0  0  0  0
  3 26  1  0  0  0  0
  3 34  1  0  0  0  0
  4  5  1  0  0  0  0
  4 35  1  0  0  0  0
  4 36  1  0  0  0  0
  5 25  1  0  0  0  0
  5  6  1  0  0  0  0
  6  7  2  0  0  0  0
  6 37  1  0  0  0  0
  7  8  1  0  0  0  0
  8 25  2  0  0  0  0
  8  9  1  0  0  0  0
  9 10  1  0  0  0  0
  9 22  2  0  0  0  0
 10 15  1  0  0  0  0
 10 11  1  0  0  0  0
 11 12  1  0  0  0  0
 11 38  1  0  0  0  0
 11 39  1  0  0  0  0
 12 13  1  0  0  0  0
 12 40  1  0  0  0  0
 12 41  1  0  0  0  0
 13 14  1  0  0  0  0
 13 42  1  0  0  0  0
 13 43  1  0  0  0  0
 14 15  1  0  0  0  0
 14 44  1  0  0  0  0
 14 45  1  0  0  0  0
 15 16  1  0  0  0  0
 15 46  1  0  0  0  0
 16 20  1  0  0  0  0
 16 17  1  0  0  0  0
 16 47  1  0  0  0  0
 17 18  1  0  0  0  0
 17 48  1  0  0  0  0
 17 49  1  0  0  0  0
 18 19  1  0  0  0  0
 18 50  1  0  0  0  0
 18 51  1  0  0  0  0
 19 20  1  0  0  0  0
 19 52  1  0  0  0  0
 19 53  1  0  0  0  0
 20 21  1  0  0  0  0
 20 54  1  0  0  0  0
 21 55  1  0  0  0  0
 22 23  1  0  0  0  0
 23 24  2  0  0  0  0
 23 56  1  0  0  0  0
 24 25  1  0  0  0  0
 26 30  1  0  0  0  0
 26 27  1  0  0  0  0
 26 57  1  0  0  0  0
 27 28  1  0  0  0  0
 27 58  1  0  0  0  0
 27 59  1  0  0  0  0
 28 29  1  0  0  0  0
 28 60  1  0  0  0  0
 28 61  1  0  0  0  0
 29 30  1  0  0  0  0
 30 62  1  0  0  0  0
 30 63  1  0  0  0  0
M  END
> <s_m_source_file>
AV-unprocessed.smi

> <i_m_source_file_index>
148

> <i_lp_mmshare_version>
43012

> <i_f3d_flags>
0

> <s_epik_input>
W0NIMl0xT1tDSDJdW0NIMl1bQ0BIXTFbQ0BIXShbQ0gyXVtPSF0pW0NIMl1uKFtjSF1uMiljKGMyMyluW2NIXW5jM040W0NIMl1bQ0gyXVtDSDJdW0NIMl1bQ0BIXTRbQ0BASF01W0NIMl1bQ0gyXVtDSDJdW0NASF01W09IXQ==

> <s_epik_cmdline>
J2VwaWtfcHl0aG9uJywgJy1waCcsICc3LjAnLCAnLXRuJywgJzgnLCAnLW1hJywgJzIwMCcsICctbWV0YWxfYmluZGluZycsICctaW1hZScsICc8aW5maWxlLm1hZT4nLCAnLW9tYWUnLCAnPG91dGZpbGUubWFlPic=

> <r_lp_tautomer_probability>
1

> <r_epik_Ionization_Penalty>
0.00556303

> <r_epik_Ionization_Penalty_Charging>
0

> <r_epik_Ionization_Penalty_Neutral>
0.00556303

> <r_epik_State_Penalty>
0.00401767

> <r_epik_Charging_Adjusted_Penalty>
0.00401767

> <i_epik_Tot_Q>
0

> <i_epik_Tot_abs_Q>
0

> <r_epik_Metal_State_Penalty>
-0

> <b_epik_Metal_Only>
0

> <s_lp_Force_Field>
OPLS_2005

> <r_lp_Energy>
70.8238

> <b_lp_Chiralities_Consistent>
1

> <s_lp_Variant>
AV-unprocessed.smi:148-7

> <Gold.Version>
5.8.1

> <Gold.Id.Protein>
6NUR|6NUR_protein|mol2

> <Gold.PLP.Fitness>
50.5317

> <Gold.PLP.PLP>
-39.1596

> <Gold.PLP.part.hbond>
-5.2527

> <Gold.PLP.part.metal>
0.0000

> <Gold.PLP.part.buried>
-1.9291

> <Gold.PLP.part.nonpolar>
-30.7890

> <Gold.PLP.part.repulsive>
0.1771

> <Gold.PLP.ligand.clash>
0.0000

> <Gold.PLP.ligand.torsion>
0.6920

> <Gold.PLP.Chemscore.Hbond>
3.9851

> <Gold.PLP.Chemscore.CHOScore>
0.0000

> <Gold.PLP.Chemscore.Metal>
0.0000

> <Gold.Chemscore.Hbonds>
donor molecule, donor type, donor heavy atom, donor atom, acceptor molecule, acceptor atom, score
      L1  H     1    31       P1  7948  1.00
      L1  H    21    55       P1  7957  0.82
      P1  H  7989  7998       L1    22  0.57
      P1  H  8011  8017       L1    21  0.65
      P1  H 10752 10765       L1    24  0.99

> <Gold.PLP.Chemscore.Internal.Correction>
0.8007

> <Gold.Rescore>
     Score         DG    S(hbond)    S(metal)    S(lipo)     H(rot)  DE(clash)    DE(int)     intcor
     14.52     -16.85       2.69        0.00      92.92       3.32       0.12       2.21       ----

> <Gold.Chemscore.Fitness>
14.5211

> <Gold.Chemscore.DG>
-16.8488

> <Gold.Chemscore.ZeroCoef>
-5.4800

> <Gold.Chemscore.Hbond>
2.6937

> <Gold.Chemscore.Metal>
0.0000

> <Gold.Chemscore.Lipo>
92.9204

> <Gold.Chemscore.Internal_Hbond>
0.0000

> <Gold.Chemscore.DEClash>
0.1185

> <Gold.Chemscore.DEInternal>
2.2092

> <Gold.Chemscore.Rot>
3.3203

> <Gold.Chemscore.Internal.Correction>
   9.000000E+99

> <Gold.Chemscore.Hbonds>
donor molecule, donor type, donor heavy atom, donor atom, acceptor molecule, acceptor atom, score
      L1  H     1    31       P1  7948  0.94
      L1  H    21    55       P1  7957  0.80
      P1  H  7989  7998       L1    22  0.04
      P1  H  8011  8017       L1    21  0.05
      P1  H 10752 10765       L1    24  0.28

> <Gold.Chemscore.Hbond.Weighted>
-8.9971

> <Gold.Chemscore.Metal.Weighted>
-0.0000

> <Gold.Chemscore.Lipo.Weighted>
-10.8717

> <Gold.Chemscore.Internal_Hbond.Weighted>
0.0000

> <Gold.Chemscore.DEClash.Weighted>
0.1185

> <Gold.Chemscore.DEInternal.Weighted>
2.2092

> <Gold.Chemscore.Rot.Weighted>
8.5000

> <Gold.Chemscore.Internal.Correction.Weighted>
   9.000000E+99

> <Gold.Protein.RotatedTorsions>
[ 6907 6896 6895 6894 ] final  -51.29 input  -60.11 | X-H torsion
[ 7974 7965 7964 7962 ] final -138.67 input  175.53 | X-H torsion
[ 8008 7997 7996 7995 ] final  -57.66 input   59.86 | X-H torsion
[ 10167 10162 10161 10158 ] final   16.88 input  -65.29 | X-H torsion
[ 10718 10713 10712 10709 ] final   23.14 input   66.30 | X-H torsion
[ 10763 10752 10751 10750 ] final  156.51 input  -60.55 | X-H torsion
[ 11005 11000 10999 10996 ] final -161.52 input  -57.11 | X-H torsion

> <Gold.Protein.ActiveResidues>
 VAL166  LYS551  ARG553  GLY616  TRP617  ASP618  TYR619  PRO620  LYS621  CYS622 
 ASP623  PHE694  ASN695  SER759  ASP760  ASP761  ALA762  ILE779  LEU786  VAL792 
 PHE793  MET794  SER795  GLU796  ALA797  LYS798  CYS799  TRP800  GLU811  SER814 

> <Gold.Protein.RotatedAtoms>
  150.8625  134.7981  159.7093 H   0  0  0  0  0  0  0  0  0  0  0  0  # atno 6907 bound_to 6896
  152.4657  134.5076  159.9754 H   0  0  0  0  0  0  0  0  0  0  0  0  # atno 6908 bound_to 6896
  151.5178  133.3434  159.2931 H   0  0  0  0  0  0  0  0  0  0  0  0  # atno 6909 bound_to 6896
  144.8740  140.6409  143.5249 H   0  0  0  0  0  0  0  0  0  0  0  0  # atno 7974 bound_to 7965
  154.4277  140.1102  156.5833 H   0  0  0  0  0  0  0  0  0  0  0  0  # atno 8008 bound_to 7997
  155.6089  140.3494  155.4597 H   0  0  0  0  0  0  0  0  0  0  0  0  # atno 8009 bound_to 7997
  156.0115  140.1220  157.0439 H   0  0  0  0  0  0  0  0  0  0  0  0  # atno 8010 bound_to 7997
  140.5765  143.9062  150.6755 H   0  0  0  0  0  0  0  0  0  0  0  0  # atno 10167 bound_to 10162
  157.1620  130.6721  149.6047 H   0  0  0  0  0  0  0  0  0  0  0  0  # atno 10718 bound_to 10713
  154.1855  135.2797  155.3038 H   0  0  0  0  0  0  0  0  0  0  0  0  # atno 10763 bound_to 10752
  154.5969  135.5542  153.7338 H   0  0  0  0  0  0  0  0  0  0  0  0  # atno 10764 bound_to 10752
  153.0126  135.6382  154.1994 H   0  0  0  0  0  0  0  0  0  0  0  0  # atno 10765 bound_to 10752
  140.6195  134.4765  157.5222 H   0  0  0  0  0  0  0  0  0  0  0  0  # atno 11005 bound_to 11000
  145.4078  139.1585  143.4142 LP  0  0  0  0  0  0  0  0  0  0  0  0  # atno 17320 bound_to 7965
  146.2950  140.4179  142.8725 LP  0  0  0  0  0  0  0  0  0  0  0  0  # atno 17321 bound_to 7965
  140.2550  143.3565  152.1372 LP  0  0  0  0  0  0  0  0  0  0  0  0  # atno 17342 bound_to 10162
  139.5146  144.6950  151.5655 LP  0  0  0  0  0  0  0  0  0  0  0  0  # atno 17343 bound_to 10162
  155.9752  130.4708  150.6443 LP  0  0  0  0  0  0  0  0  0  0  0  0  # atno 17370 bound_to 10713
  157.4123  131.0825  151.1209 LP  0  0  0  0  0  0  0  0  0  0  0  0  # atno 17371 bound_to 10713
  139.9159  134.8247  156.1368 LP  0  0  0  0  0  0  0  0  0  0  0  0  # atno 17394 bound_to 11000
  141.0752  133.6778  156.2222 LP  0  0  0  0  0  0  0  0  0  0  0  0  # atno 17395 bound_to 11000

$$$$
