AV-unprocessed.smi:1381|AV-procd|sdf|5611|dock4
  -GOLD-   22720 5223D 1   1.00000     0.00000
 Structure written by MMmdl.
 41 42  0  0  0  0  0  0  0  0  2 V2000
  145.4731  133.4756  162.4834 C   0  0  0  0  0  0  0  0  0  0  0  0
  146.3301  134.6497  162.1562 C   0  0  0  0  0  0  0  0  0  0  0  0
  146.6257  135.2885  160.9855 C   0  0  0  0  0  0  0  0  0  0  0  0
  147.4969  136.3338  161.3968 C   0  0  0  0  0  0  0  0  0  0  0  0
  148.0712  137.2424  160.5931 N   0  5  0  0  0  0  0  0  0  0  0  0
  148.9715  136.8529  159.6607 C   0  0  0  0  0  0  0  0  0  0  0  0
  148.9997  135.7641  159.0820 O   0  0  0  0  0  0  0  0  0  0  0  0
  149.8994  137.7809  159.3848 N   0  0  0  0  0  0  0  0  0  0  0  0
  150.9923  137.6383  158.4292 C   0  0  0  0  0  0  0  0  0  0  0  0
  152.0180  138.7784  158.5744 C   0  0  0  0  0  0  0  0  0  0  0  0
  151.4541  140.1267  158.5276 N   0  0  0  0  0  0  0  0  0  0  0  0
  151.1439  140.5126  157.1552 C   0  0  0  0  0  0  0  0  0  0  0  0
  150.5469  141.9302  157.0523 C   0  0  1  0  0  0  0  0  0  0  0  0
  149.0925  142.0170  157.5456 C   0  0  0  0  0  0  0  0  0  0  0  0
  151.3910  142.8702  157.7192 O   0  0  0  0  0  0  0  0  0  0  0  0
  151.7253  142.5379  159.0657 C   0  0  2  0  0  0  0  0  0  0  0  0
  152.6904  143.6045  159.5935 C   0  0  0  0  0  0  0  0  0  0  0  0
  152.3408  141.1274  159.1123 C   0  0  0  0  0  0  0  0  0  0  0  0
  147.7261  136.3178  162.6994 N   0  0  0  0  0  0  0  0  0  0  0  0
  146.9754  135.2448  163.1948 O   0  0  0  0  0  0  0  0  0  0  0  0
  146.0835  132.6227  162.7793 H   0  0  0  0  0  0  0  0  0  0  0  0
  144.8726  133.1806  161.6228 H   0  0  0  0  0  0  0  0  0  0  0  0
  144.7946  133.7088  163.3040 H   0  0  0  0  0  0  0  0  0  0  0  0
  146.2722  135.0511  159.9933 H   0  0  0  0  0  0  0  0  0  0  0  0
  149.8376  138.6584  159.8798 H   0  0  0  0  0  0  0  0  0  0  0  0
  151.4760  136.6683  158.5564 H   0  0  0  0  0  0  0  0  0  0  0  0
  150.5498  137.6388  157.4340 H   0  0  0  0  0  0  0  0  0  0  0  0
  152.5826  138.6463  159.4986 H   0  0  0  0  0  0  0  0  0  0  0  0
  152.7435  138.6793  157.7659 H   0  0  0  0  0  0  0  0  0  0  0  0
  152.0542  140.4715  156.5551 H   0  0  0  0  0  0  0  0  0  0  0  0
  150.4531  139.7942  156.7119 H   0  0  0  0  0  0  0  0  0  0  0  0
  150.5423  142.2156  156.0000 H   0  0  0  0  0  0  0  0  0  0  0  0
  148.4432  141.3733  156.9516 H   0  0  0  0  0  0  0  0  0  0  0  0
  148.7135  143.0355  157.4622 H   0  0  0  0  0  0  0  0  0  0  0  0
  148.9931  141.7069  158.5856 H   0  0  0  0  0  0  0  0  0  0  0  0
  150.8232  142.5602  159.6776 H   0  0  0  0  0  0  0  0  0  0  0  0
  152.9692  143.4040  160.6283 H   0  0  0  0  0  0  0  0  0  0  0  0
  152.2335  144.5939  159.5584 H   0  0  0  0  0  0  0  0  0  0  0  0
  153.6046  143.6384  159.0000 H   0  0  0  0  0  0  0  0  0  0  0  0
  152.5566  140.8794  160.1508 H   0  0  0  0  0  0  0  0  0  0  0  0
  153.2963  141.1265  158.5853 H   0  0  0  0  0  0  0  0  0  0  0  0
  1  2  1  0  0  0  0
  1 21  1  0  0  0  0
  1 22  1  0  0  0  0
  1 23  1  0  0  0  0
  2 20  1  0  0  0  0
  2  3  2  0  0  0  0
  3  4  1  0  0  0  0
  3 24  1  0  0  0  0
  4  5  1  0  0  0  0
  4 19  2  0  0  0  0
  5  6  1  0  0  0  0
  6  7  2  0  0  0  0
  6  8  1  0  0  0  0
  8  9  1  0  0  0  0
  8 25  1  0  0  0  0
  9 10  1  0  0  0  0
  9 26  1  0  0  0  0
  9 27  1  0  0  0  0
 10 11  1  0  0  0  0
 10 28  1  0  0  0  0
 10 29  1  0  0  0  0
 11 18  1  0  0  0  0
 11 12  1  0  0  0  0
 12 13  1  0  0  0  0
 12 30  1  0  0  0  0
 12 31  1  0  0  0  0
 13 14  1  0  0  0  0
 13 15  1  0  0  0  0
 13 32  1  0  0  0  0
 14 33  1  0  0  0  0
 14 34  1  0  0  0  0
 14 35  1  0  0  0  0
 15 16  1  0  0  0  0
 16 17  1  0  0  0  0
 16 18  1  0  0  0  0
 16 36  1  0  0  0  0
 17 37  1  0  0  0  0
 17 38  1  0  0  0  0
 17 39  1  0  0  0  0
 18 40  1  0  0  0  0
 18 41  1  0  0  0  0
 19 20  1  0  0  0  0
M  CHG  1   5  -1
M  END
> <s_m_source_file>
AV-unprocessed.smi

> <i_m_source_file_index>
1381

> <i_lp_mmshare_version>
43012

> <i_f3d_flags>
0

> <s_epik_input>
W0NIM11jMVtjSF1jKG5vMSlbTkhdQyg9TylbTkhdW0NIMl1bQ0gyXU4yW0NIMl1bQ0BASF0oW0NIM10pT1tDQEBIXShbQ0gzXSlbQ0gyXTI=

> <s_epik_cmdline>
J2VwaWtfcHl0aG9uJywgJy1waCcsICc3LjAnLCAnLXRuJywgJzgnLCAnLW1hJywgJzIwMCcsICctbWV0YWxfYmluZGluZycsICctaW1hZScsICc8aW5maWxlLm1hZT4nLCAnLW9tYWUnLCAnPG91dGZpbGUubWFlPic=

> <r_epik_Ionization_Penalty>
6.88366

> <r_epik_Ionization_Penalty_Charging>
6.57198

> <r_epik_Ionization_Penalty_Neutral>
0.311678

> <r_epik_State_Penalty>
6.77619

> <r_epik_Charging_Adjusted_Penalty>
13.3482

> <i_epik_Tot_Q>
-1

> <i_epik_Tot_abs_Q>
1

> <r_epik_Metal_State_Penalty>
2.70524

> <b_epik_Metal_Only>
1

> <s_lp_Force_Field>
OPLS_2005

> <r_lp_Energy>
15.952

> <b_lp_Chiralities_Consistent>
1

> <s_lp_Variant>
AV-unprocessed.smi:1381-10

> <Gold.Version>
5.8.1

> <Gold.Id.Protein>
6NUR|6NUR_protein|mol2

> <Gold.PLP.Fitness>
42.5277

> <Gold.PLP.PLP>
-33.3027

> <Gold.PLP.part.hbond>
-3.0311

> <Gold.PLP.part.metal>
0.0000

> <Gold.PLP.part.buried>
-6.7494

> <Gold.PLP.part.nonpolar>
-25.6575

> <Gold.PLP.part.repulsive>
1.1289

> <Gold.PLP.ligand.clash>
0.0000

> <Gold.PLP.ligand.torsion>
1.0459

> <Gold.PLP.Chemscore.Hbond>
3.7627

> <Gold.PLP.Chemscore.CHOScore>
0.0000

> <Gold.PLP.Chemscore.Metal>
0.0000

> <Gold.Chemscore.Hbonds>
donor molecule, donor type, donor heavy atom, donor atom, acceptor molecule, acceptor atom, score
      P1  H  6896  6909       L1     7  0.80
      P1  H  6931  6943       L1     5  1.54
      P1  H  6934  6947       L1     5  1.44

> <Gold.PLP.Chemscore.Internal.Correction>
0.0286

> <Gold.Rescore>
     Score         DG    S(hbond)    S(metal)    S(lipo)     H(rot)  DE(clash)    DE(int)     intcor
     14.53     -15.84       1.68        0.00      74.40       1.54       0.30       1.01       ----

> <Gold.Chemscore.Fitness>
14.5284

> <Gold.Chemscore.DG>
-15.8380

> <Gold.Chemscore.ZeroCoef>
-5.4800

> <Gold.Chemscore.Hbond>
1.6761

> <Gold.Chemscore.Metal>
0.0000

> <Gold.Chemscore.Lipo>
74.3965

> <Gold.Chemscore.Internal_Hbond>
0.0000

> <Gold.Chemscore.DEClash>
0.2984

> <Gold.Chemscore.DEInternal>
1.0113

> <Gold.Chemscore.Rot>
1.5409

> <Gold.Chemscore.Internal.Correction>
   9.000000E+99

> <Gold.Chemscore.Hbonds>
donor molecule, donor type, donor heavy atom, donor atom, acceptor molecule, acceptor atom, score
      P1  H  6896  6909       L1     7  0.71
      P1  H  6931  6943       L1     5  0.11
      P1  H  6934  6947       L1     5  0.48

> <Gold.Chemscore.Hbond.Weighted>
-5.5983

> <Gold.Chemscore.Metal.Weighted>
-0.0000

> <Gold.Chemscore.Lipo.Weighted>
-8.7044

> <Gold.Chemscore.Internal_Hbond.Weighted>
0.0000

> <Gold.Chemscore.DEClash.Weighted>
0.2984

> <Gold.Chemscore.DEInternal.Weighted>
1.0113

> <Gold.Chemscore.Rot.Weighted>
3.9446

> <Gold.Chemscore.Internal.Correction.Weighted>
   9.000000E+99

> <Gold.Protein.RotatedTorsions>
[ 6907 6896 6895 6894 ] final   46.63 input  -60.11 | X-H torsion
[ 7974 7965 7964 7962 ] final  -56.58 input  175.53 | X-H torsion
[ 8008 7997 7996 7995 ] final   71.58 input   59.86 | X-H torsion
[ 10167 10162 10161 10158 ] final  -96.45 input  -65.29 | X-H torsion
[ 10718 10713 10712 10709 ] final  141.63 input   66.30 | X-H torsion
[ 10763 10752 10751 10750 ] final  -28.35 input  -60.55 | X-H torsion
[ 11005 11000 10999 10996 ] final -154.18 input  -57.11 | X-H torsion

> <Gold.Protein.ActiveResidues>
 VAL166  LYS551  ARG553  GLY616  TRP617  ASP618  TYR619  PRO620  LYS621  CYS622 
 ASP623  PHE694  ASN695  SER759  ASP760  ASP761  ALA762  ILE779  LEU786  VAL792 
 PHE793  MET794  SER795  GLU796  ALA797  LYS798  CYS799  TRP800  GLU811  SER814 

> <Gold.Protein.RotatedAtoms>
  152.2587  134.8057  160.0433 H   0  0  0  0  0  0  0  0  0  0  0  0  # atno 6907 bound_to 6896
  151.8711  133.3471  159.3743 H   0  0  0  0  0  0  0  0  0  0  0  0  # atno 6908 bound_to 6896
  150.7109  134.5039  159.5619 H   0  0  0  0  0  0  0  0  0  0  0  0  # atno 6909 bound_to 6896
  145.8610  140.8285  142.9937 H   0  0  0  0  0  0  0  0  0  0  0  0  # atno 7974 bound_to 7965
  155.7560  140.3487  155.5174 H   0  0  0  0  0  0  0  0  0  0  0  0  # atno 8008 bound_to 7997
  155.8960  140.1026  157.1406 H   0  0  0  0  0  0  0  0  0  0  0  0  # atno 8009 bound_to 7997
  154.4038  140.1295  156.4362 H   0  0  0  0  0  0  0  0  0  0  0  0  # atno 8010 bound_to 7997
  140.2936  143.3206  152.0320 H   0  0  0  0  0  0  0  0  0  0  0  0  # atno 10167 bound_to 10162
  157.3897  131.1003  151.0658 H   0  0  0  0  0  0  0  0  0  0  0  0  # atno 10718 bound_to 10713
  153.7470  135.6928  153.4954 H   0  0  0  0  0  0  0  0  0  0  0  0  # atno 10763 bound_to 10752
  153.2030  135.4430  155.0288 H   0  0  0  0  0  0  0  0  0  0  0  0  # atno 10764 bound_to 10752
  154.8201  135.3418  154.6992 H   0  0  0  0  0  0  0  0  0  0  0  0  # atno 10765 bound_to 10752
  140.7002  134.3946  157.5210 H   0  0  0  0  0  0  0  0  0  0  0  0  # atno 11005 bound_to 11000
  144.6726  140.1096  143.7456 LP  0  0  0  0  0  0  0  0  0  0  0  0  # atno 17320 bound_to 7965
  145.9248  139.2568  143.1360 LP  0  0  0  0  0  0  0  0  0  0  0  0  # atno 17321 bound_to 7965
  139.4932  144.6507  151.6682 LP  0  0  0  0  0  0  0  0  0  0  0  0  # atno 17342 bound_to 10162
  140.5711  144.0107  150.6217 LP  0  0  0  0  0  0  0  0  0  0  0  0  # atno 17343 bound_to 10162
  157.1696  130.6261  149.5636 LP  0  0  0  0  0  0  0  0  0  0  0  0  # atno 17370 bound_to 10713
  155.9795  130.4789  150.6721 LP  0  0  0  0  0  0  0  0  0  0  0  0  # atno 17371 bound_to 10713
  139.8899  134.8819  156.2398 LP  0  0  0  0  0  0  0  0  0  0  0  0  # atno 17394 bound_to 11000
  141.0170  133.7063  156.1205 LP  0  0  0  0  0  0  0  0  0  0  0  0  # atno 17395 bound_to 11000

$$$$
