AV-unprocessed.smi:2018|AV-procd|sdf|8169|dock6
  -GOLD-   2272010413D 1   1.00000     0.00000
 Structure written by MMmdl.
 35 36  0  0  0  0  0  0  0  0  1 V2000
  153.6860  142.0349  159.9554 C   0  0  0  0  0  0  0  0  0  0  0  0
  152.7409  142.7043  159.0175 C   0  0  0  0  0  0  0  0  0  0  0  0
  152.2919  142.1401  157.8933 N   0  0  0  0  0  0  0  0  0  0  0  0
  151.4171  142.9714  157.1862 C   0  0  0  0  0  0  0  0  0  0  0  0
  150.8158  142.5021  155.8966 C   0  0  0  0  0  0  0  0  0  0  0  0
  150.2686  141.0685  155.9968 C   0  0  0  0  0  0  0  0  0  0  0  0
  151.2468  140.1615  156.5857 N   0  0  0  0  0  0  0  0  0  0  0  0
  152.4261  139.8271  156.0302 C   0  0  0  0  0  0  0  0  0  0  0  0
  152.8058  140.2745  154.9476 O   0  0  0  0  0  0  0  0  0  0  0  0
  153.2611  138.8657  156.7993 C   0  0  0  0  0  0  0  0  0  0  0  0
  154.1155  138.1101  156.1829 N   0  0  0  0  0  0  0  0  0  0  0  0
  154.9241  137.2170  156.8562 N   0  0  0  0  0  0  0  0  0  0  0  0
  156.0072  136.6470  156.0571 C   0  0  0  0  0  0  0  0  0  0  0  0
  154.7526  136.8441  158.1489 C   0  0  0  0  0  0  0  0  0  0  0  0
  155.4948  136.0592  158.7389 O   0  0  0  0  0  0  0  0  0  0  0  0
  153.5375  137.4307  158.8732 C   0  0  0  0  0  0  0  0  0  0  0  0
  153.1279  138.8056  158.3085 C   0  0  0  0  0  0  0  0  0  0  0  0
  151.2112  144.1837  157.7958 C   0  0  0  0  0  0  0  0  0  0  0  0
  152.1084  144.3244  159.2825 S   0  0  0  0  0  0  0  0  0  0  0  0
  153.7651  140.9716  159.7269 H   0  0  0  0  0  0  0  0  0  0  0  0
  153.3350  142.1457  160.9814 H   0  0  0  0  0  0  0  0  0  0  0  0
  154.6747  142.4859  159.8718 H   0  0  0  0  0  0  0  0  0  0  0  0
  150.0134  143.1767  155.5950 H   0  0  0  0  0  0  0  0  0  0  0  0
  151.5625  142.5554  155.1033 H   0  0  0  0  0  0  0  0  0  0  0  0
  149.3445  141.0512  156.5772 H   0  0  0  0  0  0  0  0  0  0  0  0
  150.0180  140.6949  155.0034 H   0  0  0  0  0  0  0  0  0  0  0  0
  151.0105  139.7499  157.4773 H   0  0  0  0  0  0  0  0  0  0  0  0
  155.9188  135.5608  156.0061 H   0  0  0  0  0  0  0  0  0  0  0  0
  156.9758  136.8904  156.4964 H   0  0  0  0  0  0  0  0  0  0  0  0
  156.0054  137.0266  155.0339 H   0  0  0  0  0  0  0  0  0  0  0  0
  152.7141  136.7254  158.7547 H   0  0  0  0  0  0  0  0  0  0  0  0
  153.7372  137.5040  159.9428 H   0  0  0  0  0  0  0  0  0  0  0  0
  153.7423  139.5888  158.7543 H   0  0  0  0  0  0  0  0  0  0  0  0
  152.1009  139.0100  158.6135 H   0  0  0  0  0  0  0  0  0  0  0  0
  150.5886  144.9999  157.4604 H   0  0  0  0  0  0  0  0  0  0  0  0
  1  2  1  0  0  0  0
  1 20  1  0  0  0  0
  1 21  1  0  0  0  0
  1 22  1  0  0  0  0
  2 19  1  0  0  0  0
  2  3  2  0  0  0  0
  3  4  1  0  0  0  0
  4  5  1  0  0  0  0
  4 18  2  0  0  0  0
  5  6  1  0  0  0  0
  5 23  1  0  0  0  0
  5 24  1  0  0  0  0
  6  7  1  0  0  0  0
  6 25  1  0  0  0  0
  6 26  1  0  0  0  0
  7  8  1  0  0  0  0
  7 27  1  0  0  0  0
  8  9  2  0  0  0  0
  8 10  1  0  0  0  0
 10 17  1  0  0  0  0
 10 11  2  0  0  0  0
 11 12  1  0  0  0  0
 12 13  1  0  0  0  0
 12 14  1  0  0  0  0
 13 28  1  0  0  0  0
 13 29  1  0  0  0  0
 13 30  1  0  0  0  0
 14 15  2  0  0  0  0
 14 16  1  0  0  0  0
 16 17  1  0  0  0  0
 16 31  1  0  0  0  0
 16 32  1  0  0  0  0
 17 33  1  0  0  0  0
 17 34  1  0  0  0  0
 18 19  1  0  0  0  0
 18 35  1  0  0  0  0
M  END
> <s_m_source_file>
AV-unprocessed.smi

> <i_m_source_file_index>
2018

> <i_lp_mmshare_version>
43012

> <i_f3d_flags>
0

> <s_epik_input>
W0NIM11jMW5jKFtjSF1zMSlbQ0gyXVtDSDJdW05IXUMoPU8pQzI9Tk4oW0NIM10pQyg9TylbQ0gyXVtDSDJdMg==

> <s_epik_cmdline>
J2VwaWtfcHl0aG9uJywgJy1waCcsICc3LjAnLCAnLXRuJywgJzgnLCAnLW1hJywgJzIwMCcsICctbWV0YWxfYmluZGluZycsICctaW1hZScsICc8aW5maWxlLm1hZT4nLCAnLW9tYWUnLCAnPG91dGZpbGUubWFlPic=

> <r_epik_Ionization_Penalty>
0.000694267

> <r_epik_Ionization_Penalty_Charging>
0

> <r_epik_Ionization_Penalty_Neutral>
0.000694267

> <r_epik_State_Penalty>
0.000389372

> <r_epik_Charging_Adjusted_Penalty>
0.000389372

> <i_epik_Tot_Q>
0

> <i_epik_Tot_abs_Q>
0

> <r_epik_Metal_State_Penalty>
0.0645979

> <b_epik_Metal_Only>
0

> <s_epik_Chemistry_Notes>
This compound has an imine and may undergo hydrolysis.

> <s_lp_Force_Field>
OPLS_2005

> <r_lp_Energy>
11.1599

> <b_lp_Chiralities_Consistent>
1

> <s_lp_Variant>
AV-unprocessed.smi:2018-1

> <Gold.Version>
5.8.1

> <Gold.Id.Protein>
6NUR|6NUR_protein|mol2

> <Gold.PLP.Fitness>
37.1205

> <Gold.PLP.PLP>
-32.1302

> <Gold.PLP.part.hbond>
-1.0000

> <Gold.PLP.part.metal>
0.0000

> <Gold.PLP.part.buried>
-5.1142

> <Gold.PLP.part.nonpolar>
-27.2022

> <Gold.PLP.part.repulsive>
0.0358

> <Gold.PLP.ligand.clash>
0.0000

> <Gold.PLP.ligand.torsion>
0.5092

> <Gold.PLP.Chemscore.Hbond>
1.0000

> <Gold.PLP.Chemscore.CHOScore>
1.0000

> <Gold.PLP.Chemscore.Metal>
0.0000

> <Gold.Chemscore.Hbonds>
donor molecule, donor type, donor heavy atom, donor atom, acceptor molecule, acceptor atom, score
      P1  H  7989  7998       L1     9  0.34
      L1  C    18    35       P1  8028  0.83
      L1  C    18    35       P1  8029  0.02

> <Gold.PLP.Chemscore.Internal.Correction>
0.0087

> <Gold.Rescore>
     Score         DG    S(hbond)    S(metal)    S(lipo)     H(rot)  DE(clash)    DE(int)     intcor
     14.54     -15.04       0.96        0.00      85.87       1.45       0.11       0.39       ----

> <Gold.Chemscore.Fitness>
14.5376

> <Gold.Chemscore.DG>
-15.0392

> <Gold.Chemscore.ZeroCoef>
-5.4800

> <Gold.Chemscore.Hbond>
0.9639

> <Gold.Chemscore.Metal>
0.0000

> <Gold.Chemscore.Lipo>
85.8691

> <Gold.Chemscore.Internal_Hbond>
0.0000

> <Gold.Chemscore.DEClash>
0.1103

> <Gold.Chemscore.DEInternal>
0.3913

> <Gold.Chemscore.Rot>
1.4480

> <Gold.Chemscore.Internal.Correction>
   9.000000E+99

> <Gold.Chemscore.Hbonds>
donor molecule, donor type, donor heavy atom, donor atom, acceptor molecule, acceptor atom, score
      P1  H  7989  7998       L1     9  0.34

> <Gold.Chemscore.Hbond.Weighted>
-3.2195

> <Gold.Chemscore.Metal.Weighted>
-0.0000

> <Gold.Chemscore.Lipo.Weighted>
-10.0467

> <Gold.Chemscore.Internal_Hbond.Weighted>
0.0000

> <Gold.Chemscore.DEClash.Weighted>
0.1103

> <Gold.Chemscore.DEInternal.Weighted>
0.3913

> <Gold.Chemscore.Rot.Weighted>
3.7070

> <Gold.Chemscore.Internal.Correction.Weighted>
   9.000000E+99

> <Gold.Protein.RotatedTorsions>
[ 6907 6896 6895 6894 ] final  157.21 input  -60.11 | X-H torsion
[ 7974 7965 7964 7962 ] final   96.26 input  175.53 | X-H torsion
[ 8008 7997 7996 7995 ] final -167.72 input   59.86 | X-H torsion
[ 10167 10162 10161 10158 ] final   54.09 input  -65.29 | X-H torsion
[ 10718 10713 10712 10709 ] final -116.50 input   66.30 | X-H torsion
[ 10763 10752 10751 10750 ] final   27.36 input  -60.55 | X-H torsion
[ 11005 11000 10999 10996 ] final   23.65 input  -57.11 | X-H torsion

> <Gold.Protein.ActiveResidues>
 VAL166  LYS551  ARG553  GLY616  TRP617  ASP618  TYR619  PRO620  LYS621  CYS622 
 ASP623  PHE694  ASN695  SER759  ASP760  ASP761  ALA762  ILE779  LEU786  VAL792 
 PHE793  MET794  SER795  GLU796  ALA797  LYS798  CYS799  TRP800  GLU811  SER814 

> <Gold.Protein.RotatedAtoms>
  152.0185  133.3889  159.4248 H   0  0  0  0  0  0  0  0  0  0  0  0  # atno 6907 bound_to 6896
  150.6892  134.3652  159.4977 H   0  0  0  0  0  0  0  0  0  0  0  0  # atno 6908 bound_to 6896
  152.1423  134.9052  160.0603 H   0  0  0  0  0  0  0  0  0  0  0  0  # atno 6909 bound_to 6896
  145.4412  139.2301  143.3091 H   0  0  0  0  0  0  0  0  0  0  0  0  # atno 7974 bound_to 7965
  155.8815  140.1010  157.1482 H   0  0  0  0  0  0  0  0  0  0  0  0  # atno 8008 bound_to 7997
  154.4005  140.1328  156.4266 H   0  0  0  0  0  0  0  0  0  0  0  0  # atno 8009 bound_to 7997
  155.7637  140.3462  155.5213 H   0  0  0  0  0  0  0  0  0  0  0  0  # atno 8010 bound_to 7997
  140.2339  144.3657  150.6404 H   0  0  0  0  0  0  0  0  0  0  0  0  # atno 10167 bound_to 10162
  156.0968  130.6138  150.9043 H   0  0  0  0  0  0  0  0  0  0  0  0  # atno 10718 bound_to 10713
  153.0561  135.6539  154.0574 H   0  0  0  0  0  0  0  0  0  0  0  0  # atno 10763 bound_to 10752
  154.0252  135.2916  155.3377 H   0  0  0  0  0  0  0  0  0  0  0  0  # atno 10764 bound_to 10752
  154.6877  135.5295  153.8416 H   0  0  0  0  0  0  0  0  0  0  0  0  # atno 10765 bound_to 10752
  140.3673  134.2060  155.7668 H   0  0  0  0  0  0  0  0  0  0  0  0  # atno 11005 bound_to 11000
  146.2555  140.5161  142.8875 LP  0  0  0  0  0  0  0  0  0  0  0  0  # atno 17320 bound_to 7965
  144.8120  140.6402  143.6409 LP  0  0  0  0  0  0  0  0  0  0  0  0  # atno 17321 bound_to 7965
  140.6165  143.2173  151.6782 LP  0  0  0  0  0  0  0  0  0  0  0  0  # atno 17342 bound_to 10162
  139.5100  144.3556  152.0611 LP  0  0  0  0  0  0  0  0  0  0  0  0  # atno 17343 bound_to 10162
  157.6130  131.0935  150.8761 LP  0  0  0  0  0  0  0  0  0  0  0  0  # atno 17370 bound_to 10713
  156.8897  130.5208  149.5287 LP  0  0  0  0  0  0  0  0  0  0  0  0  # atno 17371 bound_to 10713
  141.1965  133.8080  157.0667 LP  0  0  0  0  0  0  0  0  0  0  0  0  # atno 17394 bound_to 11000
  140.0579  134.9770  157.1253 LP  0  0  0  0  0  0  0  0  0  0  0  0  # atno 17395 bound_to 11000

$$$$
