AV-unprocessed.smi:3303|AV-procd|sdf|12685|dock9
  -GOLD-   2272019 23D 1   1.00000     0.00000
 Structure written by MMmdl.
 44 45  0  0  0  0  0  0  0  0  2 V2000
  146.6762  142.7106  154.6723 C   0  0  0  0  0  0  0  0  0  0  0  0
  147.6174  141.7117  153.9755 C   0  0  2  0  0  0  0  0  0  0  0  0
  146.7940  140.6144  153.2686 C   0  0  0  0  0  0  0  0  0  0  0  0
  147.6670  139.6220  152.5929 N   0  3  2  0  0  0  0  0  0  0  0  0
  146.9125  138.6842  151.7309 C   0  0  0  0  0  0  0  0  0  0  0  0
  148.6327  138.9605  153.5152 C   0  0  2  0  0  0  0  0  0  0  0  0
  147.9712  137.9897  154.5175 C   0  0  0  0  0  0  0  0  0  0  0  0
  149.4947  140.0271  154.2159 C   0  0  0  0  0  0  0  0  0  0  0  0
  148.6423  141.0801  154.9489 C   0  0  1  0  0  0  0  0  0  0  0  0
  149.5510  142.1063  155.4438 N   0  0  0  0  0  0  0  0  0  0  0  0
  150.4758  141.5743  156.4350 C   0  0  0  0  0  0  0  0  0  0  0  0
  150.8365  142.6428  157.4810 C   0  0  0  0  0  0  0  0  0  0  0  0
  151.7440  142.1179  158.5818 C   0  0  0  0  0  0  0  0  0  0  0  0
  152.1283  142.9551  159.6510 C   0  0  0  0  0  0  0  0  0  0  0  0
  152.9877  142.4337  160.6373 C   0  0  0  0  0  0  0  0  0  0  0  0
  153.4304  141.1025  160.5164 C   0  0  0  0  0  0  0  0  0  0  0  0
  152.9905  140.3482  159.4106 C   0  0  0  0  0  0  0  0  0  0  0  0
  152.1659  140.8383  158.4600 N   0  0  0  0  0  0  0  0  0  0  0  0
  146.1250  142.2359  155.4845 H   0  0  0  0  0  0  0  0  0  0  0  0
  145.9484  143.1189  153.9708 H   0  0  0  0  0  0  0  0  0  0  0  0
  147.2252  143.5549  155.0904 H   0  0  0  0  0  0  0  0  0  0  0  0
  148.1658  142.2572  153.2054 H   0  0  0  0  0  0  0  0  0  0  0  0
  146.1351  140.1111  153.9767 H   0  0  0  0  0  0  0  0  0  0  0  0
  146.1462  141.0775  152.5228 H   0  0  0  0  0  0  0  0  0  0  0  0
  146.1787  138.1158  152.3029 H   0  0  0  0  0  0  0  0  0  0  0  0
  147.5858  137.9825  151.2376 H   0  0  0  0  0  0  0  0  0  0  0  0
  146.3783  139.2316  150.9539 H   0  0  0  0  0  0  0  0  0  0  0  0
  149.3058  138.3663  152.8956 H   0  0  0  0  0  0  0  0  0  0  0  0
  148.7232  137.5335  155.1619 H   0  0  0  0  0  0  0  0  0  0  0  0
  147.4548  137.1741  154.0116 H   0  0  0  0  0  0  0  0  0  0  0  0
  147.2513  138.4872  155.1665 H   0  0  0  0  0  0  0  0  0  0  0  0
  150.1860  139.5501  154.9121 H   0  0  0  0  0  0  0  0  0  0  0  0
  150.1154  140.5203  153.4655 H   0  0  0  0  0  0  0  0  0  0  0  0
  148.1177  140.5972  155.7749 H   0  0  0  0  0  0  0  0  0  0  0  0
  150.0725  142.5141  154.6808 H   0  0  0  0  0  0  0  0  0  0  0  0
  150.0416  140.7069  156.9334 H   0  0  0  0  0  0  0  0  0  0  0  0
  151.3783  141.2356  155.9251 H   0  0  0  0  0  0  0  0  0  0  0  0
  151.3382  143.4751  156.9861 H   0  0  0  0  0  0  0  0  0  0  0  0
  149.9302  143.0601  157.9228 H   0  0  0  0  0  0  0  0  0  0  0  0
  151.7774  143.9748  159.7128 H   0  0  0  0  0  0  0  0  0  0  0  0
  153.3032  143.0445  161.4701 H   0  0  0  0  0  0  0  0  0  0  0  0
  154.0912  140.6700  161.2528 H   0  0  0  0  0  0  0  0  0  0  0  0
  153.3107  139.3246  159.2852 H   0  0  0  0  0  0  0  0  0  0  0  0
  148.2393  140.1606  151.9581 H   0  0  0  0  0  0  0  0  0  0  0  0
  1  2  1  0  0  0  0
  1 19  1  0  0  0  0
  1 20  1  0  0  0  0
  1 21  1  0  0  0  0
  2  9  1  0  0  0  0
  2  3  1  0  0  0  0
  2 22  1  0  0  0  0
  3  4  1  0  0  0  0
  3 23  1  0  0  0  0
  3 24  1  0  0  0  0
  4  5  1  0  0  0  0
  4  6  1  0  0  0  0
  4 44  1  0  0  0  0
  5 25  1  0  0  0  0
  5 26  1  0  0  0  0
  5 27  1  0  0  0  0
  6  7  1  0  0  0  0
  6  8  1  0  0  0  0
  6 28  1  0  0  0  0
  7 29  1  0  0  0  0
  7 30  1  0  0  0  0
  7 31  1  0  0  0  0
  8  9  1  0  0  0  0
  8 32  1  0  0  0  0
  8 33  1  0  0  0  0
  9 10  1  0  0  0  0
  9 34  1  0  0  0  0
 10 11  1  0  0  0  0
 10 35  1  0  0  0  0
 11 12  1  0  0  0  0
 11 36  1  0  0  0  0
 11 37  1  0  0  0  0
 12 13  1  0  0  0  0
 12 38  1  0  0  0  0
 12 39  1  0  0  0  0
 13 18  1  0  0  0  0
 13 14  2  0  0  0  0
 14 15  1  0  0  0  0
 14 40  1  0  0  0  0
 15 16  2  0  0  0  0
 15 41  1  0  0  0  0
 16 17  1  0  0  0  0
 16 42  1  0  0  0  0
 17 18  2  0  0  0  0
 17 43  1  0  0  0  0
M  CHG  1   4   1
M  END
> <s_m_source_file>
AV-unprocessed.smi

> <i_m_source_file_index>
3303

> <i_lp_mmshare_version>
43012

> <i_f3d_flags>
0

> <s_epik_input>
W0NIM11bQ0BASF0xW0NIMl1OKFtDSDNdKVtDQEBIXShbQ0gzXSlbQ0gyXVtDQEhdMVtOSF1bQ0gyXVtDSDJdYzJbY0hdW2NIXVtjSF1bY0hdbjI=

> <s_epik_cmdline>
J2VwaWtfcHl0aG9uJywgJy1waCcsICc3LjAnLCAnLXRuJywgJzgnLCAnLW1hJywgJzIwMCcsICctbWV0YWxfYmluZGluZycsICctaW1hZScsICc8aW5maWxlLm1hZT4nLCAnLW9tYWUnLCAnPG91dGZpbGUubWFlPic=

> <r_epik_Ionization_Penalty>
2.31085

> <r_epik_Ionization_Penalty_Charging>
0.000313057

> <r_epik_Ionization_Penalty_Neutral>
2.31054

> <r_epik_State_Penalty>
2.4087

> <r_epik_Charging_Adjusted_Penalty>
2.40902

> <i_epik_Tot_Q>
1

> <i_epik_Tot_abs_Q>
1

> <r_epik_Metal_State_Penalty>
2.30979

> <b_epik_Metal_Only>
0

> <s_lp_Force_Field>
OPLS_2005

> <r_lp_Energy>
26.7889

> <b_lp_Chiralities_Consistent>
1

> <s_lp_Variant>
AV-unprocessed.smi:3303-29

> <Gold.Version>
5.8.1

> <Gold.Id.Protein>
6NUR|6NUR_protein|mol2

> <Gold.PLP.Fitness>
43.0271

> <Gold.PLP.PLP>
-40.4796

> <Gold.PLP.part.hbond>
-2.0000

> <Gold.PLP.part.metal>
0.0000

> <Gold.PLP.part.buried>
0.5534

> <Gold.PLP.part.nonpolar>
-38.5254

> <Gold.PLP.part.repulsive>
0.0642

> <Gold.PLP.ligand.clash>
0.0000

> <Gold.PLP.ligand.torsion>
0.2288

> <Gold.PLP.Chemscore.Hbond>
1.0000

> <Gold.PLP.Chemscore.CHOScore>
0.0000

> <Gold.PLP.Chemscore.Metal>
0.0000

> <Gold.Chemscore.Hbonds>
donor molecule, donor type, donor heavy atom, donor atom, acceptor molecule, acceptor atom, score
      L1  H     4    44       P1  7957  0.82

> <Gold.PLP.Chemscore.Internal.Correction>
0.0051

> <Gold.Rescore>
     Score         DG    S(hbond)    S(metal)    S(lipo)     H(rot)  DE(clash)    DE(int)     intcor
     17.86     -19.43       1.00        0.00     119.76       1.33       1.24       0.33       ----

> <Gold.Chemscore.Fitness>
17.8625

> <Gold.Chemscore.DG>
-19.4332

> <Gold.Chemscore.ZeroCoef>
-5.4800

> <Gold.Chemscore.Hbond>
0.9996

> <Gold.Chemscore.Metal>
0.0000

> <Gold.Chemscore.Lipo>
119.7618

> <Gold.Chemscore.Internal_Hbond>
0.0000

> <Gold.Chemscore.DEClash>
1.2405

> <Gold.Chemscore.DEInternal>
0.3303

> <Gold.Chemscore.Rot>
1.3272

> <Gold.Chemscore.Internal.Correction>
   9.000000E+99

> <Gold.Chemscore.Hbonds>
donor molecule, donor type, donor heavy atom, donor atom, acceptor molecule, acceptor atom, score
      L1  H     4    44       P1  7957  0.79

> <Gold.Chemscore.Hbond.Weighted>
-3.3388

> <Gold.Chemscore.Metal.Weighted>
-0.0000

> <Gold.Chemscore.Lipo.Weighted>
-14.0121

> <Gold.Chemscore.Internal_Hbond.Weighted>
0.0000

> <Gold.Chemscore.DEClash.Weighted>
1.2405

> <Gold.Chemscore.DEInternal.Weighted>
0.3303

> <Gold.Chemscore.Rot.Weighted>
3.3976

> <Gold.Chemscore.Internal.Correction.Weighted>
   9.000000E+99

> <Gold.Protein.RotatedTorsions>
[ 6907 6896 6895 6894 ] final  -97.65 input  -60.11 | X-H torsion
[ 7974 7965 7964 7962 ] final -162.02 input  175.53 | X-H torsion
[ 8008 7997 7996 7995 ] final  117.28 input   59.86 | X-H torsion
[ 10167 10162 10161 10158 ] final  -49.17 input  -65.29 | X-H torsion
[ 10718 10713 10712 10709 ] final  150.89 input   66.30 | X-H torsion
[ 10763 10752 10751 10750 ] final   84.55 input  -60.55 | X-H torsion
[ 11005 11000 10999 10996 ] final -104.37 input  -57.11 | X-H torsion

> <Gold.Protein.ActiveResidues>
 VAL166  LYS551  ARG553  GLY616  TRP617  ASP618  TYR619  PRO620  LYS621  CYS622 
 ASP623  PHE694  ASN695  SER759  ASP760  ASP761  ALA762  ILE779  LEU786  VAL792 
 PHE793  MET794  SER795  GLU796  ALA797  LYS798  CYS799  TRP800  GLU811  SER814 

> <Gold.Protein.RotatedAtoms>
  150.7023  134.1316  159.4071 H   0  0  0  0  0  0  0  0  0  0  0  0  # atno 6907 bound_to 6896
  151.9301  135.0258  160.0538 H   0  0  0  0  0  0  0  0  0  0  0  0  # atno 6908 bound_to 6896
  152.2183  133.4928  159.5185 H   0  0  0  0  0  0  0  0  0  0  0  0  # atno 6909 bound_to 6896
  144.7371  140.3313  143.6152 H   0  0  0  0  0  0  0  0  0  0  0  0  # atno 7974 bound_to 7965
  156.2485  140.2899  156.0653 H   0  0  0  0  0  0  0  0  0  0  0  0  # atno 8008 bound_to 7997
  155.1730  140.0402  157.2884 H   0  0  0  0  0  0  0  0  0  0  0  0  # atno 8009 bound_to 7997
  154.6312  140.2500  155.7438 H   0  0  0  0  0  0  0  0  0  0  0  0  # atno 8010 bound_to 7997
  140.6697  143.2709  151.4176 H   0  0  0  0  0  0  0  0  0  0  0  0  # atno 10167 bound_to 10162
  157.2777  131.0829  151.1554 H   0  0  0  0  0  0  0  0  0  0  0  0  # atno 10718 bound_to 10713
  153.1392  135.4650  154.9470 H   0  0  0  0  0  0  0  0  0  0  0  0  # atno 10763 bound_to 10752
  154.7732  135.3165  154.8148 H   0  0  0  0  0  0  0  0  0  0  0  0  # atno 10764 bound_to 10752
  153.8674  135.6907  153.4831 H   0  0  0  0  0  0  0  0  0  0  0  0  # atno 10765 bound_to 10752
  141.1104  133.8717  157.1602 H   0  0  0  0  0  0  0  0  0  0  0  0  # atno 11005 bound_to 11000
  145.7469  139.1781  143.2344 LP  0  0  0  0  0  0  0  0  0  0  0  0  # atno 17320 bound_to 7965
  146.1091  140.7450  142.9512 LP  0  0  0  0  0  0  0  0  0  0  0  0  # atno 17321 bound_to 7965
  139.5961  144.1395  152.2145 LP  0  0  0  0  0  0  0  0  0  0  0  0  # atno 17342 bound_to 10162
  140.0765  144.5736  150.7153 LP  0  0  0  0  0  0  0  0  0  0  0  0  # atno 17343 bound_to 10162
  157.3000  130.6838  149.6159 LP  0  0  0  0  0  0  0  0  0  0  0  0  # atno 17370 bound_to 10713
  155.9664  130.4395  150.5260 LP  0  0  0  0  0  0  0  0  0  0  0  0  # atno 17371 bound_to 10713
  139.9994  135.0034  157.0156 LP  0  0  0  0  0  0  0  0  0  0  0  0  # atno 17394 bound_to 11000
  140.4791  134.1307  155.7214 LP  0  0  0  0  0  0  0  0  0  0  0  0  # atno 17395 bound_to 11000

$$$$
