AV-unprocessed.smi:224|AV-procd|sdf|1722|dock9
  -GOLD-   2262020203D 1   1.00000     0.00000
 Structure written by MMmdl.
 56 59  0  0  0  0  0  0  0  0  2 V2000
  145.9217  135.1791  150.9221 C   0  0  0  0  0  0  0  0  0  0  0  0
  144.4937  134.6421  150.7433 C   0  0  1  0  0  0  0  0  0  0  0  0
  144.3577  134.2058  149.4072 O   0  0  0  0  0  0  0  0  0  0  0  0
  144.1745  133.4536  151.6759 C   0  0  0  0  0  0  0  0  0  0  0  0
  144.1841  133.8168  153.1232 N   0  3  1  0  0  0  0  0  0  0  0  0
  145.5747  133.9004  153.6558 C   0  0  0  0  0  0  0  0  0  0  0  0
  145.6039  134.2222  155.1564 C   0  0  0  0  0  0  0  0  0  0  0  0
  144.8611  135.4448  155.4262 N   0  0  0  0  0  0  0  0  0  0  0  0
  145.5535  136.6127  155.3385 C   0  0  0  0  0  0  0  0  0  0  0  0
  145.0251  137.6609  154.6516 N   0  0  0  0  0  0  0  0  0  0  0  0
  145.6975  138.8103  154.5437 C   0  0  0  0  0  0  0  0  0  0  0  0
  146.8940  139.1252  155.0408 N   0  0  0  0  0  0  0  0  0  0  0  0
  147.4255  138.0872  155.7469 C   0  0  0  0  0  0  0  0  0  0  0  0
  146.8297  136.8082  155.9421 C   0  0  0  0  0  0  0  0  0  0  0  0
  147.6657  136.0156  156.7201 N   0  0  0  0  0  0  0  0  0  0  0  0
  148.6989  136.7757  156.9593 C   0  0  0  0  0  0  0  0  0  0  0  0
  148.6341  138.0407  156.4205 N   0  0  0  0  0  0  0  0  0  0  0  0
  149.6356  139.0911  156.5322 C   0  0  0  0  0  0  0  0  0  0  0  0
  150.7108  139.0459  155.4202 C   0  0  2  0  0  0  0  0  0  0  0  0
  150.1677  139.5855  154.2276 O   0  0  0  0  0  0  0  0  0  0  0  0
  151.2003  137.6333  155.1275 C   0  0  0  0  0  0  0  0  0  0  0  0
  152.6211  137.8661  154.6317 C   0  0  0  0  0  0  0  0  0  0  0  0
  153.0879  138.9011  155.4799 O   0  0  0  0  0  0  0  0  0  0  0  0
  152.0158  139.8008  155.7487 C   0  0  0  0  0  0  0  0  0  0  0  0
  143.4802  135.3904  154.9560 C   0  0  0  0  0  0  0  0  0  0  0  0
  143.3782  135.0381  153.4513 C   0  0  2  0  0  0  0  0  0  0  0  0
  141.8849  134.8923  153.0941 C   0  0  0  0  0  0  0  0  0  0  0  0
  146.0740  135.5725  151.9273 H   0  0  0  0  0  0  0  0  0  0  0  0
  146.1263  135.9897  150.2218 H   0  0  0  0  0  0  0  0  0  0  0  0
  146.6650  134.3990  150.7540 H   0  0  0  0  0  0  0  0  0  0  0  0
  143.7802  135.4535  150.8798 H   0  0  0  0  0  0  0  0  0  0  0  0
  145.1408  134.4344  148.9296 H   0  0  0  0  0  0  0  0  0  0  0  0
  143.2052  133.0195  151.4243 H   0  0  0  0  0  0  0  0  0  0  0  0
  144.9094  132.6818  151.4611 H   0  0  0  0  0  0  0  0  0  0  0  0
  146.1032  132.9611  153.5039 H   0  0  0  0  0  0  0  0  0  0  0  0
  146.1267  134.6647  153.1060 H   0  0  0  0  0  0  0  0  0  0  0  0
  145.1469  133.4082  155.7205 H   0  0  0  0  0  0  0  0  0  0  0  0
  146.6368  134.2844  155.4953 H   0  0  0  0  0  0  0  0  0  0  0  0
  145.2068  139.5891  153.9787 H   0  0  0  0  0  0  0  0  0  0  0  0
  149.5407  136.4315  157.5424 H   0  0  0  0  0  0  0  0  0  0  0  0
  149.1203  140.0525  156.5181 H   0  0  0  0  0  0  0  0  0  0  0  0
  150.1063  139.0134  157.5131 H   0  0  0  0  0  0  0  0  0  0  0  0
  149.3353  139.1699  154.0618 H   0  0  0  0  0  0  0  0  0  0  0  0
  151.2371  137.0472  156.0470 H   0  0  0  0  0  0  0  0  0  0  0  0
  150.5790  137.0914  154.4132 H   0  0  0  0  0  0  0  0  0  0  0  0
  153.2460  136.9757  154.7022 H   0  0  0  0  0  0  0  0  0  0  0  0
  152.6241  138.2104  153.5965 H   0  0  0  0  0  0  0  0  0  0  0  0
  152.1282  140.7117  155.1587 H   0  0  0  0  0  0  0  0  0  0  0  0
  152.0760  140.0827  156.7994 H   0  0  0  0  0  0  0  0  0  0  0  0
  142.9639  134.6297  155.5430 H   0  0  0  0  0  0  0  0  0  0  0  0
  142.9658  136.3282  155.1711 H   0  0  0  0  0  0  0  0  0  0  0  0
  143.7870  135.8671  152.8723 H   0  0  0  0  0  0  0  0  0  0  0  0
  141.3103  135.7294  153.4919 H   0  0  0  0  0  0  0  0  0  0  0  0
  141.4626  133.9783  153.5129 H   0  0  0  0  0  0  0  0  0  0  0  0
  141.7043  134.8913  152.0203 H   0  0  0  0  0  0  0  0  0  0  0  0
  143.7351  133.0548  153.6111 H   0  0  0  0  0  0  0  0  0  0  0  0
  1  2  1  0  0  0  0
  1 28  1  0  0  0  0
  1 29  1  0  0  0  0
  1 30  1  0  0  0  0
  2  3  1  0  0  0  0
  2  4  1  0  0  0  0
  2 31  1  0  0  0  0
  3 32  1  0  0  0  0
  4  5  1  0  0  0  0
  4 33  1  0  0  0  0
  4 34  1  0  0  0  0
  5 26  1  0  0  0  0
  5  6  1  0  0  0  0
  5 56  1  0  0  0  0
  6  7  1  0  0  0  0
  6 35  1  0  0  0  0
  6 36  1  0  0  0  0
  7  8  1  0  0  0  0
  7 37  1  0  0  0  0
  7 38  1  0  0  0  0
  8  9  1  0  0  0  0
  8 25  1  0  0  0  0
  9 14  1  0  0  0  0
  9 10  2  0  0  0  0
 10 11  1  0  0  0  0
 11 12  2  0  0  0  0
 11 39  1  0  0  0  0
 12 13  1  0  0  0  0
 13 17  1  0  0  0  0
 13 14  2  0  0  0  0
 14 15  1  0  0  0  0
 15 16  2  0  0  0  0
 16 17  1  0  0  0  0
 16 40  1  0  0  0  0
 17 18  1  0  0  0  0
 18 19  1  0  0  0  0
 18 41  1  0  0  0  0
 18 42  1  0  0  0  0
 19 24  1  0  0  0  0
 19 20  1  0  0  0  0
 19 21  1  0  0  0  0
 20 43  1  0  0  0  0
 21 22  1  0  0  0  0
 21 44  1  0  0  0  0
 21 45  1  0  0  0  0
 22 23  1  0  0  0  0
 22 46  1  0  0  0  0
 22 47  1  0  0  0  0
 23 24  1  0  0  0  0
 24 48  1  0  0  0  0
 24 49  1  0  0  0  0
 25 26  1  0  0  0  0
 25 50  1  0  0  0  0
 25 51  1  0  0  0  0
 26 27  1  0  0  0  0
 26 52  1  0  0  0  0
 27 53  1  0  0  0  0
 27 54  1  0  0  0  0
 27 55  1  0  0  0  0
M  CHG  1   5   1
M  END
> <s_m_source_file>
AV-unprocessed.smi

> <i_m_source_file_index>
224

> <i_lp_mmshare_version>
43012

> <i_f3d_flags>
0

> <s_epik_input>
W0NIM11bQ0BIXShbT0hdKVtDSDJdTjFbQ0gyXVtDSDJdTihbQ0gyXVtDQEhdMVtDSDNdKWMobltjSF1uMiljKGMyMyluW2NIXW4zW0NIMl1bQ0BAXTQoW09IXSlbQ0gyXVtDSDJdT1tDSDJdNA==

> <s_epik_cmdline>
J2VwaWtfcHl0aG9uJywgJy1waCcsICc3LjAnLCAnLXRuJywgJzgnLCAnLW1hJywgJzIwMCcsICctbWV0YWxfYmluZGluZycsICctaW1hZScsICc8aW5maWxlLm1hZT4nLCAnLW9tYWUnLCAnPG91dGZpbGUubWFlPic=

> <r_lp_tautomer_probability>
1

> <r_epik_Ionization_Penalty>
0.00516958

> <r_epik_Ionization_Penalty_Charging>
0.00509693

> <r_epik_Ionization_Penalty_Neutral>
7.26542e-05

> <r_epik_State_Penalty>
-0

> <r_epik_Charging_Adjusted_Penalty>
0.00509693

> <i_epik_Tot_Q>
1

> <i_epik_Tot_abs_Q>
1

> <r_epik_Metal_State_Penalty>
-0

> <b_epik_Metal_Only>
0

> <s_lp_Force_Field>
OPLS_2005

> <r_lp_Energy>
50.435

> <b_lp_Chiralities_Consistent>
1

> <s_lp_Variant>
AV-unprocessed.smi:224-16

> <Gold.Version>
5.8.1

> <Gold.Id.Protein>
6NUR|6NUR_protein|mol2

> <Gold.PLP.Fitness>
48.1291

> <Gold.PLP.PLP>
-32.2918

> <Gold.PLP.part.hbond>
-5.8276

> <Gold.PLP.part.metal>
0.0000

> <Gold.PLP.part.buried>
-5.7309

> <Gold.PLP.part.nonpolar>
-21.9368

> <Gold.PLP.part.repulsive>
0.1363

> <Gold.PLP.ligand.clash>
0.0000

> <Gold.PLP.ligand.torsion>
0.9565

> <Gold.PLP.Chemscore.Hbond>
4.7235

> <Gold.PLP.Chemscore.CHOScore>
1.0000

> <Gold.PLP.Chemscore.Metal>
0.0000

> <Gold.Chemscore.Hbonds>
donor molecule, donor type, donor heavy atom, donor atom, acceptor molecule, acceptor atom, score
      L1  H     3    32       P1  7921  1.00
      L1  H     5    56       P1 10957  1.95
      P1  H  7989  7998       L1    20  0.89
      P1  H  7997  8010       L1    23  0.75
      L1  C    11    39       P1 10175  1.00

> <Gold.PLP.Chemscore.Internal.Correction>
0.5798

> <Gold.Rescore>
     Score         DG    S(hbond)    S(metal)    S(lipo)     H(rot)  DE(clash)    DE(int)     intcor
     13.19     -14.07       2.96        0.00      62.54       3.36       0.01       0.86       ----

> <Gold.Chemscore.Fitness>
13.1939

> <Gold.Chemscore.DG>
-14.0701

> <Gold.Chemscore.ZeroCoef>
-5.4800

> <Gold.Chemscore.Hbond>
2.9573

> <Gold.Chemscore.Metal>
0.0000

> <Gold.Chemscore.Lipo>
62.5406

> <Gold.Chemscore.Internal_Hbond>
0.0000

> <Gold.Chemscore.DEClash>
0.0149

> <Gold.Chemscore.DEInternal>
0.8614

> <Gold.Chemscore.Rot>
3.3611

> <Gold.Chemscore.Internal.Correction>
   9.000000E+99

> <Gold.Chemscore.Hbonds>
donor molecule, donor type, donor heavy atom, donor atom, acceptor molecule, acceptor atom, score
      L1  H     3    32       P1  7921  0.99
      L1  H     5    56       P1 10957  0.85
      P1  H  7989  7998       L1    20  0.48
      P1  H  7997  8010       L1    23  0.09

> <Gold.Chemscore.Hbond.Weighted>
-9.8774

> <Gold.Chemscore.Metal.Weighted>
-0.0000

> <Gold.Chemscore.Lipo.Weighted>
-7.3172

> <Gold.Chemscore.Internal_Hbond.Weighted>
0.0000

> <Gold.Chemscore.DEClash.Weighted>
0.0149

> <Gold.Chemscore.DEInternal.Weighted>
0.8614

> <Gold.Chemscore.Rot.Weighted>
8.6045

> <Gold.Chemscore.Internal.Correction.Weighted>
   9.000000E+99

> <Gold.Protein.RotatedTorsions>
[ 6907 6896 6895 6894 ] final   42.59 input  -60.11 | X-H torsion
[ 7974 7965 7964 7962 ] final   55.38 input  175.53 | X-H torsion
[ 8008 7997 7996 7995 ] final  107.80 input   59.86 | X-H torsion
[ 10167 10162 10161 10158 ] final -160.07 input  -65.29 | X-H torsion
[ 10718 10713 10712 10709 ] final  114.17 input   66.30 | X-H torsion
[ 10763 10752 10751 10750 ] final -165.32 input  -60.55 | X-H torsion
[ 11005 11000 10999 10996 ] final  119.79 input  -57.11 | X-H torsion

> <Gold.Protein.ActiveResidues>
 VAL166  LYS551  ARG553  GLY616  TRP617  ASP618  TYR619  PRO620  LYS621  CYS622 
 ASP623  PHE694  ASN695  SER759  ASP760  ASP761  ALA762  ILE779  LEU786  VAL792 
 PHE793  MET794  SER795  GLU796  ALA797  LYS798  CYS799  TRP800  GLU811  SER814 

> <Gold.Protein.RotatedAtoms>
  152.2098  134.8512  160.0498 H   0  0  0  0  0  0  0  0  0  0  0  0  # atno 6907 bound_to 6896
  151.9335  133.3612  159.3947 H   0  0  0  0  0  0  0  0  0  0  0  0  # atno 6908 bound_to 6896
  150.6973  134.4438  159.5348 H   0  0  0  0  0  0  0  0  0  0  0  0  # atno 6909 bound_to 6896
  145.9510  139.3972  143.0306 H   0  0  0  0  0  0  0  0  0  0  0  0  # atno 7974 bound_to 7965
  156.1852  140.3088  155.9225 H   0  0  0  0  0  0  0  0  0  0  0  0  # atno 8008 bound_to 7997
  155.3295  140.0460  157.3059 H   0  0  0  0  0  0  0  0  0  0  0  0  # atno 8009 bound_to 7997
  154.5388  140.2255  155.8686 H   0  0  0  0  0  0  0  0  0  0  0  0  # atno 8010 bound_to 7997
  139.6567  143.9986  152.2198 H   0  0  0  0  0  0  0  0  0  0  0  0  # atno 10167 bound_to 10162
  157.6297  131.0994  150.7146 H   0  0  0  0  0  0  0  0  0  0  0  0  # atno 10718 bound_to 10713
  154.6943  135.2976  154.9434 H   0  0  0  0  0  0  0  0  0  0  0  0  # atno 10763 bound_to 10752
  154.0387  135.6660  153.4792 H   0  0  0  0  0  0  0  0  0  0  0  0  # atno 10764 bound_to 10752
  153.0634  135.5102  154.8052 H   0  0  0  0  0  0  0  0  0  0  0  0  # atno 10765 bound_to 10752
  139.9160  134.9631  156.7709 H   0  0  0  0  0  0  0  0  0  0  0  0  # atno 11005 bound_to 11000
  145.8171  140.9697  143.0918 LP  0  0  0  0  0  0  0  0  0  0  0  0  # atno 17320 bound_to 7965
  144.6796  139.9994  143.7484 LP  0  0  0  0  0  0  0  0  0  0  0  0  # atno 17321 bound_to 7965
  139.9714  144.6491  150.7985 LP  0  0  0  0  0  0  0  0  0  0  0  0  # atno 17342 bound_to 10162
  140.7562  143.3062  151.2957 LP  0  0  0  0  0  0  0  0  0  0  0  0  # atno 17343 bound_to 10162
  156.7488  130.4762  149.5461 LP  0  0  0  0  0  0  0  0  0  0  0  0  # atno 17370 bound_to 10713
  156.1492  130.6298  151.0572 LP  0  0  0  0  0  0  0  0  0  0  0  0  # atno 17371 bound_to 10713
  140.6622  133.9635  155.7811 LP  0  0  0  0  0  0  0  0  0  0  0  0  # atno 17394 bound_to 11000
  141.0636  134.0310  157.3625 LP  0  0  0  0  0  0  0  0  0  0  0  0  # atno 17395 bound_to 11000

$$$$
