AV-unprocessed.smi:2922|AV-procd|sdf|11200|dock8
  -GOLD-   2272016 93D 1   1.00000     0.00000
 Structure written by MMmdl.
 30 31  0  0  0  0  0  0  0  0  1 V2000
  150.3603  138.1351  153.4920 N   0  0  0  0  0  0  0  0  0  0  0  0
  151.3830  137.8155  154.2903 C   0  0  0  0  0  0  0  0  0  0  0  0
  151.8189  136.6677  154.3565 O   0  0  0  0  0  0  0  0  0  0  0  0
  152.0228  138.9436  155.1140 C   0  0  2  0  0  0  0  0  0  0  0  0
  152.1347  138.6492  156.6224 C   0  0  0  0  0  0  0  0  0  0  0  0
  151.3300  139.7602  157.2727 C   0  0  0  0  0  0  0  0  0  0  0  0
  151.3733  140.8647  156.2208 C   0  0  2  0  0  0  0  0  0  0  0  0
  150.2507  141.9034  156.3420 C   0  0  0  0  0  0  0  0  0  0  0  0
  150.7033  143.1092  157.0192 N   0  0  0  0  0  0  0  0  0  0  0  0
  151.2948  143.1221  158.2679 C   0  0  0  0  0  0  0  0  0  0  0  0
  152.0044  142.0506  158.6443 N   0  0  0  0  0  0  0  0  0  0  0  0
  152.5712  142.0884  159.8702 C   0  0  0  0  0  0  0  0  0  0  0  0
  152.4221  143.2053  160.7166 C   0  0  0  0  0  0  0  0  0  0  0  0
  153.1415  143.2598  162.2836 Cl  0  0  0  0  0  0  0  0  0  0  0  0
  151.6540  144.2755  160.2159 C   0  0  0  0  0  0  0  0  0  0  0  0
  151.0917  144.2291  158.9878 N   0  0  0  0  0  0  0  0  0  0  0  0
  151.2304  140.1272  155.0184 O   0  0  0  0  0  0  0  0  0  0  0  0
  149.9115  137.4206  152.9377 H   0  0  0  0  0  0  0  0  0  0  0  0
  150.0393  139.0917  153.4506 H   0  0  0  0  0  0  0  0  0  0  0  0
  153.0125  139.1562  154.7073 H   0  0  0  0  0  0  0  0  0  0  0  0
  151.7591  137.6685  156.9175 H   0  0  0  0  0  0  0  0  0  0  0  0
  153.1789  138.7060  156.9327 H   0  0  0  0  0  0  0  0  0  0  0  0
  150.3027  139.4275  157.4283 H   0  0  0  0  0  0  0  0  0  0  0  0
  151.7354  140.0720  158.2356 H   0  0  0  0  0  0  0  0  0  0  0  0
  152.3509  141.3513  156.2175 H   0  0  0  0  0  0  0  0  0  0  0  0
  149.8975  142.1775  155.3473 H   0  0  0  0  0  0  0  0  0  0  0  0
  149.4004  141.4795  156.8776 H   0  0  0  0  0  0  0  0  0  0  0  0
  150.5616  143.9987  156.5631 H   0  0  0  0  0  0  0  0  0  0  0  0
  153.1436  141.2248  160.1747 H   0  0  0  0  0  0  0  0  0  0  0  0
  151.4896  145.1695  160.7991 H   0  0  0  0  0  0  0  0  0  0  0  0
  1  2  1  0  0  0  0
  1 18  1  0  0  0  0
  1 19  1  0  0  0  0
  2  3  2  0  0  0  0
  2  4  1  0  0  0  0
  4 17  1  0  0  0  0
  4  5  1  0  0  0  0
  4 20  1  0  0  0  0
  5  6  1  0  0  0  0
  5 21  1  0  0  0  0
  5 22  1  0  0  0  0
  6  7  1  0  0  0  0
  6 23  1  0  0  0  0
  6 24  1  0  0  0  0
  7  8  1  0  0  0  0
  7 17  1  0  0  0  0
  7 25  1  0  0  0  0
  8  9  1  0  0  0  0
  8 26  1  0  0  0  0
  8 27  1  0  0  0  0
  9 10  1  0  0  0  0
  9 28  1  0  0  0  0
 10 16  1  0  0  0  0
 10 11  2  0  0  0  0
 11 12  1  0  0  0  0
 12 13  2  0  0  0  0
 12 29  1  0  0  0  0
 13 14  1  0  0  0  0
 13 15  1  0  0  0  0
 15 16  2  0  0  0  0
 15 30  1  0  0  0  0
M  END
> <s_m_source_file>
AV-unprocessed.smi

> <i_m_source_file_index>
2922

> <i_lp_mmshare_version>
43012

> <i_f3d_flags>
0

> <s_epik_input>
W05IMl1DKD1PKVtDQEBIXTFbQ0gyXVtDSDJdW0NASF0oTzEpW0NIMl1bTkhdYzJuW2NIXWMoQ2wpW2NIXW4y

> <s_epik_cmdline>
J2VwaWtfcHl0aG9uJywgJy1waCcsICc3LjAnLCAnLXRuJywgJzgnLCAnLW1hJywgJzIwMCcsICctbWV0YWxfYmluZGluZycsICctaW1hZScsICc8aW5maWxlLm1hZT4nLCAnLW9tYWUnLCAnPG91dGZpbGUubWFlPic=

> <r_lp_tautomer_probability>
1

> <r_epik_Ionization_Penalty>
6.13883e-06

> <r_epik_Ionization_Penalty_Charging>
0

> <r_epik_Ionization_Penalty_Neutral>
6.13883e-06

> <r_epik_State_Penalty>
-0

> <r_epik_Charging_Adjusted_Penalty>
0

> <i_epik_Tot_Q>
0

> <i_epik_Tot_abs_Q>
0

> <r_epik_Metal_State_Penalty>
-0

> <b_epik_Metal_Only>
0

> <s_lp_Force_Field>
OPLS_2005

> <r_lp_Energy>
9.86342

> <b_lp_Chiralities_Consistent>
1

> <s_lp_Variant>
AV-unprocessed.smi:2922-3

> <Gold.Version>
5.8.1

> <Gold.Id.Protein>
6NUR|6NUR_protein|mol2

> <Gold.PLP.Fitness>
46.5186

> <Gold.PLP.PLP>
-37.4212

> <Gold.PLP.part.hbond>
-5.6970

> <Gold.PLP.part.metal>
0.0000

> <Gold.PLP.part.buried>
-6.2013

> <Gold.PLP.part.nonpolar>
-27.1425

> <Gold.PLP.part.repulsive>
1.0151

> <Gold.PLP.ligand.clash>
0.0000

> <Gold.PLP.ligand.torsion>
0.8168

> <Gold.PLP.Chemscore.Hbond>
3.5710

> <Gold.PLP.Chemscore.CHOScore>
0.0000

> <Gold.PLP.Chemscore.Metal>
0.0000

> <Gold.Chemscore.Hbonds>
donor molecule, donor type, donor heavy atom, donor atom, acceptor molecule, acceptor atom, score
      L1  H     1    18       P1  7948  1.00
      L1  H     9    28       P1  8028  0.61
      P1  H  7989  7998       L1    17  1.00
      P1  H 10752 10763       L1     3  0.99

> <Gold.PLP.Chemscore.Internal.Correction>
0.0182

> <Gold.Rescore>
     Score         DG    S(hbond)    S(metal)    S(lipo)     H(rot)  DE(clash)    DE(int)     intcor
     15.75     -19.41       3.00        0.00      75.27       1.91       0.04       3.62       ----

> <Gold.Chemscore.Fitness>
15.7544

> <Gold.Chemscore.DG>
-19.4102

> <Gold.Chemscore.ZeroCoef>
-5.4800

> <Gold.Chemscore.Hbond>
3.0010

> <Gold.Chemscore.Metal>
0.0000

> <Gold.Chemscore.Lipo>
75.2735

> <Gold.Chemscore.Internal_Hbond>
0.0000

> <Gold.Chemscore.DEClash>
0.0368

> <Gold.Chemscore.DEInternal>
3.6190

> <Gold.Chemscore.Rot>
1.9142

> <Gold.Chemscore.Internal.Correction>
   9.000000E+99

> <Gold.Chemscore.Hbonds>
donor molecule, donor type, donor heavy atom, donor atom, acceptor molecule, acceptor atom, score
      L1  H     1    18       P1  7948  0.26
      L1  H     9    28       P1  8028  0.57
      P1  H  7989  7998       L1    17  0.53
      P1  H 10752 10763       L1     3  0.92

> <Gold.Chemscore.Hbond.Weighted>
-10.0235

> <Gold.Chemscore.Metal.Weighted>
-0.0000

> <Gold.Chemscore.Lipo.Weighted>
-8.8070

> <Gold.Chemscore.Internal_Hbond.Weighted>
0.0000

> <Gold.Chemscore.DEClash.Weighted>
0.0368

> <Gold.Chemscore.DEInternal.Weighted>
3.6190

> <Gold.Chemscore.Rot.Weighted>
4.9002

> <Gold.Chemscore.Internal.Correction.Weighted>
   9.000000E+99

> <Gold.Protein.RotatedTorsions>
[ 6907 6896 6895 6894 ] final  150.53 input  -60.11 | X-H torsion
[ 7974 7965 7964 7962 ] final   94.79 input  175.53 | X-H torsion
[ 8008 7997 7996 7995 ] final    3.78 input   59.86 | X-H torsion
[ 10167 10162 10161 10158 ] final  103.82 input  -65.29 | X-H torsion
[ 10718 10713 10712 10709 ] final   14.49 input   66.30 | X-H torsion
[ 10763 10752 10751 10750 ] final   53.59 input  -60.55 | X-H torsion
[ 11005 11000 10999 10996 ] final  115.98 input  -57.11 | X-H torsion

> <Gold.Protein.ActiveResidues>
 VAL166  LYS551  ARG553  GLY616  TRP617  ASP618  TYR619  PRO620  LYS621  CYS622 
 ASP623  PHE694  ASN695  SER759  ASP760  ASP761  ALA762  ILE779  LEU786  VAL792 
 PHE793  MET794  SER795  GLU796  ALA797  LYS798  CYS799  TRP800  GLU811  SER814 

> <Gold.Protein.RotatedAtoms>
  152.1131  133.4312  159.4640 H   0  0  0  0  0  0  0  0  0  0  0  0  # atno 6907 bound_to 6896
  150.6868  134.2624  159.4564 H   0  0  0  0  0  0  0  0  0  0  0  0  # atno 6908 bound_to 6896
  152.0495  134.9662  160.0625 H   0  0  0  0  0  0  0  0  0  0  0  0  # atno 6909 bound_to 6896
  145.4609  139.2287  143.2988 H   0  0  0  0  0  0  0  0  0  0  0  0  # atno 7974 bound_to 7965
  154.7079  140.2686  155.6657 H   0  0  0  0  0  0  0  0  0  0  0  0  # atno 8008 bound_to 7997
  156.2786  140.2759  156.1635 H   0  0  0  0  0  0  0  0  0  0  0  0  # atno 8009 bound_to 7997
  155.0675  140.0372  157.2587 H   0  0  0  0  0  0  0  0  0  0  0  0  # atno 8010 bound_to 7997
  139.7230  144.7054  151.0842 H   0  0  0  0  0  0  0  0  0  0  0  0  # atno 10167 bound_to 10162
  157.0398  130.6226  149.5749 H   0  0  0  0  0  0  0  0  0  0  0  0  # atno 10718 bound_to 10713
  152.9796  135.5773  154.4767 H   0  0  0  0  0  0  0  0  0  0  0  0  # atno 10763 bound_to 10752
  154.4322  135.2774  155.1907 H   0  0  0  0  0  0  0  0  0  0  0  0  # atno 10764 bound_to 10752
  154.3610  135.6188  153.5744 H   0  0  0  0  0  0  0  0  0  0  0  0  # atno 10765 bound_to 10752
  139.9027  134.9592  156.7128 H   0  0  0  0  0  0  0  0  0  0  0  0  # atno 11005 bound_to 11000
  146.2452  140.5377  142.8917 LP  0  0  0  0  0  0  0  0  0  0  0  0  # atno 17320 bound_to 7965
  144.8004  140.6201  143.6482 LP  0  0  0  0  0  0  0  0  0  0  0  0  # atno 17321 bound_to 7965
  140.7757  143.5141  150.9616 LP  0  0  0  0  0  0  0  0  0  0  0  0  # atno 17342 bound_to 10162
  139.8828  143.7050  152.3155 LP  0  0  0  0  0  0  0  0  0  0  0  0  # atno 17343 bound_to 10162
  156.0042  130.5126  150.7770 LP  0  0  0  0  0  0  0  0  0  0  0  0  # atno 17370 bound_to 10713
  157.5113  131.0925  151.0194 LP  0  0  0  0  0  0  0  0  0  0  0  0  # atno 17371 bound_to 10713
  140.7062  133.9263  155.8055 LP  0  0  0  0  0  0  0  0  0  0  0  0  # atno 17394 bound_to 11000
  141.0335  134.0723  157.3987 LP  0  0  0  0  0  0  0  0  0  0  0  0  # atno 17395 bound_to 11000

$$$$
