AV-unprocessed.smi:1046|AV-procd|sdf|4550|dock8
  -GOLD-   22720 2583D 1   1.00000     0.00000
 Structure written by MMmdl.
 53 55  0  0  0  0  0  0  0  0  2 V2000
  153.7171  143.2903  163.5994 C   0  0  0  0  0  0  0  0  0  0  0  0
  153.2474  142.8735  162.2168 C   0  0  0  0  0  0  0  0  0  0  0  0
  152.3616  143.7168  161.5089 C   0  0  0  0  0  0  0  0  0  0  0  0
  151.9000  143.3648  160.2215 C   0  0  0  0  0  0  0  0  0  0  0  0
  151.0428  144.0289  159.3609 N   0  0  0  0  0  0  0  0  0  0  0  0
  151.0063  143.1966  158.3241 C   0  0  0  0  0  0  0  0  0  0  0  0
  151.7390  142.0696  158.4120 N   0  0  0  0  0  0  0  0  0  0  0  0
  151.8573  141.0187  157.4178 C   0  0  0  0  0  0  0  0  0  0  0  0
  150.4906  140.4035  157.0610 C   0  0  2  0  0  0  0  0  0  0  0  0
  149.5788  140.5652  158.1290 O   0  0  0  0  0  0  0  0  0  0  0  0
  150.4935  138.9251  156.6109 C   0  0  0  0  0  0  0  0  0  0  0  0
  150.7027  138.6687  155.1773 N   0  0  0  0  0  0  0  0  0  0  0  0
  150.3085  137.3145  154.7856 C   0  0  0  0  0  0  0  0  0  0  0  0
  148.7828  137.0967  154.7970 C   0  0  0  0  0  0  0  0  0  0  0  0
  148.1220  138.0615  153.8824 N   0  3  0  0  0  0  0  0  0  0  0  0
  146.6575  137.8378  153.7837 C   0  0  0  0  0  0  0  0  0  0  0  0
  146.0410  138.4816  152.5298 C   0  0  0  0  0  0  0  0  0  0  0  0
  146.8165  138.1660  151.3926 O   0  0  0  0  0  0  0  0  0  0  0  0
  148.4946  139.4555  154.2394 C   0  0  0  0  0  0  0  0  0  0  0  0
  150.0299  139.6117  154.2751 C   0  0  0  0  0  0  0  0  0  0  0  0
  152.3523  142.1362  159.6578 C   0  0  0  0  0  0  0  0  0  0  0  0
  153.2345  141.2892  160.3513 C   0  0  0  0  0  0  0  0  0  0  0  0
  153.6871  141.6566  161.6358 C   0  0  0  0  0  0  0  0  0  0  0  0
  154.6409  140.7360  162.3763 C   0  0  0  0  0  0  0  0  0  0  0  0
  153.2410  144.2175  163.9192 H   0  0  0  0  0  0  0  0  0  0  0  0
  154.7958  143.4485  163.6032 H   0  0  0  0  0  0  0  0  0  0  0  0
  153.4763  142.5215  164.3340 H   0  0  0  0  0  0  0  0  0  0  0  0
  152.0282  144.6446  161.9498 H   0  0  0  0  0  0  0  0  0  0  0  0
  150.4140  143.4196  157.4487 H   0  0  0  0  0  0  0  0  0  0  0  0
  152.3263  141.4439  156.5297 H   0  0  0  0  0  0  0  0  0  0  0  0
  152.5333  140.2600  157.8119 H   0  0  0  0  0  0  0  0  0  0  0  0
  150.0819  140.9752  156.2267 H   0  0  0  0  0  0  0  0  0  0  0  0
  148.7140  140.3411  157.8204 H   0  0  0  0  0  0  0  0  0  0  0  0
  151.2944  138.4421  157.1729 H   0  0  0  0  0  0  0  0  0  0  0  0
  149.5815  138.4400  156.9567 H   0  0  0  0  0  0  0  0  0  0  0  0
  150.6869  137.1094  153.7831 H   0  0  0  0  0  0  0  0  0  0  0  0
  150.7920  136.5840  155.4354 H   0  0  0  0  0  0  0  0  0  0  0  0
  148.5637  136.0781  154.4741 H   0  0  0  0  0  0  0  0  0  0  0  0
  148.3816  137.2028  155.8061 H   0  0  0  0  0  0  0  0  0  0  0  0
  146.4525  136.7665  153.7557 H   0  0  0  0  0  0  0  0  0  0  0  0
  146.1705  138.2178  154.6829 H   0  0  0  0  0  0  0  0  0  0  0  0
  145.0346  138.0921  152.3741 H   0  0  0  0  0  0  0  0  0  0  0  0
  145.9469  139.5628  152.6248 H   0  0  0  0  0  0  0  0  0  0  0  0
  147.3167  137.3846  151.5755 H   0  0  0  0  0  0  0  0  0  0  0  0
  148.0926  140.1500  153.5027 H   0  0  0  0  0  0  0  0  0  0  0  0
  148.0496  139.7287  155.1967 H   0  0  0  0  0  0  0  0  0  0  0  0
  150.2764  140.6391  154.5248 H   0  0  0  0  0  0  0  0  0  0  0  0
  150.4152  139.4626  153.2655 H   0  0  0  0  0  0  0  0  0  0  0  0
  153.5605  140.3654  159.8968 H   0  0  0  0  0  0  0  0  0  0  0  0
  154.9253  139.8811  161.7620 H   0  0  0  0  0  0  0  0  0  0  0  0
  154.1744  140.3560  163.2853 H   0  0  0  0  0  0  0  0  0  0  0  0
  155.5525  141.2674  162.6501 H   0  0  0  0  0  0  0  0  0  0  0  0
  148.4996  137.8805  152.9630 H   0  0  0  0  0  0  0  0  0  0  0  0
  1  2  1  0  0  0  0
  1 25  1  0  0  0  0
  1 26  1  0  0  0  0
  1 27  1  0  0  0  0
  2 23  1  0  0  0  0
  2  3  2  0  0  0  0
  3  4  1  0  0  0  0
  3 28  1  0  0  0  0
  4 21  2  0  0  0  0
  4  5  1  0  0  0  0
  5  6  2  0  0  0  0
  6  7  1  0  0  0  0
  6 29  1  0  0  0  0
  7  8  1  0  0  0  0
  7 21  1  0  0  0  0
  8  9  1  0  0  0  0
  8 30  1  0  0  0  0
  8 31  1  0  0  0  0
  9 10  1  0  0  0  0
  9 11  1  0  0  0  0
  9 32  1  0  0  0  0
 10 33  1  0  0  0  0
 11 12  1  0  0  0  0
 11 34  1  0  0  0  0
 11 35  1  0  0  0  0
 12 20  1  0  0  0  0
 12 13  1  0  0  0  0
 13 14  1  0  0  0  0
 13 36  1  0  0  0  0
 13 37  1  0  0  0  0
 14 15  1  0  0  0  0
 14 38  1  0  0  0  0
 14 39  1  0  0  0  0
 15 16  1  0  0  0  0
 15 19  1  0  0  0  0
 15 53  1  0  0  0  0
 16 17  1  0  0  0  0
 16 40  1  0  0  0  0
 16 41  1  0  0  0  0
 17 18  1  0  0  0  0
 17 42  1  0  0  0  0
 17 43  1  0  0  0  0
 18 44  1  0  0  0  0
 19 20  1  0  0  0  0
 19 45  1  0  0  0  0
 19 46  1  0  0  0  0
 20 47  1  0  0  0  0
 20 48  1  0  0  0  0
 21 22  1  0  0  0  0
 22 23  2  0  0  0  0
 22 49  1  0  0  0  0
 23 24  1  0  0  0  0
 24 50  1  0  0  0  0
 24 51  1  0  0  0  0
 24 52  1  0  0  0  0
M  CHG  1  15   1
M  END
> <s_m_source_file>
AV-unprocessed.smi

> <i_m_source_file_index>
1046

> <i_lp_mmshare_version>
43012

> <i_f3d_flags>
0

> <s_epik_input>
W0NIM11jKFtjSF0xKWMoW0NIM10pW2NIXWMoYzEyKW4oW2NIXW4yKVtDSDJdW0NASF0oW09IXSlbQ0gyXU4zW0NIMl1bQ0gyXU4oW0NIMl1bQ0gyXTMpW0NIMl1bQ0gyXVtPSF0=

> <s_epik_cmdline>
J2VwaWtfcHl0aG9uJywgJy1waCcsICc3LjAnLCAnLXRuJywgJzgnLCAnLW1hJywgJzIwMCcsICctbWV0YWxfYmluZGluZycsICctaW1hZScsICc8aW5maWxlLm1hZT4nLCAnLW9tYWUnLCAnPG91dGZpbGUubWFlPic=

> <r_epik_Ionization_Penalty>
0.218081

> <r_epik_Ionization_Penalty_Charging>
0.0909554

> <r_epik_Ionization_Penalty_Neutral>
0.127126

> <r_epik_State_Penalty>
0.825642

> <r_epik_Charging_Adjusted_Penalty>
0.916597

> <i_epik_Tot_Q>
1

> <i_epik_Tot_abs_Q>
1

> <r_epik_Metal_State_Penalty>
0.740189

> <b_epik_Metal_Only>
0

> <s_lp_Force_Field>
OPLS_2005

> <r_lp_Energy>
40.3597

> <b_lp_Chiralities_Consistent>
1

> <s_lp_Variant>
AV-unprocessed.smi:1046-3

> <Gold.Version>
5.8.1

> <Gold.Id.Protein>
6NUR|6NUR_protein|mol2

> <Gold.PLP.Fitness>
57.9455

> <Gold.PLP.PLP>
-46.4598

> <Gold.PLP.part.hbond>
-2.6393

> <Gold.PLP.part.metal>
0.0000

> <Gold.PLP.part.buried>
-5.6487

> <Gold.PLP.part.nonpolar>
-37.1536

> <Gold.PLP.part.repulsive>
0.1675

> <Gold.PLP.ligand.clash>
0.0000

> <Gold.PLP.ligand.torsion>
1.1397

> <Gold.PLP.Chemscore.Hbond>
3.5120

> <Gold.PLP.Chemscore.CHOScore>
0.9975

> <Gold.PLP.Chemscore.Metal>
0.0000

> <Gold.Chemscore.Hbonds>
donor molecule, donor type, donor heavy atom, donor atom, acceptor molecule, acceptor atom, score
      L1  H    15    53       P1  7948  1.50
      L1  H    18    44       P1  7948  1.00
      L1  C     6    29       P1  8028  0.64

> <Gold.PLP.Chemscore.Internal.Correction>
0.2367

> <Gold.Rescore>
     Score         DG    S(hbond)    S(metal)    S(lipo)     H(rot)  DE(clash)    DE(int)     intcor
     16.65     -19.17       1.91        0.00     132.77       3.21       0.03       2.49       ----

> <Gold.Chemscore.Fitness>
16.6518

> <Gold.Chemscore.DG>
-19.1709

> <Gold.Chemscore.ZeroCoef>
-5.4800

> <Gold.Chemscore.Hbond>
1.9053

> <Gold.Chemscore.Metal>
0.0000

> <Gold.Chemscore.Lipo>
132.7694

> <Gold.Chemscore.Internal_Hbond>
0.0000

> <Gold.Chemscore.DEClash>
0.0304

> <Gold.Chemscore.DEInternal>
2.4887

> <Gold.Chemscore.Rot>
3.2058

> <Gold.Chemscore.Internal.Correction>
   9.000000E+99

> <Gold.Chemscore.Hbonds>
donor molecule, donor type, donor heavy atom, donor atom, acceptor molecule, acceptor atom, score
      L1  H    15    53       P1  7948  0.70
      L1  H    18    44       P1  7948  0.96

> <Gold.Chemscore.Hbond.Weighted>
-6.3636

> <Gold.Chemscore.Metal.Weighted>
-0.0000

> <Gold.Chemscore.Lipo.Weighted>
-15.5340

> <Gold.Chemscore.Internal_Hbond.Weighted>
0.0000

> <Gold.Chemscore.DEClash.Weighted>
0.0304

> <Gold.Chemscore.DEInternal.Weighted>
2.4887

> <Gold.Chemscore.Rot.Weighted>
8.2067

> <Gold.Chemscore.Internal.Correction.Weighted>
   9.000000E+99

> <Gold.Protein.RotatedTorsions>
[ 6907 6896 6895 6894 ] final   31.63 input  -60.11 | X-H torsion
[ 7974 7965 7964 7962 ] final  -84.37 input  175.53 | X-H torsion
[ 8008 7997 7996 7995 ] final -126.64 input   59.86 | X-H torsion
[ 10167 10162 10161 10158 ] final  -88.36 input  -65.29 | X-H torsion
[ 10718 10713 10712 10709 ] final   53.42 input   66.30 | X-H torsion
[ 10763 10752 10751 10750 ] final   88.89 input  -60.55 | X-H torsion
[ 11005 11000 10999 10996 ] final  -67.96 input  -57.11 | X-H torsion

> <Gold.Protein.ActiveResidues>
 VAL166  LYS551  ARG553  GLY616  TRP617  ASP618  TYR619  PRO620  LYS621  CYS622 
 ASP623  PHE694  ASN695  SER759  ASP760  ASP761  ALA762  ILE779  LEU786  VAL792 
 PHE793  MET794  SER795  GLU796  ALA797  LYS798  CYS799  TRP800  GLU811  SER814 

> <Gold.Protein.RotatedAtoms>
  152.0631  134.9582  160.0574 H   0  0  0  0  0  0  0  0  0  0  0  0  # atno 6907 bound_to 6896
  152.0937  133.4209  159.4564 H   0  0  0  0  0  0  0  0  0  0  0  0  # atno 6908 bound_to 6896
  150.6837  134.2761  159.4651 H   0  0  0  0  0  0  0  0  0  0  0  0  # atno 6909 bound_to 6896
  145.5076  140.9542  143.1725 H   0  0  0  0  0  0  0  0  0  0  0  0  # atno 7974 bound_to 7965
  155.2330  140.0426  157.2965 H   0  0  0  0  0  0  0  0  0  0  0  0  # atno 8008 bound_to 7997
  154.5876  140.2418  155.7935 H   0  0  0  0  0  0  0  0  0  0  0  0  # atno 8009 bound_to 7997
  156.2237  140.2961  156.0023 H   0  0  0  0  0  0  0  0  0  0  0  0  # atno 8010 bound_to 7997
  140.3754  143.2774  151.9449 H   0  0  0  0  0  0  0  0  0  0  0  0  # atno 10167 bound_to 10162
  157.5165  130.8536  149.8502 H   0  0  0  0  0  0  0  0  0  0  0  0  # atno 10718 bound_to 10713
  153.1815  135.4490  155.0033 H   0  0  0  0  0  0  0  0  0  0  0  0  # atno 10763 bound_to 10752
  154.8033  135.3264  154.7499 H   0  0  0  0  0  0  0  0  0  0  0  0  # atno 10764 bound_to 10752
  153.7962  135.6966  153.4918 H   0  0  0  0  0  0  0  0  0  0  0  0  # atno 10765 bound_to 10752
  141.1521  133.6730  156.6373 H   0  0  0  0  0  0  0  0  0  0  0  0  # atno 11005 bound_to 11000
  144.7745  139.6660  143.7180 LP  0  0  0  0  0  0  0  0  0  0  0  0  # atno 17320 bound_to 7965
  146.2187  139.5596  142.9633 LP  0  0  0  0  0  0  0  0  0  0  0  0  # atno 17321 bound_to 7965
  139.4800  144.5868  151.7840 LP  0  0  0  0  0  0  0  0  0  0  0  0  # atno 17342 bound_to 10162
  140.4991  144.1196  150.5967 LP  0  0  0  0  0  0  0  0  0  0  0  0  # atno 17343 bound_to 10162
  156.0324  130.3761  150.1652 LP  0  0  0  0  0  0  0  0  0  0  0  0  # atno 17370 bound_to 10713
  156.9840  130.9873  151.3430 LP  0  0  0  0  0  0  0  0  0  0  0  0  # atno 17371 bound_to 10713
  140.3420  134.7841  157.4405 LP  0  0  0  0  0  0  0  0  0  0  0  0  # atno 17394 bound_to 11000
  140.0930  134.5575  155.8426 LP  0  0  0  0  0  0  0  0  0  0  0  0  # atno 17395 bound_to 11000

$$$$
