AV-unprocessed.smi:21|AV-procd|sdf|152|dock7
  -GOLD-   2262015373D 1   1.00000     0.00000
 Structure written by MMmdl.
 62 65  0  0  0  0  0  0  0  0  2 V2000
  143.6776  132.3883  148.7601 C   0  0  0  0  0  0  0  0  0  0  0  0
  144.3463  133.2715  149.6459 O   0  0  0  0  0  0  0  0  0  0  0  0
  144.7700  132.6505  150.8502 C   0  0  2  0  0  0  0  0  0  0  0  0
  145.8535  133.4791  151.5257 C   0  0  0  0  0  0  0  0  0  0  0  0
  146.5619  132.4580  152.4212 C   0  0  2  0  0  0  0  0  0  0  0  0
  148.0038  132.8500  152.8003 C   0  0  0  0  0  0  0  0  0  0  0  0
  148.4155  132.2948  154.0921 N   0  0  0  0  0  0  0  0  0  0  0  0
  149.3332  131.1622  154.0842 C   0  0  0  0  0  0  0  0  0  0  0  0
  147.7493  132.6281  155.2359 C   0  0  0  0  0  0  0  0  0  0  0  0
  146.4165  132.8857  155.1505 N   0  0  0  0  0  0  0  0  0  0  0  0
  145.7086  133.2183  156.2327 C   0  0  0  0  0  0  0  0  0  0  0  0
  146.1260  133.3514  157.4908 N   0  0  0  0  0  0  0  0  0  0  0  0
  147.4601  133.0957  157.5956 C   0  0  0  0  0  0  0  0  0  0  0  0
  148.3405  132.7307  156.5344 C   0  0  0  0  0  0  0  0  0  0  0  0
  149.6212  132.5432  157.0475 N   0  0  0  0  0  0  0  0  0  0  0  0
  149.5059  132.7892  158.3231 C   0  0  0  0  0  0  0  0  0  0  0  0
  148.2416  133.1368  158.7361 N   0  0  0  0  0  0  0  0  0  0  0  0
  147.8268  133.4649  160.0893 C   0  0  0  0  0  0  0  0  0  0  0  0
  146.4496  134.1716  160.1596 C   0  0  1  0  0  0  0  0  0  0  0  0
  145.4145  133.2619  160.8625 C   0  0  0  0  0  0  0  0  0  0  0  0
  144.1471  133.8841  160.8988 O   0  0  0  0  0  0  0  0  0  0  0  0
  146.5400  135.5970  160.7739 C   0  0  1  0  0  0  0  0  0  0  0  0
  146.8968  135.6626  162.2597 C   0  0  0  0  0  0  0  0  0  0  0  0
  147.9669  136.7530  162.3412 C   0  0  0  0  0  0  0  0  0  0  0  0
  147.8150  137.4904  161.1387 O   0  0  0  0  0  0  0  0  0  0  0  0
  147.5467  136.5469  160.1157 C   0  0  0  0  0  0  0  0  0  0  0  0
  146.5279  131.1912  151.6523 N   0  3  1  0  0  0  0  0  0  0  0  0
  146.4227  129.9769  152.4906 C   0  0  0  0  0  0  0  0  0  0  0  0
  145.4652  131.3017  150.6243 C   0  0  0  0  0  0  0  0  0  0  0  0
  143.9350  132.5327  151.5436 H   0  0  0  0  0  0  0  0  0  0  0  0
  145.9630  132.3271  153.3247 H   0  0  0  0  0  0  0  0  0  0  0  0
  143.3721  132.9315  147.8658 H   0  0  0  0  0  0  0  0  0  0  0  0
  142.7814  131.9718  149.2217 H   0  0  0  0  0  0  0  0  0  0  0  0
  144.3240  131.5678  148.4470 H   0  0  0  0  0  0  0  0  0  0  0  0
  146.5436  133.8650  150.7736 H   0  0  0  0  0  0  0  0  0  0  0  0
  145.4526  134.3280  152.0809 H   0  0  0  0  0  0  0  0  0  0  0  0
  148.6896  132.4619  152.0468 H   0  0  0  0  0  0  0  0  0  0  0  0
  148.1277  133.9322  152.7581 H   0  0  0  0  0  0  0  0  0  0  0  0
  148.7881  130.2228  154.1790 H   0  0  0  0  0  0  0  0  0  0  0  0
  150.0522  131.2392  154.9004 H   0  0  0  0  0  0  0  0  0  0  0  0
  149.8987  131.1254  153.1526 H   0  0  0  0  0  0  0  0  0  0  0  0
  144.6579  133.4057  156.0662 H   0  0  0  0  0  0  0  0  0  0  0  0
  150.3467  132.7302  158.9991 H   0  0  0  0  0  0  0  0  0  0  0  0
  147.8106  132.5383  160.6640 H   0  0  0  0  0  0  0  0  0  0  0  0
  148.5947  134.0934  160.5422 H   0  0  0  0  0  0  0  0  0  0  0  0
  146.1067  134.3116  159.1331 H   0  0  0  0  0  0  0  0  0  0  0  0
  145.3179  132.3049  160.3496 H   0  0  0  0  0  0  0  0  0  0  0  0
  145.7009  133.0426  161.8898 H   0  0  0  0  0  0  0  0  0  0  0  0
  143.5969  133.4115  161.5046 H   0  0  0  0  0  0  0  0  0  0  0  0
  145.5620  136.0732  160.6975 H   0  0  0  0  0  0  0  0  0  0  0  0
  146.0174  135.9465  162.8393 H   0  0  0  0  0  0  0  0  0  0  0  0
  147.2592  134.7218  162.6720 H   0  0  0  0  0  0  0  0  0  0  0  0
  147.8533  137.3897  163.2189 H   0  0  0  0  0  0  0  0  0  0  0  0
  148.9641  136.3107  162.3667 H   0  0  0  0  0  0  0  0  0  0  0  0
  148.4769  136.0464  159.8469 H   0  0  0  0  0  0  0  0  0  0  0  0
  147.1476  137.0280  159.2226 H   0  0  0  0  0  0  0  0  0  0  0  0
  145.4851  129.9638  153.0480 H   0  0  0  0  0  0  0  0  0  0  0  0
  147.2459  129.9280  153.2037 H   0  0  0  0  0  0  0  0  0  0  0  0
  146.4645  129.0814  151.8698 H   0  0  0  0  0  0  0  0  0  0  0  0
  144.7545  130.4744  150.6539 H   0  0  0  0  0  0  0  0  0  0  0  0
  145.9493  131.2831  149.6471 H   0  0  0  0  0  0  0  0  0  0  0  0
  147.4012  131.1333  151.1477 H   0  0  0  0  0  0  0  0  0  0  0  0
  1  2  1  0  0  0  0
  1 32  1  0  0  0  0
  1 33  1  0  0  0  0
  1 34  1  0  0  0  0
  2  3  1  0  0  0  0
  3 30  1  0  0  0  0
  3 29  1  0  0  0  0
  3  4  1  0  0  0  0
  4  5  1  0  0  0  0
  4 35  1  0  0  0  0
  4 36  1  0  0  0  0
  5 31  1  0  0  0  0
  5  6  1  0  0  0  0
  5 27  1  0  0  0  0
  6  7  1  0  0  0  0
  6 37  1  0  0  0  0
  6 38  1  0  0  0  0
  7  8  1  0  0  0  0
  7  9  1  0  0  0  0
  8 39  1  0  0  0  0
  8 40  1  0  0  0  0
  8 41  1  0  0  0  0
  9 14  1  0  0  0  0
  9 10  2  0  0  0  0
 10 11  1  0  0  0  0
 11 12  2  0  0  0  0
 11 42  1  0  0  0  0
 12 13  1  0  0  0  0
 13 17  1  0  0  0  0
 13 14  2  0  0  0  0
 14 15  1  0  0  0  0
 15 16  2  0  0  0  0
 16 17  1  0  0  0  0
 16 43  1  0  0  0  0
 17 18  1  0  0  0  0
 18 19  1  0  0  0  0
 18 44  1  0  0  0  0
 18 45  1  0  0  0  0
 19 20  1  0  0  0  0
 19 22  1  0  0  0  0
 19 46  1  0  0  0  0
 20 21  1  0  0  0  0
 20 47  1  0  0  0  0
 20 48  1  0  0  0  0
 21 49  1  0  0  0  0
 22 26  1  0  0  0  0
 22 23  1  0  0  0  0
 22 50  1  0  0  0  0
 23 24  1  0  0  0  0
 23 51  1  0  0  0  0
 23 52  1  0  0  0  0
 24 25  1  0  0  0  0
 24 53  1  0  0  0  0
 24 54  1  0  0  0  0
 25 26  1  0  0  0  0
 26 55  1  0  0  0  0
 26 56  1  0  0  0  0
 27 28  1  0  0  0  0
 27 29  1  0  0  0  0
 27 62  1  0  0  0  0
 28 57  1  0  0  0  0
 28 58  1  0  0  0  0
 28 59  1  0  0  0  0
 29 60  1  0  0  0  0
 29 61  1  0  0  0  0
M  CHG  1  27   1
M  END
> <s_m_source_file>
AV-unprocessed.smi

> <i_m_source_file_index>
21

> <i_lp_mmshare_version>
43012

> <i_f3d_flags>
0

> <s_epik_input>
W0NIM11PW0NASF0xW0NIMl1bQ0BIXShOKFtDSDNdKVtDSDJdMSlbQ0gyXU4oW0NIM10pYyhuW2NIXW4yKWMoYzIzKW5bY0hdbjNbQ0gyXVtDQEhdKFtDSDJdW09IXSlbQ0BASF00W0NIMl1bQ0gyXU9bQ0gyXTQ=

> <s_epik_cmdline>
J2VwaWtfcHl0aG9uJywgJy1waCcsICc3LjAnLCAnLXRuJywgJzgnLCAnLW1hJywgJzIwMCcsICctbWV0YWxfYmluZGluZycsICctaW1hZScsICc8aW5maWxlLm1hZT4nLCAnLW9tYWUnLCAnPG91dGZpbGUubWFlPic=

> <r_lp_tautomer_probability>
1

> <r_epik_Ionization_Penalty>
0.0157465

> <r_epik_Ionization_Penalty_Charging>
0.015354

> <r_epik_Ionization_Penalty_Neutral>
0.000392529

> <r_epik_State_Penalty>
0.0120612

> <r_epik_Charging_Adjusted_Penalty>
0.0274152

> <i_epik_Tot_Q>
1

> <i_epik_Tot_abs_Q>
1

> <r_epik_Metal_State_Penalty>
0.0121253

> <b_epik_Metal_Only>
0

> <s_lp_Force_Field>
OPLS_2005

> <r_lp_Energy>
58.5761

> <b_lp_Chiralities_Consistent>
1

> <s_lp_Variant>
AV-unprocessed.smi:21-32

> <Gold.Version>
5.8.1

> <Gold.Id.Protein>
6NUR|6NUR_protein|mol2

> <Gold.PLP.Fitness>
47.0843

> <Gold.PLP.PLP>
-41.6626

> <Gold.PLP.part.hbond>
-2.7927

> <Gold.PLP.part.metal>
0.0000

> <Gold.PLP.part.buried>
-6.1717

> <Gold.PLP.part.nonpolar>
-34.4850

> <Gold.PLP.part.repulsive>
1.4984

> <Gold.PLP.ligand.clash>
0.0000

> <Gold.PLP.ligand.torsion>
2.1677

> <Gold.PLP.Chemscore.Hbond>
2.4493

> <Gold.PLP.Chemscore.CHOScore>
0.6264

> <Gold.PLP.Chemscore.Metal>
0.0000

> <Gold.Chemscore.Hbonds>
donor molecule, donor type, donor heavy atom, donor atom, acceptor molecule, acceptor atom, score
      L1  H    27    62       P1 10747  1.00
      P1  H  6934  6947       L1    25  0.74
      L1  C    11    42       P1 10957  0.17

> <Gold.PLP.Chemscore.Internal.Correction>
0.5301

> <Gold.Rescore>
     Score         DG    S(hbond)    S(metal)    S(lipo)     H(rot)  DE(clash)    DE(int)     intcor
     11.84     -16.58       1.91        0.00     107.51       3.08       0.04       4.69       ----

> <Gold.Chemscore.Fitness>
11.8441

> <Gold.Chemscore.DG>
-16.5766

> <Gold.Chemscore.ZeroCoef>
-5.4800

> <Gold.Chemscore.Hbond>
1.9137

> <Gold.Chemscore.Metal>
0.0000

> <Gold.Chemscore.Lipo>
107.5117

> <Gold.Chemscore.Internal_Hbond>
0.0000

> <Gold.Chemscore.DEClash>
0.0399

> <Gold.Chemscore.DEInternal>
4.6926

> <Gold.Chemscore.Rot>
3.0758

> <Gold.Chemscore.Internal.Correction>
   9.000000E+99

> <Gold.Chemscore.Hbonds>
donor molecule, donor type, donor heavy atom, donor atom, acceptor molecule, acceptor atom, score
      L1  H    27    62       P1 10747  1.00
      P1  H  6934  6947       L1    25  0.70

> <Gold.Chemscore.Hbond.Weighted>
-6.3919

> <Gold.Chemscore.Metal.Weighted>
-0.0000

> <Gold.Chemscore.Lipo.Weighted>
-12.5789

> <Gold.Chemscore.Internal_Hbond.Weighted>
0.0000

> <Gold.Chemscore.DEClash.Weighted>
0.0399

> <Gold.Chemscore.DEInternal.Weighted>
4.6926

> <Gold.Chemscore.Rot.Weighted>
7.8741

> <Gold.Chemscore.Internal.Correction.Weighted>
   9.000000E+99

> <Gold.Protein.RotatedTorsions>
[ 6907 6896 6895 6894 ] final  -24.11 input  -60.11 | X-H torsion
[ 7974 7965 7964 7962 ] final  132.13 input  175.53 | X-H torsion
[ 8008 7997 7996 7995 ] final   33.91 input   59.86 | X-H torsion
[ 10167 10162 10161 10158 ] final  139.03 input  -65.29 | X-H torsion
[ 10718 10713 10712 10709 ] final  -22.67 input   66.30 | X-H torsion
[ 10763 10752 10751 10750 ] final -137.74 input  -60.55 | X-H torsion
[ 11005 11000 10999 10996 ] final   -8.99 input  -57.11 | X-H torsion

> <Gold.Protein.ActiveResidues>
 VAL166  LYS551  ARG553  GLY616  TRP617  ASP618  TYR619  PRO620  LYS621  CYS622 
 ASP623  PHE694  ASN695  SER759  ASP760  ASP761  ALA762  ILE779  LEU786  VAL792 
 PHE793  MET794  SER795  GLU796  ALA797  LYS798  CYS799  TRP800  GLU811  SER814 

> <Gold.Protein.RotatedAtoms>
  151.1943  135.0416  159.8845 H   0  0  0  0  0  0  0  0  0  0  0  0  # atno 6907 bound_to 6896
  152.5437  134.0921  159.8291 H   0  0  0  0  0  0  0  0  0  0  0  0  # atno 6908 bound_to 6896
  151.1053  133.5165  159.2640 H   0  0  0  0  0  0  0  0  0  0  0  0  # atno 6909 bound_to 6896
  145.0001  139.4321  143.5296 H   0  0  0  0  0  0  0  0  0  0  0  0  # atno 7974 bound_to 7965
  155.1463  140.3271  155.4441 H   0  0  0  0  0  0  0  0  0  0  0  0  # atno 8008 bound_to 7997
  156.2589  140.1985  156.6526 H   0  0  0  0  0  0  0  0  0  0  0  0  # atno 8009 bound_to 7997
  154.6506  140.0559  156.9937 H   0  0  0  0  0  0  0  0  0  0  0  0  # atno 8010 bound_to 7997
  139.5091  144.6318  151.5797 H   0  0  0  0  0  0  0  0  0  0  0  0  # atno 10167 bound_to 10162
  156.5014  130.4589  149.6699 H   0  0  0  0  0  0  0  0  0  0  0  0  # atno 10718 bound_to 10713
  154.8654  135.3633  154.5272 H   0  0  0  0  0  0  0  0  0  0  0  0  # atno 10763 bound_to 10752
  153.5899  135.7016  153.5432 H   0  0  0  0  0  0  0  0  0  0  0  0  # atno 10764 bound_to 10752
  153.3383  135.4105  155.1513 H   0  0  0  0  0  0  0  0  0  0  0  0  # atno 10765 bound_to 10752
  140.7294  133.8761  155.8881 H   0  0  0  0  0  0  0  0  0  0  0  0  # atno 11005 bound_to 11000
  146.3450  139.9384  142.8744 LP  0  0  0  0  0  0  0  0  0  0  0  0  # atno 17320 bound_to 7965
  145.2165  140.9917  143.4070 LP  0  0  0  0  0  0  0  0  0  0  0  0  # atno 17321 bound_to 7965
  140.6054  143.9534  150.6415 LP  0  0  0  0  0  0  0  0  0  0  0  0  # atno 17342 bound_to 10162
  140.2759  143.3423  152.1195 LP  0  0  0  0  0  0  0  0  0  0  0  0  # atno 17343 bound_to 10162
  156.3329  130.7341  151.2273 LP  0  0  0  0  0  0  0  0  0  0  0  0  # atno 17370 bound_to 10713
  157.7462  131.0425  150.4697 LP  0  0  0  0  0  0  0  0  0  0  0  0  # atno 17371 bound_to 10713
  140.9934  134.1248  157.4387 LP  0  0  0  0  0  0  0  0  0  0  0  0  # atno 17394 bound_to 11000
  139.8829  135.0047  156.6267 LP  0  0  0  0  0  0  0  0  0  0  0  0  # atno 17395 bound_to 11000

$$$$
