AV-unprocessed.smi:1870|AV-procd|sdf|7594|dock1
  -GOLD-   22720 9303D 1   1.00000     0.00000
 Structure written by MMmdl.
 48 50  0  0  0  0  0  0  0  0  2 V2000
  147.6224  142.2041  156.2453 C   0  0  0  0  0  0  0  0  0  0  0  0
  148.3989  140.9697  155.8732 C   0  0  0  0  0  0  0  0  0  0  0  0
  147.7334  140.0130  155.3142 N   0  0  0  0  0  0  0  0  0  0  0  0
  148.3464  138.8346  154.9350 N   0  0  0  0  0  0  0  0  0  0  0  0
  147.4415  137.8643  154.3042 C   0  0  0  0  0  0  0  0  0  0  0  0
  146.8083  138.3905  152.9961 C   0  0  1  0  0  0  0  0  0  0  0  0
  147.8195  138.3873  152.0079 O   0  0  0  0  0  0  0  0  0  0  0  0
  145.6221  137.5288  152.5068 C   0  0  0  0  0  0  0  0  0  0  0  0
  145.9600  136.0890  152.3611 N   0  3  1  0  0  0  0  0  0  0  0  0
  145.9077  135.3668  153.6539 C   0  0  0  0  0  0  0  0  0  0  0  0
  146.5803  133.9950  153.5195 C   0  0  0  0  0  0  0  0  0  0  0  0
  146.0662  133.2170  152.3223 C   0  0  0  0  0  0  0  0  0  0  0  0
  146.2778  131.8248  152.2483 C   0  0  0  0  0  0  0  0  0  0  0  0
  145.8350  131.1009  151.1250 C   0  0  0  0  0  0  0  0  0  0  0  0
  145.1812  131.7673  150.0715 C   0  0  0  0  0  0  0  0  0  0  0  0
  144.9694  133.1577  150.1409 C   0  0  0  0  0  0  0  0  0  0  0  0
  145.4104  133.8899  151.2632 C   0  0  0  0  0  0  0  0  0  0  0  0
  145.1521  135.3915  151.3239 C   0  0  0  0  0  0  0  0  0  0  0  0
  149.6674  138.5526  155.1219 C   0  0  0  0  0  0  0  0  0  0  0  0
  150.1688  137.4794  154.7848 O   0  0  0  0  0  0  0  0  0  0  0  0
  150.4180  139.6440  155.7466 C   0  0  0  0  0  0  0  0  0  0  0  0
  151.8093  139.3958  155.9471 C   0  0  0  0  0  0  0  0  0  0  0  0
  152.9375  139.1822  156.0935 N   0  0  0  0  0  0  0  0  0  0  0  0
  149.8306  140.8119  156.1083 C   0  0  0  0  0  0  0  0  0  0  0  0
  150.5672  141.9729  156.7622 C   0  0  0  0  0  0  0  0  0  0  0  0
  147.7870  142.4665  157.2907 H   0  0  0  0  0  0  0  0  0  0  0  0
  146.5487  142.0656  156.1088 H   0  0  0  0  0  0  0  0  0  0  0  0
  147.9273  143.0515  155.6308 H   0  0  0  0  0  0  0  0  0  0  0  0
  147.9875  136.9396  154.1073 H   0  0  0  0  0  0  0  0  0  0  0  0
  146.6505  137.5862  155.0040 H   0  0  0  0  0  0  0  0  0  0  0  0
  146.4979  139.4227  153.1502 H   0  0  0  0  0  0  0  0  0  0  0  0
  148.4498  139.0617  152.2096 H   0  0  0  0  0  0  0  0  0  0  0  0
  144.8013  137.6436  153.2165 H   0  0  0  0  0  0  0  0  0  0  0  0
  145.2476  137.8914  151.5487 H   0  0  0  0  0  0  0  0  0  0  0  0
  146.4145  135.9340  154.4357 H   0  0  0  0  0  0  0  0  0  0  0  0
  144.8674  135.2563  153.9649 H   0  0  0  0  0  0  0  0  0  0  0  0
  147.6576  134.1204  153.4047 H   0  0  0  0  0  0  0  0  0  0  0  0
  146.4249  133.4141  154.4295 H   0  0  0  0  0  0  0  0  0  0  0  0
  146.7859  131.3090  153.0504 H   0  0  0  0  0  0  0  0  0  0  0  0
  145.9994  130.0346  151.0704 H   0  0  0  0  0  0  0  0  0  0  0  0
  144.8415  131.2112  149.2099 H   0  0  0  0  0  0  0  0  0  0  0  0
  144.4631  133.6606  149.3297 H   0  0  0  0  0  0  0  0  0  0  0  0
  144.0898  135.5456  151.5188 H   0  0  0  0  0  0  0  0  0  0  0  0
  145.3631  135.8119  150.3411 H   0  0  0  0  0  0  0  0  0  0  0  0
  151.6481  141.8351  156.7473 H   0  0  0  0  0  0  0  0  0  0  0  0
  150.2598  142.0774  157.8030 H   0  0  0  0  0  0  0  0  0  0  0  0
  150.3560  142.9093  156.2449 H   0  0  0  0  0  0  0  0  0  0  0  0
  146.9242  136.0498  152.0631 H   0  0  0  0  0  0  0  0  0  0  0  0
  1  2  1  0  0  0  0
  1 26  1  0  0  0  0
  1 27  1  0  0  0  0
  1 28  1  0  0  0  0
  2 24  1  0  0  0  0
  2  3  2  0  0  0  0
  3  4  1  0  0  0  0
  4  5  1  0  0  0  0
  4 19  1  0  0  0  0
  5  6  1  0  0  0  0
  5 29  1  0  0  0  0
  5 30  1  0  0  0  0
  6  7  1  0  0  0  0
  6  8  1  0  0  0  0
  6 31  1  0  0  0  0
  7 32  1  0  0  0  0
  8  9  1  0  0  0  0
  8 33  1  0  0  0  0
  8 34  1  0  0  0  0
  9 18  1  0  0  0  0
  9 10  1  0  0  0  0
  9 48  1  0  0  0  0
 10 11  1  0  0  0  0
 10 35  1  0  0  0  0
 10 36  1  0  0  0  0
 11 12  1  0  0  0  0
 11 37  1  0  0  0  0
 11 38  1  0  0  0  0
 12 17  2  0  0  0  0
 12 13  1  0  0  0  0
 13 14  2  0  0  0  0
 13 39  1  0  0  0  0
 14 15  1  0  0  0  0
 14 40  1  0  0  0  0
 15 16  2  0  0  0  0
 15 41  1  0  0  0  0
 16 17  1  0  0  0  0
 16 42  1  0  0  0  0
 17 18  1  0  0  0  0
 18 43  1  0  0  0  0
 18 44  1  0  0  0  0
 19 20  2  0  0  0  0
 19 21  1  0  0  0  0
 21 22  1  0  0  0  0
 21 24  2  0  0  0  0
 22 23  3  0  0  0  0
 24 25  1  0  0  0  0
 25 45  1  0  0  0  0
 25 46  1  0  0  0  0
 25 47  1  0  0  0  0
M  CHG  1   9   1
M  END
> <s_m_source_file>
AV-unprocessed.smi

> <i_m_source_file_index>
1870

> <i_lp_mmshare_version>
43012

> <i_f3d_flags>
0

> <s_epik_input>
TiNDYyhjMVtDSDNdKWMoPU8pbihuYzFbQ0gzXSlbQ0gyXVtDQEhdKFtPSF0pW0NIMl1OKFtDSDJdW0NIMl0yKVtDSDJdYyhjMjMpW2NIXVtjSF1bY0hdW2NIXTM=

> <s_epik_cmdline>
J2VwaWtfcHl0aG9uJywgJy1waCcsICc3LjAnLCAnLXRuJywgJzgnLCAnLW1hJywgJzIwMCcsICctbWV0YWxfYmluZGluZycsICctaW1hZScsICc8aW5maWxlLm1hZT4nLCAnLW9tYWUnLCAnPG91dGZpbGUubWFlPic=

> <r_epik_Ionization_Penalty>
0.0122865

> <r_epik_Ionization_Penalty_Charging>
0.0122864

> <r_epik_Ionization_Penalty_Neutral>
1.48087e-07

> <r_epik_State_Penalty>
0.00950248

> <r_epik_Charging_Adjusted_Penalty>
0.0217889

> <i_epik_Tot_Q>
1

> <i_epik_Tot_abs_Q>
1

> <r_epik_Metal_State_Penalty>
0.00950248

> <b_epik_Metal_Only>
0

> <s_lp_Force_Field>
OPLS_2005

> <r_lp_Energy>
36.9803

> <b_lp_Chiralities_Consistent>
1

> <s_lp_Variant>
AV-unprocessed.smi:1870-2

> <Gold.Version>
5.8.1

> <Gold.Id.Protein>
6NUR|6NUR_protein|mol2

> <Gold.PLP.Fitness>
52.7362

> <Gold.PLP.PLP>
-38.9823

> <Gold.PLP.part.hbond>
-4.7492

> <Gold.PLP.part.metal>
0.0000

> <Gold.PLP.part.buried>
-0.8915

> <Gold.PLP.part.nonpolar>
-34.7803

> <Gold.PLP.part.repulsive>
0.6536

> <Gold.PLP.ligand.clash>
0.0000

> <Gold.PLP.ligand.torsion>
0.3814

> <Gold.PLP.Chemscore.Hbond>
4.8080

> <Gold.PLP.Chemscore.CHOScore>
0.0000

> <Gold.PLP.Chemscore.Metal>
0.0000

> <Gold.Chemscore.Hbonds>
donor molecule, donor type, donor heavy atom, donor atom, acceptor molecule, acceptor atom, score
      L1  H     7    32       P1  7957  0.62
      L1  H     9    48       P1  7948  2.00
      P1  H  7954  7966       L1     7  0.58
      P1  H  7997  8009       L1    23  0.64

> <Gold.PLP.Chemscore.Internal.Correction>
0.0927

> <Gold.Rescore>
     Score         DG    S(hbond)    S(metal)    S(lipo)     H(rot)  DE(clash)    DE(int)     intcor
     20.15     -21.16       2.92        0.00      97.84       2.16       0.39       0.61       ----

> <Gold.Chemscore.Fitness>
20.1518

> <Gold.Chemscore.DG>
-21.1577

> <Gold.Chemscore.ZeroCoef>
-5.4800

> <Gold.Chemscore.Hbond>
2.9242

> <Gold.Chemscore.Metal>
0.0000

> <Gold.Chemscore.Lipo>
97.8436

> <Gold.Chemscore.Internal_Hbond>
0.0000

> <Gold.Chemscore.DEClash>
0.3913

> <Gold.Chemscore.DEInternal>
0.6147

> <Gold.Chemscore.Rot>
2.1628

> <Gold.Chemscore.Internal.Correction>
   9.000000E+99

> <Gold.Chemscore.Hbonds>
donor molecule, donor type, donor heavy atom, donor atom, acceptor molecule, acceptor atom, score
      L1  H     7    32       P1  7957  0.62
      L1  H     9    48       P1  7948  0.93
      P1  H  7954  7966       L1     7  0.28
      P1  H  7997  8009       L1    23  0.64

> <Gold.Chemscore.Hbond.Weighted>
-9.7667

> <Gold.Chemscore.Metal.Weighted>
-0.0000

> <Gold.Chemscore.Lipo.Weighted>
-11.4477

> <Gold.Chemscore.Internal_Hbond.Weighted>
0.0000

> <Gold.Chemscore.DEClash.Weighted>
0.3913

> <Gold.Chemscore.DEInternal.Weighted>
0.6147

> <Gold.Chemscore.Rot.Weighted>
5.5367

> <Gold.Chemscore.Internal.Correction.Weighted>
   9.000000E+99

> <Gold.Protein.RotatedTorsions>
[ 6907 6896 6895 6894 ] final  -16.39 input  -60.11 | X-H torsion
[ 7974 7965 7964 7962 ] final   59.30 input  175.53 | X-H torsion
[ 8008 7997 7996 7995 ] final -126.36 input   59.86 | X-H torsion
[ 10167 10162 10161 10158 ] final -174.08 input  -65.29 | X-H torsion
[ 10718 10713 10712 10709 ] final  167.43 input   66.30 | X-H torsion
[ 10763 10752 10751 10750 ] final  162.17 input  -60.55 | X-H torsion
[ 11005 11000 10999 10996 ] final  -44.70 input  -57.11 | X-H torsion

> <Gold.Protein.ActiveResidues>
 VAL166  LYS551  ARG553  GLY616  TRP617  ASP618  TYR619  PRO620  LYS621  CYS622 
 ASP623  PHE694  ASN695  SER759  ASP760  ASP761  ALA762  ILE779  LEU786  VAL792 
 PHE793  MET794  SER795  GLU796  ALA797  LYS798  CYS799  TRP800  GLU811  SER814 

> <Gold.Protein.RotatedAtoms>
  151.3094  135.0790  159.9266 H   0  0  0  0  0  0  0  0  0  0  0  0  # atno 6907 bound_to 6896
  152.5281  133.9751  159.7791 H   0  0  0  0  0  0  0  0  0  0  0  0  # atno 6908 bound_to 6896
  151.0052  133.5966  159.2720 H   0  0  0  0  0  0  0  0  0  0  0  0  # atno 6909 bound_to 6896
  145.9086  139.3637  143.0549 H   0  0  0  0  0  0  0  0  0  0  0  0  # atno 7974 bound_to 7965
  155.2284  140.0424  157.2958 H   0  0  0  0  0  0  0  0  0  0  0  0  # atno 8008 bound_to 7997
  154.5904  140.2425  155.7899 H   0  0  0  0  0  0  0  0  0  0  0  0  # atno 8009 bound_to 7997
  156.2255  140.2956  156.0065 H   0  0  0  0  0  0  0  0  0  0  0  0  # atno 8010 bound_to 7997
  139.5653  144.1771  152.1302 H   0  0  0  0  0  0  0  0  0  0  0  0  # atno 10167 bound_to 10162
  157.0516  131.0315  151.2679 H   0  0  0  0  0  0  0  0  0  0  0  0  # atno 10718 bound_to 10713
  154.2743  135.2765  155.2725 H   0  0  0  0  0  0  0  0  0  0  0  0  # atno 10763 bound_to 10752
  154.5274  135.5739  153.6734 H   0  0  0  0  0  0  0  0  0  0  0  0  # atno 10764 bound_to 10752
  152.9940  135.6219  154.2899 H   0  0  0  0  0  0  0  0  0  0  0  0  # atno 10765 bound_to 10752
  141.0468  133.6758  156.2909 H   0  0  0  0  0  0  0  0  0  0  0  0  # atno 11005 bound_to 11000
  145.8700  140.9425  143.0655 LP  0  0  0  0  0  0  0  0  0  0  0  0  # atno 17320 bound_to 7965
  144.6741  140.0642  143.7475 LP  0  0  0  0  0  0  0  0  0  0  0  0  # atno 17321 bound_to 7965
  140.1293  144.5303  150.6813 LP  0  0  0  0  0  0  0  0  0  0  0  0  # atno 17342 bound_to 10162
  140.6936  143.2390  151.5063 LP  0  0  0  0  0  0  0  0  0  0  0  0  # atno 17343 bound_to 10162
  157.5025  130.7889  149.7620 LP  0  0  0  0  0  0  0  0  0  0  0  0  # atno 17370 bound_to 10713
  156.0006  130.3882  150.2622 LP  0  0  0  0  0  0  0  0  0  0  0  0  # atno 17371 bound_to 10713
  140.6132  134.5437  157.5536 LP  0  0  0  0  0  0  0  0  0  0  0  0  # atno 17394 bound_to 11000
  139.9318  134.7950  156.0911 LP  0  0  0  0  0  0  0  0  0  0  0  0  # atno 17395 bound_to 11000

$$$$
