AV-unprocessed.smi:1040|AV-procd|sdf|4526|dock2
  -GOLD-   22720 2543D 1   1.00000     0.00000
 Structure written by MMmdl.
 55 56  0  0  0  0  0  0  0  0  2 V2000
  155.0366  137.8121  158.9366 C   0  0  0  0  0  0  0  0  0  0  0  0
  153.8183  137.6797  159.8649 C   0  0  2  0  0  0  0  0  0  0  0  0
  152.8234  138.7047  159.5562 N   0  0  0  0  0  0  0  0  0  0  0  0
  153.0047  140.0283  159.6588 C   0  0  0  0  0  0  0  0  0  0  0  0
  154.0419  140.5468  160.0718 O   0  0  0  0  0  0  0  0  0  0  0  0
  151.9213  140.6984  159.2335 N   0  0  0  0  0  0  0  0  0  0  0  0
  151.7643  142.1056  159.0963 C   0  0  0  0  0  0  0  0  0  0  0  0
  152.3799  143.0314  159.9762 C   0  0  0  0  0  0  0  0  0  0  0  0
  152.1677  144.4127  159.7940 C   0  0  0  0  0  0  0  0  0  0  0  0
  151.3384  144.8464  158.7426 C   0  0  0  0  0  0  0  0  0  0  0  0
  150.7545  143.9388  157.9321 N   0  3  0  0  0  0  0  0  0  0  0  0
  150.9260  142.6011  158.0662 C   0  0  0  0  0  0  0  0  0  0  0  0
  150.2691  141.7448  157.1679 N   0  0  0  0  0  0  0  0  0  0  0  0
  148.8143  141.8645  157.2098 C   0  0  0  0  0  0  0  0  0  0  0  0
  148.1530  140.7451  156.3870 C   0  0  0  0  0  0  0  0  0  0  0  0
  148.7014  140.7215  154.9509 C   0  0  0  0  0  0  0  0  0  0  0  0
  150.2361  140.6276  154.9678 C   0  0  0  0  0  0  0  0  0  0  0  0
  150.8462  141.7493  155.8262 C   0  0  0  0  0  0  0  0  0  0  0  0
  154.1808  137.7039  161.3541 C   0  0  0  0  0  0  0  0  0  0  0  0
  154.4413  138.7716  161.9104 O   0  0  0  0  0  0  0  0  0  0  0  0
  154.2062  136.5106  161.9744 N   0  0  0  0  0  0  0  0  0  0  0  0
  154.5211  136.2167  163.3776 C   0  0  0  0  0  0  0  0  0  0  0  0
  154.4548  134.6878  163.5396 C   0  0  0  0  0  0  0  0  0  0  0  0
  153.4832  136.8656  164.3179 C   0  0  0  0  0  0  0  0  0  0  0  0
  155.9454  136.6956  163.7271 C   0  0  0  0  0  0  0  0  0  0  0  0
  155.7837  137.0482  159.1547 H   0  0  0  0  0  0  0  0  0  0  0  0
  155.5155  138.7858  159.0473 H   0  0  0  0  0  0  0  0  0  0  0  0
  154.7508  137.6985  157.8903 H   0  0  0  0  0  0  0  0  0  0  0  0
  153.3639  136.7049  159.6752 H   0  0  0  0  0  0  0  0  0  0  0  0
  151.9373  138.3713  159.2050 H   0  0  0  0  0  0  0  0  0  0  0  0
  151.1762  140.1367  158.8475 H   0  0  0  0  0  0  0  0  0  0  0  0
  153.0007  142.7035  160.7960 H   0  0  0  0  0  0  0  0  0  0  0  0
  152.6315  145.1295  160.4560 H   0  0  0  0  0  0  0  0  0  0  0  0
  151.1206  145.8834  158.5310 H   0  0  0  0  0  0  0  0  0  0  0  0
  148.4697  141.8180  158.2439 H   0  0  0  0  0  0  0  0  0  0  0  0
  148.5181  142.8382  156.8168 H   0  0  0  0  0  0  0  0  0  0  0  0
  148.3399  139.7822  156.8645 H   0  0  0  0  0  0  0  0  0  0  0  0
  147.0710  140.8792  156.3739 H   0  0  0  0  0  0  0  0  0  0  0  0
  148.2780  139.8821  154.3987 H   0  0  0  0  0  0  0  0  0  0  0  0
  148.3950  141.6272  154.4260 H   0  0  0  0  0  0  0  0  0  0  0  0
  150.5382  139.6581  155.3667 H   0  0  0  0  0  0  0  0  0  0  0  0
  150.6269  140.6797  153.9511 H   0  0  0  0  0  0  0  0  0  0  0  0
  150.6645  142.7160  155.3547 H   0  0  0  0  0  0  0  0  0  0  0  0
  151.9277  141.6211  155.8896 H   0  0  0  0  0  0  0  0  0  0  0  0
  153.9800  135.7068  161.4063 H   0  0  0  0  0  0  0  0  0  0  0  0
  154.6796  134.3872  164.5636 H   0  0  0  0  0  0  0  0  0  0  0  0
  155.1712  134.1866  162.8870 H   0  0  0  0  0  0  0  0  0  0  0  0
  153.4632  134.3038  163.2963 H   0  0  0  0  0  0  0  0  0  0  0  0
  152.4680  136.5629  164.0586 H   0  0  0  0  0  0  0  0  0  0  0  0
  153.5218  137.9543  164.2840 H   0  0  0  0  0  0  0  0  0  0  0  0
  153.6565  136.5746  165.3545 H   0  0  0  0  0  0  0  0  0  0  0  0
  156.2201  136.3999  164.7401 H   0  0  0  0  0  0  0  0  0  0  0  0
  156.0387  137.7803  163.6758 H   0  0  0  0  0  0  0  0  0  0  0  0
  156.6855  136.2684  163.0494 H   0  0  0  0  0  0  0  0  0  0  0  0
  150.1538  144.2781  157.1806 H   0  0  0  0  0  0  0  0  0  0  0  0
  1  2  1  0  0  0  0
  1 26  1  0  0  0  0
  1 27  1  0  0  0  0
  1 28  1  0  0  0  0
  2  3  1  0  0  0  0
  2 19  1  0  0  0  0
  2 29  1  0  0  0  0
  3  4  1  0  0  0  0
  3 30  1  0  0  0  0
  4  5  2  0  0  0  0
  4  6  1  0  0  0  0
  6  7  1  0  0  0  0
  6 31  1  0  0  0  0
  7 12  1  0  0  0  0
  7  8  2  0  0  0  0
  8  9  1  0  0  0  0
  8 32  1  0  0  0  0
  9 10  2  0  0  0  0
  9 33  1  0  0  0  0
 10 11  1  0  0  0  0
 10 34  1  0  0  0  0
 11 12  2  0  0  0  0
 11 55  1  0  0  0  0
 12 13  1  0  0  0  0
 13 18  1  0  0  0  0
 13 14  1  0  0  0  0
 14 15  1  0  0  0  0
 14 35  1  0  0  0  0
 14 36  1  0  0  0  0
 15 16  1  0  0  0  0
 15 37  1  0  0  0  0
 15 38  1  0  0  0  0
 16 17  1  0  0  0  0
 16 39  1  0  0  0  0
 16 40  1  0  0  0  0
 17 18  1  0  0  0  0
 17 41  1  0  0  0  0
 17 42  1  0  0  0  0
 18 43  1  0  0  0  0
 18 44  1  0  0  0  0
 19 20  2  0  0  0  0
 19 21  1  0  0  0  0
 21 22  1  0  0  0  0
 21 45  1  0  0  0  0
 22 23  1  0  0  0  0
 22 24  1  0  0  0  0
 22 25  1  0  0  0  0
 23 46  1  0  0  0  0
 23 47  1  0  0  0  0
 23 48  1  0  0  0  0
 24 49  1  0  0  0  0
 24 50  1  0  0  0  0
 24 51  1  0  0  0  0
 25 52  1  0  0  0  0
 25 53  1  0  0  0  0
 25 54  1  0  0  0  0
M  CHG  1  11   1
M  END
> <s_m_source_file>
AV-unprocessed.smi

> <i_m_source_file_index>
1040

> <i_lp_mmshare_version>
43012

> <i_f3d_flags>
0

> <s_epik_input>
W0NIM11DKFtDSDNdKShbQ0gzXSlbTkhdQyg9TylbQ0BIXShbQ0gzXSlbTkhdQyg9TylbTkhdYzFbY0hdW2NIXVtjSF1uYzFOMltDSDJdW0NIMl1bQ0gyXVtDSDJdW0NIMl0y

> <s_epik_cmdline>
J2VwaWtfcHl0aG9uJywgJy1waCcsICc3LjAnLCAnLXRuJywgJzgnLCAnLW1hJywgJzIwMCcsICctbWV0YWxfYmluZGluZycsICctaW1hZScsICc8aW5maWxlLm1hZT4nLCAnLW9tYWUnLCAnPG91dGZpbGUubWFlPic=

> <r_lp_tautomer_probability>
0.999994

> <r_epik_Ionization_Penalty>
1.20468

> <r_epik_Ionization_Penalty_Charging>
1.20466

> <r_epik_Ionization_Penalty_Neutral>
1.88859e-05

> <r_epik_State_Penalty>
1.27057

> <r_epik_Charging_Adjusted_Penalty>
2.47523

> <i_epik_Tot_Q>
1

> <i_epik_Tot_abs_Q>
1

> <r_epik_Metal_State_Penalty>
1.34448

> <b_epik_Metal_Only>
0

> <s_lp_Force_Field>
OPLS_2005

> <r_lp_Energy>
28.5731

> <b_lp_Chiralities_Consistent>
1

> <s_lp_Variant>
AV-unprocessed.smi:1040-3

> <Gold.Version>
5.8.1

> <Gold.Id.Protein>
6NUR|6NUR_protein|mol2

> <Gold.PLP.Fitness>
47.2097

> <Gold.PLP.PLP>
-42.4171

> <Gold.PLP.part.hbond>
-1.0000

> <Gold.PLP.part.metal>
0.0000

> <Gold.PLP.part.buried>
-7.5335

> <Gold.PLP.part.nonpolar>
-33.9368

> <Gold.PLP.part.repulsive>
0.4131

> <Gold.PLP.ligand.clash>
0.0000

> <Gold.PLP.ligand.torsion>
0.7867

> <Gold.PLP.Chemscore.Hbond>
2.0000

> <Gold.PLP.Chemscore.CHOScore>
0.0000

> <Gold.PLP.Chemscore.Metal>
0.0000

> <Gold.Chemscore.Hbonds>
donor molecule, donor type, donor heavy atom, donor atom, acceptor molecule, acceptor atom, score
      L1  H    11    55       P1  8028  2.00

> <Gold.PLP.Chemscore.Internal.Correction>
0.3660

> <Gold.Rescore>
     Score         DG    S(hbond)    S(metal)    S(lipo)     H(rot)  DE(clash)    DE(int)     intcor
     12.53     -17.46       0.98        0.00     110.44       1.64       0.37       4.56       ----

> <Gold.Chemscore.Fitness>
12.5261

> <Gold.Chemscore.DG>
-17.4579

> <Gold.Chemscore.ZeroCoef>
-5.4800

> <Gold.Chemscore.Hbond>
0.9767

> <Gold.Chemscore.Metal>
0.0000

> <Gold.Chemscore.Lipo>
110.4385

> <Gold.Chemscore.Internal_Hbond>
0.0000

> <Gold.Chemscore.DEClash>
0.3708

> <Gold.Chemscore.DEInternal>
4.5610

> <Gold.Chemscore.Rot>
1.6428

> <Gold.Chemscore.Internal.Correction>
   9.000000E+99

> <Gold.Chemscore.Hbonds>
donor molecule, donor type, donor heavy atom, donor atom, acceptor molecule, acceptor atom, score
      L1  H    11    55       P1  8028  0.71

> <Gold.Chemscore.Hbond.Weighted>
-3.2621

> <Gold.Chemscore.Metal.Weighted>
-0.0000

> <Gold.Chemscore.Lipo.Weighted>
-12.9213

> <Gold.Chemscore.Internal_Hbond.Weighted>
0.0000

> <Gold.Chemscore.DEClash.Weighted>
0.3708

> <Gold.Chemscore.DEInternal.Weighted>
4.5610

> <Gold.Chemscore.Rot.Weighted>
4.2055

> <Gold.Chemscore.Internal.Correction.Weighted>
   9.000000E+99

> <Gold.Protein.RotatedTorsions>
[ 6907 6896 6895 6894 ] final -173.09 input  -60.11 | X-H torsion
[ 7974 7965 7964 7962 ] final -156.16 input  175.53 | X-H torsion
[ 8008 7997 7996 7995 ] final  -41.47 input   59.86 | X-H torsion
[ 10167 10162 10161 10158 ] final  127.10 input  -65.29 | X-H torsion
[ 10718 10713 10712 10709 ] final  112.02 input   66.30 | X-H torsion
[ 10763 10752 10751 10750 ] final   70.28 input  -60.55 | X-H torsion
[ 11005 11000 10999 10996 ] final -126.80 input  -57.11 | X-H torsion

> <Gold.Protein.ActiveResidues>
 VAL166  LYS551  ARG553  GLY616  TRP617  ASP618  TYR619  PRO620  LYS621  CYS622 
 ASP623  PHE694  ASN695  SER759  ASP760  ASP761  ALA762  ILE779  LEU786  VAL792 
 PHE793  MET794  SER795  GLU796  ALA797  LYS798  CYS799  TRP800  GLU811  SER814 

> <Gold.Protein.RotatedAtoms>
  151.5505  133.3418  159.2951 H   0  0  0  0  0  0  0  0  0  0  0  0  # atno 6907 bound_to 6896
  150.8481  134.7800  159.6998 H   0  0  0  0  0  0  0  0  0  0  0  0  # atno 6908 bound_to 6896
  152.4534  134.5352  159.9874 H   0  0  0  0  0  0  0  0  0  0  0  0  # atno 6909 bound_to 6896
  144.7606  140.4148  143.5979 H   0  0  0  0  0  0  0  0  0  0  0  0  # atno 7974 bound_to 7965
  154.4004  140.1498  156.3197 H   0  0  0  0  0  0  0  0  0  0  0  0  # atno 8008 bound_to 7997
  155.8541  140.3456  155.5691 H   0  0  0  0  0  0  0  0  0  0  0  0  # atno 8009 bound_to 7997
  155.7952  140.0862  157.1978 H   0  0  0  0  0  0  0  0  0  0  0  0  # atno 8010 bound_to 7997
  139.5596  144.6872  151.4082 H   0  0  0  0  0  0  0  0  0  0  0  0  # atno 10167 bound_to 10162
  157.6414  131.0961  150.6835 H   0  0  0  0  0  0  0  0  0  0  0  0  # atno 10718 bound_to 10713
  153.0333  135.5179  154.7417 H   0  0  0  0  0  0  0  0  0  0  0  0  # atno 10763 bound_to 10752
  154.6415  135.2913  155.0100 H   0  0  0  0  0  0  0  0  0  0  0  0  # atno 10764 bound_to 10752
  154.1016  135.6635  153.4922 H   0  0  0  0  0  0  0  0  0  0  0  0  # atno 10765 bound_to 10752
  140.9652  134.0882  157.3928 H   0  0  0  0  0  0  0  0  0  0  0  0  # atno 11005 bound_to 11000
  145.6633  139.1585  143.2796 LP  0  0  0  0  0  0  0  0  0  0  0  0  # atno 17320 bound_to 7965
  146.1664  140.6711  142.9253 LP  0  0  0  0  0  0  0  0  0  0  0  0  # atno 17321 bound_to 7965
  140.6874  143.7943  150.7205 LP  0  0  0  0  0  0  0  0  0  0  0  0  # atno 17342 bound_to 10162
  140.1414  143.4437  152.2191 LP  0  0  0  0  0  0  0  0  0  0  0  0  # atno 17343 bound_to 10162
  156.7158  130.4665  149.5535 LP  0  0  0  0  0  0  0  0  0  0  0  0  # atno 17370 bound_to 10713
  156.1699  130.6430  151.0824 LP  0  0  0  0  0  0  0  0  0  0  0  0  # atno 17371 bound_to 10713
  139.8892  135.0103  156.6664 LP  0  0  0  0  0  0  0  0  0  0  0  0  # atno 17394 bound_to 11000
  140.7410  133.8978  155.8278 LP  0  0  0  0  0  0  0  0  0  0  0  0  # atno 17395 bound_to 11000

$$$$
