AV-unprocessed.smi:486|AV-procd|sdf|2698|dock3
  -GOLD-   2262023133D 1   1.00000     0.00000
 Structure written by MMmdl.
 44 46  0  0  0  0  0  0  0  0  2 V2000
  154.4768  136.3754  164.0986 C   0  0  0  0  0  0  0  0  0  0  0  0
  154.8949  137.6249  163.5688 O   0  0  0  0  0  0  0  0  0  0  0  0
  154.5758  137.9138  162.2592 C   0  0  0  0  0  0  0  0  0  0  0  0
  155.0004  139.1585  161.7546 C   0  0  0  0  0  0  0  0  0  0  0  0
  154.7179  139.5322  160.4271 C   0  0  0  0  0  0  0  0  0  0  0  0
  154.0053  138.6700  159.5711 C   0  0  0  0  0  0  0  0  0  0  0  0
  153.7735  139.1129  158.2864 O   0  0  0  0  0  0  0  0  0  0  0  0
  153.0963  138.2454  157.3865 C   0  0  0  0  0  0  0  0  0  0  0  0
  151.9310  139.0122  156.7418 C   0  0  1  0  0  0  0  0  0  0  0  0
  151.1181  138.0882  156.0458 O   0  0  0  0  0  0  0  0  0  0  0  0
  151.0774  139.7478  157.7941 C   0  0  0  0  0  0  0  0  0  0  0  0
  151.0179  141.2015  157.5698 N   0  0  0  0  0  0  0  0  0  0  0  0
  150.4003  141.9077  156.5801 C   0  0  0  0  0  0  0  0  0  0  0  0
  149.6064  141.3469  155.4486 C   0  0  0  0  0  0  0  0  0  0  0  0
  150.6438  143.2281  156.8122 N   0  3  0  0  0  0  0  0  0  0  0  0
  151.4219  143.3695  157.9618 C   0  0  0  0  0  0  0  0  0  0  0  0
  151.9173  144.5075  158.5907 C   0  0  0  0  0  0  0  0  0  0  0  0
  152.6796  144.3034  159.7595 C   0  0  0  0  0  0  0  0  0  0  0  0
  152.9227  143.0080  160.2604 C   0  0  0  0  0  0  0  0  0  0  0  0
  152.4167  141.8616  159.6127 C   0  0  0  0  0  0  0  0  0  0  0  0
  151.6651  142.0713  158.4563 C   0  0  0  0  0  0  0  0  0  0  0  0
  153.5748  137.4176  160.0743 C   0  0  0  0  0  0  0  0  0  0  0  0
  153.8562  137.0443  161.4032 C   0  0  0  0  0  0  0  0  0  0  0  0
  154.8096  136.2942  165.1331 H   0  0  0  0  0  0  0  0  0  0  0  0
  154.9122  135.5416  163.5465 H   0  0  0  0  0  0  0  0  0  0  0  0
  153.3898  136.2843  164.0939 H   0  0  0  0  0  0  0  0  0  0  0  0
  155.5503  139.8355  162.3919 H   0  0  0  0  0  0  0  0  0  0  0  0
  155.0539  140.4917  160.0622 H   0  0  0  0  0  0  0  0  0  0  0  0
  153.7687  137.8494  156.6231 H   0  0  0  0  0  0  0  0  0  0  0  0
  152.7016  137.4012  157.9544 H   0  0  0  0  0  0  0  0  0  0  0  0
  152.3231  139.7413  156.0317 H   0  0  0  0  0  0  0  0  0  0  0  0
  151.5108  137.9227  155.2018 H   0  0  0  0  0  0  0  0  0  0  0  0
  150.0653  139.3450  157.8363 H   0  0  0  0  0  0  0  0  0  0  0  0
  151.5025  139.5961  158.7870 H   0  0  0  0  0  0  0  0  0  0  0  0
  149.1706  142.1480  154.8510 H   0  0  0  0  0  0  0  0  0  0  0  0
  148.7994  140.7201  155.8282 H   0  0  0  0  0  0  0  0  0  0  0  0
  150.2457  140.7418  154.8056 H   0  0  0  0  0  0  0  0  0  0  0  0
  151.7304  145.5008  158.2096 H   0  0  0  0  0  0  0  0  0  0  0  0
  153.0838  145.1574  160.2835 H   0  0  0  0  0  0  0  0  0  0  0  0
  153.5077  142.8904  161.1609 H   0  0  0  0  0  0  0  0  0  0  0  0
  152.6040  140.8750  160.0099 H   0  0  0  0  0  0  0  0  0  0  0  0
  153.0244  136.7214  159.4603 H   0  0  0  0  0  0  0  0  0  0  0  0
  153.5080  136.0806  161.7422 H   0  0  0  0  0  0  0  0  0  0  0  0
  150.3007  143.9774  156.2250 H   0  0  0  0  0  0  0  0  0  0  0  0
  1  2  1  0  0  0  0
  1 24  1  0  0  0  0
  1 25  1  0  0  0  0
  1 26  1  0  0  0  0
  2  3  1  0  0  0  0
  3 23  1  0  0  0  0
  3  4  2  0  0  0  0
  4  5  1  0  0  0  0
  4 27  1  0  0  0  0
  5  6  2  0  0  0  0
  5 28  1  0  0  0  0
  6  7  1  0  0  0  0
  6 22  1  0  0  0  0
  7  8  1  0  0  0  0
  8  9  1  0  0  0  0
  8 29  1  0  0  0  0
  8 30  1  0  0  0  0
  9 10  1  0  0  0  0
  9 11  1  0  0  0  0
  9 31  1  0  0  0  0
 10 32  1  0  0  0  0
 11 12  1  0  0  0  0
 11 33  1  0  0  0  0
 11 34  1  0  0  0  0
 12 21  1  0  0  0  0
 12 13  1  0  0  0  0
 13 14  1  0  0  0  0
 13 15  2  0  0  0  0
 14 35  1  0  0  0  0
 14 36  1  0  0  0  0
 14 37  1  0  0  0  0
 15 16  1  0  0  0  0
 15 44  1  0  0  0  0
 16 21  2  0  0  0  0
 16 17  1  0  0  0  0
 17 18  2  0  0  0  0
 17 38  1  0  0  0  0
 18 19  1  0  0  0  0
 18 39  1  0  0  0  0
 19 20  2  0  0  0  0
 19 40  1  0  0  0  0
 20 21  1  0  0  0  0
 20 41  1  0  0  0  0
 22 23  2  0  0  0  0
 22 42  1  0  0  0  0
 23 43  1  0  0  0  0
M  CHG  1  15   1
M  END
> <s_m_source_file>
AV-unprocessed.smi

> <i_m_source_file_index>
486

> <i_lp_mmshare_version>
43012

> <i_f3d_flags>
0

> <s_epik_input>
W0NIM11PYzFbY0hdW2NIXWMoW2NIXVtjSF0xKU9bQ0gyXVtDQEhdKFtPSF0pW0NIMl1uKGMobjIpW0NIM10pYyhjMjMpW2NIXVtjSF1bY0hdW2NIXTM=

> <s_epik_cmdline>
J2VwaWtfcHl0aG9uJywgJy1waCcsICc3LjAnLCAnLXRuJywgJzgnLCAnLW1hJywgJzIwMCcsICctbWV0YWxfYmluZGluZycsICctaW1hZScsICc8aW5maWxlLm1hZT4nLCAnLW9tYWUnLCAnPG91dGZpbGUubWFlPic=

> <r_lp_tautomer_probability>
1

> <r_epik_Ionization_Penalty>
1.03234

> <r_epik_Ionization_Penalty_Charging>
1.03234

> <r_epik_Ionization_Penalty_Neutral>
2.3993e-06

> <r_epik_State_Penalty>
1.0836

> <r_epik_Charging_Adjusted_Penalty>
2.11594

> <i_epik_Tot_Q>
1

> <i_epik_Tot_abs_Q>
1

> <r_epik_Metal_State_Penalty>
5.07275

> <b_epik_Metal_Only>
0

> <s_lp_Force_Field>
OPLS_2005

> <r_lp_Energy>
23.3843

> <b_lp_Chiralities_Consistent>
1

> <s_lp_Variant>
AV-unprocessed.smi:486-4

> <Gold.Version>
5.8.1

> <Gold.Id.Protein>
6NUR|6NUR_protein|mol2

> <Gold.PLP.Fitness>
53.7835

> <Gold.PLP.PLP>
-47.9656

> <Gold.PLP.part.hbond>
-2.0000

> <Gold.PLP.part.metal>
0.0000

> <Gold.PLP.part.buried>
-6.2324

> <Gold.PLP.part.nonpolar>
-40.8142

> <Gold.PLP.part.repulsive>
0.0678

> <Gold.PLP.ligand.clash>
0.0000

> <Gold.PLP.ligand.torsion>
1.2540

> <Gold.PLP.Chemscore.Hbond>
2.7280

> <Gold.PLP.Chemscore.CHOScore>
0.0000

> <Gold.PLP.Chemscore.Metal>
0.0000

> <Gold.Chemscore.Hbonds>
donor molecule, donor type, donor heavy atom, donor atom, acceptor molecule, acceptor atom, score
      L1  H    15    44       P1  8028  1.79
      P1  H  7997  8010       L1     7  0.98

> <Gold.PLP.Chemscore.Internal.Correction>
0.1419

> <Gold.Rescore>
     Score         DG    S(hbond)    S(metal)    S(lipo)     H(rot)  DE(clash)    DE(int)     intcor
     20.10     -21.40       1.87        0.00     135.14       2.40       0.05       1.25       ----

> <Gold.Chemscore.Fitness>
20.1007

> <Gold.Chemscore.DG>
-21.4028

> <Gold.Chemscore.ZeroCoef>
-5.4800

> <Gold.Chemscore.Hbond>
1.8693

> <Gold.Chemscore.Metal>
0.0000

> <Gold.Chemscore.Lipo>
135.1359

> <Gold.Chemscore.Internal_Hbond>
0.0000

> <Gold.Chemscore.DEClash>
0.0485

> <Gold.Chemscore.DEInternal>
1.2535

> <Gold.Chemscore.Rot>
2.3952

> <Gold.Chemscore.Internal.Correction>
   9.000000E+99

> <Gold.Chemscore.Hbonds>
donor molecule, donor type, donor heavy atom, donor atom, acceptor molecule, acceptor atom, score
      L1  H    15    44       P1  8028  0.86
      P1  H  7997  8010       L1     7  0.56

> <Gold.Chemscore.Hbond.Weighted>
-6.2435

> <Gold.Chemscore.Metal.Weighted>
-0.0000

> <Gold.Chemscore.Lipo.Weighted>
-15.8109

> <Gold.Chemscore.Internal_Hbond.Weighted>
0.0000

> <Gold.Chemscore.DEClash.Weighted>
0.0485

> <Gold.Chemscore.DEInternal.Weighted>
1.2535

> <Gold.Chemscore.Rot.Weighted>
6.1316

> <Gold.Chemscore.Internal.Correction.Weighted>
   9.000000E+99

> <Gold.Protein.RotatedTorsions>
[ 6907 6896 6895 6894 ] final  -37.49 input  -60.11 | X-H torsion
[ 7974 7965 7964 7962 ] final  -50.32 input  175.53 | X-H torsion
[ 8008 7997 7996 7995 ] final    2.62 input   59.86 | X-H torsion
[ 10167 10162 10161 10158 ] final   33.97 input  -65.29 | X-H torsion
[ 10718 10713 10712 10709 ] final  145.45 input   66.30 | X-H torsion
[ 10763 10752 10751 10750 ] final -107.75 input  -60.55 | X-H torsion
[ 11005 11000 10999 10996 ] final -166.73 input  -57.11 | X-H torsion

> <Gold.Protein.ActiveResidues>
 VAL166  LYS551  ARG553  GLY616  TRP617  ASP618  TYR619  PRO620  LYS621  CYS622 
 ASP623  PHE694  ASN695  SER759  ASP760  ASP761  ALA762  ILE779  LEU786  VAL792 
 PHE793  MET794  SER795  GLU796  ALA797  LYS798  CYS799  TRP800  GLU811  SER814 

> <Gold.Protein.RotatedAtoms>
  151.0141  134.9419  159.8023 H   0  0  0  0  0  0  0  0  0  0  0  0  # atno 6907 bound_to 6896
  152.5309  134.2990  159.9081 H   0  0  0  0  0  0  0  0  0  0  0  0  # atno 6908 bound_to 6896
  151.2996  133.4086  159.2673 H   0  0  0  0  0  0  0  0  0  0  0  0  # atno 6909 bound_to 6896
  145.9311  140.7748  142.9599 H   0  0  0  0  0  0  0  0  0  0  0  0  # atno 7974 bound_to 7965
  154.6938  140.2658  155.6787 H   0  0  0  0  0  0  0  0  0  0  0  0  # atno 8008 bound_to 7997
  156.2741  140.2786  156.1448 H   0  0  0  0  0  0  0  0  0  0  0  0  # atno 8009 bound_to 7997
  155.0860  140.0373  157.2644 H   0  0  0  0  0  0  0  0  0  0  0  0  # atno 8010 bound_to 7997
  140.4358  144.1259  150.6166 H   0  0  0  0  0  0  0  0  0  0  0  0  # atno 10167 bound_to 10162
  157.3451  131.0942  151.1049 H   0  0  0  0  0  0  0  0  0  0  0  0  # atno 10718 bound_to 10713
  154.8094  135.4663  154.0477 H   0  0  0  0  0  0  0  0  0  0  0  0  # atno 10763 bound_to 10752
  153.1920  135.6856  153.8347 H   0  0  0  0  0  0  0  0  0  0  0  0  # atno 10764 bound_to 10752
  153.7862  135.3249  155.3350 H   0  0  0  0  0  0  0  0  0  0  0  0  # atno 10765 bound_to 10752
  140.5612  134.5332  157.5143 H   0  0  0  0  0  0  0  0  0  0  0  0  # atno 11005 bound_to 11000
  144.6765  140.2128  143.7375 LP  0  0  0  0  0  0  0  0  0  0  0  0  # atno 17320 bound_to 7965
  145.8425  139.2136  143.1819 LP  0  0  0  0  0  0  0  0  0  0  0  0  # atno 17321 bound_to 7965
  140.4375  143.2541  151.9516 LP  0  0  0  0  0  0  0  0  0  0  0  0  # atno 17342 bound_to 10162
  139.4787  144.5685  151.8125 LP  0  0  0  0  0  0  0  0  0  0  0  0  # atno 17343 bound_to 10162
  157.2246  130.6497  149.5825 LP  0  0  0  0  0  0  0  0  0  0  0  0  # atno 17370 bound_to 10713
  155.9713  130.4618  150.6123 LP  0  0  0  0  0  0  0  0  0  0  0  0  # atno 17371 bound_to 10713
  139.9407  134.7792  156.0686 LP  0  0  0  0  0  0  0  0  0  0  0  0  # atno 17394 bound_to 11000
  141.1113  133.6642  156.2987 LP  0  0  0  0  0  0  0  0  0  0  0  0  # atno 17395 bound_to 11000

$$$$
