AV-unprocessed.smi:2652|AV-procd|sdf|10294|dock2
  -GOLD-   2272014303D 1   1.00000     0.00000
 Structure written by MMmdl.
 37 38  0  0  0  0  0  0  0  0  2 V2000
  151.6386  145.3604  160.1947 C   0  0  0  0  0  0  0  0  0  0  0  0
  152.2973  144.0824  160.6858 C   0  0  0  0  0  0  0  0  0  0  0  0
  152.6815  143.8407  161.9436 C   0  0  0  0  0  0  0  0  0  0  0  0
  153.3688  142.2479  162.1461 S   0  0  0  0  0  0  0  0  0  0  0  0
  153.1052  141.9022  160.3990 C   0  0  0  0  0  0  0  0  0  0  0  0
  153.4155  140.8322  159.8779 O   0  0  0  0  0  0  0  0  0  0  0  0
  152.5241  143.0197  159.7993 N   0  0  0  0  0  0  0  0  0  0  0  0
  152.1923  143.0717  158.3690 C   0  0  0  0  0  0  0  0  0  0  0  0
  151.3619  141.8735  157.8884 C   0  0  0  0  0  0  0  0  0  0  0  0
  150.1338  141.8933  157.9736 O   0  0  0  0  0  0  0  0  0  0  0  0
  152.0835  140.8549  157.3846 N   0  0  0  0  0  0  0  0  0  0  0  0
  151.6954  139.5534  156.8149 C   0  0  0  0  0  0  0  0  0  0  0  0
  152.4263  138.4982  157.6850 C   0  0  0  0  0  0  0  0  0  0  0  0
  153.6708  138.5808  157.7867 O   0  0  0  0  0  0  0  0  0  0  0  0
  151.7379  137.5906  158.2040 O   0  5  0  0  0  0  0  0  0  0  0  0
  150.1559  139.2864  156.7763 C   0  0  0  0  0  0  0  0  0  0  0  0
  149.7789  137.9973  156.0201 C   0  0  0  0  0  0  0  0  0  0  0  0
  150.3307  138.0138  154.5876 C   0  0  0  0  0  0  0  0  0  0  0  0
  151.8481  138.2473  154.5819 C   0  0  0  0  0  0  0  0  0  0  0  0
  152.2181  139.5321  155.3492 C   0  0  0  0  0  0  0  0  0  0  0  0
  151.2168  145.9140  161.0341 H   0  0  0  0  0  0  0  0  0  0  0  0
  150.8246  145.1572  159.4987 H   0  0  0  0  0  0  0  0  0  0  0  0
  152.3719  145.9989  159.7018 H   0  0  0  0  0  0  0  0  0  0  0  0
  152.5899  144.5151  162.7824 H   0  0  0  0  0  0  0  0  0  0  0  0
  151.6666  143.9964  158.1300 H   0  0  0  0  0  0  0  0  0  0  0  0
  153.1127  143.1055  157.7837 H   0  0  0  0  0  0  0  0  0  0  0  0
  153.0832  140.9933  157.4091 H   0  0  0  0  0  0  0  0  0  0  0  0
  149.7333  139.2509  157.7816 H   0  0  0  0  0  0  0  0  0  0  0  0
  149.6574  140.1136  156.2694 H   0  0  0  0  0  0  0  0  0  0  0  0
  150.1561  137.1229  156.5510 H   0  0  0  0  0  0  0  0  0  0  0  0
  148.6942  137.8914  155.9940 H   0  0  0  0  0  0  0  0  0  0  0  0
  150.0956  137.0747  154.0862 H   0  0  0  0  0  0  0  0  0  0  0  0
  149.8385  138.8021  154.0168 H   0  0  0  0  0  0  0  0  0  0  0  0
  152.3538  137.3868  155.0213 H   0  0  0  0  0  0  0  0  0  0  0  0
  152.2057  138.3167  153.5544 H   0  0  0  0  0  0  0  0  0  0  0  0
  151.8006  140.3852  154.8122 H   0  0  0  0  0  0  0  0  0  0  0  0
  153.2991  139.6757  155.3151 H   0  0  0  0  0  0  0  0  0  0  0  0
  1  2  1  0  0  0  0
  1 21  1  0  0  0  0
  1 22  1  0  0  0  0
  1 23  1  0  0  0  0
  2  7  1  0  0  0  0
  2  3  2  0  0  0  0
  3  4  1  0  0  0  0
  3 24  1  0  0  0  0
  4  5  1  0  0  0  0
  5  6  2  0  0  0  0
  5  7  1  0  0  0  0
  7  8  1  0  0  0  0
  8  9  1  0  0  0  0
  8 25  1  0  0  0  0
  8 26  1  0  0  0  0
  9 10  2  0  0  0  0
  9 11  1  0  0  0  0
 11 12  1  0  0  0  0
 11 27  1  0  0  0  0
 12 20  1  0  0  0  0
 12 13  1  0  0  0  0
 12 16  1  0  0  0  0
 13 14  2  0  0  0  0
 13 15  1  0  0  0  0
 16 17  1  0  0  0  0
 16 28  1  0  0  0  0
 16 29  1  0  0  0  0
 17 18  1  0  0  0  0
 17 30  1  0  0  0  0
 17 31  1  0  0  0  0
 18 19  1  0  0  0  0
 18 32  1  0  0  0  0
 18 33  1  0  0  0  0
 19 20  1  0  0  0  0
 19 34  1  0  0  0  0
 19 35  1  0  0  0  0
 20 36  1  0  0  0  0
 20 37  1  0  0  0  0
M  CHG  1  15  -1
M  END
> <s_m_source_file>
AV-unprocessed.smi

> <i_m_source_file_index>
2652

> <i_lp_mmshare_version>
43012

> <i_f3d_flags>
0

> <s_epik_input>
W0NIM11jMVtjSF1zYyg9TyluMVtDSDJdQyg9TylbTkhdQzIoQyg9TylbT0hdKVtDSDJdW0NIMl1bQ0gyXVtDSDJdW0NIMl0y

> <s_epik_cmdline>
J2VwaWtfcHl0aG9uJywgJy1waCcsICc3LjAnLCAnLXRuJywgJzgnLCAnLW1hJywgJzIwMCcsICctbWV0YWxfYmluZGluZycsICctaW1hZScsICc8aW5maWxlLm1hZT4nLCAnLW9tYWUnLCAnPG91dGZpbGUubWFlPic=

> <r_epik_Ionization_Penalty>
0.000325241

> <r_epik_Ionization_Penalty_Charging>
0.000325125

> <r_epik_Ionization_Penalty_Neutral>
1.16183e-07

> <r_epik_State_Penalty>
0.000195685

> <r_epik_Charging_Adjusted_Penalty>
0.00052081

> <i_epik_Tot_Q>
-1

> <i_epik_Tot_abs_Q>
1

> <r_epik_Metal_State_Penalty>
-0

> <b_epik_Metal_Only>
0

> <s_lp_Force_Field>
OPLS_2005

> <r_lp_Energy>
9.07631

> <b_lp_Chiralities_Consistent>
1

> <s_lp_Variant>
AV-unprocessed.smi:2652-1

> <Gold.Version>
5.8.1

> <Gold.Id.Protein>
6NUR|6NUR_protein|mol2

> <Gold.PLP.Fitness>
48.2867

> <Gold.PLP.PLP>
-43.1753

> <Gold.PLP.part.hbond>
-1.0000

> <Gold.PLP.part.metal>
0.0000

> <Gold.PLP.part.buried>
-4.1506

> <Gold.PLP.part.nonpolar>
-36.9352

> <Gold.PLP.part.repulsive>
0.1962

> <Gold.PLP.ligand.clash>
0.0000

> <Gold.PLP.ligand.torsion>
0.4702

> <Gold.PLP.Chemscore.Hbond>
2.0000

> <Gold.PLP.Chemscore.CHOScore>
0.0000

> <Gold.PLP.Chemscore.Metal>
0.0000

> <Gold.Chemscore.Hbonds>
donor molecule, donor type, donor heavy atom, donor atom, acceptor molecule, acceptor atom, score
      P1  H  7997  8010       L1    14  2.00

> <Gold.PLP.Chemscore.Internal.Correction>
0.0518

> <Gold.Rescore>
     Score         DG    S(hbond)    S(metal)    S(lipo)     H(rot)  DE(clash)    DE(int)     intcor
     11.75     -14.58       0.98        0.00      94.68       2.05       0.03       2.80       ----

> <Gold.Chemscore.Fitness>
11.7480

> <Gold.Chemscore.DG>
-14.5780

> <Gold.Chemscore.ZeroCoef>
-5.4800

> <Gold.Chemscore.Hbond>
0.9823

> <Gold.Chemscore.Metal>
0.0000

> <Gold.Chemscore.Lipo>
94.6815

> <Gold.Chemscore.Internal_Hbond>
0.0000

> <Gold.Chemscore.DEClash>
0.0260

> <Gold.Chemscore.DEInternal>
2.8040

> <Gold.Chemscore.Rot>
2.0550

> <Gold.Chemscore.Internal.Correction>
   9.000000E+99

> <Gold.Chemscore.Hbonds>
donor molecule, donor type, donor heavy atom, donor atom, acceptor molecule, acceptor atom, score
      P1  H  7997  8010       L1    14  0.98

> <Gold.Chemscore.Hbond.Weighted>
-3.2809

> <Gold.Chemscore.Metal.Weighted>
-0.0000

> <Gold.Chemscore.Lipo.Weighted>
-11.0777

> <Gold.Chemscore.Internal_Hbond.Weighted>
0.0000

> <Gold.Chemscore.DEClash.Weighted>
0.0260

> <Gold.Chemscore.DEInternal.Weighted>
2.8040

> <Gold.Chemscore.Rot.Weighted>
5.2607

> <Gold.Chemscore.Internal.Correction.Weighted>
   9.000000E+99

> <Gold.Protein.RotatedTorsions>
[ 6907 6896 6895 6894 ] final    7.44 input  -60.11 | X-H torsion
[ 7974 7965 7964 7962 ] final   16.35 input  175.53 | X-H torsion
[ 8008 7997 7996 7995 ] final   25.34 input   59.86 | X-H torsion
[ 10167 10162 10161 10158 ] final  133.81 input  -65.29 | X-H torsion
[ 10718 10713 10712 10709 ] final   70.74 input   66.30 | X-H torsion
[ 10763 10752 10751 10750 ] final -150.52 input  -60.55 | X-H torsion
[ 11005 11000 10999 10996 ] final   30.64 input  -57.11 | X-H torsion

> <Gold.Protein.ActiveResidues>
 VAL166  LYS551  ARG553  GLY616  TRP617  ASP618  TYR619  PRO620  LYS621  CYS622 
 ASP623  PHE694  ASN695  SER759  ASP760  ASP761  ALA762  ILE779  LEU786  VAL792 
 PHE793  MET794  SER795  GLU796  ALA797  LYS798  CYS799  TRP800  GLU811  SER814 

> <Gold.Protein.RotatedAtoms>
  151.6899  135.0948  160.0231 H   0  0  0  0  0  0  0  0  0  0  0  0  # atno 6907 bound_to 6896
  152.3785  133.6509  159.6150 H   0  0  0  0  0  0  0  0  0  0  0  0  # atno 6908 bound_to 6896
  150.7728  133.9070  159.3399 H   0  0  0  0  0  0  0  0  0  0  0  0  # atno 6909 bound_to 6896
  146.2252  139.8760  142.8579 H   0  0  0  0  0  0  0  0  0  0  0  0  # atno 7974 bound_to 7965
  155.0102  140.3135  155.4833 H   0  0  0  0  0  0  0  0  0  0  0  0  # atno 8008 bound_to 7997
  156.2910  140.2216  156.5157 H   0  0  0  0  0  0  0  0  0  0  0  0  # atno 8009 bound_to 7997
  154.7541  140.0464  157.0906 H   0  0  0  0  0  0  0  0  0  0  0  0  # atno 8010 bound_to 7997
  139.5282  144.6598  151.5049 H   0  0  0  0  0  0  0  0  0  0  0  0  # atno 10167 bound_to 10162
  157.6416  130.9493  150.0693 H   0  0  0  0  0  0  0  0  0  0  0  0  # atno 10718 bound_to 10713
  154.8114  135.3282  154.7295 H   0  0  0  0  0  0  0  0  0  0  0  0  # atno 10763 bound_to 10752
  153.7944  135.6908  153.4870 H   0  0  0  0  0  0  0  0  0  0  0  0  # atno 10764 bound_to 10752
  153.1895  135.4556  155.0078 H   0  0  0  0  0  0  0  0  0  0  0  0  # atno 10765 bound_to 10752
  140.2922  134.2851  155.7773 H   0  0  0  0  0  0  0  0  0  0  0  0  # atno 11005 bound_to 11000
  145.2560  141.0060  143.3854 LP  0  0  0  0  0  0  0  0  0  0  0  0  # atno 17320 bound_to 7965
  144.9336  139.4269  143.6483 LP  0  0  0  0  0  0  0  0  0  0  0  0  # atno 17321 bound_to 7965
  140.6440  143.8831  150.6719 LP  0  0  0  0  0  0  0  0  0  0  0  0  # atno 17342 bound_to 10162
  140.2175  143.3835  152.1669 LP  0  0  0  0  0  0  0  0  0  0  0  0  # atno 17343 bound_to 10162
  156.1702  130.3646  149.9176 LP  0  0  0  0  0  0  0  0  0  0  0  0  # atno 17370 bound_to 10713
  156.7153  130.8986  151.3613 LP  0  0  0  0  0  0  0  0  0  0  0  0  # atno 17371 bound_to 10713
  141.2144  133.7592  156.9642 LP  0  0  0  0  0  0  0  0  0  0  0  0  # atno 17394 bound_to 11000
  140.1185  134.9432  157.2169 LP  0  0  0  0  0  0  0  0  0  0  0  0  # atno 17395 bound_to 11000

$$$$
