AV-unprocessed.smi:243|AV-procd|sdf|1853|dock10
  -GOLD-   2262020483D 1   1.00000     0.00000
 Structure written by MMmdl.
 58 61  0  0  0  0  0  0  0  0  2 V2000
  150.0481  141.4964  158.8984 C   0  0  0  0  0  0  0  0  0  0  0  0
  149.7525  142.8039  158.1495 C   0  0  0  0  0  0  0  0  0  0  0  0
  148.8355  142.6068  156.9979 N   0  3  1  0  0  0  0  0  0  0  0  0
  149.3573  141.6446  155.9928 C   0  0  0  0  0  0  0  0  0  0  0  0
  148.4362  141.5470  154.7605 C   0  0  0  0  0  0  0  0  0  0  0  0
  146.9443  141.3262  155.0903 C   0  0  1  0  0  0  0  0  0  0  0  0
  146.5758  139.9076  155.2543 N   0  0  0  0  0  0  0  0  0  0  0  0
  146.2660  139.2843  156.5378 C   0  0  0  0  0  0  0  0  0  0  0  0
  146.2622  139.2024  154.1370 C   0  0  0  0  0  0  0  0  0  0  0  0
  146.7680  139.6221  152.9479 N   0  0  0  0  0  0  0  0  0  0  0  0
  146.4890  138.9575  151.8230 C   0  0  0  0  0  0  0  0  0  0  0  0
  145.7359  137.8683  151.6629 N   0  0  0  0  0  0  0  0  0  0  0  0
  145.2193  137.4437  152.8515 C   0  0  0  0  0  0  0  0  0  0  0  0
  145.4336  138.0426  154.1258 C   0  0  0  0  0  0  0  0  0  0  0  0
  144.7412  137.3324  155.1003 N   0  0  0  0  0  0  0  0  0  0  0  0
  144.1599  136.3674  154.4423 C   0  0  0  0  0  0  0  0  0  0  0  0
  144.3831  136.3654  153.0840 N   0  0  0  0  0  0  0  0  0  0  0  0
  143.8552  135.4156  152.1160 C   0  0  0  0  0  0  0  0  0  0  0  0
  144.9461  134.7495  151.2441 C   0  0  2  0  0  0  0  0  0  0  0  0
  145.5088  135.7260  150.3844 O   0  0  0  0  0  0  0  0  0  0  0  0
  144.4062  133.6124  150.3856 C   0  0  0  0  0  0  0  0  0  0  0  0
  145.6161  132.7001  150.2352 C   0  0  0  0  0  0  0  0  0  0  0  0
  146.2113  132.7519  151.5205 O   0  0  0  0  0  0  0  0  0  0  0  0
  146.0890  134.0757  152.0330 C   0  0  0  0  0  0  0  0  0  0  0  0
  146.4842  142.2587  156.2385 C   0  0  1  0  0  0  0  0  0  0  0  0
  145.0243  142.0341  156.6690 C   0  0  0  0  0  0  0  0  0  0  0  0
  147.4598  142.2533  157.4313 C   0  0  0  0  0  0  0  0  0  0  0  0
  150.7936  141.6618  159.6765 H   0  0  0  0  0  0  0  0  0  0  0  0
  150.4412  140.7356  158.2234 H   0  0  0  0  0  0  0  0  0  0  0  0
  149.1612  141.0913  159.3845 H   0  0  0  0  0  0  0  0  0  0  0  0
  149.3456  143.5541  158.8291 H   0  0  0  0  0  0  0  0  0  0  0  0
  150.7033  143.1987  157.7895 H   0  0  0  0  0  0  0  0  0  0  0  0
  150.3429  141.9614  155.6535 H   0  0  0  0  0  0  0  0  0  0  0  0
  149.5045  140.6730  156.4591 H   0  0  0  0  0  0  0  0  0  0  0  0
  148.5208  142.4860  154.2122 H   0  0  0  0  0  0  0  0  0  0  0  0
  148.7938  140.7757  154.0770 H   0  0  0  0  0  0  0  0  0  0  0  0
  146.4065  141.6898  154.2141 H   0  0  0  0  0  0  0  0  0  0  0  0
  146.2453  138.1972  156.4495 H   0  0  0  0  0  0  0  0  0  0  0  0
  145.2919  139.6070  156.9036 H   0  0  0  0  0  0  0  0  0  0  0  0
  147.0145  139.5156  157.2893 H   0  0  0  0  0  0  0  0  0  0  0  0
  146.9316  139.3562  150.9219 H   0  0  0  0  0  0  0  0  0  0  0  0
  143.5409  135.6294  154.9319 H   0  0  0  0  0  0  0  0  0  0  0  0
  143.2917  134.6544  152.6569 H   0  0  0  0  0  0  0  0  0  0  0  0
  143.1335  135.9367  151.4852 H   0  0  0  0  0  0  0  0  0  0  0  0
  145.6499  135.3325  149.5368 H   0  0  0  0  0  0  0  0  0  0  0  0
  143.6217  133.0742  150.9195 H   0  0  0  0  0  0  0  0  0  0  0  0
  143.9927  133.9394  149.4306 H   0  0  0  0  0  0  0  0  0  0  0  0
  145.3465  131.6812  149.9569 H   0  0  0  0  0  0  0  0  0  0  0  0
  146.3126  133.0900  149.4914 H   0  0  0  0  0  0  0  0  0  0  0  0
  147.0353  134.6087  151.9266 H   0  0  0  0  0  0  0  0  0  0  0  0
  145.8744  134.0049  153.0987 H   0  0  0  0  0  0  0  0  0  0  0  0
  146.5192  143.2709  155.8319 H   0  0  0  0  0  0  0  0  0  0  0  0
  144.8920  141.0739  157.1670 H   0  0  0  0  0  0  0  0  0  0  0  0
  144.3531  142.0594  155.8098 H   0  0  0  0  0  0  0  0  0  0  0  0
  144.6981  142.8088  157.3636 H   0  0  0  0  0  0  0  0  0  0  0  0
  147.4680  141.2889  157.9383 H   0  0  0  0  0  0  0  0  0  0  0  0
  147.1173  142.9846  158.1648 H   0  0  0  0  0  0  0  0  0  0  0  0
  148.7605  143.5026  156.5374 H   0  0  0  0  0  0  0  0  0  0  0  0
  1  2  1  0  0  0  0
  1 28  1  0  0  0  0
  1 29  1  0  0  0  0
  1 30  1  0  0  0  0
  2  3  1  0  0  0  0
  2 31  1  0  0  0  0
  2 32  1  0  0  0  0
  3 27  1  0  0  0  0
  3  4  1  0  0  0  0
  3 58  1  0  0  0  0
  4  5  1  0  0  0  0
  4 33  1  0  0  0  0
  4 34  1  0  0  0  0
  5  6  1  0  0  0  0
  5 35  1  0  0  0  0
  5 36  1  0  0  0  0
  6  7  1  0  0  0  0
  6 25  1  0  0  0  0
  6 37  1  0  0  0  0
  7  8  1  0  0  0  0
  7  9  1  0  0  0  0
  8 38  1  0  0  0  0
  8 39  1  0  0  0  0
  8 40  1  0  0  0  0
  9 14  1  0  0  0  0
  9 10  2  0  0  0  0
 10 11  1  0  0  0  0
 11 12  2  0  0  0  0
 11 41  1  0  0  0  0
 12 13  1  0  0  0  0
 13 17  1  0  0  0  0
 13 14  2  0  0  0  0
 14 15  1  0  0  0  0
 15 16  2  0  0  0  0
 16 17  1  0  0  0  0
 16 42  1  0  0  0  0
 17 18  1  0  0  0  0
 18 19  1  0  0  0  0
 18 43  1  0  0  0  0
 18 44  1  0  0  0  0
 19 24  1  0  0  0  0
 19 20  1  0  0  0  0
 19 21  1  0  0  0  0
 20 45  1  0  0  0  0
 21 22  1  0  0  0  0
 21 46  1  0  0  0  0
 21 47  1  0  0  0  0
 22 23  1  0  0  0  0
 22 48  1  0  0  0  0
 22 49  1  0  0  0  0
 23 24  1  0  0  0  0
 24 50  1  0  0  0  0
 24 51  1  0  0  0  0
 25 26  1  0  0  0  0
 25 27  1  0  0  0  0
 25 52  1  0  0  0  0
 26 53  1  0  0  0  0
 26 54  1  0  0  0  0
 26 55  1  0  0  0  0
 27 56  1  0  0  0  0
 27 57  1  0  0  0  0
M  CHG  1   3   1
M  END
> <s_m_source_file>
AV-unprocessed.smi

> <i_m_source_file_index>
243

> <i_lp_mmshare_version>
43012

> <i_f3d_flags>
0

> <s_epik_input>
W0NIM11bQ0gyXU4xW0NIMl1bQ0gyXVtDQEhdKFtDQEBIXShbQ0gzXSlbQ0gyXTEpTihbQ0gzXSljKG5bY0hdbjIpYyhjMjMpbltjSF1uM1tDSDJdW0NAQF00KFtPSF0pW0NIMl1bQ0gyXU9bQ0gyXTQ=

> <s_epik_cmdline>
J2VwaWtfcHl0aG9uJywgJy1waCcsICc3LjAnLCAnLXRuJywgJzgnLCAnLW1hJywgJzIwMCcsICctbWV0YWxfYmluZGluZycsICctaW1hZScsICc8aW5maWxlLm1hZT4nLCAnLW9tYWUnLCAnPG91dGZpbGUubWFlPic=

> <r_lp_tautomer_probability>
1

> <r_epik_Ionization_Penalty>
0.00253099

> <r_epik_Ionization_Penalty_Charging>
0.00137877

> <r_epik_Ionization_Penalty_Neutral>
0.00115221

> <r_epik_State_Penalty>
-0

> <r_epik_Charging_Adjusted_Penalty>
0.00137877

> <i_epik_Tot_Q>
1

> <i_epik_Tot_abs_Q>
1

> <r_epik_Metal_State_Penalty>
-0

> <b_epik_Metal_Only>
0

> <s_lp_Force_Field>
OPLS_2005

> <r_lp_Energy>
51.4738

> <b_lp_Chiralities_Consistent>
1

> <s_lp_Variant>
AV-unprocessed.smi:243-6

> <Gold.Version>
5.8.1

> <Gold.Id.Protein>
6NUR|6NUR_protein|mol2

> <Gold.PLP.Fitness>
44.6744

> <Gold.PLP.PLP>
-35.3647

> <Gold.PLP.part.hbond>
-2.0000

> <Gold.PLP.part.metal>
0.0000

> <Gold.PLP.part.buried>
-5.3282

> <Gold.PLP.part.nonpolar>
-30.7537

> <Gold.PLP.part.repulsive>
4.2260

> <Gold.PLP.ligand.clash>
0.0000

> <Gold.PLP.ligand.torsion>
0.8518

> <Gold.PLP.Chemscore.Hbond>
3.0000

> <Gold.PLP.Chemscore.CHOScore>
0.5641

> <Gold.PLP.Chemscore.Metal>
0.0000

> <Gold.Chemscore.Hbonds>
donor molecule, donor type, donor heavy atom, donor atom, acceptor molecule, acceptor atom, score
      L1  H     3    58       P1  8028  1.82
      L1  H    20    45       P1  7921  1.00
      L1  C    11    41       P1  7957  0.39

> <Gold.PLP.Chemscore.Internal.Correction>
0.3212

> <Gold.Rescore>
     Score         DG    S(hbond)    S(metal)    S(lipo)     H(rot)  DE(clash)    DE(int)     intcor
     11.34     -14.92       1.97        0.00      73.48       2.24       1.37       2.21       ----

> <Gold.Chemscore.Fitness>
11.3436

> <Gold.Chemscore.DG>
-14.9236

> <Gold.Chemscore.ZeroCoef>
-5.4800

> <Gold.Chemscore.Hbond>
1.9687

> <Gold.Chemscore.Metal>
0.0000

> <Gold.Chemscore.Lipo>
73.4820

> <Gold.Chemscore.Internal_Hbond>
0.0000

> <Gold.Chemscore.DEClash>
1.3686

> <Gold.Chemscore.DEInternal>
2.2114

> <Gold.Chemscore.Rot>
2.2379

> <Gold.Chemscore.Internal.Correction>
   9.000000E+99

> <Gold.Chemscore.Hbonds>
donor molecule, donor type, donor heavy atom, donor atom, acceptor molecule, acceptor atom, score
      L1  H     3    58       P1  8028  0.69
      L1  H    20    45       P1  7921  0.94

> <Gold.Chemscore.Hbond.Weighted>
-6.5753

> <Gold.Chemscore.Metal.Weighted>
-0.0000

> <Gold.Chemscore.Lipo.Weighted>
-8.5974

> <Gold.Chemscore.Internal_Hbond.Weighted>
0.0000

> <Gold.Chemscore.DEClash.Weighted>
1.3686

> <Gold.Chemscore.DEInternal.Weighted>
2.2114

> <Gold.Chemscore.Rot.Weighted>
5.7291

> <Gold.Chemscore.Internal.Correction.Weighted>
   9.000000E+99

> <Gold.Protein.RotatedTorsions>
[ 6907 6896 6895 6894 ] final   79.75 input  -60.11 | X-H torsion
[ 7974 7965 7964 7962 ] final -177.93 input  175.53 | X-H torsion
[ 8008 7997 7996 7995 ] final   22.22 input   59.86 | X-H torsion
[ 10167 10162 10161 10158 ] final -104.18 input  -65.29 | X-H torsion
[ 10718 10713 10712 10709 ] final  129.04 input   66.30 | X-H torsion
[ 10763 10752 10751 10750 ] final  138.13 input  -60.55 | X-H torsion
[ 11005 11000 10999 10996 ] final  133.90 input  -57.11 | X-H torsion

> <Gold.Protein.ActiveResidues>
 VAL166  LYS551  ARG553  GLY616  TRP617  ASP618  TYR619  PRO620  LYS621  CYS622 
 ASP623  PHE694  ASN695  SER759  ASP760  ASP761  ALA762  ILE779  LEU786  VAL792 
 PHE793  MET794  SER795  GLU796  ALA797  LYS798  CYS799  TRP800  GLU811  SER814 

> <Gold.Protein.RotatedAtoms>
  152.5210  134.3463  159.9234 H   0  0  0  0  0  0  0  0  0  0  0  0  # atno 6907 bound_to 6896
  151.3413  133.3955  159.2679 H   0  0  0  0  0  0  0  0  0  0  0  0  # atno 6908 bound_to 6896
  150.9801  134.9176  159.7897 H   0  0  0  0  0  0  0  0  0  0  0  0  # atno 6909 bound_to 6896
  144.7129  140.0944  143.6419 H   0  0  0  0  0  0  0  0  0  0  0  0  # atno 7974 bound_to 7965
  154.9625  140.3080  155.5024 H   0  0  0  0  0  0  0  0  0  0  0  0  # atno 8008 bound_to 7997
  156.2975  140.2299  156.4650 H   0  0  0  0  0  0  0  0  0  0  0  0  # atno 8009 bound_to 7997
  154.7952  140.0437  157.1219 H   0  0  0  0  0  0  0  0  0  0  0  0  # atno 8010 bound_to 7997
  140.2120  143.3739  152.1042 H   0  0  0  0  0  0  0  0  0  0  0  0  # atno 10167 bound_to 10162
  157.5190  131.1098  150.9182 H   0  0  0  0  0  0  0  0  0  0  0  0  # atno 10718 bound_to 10713
  153.8845  135.3040  155.3446 H   0  0  0  0  0  0  0  0  0  0  0  0  # atno 10763 bound_to 10752
  154.7745  135.4868  153.9720 H   0  0  0  0  0  0  0  0  0  0  0  0  # atno 10764 bound_to 10752
  153.1332  135.6808  153.9242 H   0  0  0  0  0  0  0  0  0  0  0  0  # atno 10765 bound_to 10752
  139.9881  134.9525  156.9791 H   0  0  0  0  0  0  0  0  0  0  0  0  # atno 11005 bound_to 11000
  145.9592  139.2788  143.1166 LP  0  0  0  0  0  0  0  0  0  0  0  0  # atno 17320 bound_to 7965
  145.9239  140.9096  143.0391 LP  0  0  0  0  0  0  0  0  0  0  0  0  # atno 17321 bound_to 7965
  139.5176  144.6994  151.5537 LP  0  0  0  0  0  0  0  0  0  0  0  0  # atno 17342 bound_to 10162
  140.6316  143.9064  150.6611 LP  0  0  0  0  0  0  0  0  0  0  0  0  # atno 17343 bound_to 10162
  156.9798  130.5523  149.5295 LP  0  0  0  0  0  0  0  0  0  0  0  0  # atno 17370 bound_to 10713
  156.0340  130.5429  150.8607 LP  0  0  0  0  0  0  0  0  0  0  0  0  # atno 17371 bound_to 10713
  140.4963  134.1142  155.7242 LP  0  0  0  0  0  0  0  0  0  0  0  0  # atno 17394 bound_to 11000
  141.1542  133.8913  157.2020 LP  0  0  0  0  0  0  0  0  0  0  0  0  # atno 17395 bound_to 11000

$$$$
