AV-unprocessed.smi:191|AV-procd|sdf|1493|dock8
  -GOLD-   2262019313D 1   1.00000     0.00000
 Structure written by MMmdl.
 46 48  0  0  0  0  0  0  0  0  1 V2000
  152.1171  143.9314  161.4380 C   0  0  0  0  0  0  0  0  0  0  0  0
  153.0565  142.7185  161.4438 C   0  0  0  0  0  0  0  0  0  0  0  0
  153.6255  142.4473  160.1260 N   0  0  0  0  0  0  0  0  0  0  0  0
  154.7272  141.4861  160.0636 C   0  0  0  0  0  0  0  0  0  0  0  0
  154.5136  140.2405  160.9465 C   0  0  2  0  0  0  0  0  0  0  0  0
  154.9870  140.4933  162.3825 C   0  0  0  0  0  0  0  0  0  0  0  0
  155.1790  139.0547  160.3813 C   0  0  0  0  0  0  0  0  0  0  0  0
  155.7017  138.1232  159.9370 N   0  0  0  0  0  0  0  0  0  0  0  0
  152.6705  142.2418  159.1932 C   0  0  0  0  0  0  0  0  0  0  0  0
  151.9869  143.3260  158.7530 N   0  0  0  0  0  0  0  0  0  0  0  0
  151.0322  143.1814  157.8291 C   0  0  0  0  0  0  0  0  0  0  0  0
  150.6131  142.0649  157.2289 N   0  0  0  0  0  0  0  0  0  0  0  0
  151.3010  140.9730  157.6704 C   0  0  0  0  0  0  0  0  0  0  0  0
  152.3371  140.9713  158.6461 C   0  0  0  0  0  0  0  0  0  0  0  0
  152.7998  139.6770  158.8476 N   0  0  0  0  0  0  0  0  0  0  0  0
  152.0741  138.9529  158.0402 C   0  0  0  0  0  0  0  0  0  0  0  0
  151.1561  139.6509  157.2870 N   0  0  0  0  0  0  0  0  0  0  0  0
  150.2278  139.0913  156.3159 C   0  0  0  0  0  0  0  0  0  0  0  0
  150.8995  138.5397  155.0406 C   0  0  0  0  0  0  0  0  0  0  0  0
  150.2131  139.0875  153.7770 C   0  0  0  0  0  0  0  0  0  0  0  0
  150.3099  140.4959  153.7054 O   0  0  0  0  0  0  0  0  0  0  0  0
  152.4332  138.5996  155.0170 C   0  0  0  0  0  0  0  0  0  0  0  0
  152.5379  137.2065  154.6545 O   0  0  0  0  0  0  0  0  0  0  0  0
  151.1520  137.0251  155.0141 C   0  0  0  0  0  0  0  0  0  0  0  0
  151.6706  144.0741  162.4220 H   0  0  0  0  0  0  0  0  0  0  0  0
  151.3051  143.7949  160.7229 H   0  0  0  0  0  0  0  0  0  0  0  0
  152.6411  144.8517  161.1812 H   0  0  0  0  0  0  0  0  0  0  0  0
  153.8639  142.8825  162.1586 H   0  0  0  0  0  0  0  0  0  0  0  0
  152.5006  141.8477  161.7966 H   0  0  0  0  0  0  0  0  0  0  0  0
  154.8615  141.1645  159.0313 H   0  0  0  0  0  0  0  0  0  0  0  0
  155.6540  141.9859  160.3473 H   0  0  0  0  0  0  0  0  0  0  0  0
  153.4508  140.0016  160.9892 H   0  0  0  0  0  0  0  0  0  0  0  0
  154.8110  139.6197  163.0107 H   0  0  0  0  0  0  0  0  0  0  0  0
  154.4562  141.3347  162.8288 H   0  0  0  0  0  0  0  0  0  0  0  0
  156.0540  140.7160  162.4131 H   0  0  0  0  0  0  0  0  0  0  0  0
  150.5325  144.0904  157.5278 H   0  0  0  0  0  0  0  0  0  0  0  0
  152.1939  137.8817  157.9660 H   0  0  0  0  0  0  0  0  0  0  0  0
  149.6503  138.3091  156.8100 H   0  0  0  0  0  0  0  0  0  0  0  0
  149.5046  139.8673  156.0623 H   0  0  0  0  0  0  0  0  0  0  0  0
  150.6794  138.6766  152.8807 H   0  0  0  0  0  0  0  0  0  0  0  0
  149.1640  138.7961  153.7287 H   0  0  0  0  0  0  0  0  0  0  0  0
  149.8692  140.7882  152.9219 H   0  0  0  0  0  0  0  0  0  0  0  0
  152.8434  139.2643  154.2558 H   0  0  0  0  0  0  0  0  0  0  0  0
  152.8839  138.7988  155.9909 H   0  0  0  0  0  0  0  0  0  0  0  0
  151.0543  136.5366  155.9846 H   0  0  0  0  0  0  0  0  0  0  0  0
  150.5838  136.4917  154.2510 H   0  0  0  0  0  0  0  0  0  0  0  0
  1  2  1  0  0  0  0
  1 25  1  0  0  0  0
  1 26  1  0  0  0  0
  1 27  1  0  0  0  0
  2  3  1  0  0  0  0
  2 28  1  0  0  0  0
  2 29  1  0  0  0  0
  3  4  1  0  0  0  0
  3  9  1  0  0  0  0
  4  5  1  0  0  0  0
  4 30  1  0  0  0  0
  4 31  1  0  0  0  0
  5  6  1  0  0  0  0
  5  7  1  0  0  0  0
  5 32  1  0  0  0  0
  6 33  1  0  0  0  0
  6 34  1  0  0  0  0
  6 35  1  0  0  0  0
  7  8  3  0  0  0  0
  9 14  1  0  0  0  0
  9 10  2  0  0  0  0
 10 11  1  0  0  0  0
 11 12  2  0  0  0  0
 11 36  1  0  0  0  0
 12 13  1  0  0  0  0
 13 17  1  0  0  0  0
 13 14  2  0  0  0  0
 14 15  1  0  0  0  0
 15 16  2  0  0  0  0
 16 17  1  0  0  0  0
 16 37  1  0  0  0  0
 17 18  1  0  0  0  0
 18 19  1  0  0  0  0
 18 38  1  0  0  0  0
 18 39  1  0  0  0  0
 19 24  1  0  0  0  0
 19 20  1  0  0  0  0
 19 22  1  0  0  0  0
 20 21  1  0  0  0  0
 20 40  1  0  0  0  0
 20 41  1  0  0  0  0
 21 42  1  0  0  0  0
 22 23  1  0  0  0  0
 22 43  1  0  0  0  0
 22 44  1  0  0  0  0
 23 24  1  0  0  0  0
 24 45  1  0  0  0  0
 24 46  1  0  0  0  0
M  END
> <s_m_source_file>
AV-unprocessed.smi

> <i_m_source_file_index>
191

> <i_lp_mmshare_version>
43012

> <i_f3d_flags>
0

> <s_epik_input>
TiNDW0NAQEhdKFtDSDNdKVtDSDJdTihbQ0gyXVtDSDNdKWMobltjSF1uMSljKGMxMiluW2NIXW4yW0NIMl1DMyhbQ0gyXVtPSF0pW0NIMl1PW0NIMl0z

> <s_epik_cmdline>
J2VwaWtfcHl0aG9uJywgJy1waCcsICc3LjAnLCAnLXRuJywgJzgnLCAnLW1hJywgJzIwMCcsICctbWV0YWxfYmluZGluZycsICctaW1hZScsICc8aW5maWxlLm1hZT4nLCAnLW9tYWUnLCAnPG91dGZpbGUubWFlPic=

> <r_lp_tautomer_probability>
1

> <r_epik_Ionization_Penalty>
0.000569684

> <r_epik_Ionization_Penalty_Charging>
0

> <r_epik_Ionization_Penalty_Neutral>
0.000569684

> <r_epik_State_Penalty>
0.000286009

> <r_epik_Charging_Adjusted_Penalty>
0.000286009

> <i_epik_Tot_Q>
0

> <i_epik_Tot_abs_Q>
0

> <r_epik_Metal_State_Penalty>
-0

> <b_epik_Metal_Only>
0

> <s_lp_Force_Field>
OPLS_2005

> <r_lp_Energy>
28.3961

> <b_lp_Chiralities_Consistent>
1

> <s_lp_Variant>
AV-unprocessed.smi:191-1

> <Gold.Version>
5.8.1

> <Gold.Id.Protein>
6NUR|6NUR_protein|mol2

> <Gold.PLP.Fitness>
48.7098

> <Gold.PLP.PLP>
-42.7496

> <Gold.PLP.part.hbond>
-2.7119

> <Gold.PLP.part.metal>
0.0000

> <Gold.PLP.part.buried>
-5.0857

> <Gold.PLP.part.nonpolar>
-33.4612

> <Gold.PLP.part.repulsive>
0.2175

> <Gold.PLP.ligand.clash>
0.0000

> <Gold.PLP.ligand.torsion>
2.3288

> <Gold.PLP.Chemscore.Hbond>
2.2720

> <Gold.PLP.Chemscore.CHOScore>
1.0000

> <Gold.PLP.Chemscore.Metal>
0.0000

> <Gold.Chemscore.Hbonds>
donor molecule, donor type, donor heavy atom, donor atom, acceptor molecule, acceptor atom, score
      L1  H    21    42       P1  7957  0.69
      P1  H  7989  7998       L1    21  0.40
      P1  H 10752 10763       L1    23  0.58
      L1  C    11    36       P1  8028  0.97

> <Gold.PLP.Chemscore.Internal.Correction>
0.8018

> <Gold.Rescore>
     Score         DG    S(hbond)    S(metal)    S(lipo)     H(rot)  DE(clash)    DE(int)     intcor
      7.23     -12.77       1.85        0.00      84.53       3.43       0.08       5.45       ----

> <Gold.Chemscore.Fitness>
7.2329

> <Gold.Chemscore.DG>
-12.7707

> <Gold.Chemscore.ZeroCoef>
-5.4800

> <Gold.Chemscore.Hbond>
1.8510

> <Gold.Chemscore.Metal>
0.0000

> <Gold.Chemscore.Lipo>
84.5306

> <Gold.Chemscore.Internal_Hbond>
0.0000

> <Gold.Chemscore.DEClash>
0.0844

> <Gold.Chemscore.DEInternal>
5.4534

> <Gold.Chemscore.Rot>
3.4303

> <Gold.Chemscore.Internal.Correction>
   9.000000E+99

> <Gold.Chemscore.Hbonds>
donor molecule, donor type, donor heavy atom, donor atom, acceptor molecule, acceptor atom, score
      L1  H    21    42       P1  7957  0.70
      P1  H  7989  7998       L1    21  0.10
      P1  H 10752 10763       L1    23  0.13

> <Gold.Chemscore.Hbond.Weighted>
-6.1823

> <Gold.Chemscore.Metal.Weighted>
-0.0000

> <Gold.Chemscore.Lipo.Weighted>
-9.8901

> <Gold.Chemscore.Internal_Hbond.Weighted>
0.0000

> <Gold.Chemscore.DEClash.Weighted>
0.0844

> <Gold.Chemscore.DEInternal.Weighted>
5.4534

> <Gold.Chemscore.Rot.Weighted>
8.7817

> <Gold.Chemscore.Internal.Correction.Weighted>
   9.000000E+99

> <Gold.Protein.RotatedTorsions>
[ 6907 6896 6895 6894 ] final   35.77 input  -60.11 | X-H torsion
[ 7974 7965 7964 7962 ] final -125.70 input  175.53 | X-H torsion
[ 8008 7997 7996 7995 ] final   83.84 input   59.86 | X-H torsion
[ 10167 10162 10161 10158 ] final   15.81 input  -65.29 | X-H torsion
[ 10718 10713 10712 10709 ] final   22.29 input   66.30 | X-H torsion
[ 10763 10752 10751 10750 ] final   50.78 input  -60.55 | X-H torsion
[ 11005 11000 10999 10996 ] final   76.84 input  -57.11 | X-H torsion

> <Gold.Protein.ActiveResidues>
 VAL166  LYS551  ARG553  GLY616  TRP617  ASP618  TYR619  PRO620  LYS621  CYS622 
 ASP623  PHE694  ASN695  SER759  ASP760  ASP761  ALA762  ILE779  LEU786  VAL792 
 PHE793  MET794  SER795  GLU796  ALA797  LYS798  CYS799  TRP800  GLU811  SER814 

> <Gold.Protein.RotatedAtoms>
  152.1207  134.9207  160.0562 H   0  0  0  0  0  0  0  0  0  0  0  0  # atno 6907 bound_to 6896
  152.0349  133.3948  159.4321 H   0  0  0  0  0  0  0  0  0  0  0  0  # atno 6908 bound_to 6896
  150.6849  134.3400  159.4907 H   0  0  0  0  0  0  0  0  0  0  0  0  # atno 6909 bound_to 6896
  144.9948  140.7766  143.4532 H   0  0  0  0  0  0  0  0  0  0  0  0  # atno 7974 bound_to 7965
  155.9292  140.3416  155.6235 H   0  0  0  0  0  0  0  0  0  0  0  0  # atno 8008 bound_to 7997
  155.7178  140.0780  157.2362 H   0  0  0  0  0  0  0  0  0  0  0  0  # atno 8009 bound_to 7997
  154.4082  140.1611  156.2356 H   0  0  0  0  0  0  0  0  0  0  0  0  # atno 8010 bound_to 7997
  140.5841  143.8923  150.6815 H   0  0  0  0  0  0  0  0  0  0  0  0  # atno 10167 bound_to 10162
  157.1503  130.6671  149.6009 H   0  0  0  0  0  0  0  0  0  0  0  0  # atno 10718 bound_to 10713
  152.9784  135.5867  154.4308 H   0  0  0  0  0  0  0  0  0  0  0  0  # atno 10763 bound_to 10752
  154.3921  135.2768  155.2150 H   0  0  0  0  0  0  0  0  0  0  0  0  # atno 10764 bound_to 10752
  154.4018  135.6102  153.5956 H   0  0  0  0  0  0  0  0  0  0  0  0  # atno 10765 bound_to 10752
  139.9280  134.7634  156.1446 H   0  0  0  0  0  0  0  0  0  0  0  0  # atno 11005 bound_to 11000
  145.2235  139.2148  143.5081 LP  0  0  0  0  0  0  0  0  0  0  0  0  # atno 17320 bound_to 7965
  146.3439  140.2097  142.8590 LP  0  0  0  0  0  0  0  0  0  0  0  0  # atno 17321 bound_to 7965
  140.2430  143.3650  152.1471 LP  0  0  0  0  0  0  0  0  0  0  0  0  # atno 17342 bound_to 10162
  139.5187  144.7010  151.5494 LP  0  0  0  0  0  0  0  0  0  0  0  0  # atno 17343 bound_to 10162
  155.9772  130.4747  150.6577 LP  0  0  0  0  0  0  0  0  0  0  0  0  # atno 17370 bound_to 10713
  157.4227  131.0839  151.1115 LP  0  0  0  0  0  0  0  0  0  0  0  0  # atno 17371 bound_to 10713
  141.0851  133.6737  156.2419 LP  0  0  0  0  0  0  0  0  0  0  0  0  # atno 17394 bound_to 11000
  140.6280  134.5293  157.5556 LP  0  0  0  0  0  0  0  0  0  0  0  0  # atno 17395 bound_to 11000

$$$$
