AV-unprocessed.smi:1251|AV-procd|sdf|5259|dock4
  -GOLD-   22720 4373D 1   1.00000     0.00000
 Structure written by MMmdl.
 39 40  0  0  0  0  0  0  0  0  1 V2000
  150.7665  142.9773  158.5495 C   0  0  0  0  0  0  0  0  0  0  0  0
  150.2217  141.8268  157.6964 C   0  0  0  0  0  0  0  0  0  0  0  0
  150.5950  141.9653  156.2139 C   0  0  0  0  0  0  0  0  0  0  0  0
  150.1912  140.7762  155.4075 C   0  0  0  0  0  0  0  0  0  0  0  0
  151.0678  140.0498  154.7023 N   0  0  0  0  0  0  0  0  0  0  0  0
  150.4674  138.9788  154.0545 N   0  0  0  0  0  0  0  0  0  0  0  0
  149.1562  138.9175  154.3019 C   0  0  0  0  0  0  0  0  0  0  0  0
  148.4136  137.8687  153.7044 N   0  0  0  0  0  0  0  0  0  0  0  0
  147.1928  137.4238  154.0425 C   0  0  0  0  0  0  0  0  0  0  0  0
  146.5021  137.8690  154.9588 O   0  0  0  0  0  0  0  0  0  0  0  0
  146.8124  136.4117  153.2488 N   0  0  0  0  0  0  0  0  0  0  0  0
  145.5442  135.6882  153.3284 C   0  0  1  0  0  0  0  0  0  0  0  0
  144.4039  136.7064  153.4747 C   0  0  0  0  0  0  0  0  0  0  0  0
  145.3561  134.7911  152.0875 C   0  0  1  0  0  0  0  0  0  0  0  0
  146.4279  133.7163  151.8949 C   0  0  0  0  0  0  0  0  0  0  0  0
  145.7024  132.7166  151.0248 C   0  0  0  0  0  0  0  0  0  0  0  0
  144.2916  132.7606  151.6053 C   0  0  0  0  0  0  0  0  0  0  0  0
  144.1375  134.0567  152.1792 O   0  0  0  0  0  0  0  0  0  0  0  0
  148.5362  140.1809  155.3648 S   0  0  0  0  0  0  0  0  0  0  0  0
  150.4852  142.8522  159.5953 H   0  0  0  0  0  0  0  0  0  0  0  0
  150.3752  143.9377  158.2124 H   0  0  0  0  0  0  0  0  0  0  0  0
  151.8547  143.0224  158.5007 H   0  0  0  0  0  0  0  0  0  0  0  0
  150.6054  140.8819  158.0830 H   0  0  0  0  0  0  0  0  0  0  0  0
  149.1366  141.7850  157.7986 H   0  0  0  0  0  0  0  0  0  0  0  0
  150.1203  142.8503  155.7889 H   0  0  0  0  0  0  0  0  0  0  0  0
  151.6715  142.1091  156.1107 H   0  0  0  0  0  0  0  0  0  0  0  0
  148.8642  137.4062  152.9288 H   0  0  0  0  0  0  0  0  0  0  0  0
  147.4530  136.1135  152.5279 H   0  0  0  0  0  0  0  0  0  0  0  0
  145.5337  135.0544  154.2170 H   0  0  0  0  0  0  0  0  0  0  0  0
  143.4400  136.2068  153.5758 H   0  0  0  0  0  0  0  0  0  0  0  0
  144.3467  137.3666  152.6086 H   0  0  0  0  0  0  0  0  0  0  0  0
  144.5427  137.3280  154.3600 H   0  0  0  0  0  0  0  0  0  0  0  0
  145.3055  135.4041  151.1857 H   0  0  0  0  0  0  0  0  0  0  0  0
  147.3400  134.0987  151.4356 H   0  0  0  0  0  0  0  0  0  0  0  0
  146.6903  133.2583  152.8497 H   0  0  0  0  0  0  0  0  0  0  0  0
  145.6948  133.0599  149.9893 H   0  0  0  0  0  0  0  0  0  0  0  0
  146.1451  131.7206  151.0520 H   0  0  0  0  0  0  0  0  0  0  0  0
  143.5296  132.5685  150.8497 H   0  0  0  0  0  0  0  0  0  0  0  0
  144.1792  132.0179  152.3960 H   0  0  0  0  0  0  0  0  0  0  0  0
  1  2  1  0  0  0  0
  1 20  1  0  0  0  0
  1 21  1  0  0  0  0
  1 22  1  0  0  0  0
  2  3  1  0  0  0  0
  2 23  1  0  0  0  0
  2 24  1  0  0  0  0
  3  4  1  0  0  0  0
  3 25  1  0  0  0  0
  3 26  1  0  0  0  0
  4 19  1  0  0  0  0
  4  5  2  0  0  0  0
  5  6  1  0  0  0  0
  6  7  2  0  0  0  0
  7  8  1  0  0  0  0
  7 19  1  0  0  0  0
  8  9  1  0  0  0  0
  8 27  1  0  0  0  0
  9 10  2  0  0  0  0
  9 11  1  0  0  0  0
 11 12  1  0  0  0  0
 11 28  1  0  0  0  0
 12 13  1  0  0  0  0
 12 14  1  0  0  0  0
 12 29  1  0  0  0  0
 13 30  1  0  0  0  0
 13 31  1  0  0  0  0
 13 32  1  0  0  0  0
 14 18  1  0  0  0  0
 14 15  1  0  0  0  0
 14 33  1  0  0  0  0
 15 16  1  0  0  0  0
 15 34  1  0  0  0  0
 15 35  1  0  0  0  0
 16 17  1  0  0  0  0
 16 36  1  0  0  0  0
 16 37  1  0  0  0  0
 17 18  1  0  0  0  0
 17 38  1  0  0  0  0
 17 39  1  0  0  0  0
M  END
> <s_m_source_file>
AV-unprocessed.smi

> <i_m_source_file_index>
1251

> <i_lp_mmshare_version>
43012

> <i_f3d_flags>
0

> <s_epik_input>
W0NIM11bQ0gyXVtDSDJdYzFubmMoczEpW05IXUMoPU8pW05IXVtDQEhdKFtDSDNdKVtDQEBIXTJbQ0gyXVtDSDJdW0NIMl1PMg==

> <s_epik_cmdline>
J2VwaWtfcHl0aG9uJywgJy1waCcsICc3LjAnLCAnLXRuJywgJzgnLCAnLW1hJywgJzIwMCcsICctbWV0YWxfYmluZGluZycsICctaW1hZScsICc8aW5maWxlLm1hZT4nLCAnLW9tYWUnLCAnPG91dGZpbGUubWFlPic=

> <r_lp_tautomer_probability>
1

> <r_epik_Ionization_Penalty>
0.000503621

> <r_epik_Ionization_Penalty_Charging>
0

> <r_epik_Ionization_Penalty_Neutral>
0.000503621

> <r_epik_State_Penalty>
-0

> <r_epik_Charging_Adjusted_Penalty>
0

> <i_epik_Tot_Q>
0

> <i_epik_Tot_abs_Q>
0

> <r_epik_Metal_State_Penalty>
0.219912

> <b_epik_Metal_Only>
0

> <s_lp_Force_Field>
OPLS_2005

> <r_lp_Energy>
11.0911

> <b_lp_Chiralities_Consistent>
1

> <s_lp_Variant>
AV-unprocessed.smi:1251-4

> <Gold.Version>
5.8.1

> <Gold.Id.Protein>
6NUR|6NUR_protein|mol2

> <Gold.PLP.Fitness>
36.3147

> <Gold.PLP.PLP>
-27.8183

> <Gold.PLP.part.hbond>
-3.1435

> <Gold.PLP.part.metal>
0.0000

> <Gold.PLP.part.buried>
-3.9667

> <Gold.PLP.part.nonpolar>
-21.4222

> <Gold.PLP.part.repulsive>
0.5712

> <Gold.PLP.ligand.clash>
0.0000

> <Gold.PLP.ligand.torsion>
0.2316

> <Gold.PLP.Chemscore.Hbond>
2.9760

> <Gold.PLP.Chemscore.CHOScore>
0.0000

> <Gold.PLP.Chemscore.Metal>
0.0000

> <Gold.Chemscore.Hbonds>
donor molecule, donor type, donor heavy atom, donor atom, acceptor molecule, acceptor atom, score
      L1  H     8    27       P1  7948  1.00
      L1  H    11    28       P1  7948  0.98
      P1  H  7989  7998       L1     5  1.00

> <Gold.PLP.Chemscore.Internal.Correction>
0.0316

> <Gold.Rescore>
     Score         DG    S(hbond)    S(metal)    S(lipo)     H(rot)  DE(clash)    DE(int)     intcor
     14.33     -15.62       2.23        0.00      57.69       1.58       0.00       1.28       ----

> <Gold.Chemscore.Fitness>
14.3340

> <Gold.Chemscore.DG>
-15.6160

> <Gold.Chemscore.ZeroCoef>
-5.4800

> <Gold.Chemscore.Hbond>
2.2282

> <Gold.Chemscore.Metal>
0.0000

> <Gold.Chemscore.Lipo>
57.6898

> <Gold.Chemscore.Internal_Hbond>
0.0000

> <Gold.Chemscore.DEClash>
0.0048

> <Gold.Chemscore.DEInternal>
1.2772

> <Gold.Chemscore.Rot>
1.5843

> <Gold.Chemscore.Internal.Correction>
   9.000000E+99

> <Gold.Chemscore.Hbonds>
donor molecule, donor type, donor heavy atom, donor atom, acceptor molecule, acceptor atom, score
      L1  H     8    27       P1  7948  0.94
      L1  H    11    28       P1  7948  0.93
      P1  H  7989  7998       L1     5  0.26

> <Gold.Chemscore.Hbond.Weighted>
-7.4420

> <Gold.Chemscore.Metal.Weighted>
-0.0000

> <Gold.Chemscore.Lipo.Weighted>
-6.7497

> <Gold.Chemscore.Internal_Hbond.Weighted>
0.0000

> <Gold.Chemscore.DEClash.Weighted>
0.0048

> <Gold.Chemscore.DEInternal.Weighted>
1.2772

> <Gold.Chemscore.Rot.Weighted>
4.0558

> <Gold.Chemscore.Internal.Correction.Weighted>
   9.000000E+99

> <Gold.Protein.RotatedTorsions>
[ 6907 6896 6895 6894 ] final   31.04 input  -60.11 | X-H torsion
[ 7974 7965 7964 7962 ] final  139.17 input  175.53 | X-H torsion
[ 8008 7997 7996 7995 ] final  163.02 input   59.86 | X-H torsion
[ 10167 10162 10161 10158 ] final -152.14 input  -65.29 | X-H torsion
[ 10718 10713 10712 10709 ] final  -13.75 input   66.30 | X-H torsion
[ 10763 10752 10751 10750 ] final  -85.82 input  -60.55 | X-H torsion
[ 11005 11000 10999 10996 ] final   93.42 input  -57.11 | X-H torsion

> <Gold.Protein.ActiveResidues>
 VAL166  LYS551  ARG553  GLY616  TRP617  ASP618  TYR619  PRO620  LYS621  CYS622 
 ASP623  PHE694  ASN695  SER759  ASP760  ASP761  ALA762  ILE779  LEU786  VAL792 
 PHE793  MET794  SER795  GLU796  ALA797  LYS798  CYS799  TRP800  GLU811  SER814 

> <Gold.Protein.RotatedAtoms>
  152.0546  134.9632  160.0574 H   0  0  0  0  0  0  0  0  0  0  0  0  # atno 6907 bound_to 6896
  152.1019  133.4249  159.4599 H   0  0  0  0  0  0  0  0  0  0  0  0  # atno 6908 bound_to 6896
  150.6840  134.2669  159.4615 H   0  0  0  0  0  0  0  0  0  0  0  0  # atno 6909 bound_to 6896
  144.9304  139.5054  143.5620 H   0  0  0  0  0  0  0  0  0  0  0  0  # atno 7974 bound_to 7965
  156.1988  140.1735  156.7942 H   0  0  0  0  0  0  0  0  0  0  0  0  # atno 8008 bound_to 7997
  154.5565  140.0707  156.8782 H   0  0  0  0  0  0  0  0  0  0  0  0  # atno 8009 bound_to 7997
  155.2929  140.3356  155.4254 H   0  0  0  0  0  0  0  0  0  0  0  0  # atno 8010 bound_to 7997
  139.7207  143.8962  152.2502 H   0  0  0  0  0  0  0  0  0  0  0  0  # atno 10167 bound_to 10162
  156.6257  130.4888  149.6147 H   0  0  0  0  0  0  0  0  0  0  0  0  # atno 10718 bound_to 10713
  154.6154  135.5471  153.7518 H   0  0  0  0  0  0  0  0  0  0  0  0  # atno 10763 bound_to 10752
  153.0214  135.6400  154.1517 H   0  0  0  0  0  0  0  0  0  0  0  0  # atno 10764 bound_to 10752
  154.1453  135.2906  155.3130 H   0  0  0  0  0  0  0  0  0  0  0  0  # atno 10765 bound_to 10752
  139.8810  134.8789  156.3715 H   0  0  0  0  0  0  0  0  0  0  0  0  # atno 11005 bound_to 11000
  146.3244  139.8250  142.8919 LP  0  0  0  0  0  0  0  0  0  0  0  0  # atno 17320 bound_to 7965
  145.3151  141.0230  143.3532 LP  0  0  0  0  0  0  0  0  0  0  0  0  # atno 17321 bound_to 7965
  139.8857  144.6993  150.8827 LP  0  0  0  0  0  0  0  0  0  0  0  0  # atno 17342 bound_to 10162
  140.7753  143.3626  151.1800 LP  0  0  0  0  0  0  0  0  0  0  0  0  # atno 17343 bound_to 10162
  156.2275  130.6774  151.1430 LP  0  0  0  0  0  0  0  0  0  0  0  0  # atno 17370 bound_to 10713
  157.7214  131.0678  150.6117 LP  0  0  0  0  0  0  0  0  0  0  0  0  # atno 17371 bound_to 10713
  140.9461  133.7482  156.0209 LP  0  0  0  0  0  0  0  0  0  0  0  0  # atno 17394 bound_to 11000
  140.8162  134.3342  157.5396 LP  0  0  0  0  0  0  0  0  0  0  0  0  # atno 17395 bound_to 11000

$$$$
