AV-unprocessed.smi:1703|AV-procd|sdf|6868|dock6
  -GOLD-   22720 8 63D 1   1.00000     0.00000
 Structure written by MMmdl.
 49 51  0  0  0  0  0  0  0  0  2 V2000
  154.8233  136.5492  163.2350 C   0  0  0  0  0  0  0  0  0  0  0  0
  154.4473  137.6893  162.2829 C   0  0  2  0  0  0  0  0  0  0  0  0
  153.4964  137.2244  161.1629 C   0  0  0  0  0  0  0  0  0  0  0  0
  153.1906  138.2968  160.2201 N   0  0  0  0  0  0  0  0  0  0  0  0
  152.2736  137.8314  159.1753 C   0  0  0  0  0  0  0  0  0  0  0  0
  151.3615  138.9056  158.5411 C   0  0  2  0  0  0  0  0  0  0  0  0
  150.2077  138.2334  158.0746 O   0  0  0  0  0  0  0  0  0  0  0  0
  151.9793  139.6980  157.3672 C   0  0  0  0  0  0  0  0  0  0  0  0
  151.4667  141.0735  157.2598 N   0  0  0  0  0  0  0  0  0  0  0  0
  150.5182  141.6028  156.4341 C   0  0  0  0  0  0  0  0  0  0  0  0
  149.7326  140.8666  155.3955 C   0  0  0  0  0  0  0  0  0  0  0  0
  150.5426  140.2232  154.4343 O   0  0  0  0  0  0  0  0  0  0  0  0
  150.4199  142.9294  156.7365 N   0  3  0  0  0  0  0  0  0  0  0  0
  151.3124  143.2507  157.7598 C   0  0  0  0  0  0  0  0  0  0  0  0
  151.5728  144.4594  158.3981 C   0  0  0  0  0  0  0  0  0  0  0  0
  152.5550  144.4417  159.4105 C   0  0  0  0  0  0  0  0  0  0  0  0
  153.2359  143.2551  159.7527 C   0  0  0  0  0  0  0  0  0  0  0  0
  152.9636  142.0356  159.0980 C   0  0  0  0  0  0  0  0  0  0  0  0
  151.9901  142.0625  158.0996 C   0  0  0  0  0  0  0  0  0  0  0  0
  154.4558  138.7926  159.6792 C   0  0  0  0  0  0  0  0  0  0  0  0
  155.4128  139.2689  160.7887 C   0  0  2  0  0  0  0  0  0  0  0  0
  156.7652  139.7245  160.2305 C   0  0  0  0  0  0  0  0  0  0  0  0
  155.6426  138.1961  161.6970 O   0  0  0  0  0  0  0  0  0  0  0  0
  153.9385  136.1332  163.7172 H   0  0  0  0  0  0  0  0  0  0  0  0
  155.4943  136.9020  164.0187 H   0  0  0  0  0  0  0  0  0  0  0  0
  155.3271  135.7414  162.7036 H   0  0  0  0  0  0  0  0  0  0  0  0
  153.9715  138.4847  162.8595 H   0  0  0  0  0  0  0  0  0  0  0  0
  153.9424  136.3816  160.6317 H   0  0  0  0  0  0  0  0  0  0  0  0
  152.5738  136.8549  161.6128 H   0  0  0  0  0  0  0  0  0  0  0  0
  152.8198  137.2858  158.4042 H   0  0  0  0  0  0  0  0  0  0  0  0
  151.6022  137.0948  159.6203 H   0  0  0  0  0  0  0  0  0  0  0  0
  151.0341  139.5969  159.3181 H   0  0  0  0  0  0  0  0  0  0  0  0
  150.0000  138.5596  157.2124 H   0  0  0  0  0  0  0  0  0  0  0  0
  153.0610  139.7689  157.4643 H   0  0  0  0  0  0  0  0  0  0  0  0
  151.7785  139.1938  156.4214 H   0  0  0  0  0  0  0  0  0  0  0  0
  149.1047  140.1212  155.8843 H   0  0  0  0  0  0  0  0  0  0  0  0
  149.0695  141.5659  154.8857 H   0  0  0  0  0  0  0  0  0  0  0  0
  150.3318  139.3015  154.4331 H   0  0  0  0  0  0  0  0  0  0  0  0
  151.0534  145.3700  158.1373 H   0  0  0  0  0  0  0  0  0  0  0  0
  152.7912  145.3564  159.9347 H   0  0  0  0  0  0  0  0  0  0  0  0
  153.9825  143.2803  160.5333 H   0  0  0  0  0  0  0  0  0  0  0  0
  153.4902  141.1320  159.3673 H   0  0  0  0  0  0  0  0  0  0  0  0
  154.9407  138.0054  159.0998 H   0  0  0  0  0  0  0  0  0  0  0  0
  154.2915  139.6162  158.9921 H   0  0  0  0  0  0  0  0  0  0  0  0
  154.9588  140.1008  161.3300 H   0  0  0  0  0  0  0  0  0  0  0  0
  156.6426  140.5514  159.5306 H   0  0  0  0  0  0  0  0  0  0  0  0
  157.2691  138.9124  159.7054 H   0  0  0  0  0  0  0  0  0  0  0  0
  157.4231  140.0618  161.0317 H   0  0  0  0  0  0  0  0  0  0  0  0
  149.7842  143.5641  156.2701 H   0  0  0  0  0  0  0  0  0  0  0  0
  1  2  1  0  0  0  0
  1 24  1  0  0  0  0
  1 25  1  0  0  0  0
  1 26  1  0  0  0  0
  2 23  1  0  0  0  0
  2  3  1  0  0  0  0
  2 27  1  0  0  0  0
  3  4  1  0  0  0  0
  3 28  1  0  0  0  0
  3 29  1  0  0  0  0
  4  5  1  0  0  0  0
  4 20  1  0  0  0  0
  5  6  1  0  0  0  0
  5 30  1  0  0  0  0
  5 31  1  0  0  0  0
  6  7  1  0  0  0  0
  6  8  1  0  0  0  0
  6 32  1  0  0  0  0
  7 33  1  0  0  0  0
  8  9  1  0  0  0  0
  8 34  1  0  0  0  0
  8 35  1  0  0  0  0
  9 19  1  0  0  0  0
  9 10  1  0  0  0  0
 10 11  1  0  0  0  0
 10 13  2  0  0  0  0
 11 12  1  0  0  0  0
 11 36  1  0  0  0  0
 11 37  1  0  0  0  0
 12 38  1  0  0  0  0
 13 14  1  0  0  0  0
 13 49  1  0  0  0  0
 14 19  2  0  0  0  0
 14 15  1  0  0  0  0
 15 16  2  0  0  0  0
 15 39  1  0  0  0  0
 16 17  1  0  0  0  0
 16 40  1  0  0  0  0
 17 18  2  0  0  0  0
 17 41  1  0  0  0  0
 18 19  1  0  0  0  0
 18 42  1  0  0  0  0
 20 21  1  0  0  0  0
 20 43  1  0  0  0  0
 20 44  1  0  0  0  0
 21 22  1  0  0  0  0
 21 23  1  0  0  0  0
 21 45  1  0  0  0  0
 22 46  1  0  0  0  0
 22 47  1  0  0  0  0
 22 48  1  0  0  0  0
M  CHG  1  13   1
M  END
> <s_m_source_file>
AV-unprocessed.smi

> <i_m_source_file_index>
1703

> <i_lp_mmshare_version>
43012

> <i_f3d_flags>
0

> <s_epik_input>
W0NIM11bQ0BASF0xW0NIMl1OKFtDSDJdW0NASF0oTzEpW0NIM10pW0NIMl1bQ0BIXShbT0hdKVtDSDJdbihjKG4yKVtDSDJdW09IXSljKGMyMylbY0hdW2NIXVtjSF1bY0hdMw==

> <s_epik_cmdline>
J2VwaWtfcHl0aG9uJywgJy1waCcsICc3LjAnLCAnLXRuJywgJzgnLCAnLW1hJywgJzIwMCcsICctbWV0YWxfYmluZGluZycsICctaW1hZScsICc8aW5maWxlLm1hZT4nLCAnLW9tYWUnLCAnPG91dGZpbGUubWFlPic=

> <r_epik_Ionization_Penalty>
1.7682

> <r_epik_Ionization_Penalty_Charging>
1.55298

> <r_epik_Ionization_Penalty_Neutral>
0.215215

> <r_epik_State_Penalty>
1.83821

> <r_epik_Charging_Adjusted_Penalty>
3.39119

> <i_epik_Tot_Q>
1

> <i_epik_Tot_abs_Q>
1

> <r_epik_Metal_State_Penalty>
5.89206

> <b_epik_Metal_Only>
0

> <s_lp_Force_Field>
OPLS_2005

> <r_lp_Energy>
30.4523

> <b_lp_Chiralities_Consistent>
1

> <s_lp_Variant>
AV-unprocessed.smi:1703-16

> <Gold.Version>
5.8.1

> <Gold.Id.Protein>
6NUR|6NUR_protein|mol2

> <Gold.PLP.Fitness>
51.7522

> <Gold.PLP.PLP>
-45.2914

> <Gold.PLP.part.hbond>
-1.9303

> <Gold.PLP.part.metal>
0.0000

> <Gold.PLP.part.buried>
-6.7659

> <Gold.PLP.part.nonpolar>
-37.8698

> <Gold.PLP.part.repulsive>
0.0537

> <Gold.PLP.ligand.clash>
0.0000

> <Gold.PLP.ligand.torsion>
1.2930

> <Gold.PLP.Chemscore.Hbond>
2.9913

> <Gold.PLP.Chemscore.CHOScore>
0.0000

> <Gold.PLP.Chemscore.Metal>
0.0000

> <Gold.Chemscore.Hbonds>
donor molecule, donor type, donor heavy atom, donor atom, acceptor molecule, acceptor atom, score
      L1  H    13    49       P1  8028  2.00
      P1  H  7989  7998       L1    12  1.00

> <Gold.PLP.Chemscore.Internal.Correction>
0.0731

> <Gold.Rescore>
     Score         DG    S(hbond)    S(metal)    S(lipo)     H(rot)  DE(clash)    DE(int)     intcor
     18.48     -19.94       1.99        0.00     131.54       2.96       0.14       1.32       ----

> <Gold.Chemscore.Fitness>
18.4794

> <Gold.Chemscore.DG>
-19.9363

> <Gold.Chemscore.ZeroCoef>
-5.4800

> <Gold.Chemscore.Hbond>
1.9856

> <Gold.Chemscore.Metal>
0.0000

> <Gold.Chemscore.Lipo>
131.5429

> <Gold.Chemscore.Internal_Hbond>
0.0000

> <Gold.Chemscore.DEClash>
0.1368

> <Gold.Chemscore.DEInternal>
1.3201

> <Gold.Chemscore.Rot>
2.9555

> <Gold.Chemscore.Internal.Correction>
   9.000000E+99

> <Gold.Chemscore.Hbonds>
donor molecule, donor type, donor heavy atom, donor atom, acceptor molecule, acceptor atom, score
      L1  H    13    49       P1  8028  0.98
      P1  H  7989  7998       L1    12  0.96

> <Gold.Chemscore.Hbond.Weighted>
-6.6318

> <Gold.Chemscore.Metal.Weighted>
-0.0000

> <Gold.Chemscore.Lipo.Weighted>
-15.3905

> <Gold.Chemscore.Internal_Hbond.Weighted>
0.0000

> <Gold.Chemscore.DEClash.Weighted>
0.1368

> <Gold.Chemscore.DEInternal.Weighted>
1.3201

> <Gold.Chemscore.Rot.Weighted>
7.5660

> <Gold.Chemscore.Internal.Correction.Weighted>
   9.000000E+99

> <Gold.Protein.RotatedTorsions>
[ 6907 6896 6895 6894 ] final   23.10 input  -60.11 | X-H torsion
[ 7974 7965 7964 7962 ] final  112.75 input  175.53 | X-H torsion
[ 8008 7997 7996 7995 ] final    6.14 input   59.86 | X-H torsion
[ 10167 10162 10161 10158 ] final  150.96 input  -65.29 | X-H torsion
[ 10718 10713 10712 10709 ] final -116.93 input   66.30 | X-H torsion
[ 10763 10752 10751 10750 ] final  148.63 input  -60.55 | X-H torsion
[ 11005 11000 10999 10996 ] final   -1.82 input  -57.11 | X-H torsion

> <Gold.Protein.ActiveResidues>
 VAL166  LYS551  ARG553  GLY616  TRP617  ASP618  TYR619  PRO620  LYS621  CYS622 
 ASP623  PHE694  ASN695  SER759  ASP760  ASP761  ALA762  ILE779  LEU786  VAL792 
 PHE793  MET794  SER795  GLU796  ALA797  LYS798  CYS799  TRP800  GLU811  SER814 

> <Gold.Protein.RotatedAtoms>
  151.9373  135.0229  160.0533 H   0  0  0  0  0  0  0  0  0  0  0  0  # atno 6907 bound_to 6896
  152.2067  133.4876  159.5096 H   0  0  0  0  0  0  0  0  0  0  0  0  # atno 6908 bound_to 6896
  150.6967  134.1437  159.4157 H   0  0  0  0  0  0  0  0  0  0  0  0  # atno 6909 bound_to 6896
  145.2256  139.2842  143.4195 H   0  0  0  0  0  0  0  0  0  0  0  0  # atno 7974 bound_to 7965
  154.7373  140.2742  155.6404 H   0  0  0  0  0  0  0  0  0  0  0  0  # atno 8008 bound_to 7997
  156.2865  140.2704  156.2016 H   0  0  0  0  0  0  0  0  0  0  0  0  # atno 8009 bound_to 7997
  155.0304  140.0371  157.2461 H   0  0  0  0  0  0  0  0  0  0  0  0  # atno 8010 bound_to 7997
  139.4845  144.5480  151.7450 H   0  0  0  0  0  0  0  0  0  0  0  0  # atno 10167 bound_to 10162
  156.0998  130.6163  150.9099 H   0  0  0  0  0  0  0  0  0  0  0  0  # atno 10718 bound_to 10713
  154.0579  135.2876  155.3329 H   0  0  0  0  0  0  0  0  0  0  0  0  # atno 10763 bound_to 10752
  154.6827  135.5257  153.8288 H   0  0  0  0  0  0  0  0  0  0  0  0  # atno 10764 bound_to 10752
  153.0534  135.6585  154.0770 H   0  0  0  0  0  0  0  0  0  0  0  0  # atno 10765 bound_to 10752
  140.6516  133.9400  155.8383 H   0  0  0  0  0  0  0  0  0  0  0  0  # atno 11005 bound_to 11000
  146.3365  140.2576  142.8601 LP  0  0  0  0  0  0  0  0  0  0  0  0  # atno 17320 bound_to 7965
  144.9724  140.8381  143.5447 LP  0  0  0  0  0  0  0  0  0  0  0  0  # atno 17321 bound_to 7965
  140.5029  144.1141  150.5975 LP  0  0  0  0  0  0  0  0  0  0  0  0  # atno 17342 bound_to 10162
  140.4040  143.2689  151.9913 LP  0  0  0  0  0  0  0  0  0  0  0  0  # atno 17343 bound_to 10162
  157.6166  131.0933  150.8699 LP  0  0  0  0  0  0  0  0  0  0  0  0  # atno 17370 bound_to 10713
  156.8829  130.5185  149.5290 LP  0  0  0  0  0  0  0  0  0  0  0  0  # atno 17371 bound_to 10713
  141.0532  134.0454  157.3756 LP  0  0  0  0  0  0  0  0  0  0  0  0  # atno 17394 bound_to 11000
  139.9044  135.0175  156.7418 LP  0  0  0  0  0  0  0  0  0  0  0  0  # atno 17395 bound_to 11000

$$$$
