AV-unprocessed.smi:3266|AV-procd|sdf|12500|dock7
  -GOLD-   2272018403D 1   1.00000     0.00000
 Structure written by MMmdl.
 38 39  0  0  0  0  0  0  0  0  1 V2000
  155.2895  139.6774  158.9152 O   0  0  0  0  0  0  0  0  0  0  0  0
  155.1394  139.2715  160.0679 C   0  0  0  0  0  0  0  0  0  0  0  0
  155.7032  137.9115  160.4836 C   0  0  0  0  0  0  0  0  0  0  0  0
  155.9368  137.8198  162.0022 C   0  0  0  0  0  0  0  0  0  0  0  0
  154.6717  137.4155  162.7727 C   0  0  2  0  0  0  0  0  0  0  0  0
  154.8365  137.4516  164.2908 C   0  0  0  0  0  0  0  0  0  0  0  0
  153.7597  136.4881  164.7343 C   0  0  0  0  0  0  0  0  0  0  0  0
  153.8379  135.4133  163.6532 C   0  0  0  0  0  0  0  0  0  0  0  0
  154.3049  136.0700  162.4770 O   0  0  0  0  0  0  0  0  0  0  0  0
  154.5067  139.9727  161.0222 N   0  0  0  0  0  0  0  0  0  0  0  0
  153.9658  141.3212  160.8673 C   0  0  0  0  0  0  0  0  0  0  0  0
  152.7805  141.3643  159.8827 C   0  0  0  0  0  0  0  0  0  0  0  0
  152.2524  142.7652  159.6229 C   0  0  0  0  0  0  0  0  0  0  0  0
  152.2479  143.7367  160.6474 C   0  0  0  0  0  0  0  0  0  0  0  0
  151.7812  145.0299  160.3434 C   0  0  0  0  0  0  0  0  0  0  0  0
  151.3346  145.2995  159.0356 C   0  0  0  0  0  0  0  0  0  0  0  0
  151.3744  144.2590  158.0859 C   0  0  0  0  0  0  0  0  0  0  0  0
  151.8208  143.0157  158.3664 N   0  0  0  0  0  0  0  0  0  0  0  0
  155.0212  137.1202  160.1688 H   0  0  0  0  0  0  0  0  0  0  0  0
  156.6393  137.7485  159.9488 H   0  0  0  0  0  0  0  0  0  0  0  0
  156.7340  137.1061  162.2161 H   0  0  0  0  0  0  0  0  0  0  0  0
  156.2824  138.7863  162.3726 H   0  0  0  0  0  0  0  0  0  0  0  0
  153.8374  138.0607  162.4921 H   0  0  0  0  0  0  0  0  0  0  0  0
  155.8175  137.0735  164.5827 H   0  0  0  0  0  0  0  0  0  0  0  0
  154.7166  138.4516  164.7084 H   0  0  0  0  0  0  0  0  0  0  0  0
  153.9194  136.0958  165.7390 H   0  0  0  0  0  0  0  0  0  0  0  0
  152.7855  136.9786  164.7082 H   0  0  0  0  0  0  0  0  0  0  0  0
  154.5618  134.6458  163.9297 H   0  0  0  0  0  0  0  0  0  0  0  0
  152.8773  134.9267  163.4830 H   0  0  0  0  0  0  0  0  0  0  0  0
  154.4259  139.5543  161.9377 H   0  0  0  0  0  0  0  0  0  0  0  0
  153.6666  141.7319  161.8331 H   0  0  0  0  0  0  0  0  0  0  0  0
  154.7653  141.9648  160.5003 H   0  0  0  0  0  0  0  0  0  0  0  0
  153.0801  140.9209  158.9323 H   0  0  0  0  0  0  0  0  0  0  0  0
  151.9681  140.7424  160.2607 H   0  0  0  0  0  0  0  0  0  0  0  0
  152.6064  143.5016  161.6387 H   0  0  0  0  0  0  0  0  0  0  0  0
  151.7691  145.8018  161.0985 H   0  0  0  0  0  0  0  0  0  0  0  0
  150.9710  146.2799  158.7662 H   0  0  0  0  0  0  0  0  0  0  0  0
  151.0396  144.4302  157.0734 H   0  0  0  0  0  0  0  0  0  0  0  0
  1  2  2  0  0  0  0
  2  3  1  0  0  0  0
  2 10  1  0  0  0  0
  3  4  1  0  0  0  0
  3 19  1  0  0  0  0
  3 20  1  0  0  0  0
  4  5  1  0  0  0  0
  4 21  1  0  0  0  0
  4 22  1  0  0  0  0
  5  9  1  0  0  0  0
  5  6  1  0  0  0  0
  5 23  1  0  0  0  0
  6  7  1  0  0  0  0
  6 24  1  0  0  0  0
  6 25  1  0  0  0  0
  7  8  1  0  0  0  0
  7 26  1  0  0  0  0
  7 27  1  0  0  0  0
  8  9  1  0  0  0  0
  8 28  1  0  0  0  0
  8 29  1  0  0  0  0
 10 11  1  0  0  0  0
 10 30  1  0  0  0  0
 11 12  1  0  0  0  0
 11 31  1  0  0  0  0
 11 32  1  0  0  0  0
 12 13  1  0  0  0  0
 12 33  1  0  0  0  0
 12 34  1  0  0  0  0
 13 18  1  0  0  0  0
 13 14  2  0  0  0  0
 14 15  1  0  0  0  0
 14 35  1  0  0  0  0
 15 16  2  0  0  0  0
 15 36  1  0  0  0  0
 16 17  1  0  0  0  0
 16 37  1  0  0  0  0
 17 18  2  0  0  0  0
 17 38  1  0  0  0  0
M  END
> <s_m_source_file>
AV-unprocessed.smi

> <i_m_source_file_index>
3266

> <i_lp_mmshare_version>
43012

> <i_f3d_flags>
0

> <s_epik_input>
TzFbQ0gyXVtDSDJdW0NIMl1bQ0BIXTFbQ0gyXVtDSDJdQyg9TylbTkhdW0NIMl1bQ0gyXWMyW2NIXVtjSF1bY0hdW2NIXW4y

> <s_epik_cmdline>
J2VwaWtfcHl0aG9uJywgJy1waCcsICc3LjAnLCAnLXRuJywgJzgnLCAnLW1hJywgJzIwMCcsICctbWV0YWxfYmluZGluZycsICctaW1hZScsICc8aW5maWxlLm1hZT4nLCAnLW9tYWUnLCAnPG91dGZpbGUubWFlPic=

> <r_epik_Ionization_Penalty>
0.0267142

> <r_epik_Ionization_Penalty_Charging>
0

> <r_epik_Ionization_Penalty_Neutral>
0.0267142

> <r_epik_State_Penalty>
0.0218233

> <r_epik_Charging_Adjusted_Penalty>
0.0218233

> <i_epik_Tot_Q>
0

> <i_epik_Tot_abs_Q>
0

> <r_epik_Metal_State_Penalty>
0.0208786

> <b_epik_Metal_Only>
0

> <s_lp_Force_Field>
OPLS_2005

> <r_lp_Energy>
16.3587

> <b_lp_Chiralities_Consistent>
1

> <s_lp_Variant>
AV-unprocessed.smi:3266-1

> <Gold.Version>
5.8.1

> <Gold.Id.Protein>
6NUR|6NUR_protein|mol2

> <Gold.PLP.Fitness>
44.5473

> <Gold.PLP.PLP>
-40.1904

> <Gold.PLP.part.hbond>
-1.0000

> <Gold.PLP.part.metal>
0.0000

> <Gold.PLP.part.buried>
-2.5187

> <Gold.PLP.part.nonpolar>
-37.1281

> <Gold.PLP.part.repulsive>
0.0511

> <Gold.PLP.ligand.clash>
0.0000

> <Gold.PLP.ligand.torsion>
0.8603

> <Gold.PLP.Chemscore.Hbond>
1.0000

> <Gold.PLP.Chemscore.CHOScore>
1.0000

> <Gold.PLP.Chemscore.Metal>
0.0000

> <Gold.Chemscore.Hbonds>
donor molecule, donor type, donor heavy atom, donor atom, acceptor molecule, acceptor atom, score
      P1  H  7997  8010       L1     1  1.00
      L1  C    17    38       P1  8028  0.93

> <Gold.PLP.Chemscore.Internal.Correction>
0.0775

> <Gold.Rescore>
     Score         DG    S(hbond)    S(metal)    S(lipo)     H(rot)  DE(clash)    DE(int)     intcor
     17.76     -18.62       1.00        0.00     121.26       1.71       0.09       0.76       ----

> <Gold.Chemscore.Fitness>
17.7620

> <Gold.Chemscore.DG>
-18.6152

> <Gold.Chemscore.ZeroCoef>
-5.4800

> <Gold.Chemscore.Hbond>
0.9976

> <Gold.Chemscore.Metal>
0.0000

> <Gold.Chemscore.Lipo>
121.2648

> <Gold.Chemscore.Internal_Hbond>
0.0000

> <Gold.Chemscore.DEClash>
0.0899

> <Gold.Chemscore.DEInternal>
0.7633

> <Gold.Chemscore.Rot>
1.7127

> <Gold.Chemscore.Internal.Correction>
   9.000000E+99

> <Gold.Chemscore.Hbonds>
donor molecule, donor type, donor heavy atom, donor atom, acceptor molecule, acceptor atom, score
      P1  H  7997  8010       L1     1  0.98

> <Gold.Chemscore.Hbond.Weighted>
-3.3318

> <Gold.Chemscore.Metal.Weighted>
-0.0000

> <Gold.Chemscore.Lipo.Weighted>
-14.1880

> <Gold.Chemscore.Internal_Hbond.Weighted>
0.0000

> <Gold.Chemscore.DEClash.Weighted>
0.0899

> <Gold.Chemscore.DEInternal.Weighted>
0.7633

> <Gold.Chemscore.Rot.Weighted>
4.3846

> <Gold.Chemscore.Internal.Correction.Weighted>
   9.000000E+99

> <Gold.Protein.RotatedTorsions>
[ 6907 6896 6895 6894 ] final   57.67 input  -60.11 | X-H torsion
[ 7974 7965 7964 7962 ] final  135.85 input  175.53 | X-H torsion
[ 8008 7997 7996 7995 ] final  -22.77 input   59.86 | X-H torsion
[ 10167 10162 10161 10158 ] final  133.14 input  -65.29 | X-H torsion
[ 10718 10713 10712 10709 ] final  -84.66 input   66.30 | X-H torsion
[ 10763 10752 10751 10750 ] final -106.04 input  -60.55 | X-H torsion
[ 11005 11000 10999 10996 ] final  125.88 input  -57.11 | X-H torsion

> <Gold.Protein.ActiveResidues>
 VAL166  LYS551  ARG553  GLY616  TRP617  ASP618  TYR619  PRO620  LYS621  CYS622 
 ASP623  PHE694  ASN695  SER759  ASP760  ASP761  ALA762  ILE779  LEU786  VAL792 
 PHE793  MET794  SER795  GLU796  ALA797  LYS798  CYS799  TRP800  GLU811  SER814 

> <Gold.Protein.RotatedAtoms>
  152.3753  134.6672  160.0161 H   0  0  0  0  0  0  0  0  0  0  0  0  # atno 6907 bound_to 6896
  151.6953  133.3305  159.3261 H   0  0  0  0  0  0  0  0  0  0  0  0  # atno 6908 bound_to 6896
  150.7705  134.6599  159.6378 H   0  0  0  0  0  0  0  0  0  0  0  0  # atno 6909 bound_to 6896
  144.9623  139.4697  143.5473 H   0  0  0  0  0  0  0  0  0  0  0  0  # atno 7974 bound_to 7965
  154.4624  140.1999  156.0208 H   0  0  0  0  0  0  0  0  0  0  0  0  # atno 8008 bound_to 7997
  156.0865  140.3264  155.7732 H   0  0  0  0  0  0  0  0  0  0  0  0  # atno 8009 bound_to 7997
  155.5026  140.0555  157.2927 H   0  0  0  0  0  0  0  0  0  0  0  0  # atno 8010 bound_to 7997
  139.5310  144.6630  151.4952 H   0  0  0  0  0  0  0  0  0  0  0  0  # atno 10167 bound_to 10162
  156.0004  130.4705  150.4444 H   0  0  0  0  0  0  0  0  0  0  0  0  # atno 10718 bound_to 10713
  154.7987  135.4726  154.0222 H   0  0  0  0  0  0  0  0  0  0  0  0  # atno 10763 bound_to 10752
  153.1745  135.6830  153.8569 H   0  0  0  0  0  0  0  0  0  0  0  0  # atno 10764 bound_to 10752
  153.8141  135.3213  155.3381 H   0  0  0  0  0  0  0  0  0  0  0  0  # atno 10765 bound_to 10752
  139.9428  134.9633  156.8624 H   0  0  0  0  0  0  0  0  0  0  0  0  # atno 11005 bound_to 11000
  146.3357  139.8780  142.8829 LP  0  0  0  0  0  0  0  0  0  0  0  0  # atno 17320 bound_to 7965
  145.2682  141.0100  143.3787 LP  0  0  0  0  0  0  0  0  0  0  0  0  # atno 17321 bound_to 7965
  140.6487  143.8741  150.6763 LP  0  0  0  0  0  0  0  0  0  0  0  0  # atno 17342 bound_to 10162
  140.2099  143.3892  152.1726 LP  0  0  0  0  0  0  0  0  0  0  0  0  # atno 17343 bound_to 10162
  157.2482  131.0540  151.2395 LP  0  0  0  0  0  0  0  0  0  0  0  0  # atno 17370 bound_to 10713
  157.3554  130.7103  149.6467 LP  0  0  0  0  0  0  0  0  0  0  0  0  # atno 17371 bound_to 10713
  140.5909  134.0263  155.7499 LP  0  0  0  0  0  0  0  0  0  0  0  0  # atno 17394 bound_to 11000
  141.1068  133.9680  157.2981 LP  0  0  0  0  0  0  0  0  0  0  0  0  # atno 17395 bound_to 11000

$$$$
