AV-unprocessed.smi:3336|AV-procd|sdf|12860|dock6
  -GOLD-   2272019253D 1   1.00000     0.00000
 Structure written by MMmdl.
 41 42  0  0  0  0  0  0  0  0  1 V2000
  151.7840  139.9557  159.9016 C   0  0  0  0  0  0  0  0  0  0  0  0
  153.0982  140.7455  159.7929 C   0  0  1  0  0  0  0  0  0  0  0  0
  153.1682  141.9253  160.7966 C   0  0  0  0  0  0  0  0  0  0  0  0
  152.4448  143.1128  160.3699 N   0  0  0  0  0  0  0  0  0  0  0  0
  151.9789  143.4275  159.1102 C   0  0  0  0  0  0  0  0  0  0  0  0
  151.3697  144.6467  159.1937 C   0  0  0  0  0  0  0  0  0  0  0  0
  151.5203  145.0064  160.5620 C   0  0  0  0  0  0  0  0  0  0  0  0
  152.1685  144.0896  161.2617 N   0  0  0  0  0  0  0  0  0  0  0  0
  154.1926  139.7837  159.9576 N   0  0  0  0  0  0  0  0  0  0  0  0
  154.0189  138.4568  159.3291 C   0  0  1  0  0  0  0  0  0  0  0  0
  155.2255  138.1670  158.4224 C   0  0  0  0  0  0  0  0  0  0  0  0
  153.8290  137.3025  160.3412 C   0  0  0  0  0  0  0  0  0  0  0  0
  152.7786  136.6591  160.2932 O   0  0  0  0  0  0  0  0  0  0  0  0
  154.7946  137.0225  161.2531 N   0  0  0  0  0  0  0  0  0  0  0  0
  156.0101  137.8013  161.5225 C   0  0  0  0  0  0  0  0  0  0  0  0
  155.9347  138.3451  162.9611 C   0  0  0  0  0  0  0  0  0  0  0  0
  155.7835  137.2676  163.8807 O   0  0  0  0  0  0  0  0  0  0  0  0
  154.6198  136.4851  163.6302 C   0  0  0  0  0  0  0  0  0  0  0  0
  154.6856  135.9108  162.2047 C   0  0  0  0  0  0  0  0  0  0  0  0
  150.9223  140.6154  159.7975 H   0  0  0  0  0  0  0  0  0  0  0  0
  151.6955  139.4423  160.8597 H   0  0  0  0  0  0  0  0  0  0  0  0
  151.7135  139.2015  159.1171 H   0  0  0  0  0  0  0  0  0  0  0  0
  153.1287  141.1616  158.7865 H   0  0  0  0  0  0  0  0  0  0  0  0
  152.8171  141.6309  161.7858 H   0  0  0  0  0  0  0  0  0  0  0  0
  154.2117  142.2091  160.9380 H   0  0  0  0  0  0  0  0  0  0  0  0
  152.1161  142.7629  158.2699 H   0  0  0  0  0  0  0  0  0  0  0  0
  150.8903  145.1978  158.3985 H   0  0  0  0  0  0  0  0  0  0  0  0
  151.1824  145.9013  161.0637 H   0  0  0  0  0  0  0  0  0  0  0  0
  154.4094  139.6919  160.9399 H   0  0  0  0  0  0  0  0  0  0  0  0
  153.1420  138.5333  158.6932 H   0  0  0  0  0  0  0  0  0  0  0  0
  155.1167  137.2171  157.8985 H   0  0  0  0  0  0  0  0  0  0  0  0
  156.1542  138.1263  158.9932 H   0  0  0  0  0  0  0  0  0  0  0  0
  155.3371  138.9427  157.6641 H   0  0  0  0  0  0  0  0  0  0  0  0
  156.8824  137.1561  161.4090 H   0  0  0  0  0  0  0  0  0  0  0  0
  156.1693  138.6400  160.8503 H   0  0  0  0  0  0  0  0  0  0  0  0
  156.8455  138.8915  163.2057 H   0  0  0  0  0  0  0  0  0  0  0  0
  155.1040  139.0447  163.0679 H   0  0  0  0  0  0  0  0  0  0  0  0
  154.5739  135.6778  164.3613 H   0  0  0  0  0  0  0  0  0  0  0  0
  153.7230  137.0918  163.7651 H   0  0  0  0  0  0  0  0  0  0  0  0
  153.8180  135.2749  162.0255 H   0  0  0  0  0  0  0  0  0  0  0  0
  155.5572  135.2624  162.1018 H   0  0  0  0  0  0  0  0  0  0  0  0
  1  2  1  0  0  0  0
  1 20  1  0  0  0  0
  1 21  1  0  0  0  0
  1 22  1  0  0  0  0
  2  3  1  0  0  0  0
  2  9  1  0  0  0  0
  2 23  1  0  0  0  0
  3  4  1  0  0  0  0
  3 24  1  0  0  0  0
  3 25  1  0  0  0  0
  4  8  1  0  0  0  0
  4  5  1  0  0  0  0
  5  6  2  0  0  0  0
  5 26  1  0  0  0  0
  6  7  1  0  0  0  0
  6 27  1  0  0  0  0
  7  8  2  0  0  0  0
  7 28  1  0  0  0  0
  9 10  1  0  0  0  0
  9 29  1  0  0  0  0
 10 11  1  0  0  0  0
 10 12  1  0  0  0  0
 10 30  1  0  0  0  0
 11 31  1  0  0  0  0
 11 32  1  0  0  0  0
 11 33  1  0  0  0  0
 12 13  2  0  0  0  0
 12 14  1  0  0  0  0
 14 19  1  0  0  0  0
 14 15  1  0  0  0  0
 15 16  1  0  0  0  0
 15 34  1  0  0  0  0
 15 35  1  0  0  0  0
 16 17  1  0  0  0  0
 16 36  1  0  0  0  0
 16 37  1  0  0  0  0
 17 18  1  0  0  0  0
 18 19  1  0  0  0  0
 18 38  1  0  0  0  0
 18 39  1  0  0  0  0
 19 40  1  0  0  0  0
 19 41  1  0  0  0  0
M  END
> <s_m_source_file>
AV-unprocessed.smi

> <i_m_source_file_index>
3336

> <i_lp_mmshare_version>
43012

> <i_f3d_flags>
0

> <s_epik_input>
bjFbY0hdW2NIXVtjSF1uMVtDSDJdW0NAQEhdKFtDSDNdKVtOSF1bQ0BIXShbQ0gzXSlDKD1PKU4yW0NIMl1bQ0gyXU9bQ0gyXVtDSDJdMg==

> <s_epik_cmdline>
J2VwaWtfcHl0aG9uJywgJy1waCcsICc3LjAnLCAnLXRuJywgJzgnLCAnLW1hJywgJzIwMCcsICctbWV0YWxfYmluZGluZycsICctaW1hZScsICc8aW5maWxlLm1hZT4nLCAnLW9tYWUnLCAnPG91dGZpbGUubWFlPic=

> <r_lp_tautomer_probability>
1

> <r_epik_Ionization_Penalty>
0.739958

> <r_epik_Ionization_Penalty_Charging>
0

> <r_epik_Ionization_Penalty_Neutral>
0.739958

> <r_epik_State_Penalty>
0.765967

> <r_epik_Charging_Adjusted_Penalty>
0.765967

> <i_epik_Tot_Q>
0

> <i_epik_Tot_abs_Q>
0

> <r_epik_Metal_State_Penalty>
0.765947

> <b_epik_Metal_Only>
0

> <s_lp_Force_Field>
OPLS_2005

> <r_lp_Energy>
28.3858

> <b_lp_Chiralities_Consistent>
1

> <s_lp_Variant>
AV-unprocessed.smi:3336-8

> <Gold.Version>
5.8.1

> <Gold.Id.Protein>
6NUR|6NUR_protein|mol2

> <Gold.PLP.Fitness>
42.5548

> <Gold.PLP.PLP>
-42.1575

> <Gold.PLP.part.hbond>
-0.9534

> <Gold.PLP.part.metal>
0.0000

> <Gold.PLP.part.buried>
-5.8662

> <Gold.PLP.part.nonpolar>
-36.1099

> <Gold.PLP.part.repulsive>
0.1751

> <Gold.PLP.ligand.clash>
0.0000

> <Gold.PLP.ligand.torsion>
1.3145

> <Gold.PLP.Chemscore.Hbond>
0.9913

> <Gold.PLP.Chemscore.CHOScore>
0.0000

> <Gold.PLP.Chemscore.Metal>
0.0000

> <Gold.Chemscore.Hbonds>
donor molecule, donor type, donor heavy atom, donor atom, acceptor molecule, acceptor atom, score
      P1  H  6896  6909       L1    13  1.00

> <Gold.PLP.Chemscore.Internal.Correction>
0.0525

> <Gold.Rescore>
     Score         DG    S(hbond)    S(metal)    S(lipo)     H(rot)  DE(clash)    DE(int)     intcor
     14.41     -15.33       1.00        0.00      94.98       1.79       0.01       0.91       ----

> <Gold.Chemscore.Fitness>
14.4065

> <Gold.Chemscore.DG>
-15.3252

> <Gold.Chemscore.ZeroCoef>
-5.4800

> <Gold.Chemscore.Hbond>
0.9952

> <Gold.Chemscore.Metal>
0.0000

> <Gold.Chemscore.Lipo>
94.9792

> <Gold.Chemscore.Internal_Hbond>
0.0000

> <Gold.Chemscore.DEClash>
0.0108

> <Gold.Chemscore.DEInternal>
0.9079

> <Gold.Chemscore.Rot>
1.7935

> <Gold.Chemscore.Internal.Correction>
   9.000000E+99

> <Gold.Chemscore.Hbonds>
donor molecule, donor type, donor heavy atom, donor atom, acceptor molecule, acceptor atom, score
      P1  H  6896  6909       L1    13  1.00

> <Gold.Chemscore.Hbond.Weighted>
-3.3239

> <Gold.Chemscore.Metal.Weighted>
-0.0000

> <Gold.Chemscore.Lipo.Weighted>
-11.1126

> <Gold.Chemscore.Internal_Hbond.Weighted>
0.0000

> <Gold.Chemscore.DEClash.Weighted>
0.0108

> <Gold.Chemscore.DEInternal.Weighted>
0.9079

> <Gold.Chemscore.Rot.Weighted>
4.5912

> <Gold.Chemscore.Internal.Correction.Weighted>
   9.000000E+99

> <Gold.Protein.RotatedTorsions>
[ 6907 6896 6895 6894 ] final  150.60 input  -60.11 | X-H torsion
[ 7974 7965 7964 7962 ] final -113.87 input  175.53 | X-H torsion
[ 8008 7997 7996 7995 ] final   86.46 input   59.86 | X-H torsion
[ 10167 10162 10161 10158 ] final  119.77 input  -65.29 | X-H torsion
[ 10718 10713 10712 10709 ] final  124.18 input   66.30 | X-H torsion
[ 10763 10752 10751 10750 ] final -112.44 input  -60.55 | X-H torsion
[ 11005 11000 10999 10996 ] final  -70.59 input  -57.11 | X-H torsion

> <Gold.Protein.ActiveResidues>
 VAL166  LYS551  ARG553  GLY616  TRP617  ASP618  TYR619  PRO620  LYS621  CYS622 
 ASP623  PHE694  ASN695  SER759  ASP760  ASP761  ALA762  ILE779  LEU786  VAL792 
 PHE793  MET794  SER795  GLU796  ALA797  LYS798  CYS799  TRP800  GLU811  SER814 

> <Gold.Protein.RotatedAtoms>
  152.1122  133.4307  159.4636 H   0  0  0  0  0  0  0  0  0  0  0  0  # atno 6907 bound_to 6896
  150.6868  134.2634  159.4568 H   0  0  0  0  0  0  0  0  0  0  0  0  # atno 6908 bound_to 6896
  152.0504  134.9656  160.0625 H   0  0  0  0  0  0  0  0  0  0  0  0  # atno 6909 bound_to 6896
  145.1269  140.8702  143.3780 H   0  0  0  0  0  0  0  0  0  0  0  0  # atno 7974 bound_to 7965
  155.9631  140.3392  155.6508 H   0  0  0  0  0  0  0  0  0  0  0  0  # atno 8008 bound_to 7997
  155.6773  140.0733  157.2516 H   0  0  0  0  0  0  0  0  0  0  0  0  # atno 8009 bound_to 7997
  154.4148  140.1681  156.1931 H   0  0  0  0  0  0  0  0  0  0  0  0  # atno 8010 bound_to 7997
  139.6025  144.7060  151.3030 H   0  0  0  0  0  0  0  0  0  0  0  0  # atno 10167 bound_to 10162
  157.5606  131.1089  150.8545 H   0  0  0  0  0  0  0  0  0  0  0  0  # atno 10718 bound_to 10713
  154.8350  135.4490  154.1195 H   0  0  0  0  0  0  0  0  0  0  0  0  # atno 10763 bound_to 10752
  153.2435  135.6919  153.7763 H   0  0  0  0  0  0  0  0  0  0  0  0  # atno 10764 bound_to 10752
  153.7102  135.3358  155.3220 H   0  0  0  0  0  0  0  0  0  0  0  0  # atno 10765 bound_to 10752
  141.1577  133.6794  156.6776 H   0  0  0  0  0  0  0  0  0  0  0  0  # atno 11005 bound_to 11000
  145.0678  139.3055  143.5847 LP  0  0  0  0  0  0  0  0  0  0  0  0  # atno 17320 bound_to 7965
  146.3517  140.0142  142.8664 LP  0  0  0  0  0  0  0  0  0  0  0  0  # atno 17321 bound_to 7965
  140.7260  143.7002  150.7851 LP  0  0  0  0  0  0  0  0  0  0  0  0  # atno 17342 bound_to 10162
  140.0581  143.5182  152.2641 LP  0  0  0  0  0  0  0  0  0  0  0  0  # atno 17343 bound_to 10162
  156.9044  130.5258  149.5282 LP  0  0  0  0  0  0  0  0  0  0  0  0  # atno 17370 bound_to 10713
  156.0659  130.5702  150.9287 LP  0  0  0  0  0  0  0  0  0  0  0  0  # atno 17371 bound_to 10713
  140.3127  134.8073  157.4189 LP  0  0  0  0  0  0  0  0  0  0  0  0  # atno 17394 bound_to 11000
  140.1165  134.5276  155.8220 LP  0  0  0  0  0  0  0  0  0  0  0  0  # atno 17395 bound_to 11000

$$$$
