AV-unprocessed.smi:109|AV-procd|sdf|1032|dock2
  -GOLD-   2262018 43D 1   1.00000     0.00000
 Structure written by MMmdl.
 58 61  0  0  0  0  0  0  0  0  1 V2000
  142.1897  140.4028  155.1849 O   0  0  0  0  0  0  0  0  0  0  0  0
  142.6348  139.7991  156.3801 C   0  0  0  0  0  0  0  0  0  0  0  0
  144.1675  139.8751  156.4645 C   0  0  0  0  0  0  0  0  0  0  0  0
  144.8675  138.7258  155.7120 C   0  0  1  0  0  0  0  0  0  0  0  0
  144.2032  138.4777  154.4306 N   0  0  0  0  0  0  0  0  0  0  0  0
  143.6136  137.2978  154.1335 C   0  0  0  0  0  0  0  0  0  0  0  0
  142.4874  136.8827  154.7693 N   0  0  0  0  0  0  0  0  0  0  0  0
  141.9271  135.7138  154.4456 C   0  0  0  0  0  0  0  0  0  0  0  0
  142.3226  134.8243  153.5330 N   0  0  0  0  0  0  0  0  0  0  0  0
  143.4562  135.2325  152.8927 C   0  0  0  0  0  0  0  0  0  0  0  0
  144.1561  136.4476  153.1354 C   0  0  0  0  0  0  0  0  0  0  0  0
  145.2612  136.5288  152.2987 N   0  0  0  0  0  0  0  0  0  0  0  0
  145.2116  135.4255  151.6017 C   0  0  0  0  0  0  0  0  0  0  0  0
  144.1594  134.5867  151.8957 N   0  0  0  0  0  0  0  0  0  0  0  0
  143.8427  133.2690  151.2657 C   0  0  2  0  0  0  0  0  0  0  0  0
  144.5479  132.2799  151.9511 O   0  0  0  0  0  0  0  0  0  0  0  0
  145.0891  131.3466  151.0232 C   0  0  2  0  0  0  0  0  0  0  0  0
  146.3042  130.6429  151.6457 C   0  0  0  0  0  0  0  0  0  0  0  0
  146.8172  129.6818  150.7485 O   0  0  0  0  0  0  0  0  0  0  0  0
  145.4428  132.2366  149.8303 C   0  0  1  0  0  0  0  0  0  0  0  0
  145.6016  131.5139  148.6232 O   0  0  0  0  0  0  0  0  0  0  0  0
  144.2884  133.2359  149.7940 C   0  0  1  0  0  0  0  0  0  0  0  0
  143.2287  132.8000  148.9606 O   0  0  0  0  0  0  0  0  0  0  0  0
  146.3857  138.9685  155.5199 C   0  0  0  0  0  0  0  0  0  0  0  0
  147.1603  139.1872  156.8412 C   0  0  0  0  0  0  0  0  0  0  0  0
  148.6647  139.3814  156.5895 C   0  0  0  0  0  0  0  0  0  0  0  0
  148.9237  140.5341  155.6077 C   0  0  0  0  0  0  0  0  0  0  0  0
  148.1672  140.3157  154.2889 C   0  0  0  0  0  0  0  0  0  0  0  0
  146.6620  140.1269  154.5360 C   0  0  0  0  0  0  0  0  0  0  0  0
  142.7673  133.1458  151.4031 H   0  0  0  0  0  0  0  0  0  0  0  0
  144.3161  130.6310  150.7350 H   0  0  0  0  0  0  0  0  0  0  0  0
  146.3726  132.7677  150.0342 H   0  0  0  0  0  0  0  0  0  0  0  0
  144.6176  134.2203  149.4572 H   0  0  0  0  0  0  0  0  0  0  0  0
  142.8444  140.2643  154.5176 H   0  0  0  0  0  0  0  0  0  0  0  0
  142.1763  140.3086  157.2281 H   0  0  0  0  0  0  0  0  0  0  0  0
  142.2939  138.7636  156.3983 H   0  0  0  0  0  0  0  0  0  0  0  0
  144.5055  140.8388  156.0814 H   0  0  0  0  0  0  0  0  0  0  0  0
  144.4576  139.8439  157.5156 H   0  0  0  0  0  0  0  0  0  0  0  0
  144.7860  137.8578  156.3649 H   0  0  0  0  0  0  0  0  0  0  0  0
  144.2183  139.2514  153.7814 H   0  0  0  0  0  0  0  0  0  0  0  0
  141.0338  135.4552  154.9946 H   0  0  0  0  0  0  0  0  0  0  0  0
  145.9494  135.1912  150.8480 H   0  0  0  0  0  0  0  0  0  0  0  0
  147.0976  131.3655  151.8394 H   0  0  0  0  0  0  0  0  0  0  0  0
  146.0500  130.1776  152.5988 H   0  0  0  0  0  0  0  0  0  0  0  0
  147.7027  129.9248  150.5249 H   0  0  0  0  0  0  0  0  0  0  0  0
  145.5509  130.5903  148.8165 H   0  0  0  0  0  0  0  0  0  0  0  0
  142.4360  133.2391  149.2284 H   0  0  0  0  0  0  0  0  0  0  0  0
  146.7912  138.0674  155.0568 H   0  0  0  0  0  0  0  0  0  0  0  0
  146.7707  140.0601  157.3660 H   0  0  0  0  0  0  0  0  0  0  0  0
  147.0218  138.3377  157.5095 H   0  0  0  0  0  0  0  0  0  0  0  0
  149.1770  139.5751  157.5324 H   0  0  0  0  0  0  0  0  0  0  0  0
  149.0903  138.4598  156.1908 H   0  0  0  0  0  0  0  0  0  0  0  0
  148.6098  141.4766  156.0583 H   0  0  0  0  0  0  0  0  0  0  0  0
  149.9929  140.6238  155.4134 H   0  0  0  0  0  0  0  0  0  0  0  0
  148.3309  141.1626  153.6220 H   0  0  0  0  0  0  0  0  0  0  0  0
  148.5671  139.4386  153.7786 H   0  0  0  0  0  0  0  0  0  0  0  0
  146.1589  139.9381  153.5871 H   0  0  0  0  0  0  0  0  0  0  0  0
  146.2449  141.0568  154.9245 H   0  0  0  0  0  0  0  0  0  0  0  0
  1  2  1  0  0  0  0
  1 34  1  0  0  0  0
  2  3  1  0  0  0  0
  2 35  1  0  0  0  0
  2 36  1  0  0  0  0
  3  4  1  0  0  0  0
  3 37  1  0  0  0  0
  3 38  1  0  0  0  0
  4  5  1  0  0  0  0
  4 24  1  0  0  0  0
  4 39  1  0  0  0  0
  5  6  1  0  0  0  0
  5 40  1  0  0  0  0
  6 11  1  0  0  0  0
  6  7  2  0  0  0  0
  7  8  1  0  0  0  0
  8  9  2  0  0  0  0
  8 41  1  0  0  0  0
  9 10  1  0  0  0  0
 10 14  1  0  0  0  0
 10 11  2  0  0  0  0
 11 12  1  0  0  0  0
 12 13  2  0  0  0  0
 13 14  1  0  0  0  0
 13 42  1  0  0  0  0
 14 15  1  0  0  0  0
 15 30  1  0  0  0  0
 15 22  1  0  0  0  0
 15 16  1  0  0  0  0
 16 17  1  0  0  0  0
 17 31  1  0  0  0  0
 17 18  1  0  0  0  0
 17 20  1  0  0  0  0
 18 19  1  0  0  0  0
 18 43  1  0  0  0  0
 18 44  1  0  0  0  0
 19 45  1  0  0  0  0
 20 32  1  0  0  0  0
 20 21  1  0  0  0  0
 20 22  1  0  0  0  0
 21 46  1  0  0  0  0
 22 33  1  0  0  0  0
 22 23  1  0  0  0  0
 23 47  1  0  0  0  0
 24 29  1  0  0  0  0
 24 25  1  0  0  0  0
 24 48  1  0  0  0  0
 25 26  1  0  0  0  0
 25 49  1  0  0  0  0
 25 50  1  0  0  0  0
 26 27  1  0  0  0  0
 26 51  1  0  0  0  0
 26 52  1  0  0  0  0
 27 28  1  0  0  0  0
 27 53  1  0  0  0  0
 27 54  1  0  0  0  0
 28 29  1  0  0  0  0
 28 55  1  0  0  0  0
 28 56  1  0  0  0  0
 29 57  1  0  0  0  0
 29 58  1  0  0  0  0
M  END
> <s_m_source_file>
AV-unprocessed.smi

> <i_m_source_file_index>
109

> <i_lp_mmshare_version>
43012

> <i_f3d_flags>
0

> <s_epik_input>
W0NIMl0xW0NIMl1bQ0gyXVtDSDJdW0NIMl1bQ0hdMVtDQEhdKFtDSDJdW0NIMl1bT0hdKVtOSF1jKG5bY0hdbjIpYyhjMjMpbltjSF1uM1tDQEBIXTRPW0NASF0oW0NIMl1bT0hdKVtDQEBIXShbT0hdKVtDQEhdNFtPSF0=

> <s_epik_cmdline>
J2VwaWtfcHl0aG9uJywgJy1waCcsICc3LjAnLCAnLXRuJywgJzgnLCAnLW1hJywgJzIwMCcsICctbWV0YWxfYmluZGluZycsICctaW1hZScsICc8aW5maWxlLm1hZT4nLCAnLW9tYWUnLCAnPG91dGZpbGUubWFlPic=

> <r_lp_tautomer_probability>
1

> <r_epik_Ionization_Penalty>
0.000793976

> <r_epik_Ionization_Penalty_Charging>
0

> <r_epik_Ionization_Penalty_Neutral>
0.000793976

> <r_epik_State_Penalty>
-0

> <r_epik_Charging_Adjusted_Penalty>
0

> <i_epik_Tot_Q>
0

> <i_epik_Tot_abs_Q>
0

> <r_epik_Metal_State_Penalty>
-0

> <b_epik_Metal_Only>
0

> <s_epik_Chemistry_Notes>
This compound contains an acetal/aminal-like group ( X-CH(R)-Y where X, Y are N, S, or O) that may be acid/base labile, releasing an aldehyde.

> <s_lp_Force_Field>
OPLS_2005

> <r_lp_Energy>
54.9407

> <b_lp_Chiralities_Consistent>
1

> <s_lp_Variant>
AV-unprocessed.smi:109-2

> <Gold.Version>
5.8.1

> <Gold.Id.Protein>
6NUR|6NUR_protein|mol2

> <Gold.PLP.Fitness>
46.8236

> <Gold.PLP.PLP>
-35.4916

> <Gold.PLP.part.hbond>
-5.5641

> <Gold.PLP.part.metal>
0.0000

> <Gold.PLP.part.buried>
-6.5468

> <Gold.PLP.part.nonpolar>
-25.5682

> <Gold.PLP.part.repulsive>
0.5794

> <Gold.PLP.ligand.clash>
0.0000

> <Gold.PLP.ligand.torsion>
1.6937

> <Gold.PLP.Chemscore.Hbond>
3.9425

> <Gold.PLP.Chemscore.CHOScore>
0.9109

> <Gold.PLP.Chemscore.Metal>
0.0000

> <Gold.Chemscore.Hbonds>
donor molecule, donor type, donor heavy atom, donor atom, acceptor molecule, acceptor atom, score
      L1  H     1    34       P1 10175  0.68
      L1  H     5    40       P1 10175  1.00
      L1  H    19    45       P1 10747  1.00
      L1  H    23    47       P1 10186  1.00
      L1  C     8    41       P1 11000  1.00

> <Gold.PLP.Chemscore.Internal.Correction>
0.1592

> <Gold.Rescore>
     Score         DG    S(hbond)    S(metal)    S(lipo)     H(rot)  DE(clash)    DE(int)     intcor
      9.25     -11.38       3.88        0.00      59.39       5.47       0.54       1.59       ----

> <Gold.Chemscore.Fitness>
9.2504

> <Gold.Chemscore.DG>
-11.3793

> <Gold.Chemscore.ZeroCoef>
-5.4800

> <Gold.Chemscore.Hbond>
3.8755

> <Gold.Chemscore.Metal>
0.0000

> <Gold.Chemscore.Lipo>
59.3883

> <Gold.Chemscore.Internal_Hbond>
0.0000

> <Gold.Chemscore.DEClash>
0.5431

> <Gold.Chemscore.DEInternal>
1.5857

> <Gold.Chemscore.Rot>
5.4662

> <Gold.Chemscore.Internal.Correction>
   9.000000E+99

> <Gold.Chemscore.Hbonds>
donor molecule, donor type, donor heavy atom, donor atom, acceptor molecule, acceptor atom, score
      L1  H     1    34       P1 10175  0.64
      L1  H     5    40       P1 10175  1.00
      L1  H    19    45       P1 10747  0.96
      L1  H    23    47       P1 10186  1.00

> <Gold.Chemscore.Hbond.Weighted>
-12.9443

> <Gold.Chemscore.Metal.Weighted>
-0.0000

> <Gold.Chemscore.Lipo.Weighted>
-6.9484

> <Gold.Chemscore.Internal_Hbond.Weighted>
0.0000

> <Gold.Chemscore.DEClash.Weighted>
0.5431

> <Gold.Chemscore.DEInternal.Weighted>
1.5857

> <Gold.Chemscore.Rot.Weighted>
13.9935

> <Gold.Chemscore.Internal.Correction.Weighted>
   9.000000E+99

> <Gold.Protein.RotatedTorsions>
[ 6907 6896 6895 6894 ] final  -57.32 input  -60.11 | X-H torsion
[ 7974 7965 7964 7962 ] final  -79.67 input  175.53 | X-H torsion
[ 8008 7997 7996 7995 ] final  -67.64 input   59.86 | X-H torsion
[ 10167 10162 10161 10158 ] final -101.80 input  -65.29 | X-H torsion
[ 10718 10713 10712 10709 ] final -105.29 input   66.30 | X-H torsion
[ 10763 10752 10751 10750 ] final -114.48 input  -60.55 | X-H torsion
[ 11005 11000 10999 10996 ] final -162.86 input  -57.11 | X-H torsion

> <Gold.Protein.ActiveResidues>
 VAL166  LYS551  ARG553  GLY616  TRP617  ASP618  TYR619  PRO620  LYS621  CYS622 
 ASP623  PHE694  ASN695  SER759  ASP760  ASP761  ALA762  ILE779  LEU786  VAL792 
 PHE793  MET794  SER795  GLU796  ALA797  LYS798  CYS799  TRP800  GLU811  SER814 

> <Gold.Protein.RotatedAtoms>
  150.8095  134.7242  159.6674 H   0  0  0  0  0  0  0  0  0  0  0  0  # atno 6907 bound_to 6896
  152.4215  134.5942  159.9992 H   0  0  0  0  0  0  0  0  0  0  0  0  # atno 6908 bound_to 6896
  151.6156  133.3306  159.3113 H   0  0  0  0  0  0  0  0  0  0  0  0  # atno 6909 bound_to 6896
  145.5701  140.9467  143.1400 H   0  0  0  0  0  0  0  0  0  0  0  0  # atno 7974 bound_to 7965
  154.4814  140.0888  156.7385 H   0  0  0  0  0  0  0  0  0  0  0  0  # atno 8008 bound_to 7997
  155.4462  140.3455  155.4277 H   0  0  0  0  0  0  0  0  0  0  0  0  # atno 8009 bound_to 7997
  156.1196  140.1470  156.9211 H   0  0  0  0  0  0  0  0  0  0  0  0  # atno 8010 bound_to 7997
  140.2374  143.3563  152.0832 H   0  0  0  0  0  0  0  0  0  0  0  0  # atno 10167 bound_to 10162
  156.0340  130.5556  150.7518 H   0  0  0  0  0  0  0  0  0  0  0  0  # atno 10718 bound_to 10713
  154.8441  135.4416  154.1512 H   0  0  0  0  0  0  0  0  0  0  0  0  # atno 10763 bound_to 10752
  153.2672  135.6942  153.7523 H   0  0  0  0  0  0  0  0  0  0  0  0  # atno 10764 bound_to 10752
  153.6777  135.3408  155.3145 H   0  0  0  0  0  0  0  0  0  0  0  0  # atno 10765 bound_to 10752
  140.6045  134.4913  157.5209 H   0  0  0  0  0  0  0  0  0  0  0  0  # atno 11005 bound_to 11000
  144.7442  139.7366  143.7299 LP  0  0  0  0  0  0  0  0  0  0  0  0  # atno 17320 bound_to 7965
  146.1790  139.4974  142.9878 LP  0  0  0  0  0  0  0  0  0  0  0  0  # atno 17321 bound_to 7965
  139.5089  144.6857  151.5892 LP  0  0  0  0  0  0  0  0  0  0  0  0  # atno 17342 bound_to 10162
  140.6139  143.9384  150.6474 LP  0  0  0  0  0  0  0  0  0  0  0  0  # atno 17343 bound_to 10162
  157.5060  131.0922  151.0256 LP  0  0  0  0  0  0  0  0  0  0  0  0  # atno 17370 bound_to 10713
  157.0624  130.5831  149.5388 LP  0  0  0  0  0  0  0  0  0  0  0  0  # atno 17371 bound_to 10713
  139.9218  134.8134  156.1188 LP  0  0  0  0  0  0  0  0  0  0  0  0  # atno 17394 bound_to 11000
  141.0850  133.6738  156.2416 LP  0  0  0  0  0  0  0  0  0  0  0  0  # atno 17395 bound_to 11000

$$$$
