AV-unprocessed.smi:148|AV-procd|sdf|1221|dock8
  -GOLD-   2262018413D 1   1.00000     0.00000
 Structure written by MMmdl.
 63 67  0  0  0  0  0  0  0  0  1 V2000
  147.1591  137.9904  151.5470 O   0  0  0  0  0  0  0  0  0  0  0  0
  146.3603  138.7300  152.4469 C   0  0  0  0  0  0  0  0  0  0  0  0
  147.1219  139.0297  153.7620 C   0  0  1  0  0  0  0  0  0  0  0  0
  147.2313  140.5515  154.0460 C   0  0  0  0  0  0  0  0  0  0  0  0
  148.3771  140.8985  154.8680 N   0  0  0  0  0  0  0  0  0  0  0  0
  149.7035  140.7275  154.5442 C   0  0  0  0  0  0  0  0  0  0  0  0
  150.5520  141.1270  155.4518 N   0  0  0  0  0  0  0  0  0  0  0  0
  149.7495  141.6119  156.4782 C   0  0  0  0  0  0  0  0  0  0  0  0
  150.0019  142.2039  157.7492 C   0  0  0  0  0  0  0  0  0  0  0  0
  151.2286  142.4400  158.2700 N   0  0  0  0  0  0  0  0  0  0  0  0
  151.2603  143.7894  158.8371 C   0  0  0  0  0  0  0  0  0  0  0  0
  152.6847  144.2097  159.2221 C   0  0  0  0  0  0  0  0  0  0  0  0
  153.3104  143.1750  160.1626 C   0  0  0  0  0  0  0  0  0  0  0  0
  153.2746  141.7919  159.5012 C   0  0  0  0  0  0  0  0  0  0  0  0
  151.8293  141.3855  159.1092 C   0  0  2  0  0  0  0  0  0  0  0  0
  151.7440  139.9536  158.4864 C   0  0  2  0  0  0  0  0  0  0  0  0
  150.3426  139.3101  158.5731 C   0  0  0  0  0  0  0  0  0  0  0  0
  150.5537  137.8380  158.9530 C   0  0  0  0  0  0  0  0  0  0  0  0
  152.0338  137.5604  158.7008 C   0  0  0  0  0  0  0  0  0  0  0  0
  152.7110  138.8866  159.0405 C   0  0  1  0  0  0  0  0  0  0  0  0
  153.9943  138.9561  158.4556 O   0  0  0  0  0  0  0  0  0  0  0  0
  148.9352  142.5395  158.5164 N   0  0  0  0  0  0  0  0  0  0  0  0
  147.6945  142.3409  158.0615 C   0  0  0  0  0  0  0  0  0  0  0  0
  147.3064  141.8214  156.8951 N   0  0  0  0  0  0  0  0  0  0  0  0
  148.3776  141.4632  156.1309 C   0  0  0  0  0  0  0  0  0  0  0  0
  146.5420  138.2158  154.9537 C   0  0  1  0  0  0  0  0  0  0  0  0
  145.1683  138.6219  155.4569 C   0  0  0  0  0  0  0  0  0  0  0  0
  144.8114  137.4298  156.3377 C   0  0  0  0  0  0  0  0  0  0  0  0
  145.3653  136.2963  155.6769 O   0  0  0  0  0  0  0  0  0  0  0  0
  146.3583  136.7087  154.7396 C   0  0  0  0  0  0  0  0  0  0  0  0
  147.2484  137.1096  151.8783 H   0  0  0  0  0  0  0  0  0  0  0  0
  146.0795  139.6477  151.9310 H   0  0  0  0  0  0  0  0  0  0  0  0
  145.4378  138.1841  152.6462 H   0  0  0  0  0  0  0  0  0  0  0  0
  148.1439  138.6760  153.6150 H   0  0  0  0  0  0  0  0  0  0  0  0
  147.2985  141.1180  153.1182 H   0  0  0  0  0  0  0  0  0  0  0  0
  146.3453  140.9138  154.5658 H   0  0  0  0  0  0  0  0  0  0  0  0
  150.0228  140.2986  153.6053 H   0  0  0  0  0  0  0  0  0  0  0  0
  150.8545  144.5078  158.1228 H   0  0  0  0  0  0  0  0  0  0  0  0
  150.6172  143.8226  159.7182 H   0  0  0  0  0  0  0  0  0  0  0  0
  153.2939  144.3086  158.3227 H   0  0  0  0  0  0  0  0  0  0  0  0
  152.6692  145.1904  159.6982 H   0  0  0  0  0  0  0  0  0  0  0  0
  154.3377  143.4538  160.3986 H   0  0  0  0  0  0  0  0  0  0  0  0
  152.7653  143.1502  161.1070 H   0  0  0  0  0  0  0  0  0  0  0  0
  153.9159  141.8255  158.6214 H   0  0  0  0  0  0  0  0  0  0  0  0
  153.7197  141.0645  160.1782 H   0  0  0  0  0  0  0  0  0  0  0  0
  151.2550  141.3618  160.0354 H   0  0  0  0  0  0  0  0  0  0  0  0
  151.9351  140.0206  157.4152 H   0  0  0  0  0  0  0  0  0  0  0  0
  149.6879  139.7978  159.2937 H   0  0  0  0  0  0  0  0  0  0  0  0
  149.8437  139.3853  157.6059 H   0  0  0  0  0  0  0  0  0  0  0  0
  150.3360  137.7024  160.0133 H   0  0  0  0  0  0  0  0  0  0  0  0
  149.9030  137.1643  158.3948 H   0  0  0  0  0  0  0  0  0  0  0  0
  152.4133  136.7284  159.2950 H   0  0  0  0  0  0  0  0  0  0  0  0
  152.1840  137.3160  157.6479 H   0  0  0  0  0  0  0  0  0  0  0  0
  152.8088  138.9539  160.1223 H   0  0  0  0  0  0  0  0  0  0  0  0
  154.6283  138.6457  159.0846 H   0  0  0  0  0  0  0  0  0  0  0  0
  146.8990  142.6439  158.7260 H   0  0  0  0  0  0  0  0  0  0  0  0
  147.2187  138.3371  155.8014 H   0  0  0  0  0  0  0  0  0  0  0  0
  145.1711  139.5663  156.0016 H   0  0  0  0  0  0  0  0  0  0  0  0
  144.4435  138.6931  154.6470 H   0  0  0  0  0  0  0  0  0  0  0  0
  145.2793  137.5269  157.3183 H   0  0  0  0  0  0  0  0  0  0  0  0
  143.7364  137.3223  156.4839 H   0  0  0  0  0  0  0  0  0  0  0  0
  145.9907  136.4786  153.7407 H   0  0  0  0  0  0  0  0  0  0  0  0
  147.2872  136.1574  154.8879 H   0  0  0  0  0  0  0  0  0  0  0  0
  1  2  1  0  0  0  0
  1 31  1  0  0  0  0
  2  3  1  0  0  0  0
  2 32  1  0  0  0  0
  2 33  1  0  0  0  0
  3  4  1  0  0  0  0
  3 26  1  0  0  0  0
  3 34  1  0  0  0  0
  4  5  1  0  0  0  0
  4 35  1  0  0  0  0
  4 36  1  0  0  0  0
  5 25  1  0  0  0  0
  5  6  1  0  0  0  0
  6  7  2  0  0  0  0
  6 37  1  0  0  0  0
  7  8  1  0  0  0  0
  8 25  2  0  0  0  0
  8  9  1  0  0  0  0
  9 10  1  0  0  0  0
  9 22  2  0  0  0  0
 10 15  1  0  0  0  0
 10 11  1  0  0  0  0
 11 12  1  0  0  0  0
 11 38  1  0  0  0  0
 11 39  1  0  0  0  0
 12 13  1  0  0  0  0
 12 40  1  0  0  0  0
 12 41  1  0  0  0  0
 13 14  1  0  0  0  0
 13 42  1  0  0  0  0
 13 43  1  0  0  0  0
 14 15  1  0  0  0  0
 14 44  1  0  0  0  0
 14 45  1  0  0  0  0
 15 16  1  0  0  0  0
 15 46  1  0  0  0  0
 16 20  1  0  0  0  0
 16 17  1  0  0  0  0
 16 47  1  0  0  0  0
 17 18  1  0  0  0  0
 17 48  1  0  0  0  0
 17 49  1  0  0  0  0
 18 19  1  0  0  0  0
 18 50  1  0  0  0  0
 18 51  1  0  0  0  0
 19 20  1  0  0  0  0
 19 52  1  0  0  0  0
 19 53  1  0  0  0  0
 20 21  1  0  0  0  0
 20 54  1  0  0  0  0
 21 55  1  0  0  0  0
 22 23  1  0  0  0  0
 23 24  2  0  0  0  0
 23 56  1  0  0  0  0
 24 25  1  0  0  0  0
 26 30  1  0  0  0  0
 26 27  1  0  0  0  0
 26 57  1  0  0  0  0
 27 28  1  0  0  0  0
 27 58  1  0  0  0  0
 27 59  1  0  0  0  0
 28 29  1  0  0  0  0
 28 60  1  0  0  0  0
 28 61  1  0  0  0  0
 29 30  1  0  0  0  0
 30 62  1  0  0  0  0
 30 63  1  0  0  0  0
M  END
> <s_m_source_file>
AV-unprocessed.smi

> <i_m_source_file_index>
148

> <i_lp_mmshare_version>
43012

> <i_f3d_flags>
0

> <s_epik_input>
W0NIMl0xT1tDSDJdW0NIMl1bQ0BIXTFbQ0BIXShbQ0gyXVtPSF0pW0NIMl1uKFtjSF1uMiljKGMyMyluW2NIXW5jM040W0NIMl1bQ0gyXVtDSDJdW0NIMl1bQ0BIXTRbQ0BASF01W0NIMl1bQ0gyXVtDSDJdW0NASF01W09IXQ==

> <s_epik_cmdline>
J2VwaWtfcHl0aG9uJywgJy1waCcsICc3LjAnLCAnLXRuJywgJzgnLCAnLW1hJywgJzIwMCcsICctbWV0YWxfYmluZGluZycsICctaW1hZScsICc8aW5maWxlLm1hZT4nLCAnLW9tYWUnLCAnPG91dGZpbGUubWFlPic=

> <r_lp_tautomer_probability>
1

> <r_epik_Ionization_Penalty>
0.00556303

> <r_epik_Ionization_Penalty_Charging>
0

> <r_epik_Ionization_Penalty_Neutral>
0.00556303

> <r_epik_State_Penalty>
0.00401767

> <r_epik_Charging_Adjusted_Penalty>
0.00401767

> <i_epik_Tot_Q>
0

> <i_epik_Tot_abs_Q>
0

> <r_epik_Metal_State_Penalty>
-0

> <b_epik_Metal_Only>
0

> <s_lp_Force_Field>
OPLS_2005

> <r_lp_Energy>
68.4806

> <b_lp_Chiralities_Consistent>
1

> <s_lp_Variant>
AV-unprocessed.smi:148-20

> <Gold.Version>
5.8.1

> <Gold.Id.Protein>
6NUR|6NUR_protein|mol2

> <Gold.PLP.Fitness>
52.6154

> <Gold.PLP.PLP>
-45.6773

> <Gold.PLP.part.hbond>
-4.6489

> <Gold.PLP.part.metal>
0.0000

> <Gold.PLP.part.buried>
-2.1941

> <Gold.PLP.part.nonpolar>
-40.1004

> <Gold.PLP.part.repulsive>
0.4426

> <Gold.PLP.ligand.clash>
0.0000

> <Gold.PLP.ligand.torsion>
1.9538

> <Gold.PLP.Chemscore.Hbond>
2.4800

> <Gold.PLP.Chemscore.CHOScore>
1.0000

> <Gold.PLP.Chemscore.Metal>
0.0000

> <Gold.Chemscore.Hbonds>
donor molecule, donor type, donor heavy atom, donor atom, acceptor molecule, acceptor atom, score
      L1  H     1    31       P1  7948  0.40
      P1  H  7954  7966       L1     1  1.00
      P1  H  7997  8008       L1    21  1.00
      L1  C     6    37       P1  7957  1.00

> <Gold.PLP.Chemscore.Internal.Correction>
0.4057

> <Gold.Rescore>
     Score         DG    S(hbond)    S(metal)    S(lipo)     H(rot)  DE(clash)    DE(int)     intcor
     11.45     -14.51       1.66        0.00     102.57       3.32       0.29       2.77       ----

> <Gold.Chemscore.Fitness>
11.4482

> <Gold.Chemscore.DG>
-14.5141

> <Gold.Chemscore.ZeroCoef>
-5.4800

> <Gold.Chemscore.Hbond>
1.6567

> <Gold.Chemscore.Metal>
0.0000

> <Gold.Chemscore.Lipo>
102.5696

> <Gold.Chemscore.Internal_Hbond>
0.0000

> <Gold.Chemscore.DEClash>
0.2914

> <Gold.Chemscore.DEInternal>
2.7745

> <Gold.Chemscore.Rot>
3.3203

> <Gold.Chemscore.Internal.Correction>
   9.000000E+99

> <Gold.Chemscore.Hbonds>
donor molecule, donor type, donor heavy atom, donor atom, acceptor molecule, acceptor atom, score
      L1  H     1    31       P1  7948  0.40
      P1  H  7954  7966       L1     1  0.30
      P1  H  7997  8008       L1    21  0.34

> <Gold.Chemscore.Hbond.Weighted>
-5.5335

> <Gold.Chemscore.Metal.Weighted>
-0.0000

> <Gold.Chemscore.Lipo.Weighted>
-12.0006

> <Gold.Chemscore.Internal_Hbond.Weighted>
0.0000

> <Gold.Chemscore.DEClash.Weighted>
0.2914

> <Gold.Chemscore.DEInternal.Weighted>
2.7745

> <Gold.Chemscore.Rot.Weighted>
8.5000

> <Gold.Chemscore.Internal.Correction.Weighted>
   9.000000E+99

> <Gold.Protein.RotatedTorsions>
[ 6907 6896 6895 6894 ] final  119.68 input  -60.11 | X-H torsion
[ 7974 7965 7964 7962 ] final   14.62 input  175.53 | X-H torsion
[ 8008 7997 7996 7995 ] final -118.17 input   59.86 | X-H torsion
[ 10167 10162 10161 10158 ] final  -97.39 input  -65.29 | X-H torsion
[ 10718 10713 10712 10709 ] final   45.05 input   66.30 | X-H torsion
[ 10763 10752 10751 10750 ] final   48.92 input  -60.55 | X-H torsion
[ 11005 11000 10999 10996 ] final  -68.73 input  -57.11 | X-H torsion

> <Gold.Protein.ActiveResidues>
 VAL166  LYS551  ARG553  GLY616  TRP617  ASP618  TYR619  PRO620  LYS621  CYS622 
 ASP623  PHE694  ASN695  SER759  ASP760  ASP761  ALA762  ILE779  LEU786  VAL792 
 PHE793  MET794  SER795  GLU796  ALA797  LYS798  CYS799  TRP800  GLU811  SER814 

> <Gold.Protein.RotatedAtoms>
  152.4454  133.7527  159.6702 H   0  0  0  0  0  0  0  0  0  0  0  0  # atno 6907 bound_to 6896
  150.8353  133.8013  159.3088 H   0  0  0  0  0  0  0  0  0  0  0  0  # atno 6908 bound_to 6896
  151.5654  135.1067  160.0034 H   0  0  0  0  0  0  0  0  0  0  0  0  # atno 6909 bound_to 6896
  146.2300  139.9015  142.8538 H   0  0  0  0  0  0  0  0  0  0  0  0  # atno 7974 bound_to 7965
  155.0954  140.0395  157.2681 H   0  0  0  0  0  0  0  0  0  0  0  0  # atno 8008 bound_to 7997
  154.6799  140.2631  155.6894 H   0  0  0  0  0  0  0  0  0  0  0  0  # atno 8009 bound_to 7997
  156.2691  140.2780  156.1339 H   0  0  0  0  0  0  0  0  0  0  0  0  # atno 8010 bound_to 7997
  140.2839  143.3264  152.0414 H   0  0  0  0  0  0  0  0  0  0  0  0  # atno 10167 bound_to 10162
  157.4334  130.8038  149.7625 H   0  0  0  0  0  0  0  0  0  0  0  0  # atno 10718 bound_to 10713
  152.9789  135.5928  154.4005 H   0  0  0  0  0  0  0  0  0  0  0  0  # atno 10763 bound_to 10752
  154.3651  135.2767  155.2300 H   0  0  0  0  0  0  0  0  0  0  0  0  # atno 10764 bound_to 10752
  154.4280  135.6043  153.6105 H   0  0  0  0  0  0  0  0  0  0  0  0  # atno 10765 bound_to 10752
  141.1538  133.6747  156.6491 H   0  0  0  0  0  0  0  0  0  0  0  0  # atno 11005 bound_to 11000
  145.2319  140.9976  143.3986 LP  0  0  0  0  0  0  0  0  0  0  0  0  # atno 17320 bound_to 7965
  144.9523  139.4069  143.6396 LP  0  0  0  0  0  0  0  0  0  0  0  0  # atno 17321 bound_to 7965
  139.4955  144.6573  151.6544 LP  0  0  0  0  0  0  0  0  0  0  0  0  # atno 17342 bound_to 10162
  140.5789  143.9980  150.6257 LP  0  0  0  0  0  0  0  0  0  0  0  0  # atno 17343 bound_to 10162
  155.9921  130.3933  150.2954 LP  0  0  0  0  0  0  0  0  0  0  0  0  # atno 17370 bound_to 10713
  157.1113  131.0222  151.3047 LP  0  0  0  0  0  0  0  0  0  0  0  0  # atno 17371 bound_to 10713
  140.3334  134.7910  157.4343 LP  0  0  0  0  0  0  0  0  0  0  0  0  # atno 17394 bound_to 11000
  140.0998  134.5488  155.8364 LP  0  0  0  0  0  0  0  0  0  0  0  0  # atno 17395 bound_to 11000

$$$$
