AV-unprocessed.smi:148|AV-procd|sdf|1221|dock3
  -GOLD-   2262018413D 1   1.00000     0.00000
 Structure written by MMmdl.
 63 67  0  0  0  0  0  0  0  0  1 V2000
  148.3605  138.9096  151.6258 O   0  0  0  0  0  0  0  0  0  0  0  0
  147.3025  139.3016  152.4752 C   0  0  0  0  0  0  0  0  0  0  0  0
  147.7806  139.4475  153.9414 C   0  0  1  0  0  0  0  0  0  0  0  0
  148.7897  140.6132  154.1189 C   0  0  0  0  0  0  0  0  0  0  0  0
  149.4960  140.5694  155.3870 N   0  0  0  0  0  0  0  0  0  0  0  0
  148.9619  140.7984  156.6343 C   0  0  0  0  0  0  0  0  0  0  0  0
  149.8034  140.6922  157.6262 N   0  0  0  0  0  0  0  0  0  0  0  0
  151.0086  140.3632  157.0164 C   0  0  0  0  0  0  0  0  0  0  0  0
  152.3248  140.0890  157.4876 C   0  0  0  0  0  0  0  0  0  0  0  0
  152.7055  140.0957  158.7863 N   0  0  0  0  0  0  0  0  0  0  0  0
  153.6748  139.0215  159.0105 C   0  0  0  0  0  0  0  0  0  0  0  0
  153.9603  138.8173  160.5040 C   0  0  0  0  0  0  0  0  0  0  0  0
  154.4023  140.1353  161.1476 C   0  0  0  0  0  0  0  0  0  0  0  0
  153.3347  141.2089  160.9046 C   0  0  0  0  0  0  0  0  0  0  0  0
  153.0503  141.3968  159.3908 C   0  0  2  0  0  0  0  0  0  0  0  0
  152.0100  142.5273  159.0993 C   0  0  2  0  0  0  0  0  0  0  0  0
  152.0782  143.0930  157.6638 C   0  0  0  0  0  0  0  0  0  0  0  0
  151.9186  144.6152  157.7794 C   0  0  0  0  0  0  0  0  0  0  0  0
  151.3816  144.8629  159.1871 C   0  0  0  0  0  0  0  0  0  0  0  0
  152.0389  143.7646  160.0206 C   0  0  1  0  0  0  0  0  0  0  0  0
  151.3335  143.5638  161.2272 O   0  0  0  0  0  0  0  0  0  0  0  0
  153.2856  139.8222  156.5685 N   0  0  0  0  0  0  0  0  0  0  0  0
  152.9783  139.7919  155.2684 C   0  0  0  0  0  0  0  0  0  0  0  0
  151.7972  140.0048  154.6847 N   0  0  0  0  0  0  0  0  0  0  0  0
  150.8340  140.2946  155.6058 C   0  0  0  0  0  0  0  0  0  0  0  0
  146.5800  139.5098  154.9280 C   0  0  1  0  0  0  0  0  0  0  0  0
  145.7115  140.7540  154.8728 C   0  0  0  0  0  0  0  0  0  0  0  0
  144.5021  140.3071  155.6864 C   0  0  0  0  0  0  0  0  0  0  0  0
  144.3331  138.9267  155.3793 O   0  0  0  0  0  0  0  0  0  0  0  0
  145.5312  138.3971  154.8148 C   0  0  0  0  0  0  0  0  0  0  0  0
  148.7260  138.1020  151.9539 H   0  0  0  0  0  0  0  0  0  0  0  0
  146.9231  140.2451  152.0841 H   0  0  0  0  0  0  0  0  0  0  0  0
  146.4900  138.5785  152.4002 H   0  0  0  0  0  0  0  0  0  0  0  0
  148.3291  138.5346  154.1801 H   0  0  0  0  0  0  0  0  0  0  0  0
  149.5305  140.6133  153.3206 H   0  0  0  0  0  0  0  0  0  0  0  0
  148.2826  141.5760  154.0701 H   0  0  0  0  0  0  0  0  0  0  0  0
  147.9205  141.0436  156.7855 H   0  0  0  0  0  0  0  0  0  0  0  0
  153.3065  138.0868  158.5841 H   0  0  0  0  0  0  0  0  0  0  0  0
  154.6028  139.2623  158.4891 H   0  0  0  0  0  0  0  0  0  0  0  0
  153.0638  138.4448  161.0014 H   0  0  0  0  0  0  0  0  0  0  0  0
  154.7300  138.0567  160.6368 H   0  0  0  0  0  0  0  0  0  0  0  0
  154.5613  139.9968  162.2173 H   0  0  0  0  0  0  0  0  0  0  0  0
  155.3556  140.4561  160.7259 H   0  0  0  0  0  0  0  0  0  0  0  0
  152.4301  140.9058  161.4303 H   0  0  0  0  0  0  0  0  0  0  0  0
  153.6594  142.1410  161.3643 H   0  0  0  0  0  0  0  0  0  0  0  0
  153.9914  141.7091  158.9380 H   0  0  0  0  0  0  0  0  0  0  0  0
  151.0048  142.1110  159.1688 H   0  0  0  0  0  0  0  0  0  0  0  0
  153.0043  142.8468  157.1468 H   0  0  0  0  0  0  0  0  0  0  0  0
  151.2708  142.6706  157.0641 H   0  0  0  0  0  0  0  0  0  0  0  0
  152.8948  145.0910  157.6759 H   0  0  0  0  0  0  0  0  0  0  0  0
  151.2682  145.0277  157.0075 H   0  0  0  0  0  0  0  0  0  0  0  0
  151.6087  145.8643  159.5542 H   0  0  0  0  0  0  0  0  0  0  0  0
  150.2968  144.7434  159.1891 H   0  0  0  0  0  0  0  0  0  0  0  0
  153.0570  144.0724  160.2506 H   0  0  0  0  0  0  0  0  0  0  0  0
  150.6438  144.2082  161.2828 H   0  0  0  0  0  0  0  0  0  0  0  0
  153.7950  139.5618  154.6003 H   0  0  0  0  0  0  0  0  0  0  0  0
  146.9796  139.4690  155.9429 H   0  0  0  0  0  0  0  0  0  0  0  0
  146.1983  141.6375  155.2865 H   0  0  0  0  0  0  0  0  0  0  0  0
  145.3906  140.9809  153.8571 H   0  0  0  0  0  0  0  0  0  0  0  0
  144.7031  140.4064  156.7539 H   0  0  0  0  0  0  0  0  0  0  0  0
  143.6047  140.8814  155.4553 H   0  0  0  0  0  0  0  0  0  0  0  0
  145.3240  138.1333  153.7788 H   0  0  0  0  0  0  0  0  0  0  0  0
  145.8390  137.4894  155.3345 H   0  0  0  0  0  0  0  0  0  0  0  0
  1  2  1  0  0  0  0
  1 31  1  0  0  0  0
  2  3  1  0  0  0  0
  2 32  1  0  0  0  0
  2 33  1  0  0  0  0
  3  4  1  0  0  0  0
  3 26  1  0  0  0  0
  3 34  1  0  0  0  0
  4  5  1  0  0  0  0
  4 35  1  0  0  0  0
  4 36  1  0  0  0  0
  5 25  1  0  0  0  0
  5  6  1  0  0  0  0
  6  7  2  0  0  0  0
  6 37  1  0  0  0  0
  7  8  1  0  0  0  0
  8 25  2  0  0  0  0
  8  9  1  0  0  0  0
  9 10  1  0  0  0  0
  9 22  2  0  0  0  0
 10 15  1  0  0  0  0
 10 11  1  0  0  0  0
 11 12  1  0  0  0  0
 11 38  1  0  0  0  0
 11 39  1  0  0  0  0
 12 13  1  0  0  0  0
 12 40  1  0  0  0  0
 12 41  1  0  0  0  0
 13 14  1  0  0  0  0
 13 42  1  0  0  0  0
 13 43  1  0  0  0  0
 14 15  1  0  0  0  0
 14 44  1  0  0  0  0
 14 45  1  0  0  0  0
 15 16  1  0  0  0  0
 15 46  1  0  0  0  0
 16 20  1  0  0  0  0
 16 17  1  0  0  0  0
 16 47  1  0  0  0  0
 17 18  1  0  0  0  0
 17 48  1  0  0  0  0
 17 49  1  0  0  0  0
 18 19  1  0  0  0  0
 18 50  1  0  0  0  0
 18 51  1  0  0  0  0
 19 20  1  0  0  0  0
 19 52  1  0  0  0  0
 19 53  1  0  0  0  0
 20 21  1  0  0  0  0
 20 54  1  0  0  0  0
 21 55  1  0  0  0  0
 22 23  1  0  0  0  0
 23 24  2  0  0  0  0
 23 56  1  0  0  0  0
 24 25  1  0  0  0  0
 26 30  1  0  0  0  0
 26 27  1  0  0  0  0
 26 57  1  0  0  0  0
 27 28  1  0  0  0  0
 27 58  1  0  0  0  0
 27 59  1  0  0  0  0
 28 29  1  0  0  0  0
 28 60  1  0  0  0  0
 28 61  1  0  0  0  0
 29 30  1  0  0  0  0
 30 62  1  0  0  0  0
 30 63  1  0  0  0  0
M  END
> <s_m_source_file>
AV-unprocessed.smi

> <i_m_source_file_index>
148

> <i_lp_mmshare_version>
43012

> <i_f3d_flags>
0

> <s_epik_input>
W0NIMl0xT1tDSDJdW0NIMl1bQ0BIXTFbQ0BIXShbQ0gyXVtPSF0pW0NIMl1uKFtjSF1uMiljKGMyMyluW2NIXW5jM040W0NIMl1bQ0gyXVtDSDJdW0NIMl1bQ0BIXTRbQ0BASF01W0NIMl1bQ0gyXVtDSDJdW0NASF01W09IXQ==

> <s_epik_cmdline>
J2VwaWtfcHl0aG9uJywgJy1waCcsICc3LjAnLCAnLXRuJywgJzgnLCAnLW1hJywgJzIwMCcsICctbWV0YWxfYmluZGluZycsICctaW1hZScsICc8aW5maWxlLm1hZT4nLCAnLW9tYWUnLCAnPG91dGZpbGUubWFlPic=

> <r_lp_tautomer_probability>
1

> <r_epik_Ionization_Penalty>
0.00556303

> <r_epik_Ionization_Penalty_Charging>
0

> <r_epik_Ionization_Penalty_Neutral>
0.00556303

> <r_epik_State_Penalty>
0.00401767

> <r_epik_Charging_Adjusted_Penalty>
0.00401767

> <i_epik_Tot_Q>
0

> <i_epik_Tot_abs_Q>
0

> <r_epik_Metal_State_Penalty>
-0

> <b_epik_Metal_Only>
0

> <s_lp_Force_Field>
OPLS_2005

> <r_lp_Energy>
68.4806

> <b_lp_Chiralities_Consistent>
1

> <s_lp_Variant>
AV-unprocessed.smi:148-20

> <Gold.Version>
5.8.1

> <Gold.Id.Protein>
6NUR|6NUR_protein|mol2

> <Gold.PLP.Fitness>
55.2498

> <Gold.PLP.PLP>
-48.0967

> <Gold.PLP.part.hbond>
-4.5297

> <Gold.PLP.part.metal>
0.0000

> <Gold.PLP.part.buried>
-5.6841

> <Gold.PLP.part.nonpolar>
-37.7784

> <Gold.PLP.part.repulsive>
0.1444

> <Gold.PLP.ligand.clash>
0.0000

> <Gold.PLP.ligand.torsion>
1.2751

> <Gold.PLP.Chemscore.Hbond>
2.9781

> <Gold.PLP.Chemscore.CHOScore>
0.0000

> <Gold.PLP.Chemscore.Metal>
0.0000

> <Gold.Chemscore.Hbonds>
donor molecule, donor type, donor heavy atom, donor atom, acceptor molecule, acceptor atom, score
      L1  H     1    31       P1  7948  1.00
      P1  H  6933  6945       L1    21  0.01
      P1  H  7954  7966       L1     1  0.11
      P1  H  7989  7998       L1    24  0.84
      P1  H  7997  8010       L1    22  0.14

> <Gold.PLP.Chemscore.Internal.Correction>
0.7688

> <Gold.Rescore>
     Score         DG    S(hbond)    S(metal)    S(lipo)     H(rot)  DE(clash)    DE(int)     intcor
     15.36     -18.38       2.11        0.00     122.54       3.32       1.55       1.47       ----

> <Gold.Chemscore.Fitness>
15.3602

> <Gold.Chemscore.DG>
-18.3794

> <Gold.Chemscore.ZeroCoef>
-5.4800

> <Gold.Chemscore.Hbond>
2.1143

> <Gold.Chemscore.Metal>
0.0000

> <Gold.Chemscore.Lipo>
122.5450

> <Gold.Chemscore.Internal_Hbond>
0.0000

> <Gold.Chemscore.DEClash>
1.5454

> <Gold.Chemscore.DEInternal>
1.4738

> <Gold.Chemscore.Rot>
3.3203

> <Gold.Chemscore.Internal.Correction>
   9.000000E+99

> <Gold.Chemscore.Hbonds>
donor molecule, donor type, donor heavy atom, donor atom, acceptor molecule, acceptor atom, score
      L1  H     1    31       P1  7948  0.94
      P1  H  7989  7998       L1    24  0.60
      P1  H  7997  8010       L1    22  0.12

> <Gold.Chemscore.Hbond.Weighted>
-7.0616

> <Gold.Chemscore.Metal.Weighted>
-0.0000

> <Gold.Chemscore.Lipo.Weighted>
-14.3378

> <Gold.Chemscore.Internal_Hbond.Weighted>
0.0000

> <Gold.Chemscore.DEClash.Weighted>
1.5454

> <Gold.Chemscore.DEInternal.Weighted>
1.4738

> <Gold.Chemscore.Rot.Weighted>
8.5000

> <Gold.Chemscore.Internal.Correction.Weighted>
   9.000000E+99

> <Gold.Protein.RotatedTorsions>
[ 6907 6896 6895 6894 ] final  -57.48 input  -60.11 | X-H torsion
[ 7974 7965 7964 7962 ] final   32.01 input  175.53 | X-H torsion
[ 8008 7997 7996 7995 ] final   50.21 input   59.86 | X-H torsion
[ 10167 10162 10161 10158 ] final   -3.50 input  -65.29 | X-H torsion
[ 10718 10713 10712 10709 ] final  179.00 input   66.30 | X-H torsion
[ 10763 10752 10751 10750 ] final  148.46 input  -60.55 | X-H torsion
[ 11005 11000 10999 10996 ] final -113.82 input  -57.11 | X-H torsion

> <Gold.Protein.ActiveResidues>
 VAL166  LYS551  ARG553  GLY616  TRP617  ASP618  TYR619  PRO620  LYS621  CYS622 
 ASP623  PHE694  ASN695  SER759  ASP760  ASP761  ALA762  ILE779  LEU786  VAL792 
 PHE793  MET794  SER795  GLU796  ALA797  LYS798  CYS799  TRP800  GLU811  SER814 

> <Gold.Protein.RotatedAtoms>
  150.8082  134.7221  159.6663 H   0  0  0  0  0  0  0  0  0  0  0  0  # atno 6907 bound_to 6896
  152.4202  134.5965  159.9998 H   0  0  0  0  0  0  0  0  0  0  0  0  # atno 6908 bound_to 6896
  151.6183  133.3304  159.3118 H   0  0  0  0  0  0  0  0  0  0  0  0  # atno 6909 bound_to 6896
  146.1513  139.6581  142.9096 H   0  0  0  0  0  0  0  0  0  0  0  0  # atno 7974 bound_to 7965
  155.4151  140.3444  155.4266 H   0  0  0  0  0  0  0  0  0  0  0  0  # atno 8008 bound_to 7997
  156.1426  140.1546  156.8928 H   0  0  0  0  0  0  0  0  0  0  0  0  # atno 8009 bound_to 7997
  154.4984  140.0821  156.7726 H   0  0  0  0  0  0  0  0  0  0  0  0  # atno 8010 bound_to 7997
  140.6892  143.6532  150.8331 H   0  0  0  0  0  0  0  0  0  0  0  0  # atno 10167 bound_to 10162
  156.8822  130.9819  151.3060 H   0  0  0  0  0  0  0  0  0  0  0  0  # atno 10718 bound_to 10713
  154.0550  135.2878  155.3334 H   0  0  0  0  0  0  0  0  0  0  0  0  # atno 10763 bound_to 10752
  154.6845  135.5251  153.8310 H   0  0  0  0  0  0  0  0  0  0  0  0  # atno 10764 bound_to 10752
  153.0545  135.6590  154.0744 H   0  0  0  0  0  0  0  0  0  0  0  0  # atno 10765 bound_to 10752
  141.0591  133.9565  157.2700 H   0  0  0  0  0  0  0  0  0  0  0  0  # atno 11005 bound_to 11000
  145.4815  141.0438  143.2643 LP  0  0  0  0  0  0  0  0  0  0  0  0  # atno 17320 bound_to 7965
  144.7908  139.6332  143.7114 LP  0  0  0  0  0  0  0  0  0  0  0  0  # atno 17321 bound_to 7965
  140.0243  143.5509  152.2787 LP  0  0  0  0  0  0  0  0  0  0  0  0  # atno 17342 bound_to 10162
  139.6279  144.7640  151.2599 LP  0  0  0  0  0  0  0  0  0  0  0  0  # atno 17343 bound_to 10162
  157.6133  130.8600  149.8988 LP  0  0  0  0  0  0  0  0  0  0  0  0  # atno 17370 bound_to 10713
  156.0671  130.3690  150.0854 LP  0  0  0  0  0  0  0  0  0  0  0  0  # atno 17371 bound_to 10713
  139.9416  135.0190  156.8726 LP  0  0  0  0  0  0  0  0  0  0  0  0  # atno 17394 bound_to 11000
  140.5905  134.0266  155.7498 LP  0  0  0  0  0  0  0  0  0  0  0  0  # atno 17395 bound_to 11000

$$$$
