AV-unprocessed.smi:174|AV-procd|sdf|1428|dock7
  -GOLD-   2262019203D 1   1.00000     0.00000
 Structure written by MMmdl.
 51 54  0  0  0  0  0  0  0  0  1 V2000
  149.2985  129.8113  156.4782 N   0  0  0  0  0  0  0  0  0  0  0  0
  149.7004  130.4876  155.3998 C   0  0  0  0  0  0  0  0  0  0  0  0
  150.6915  130.1536  154.7521 O   0  0  0  0  0  0  0  0  0  0  0  0
  148.8489  131.6995  154.9947 C   0  0  0  0  0  0  0  0  0  0  0  0
  149.5444  132.9837  155.1674 N   0  0  0  0  0  0  0  0  0  0  0  0
  150.8584  132.9287  155.8143 C   0  0  0  0  0  0  0  0  0  0  0  0
  151.1427  134.1825  156.6470 C   0  0  0  0  0  0  0  0  0  0  0  0
  150.9533  135.3792  155.8367 N   0  0  0  0  0  0  0  0  0  0  0  0
  151.5387  136.5526  156.2072 C   0  0  0  0  0  0  0  0  0  0  0  0
  152.7173  136.4822  156.8822 N   0  0  0  0  0  0  0  0  0  0  0  0
  153.3449  137.5908  157.2825 C   0  0  0  0  0  0  0  0  0  0  0  0
  152.9797  138.8614  157.1142 N   0  0  0  0  0  0  0  0  0  0  0  0
  151.8041  138.9489  156.4303 C   0  0  0  0  0  0  0  0  0  0  0  0
  151.0220  137.8597  155.9444 C   0  0  0  0  0  0  0  0  0  0  0  0
  149.8992  138.3584  155.2894 N   0  0  0  0  0  0  0  0  0  0  0  0
  150.0060  139.6543  155.3915 C   0  0  0  0  0  0  0  0  0  0  0  0
  151.1213  140.0950  156.0630 N   0  0  0  0  0  0  0  0  0  0  0  0
  151.4879  141.4768  156.3181 C   0  0  0  0  0  0  0  0  0  0  0  0
  150.6451  142.1028  157.4491 C   0  0  1  0  0  0  0  0  0  0  0  0
  150.1040  141.0908  158.2750 O   0  0  0  0  0  0  0  0  0  0  0  0
  151.4045  143.1185  158.3277 C   0  0  1  0  0  0  0  0  0  0  0  0
  151.8433  144.4216  157.6529 C   0  0  0  0  0  0  0  0  0  0  0  0
  151.9823  145.3405  158.8450 C   0  0  0  0  0  0  0  0  0  0  0  0
  150.8031  144.9045  159.7102 C   0  0  0  0  0  0  0  0  0  0  0  0
  150.6138  143.5166  159.4454 O   0  0  0  0  0  0  0  0  0  0  0  0
  149.7748  135.4672  154.9585 C   0  0  0  0  0  0  0  0  0  0  0  0
  149.0158  134.1480  154.7185 C   0  0  0  0  0  0  0  0  0  0  0  0
  147.9344  134.2022  154.1321 O   0  0  0  0  0  0  0  0  0  0  0  0
  149.8241  129.0073  156.7892 H   0  0  0  0  0  0  0  0  0  0  0  0
  148.4737  130.1055  156.9803 H   0  0  0  0  0  0  0  0  0  0  0  0
  148.5520  131.5772  153.9521 H   0  0  0  0  0  0  0  0  0  0  0  0
  147.9175  131.6928  155.5638 H   0  0  0  0  0  0  0  0  0  0  0  0
  150.9321  132.0501  156.4567 H   0  0  0  0  0  0  0  0  0  0  0  0
  151.6176  132.8154  155.0391 H   0  0  0  0  0  0  0  0  0  0  0  0
  150.4777  134.2197  157.5112 H   0  0  0  0  0  0  0  0  0  0  0  0
  152.1671  134.1242  157.0160 H   0  0  0  0  0  0  0  0  0  0  0  0
  154.2725  137.4368  157.8141 H   0  0  0  0  0  0  0  0  0  0  0  0
  149.2706  140.3284  154.9768 H   0  0  0  0  0  0  0  0  0  0  0  0
  152.5521  141.5120  156.5505 H   0  0  0  0  0  0  0  0  0  0  0  0
  151.3526  142.0373  155.3926 H   0  0  0  0  0  0  0  0  0  0  0  0
  149.8007  142.6255  156.9978 H   0  0  0  0  0  0  0  0  0  0  0  0
  149.5265  141.4948  158.9045 H   0  0  0  0  0  0  0  0  0  0  0  0
  152.2917  142.6343  158.7399 H   0  0  0  0  0  0  0  0  0  0  0  0
  152.7678  144.3149  157.0849 H   0  0  0  0  0  0  0  0  0  0  0  0
  151.0765  144.8113  156.9845 H   0  0  0  0  0  0  0  0  0  0  0  0
  152.9223  145.1445  159.3625 H   0  0  0  0  0  0  0  0  0  0  0  0
  151.9503  146.3976  158.5801 H   0  0  0  0  0  0  0  0  0  0  0  0
  150.9742  145.0892  160.7708 H   0  0  0  0  0  0  0  0  0  0  0  0
  149.8986  145.4376  159.4152 H   0  0  0  0  0  0  0  0  0  0  0  0
  149.0737  136.1933  155.3732 H   0  0  0  0  0  0  0  0  0  0  0  0
  150.0807  135.8407  153.9802 H   0  0  0  0  0  0  0  0  0  0  0  0
  1  2  1  0  0  0  0
  1 29  1  0  0  0  0
  1 30  1  0  0  0  0
  2  3  2  0  0  0  0
  2  4  1  0  0  0  0
  4  5  1  0  0  0  0
  4 31  1  0  0  0  0
  4 32  1  0  0  0  0
  5 27  1  0  0  0  0
  5  6  1  0  0  0  0
  6  7  1  0  0  0  0
  6 33  1  0  0  0  0
  6 34  1  0  0  0  0
  7  8  1  0  0  0  0
  7 35  1  0  0  0  0
  7 36  1  0  0  0  0
  8  9  1  0  0  0  0
  8 26  1  0  0  0  0
  9 14  1  0  0  0  0
  9 10  2  0  0  0  0
 10 11  1  0  0  0  0
 11 12  2  0  0  0  0
 11 37  1  0  0  0  0
 12 13  1  0  0  0  0
 13 17  1  0  0  0  0
 13 14  2  0  0  0  0
 14 15  1  0  0  0  0
 15 16  2  0  0  0  0
 16 17  1  0  0  0  0
 16 38  1  0  0  0  0
 17 18  1  0  0  0  0
 18 19  1  0  0  0  0
 18 39  1  0  0  0  0
 18 40  1  0  0  0  0
 19 20  1  0  0  0  0
 19 21  1  0  0  0  0
 19 41  1  0  0  0  0
 20 42  1  0  0  0  0
 21 25  1  0  0  0  0
 21 22  1  0  0  0  0
 21 43  1  0  0  0  0
 22 23  1  0  0  0  0
 22 44  1  0  0  0  0
 22 45  1  0  0  0  0
 23 24  1  0  0  0  0
 23 46  1  0  0  0  0
 23 47  1  0  0  0  0
 24 25  1  0  0  0  0
 24 48  1  0  0  0  0
 24 49  1  0  0  0  0
 26 27  1  0  0  0  0
 26 50  1  0  0  0  0
 26 51  1  0  0  0  0
 27 28  2  0  0  0  0
M  END
> <s_m_source_file>
AV-unprocessed.smi

> <i_m_source_file_index>
174

> <i_lp_mmshare_version>
43012

> <i_f3d_flags>
0

> <s_epik_input>
W05IMl1DKD1PKVtDSDJdTjFbQ0gyXVtDSDJdTihbQ0gyXUMxPU8pYyhuW2NIXW4yKWMoYzIzKW5bY0hdbjNbQ0gyXVtDQEhdKFtPSF0pW0NAQEhdNFtDSDJdW0NIMl1bQ0gyXU80

> <s_epik_cmdline>
J2VwaWtfcHl0aG9uJywgJy1waCcsICc3LjAnLCAnLXRuJywgJzgnLCAnLW1hJywgJzIwMCcsICctbWV0YWxfYmluZGluZycsICctaW1hZScsICc8aW5maWxlLm1hZT4nLCAnLW9tYWUnLCAnPG91dGZpbGUubWFlPic=

> <r_lp_tautomer_probability>
1

> <r_epik_Ionization_Penalty>
0.000250477

> <r_epik_Ionization_Penalty_Charging>
0

> <r_epik_Ionization_Penalty_Neutral>
0.000250477

> <r_epik_State_Penalty>
-0

> <r_epik_Charging_Adjusted_Penalty>
0

> <i_epik_Tot_Q>
0

> <i_epik_Tot_abs_Q>
0

> <r_epik_Metal_State_Penalty>
-0

> <b_epik_Metal_Only>
0

> <s_lp_Force_Field>
OPLS_2005

> <r_lp_Energy>
38.9575

> <b_lp_Chiralities_Consistent>
1

> <s_lp_Variant>
AV-unprocessed.smi:174-4

> <Gold.Version>
5.8.1

> <Gold.Id.Protein>
6NUR|6NUR_protein|mol2

> <Gold.PLP.Fitness>
44.8202

> <Gold.PLP.PLP>
-41.6593

> <Gold.PLP.part.hbond>
-2.0407

> <Gold.PLP.part.metal>
0.0000

> <Gold.PLP.part.buried>
-4.1936

> <Gold.PLP.part.nonpolar>
-34.2947

> <Gold.PLP.part.repulsive>
0.3435

> <Gold.PLP.ligand.clash>
0.6002

> <Gold.PLP.ligand.torsion>
1.1021

> <Gold.PLP.Chemscore.Hbond>
1.8960

> <Gold.PLP.Chemscore.CHOScore>
0.0000

> <Gold.PLP.Chemscore.Metal>
0.0000

> <Gold.Chemscore.Hbonds>
donor molecule, donor type, donor heavy atom, donor atom, acceptor molecule, acceptor atom, score
      P1  H  7997  8009       L1    12  1.00
      P1  H 10752 10764       L1    10  0.52

> <Gold.PLP.Chemscore.Internal.Correction>
0.2772

> <Gold.Rescore>
     Score         DG    S(hbond)    S(metal)    S(lipo)     H(rot)  DE(clash)    DE(int)     intcor
      8.01     -11.77       1.49        0.00      87.00       3.46       0.37       3.39       ----

> <Gold.Chemscore.Fitness>
8.0063

> <Gold.Chemscore.DG>
-11.7688

> <Gold.Chemscore.ZeroCoef>
-5.4800

> <Gold.Chemscore.Hbond>
1.4864

> <Gold.Chemscore.Metal>
0.0000

> <Gold.Chemscore.Lipo>
87.0036

> <Gold.Chemscore.Internal_Hbond>
0.0000

> <Gold.Chemscore.DEClash>
0.3686

> <Gold.Chemscore.DEInternal>
3.3940

> <Gold.Chemscore.Rot>
3.4591

> <Gold.Chemscore.Internal.Correction>
   9.000000E+99

> <Gold.Chemscore.Hbonds>
donor molecule, donor type, donor heavy atom, donor atom, acceptor molecule, acceptor atom, score
      P1  H  7997  8009       L1    12  0.87
      P1  H 10752 10764       L1    10  0.05

> <Gold.Chemscore.Hbond.Weighted>
-4.9647

> <Gold.Chemscore.Metal.Weighted>
-0.0000

> <Gold.Chemscore.Lipo.Weighted>
-10.1794

> <Gold.Chemscore.Internal_Hbond.Weighted>
0.0000

> <Gold.Chemscore.DEClash.Weighted>
0.3686

> <Gold.Chemscore.DEInternal.Weighted>
3.3940

> <Gold.Chemscore.Rot.Weighted>
8.8553

> <Gold.Chemscore.Internal.Correction.Weighted>
   9.000000E+99

> <Gold.Protein.RotatedTorsions>
[ 6907 6896 6895 6894 ] final   63.92 input  -60.11 | X-H torsion
[ 7974 7965 7964 7962 ] final   68.15 input  175.53 | X-H torsion
[ 8008 7997 7996 7995 ] final  174.09 input   59.86 | X-H torsion
[ 10167 10162 10161 10158 ] final   -8.82 input  -65.29 | X-H torsion
[ 10718 10713 10712 10709 ] final  -28.22 input   66.30 | X-H torsion
[ 10763 10752 10751 10750 ] final    9.53 input  -60.55 | X-H torsion
[ 11005 11000 10999 10996 ] final -155.73 input  -57.11 | X-H torsion

> <Gold.Protein.ActiveResidues>
 VAL166  LYS551  ARG553  GLY616  TRP617  ASP618  TYR619  PRO620  LYS621  CYS622 
 ASP623  PHE694  ASN695  SER759  ASP760  ASP761  ALA762  ILE779  LEU786  VAL792 
 PHE793  MET794  SER795  GLU796  ALA797  LYS798  CYS799  TRP800  GLU811  SER814 

> <Gold.Protein.RotatedAtoms>
  152.4291  134.5812  159.9948 H   0  0  0  0  0  0  0  0  0  0  0  0  # atno 6907 bound_to 6896
  151.5941  133.3357  159.3041 H   0  0  0  0  0  0  0  0  0  0  0  0  # atno 6908 bound_to 6896
  150.8182  134.7412  159.6814 H   0  0  0  0  0  0  0  0  0  0  0  0  # atno 6909 bound_to 6896
  145.8061  139.3007  143.1126 H   0  0  0  0  0  0  0  0  0  0  0  0  # atno 7974 bound_to 7965
  156.1009  140.1443  156.9469 H   0  0  0  0  0  0  0  0  0  0  0  0  # atno 8008 bound_to 7997
  154.4702  140.0912  156.7169 H   0  0  0  0  0  0  0  0  0  0  0  0  # atno 8009 bound_to 7997
  155.4761  140.3443  155.4335 H   0  0  0  0  0  0  0  0  0  0  0  0  # atno 8010 bound_to 7997
  140.7070  143.5926  150.8878 H   0  0  0  0  0  0  0  0  0  0  0  0  # atno 10167 bound_to 10162
  156.4281  130.4439  149.7137 H   0  0  0  0  0  0  0  0  0  0  0  0  # atno 10718 bound_to 10713
  153.2130  135.6871  153.8090 H   0  0  0  0  0  0  0  0  0  0  0  0  # atno 10763 bound_to 10752
  153.7316  135.3252  155.3288 H   0  0  0  0  0  0  0  0  0  0  0  0  # atno 10764 bound_to 10752
  154.8232  135.4637  154.0946 H   0  0  0  0  0  0  0  0  0  0  0  0  # atno 10765 bound_to 10752
  140.6833  134.4121  157.5225 H   0  0  0  0  0  0  0  0  0  0  0  0  # atno 11005 bound_to 11000
  145.9827  140.8669  143.0106 LP  0  0  0  0  0  0  0  0  0  0  0  0  # atno 17320 bound_to 7965
  144.6763  140.2103  143.7377 LP  0  0  0  0  0  0  0  0  0  0  0  0  # atno 17321 bound_to 7965
  139.9652  143.6119  152.2990 LP  0  0  0  0  0  0  0  0  0  0  0  0  # atno 17342 bound_to 10162
  139.6686  144.7661  151.1826 LP  0  0  0  0  0  0  0  0  0  0  0  0  # atno 17343 bound_to 10162
  156.4051  130.7694  151.2704 LP  0  0  0  0  0  0  0  0  0  0  0  0  # atno 17370 bound_to 10713
  157.7508  131.0228  150.3808 LP  0  0  0  0  0  0  0  0  0  0  0  0  # atno 17371 bound_to 10713
  139.8945  134.8705  156.2174 LP  0  0  0  0  0  0  0  0  0  0  0  0  # atno 17394 bound_to 11000
  141.0300  133.6994  156.1413 LP  0  0  0  0  0  0  0  0  0  0  0  0  # atno 17395 bound_to 11000

$$$$
