AV-unprocessed.smi:1978|AV-procd|sdf|7996|dock9
  -GOLD-   2272010183D 1   1.00000     0.00000
 Structure written by MMmdl.
 45 46  0  0  0  0  0  0  0  0  2 V2000
  146.0892  130.1668  152.3850 C   0  0  0  0  0  0  0  0  0  0  0  0
  147.0616  131.1581  152.9260 C   0  0  0  0  0  0  0  0  0  0  0  0
  147.1108  132.5236  152.8998 C   0  0  0  0  0  0  0  0  0  0  0  0
  148.3120  132.8135  153.5999 C   0  0  0  0  0  0  0  0  0  0  0  0
  148.7377  134.1523  153.7935 N   0  0  0  0  0  0  0  0  0  0  0  0
  149.2663  134.6887  154.9065 C   0  0  0  0  0  0  0  0  0  0  0  0
  149.4604  134.0854  155.9622 O   0  0  0  0  0  0  0  0  0  0  0  0
  149.5762  135.9815  154.7265 N   0  0  0  0  0  0  0  0  0  0  0  0
  150.1719  136.8561  155.7342 C   0  0  0  0  0  0  0  0  0  0  0  0
  150.6097  138.2231  155.1512 C   0  0  2  0  0  0  0  0  0  0  0  0
  151.9327  138.1623  154.3557 C   0  0  0  0  0  0  0  0  0  0  0  0
  150.6259  139.2833  156.2121 N   0  3  1  0  0  0  0  0  0  0  0  0
  151.6695  139.0669  157.2584 C   0  0  0  0  0  0  0  0  0  0  0  0
  151.4679  140.0042  158.4569 C   0  0  0  0  0  0  0  0  0  0  0  0
  151.4903  141.4646  158.0023 C   0  0  0  0  0  0  0  0  0  0  0  0
  150.4418  141.6772  156.9060 C   0  0  0  0  0  0  0  0  0  0  0  0
  150.6344  140.7031  155.7218 C   0  0  2  0  0  0  0  0  0  0  0  0
  149.5599  141.0020  154.6559 C   0  0  0  0  0  0  0  0  0  0  0  0
  148.9381  131.7241  154.0176 N   0  0  0  0  0  0  0  0  0  0  0  0
  148.1397  130.6576  153.5880 O   0  0  0  0  0  0  0  0  0  0  0  0
  145.2421  130.6670  151.9154 H   0  0  0  0  0  0  0  0  0  0  0  0
  145.7059  129.5278  153.1805 H   0  0  0  0  0  0  0  0  0  0  0  0
  146.5628  129.5305  151.6373 H   0  0  0  0  0  0  0  0  0  0  0  0
  146.4013  133.2018  152.4496 H   0  0  0  0  0  0  0  0  0  0  0  0
  148.6394  134.7623  152.9954 H   0  0  0  0  0  0  0  0  0  0  0  0
  149.3814  136.3932  153.8253 H   0  0  0  0  0  0  0  0  0  0  0  0
  149.4216  137.0156  156.5093 H   0  0  0  0  0  0  0  0  0  0  0  0
  150.9982  136.3394  156.2211 H   0  0  0  0  0  0  0  0  0  0  0  0
  149.8243  138.4599  154.4379 H   0  0  0  0  0  0  0  0  0  0  0  0
  151.8387  137.5189  153.4812 H   0  0  0  0  0  0  0  0  0  0  0  0
  152.7510  137.7689  154.9590 H   0  0  0  0  0  0  0  0  0  0  0  0
  152.2284  139.1441  153.9875 H   0  0  0  0  0  0  0  0  0  0  0  0
  151.6564  138.0424  157.6246 H   0  0  0  0  0  0  0  0  0  0  0  0
  152.6605  139.2334  156.8342 H   0  0  0  0  0  0  0  0  0  0  0  0
  150.5191  139.7807  158.9469 H   0  0  0  0  0  0  0  0  0  0  0  0
  152.2486  139.8348  159.1990 H   0  0  0  0  0  0  0  0  0  0  0  0
  151.2951  142.1262  158.8467 H   0  0  0  0  0  0  0  0  0  0  0  0
  152.4804  141.7216  157.6236 H   0  0  0  0  0  0  0  0  0  0  0  0
  149.4444  141.5486  157.3294 H   0  0  0  0  0  0  0  0  0  0  0  0
  150.4953  142.7090  156.5562 H   0  0  0  0  0  0  0  0  0  0  0  0
  151.6100  140.9060  155.2776 H   0  0  0  0  0  0  0  0  0  0  0  0
  149.4967  142.0723  154.4576 H   0  0  0  0  0  0  0  0  0  0  0  0
  148.5724  140.6703  154.9783 H   0  0  0  0  0  0  0  0  0  0  0  0
  149.7866  140.5342  153.6983 H   0  0  0  0  0  0  0  0  0  0  0  0
  149.7401  139.1806  156.6863 H   0  0  0  0  0  0  0  0  0  0  0  0
  1  2  1  0  0  0  0
  1 21  1  0  0  0  0
  1 22  1  0  0  0  0
  1 23  1  0  0  0  0
  2 20  1  0  0  0  0
  2  3  2  0  0  0  0
  3  4  1  0  0  0  0
  3 24  1  0  0  0  0
  4  5  1  0  0  0  0
  4 19  2  0  0  0  0
  5  6  1  0  0  0  0
  5 25  1  0  0  0  0
  6  7  2  0  0  0  0
  6  8  1  0  0  0  0
  8  9  1  0  0  0  0
  8 26  1  0  0  0  0
  9 10  1  0  0  0  0
  9 27  1  0  0  0  0
  9 28  1  0  0  0  0
 10 11  1  0  0  0  0
 10 12  1  0  0  0  0
 10 29  1  0  0  0  0
 11 30  1  0  0  0  0
 11 31  1  0  0  0  0
 11 32  1  0  0  0  0
 12 17  1  0  0  0  0
 12 13  1  0  0  0  0
 12 45  1  0  0  0  0
 13 14  1  0  0  0  0
 13 33  1  0  0  0  0
 13 34  1  0  0  0  0
 14 15  1  0  0  0  0
 14 35  1  0  0  0  0
 14 36  1  0  0  0  0
 15 16  1  0  0  0  0
 15 37  1  0  0  0  0
 15 38  1  0  0  0  0
 16 17  1  0  0  0  0
 16 39  1  0  0  0  0
 16 40  1  0  0  0  0
 17 18  1  0  0  0  0
 17 41  1  0  0  0  0
 18 42  1  0  0  0  0
 18 43  1  0  0  0  0
 18 44  1  0  0  0  0
 19 20  1  0  0  0  0
M  CHG  1  12   1
M  END
> <s_m_source_file>
AV-unprocessed.smi

> <i_m_source_file_index>
1978

> <i_lp_mmshare_version>
43012

> <i_f3d_flags>
0

> <s_epik_input>
W0NIM11jMVtjSF1jKG5vMSlbTkhdQyg9TylbTkhdW0NIMl1bQ0BIXShbQ0gzXSlOMltDSDJdW0NIMl1bQ0gyXVtDSDJdW0NASF0yW0NIM10=

> <s_epik_cmdline>
J2VwaWtfcHl0aG9uJywgJy1waCcsICc3LjAnLCAnLXRuJywgJzgnLCAnLW1hJywgJzIwMCcsICctbWV0YWxfYmluZGluZycsICctaW1hZScsICc8aW5maWxlLm1hZT4nLCAnLW9tYWUnLCAnPG91dGZpbGUubWFlPic=

> <r_epik_Ionization_Penalty>
0.00265971

> <r_epik_Ionization_Penalty_Charging>
0.00262393

> <r_epik_Ionization_Penalty_Neutral>
3.57846e-05

> <r_epik_State_Penalty>
0.00182566

> <r_epik_Charging_Adjusted_Penalty>
0.00444959

> <i_epik_Tot_Q>
1

> <i_epik_Tot_abs_Q>
1

> <r_epik_Metal_State_Penalty>
0.0216344

> <b_epik_Metal_Only>
0

> <s_lp_Force_Field>
OPLS_2005

> <r_lp_Energy>
21.464

> <b_lp_Chiralities_Consistent>
1

> <s_lp_Variant>
AV-unprocessed.smi:1978-5

> <Gold.Version>
5.8.1

> <Gold.Id.Protein>
6NUR|6NUR_protein|mol2

> <Gold.PLP.Fitness>
37.5919

> <Gold.PLP.PLP>
-32.8454

> <Gold.PLP.part.hbond>
-2.0000

> <Gold.PLP.part.metal>
0.0000

> <Gold.PLP.part.buried>
-4.4658

> <Gold.PLP.part.nonpolar>
-26.5994

> <Gold.PLP.part.repulsive>
0.2552

> <Gold.PLP.ligand.clash>
0.0000

> <Gold.PLP.ligand.torsion>
0.6852

> <Gold.PLP.Chemscore.Hbond>
2.0000

> <Gold.PLP.Chemscore.CHOScore>
0.0000

> <Gold.PLP.Chemscore.Metal>
0.0000

> <Gold.Chemscore.Hbonds>
donor molecule, donor type, donor heavy atom, donor atom, acceptor molecule, acceptor atom, score
      L1  H     5    25       P1  7948  1.00
      L1  H     8    26       P1  7948  1.00

> <Gold.PLP.Chemscore.Internal.Correction>
0.1168

> <Gold.Rescore>
     Score         DG    S(hbond)    S(metal)    S(lipo)     H(rot)  DE(clash)    DE(int)     intcor
     14.45     -15.30       1.57        0.00      72.93       1.55       0.07       0.78       ----

> <Gold.Chemscore.Fitness>
14.4465

> <Gold.Chemscore.DG>
-15.2964

> <Gold.Chemscore.ZeroCoef>
-5.4800

> <Gold.Chemscore.Hbond>
1.5704

> <Gold.Chemscore.Metal>
0.0000

> <Gold.Chemscore.Lipo>
72.9279

> <Gold.Chemscore.Internal_Hbond>
0.0000

> <Gold.Chemscore.DEClash>
0.0712

> <Gold.Chemscore.DEInternal>
0.7787

> <Gold.Chemscore.Rot>
1.5474

> <Gold.Chemscore.Internal.Correction>
   9.000000E+99

> <Gold.Chemscore.Hbonds>
donor molecule, donor type, donor heavy atom, donor atom, acceptor molecule, acceptor atom, score
      L1  H     5    25       P1  7948  0.30
      L1  H     8    26       P1  7948  0.79

> <Gold.Chemscore.Hbond.Weighted>
-5.2451

> <Gold.Chemscore.Metal.Weighted>
-0.0000

> <Gold.Chemscore.Lipo.Weighted>
-8.5326

> <Gold.Chemscore.Internal_Hbond.Weighted>
0.0000

> <Gold.Chemscore.DEClash.Weighted>
0.0712

> <Gold.Chemscore.DEInternal.Weighted>
0.7787

> <Gold.Chemscore.Rot.Weighted>
3.9612

> <Gold.Chemscore.Internal.Correction.Weighted>
   9.000000E+99

> <Gold.Protein.RotatedTorsions>
[ 6907 6896 6895 6894 ] final  -15.95 input  -60.11 | X-H torsion
[ 7974 7965 7964 7962 ] final   28.89 input  175.53 | X-H torsion
[ 8008 7997 7996 7995 ] final    9.32 input   59.86 | X-H torsion
[ 10167 10162 10161 10158 ] final  102.89 input  -65.29 | X-H torsion
[ 10718 10713 10712 10709 ] final  172.04 input   66.30 | X-H torsion
[ 10763 10752 10751 10750 ] final   21.79 input  -60.55 | X-H torsion
[ 11005 11000 10999 10996 ] final  -99.59 input  -57.11 | X-H torsion

> <Gold.Protein.ActiveResidues>
 VAL166  LYS551  ARG553  GLY616  TRP617  ASP618  TYR619  PRO620  LYS621  CYS622 
 ASP623  PHE694  ASN695  SER759  ASP760  ASP761  ALA762  ILE779  LEU786  VAL792 
 PHE793  MET794  SER795  GLU796  ALA797  LYS798  CYS799  TRP800  GLU811  SER814 

> <Gold.Protein.RotatedAtoms>
  151.3161  135.0807  159.9289 H   0  0  0  0  0  0  0  0  0  0  0  0  # atno 6907 bound_to 6896
  152.5267  133.9686  159.7761 H   0  0  0  0  0  0  0  0  0  0  0  0  # atno 6908 bound_to 6896
  150.9998  133.6015  159.2726 H   0  0  0  0  0  0  0  0  0  0  0  0  # atno 6909 bound_to 6896
  146.1703  139.6995  142.8972 H   0  0  0  0  0  0  0  0  0  0  0  0  # atno 7974 bound_to 7965
  154.7785  140.2814  155.6082 H   0  0  0  0  0  0  0  0  0  0  0  0  # atno 8008 bound_to 7997
  156.2946  140.2627  156.2533 H   0  0  0  0  0  0  0  0  0  0  0  0  # atno 8009 bound_to 7997
  154.9813  140.0375  157.2268 H   0  0  0  0  0  0  0  0  0  0  0  0  # atno 8010 bound_to 7997
  139.7310  144.7036  151.0722 H   0  0  0  0  0  0  0  0  0  0  0  0  # atno 10167 bound_to 10162
  156.9848  131.0130  151.2872 H   0  0  0  0  0  0  0  0  0  0  0  0  # atno 10718 bound_to 10713
  153.0966  135.6661  153.9751 H   0  0  0  0  0  0  0  0  0  0  0  0  # atno 10763 bound_to 10752
  153.9333  135.3002  155.3446 H   0  0  0  0  0  0  0  0  0  0  0  0  # atno 10764 bound_to 10752
  154.7385  135.5090  153.9157 H   0  0  0  0  0  0  0  0  0  0  0  0  # atno 10765 bound_to 10752
  141.1303  133.8333  157.0992 H   0  0  0  0  0  0  0  0  0  0  0  0  # atno 11005 bound_to 11000
  145.4358  141.0419  143.2885 LP  0  0  0  0  0  0  0  0  0  0  0  0  # atno 17320 bound_to 7965
  144.8153  139.5888  143.7011 LP  0  0  0  0  0  0  0  0  0  0  0  0  # atno 17321 bound_to 7965
  140.7771  143.5043  150.9731 LP  0  0  0  0  0  0  0  0  0  0  0  0  # atno 17342 bound_to 10162
  139.8731  143.7166  152.3164 LP  0  0  0  0  0  0  0  0  0  0  0  0  # atno 17343 bound_to 10162
  157.5501  130.8176  149.8134 LP  0  0  0  0  0  0  0  0  0  0  0  0  # atno 17370 bound_to 10713
  156.0230  130.3789  150.1905 LP  0  0  0  0  0  0  0  0  0  0  0  0  # atno 17371 bound_to 10713
  140.0344  134.9885  157.0843 LP  0  0  0  0  0  0  0  0  0  0  0  0  # atno 17394 bound_to 11000
  140.4234  134.1857  155.7165 LP  0  0  0  0  0  0  0  0  0  0  0  0  # atno 17395 bound_to 11000

$$$$
