AV-unprocessed.smi:2526|AV-procd|sdf|9938|dock3
  -GOLD-   2272013583D 1   1.00000     0.00000
 Structure written by MMmdl.
 28 29  0  0  0  0  0  0  0  0  1 V2000
  151.4432  144.4004  159.8320 C   0  0  0  0  0  0  0  0  0  0  0  0
  151.4289  143.3106  158.8798 N   0  0  0  0  0  0  0  0  0  0  0  0
  151.1921  143.3586  157.5232 C   0  0  0  0  0  0  0  0  0  0  0  0
  151.2912  142.0835  157.0397 C   0  0  0  0  0  0  0  0  0  0  0  0
  151.1261  141.6040  155.6164 C   0  0  2  0  0  0  0  0  0  0  0  0
  149.8682  142.0979  155.0475 N   0  0  0  0  0  0  0  0  0  0  0  0
  149.0346  141.4394  154.2222 C   0  0  0  0  0  0  0  0  0  0  0  0
  148.0283  141.9762  153.7651 O   0  0  0  0  0  0  0  0  0  0  0  0
  149.3327  139.9746  153.8719 C   0  0  0  0  0  0  0  0  0  0  0  0
  150.7882  139.5694  154.1468 C   0  0  0  0  0  0  0  0  0  0  0  0
  151.2328  140.0627  155.5284 C   0  0  1  0  0  0  0  0  0  0  0  0
  152.5893  139.6172  155.7922 N   0  0  0  0  0  0  0  0  0  0  0  0
  151.5991  141.3192  158.2036 C   0  0  0  0  0  0  0  0  0  0  0  0
  151.6799  142.0544  159.3000 N   0  0  0  0  0  0  0  0  0  0  0  0
  150.8975  145.2539  159.4292 H   0  0  0  0  0  0  0  0  0  0  0  0
  152.4729  144.6978  160.0309 H   0  0  0  0  0  0  0  0  0  0  0  0
  150.9725  144.0901  160.7657 H   0  0  0  0  0  0  0  0  0  0  0  0
  150.9779  144.2879  157.0160 H   0  0  0  0  0  0  0  0  0  0  0  0
  151.9097  142.0361  154.9918 H   0  0  0  0  0  0  0  0  0  0  0  0
  149.6255  143.0514  155.2747 H   0  0  0  0  0  0  0  0  0  0  0  0
  148.6628  139.3513  154.4651 H   0  0  0  0  0  0  0  0  0  0  0  0
  149.0846  139.7920  152.8256 H   0  0  0  0  0  0  0  0  0  0  0  0
  150.8803  138.4844  154.0831 H   0  0  0  0  0  0  0  0  0  0  0  0
  151.4370  139.9824  153.3726 H   0  0  0  0  0  0  0  0  0  0  0  0
  150.5823  139.6134  156.2806 H   0  0  0  0  0  0  0  0  0  0  0  0
  152.6706  139.3369  156.7591 H   0  0  0  0  0  0  0  0  0  0  0  0
  152.7894  138.7963  155.2390 H   0  0  0  0  0  0  0  0  0  0  0  0
  151.7681  140.2552  158.2822 H   0  0  0  0  0  0  0  0  0  0  0  0
  1  2  1  0  0  0  0
  1 15  1  0  0  0  0
  1 16  1  0  0  0  0
  1 17  1  0  0  0  0
  2 14  1  0  0  0  0
  2  3  1  0  0  0  0
  3  4  2  0  0  0  0
  3 18  1  0  0  0  0
  4  5  1  0  0  0  0
  4 13  1  0  0  0  0
  5 11  1  0  0  0  0
  5  6  1  0  0  0  0
  5 19  1  0  0  0  0
  6  7  1  0  0  0  0
  6 20  1  0  0  0  0
  7  8  2  0  0  0  0
  7  9  1  0  0  0  0
  9 10  1  0  0  0  0
  9 21  1  0  0  0  0
  9 22  1  0  0  0  0
 10 11  1  0  0  0  0
 10 23  1  0  0  0  0
 10 24  1  0  0  0  0
 11 12  1  0  0  0  0
 11 25  1  0  0  0  0
 12 26  1  0  0  0  0
 12 27  1  0  0  0  0
 13 14  2  0  0  0  0
 13 28  1  0  0  0  0
M  END
> <s_m_source_file>
AV-unprocessed.smi

> <i_m_source_file_index>
2526

> <i_lp_mmshare_version>
43012

> <i_f3d_flags>
0

> <s_epik_input>
W0NIM11uMVtjSF1jKFtjSF1uMSlbQ0BASF0yW05IXUMoPU8pW0NIMl1bQ0gyXVtDQEhdMltOSDJd

> <s_epik_cmdline>
J2VwaWtfcHl0aG9uJywgJy1waCcsICc3LjAnLCAnLXRuJywgJzgnLCAnLW1hJywgJzIwMCcsICctbWV0YWxfYmluZGluZycsICctaW1hZScsICc8aW5maWxlLm1hZT4nLCAnLW9tYWUnLCAnPG91dGZpbGUubWFlPic=

> <r_lp_tautomer_probability>
1

> <r_epik_Ionization_Penalty>
2.50279

> <r_epik_Ionization_Penalty_Charging>
0

> <r_epik_Ionization_Penalty_Neutral>
2.50279

> <r_epik_State_Penalty>
2.66754

> <r_epik_Charging_Adjusted_Penalty>
2.66754

> <i_epik_Tot_Q>
0

> <i_epik_Tot_abs_Q>
0

> <r_epik_Metal_State_Penalty>
2.66721

> <b_epik_Metal_Only>
0

> <s_lp_Force_Field>
OPLS_2005

> <r_lp_Energy>
8.43832

> <b_lp_Chiralities_Consistent>
1

> <s_lp_Variant>
AV-unprocessed.smi:2526-5

> <Gold.Version>
5.8.1

> <Gold.Id.Protein>
6NUR|6NUR_protein|mol2

> <Gold.PLP.Fitness>
37.3292

> <Gold.PLP.PLP>
-29.8785

> <Gold.PLP.part.hbond>
-2.0235

> <Gold.PLP.part.metal>
0.0000

> <Gold.PLP.part.buried>
-4.6113

> <Gold.PLP.part.nonpolar>
-23.5476

> <Gold.PLP.part.repulsive>
0.3417

> <Gold.PLP.ligand.clash>
0.0000

> <Gold.PLP.ligand.torsion>
0.0925

> <Gold.PLP.Chemscore.Hbond>
1.6000

> <Gold.PLP.Chemscore.CHOScore>
0.9366

> <Gold.PLP.Chemscore.Metal>
0.0000

> <Gold.Chemscore.Hbonds>
donor molecule, donor type, donor heavy atom, donor atom, acceptor molecule, acceptor atom, score
      L1  H     6    20       P1  8028  1.00
      P1  H  7997  8009       L1    12  0.05
      L1  C     3    18       P1  8028  0.91

> <Gold.PLP.Chemscore.Internal.Correction>
0.0258

> <Gold.Rescore>
     Score         DG    S(hbond)    S(metal)    S(lipo)     H(rot)  DE(clash)    DE(int)     intcor
     14.20     -14.23       1.00        0.00      68.15       1.00       0.02       0.01       ----

> <Gold.Chemscore.Fitness>
14.2029

> <Gold.Chemscore.DG>
-14.2326

> <Gold.Chemscore.ZeroCoef>
-5.4800

> <Gold.Chemscore.Hbond>
0.9998

> <Gold.Chemscore.Metal>
0.0000

> <Gold.Chemscore.Lipo>
68.1482

> <Gold.Chemscore.Internal_Hbond>
0.0000

> <Gold.Chemscore.DEClash>
0.0168

> <Gold.Chemscore.DEInternal>
0.0129

> <Gold.Chemscore.Rot>
1.0000

> <Gold.Chemscore.Internal.Correction>
   9.000000E+99

> <Gold.Chemscore.Hbonds>
donor molecule, donor type, donor heavy atom, donor atom, acceptor molecule, acceptor atom, score
      L1  H     6    20       P1  8028  1.00

> <Gold.Chemscore.Hbond.Weighted>
-3.3393

> <Gold.Chemscore.Metal.Weighted>
-0.0000

> <Gold.Chemscore.Lipo.Weighted>
-7.9733

> <Gold.Chemscore.Internal_Hbond.Weighted>
0.0000

> <Gold.Chemscore.DEClash.Weighted>
0.0168

> <Gold.Chemscore.DEInternal.Weighted>
0.0129

> <Gold.Chemscore.Rot.Weighted>
2.5600

> <Gold.Chemscore.Internal.Correction.Weighted>
   9.000000E+99

> <Gold.Protein.RotatedTorsions>
[ 6907 6896 6895 6894 ] final    4.88 input  -60.11 | X-H torsion
[ 7974 7965 7964 7962 ] final  -58.98 input  175.53 | X-H torsion
[ 8008 7997 7996 7995 ] final -148.96 input   59.86 | X-H torsion
[ 10167 10162 10161 10158 ] final   54.51 input  -65.29 | X-H torsion
[ 10718 10713 10712 10709 ] final  -24.60 input   66.30 | X-H torsion
[ 10763 10752 10751 10750 ] final  -22.45 input  -60.55 | X-H torsion
[ 11005 11000 10999 10996 ] final -114.45 input  -57.11 | X-H torsion

> <Gold.Protein.ActiveResidues>
 VAL166  LYS551  ARG553  GLY616  TRP617  ASP618  TYR619  PRO620  LYS621  CYS622 
 ASP623  PHE694  ASN695  SER759  ASP760  ASP761  ALA762  ILE779  LEU786  VAL792 
 PHE793  MET794  SER795  GLU796  ALA797  LYS798  CYS799  TRP800  GLU811  SER814 

> <Gold.Protein.RotatedAtoms>
  151.6485  135.1004  160.0155 H   0  0  0  0  0  0  0  0  0  0  0  0  # atno 6907 bound_to 6896
  152.4014  133.6819  159.6328 H   0  0  0  0  0  0  0  0  0  0  0  0  # atno 6908 bound_to 6896
  150.7914  133.8701  159.3297 H   0  0  0  0  0  0  0  0  0  0  0  0  # atno 6909 bound_to 6896
  145.8328  140.8468  143.0074 H   0  0  0  0  0  0  0  0  0  0  0  0  # atno 7974 bound_to 7965
  155.5999  140.0661  157.2735 H   0  0  0  0  0  0  0  0  0  0  0  0  # atno 8008 bound_to 7997
  154.4281  140.1820  156.1210 H   0  0  0  0  0  0  0  0  0  0  0  0  # atno 8009 bound_to 7997
  156.0167  140.3321  155.7000 H   0  0  0  0  0  0  0  0  0  0  0  0  # atno 8010 bound_to 7997
  140.2294  144.3704  150.6420 H   0  0  0  0  0  0  0  0  0  0  0  0  # atno 10167 bound_to 10162
  156.4755  130.4534  149.6843 H   0  0  0  0  0  0  0  0  0  0  0  0  # atno 10718 bound_to 10713
  153.6521  135.6980  153.5205 H   0  0  0  0  0  0  0  0  0  0  0  0  # atno 10763 bound_to 10752
  153.2698  135.4218  155.0976 H   0  0  0  0  0  0  0  0  0  0  0  0  # atno 10764 bound_to 10752
  154.8474  135.3575  154.6066 H   0  0  0  0  0  0  0  0  0  0  0  0  # atno 10765 bound_to 10752
  141.0551  133.9626  157.2769 H   0  0  0  0  0  0  0  0  0  0  0  0  # atno 11005 bound_to 11000
  144.6738  140.0698  143.7473 LP  0  0  0  0  0  0  0  0  0  0  0  0  # atno 17320 bound_to 7965
  145.9551  139.2761  143.1189 LP  0  0  0  0  0  0  0  0  0  0  0  0  # atno 17321 bound_to 7965
  140.6197  143.2175  151.6720 LP  0  0  0  0  0  0  0  0  0  0  0  0  # atno 17342 bound_to 10162
  139.5115  144.3505  152.0656 LP  0  0  0  0  0  0  0  0  0  0  0  0  # atno 17343 bound_to 10162
  156.3574  130.7464  151.2431 LP  0  0  0  0  0  0  0  0  0  0  0  0  # atno 17370 bound_to 10713
  157.7488  131.0360  150.4388 LP  0  0  0  0  0  0  0  0  0  0  0  0  # atno 17371 bound_to 10713
  139.9383  135.0194  156.8627 LP  0  0  0  0  0  0  0  0  0  0  0  0  # atno 17394 bound_to 11000
  140.5980  134.0198  155.7526 LP  0  0  0  0  0  0  0  0  0  0  0  0  # atno 17395 bound_to 11000

$$$$
