AV-unprocessed.smi:170|AV-procd|sdf|1408|dock2
  -GOLD-   2262019163D 1   1.00000     0.00000
 Structure written by MMmdl.
 57 61  0  0  0  0  0  0  0  0  1 V2000
  145.5835  145.7629  158.6454 O   0  0  0  0  0  0  0  0  0  0  0  0
  144.3745  145.1477  158.2417 C   0  0  2  0  0  0  0  0  0  0  0  0
  144.3918  143.6653  158.6636 C   0  0  0  0  0  0  0  0  0  0  0  0
  145.5912  142.9768  158.2213 N   0  0  0  0  0  0  0  0  0  0  0  0
  146.6550  142.5847  159.0027 C   0  0  0  0  0  0  0  0  0  0  0  0
  147.6195  141.9777  158.3657 N   0  0  0  0  0  0  0  0  0  0  0  0
  147.1845  141.9498  157.0466 C   0  0  0  0  0  0  0  0  0  0  0  0
  147.7347  141.4483  155.8373 C   0  0  0  0  0  0  0  0  0  0  0  0
  148.9314  140.8136  155.8070 N   0  0  0  0  0  0  0  0  0  0  0  0
  148.9758  139.9002  154.6696 C   0  0  0  0  0  0  0  0  0  0  0  0
  150.2478  139.0446  154.7146 C   0  0  0  0  0  0  0  0  0  0  0  0
  151.3768  139.9055  154.7453 O   0  0  0  0  0  0  0  0  0  0  0  0
  151.3898  140.7152  155.9147 C   0  0  0  0  0  0  0  0  0  0  0  0
  150.1431  141.6316  155.9644 C   0  0  2  0  0  0  0  0  0  0  0  0
  150.1192  142.4676  157.2720 C   0  0  0  0  0  0  0  0  0  0  0  0
  151.4905  142.9712  157.7198 C   0  0  0  0  0  0  0  0  0  0  0  0
  151.7575  143.2332  159.2099 C   0  0  0  0  0  0  0  0  0  0  0  0
  152.6573  144.4006  158.7946 C   0  0  0  0  0  0  0  0  0  0  0  0
  151.8903  144.4335  157.4702 C   0  0  0  0  0  0  0  0  0  0  0  0
  146.9999  141.5880  154.7012 N   0  0  0  0  0  0  0  0  0  0  0  0
  145.8110  142.1976  154.7441 C   0  0  0  0  0  0  0  0  0  0  0  0
  145.1789  142.7230  155.7963 N   0  0  0  0  0  0  0  0  0  0  0  0
  145.9101  142.5725  156.9380 C   0  0  0  0  0  0  0  0  0  0  0  0
  144.1717  145.3129  156.7214 C   0  0  2  0  0  0  0  0  0  0  0  0
  144.0760  146.7430  156.1787 C   0  0  0  0  0  0  0  0  0  0  0  0
  143.3010  146.5197  154.8997 C   0  0  0  0  0  0  0  0  0  0  0  0
  142.3100  145.4385  155.3233 C   0  0  0  0  0  0  0  0  0  0  0  0
  142.9941  144.6389  156.2847 O   0  0  0  0  0  0  0  0  0  0  0  0
  146.2322  145.6086  157.9753 H   0  0  0  0  0  0  0  0  0  0  0  0
  143.5537  145.6465  158.7589 H   0  0  0  0  0  0  0  0  0  0  0  0
  144.3332  143.5811  159.7494 H   0  0  0  0  0  0  0  0  0  0  0  0
  143.5229  143.1412  158.2635 H   0  0  0  0  0  0  0  0  0  0  0  0
  146.6907  142.7620  160.0679 H   0  0  0  0  0  0  0  0  0  0  0  0
  148.0998  139.2499  154.6709 H   0  0  0  0  0  0  0  0  0  0  0  0
  148.9485  140.4749  153.7424 H   0  0  0  0  0  0  0  0  0  0  0  0
  150.2477  138.3842  155.5834 H   0  0  0  0  0  0  0  0  0  0  0  0
  150.3069  138.4113  153.8295 H   0  0  0  0  0  0  0  0  0  0  0  0
  151.4442  140.0820  156.8020 H   0  0  0  0  0  0  0  0  0  0  0  0
  152.3040  141.3076  155.8911 H   0  0  0  0  0  0  0  0  0  0  0  0
  150.1981  142.3124  155.1137 H   0  0  0  0  0  0  0  0  0  0  0  0
  149.4613  143.3281  157.1544 H   0  0  0  0  0  0  0  0  0  0  0  0
  149.6732  141.8714  158.0689 H   0  0  0  0  0  0  0  0  0  0  0  0
  152.2851  142.3238  157.3436 H   0  0  0  0  0  0  0  0  0  0  0  0
  150.8691  143.5611  159.7522 H   0  0  0  0  0  0  0  0  0  0  0  0
  152.2703  142.4245  159.7314 H   0  0  0  0  0  0  0  0  0  0  0  0
  152.5550  145.2978  159.4058 H   0  0  0  0  0  0  0  0  0  0  0  0
  153.7014  144.1080  158.6719 H   0  0  0  0  0  0  0  0  0  0  0  0
  152.5081  144.5927  156.5860 H   0  0  0  0  0  0  0  0  0  0  0  0
  151.0379  145.1149  157.4929 H   0  0  0  0  0  0  0  0  0  0  0  0
  145.2910  142.2734  153.8005 H   0  0  0  0  0  0  0  0  0  0  0  0
  144.9937  144.8126  156.2066 H   0  0  0  0  0  0  0  0  0  0  0  0
  143.5039  147.3920  156.8422 H   0  0  0  0  0  0  0  0  0  0  0  0
  145.0518  147.2007  156.0134 H   0  0  0  0  0  0  0  0  0  0  0  0
  142.8153  147.4218  154.5269 H   0  0  0  0  0  0  0  0  0  0  0  0
  143.9634  146.1390  154.1209 H   0  0  0  0  0  0  0  0  0  0  0  0
  141.4416  145.8898  155.8050 H   0  0  0  0  0  0  0  0  0  0  0  0
  141.9582  144.8404  154.4823 H   0  0  0  0  0  0  0  0  0  0  0  0
  1  2  1  0  0  0  0
  1 29  1  0  0  0  0
  2  3  1  0  0  0  0
  2 24  1  0  0  0  0
  2 30  1  0  0  0  0
  3  4  1  0  0  0  0
  3 31  1  0  0  0  0
  3 32  1  0  0  0  0
  4 23  1  0  0  0  0
  4  5  1  0  0  0  0
  5  6  2  0  0  0  0
  5 33  1  0  0  0  0
  6  7  1  0  0  0  0
  7 23  2  0  0  0  0
  7  8  1  0  0  0  0
  8  9  1  0  0  0  0
  8 20  2  0  0  0  0
  9 14  1  0  0  0  0
  9 10  1  0  0  0  0
 10 11  1  0  0  0  0
 10 34  1  0  0  0  0
 10 35  1  0  0  0  0
 11 12  1  0  0  0  0
 11 36  1  0  0  0  0
 11 37  1  0  0  0  0
 12 13  1  0  0  0  0
 13 14  1  0  0  0  0
 13 38  1  0  0  0  0
 13 39  1  0  0  0  0
 14 15  1  0  0  0  0
 14 40  1  0  0  0  0
 15 16  1  0  0  0  0
 15 41  1  0  0  0  0
 15 42  1  0  0  0  0
 16 19  1  0  0  0  0
 16 17  1  0  0  0  0
 16 43  1  0  0  0  0
 17 18  1  0  0  0  0
 17 44  1  0  0  0  0
 17 45  1  0  0  0  0
 18 19  1  0  0  0  0
 18 46  1  0  0  0  0
 18 47  1  0  0  0  0
 19 48  1  0  0  0  0
 19 49  1  0  0  0  0
 20 21  1  0  0  0  0
 21 22  2  0  0  0  0
 21 50  1  0  0  0  0
 22 23  1  0  0  0  0
 24 28  1  0  0  0  0
 24 25  1  0  0  0  0
 24 51  1  0  0  0  0
 25 26  1  0  0  0  0
 25 52  1  0  0  0  0
 25 53  1  0  0  0  0
 26 27  1  0  0  0  0
 26 54  1  0  0  0  0
 26 55  1  0  0  0  0
 27 28  1  0  0  0  0
 27 56  1  0  0  0  0
 27 57  1  0  0  0  0
M  END
> <s_m_source_file>
AV-unprocessed.smi

> <i_m_source_file_index>
170

> <i_lp_mmshare_version>
43012

> <i_f3d_flags>
0

> <s_epik_input>
TzFbQ0gyXVtDSDJdW0NIMl1bQ0BIXTFbQ0BIXShbT0hdKVtDSDJdbihbY0hdbjIpYyhjMjMpbltjSF1uYzNONFtDSDJdW0NIMl1PW0NIMl1bQ0BIXTRbQ0gyXVtDSF01W0NIMl1bQ0gyXVtDSDJdNQ==

> <s_epik_cmdline>
J2VwaWtfcHl0aG9uJywgJy1waCcsICc3LjAnLCAnLXRuJywgJzgnLCAnLW1hJywgJzIwMCcsICctbWV0YWxfYmluZGluZycsICctaW1hZScsICc8aW5maWxlLm1hZT4nLCAnLW9tYWUnLCAnPG91dGZpbGUubWFlPic=

> <r_lp_tautomer_probability>
1

> <r_epik_Ionization_Penalty>
4.98275e-05

> <r_epik_Ionization_Penalty_Charging>
0

> <r_epik_Ionization_Penalty_Neutral>
4.98275e-05

> <r_epik_State_Penalty>
-0

> <r_epik_Charging_Adjusted_Penalty>
0

> <i_epik_Tot_Q>
0

> <i_epik_Tot_abs_Q>
0

> <r_epik_Metal_State_Penalty>
-0

> <b_epik_Metal_Only>
0

> <s_lp_Force_Field>
OPLS_2005

> <r_lp_Energy>
52.7672

> <b_lp_Chiralities_Consistent>
1

> <s_lp_Variant>
AV-unprocessed.smi:170-3

> <Gold.Version>
5.8.1

> <Gold.Id.Protein>
6NUR|6NUR_protein|mol2

> <Gold.PLP.Fitness>
48.5460

> <Gold.PLP.PLP>
-44.8351

> <Gold.PLP.part.hbond>
-2.1671

> <Gold.PLP.part.metal>
0.0000

> <Gold.PLP.part.buried>
-5.5299

> <Gold.PLP.part.nonpolar>
-37.7186

> <Gold.PLP.part.repulsive>
0.5109

> <Gold.PLP.ligand.clash>
0.3815

> <Gold.PLP.ligand.torsion>
1.3587

> <Gold.PLP.Chemscore.Hbond>
1.9920

> <Gold.PLP.Chemscore.CHOScore>
0.1840

> <Gold.PLP.Chemscore.Metal>
0.0000

> <Gold.Chemscore.Hbonds>
donor molecule, donor type, donor heavy atom, donor atom, acceptor molecule, acceptor atom, score
      L1  H     1    29       P1  8029  1.00
      P1  H  7989  7998       L1    12  1.00
      L1  C    21    50       P1 10175  0.16

> <Gold.PLP.Chemscore.Internal.Correction>
0.2818

> <Gold.Rescore>
     Score         DG    S(hbond)    S(metal)    S(lipo)     H(rot)  DE(clash)    DE(int)     intcor
     13.67     -17.68       1.82        0.00     109.62       2.61       0.01       4.00       ----

> <Gold.Chemscore.Fitness>
13.6718

> <Gold.Chemscore.DG>
-17.6756

> <Gold.Chemscore.ZeroCoef>
-5.4800

> <Gold.Chemscore.Hbond>
1.8154

> <Gold.Chemscore.Metal>
0.0000

> <Gold.Chemscore.Lipo>
109.6172

> <Gold.Chemscore.Internal_Hbond>
0.0000

> <Gold.Chemscore.DEClash>
0.0063

> <Gold.Chemscore.DEInternal>
3.9976

> <Gold.Chemscore.Rot>
2.6144

> <Gold.Chemscore.Internal.Correction>
   9.000000E+99

> <Gold.Chemscore.Hbonds>
donor molecule, donor type, donor heavy atom, donor atom, acceptor molecule, acceptor atom, score
      L1  H     1    29       P1  8029  0.90
      P1  H  7989  7998       L1    12  0.57

> <Gold.Chemscore.Hbond.Weighted>
-6.0634

> <Gold.Chemscore.Metal.Weighted>
-0.0000

> <Gold.Chemscore.Lipo.Weighted>
-12.8252

> <Gold.Chemscore.Internal_Hbond.Weighted>
0.0000

> <Gold.Chemscore.DEClash.Weighted>
0.0063

> <Gold.Chemscore.DEInternal.Weighted>
3.9976

> <Gold.Chemscore.Rot.Weighted>
6.6929

> <Gold.Chemscore.Internal.Correction.Weighted>
   9.000000E+99

> <Gold.Protein.RotatedTorsions>
[ 6907 6896 6895 6894 ] final  -10.55 input  -60.11 | X-H torsion
[ 7974 7965 7964 7962 ] final  139.79 input  175.53 | X-H torsion
[ 8008 7997 7996 7995 ] final  -98.31 input   59.86 | X-H torsion
[ 10167 10162 10161 10158 ] final  -47.49 input  -65.29 | X-H torsion
[ 10718 10713 10712 10709 ] final -172.00 input   66.30 | X-H torsion
[ 10763 10752 10751 10750 ] final   49.29 input  -60.55 | X-H torsion
[ 11005 11000 10999 10996 ] final   -6.46 input  -57.11 | X-H torsion

> <Gold.Protein.ActiveResidues>
 VAL166  LYS551  ARG553  GLY616  TRP617  ASP618  TYR619  PRO620  LYS621  CYS622 
 ASP623  PHE694  ASN695  SER759  ASP760  ASP761  ALA762  ILE779  LEU786  VAL792 
 PHE793  MET794  SER795  GLU796  ALA797  LYS798  CYS799  TRP800  GLU811  SER814 

> <Gold.Protein.RotatedAtoms>
  151.4002  135.0970  159.9553 H   0  0  0  0  0  0  0  0  0  0  0  0  # atno 6907 bound_to 6896
  152.5053  133.8896  159.7397 H   0  0  0  0  0  0  0  0  0  0  0  0  # atno 6908 bound_to 6896
  150.9368  133.6646  159.2827 H   0  0  0  0  0  0  0  0  0  0  0  0  # atno 6909 bound_to 6896
  144.9246  139.5124  143.5647 H   0  0  0  0  0  0  0  0  0  0  0  0  # atno 7974 bound_to 7965
  154.7995  140.0456  157.1262 H   0  0  0  0  0  0  0  0  0  0  0  0  # atno 8008 bound_to 7997
  154.9495  140.3063  155.5062 H   0  0  0  0  0  0  0  0  0  0  0  0  # atno 8009 bound_to 7997
  156.2960  140.2290  156.4572 H   0  0  0  0  0  0  0  0  0  0  0  0  # atno 8010 bound_to 7997
  140.6773  143.2782  151.3934 H   0  0  0  0  0  0  0  0  0  0  0  0  # atno 10167 bound_to 10162
  156.7492  130.9371  151.3114 H   0  0  0  0  0  0  0  0  0  0  0  0  # atno 10718 bound_to 10713
  152.9787  135.5916  154.4065 H   0  0  0  0  0  0  0  0  0  0  0  0  # atno 10763 bound_to 10752
  154.3705  135.2767  155.2271 H   0  0  0  0  0  0  0  0  0  0  0  0  # atno 10764 bound_to 10752
  154.4228  135.6055  153.6075 H   0  0  0  0  0  0  0  0  0  0  0  0  # atno 10765 bound_to 10752
  140.7022  133.8979  155.8691 H   0  0  0  0  0  0  0  0  0  0  0  0  # atno 11005 bound_to 11000
  146.3220  139.8151  142.8938 LP  0  0  0  0  0  0  0  0  0  0  0  0  # atno 17320 bound_to 7965
  145.3240  141.0251  143.3484 LP  0  0  0  0  0  0  0  0  0  0  0  0  # atno 17321 bound_to 7965
  139.6073  144.1171  152.2262 LP  0  0  0  0  0  0  0  0  0  0  0  0  # atno 17342 bound_to 10162
  140.0574  144.5884  150.7289 LP  0  0  0  0  0  0  0  0  0  0  0  0  # atno 17343 bound_to 10162
  157.6785  130.9117  150.0208 LP  0  0  0  0  0  0  0  0  0  0  0  0  # atno 17370 bound_to 10713
  156.1413  130.3642  149.9578 LP  0  0  0  0  0  0  0  0  0  0  0  0  # atno 17371 bound_to 10713
  141.0154  134.0963  157.4178 LP  0  0  0  0  0  0  0  0  0  0  0  0  # atno 17394 bound_to 11000
  139.8893  135.0104  156.6674 LP  0  0  0  0  0  0  0  0  0  0  0  0  # atno 17395 bound_to 11000

$$$$
