AV-unprocessed.smi:3284|AV-procd|sdf|12574|dock5
  -GOLD-   2272018493D 1   1.00000     0.00000
 Structure written by MMmdl.
 44 45  0  0  0  0  0  0  0  0  2 V2000
  151.1239  141.4115  157.6707 C   0  0  0  0  0  0  0  0  0  0  0  0
  151.6571  142.6020  158.4507 C   0  0  0  0  0  0  0  0  0  0  0  0
  151.5360  143.8425  157.9408 C   0  0  0  0  0  0  0  0  0  0  0  0
  151.9597  145.1032  158.6575 C   0  0  0  0  0  0  0  0  0  0  0  0
  152.0526  144.8703  160.1669 C   0  0  0  0  0  0  0  0  0  0  0  0
  152.8817  143.6171  160.4915 C   0  0  1  0  0  0  0  0  0  0  0  0
  153.0209  143.4780  162.0199 C   0  0  0  0  0  0  0  0  0  0  0  0
  152.3024  142.3305  159.8254 C   0  0  2  0  0  0  0  0  0  0  0  0
  153.3919  141.2267  159.7695 C   0  0  0  0  0  0  0  0  0  0  0  0
  152.8435  139.8655  159.9395 N   0  3  0  0  0  0  0  0  0  0  0  0
  153.2084  138.9296  158.8590 C   0  0  0  0  0  0  0  0  0  0  0  0
  151.9807  138.1558  158.3628 C   0  0  0  0  0  0  0  0  0  0  0  0
  151.9707  137.9989  156.8743 C   0  0  0  0  0  0  0  0  0  0  0  0
  152.8998  138.5156  156.0764 N   0  0  0  0  0  0  0  0  0  0  0  0
  152.5286  138.1198  154.7959 C   0  0  0  0  0  0  0  0  0  0  0  0
  151.3833  137.3642  154.8669 C   0  0  0  0  0  0  0  0  0  0  0  0
  151.0385  137.2888  156.2098 N   0  0  0  0  0  0  0  0  0  0  0  0
  149.8985  136.5796  156.7573 C   0  0  0  0  0  0  0  0  0  0  0  0
  150.4797  140.7979  158.3009 H   0  0  0  0  0  0  0  0  0  0  0  0
  151.9401  140.7977  157.2907 H   0  0  0  0  0  0  0  0  0  0  0  0
  150.5339  141.7331  156.8116 H   0  0  0  0  0  0  0  0  0  0  0  0
  151.0979  143.9834  156.9633 H   0  0  0  0  0  0  0  0  0  0  0  0
  152.9183  145.4307  158.2540 H   0  0  0  0  0  0  0  0  0  0  0  0
  151.2369  145.8928  158.4506 H   0  0  0  0  0  0  0  0  0  0  0  0
  152.4874  145.7509  160.6414 H   0  0  0  0  0  0  0  0  0  0  0  0
  151.0489  144.7613  160.5807 H   0  0  0  0  0  0  0  0  0  0  0  0
  153.8795  143.7874  160.0831 H   0  0  0  0  0  0  0  0  0  0  0  0
  152.0543  143.2913  162.4889 H   0  0  0  0  0  0  0  0  0  0  0  0
  153.4256  144.3906  162.4586 H   0  0  0  0  0  0  0  0  0  0  0  0
  153.6894  142.6677  162.3062 H   0  0  0  0  0  0  0  0  0  0  0  0
  151.4893  141.9771  160.4617 H   0  0  0  0  0  0  0  0  0  0  0  0
  153.9300  141.2906  158.8225 H   0  0  0  0  0  0  0  0  0  0  0  0
  154.1354  141.3673  160.5524 H   0  0  0  0  0  0  0  0  0  0  0  0
  153.1726  139.4929  160.8186 H   0  0  0  0  0  0  0  0  0  0  0  0
  153.6520  139.4898  158.0347 H   0  0  0  0  0  0  0  0  0  0  0  0
  153.9665  138.2352  159.2233 H   0  0  0  0  0  0  0  0  0  0  0  0
  151.9318  137.1747  158.8359 H   0  0  0  0  0  0  0  0  0  0  0  0
  151.0705  138.6798  158.6573 H   0  0  0  0  0  0  0  0  0  0  0  0
  153.1092  138.4052  153.9312 H   0  0  0  0  0  0  0  0  0  0  0  0
  150.8031  136.8847  154.0921 H   0  0  0  0  0  0  0  0  0  0  0  0
  149.3898  136.0213  155.9708 H   0  0  0  0  0  0  0  0  0  0  0  0
  149.1974  137.2907  157.1943 H   0  0  0  0  0  0  0  0  0  0  0  0
  150.2303  135.8812  157.5257 H   0  0  0  0  0  0  0  0  0  0  0  0
  151.8362  139.9330  159.9740 H   0  0  0  0  0  0  0  0  0  0  0  0
  1  2  1  0  0  0  0
  1 19  1  0  0  0  0
  1 20  1  0  0  0  0
  1 21  1  0  0  0  0
  2  8  1  0  0  0  0
  2  3  2  0  0  0  0
  3  4  1  0  0  0  0
  3 22  1  0  0  0  0
  4  5  1  0  0  0  0
  4 23  1  0  0  0  0
  4 24  1  0  0  0  0
  5  6  1  0  0  0  0
  5 25  1  0  0  0  0
  5 26  1  0  0  0  0
  6  7  1  0  0  0  0
  6  8  1  0  0  0  0
  6 27  1  0  0  0  0
  7 28  1  0  0  0  0
  7 29  1  0  0  0  0
  7 30  1  0  0  0  0
  8  9  1  0  0  0  0
  8 31  1  0  0  0  0
  9 10  1  0  0  0  0
  9 32  1  0  0  0  0
  9 33  1  0  0  0  0
 10 11  1  0  0  0  0
 10 34  1  0  0  0  0
 10 44  1  0  0  0  0
 11 12  1  0  0  0  0
 11 35  1  0  0  0  0
 11 36  1  0  0  0  0
 12 13  1  0  0  0  0
 12 37  1  0  0  0  0
 12 38  1  0  0  0  0
 13 17  1  0  0  0  0
 13 14  2  0  0  0  0
 14 15  1  0  0  0  0
 15 16  2  0  0  0  0
 15 39  1  0  0  0  0
 16 17  1  0  0  0  0
 16 40  1  0  0  0  0
 17 18  1  0  0  0  0
 18 41  1  0  0  0  0
 18 42  1  0  0  0  0
 18 43  1  0  0  0  0
M  CHG  1  10   1
M  END
> <s_m_source_file>
AV-unprocessed.smi

> <i_m_source_file_index>
3284

> <i_lp_mmshare_version>
43012

> <i_f3d_flags>
0

> <s_epik_input>
W0NIM11DMT1bQ0hdW0NIMl1bQ0gyXVtDQEBIXShbQ0gzXSlbQ0BIXTFbQ0gyXVtOSF1bQ0gyXVtDSDJdYzJuW2NIXVtjSF1uMltDSDNd

> <s_epik_cmdline>
J2VwaWtfcHl0aG9uJywgJy1waCcsICc3LjAnLCAnLXRuJywgJzgnLCAnLW1hJywgJzIwMCcsICctbWV0YWxfYmluZGluZycsICctaW1hZScsICc8aW5maWxlLm1hZT4nLCAnLW9tYWUnLCAnPG91dGZpbGUubWFlPic=

> <r_lp_tautomer_probability>
1

> <r_epik_Ionization_Penalty>
0.150779

> <r_epik_Ionization_Penalty_Charging>
0.150779

> <r_epik_Ionization_Penalty_Neutral>
1.39452e-13

> <r_epik_State_Penalty>
0.349447

> <r_epik_Charging_Adjusted_Penalty>
0.500226

> <i_epik_Tot_Q>
1

> <i_epik_Tot_abs_Q>
1

> <r_epik_Metal_State_Penalty>
0.000470967

> <b_epik_Metal_Only>
0

> <s_lp_Force_Field>
OPLS_2005

> <r_lp_Energy>
12.7203

> <b_lp_Chiralities_Consistent>
1

> <s_lp_Variant>
AV-unprocessed.smi:3284-3

> <Gold.Version>
5.8.1

> <Gold.Id.Protein>
6NUR|6NUR_protein|mol2

> <Gold.PLP.Fitness>
47.6598

> <Gold.PLP.PLP>
-44.3460

> <Gold.PLP.part.hbond>
-1.0000

> <Gold.PLP.part.metal>
0.0000

> <Gold.PLP.part.buried>
-6.5309

> <Gold.PLP.part.nonpolar>
-36.1823

> <Gold.PLP.part.repulsive>
0.1165

> <Gold.PLP.ligand.clash>
0.0000

> <Gold.PLP.ligand.torsion>
1.3859

> <Gold.PLP.Chemscore.Hbond>
1.0000

> <Gold.PLP.Chemscore.CHOScore>
1.0000

> <Gold.PLP.Chemscore.Metal>
0.0000

> <Gold.Chemscore.Hbonds>
donor molecule, donor type, donor heavy atom, donor atom, acceptor molecule, acceptor atom, score
      P1  H  7997  8010       L1    14  0.67
      L1  C    16    40       P1  7948  0.02
      L1  C    16    40       P1  7949  0.34

> <Gold.PLP.Chemscore.Internal.Correction>
0.0856

> <Gold.Rescore>
     Score         DG    S(hbond)    S(metal)    S(lipo)     H(rot)  DE(clash)    DE(int)     intcor
     18.39     -19.68       0.97        0.00     128.95       1.61       0.01       1.28       ----

> <Gold.Chemscore.Fitness>
18.3884

> <Gold.Chemscore.DG>
-19.6754

> <Gold.Chemscore.ZeroCoef>
-5.4800

> <Gold.Chemscore.Hbond>
0.9673

> <Gold.Chemscore.Metal>
0.0000

> <Gold.Chemscore.Lipo>
128.9542

> <Gold.Chemscore.Internal_Hbond>
0.0000

> <Gold.Chemscore.DEClash>
0.0073

> <Gold.Chemscore.DEInternal>
1.2797

> <Gold.Chemscore.Rot>
1.6105

> <Gold.Chemscore.Internal.Correction>
   9.000000E+99

> <Gold.Chemscore.Hbonds>
donor molecule, donor type, donor heavy atom, donor atom, acceptor molecule, acceptor atom, score
      P1  H  7997  8010       L1    14  0.64

> <Gold.Chemscore.Hbond.Weighted>
-3.2308

> <Gold.Chemscore.Metal.Weighted>
-0.0000

> <Gold.Chemscore.Lipo.Weighted>
-15.0876

> <Gold.Chemscore.Internal_Hbond.Weighted>
0.0000

> <Gold.Chemscore.DEClash.Weighted>
0.0073

> <Gold.Chemscore.DEInternal.Weighted>
1.2797

> <Gold.Chemscore.Rot.Weighted>
4.1230

> <Gold.Chemscore.Internal.Correction.Weighted>
   9.000000E+99

> <Gold.Protein.RotatedTorsions>
[ 6907 6896 6895 6894 ] final -170.71 input  -60.11 | X-H torsion
[ 7974 7965 7964 7962 ] final  161.02 input  175.53 | X-H torsion
[ 8008 7997 7996 7995 ] final   77.65 input   59.86 | X-H torsion
[ 10167 10162 10161 10158 ] final -117.71 input  -65.29 | X-H torsion
[ 10718 10713 10712 10709 ] final -105.29 input   66.30 | X-H torsion
[ 10763 10752 10751 10750 ] final   60.89 input  -60.55 | X-H torsion
[ 11005 11000 10999 10996 ] final    4.74 input  -57.11 | X-H torsion

> <Gold.Protein.ActiveResidues>
 VAL166  LYS551  ARG553  GLY616  TRP617  ASP618  TYR619  PRO620  LYS621  CYS622 
 ASP623  PHE694  ASN695  SER759  ASP760  ASP761  ALA762  ILE779  LEU786  VAL792 
 PHE793  MET794  SER795  GLU796  ALA797  LYS798  CYS799  TRP800  GLU811  SER814 

> <Gold.Protein.RotatedAtoms>
  151.5120  133.3483  159.2886 H   0  0  0  0  0  0  0  0  0  0  0  0  # atno 6907 bound_to 6896
  150.8706  134.8081  159.7163 H   0  0  0  0  0  0  0  0  0  0  0  0  # atno 6908 bound_to 6896
  152.4695  134.5004  159.9774 H   0  0  0  0  0  0  0  0  0  0  0  0  # atno 6909 bound_to 6896
  144.7707  139.7840  143.6298 H   0  0  0  0  0  0  0  0  0  0  0  0  # atno 7974 bound_to 7965
  155.8447  140.3461  155.5654 H   0  0  0  0  0  0  0  0  0  0  0  0  # atno 8008 bound_to 7997
  155.8103  140.0898  157.1927 H   0  0  0  0  0  0  0  0  0  0  0  0  # atno 8009 bound_to 7997
  154.4006  140.1449  156.3366 H   0  0  0  0  0  0  0  0  0  0  0  0  # atno 8010 bound_to 7997
  140.0653  143.4928  152.2009 H   0  0  0  0  0  0  0  0  0  0  0  0  # atno 10167 bound_to 10162
  156.0340  130.5557  150.7518 H   0  0  0  0  0  0  0  0  0  0  0  0  # atno 10718 bound_to 10713
  152.9934  135.5520  154.5946 H   0  0  0  0  0  0  0  0  0  0  0  0  # atno 10763 bound_to 10752
  154.5300  135.2813  155.1190 H   0  0  0  0  0  0  0  0  0  0  0  0  # atno 10764 bound_to 10752
  154.2509  135.6399  153.5293 H   0  0  0  0  0  0  0  0  0  0  0  0  # atno 10765 bound_to 10752
  140.5786  134.0034  155.8038 H   0  0  0  0  0  0  0  0  0  0  0  0  # atno 11005 bound_to 11000
  146.1850  139.5061  142.9842 LP  0  0  0  0  0  0  0  0  0  0  0  0  # atno 17320 bound_to 7965
  145.6334  141.0299  143.1851 LP  0  0  0  0  0  0  0  0  0  0  0  0  # atno 17321 bound_to 7965
  139.5868  144.7534  151.3499 LP  0  0  0  0  0  0  0  0  0  0  0  0  # atno 17342 bound_to 10162
  140.7152  143.7286  150.7641 LP  0  0  0  0  0  0  0  0  0  0  0  0  # atno 17343 bound_to 10162
  157.5061  131.0922  151.0256 LP  0  0  0  0  0  0  0  0  0  0  0  0  # atno 17370 bound_to 10713
  157.0624  130.5830  149.5388 LP  0  0  0  0  0  0  0  0  0  0  0  0  # atno 17371 bound_to 10713
  141.1011  133.9767  157.3078 LP  0  0  0  0  0  0  0  0  0  0  0  0  # atno 17394 bound_to 11000
  139.9328  135.0199  156.8456 LP  0  0  0  0  0  0  0  0  0  0  0  0  # atno 17395 bound_to 11000

$$$$
