AV-unprocessed.smi:109|AV-procd|sdf|1032|dock6
  -GOLD-   2262018 43D 1   1.00000     0.00000
 Structure written by MMmdl.
 58 61  0  0  0  0  0  0  0  0  1 V2000
  150.5945  140.2279  154.8143 O   0  0  0  0  0  0  0  0  0  0  0  0
  150.1125  141.4305  155.3735 C   0  0  0  0  0  0  0  0  0  0  0  0
  148.5817  141.3725  155.4971 C   0  0  0  0  0  0  0  0  0  0  0  0
  147.8653  141.4801  154.1361 C   0  0  1  0  0  0  0  0  0  0  0  0
  147.9789  140.2190  153.4004 N   0  0  0  0  0  0  0  0  0  0  0  0
  147.4720  139.0560  153.8681 C   0  0  0  0  0  0  0  0  0  0  0  0
  147.6103  138.6890  155.1685 N   0  0  0  0  0  0  0  0  0  0  0  0
  147.0905  137.5357  155.5983 C   0  0  0  0  0  0  0  0  0  0  0  0
  146.4081  136.6203  154.9078 N   0  0  0  0  0  0  0  0  0  0  0  0
  146.2686  136.9801  153.5990 C   0  0  0  0  0  0  0  0  0  0  0  0
  146.7692  138.1736  153.0073 C   0  0  0  0  0  0  0  0  0  0  0  0
  146.4378  138.2049  151.6593 N   0  0  0  0  0  0  0  0  0  0  0  0
  145.7772  137.0943  151.4705 C   0  0  0  0  0  0  0  0  0  0  0  0
  145.6305  136.2965  152.5837 N   0  0  0  0  0  0  0  0  0  0  0  0
  144.9257  134.9817  152.6744 C   0  0  2  0  0  0  0  0  0  0  0  0
  145.8424  133.9760  152.3688 O   0  0  0  0  0  0  0  0  0  0  0  0
  145.2246  133.0003  151.5376 C   0  0  2  0  0  0  0  0  0  0  0  0
  146.2969  132.2553  150.7287 C   0  0  0  0  0  0  0  0  0  0  0  0
  147.1555  131.5508  151.5996 O   0  0  0  0  0  0  0  0  0  0  0  0
  144.2878  133.8486  150.6756 C   0  0  1  0  0  0  0  0  0  0  0  0
  143.2567  133.0946  150.0648 O   0  0  0  0  0  0  0  0  0  0  0  0
  143.7737  134.8982  151.6587 C   0  0  1  0  0  0  0  0  0  0  0  0
  142.5744  134.4936  152.2955 O   0  0  0  0  0  0  0  0  0  0  0  0
  146.3862  141.9226  154.2676 C   0  0  0  0  0  0  0  0  0  0  0  0
  146.1730  143.4501  154.1456 C   0  0  0  0  0  0  0  0  0  0  0  0
  144.6844  143.8230  154.2428 C   0  0  0  0  0  0  0  0  0  0  0  0
  144.0563  143.2858  155.5376 C   0  0  0  0  0  0  0  0  0  0  0  0
  144.2538  141.7674  155.6578 C   0  0  0  0  0  0  0  0  0  0  0  0
  145.7413  141.3913  155.5668 C   0  0  0  0  0  0  0  0  0  0  0  0
  144.6022  134.9103  153.7141 H   0  0  0  0  0  0  0  0  0  0  0  0
  144.6403  132.3146  152.1550 H   0  0  0  0  0  0  0  0  0  0  0  0
  144.8609  134.3411  149.8900 H   0  0  0  0  0  0  0  0  0  0  0  0
  143.6050  135.8594  151.1707 H   0  0  0  0  0  0  0  0  0  0  0  0
  151.2398  139.8628  155.4003 H   0  0  0  0  0  0  0  0  0  0  0  0
  150.5729  141.5779  156.3508 H   0  0  0  0  0  0  0  0  0  0  0  0
  150.4214  142.2613  154.7385 H   0  0  0  0  0  0  0  0  0  0  0  0
  148.2925  140.4514  156.0047 H   0  0  0  0  0  0  0  0  0  0  0  0
  148.2557  142.1919  156.1392 H   0  0  0  0  0  0  0  0  0  0  0  0
  148.3699  142.2857  153.6042 H   0  0  0  0  0  0  0  0  0  0  0  0
  148.4657  140.2784  152.5174 H   0  0  0  0  0  0  0  0  0  0  0  0
  147.2413  137.3158  156.6449 H   0  0  0  0  0  0  0  0  0  0  0  0
  145.3765  136.8240  150.5042 H   0  0  0  0  0  0  0  0  0  0  0  0
  145.8285  131.5239  150.0693 H   0  0  0  0  0  0  0  0  0  0  0  0
  146.8685  132.9391  150.1002 H   0  0  0  0  0  0  0  0  0  0  0  0
  148.0129  131.5091  151.2042 H   0  0  0  0  0  0  0  0  0  0  0  0
  142.5895  133.6898  149.7589 H   0  0  0  0  0  0  0  0  0  0  0  0
  142.0201  134.0760  151.6542 H   0  0  0  0  0  0  0  0  0  0  0  0
  145.8452  141.4571  153.4421 H   0  0  0  0  0  0  0  0  0  0  0  0
  146.7233  143.9710  154.9297 H   0  0  0  0  0  0  0  0  0  0  0  0
  146.5663  143.8155  153.1972 H   0  0  0  0  0  0  0  0  0  0  0  0
  144.5691  144.9063  154.1962 H   0  0  0  0  0  0  0  0  0  0  0  0
  144.1495  143.4186  153.3826 H   0  0  0  0  0  0  0  0  0  0  0  0
  144.5075  143.7830  156.3974 H   0  0  0  0  0  0  0  0  0  0  0  0
  142.9930  143.5263  155.5627 H   0  0  0  0  0  0  0  0  0  0  0  0
  143.8377  141.4119  156.6009 H   0  0  0  0  0  0  0  0  0  0  0  0
  143.6996  141.2625  154.8656 H   0  0  0  0  0  0  0  0  0  0  0  0
  145.8456  140.3069  155.6184 H   0  0  0  0  0  0  0  0  0  0  0  0
  146.2642  141.7914  156.4363 H   0  0  0  0  0  0  0  0  0  0  0  0
  1  2  1  0  0  0  0
  1 34  1  0  0  0  0
  2  3  1  0  0  0  0
  2 35  1  0  0  0  0
  2 36  1  0  0  0  0
  3  4  1  0  0  0  0
  3 37  1  0  0  0  0
  3 38  1  0  0  0  0
  4  5  1  0  0  0  0
  4 24  1  0  0  0  0
  4 39  1  0  0  0  0
  5  6  1  0  0  0  0
  5 40  1  0  0  0  0
  6 11  1  0  0  0  0
  6  7  2  0  0  0  0
  7  8  1  0  0  0  0
  8  9  2  0  0  0  0
  8 41  1  0  0  0  0
  9 10  1  0  0  0  0
 10 14  1  0  0  0  0
 10 11  2  0  0  0  0
 11 12  1  0  0  0  0
 12 13  2  0  0  0  0
 13 14  1  0  0  0  0
 13 42  1  0  0  0  0
 14 15  1  0  0  0  0
 15 30  1  0  0  0  0
 15 22  1  0  0  0  0
 15 16  1  0  0  0  0
 16 17  1  0  0  0  0
 17 31  1  0  0  0  0
 17 18  1  0  0  0  0
 17 20  1  0  0  0  0
 18 19  1  0  0  0  0
 18 43  1  0  0  0  0
 18 44  1  0  0  0  0
 19 45  1  0  0  0  0
 20 32  1  0  0  0  0
 20 21  1  0  0  0  0
 20 22  1  0  0  0  0
 21 46  1  0  0  0  0
 22 33  1  0  0  0  0
 22 23  1  0  0  0  0
 23 47  1  0  0  0  0
 24 29  1  0  0  0  0
 24 25  1  0  0  0  0
 24 48  1  0  0  0  0
 25 26  1  0  0  0  0
 25 49  1  0  0  0  0
 25 50  1  0  0  0  0
 26 27  1  0  0  0  0
 26 51  1  0  0  0  0
 26 52  1  0  0  0  0
 27 28  1  0  0  0  0
 27 53  1  0  0  0  0
 27 54  1  0  0  0  0
 28 29  1  0  0  0  0
 28 55  1  0  0  0  0
 28 56  1  0  0  0  0
 29 57  1  0  0  0  0
 29 58  1  0  0  0  0
M  END
> <s_m_source_file>
AV-unprocessed.smi

> <i_m_source_file_index>
109

> <i_lp_mmshare_version>
43012

> <i_f3d_flags>
0

> <s_epik_input>
W0NIMl0xW0NIMl1bQ0gyXVtDSDJdW0NIMl1bQ0hdMVtDQEhdKFtDSDJdW0NIMl1bT0hdKVtOSF1jKG5bY0hdbjIpYyhjMjMpbltjSF1uM1tDQEBIXTRPW0NASF0oW0NIMl1bT0hdKVtDQEBIXShbT0hdKVtDQEhdNFtPSF0=

> <s_epik_cmdline>
J2VwaWtfcHl0aG9uJywgJy1waCcsICc3LjAnLCAnLXRuJywgJzgnLCAnLW1hJywgJzIwMCcsICctbWV0YWxfYmluZGluZycsICctaW1hZScsICc8aW5maWxlLm1hZT4nLCAnLW9tYWUnLCAnPG91dGZpbGUubWFlPic=

> <r_lp_tautomer_probability>
1

> <r_epik_Ionization_Penalty>
0.000793976

> <r_epik_Ionization_Penalty_Charging>
0

> <r_epik_Ionization_Penalty_Neutral>
0.000793976

> <r_epik_State_Penalty>
-0

> <r_epik_Charging_Adjusted_Penalty>
0

> <i_epik_Tot_Q>
0

> <i_epik_Tot_abs_Q>
0

> <r_epik_Metal_State_Penalty>
-0

> <b_epik_Metal_Only>
0

> <s_epik_Chemistry_Notes>
This compound contains an acetal/aminal-like group ( X-CH(R)-Y where X, Y are N, S, or O) that may be acid/base labile, releasing an aldehyde.

> <s_lp_Force_Field>
OPLS_2005

> <r_lp_Energy>
54.9407

> <b_lp_Chiralities_Consistent>
1

> <s_lp_Variant>
AV-unprocessed.smi:109-2

> <Gold.Version>
5.8.1

> <Gold.Id.Protein>
6NUR|6NUR_protein|mol2

> <Gold.PLP.Fitness>
48.6016

> <Gold.PLP.PLP>
-38.8393

> <Gold.PLP.part.hbond>
-4.4598

> <Gold.PLP.part.metal>
0.0000

> <Gold.PLP.part.buried>
-4.1389

> <Gold.PLP.part.nonpolar>
-31.4417

> <Gold.PLP.part.repulsive>
0.6091

> <Gold.PLP.ligand.clash>
0.0000

> <Gold.PLP.ligand.torsion>
2.1407

> <Gold.PLP.Chemscore.Hbond>
4.0579

> <Gold.PLP.Chemscore.CHOScore>
0.5703

> <Gold.PLP.Chemscore.Metal>
0.0000

> <Gold.Chemscore.Hbonds>
donor molecule, donor type, donor heavy atom, donor atom, acceptor molecule, acceptor atom, score
      L1  H     5    40       P1  7957  1.00
      L1  H    19    45       P1 10747  0.89
      L1  H    21    46       P1 10186  1.00
      L1  H    23    47       P1 10186  0.08
      P1  H  7989  7998       L1     1  1.00
      L1  C    13    42       P1 10171  0.57

> <Gold.PLP.Chemscore.Internal.Correction>
0.1592

> <Gold.Rescore>
     Score         DG    S(hbond)    S(metal)    S(lipo)     H(rot)  DE(clash)    DE(int)     intcor
      8.81     -12.83       3.68        0.00      77.26       5.47       0.45       3.58       ----

> <Gold.Chemscore.Fitness>
8.8067

> <Gold.Chemscore.DG>
-12.8340

> <Gold.Chemscore.ZeroCoef>
-5.4800

> <Gold.Chemscore.Hbond>
3.6849

> <Gold.Chemscore.Metal>
0.0000

> <Gold.Chemscore.Lipo>
77.2640

> <Gold.Chemscore.Internal_Hbond>
0.0000

> <Gold.Chemscore.DEClash>
0.4516

> <Gold.Chemscore.DEInternal>
3.5757

> <Gold.Chemscore.Rot>
5.4662

> <Gold.Chemscore.Internal.Correction>
   9.000000E+99

> <Gold.Chemscore.Hbonds>
donor molecule, donor type, donor heavy atom, donor atom, acceptor molecule, acceptor atom, score
      L1  H     5    40       P1  7957  1.00
      L1  H    19    45       P1 10747  0.83
      L1  H    21    46       P1 10186  1.00
      P1  H  7989  7998       L1     1  0.09

> <Gold.Chemscore.Hbond.Weighted>
-12.3076

> <Gold.Chemscore.Metal.Weighted>
-0.0000

> <Gold.Chemscore.Lipo.Weighted>
-9.0399

> <Gold.Chemscore.Internal_Hbond.Weighted>
0.0000

> <Gold.Chemscore.DEClash.Weighted>
0.4516

> <Gold.Chemscore.DEInternal.Weighted>
3.5757

> <Gold.Chemscore.Rot.Weighted>
13.9935

> <Gold.Chemscore.Internal.Correction.Weighted>
   9.000000E+99

> <Gold.Protein.RotatedTorsions>
[ 6907 6896 6895 6894 ] final  -98.68 input  -60.11 | X-H torsion
[ 7974 7965 7964 7962 ] final  126.48 input  175.53 | X-H torsion
[ 8008 7997 7996 7995 ] final  -45.13 input   59.86 | X-H torsion
[ 10167 10162 10161 10158 ] final -137.12 input  -65.29 | X-H torsion
[ 10718 10713 10712 10709 ] final  -30.36 input   66.30 | X-H torsion
[ 10763 10752 10751 10750 ] final   65.69 input  -60.55 | X-H torsion
[ 11005 11000 10999 10996 ] final  -10.24 input  -57.11 | X-H torsion

> <Gold.Protein.ActiveResidues>
 VAL166  LYS551  ARG553  GLY616  TRP617  ASP618  TYR619  PRO620  LYS621  CYS622 
 ASP623  PHE694  ASN695  SER759  ASP760  ASP761  ALA762  ILE779  LEU786  VAL792 
 PHE793  MET794  SER795  GLU796  ALA797  LYS798  CYS799  TRP800  GLU811  SER814 

> <Gold.Protein.RotatedAtoms>
  150.7055  134.1157  159.4016 H   0  0  0  0  0  0  0  0  0  0  0  0  # atno 6907 bound_to 6896
  151.9143  135.0323  160.0526 H   0  0  0  0  0  0  0  0  0  0  0  0  # atno 6908 bound_to 6896
  152.2309  133.5022  159.5252 H   0  0  0  0  0  0  0  0  0  0  0  0  # atno 6909 bound_to 6896
  145.0612  139.3803  143.5005 H   0  0  0  0  0  0  0  0  0  0  0  0  # atno 7974 bound_to 7965
  154.3999  140.1404  156.3797 H   0  0  0  0  0  0  0  0  0  0  0  0  # atno 8008 bound_to 7997
  155.8015  140.3476  155.5385 H   0  0  0  0  0  0  0  0  0  0  0  0  # atno 8009 bound_to 7997
  155.8478  140.0937  157.1684 H   0  0  0  0  0  0  0  0  0  0  0  0  # atno 8010 bound_to 7997
  139.8609  143.7078  152.2650 H   0  0  0  0  0  0  0  0  0  0  0  0  # atno 10167 bound_to 10162
  156.4008  130.4390  149.7324 H   0  0  0  0  0  0  0  0  0  0  0  0  # atno 10718 bound_to 10713
  153.0107  135.5348  154.6706 H   0  0  0  0  0  0  0  0  0  0  0  0  # atno 10763 bound_to 10752
  154.5891  135.2857  155.0656 H   0  0  0  0  0  0  0  0  0  0  0  0  # atno 10764 bound_to 10752
  154.1755  135.6525  153.5073 H   0  0  0  0  0  0  0  0  0  0  0  0  # atno 10765 bound_to 10752
  140.7426  133.8658  155.8980 H   0  0  0  0  0  0  0  0  0  0  0  0  # atno 11005 bound_to 11000
  146.3524  140.0311  142.8650 LP  0  0  0  0  0  0  0  0  0  0  0  0  # atno 17320 bound_to 7965
  145.1406  140.9569  143.4491 LP  0  0  0  0  0  0  0  0  0  0  0  0  # atno 17321 bound_to 7965
  139.7374  144.7568  151.0705 LP  0  0  0  0  0  0  0  0  0  0  0  0  # atno 17342 bound_to 10162
  140.7775  143.5013  150.9767 LP  0  0  0  0  0  0  0  0  0  0  0  0  # atno 17343 bound_to 10162
  156.4341  130.7829  151.2849 LP  0  0  0  0  0  0  0  0  0  0  0  0  # atno 17370 bound_to 10713
  157.7504  131.0145  150.3467 LP  0  0  0  0  0  0  0  0  0  0  0  0  # atno 17371 bound_to 10713
  140.9823  134.1389  157.4483 LP  0  0  0  0  0  0  0  0  0  0  0  0  # atno 17394 bound_to 11000
  139.8803  135.0014  156.6067 LP  0  0  0  0  0  0  0  0  0  0  0  0  # atno 17395 bound_to 11000

$$$$
