AV-unprocessed.smi:2844|AV-procd|sdf|10941|dock3
  -GOLD-   2272015393D 1   1.00000     0.00000
 Structure written by MMmdl.
 39 41  0  0  0  0  0  0  0  0  2 V2000
  151.9572  144.8270  160.4482 C   0  0  0  0  0  0  0  0  0  0  0  0
  151.9086  143.6341  159.5088 C   0  0  0  0  0  0  0  0  0  0  0  0
  151.1883  143.7578  158.2990 C   0  0  0  0  0  0  0  0  0  0  0  0
  151.1600  142.6490  157.4615 C   0  0  0  0  0  0  0  0  0  0  0  0
  150.5487  142.4535  156.2208 N   0  3  0  0  0  0  0  0  0  0  0  0
  150.8028  141.1890  155.7834 C   0  0  0  0  0  0  0  0  0  0  0  0
  151.5675  140.5753  156.7268 N   0  0  0  0  0  0  0  0  0  0  0  0
  152.1245  139.2167  156.7521 C   0  0  0  0  0  0  0  0  0  0  0  0
  152.4665  138.6877  155.3462 C   0  0  2  0  0  0  0  0  0  0  0  0
  153.3396  139.5965  154.7011 O   0  0  0  0  0  0  0  0  0  0  0  0
  151.2043  138.4726  154.4899 C   0  0  0  0  0  0  0  0  0  0  0  0
  150.5510  137.2068  154.7734 N   0  0  0  0  0  0  0  0  0  0  0  0
  149.2313  136.9885  155.1183 C   0  0  0  0  0  0  0  0  0  0  0  0
  149.1170  135.6419  155.2815 C   0  0  0  0  0  0  0  0  0  0  0  0
  147.6929  134.7722  155.7171 Cl  0  0  0  0  0  0  0  0  0  0  0  0
  150.4000  135.0964  155.0223 C   0  0  0  0  0  0  0  0  0  0  0  0
  151.2646  136.0528  154.7163 N   0  0  0  0  0  0  0  0  0  0  0  0
  151.8169  141.4477  157.7910 C   0  0  0  0  0  0  0  0  0  0  0  0
  152.5335  141.3092  158.9770 C   0  0  0  0  0  0  0  0  0  0  0  0
  152.5735  142.4255  159.8429 C   0  0  0  0  0  0  0  0  0  0  0  0
  153.3453  142.3039  161.1460 C   0  0  0  0  0  0  0  0  0  0  0  0
  151.3768  145.6643  160.0598 H   0  0  0  0  0  0  0  0  0  0  0  0
  152.9845  145.1669  160.5820 H   0  0  0  0  0  0  0  0  0  0  0  0
  151.5485  144.5641  161.4242 H   0  0  0  0  0  0  0  0  0  0  0  0
  150.6811  144.6751  158.0375 H   0  0  0  0  0  0  0  0  0  0  0  0
  150.4644  140.7531  154.8544 H   0  0  0  0  0  0  0  0  0  0  0  0
  153.0035  139.2138  157.3979 H   0  0  0  0  0  0  0  0  0  0  0  0
  151.3879  138.5702  157.2309 H   0  0  0  0  0  0  0  0  0  0  0  0
  152.9920  137.7365  155.4412 H   0  0  0  0  0  0  0  0  0  0  0  0
  152.8189  140.2336  154.2351 H   0  0  0  0  0  0  0  0  0  0  0  0
  150.4851  139.2707  154.6781 H   0  0  0  0  0  0  0  0  0  0  0  0
  151.4481  138.5183  153.4271 H   0  0  0  0  0  0  0  0  0  0  0  0
  148.5118  137.7881  155.2154 H   0  0  0  0  0  0  0  0  0  0  0  0
  150.7253  134.0667  155.0449 H   0  0  0  0  0  0  0  0  0  0  0  0
  153.0390  140.3890  159.2299 H   0  0  0  0  0  0  0  0  0  0  0  0
  153.8257  141.3290  161.2360 H   0  0  0  0  0  0  0  0  0  0  0  0
  152.6769  142.4261  161.9988 H   0  0  0  0  0  0  0  0  0  0  0  0
  154.1243  143.0640  161.2042 H   0  0  0  0  0  0  0  0  0  0  0  0
  149.9998  143.1309  155.7070 H   0  0  0  0  0  0  0  0  0  0  0  0
  1  2  1  0  0  0  0
  1 22  1  0  0  0  0
  1 23  1  0  0  0  0
  1 24  1  0  0  0  0
  2 20  1  0  0  0  0
  2  3  2  0  0  0  0
  3  4  1  0  0  0  0
  3 25  1  0  0  0  0
  4 18  2  0  0  0  0
  4  5  1  0  0  0  0
  5  6  2  0  0  0  0
  5 39  1  0  0  0  0
  6  7  1  0  0  0  0
  6 26  1  0  0  0  0
  7  8  1  0  0  0  0
  7 18  1  0  0  0  0
  8  9  1  0  0  0  0
  8 27  1  0  0  0  0
  8 28  1  0  0  0  0
  9 10  1  0  0  0  0
  9 11  1  0  0  0  0
  9 29  1  0  0  0  0
 10 30  1  0  0  0  0
 11 12  1  0  0  0  0
 11 31  1  0  0  0  0
 11 32  1  0  0  0  0
 12 17  1  0  0  0  0
 12 13  1  0  0  0  0
 13 14  2  0  0  0  0
 13 33  1  0  0  0  0
 14 15  1  0  0  0  0
 14 16  1  0  0  0  0
 16 17  2  0  0  0  0
 16 34  1  0  0  0  0
 18 19  1  0  0  0  0
 19 20  2  0  0  0  0
 19 35  1  0  0  0  0
 20 21  1  0  0  0  0
 21 36  1  0  0  0  0
 21 37  1  0  0  0  0
 21 38  1  0  0  0  0
M  CHG  1   5   1
M  END
> <s_m_source_file>
AV-unprocessed.smi

> <i_m_source_file_index>
2844

> <i_lp_mmshare_version>
43012

> <i_f3d_flags>
0

> <s_epik_input>
W0NIM11jKFtjSF0xKWMoW0NIM10pW2NIXWMoYzEyKW4oW2NIXW4yKVtDSDJdW0NASF0oW09IXSlbQ0gyXW4zW2NIXWMoQ2wpW2NIXW4z

> <s_epik_cmdline>
J2VwaWtfcHl0aG9uJywgJy1waCcsICc3LjAnLCAnLXRuJywgJzgnLCAnLW1hJywgJzIwMCcsICctbWV0YWxfYmluZGluZycsICctaW1hZScsICc8aW5maWxlLm1hZT4nLCAnLW9tYWUnLCAnPG91dGZpbGUubWFlPic=

> <r_lp_tautomer_probability>
1

> <r_epik_Ionization_Penalty>
1.09214

> <r_epik_Ionization_Penalty_Charging>
1.09214

> <r_epik_Ionization_Penalty_Neutral>
2.93683e-06

> <r_epik_State_Penalty>
1.14852

> <r_epik_Charging_Adjusted_Penalty>
2.24066

> <i_epik_Tot_Q>
1

> <i_epik_Tot_abs_Q>
1

> <r_epik_Metal_State_Penalty>
1.23687

> <b_epik_Metal_Only>
0

> <s_lp_Force_Field>
OPLS_2005

> <r_lp_Energy>
16.171

> <b_lp_Chiralities_Consistent>
1

> <s_lp_Variant>
AV-unprocessed.smi:2844-3

> <Gold.Version>
5.8.1

> <Gold.Id.Protein>
6NUR|6NUR_protein|mol2

> <Gold.PLP.Fitness>
58.2483

> <Gold.PLP.PLP>
-47.5719

> <Gold.PLP.part.hbond>
-4.0000

> <Gold.PLP.part.metal>
0.0000

> <Gold.PLP.part.buried>
-5.5319

> <Gold.PLP.part.nonpolar>
-38.1542

> <Gold.PLP.part.repulsive>
0.2704

> <Gold.PLP.ligand.clash>
0.0000

> <Gold.PLP.ligand.torsion>
0.6682

> <Gold.PLP.Chemscore.Hbond>
4.0000

> <Gold.PLP.Chemscore.CHOScore>
0.0000

> <Gold.PLP.Chemscore.Metal>
0.0000

> <Gold.Chemscore.Hbonds>
donor molecule, donor type, donor heavy atom, donor atom, acceptor molecule, acceptor atom, score
      L1  H     5    39       P1  8028  2.00
      P1  H  7997  8009       L1    10  1.00
      P1  H 10752 10764       L1    17  1.00

> <Gold.PLP.Chemscore.Internal.Correction>
0.0129

> <Gold.Rescore>
     Score         DG    S(hbond)    S(metal)    S(lipo)     H(rot)  DE(clash)    DE(int)     intcor
     22.54     -23.25       2.89        0.00     117.68       2.21       0.05       0.66       ----

> <Gold.Chemscore.Fitness>
22.5404

> <Gold.Chemscore.DG>
-23.2522

> <Gold.Chemscore.ZeroCoef>
-5.4800

> <Gold.Chemscore.Hbond>
2.8947

> <Gold.Chemscore.Metal>
0.0000

> <Gold.Chemscore.Lipo>
117.6817

> <Gold.Chemscore.Internal_Hbond>
0.0000

> <Gold.Chemscore.DEClash>
0.0524

> <Gold.Chemscore.DEInternal>
0.6594

> <Gold.Chemscore.Rot>
2.2129

> <Gold.Chemscore.Internal.Correction>
   9.000000E+99

> <Gold.Chemscore.Hbonds>
donor molecule, donor type, donor heavy atom, donor atom, acceptor molecule, acceptor atom, score
      L1  H     5    39       P1  8028  0.95
      P1  H  7997  8009       L1    10  0.87
      P1  H 10752 10764       L1    17  0.97

> <Gold.Chemscore.Hbond.Weighted>
-9.6684

> <Gold.Chemscore.Metal.Weighted>
-0.0000

> <Gold.Chemscore.Lipo.Weighted>
-13.7688

> <Gold.Chemscore.Internal_Hbond.Weighted>
0.0000

> <Gold.Chemscore.DEClash.Weighted>
0.0524

> <Gold.Chemscore.DEInternal.Weighted>
0.6594

> <Gold.Chemscore.Rot.Weighted>
5.6649

> <Gold.Chemscore.Internal.Correction.Weighted>
   9.000000E+99

> <Gold.Protein.RotatedTorsions>
[ 6907 6896 6895 6894 ] final  -84.99 input  -60.11 | X-H torsion
[ 7974 7965 7964 7962 ] final   53.68 input  175.53 | X-H torsion
[ 8008 7997 7996 7995 ] final -109.17 input   59.86 | X-H torsion
[ 10167 10162 10161 10158 ] final  -58.33 input  -65.29 | X-H torsion
[ 10718 10713 10712 10709 ] final -163.18 input   66.30 | X-H torsion
[ 10763 10752 10751 10750 ] final  -73.62 input  -60.55 | X-H torsion
[ 11005 11000 10999 10996 ] final -111.07 input  -57.11 | X-H torsion

> <Gold.Protein.ActiveResidues>
 VAL166  LYS551  ARG553  GLY616  TRP617  ASP618  TYR619  PRO620  LYS621  CYS622 
 ASP623  PHE694  ASN695  SER759  ASP760  ASP761  ALA762  ILE779  LEU786  VAL792 
 PHE793  MET794  SER795  GLU796  ALA797  LYS798  CYS799  TRP800  GLU811  SER814 

> <Gold.Protein.RotatedAtoms>
  150.6873  134.3273  159.4811 H   0  0  0  0  0  0  0  0  0  0  0  0  # atno 6907 bound_to 6896
  152.1142  134.9250  160.0575 H   0  0  0  0  0  0  0  0  0  0  0  0  # atno 6908 bound_to 6896
  152.0481  133.3972  159.4402 H   0  0  0  0  0  0  0  0  0  0  0  0  # atno 6909 bound_to 6896
  145.9687  139.4128  143.0203 H   0  0  0  0  0  0  0  0  0  0  0  0  # atno 7974 bound_to 7965
  154.9553  140.0400  157.2164 H   0  0  0  0  0  0  0  0  0  0  0  0  # atno 8008 bound_to 7997
  154.7940  140.2840  155.5948 H   0  0  0  0  0  0  0  0  0  0  0  0  # atno 8009 bound_to 7997
  156.2953  140.2568  156.2794 H   0  0  0  0  0  0  0  0  0  0  0  0  # atno 8010 bound_to 7997
  140.6204  143.2417  151.5495 H   0  0  0  0  0  0  0  0  0  0  0  0  # atno 10167 bound_to 10162
  156.6210  130.8890  151.2957 H   0  0  0  0  0  0  0  0  0  0  0  0  # atno 10718 bound_to 10713
  154.4620  135.5891  153.6262 H   0  0  0  0  0  0  0  0  0  0  0  0  # atno 10763 bound_to 10752
  152.9824  135.6046  154.3474 H   0  0  0  0  0  0  0  0  0  0  0  0  # atno 10764 bound_to 10752
  154.3347  135.2842  155.2433 H   0  0  0  0  0  0  0  0  0  0  0  0  # atno 10765 bound_to 10752
  141.0756  133.9307  157.2397 H   0  0  0  0  0  0  0  0  0  0  0  0  # atno 11005 bound_to 11000
  145.7937  140.9803  143.1035 LP  0  0  0  0  0  0  0  0  0  0  0  0  # atno 17320 bound_to 7965
  144.6831  139.9714  143.7482 LP  0  0  0  0  0  0  0  0  0  0  0  0  # atno 17321 bound_to 7965
  139.5434  144.2587  152.1394 LP  0  0  0  0  0  0  0  0  0  0  0  0  # atno 17342 bound_to 10162
  140.1806  144.4848  150.6530 LP  0  0  0  0  0  0  0  0  0  0  0  0  # atno 17343 bound_to 10162
  157.7227  130.9581  150.1506 LP  0  0  0  0  0  0  0  0  0  0  0  0  # atno 17370 bound_to 10713
  156.2312  130.3682  149.8443 LP  0  0  0  0  0  0  0  0  0  0  0  0  # atno 17371 bound_to 10713
  139.9568  135.0163  156.9150 LP  0  0  0  0  0  0  0  0  0  0  0  0  # atno 17394 bound_to 11000
  140.5581  134.0561  155.7390 LP  0  0  0  0  0  0  0  0  0  0  0  0  # atno 17395 bound_to 11000

$$$$
