AV-unprocessed.smi:2944|AV-procd|sdf|11275|dock2
  -GOLD-   2272016163D 1   1.00000     0.00000
 Structure written by MMmdl.
 45 47  0  0  0  0  0  0  0  0  2 V2000
  152.8046  138.6870  154.7086 C   0  0  0  0  0  0  0  0  0  0  0  0
  152.9997  139.2408  155.9976 O   0  0  0  0  0  0  0  0  0  0  0  0
  152.0062  138.8275  156.9214 C   0  0  0  0  0  0  0  0  0  0  0  0
  151.9284  139.8140  158.0954 C   0  0  0  0  0  0  0  0  0  0  0  0
  151.4365  141.1370  157.6825 N   0  0  0  0  0  0  0  0  0  0  0  0
  150.6052  141.4899  156.6629 C   0  0  0  0  0  0  0  0  0  0  0  0
  149.8461  140.4080  155.4984 S   0  0  0  0  0  0  0  0  0  0  0  0
  148.5226  141.4064  154.7518 C   0  0  1  0  0  0  0  0  0  0  0  0
  147.9797  140.7098  153.4957 C   0  0  0  0  0  0  0  0  0  0  0  0
  147.3844  141.6814  155.7586 C   0  0  0  0  0  0  0  0  0  0  0  0
  147.4617  141.1298  156.8586 O   0  0  0  0  0  0  0  0  0  0  0  0
  146.3572  142.5311  155.4835 N   0  0  0  0  0  0  0  0  0  0  0  0
  146.1696  143.0561  154.1298 C   0  0  0  0  0  0  0  0  0  0  0  0
  144.9103  143.9082  154.2227 C   0  0  0  0  0  0  0  0  0  0  0  0
  144.5828  143.8025  155.6224 N   0  0  0  0  0  0  0  0  0  0  0  0
  145.4266  143.0431  156.3251 C   0  0  0  0  0  0  0  0  0  0  0  0
  145.3281  142.8842  157.5410 O   0  0  0  0  0  0  0  0  0  0  0  0
  150.4434  142.8402  156.7053 N   0  3  0  0  0  0  0  0  0  0  0  0
  151.1827  143.3637  157.7668 C   0  0  0  0  0  0  0  0  0  0  0  0
  151.3363  144.6740  158.2093 C   0  0  0  0  0  0  0  0  0  0  0  0
  152.1636  144.8692  159.3347 C   0  0  0  0  0  0  0  0  0  0  0  0
  152.7975  143.7856  159.9766 C   0  0  0  0  0  0  0  0  0  0  0  0
  152.6347  142.4614  159.5190 C   0  0  0  0  0  0  0  0  0  0  0  0
  151.8195  142.2761  158.4022 C   0  0  0  0  0  0  0  0  0  0  0  0
  153.5809  139.0472  154.0336 H   0  0  0  0  0  0  0  0  0  0  0  0
  151.8374  138.9759  154.2958 H   0  0  0  0  0  0  0  0  0  0  0  0
  152.8634  137.5986  154.7362 H   0  0  0  0  0  0  0  0  0  0  0  0
  151.0372  138.7625  156.4248 H   0  0  0  0  0  0  0  0  0  0  0  0
  152.2429  137.8330  157.2956 H   0  0  0  0  0  0  0  0  0  0  0  0
  151.2917  139.4259  158.8903 H   0  0  0  0  0  0  0  0  0  0  0  0
  152.9171  139.9491  158.5351 H   0  0  0  0  0  0  0  0  0  0  0  0
  149.0218  142.3262  154.4597 H   0  0  0  0  0  0  0  0  0  0  0  0
  147.2132  141.3130  153.0076 H   0  0  0  0  0  0  0  0  0  0  0  0
  147.5394  139.7409  153.7346 H   0  0  0  0  0  0  0  0  0  0  0  0
  148.7748  140.5423  152.7688 H   0  0  0  0  0  0  0  0  0  0  0  0
  147.0276  143.6589  153.8262 H   0  0  0  0  0  0  0  0  0  0  0  0
  146.0436  142.2469  153.4082 H   0  0  0  0  0  0  0  0  0  0  0  0
  145.0932  144.9464  153.9436 H   0  0  0  0  0  0  0  0  0  0  0  0
  144.1004  143.5113  153.6098 H   0  0  0  0  0  0  0  0  0  0  0  0
  143.8042  144.2992  156.0311 H   0  0  0  0  0  0  0  0  0  0  0  0
  150.8491  145.5057  157.7215 H   0  0  0  0  0  0  0  0  0  0  0  0
  152.3132  145.8695  159.7146 H   0  0  0  0  0  0  0  0  0  0  0  0
  153.4214  143.9736  160.8384 H   0  0  0  0  0  0  0  0  0  0  0  0
  153.1209  141.6394  160.0231 H   0  0  0  0  0  0  0  0  0  0  0  0
  149.8688  143.3614  156.0556 H   0  0  0  0  0  0  0  0  0  0  0  0
  1  2  1  0  0  0  0
  1 25  1  0  0  0  0
  1 26  1  0  0  0  0
  1 27  1  0  0  0  0
  2  3  1  0  0  0  0
  3  4  1  0  0  0  0
  3 28  1  0  0  0  0
  3 29  1  0  0  0  0
  4  5  1  0  0  0  0
  4 30  1  0  0  0  0
  4 31  1  0  0  0  0
  5 24  1  0  0  0  0
  5  6  1  0  0  0  0
  6  7  1  0  0  0  0
  6 18  2  0  0  0  0
  7  8  1  0  0  0  0
  8  9  1  0  0  0  0
  8 10  1  0  0  0  0
  8 32  1  0  0  0  0
  9 33  1  0  0  0  0
  9 34  1  0  0  0  0
  9 35  1  0  0  0  0
 10 11  2  0  0  0  0
 10 12  1  0  0  0  0
 12 16  1  0  0  0  0
 12 13  1  0  0  0  0
 13 14  1  0  0  0  0
 13 36  1  0  0  0  0
 13 37  1  0  0  0  0
 14 15  1  0  0  0  0
 14 38  1  0  0  0  0
 14 39  1  0  0  0  0
 15 16  1  0  0  0  0
 15 40  1  0  0  0  0
 16 17  2  0  0  0  0
 18 19  1  0  0  0  0
 18 45  1  0  0  0  0
 19 24  2  0  0  0  0
 19 20  1  0  0  0  0
 20 21  2  0  0  0  0
 20 41  1  0  0  0  0
 21 22  1  0  0  0  0
 21 42  1  0  0  0  0
 22 23  2  0  0  0  0
 22 43  1  0  0  0  0
 23 24  1  0  0  0  0
 23 44  1  0  0  0  0
M  CHG  1  18   1
M  END
> <s_m_source_file>
AV-unprocessed.smi

> <i_m_source_file_index>
2944

> <i_lp_mmshare_version>
43012

> <i_f3d_flags>
0

> <s_epik_input>
W2NIXTFbY0hdW2NIXVtjSF1jKGMxMiluKFtDSDJdW0NIMl1PW0NIM10pYyhuMilTW0NASF0oW0NIM10pQyg9TylOM1tDSDJdW0NIMl1bTkhdQzM9Tw==

> <s_epik_cmdline>
J2VwaWtfcHl0aG9uJywgJy1waCcsICc3LjAnLCAnLXRuJywgJzgnLCAnLW1hJywgJzIwMCcsICctbWV0YWxfYmluZGluZycsICctaW1hZScsICc8aW5maWxlLm1hZT4nLCAnLW9tYWUnLCAnPG91dGZpbGUubWFlPic=

> <r_lp_tautomer_probability>
0.9999

> <r_epik_Ionization_Penalty>
1.88808

> <r_epik_Ionization_Penalty_Charging>
1.88806

> <r_epik_Ionization_Penalty_Neutral>
2.68145e-05

> <r_epik_State_Penalty>
2.00836

> <r_epik_Charging_Adjusted_Penalty>
3.89641

> <i_epik_Tot_Q>
1

> <i_epik_Tot_abs_Q>
1

> <r_epik_Metal_State_Penalty>
2.03272

> <b_epik_Metal_Only>
0

> <s_lp_Force_Field>
OPLS_2005

> <r_lp_Energy>
44.4651

> <b_lp_Chiralities_Consistent>
1

> <s_lp_Variant>
AV-unprocessed.smi:2944-4

> <Gold.Version>
5.8.1

> <Gold.Id.Protein>
6NUR|6NUR_protein|mol2

> <Gold.PLP.Fitness>
59.8184

> <Gold.PLP.PLP>
-52.2710

> <Gold.PLP.part.hbond>
-2.0000

> <Gold.PLP.part.metal>
0.0000

> <Gold.PLP.part.buried>
-5.4593

> <Gold.PLP.part.nonpolar>
-46.1760

> <Gold.PLP.part.repulsive>
0.2157

> <Gold.PLP.ligand.clash>
0.0000

> <Gold.PLP.ligand.torsion>
0.8549

> <Gold.PLP.Chemscore.Hbond>
3.0000

> <Gold.PLP.Chemscore.CHOScore>
0.0000

> <Gold.PLP.Chemscore.Metal>
0.0000

> <Gold.Chemscore.Hbonds>
donor molecule, donor type, donor heavy atom, donor atom, acceptor molecule, acceptor atom, score
      L1  H    18    45       P1  8028  2.00
      P1  H  7997  8010       L1     2  1.00

> <Gold.PLP.Chemscore.Internal.Correction>
0.2573

> <Gold.Rescore>
     Score         DG    S(hbond)    S(metal)    S(lipo)     H(rot)  DE(clash)    DE(int)     intcor
     18.03     -20.30       1.93        0.00     121.82       2.30       0.01       2.26       ----

> <Gold.Chemscore.Fitness>
18.0296

> <Gold.Chemscore.DG>
-20.2964

> <Gold.Chemscore.ZeroCoef>
-5.4800

> <Gold.Chemscore.Hbond>
1.9305

> <Gold.Chemscore.Metal>
0.0000

> <Gold.Chemscore.Lipo>
121.8241

> <Gold.Chemscore.Internal_Hbond>
0.0000

> <Gold.Chemscore.DEClash>
0.0093

> <Gold.Chemscore.DEInternal>
2.2575

> <Gold.Chemscore.Rot>
2.2988

> <Gold.Chemscore.Internal.Correction>
   9.000000E+99

> <Gold.Chemscore.Hbonds>
donor molecule, donor type, donor heavy atom, donor atom, acceptor molecule, acceptor atom, score
      L1  H    18    45       P1  8028  0.95
      P1  H  7997  8010       L1     2  0.92

> <Gold.Chemscore.Hbond.Weighted>
-6.4480

> <Gold.Chemscore.Metal.Weighted>
-0.0000

> <Gold.Chemscore.Lipo.Weighted>
-14.2534

> <Gold.Chemscore.Internal_Hbond.Weighted>
0.0000

> <Gold.Chemscore.DEClash.Weighted>
0.0093

> <Gold.Chemscore.DEInternal.Weighted>
2.2575

> <Gold.Chemscore.Rot.Weighted>
5.8850

> <Gold.Chemscore.Internal.Correction.Weighted>
   9.000000E+99

> <Gold.Protein.RotatedTorsions>
[ 6907 6896 6895 6894 ] final  150.45 input  -60.11 | X-H torsion
[ 7974 7965 7964 7962 ] final  -63.41 input  175.53 | X-H torsion
[ 8008 7997 7996 7995 ] final   86.07 input   59.86 | X-H torsion
[ 10167 10162 10161 10158 ] final   39.05 input  -65.29 | X-H torsion
[ 10718 10713 10712 10709 ] final -109.31 input   66.30 | X-H torsion
[ 10763 10752 10751 10750 ] final   34.99 input  -60.55 | X-H torsion
[ 11005 11000 10999 10996 ] final   -0.81 input  -57.11 | X-H torsion

> <Gold.Protein.ActiveResidues>
 VAL166  LYS551  ARG553  GLY616  TRP617  ASP618  TYR619  PRO620  LYS621  CYS622 
 ASP623  PHE694  ASN695  SER759  ASP760  ASP761  ALA762  ILE779  LEU786  VAL792 
 PHE793  MET794  SER795  GLU796  ALA797  LYS798  CYS799  TRP800  GLU811  SER814 

> <Gold.Protein.RotatedAtoms>
  152.1143  133.4318  159.4645 H   0  0  0  0  0  0  0  0  0  0  0  0  # atno 6907 bound_to 6896
  150.6868  134.2611  159.4559 H   0  0  0  0  0  0  0  0  0  0  0  0  # atno 6908 bound_to 6896
  152.0482  134.9669  160.0625 H   0  0  0  0  0  0  0  0  0  0  0  0  # atno 6909 bound_to 6896
  145.7794  140.8770  143.0338 H   0  0  0  0  0  0  0  0  0  0  0  0  # atno 7974 bound_to 7965
  155.9581  140.3395  155.6466 H   0  0  0  0  0  0  0  0  0  0  0  0  # atno 8008 bound_to 7997
  155.6834  140.0740  157.2494 H   0  0  0  0  0  0  0  0  0  0  0  0  # atno 8009 bound_to 7997
  154.4137  140.1670  156.1994 H   0  0  0  0  0  0  0  0  0  0  0  0  # atno 8010 bound_to 7997
  140.3877  144.1895  150.6130 H   0  0  0  0  0  0  0  0  0  0  0  0  # atno 10167 bound_to 10162
  156.0530  130.5757  150.8082 H   0  0  0  0  0  0  0  0  0  0  0  0  # atno 10718 bound_to 10713
  153.0139  135.6345  154.1756 H   0  0  0  0  0  0  0  0  0  0  0  0  # atno 10763 bound_to 10752
  154.1497  135.2829  155.3140 H   0  0  0  0  0  0  0  0  0  0  0  0  # atno 10764 bound_to 10752
  154.6063  135.5571  153.7487 H   0  0  0  0  0  0  0  0  0  0  0  0  # atno 10765 bound_to 10752
  140.6404  133.9494  155.8323 H   0  0  0  0  0  0  0  0  0  0  0  0  # atno 11005 bound_to 11000
  144.6799  139.9967  143.7484 LP  0  0  0  0  0  0  0  0  0  0  0  0  # atno 17320 bound_to 7965
  146.0090  139.3153  143.0882 LP  0  0  0  0  0  0  0  0  0  0  0  0  # atno 17321 bound_to 7965
  140.4872  143.2359  151.8871 LP  0  0  0  0  0  0  0  0  0  0  0  0  # atno 17342 bound_to 10162
  139.4791  144.5205  151.8807 LP  0  0  0  0  0  0  0  0  0  0  0  0  # atno 17343 bound_to 10162
  157.5475  131.0943  150.9742 LP  0  0  0  0  0  0  0  0  0  0  0  0  # atno 17370 bound_to 10713
  157.0010  130.5600  149.5311 LP  0  0  0  0  0  0  0  0  0  0  0  0  # atno 17371 bound_to 10713
  141.0610  134.0345  157.3658 LP  0  0  0  0  0  0  0  0  0  0  0  0  # atno 17394 bound_to 11000
  139.9082  135.0184  156.7579 LP  0  0  0  0  0  0  0  0  0  0  0  0  # atno 17395 bound_to 11000

$$$$
