AV-unprocessed.smi:169|AV-procd|sdf|1401|dock2
  -GOLD-   2262019153D 1   1.00000     0.00000
 Structure written by MMmdl.
 56 60  0  0  0  0  0  0  0  0  2 V2000
  145.6865  142.5951  153.9730 C   0  0  0  0  0  0  0  0  0  0  0  0
  145.7131  141.4094  154.9525 C   0  0  0  0  0  0  0  0  0  0  0  0
  147.0411  140.7512  155.0587 N   0  3  1  0  0  0  0  0  0  0  0  0
  147.4704  140.1026  153.7695 C   0  0  0  0  0  0  0  0  0  0  0  0
  148.5354  138.9565  153.9329 C   0  0  0  0  0  0  0  0  0  0  0  0
  149.5845  139.2589  155.0221 C   0  0  3  0  0  0  0  0  0  0  0  0
  150.9583  139.9338  155.1067 C   0  0  0  0  0  0  0  0  0  0  0  0
  150.6354  141.0869  156.1151 C   0  0  0  0  0  0  0  0  0  0  0  0
  149.1553  140.8424  156.5651 C   0  0  1  0  0  0  0  0  0  0  0  0
  148.0739  141.6237  155.7326 C   0  0  0  0  0  0  0  0  0  0  0  0
  148.9919  139.4154  156.3376 N   0  0  0  0  0  0  0  0  0  0  0  0
  149.3127  138.5055  157.2992 C   0  0  0  0  0  0  0  0  0  0  0  0
  150.5980  138.4334  157.7359 N   0  0  0  0  0  0  0  0  0  0  0  0
  150.9495  137.5561  158.6794 C   0  0  0  0  0  0  0  0  0  0  0  0
  150.1843  136.6749  159.3235 N   0  0  0  0  0  0  0  0  0  0  0  0
  148.8875  136.7510  158.9097 C   0  0  0  0  0  0  0  0  0  0  0  0
  148.3699  137.6258  157.9111 C   0  0  0  0  0  0  0  0  0  0  0  0
  147.0044  137.4069  157.7651 N   0  0  0  0  0  0  0  0  0  0  0  0
  146.7346  136.4580  158.6182 C   0  0  0  0  0  0  0  0  0  0  0  0
  147.8048  136.0161  159.3617 N   0  0  0  0  0  0  0  0  0  0  0  0
  147.7925  134.9753  160.3803 C   0  0  0  0  0  0  0  0  0  0  0  0
  147.0015  135.3267  161.6642 C   0  0  0  0  0  0  0  0  0  0  0  0
  146.6797  134.0165  162.3952 C   0  0  0  0  0  0  0  0  0  0  0  0
  146.0268  133.1001  161.5399 O   0  0  0  0  0  0  0  0  0  0  0  0
  147.5758  136.4488  162.5474 C   0  0  0  0  0  0  0  0  0  0  0  0
  146.6341  137.4108  162.0275 O   0  0  0  0  0  0  0  0  0  0  0  0
  145.8374  136.3208  161.5178 C   0  0  0  0  0  0  0  0  0  0  0  0
  144.6932  143.0434  153.9457 H   0  0  0  0  0  0  0  0  0  0  0  0
  145.9298  142.2859  152.9567 H   0  0  0  0  0  0  0  0  0  0  0  0
  146.3875  143.3773  154.2648 H   0  0  0  0  0  0  0  0  0  0  0  0
  145.4051  141.7462  155.9430 H   0  0  0  0  0  0  0  0  0  0  0  0
  144.9726  140.6680  154.6501 H   0  0  0  0  0  0  0  0  0  0  0  0
  146.6020  139.6834  153.2601 H   0  0  0  0  0  0  0  0  0  0  0  0
  147.8596  140.8750  153.1043 H   0  0  0  0  0  0  0  0  0  0  0  0
  148.0159  138.0380  154.2079 H   0  0  0  0  0  0  0  0  0  0  0  0
  149.0172  138.7494  152.9759 H   0  0  0  0  0  0  0  0  0  0  0  0
  149.4902  140.1871  154.4711 H   0  0  0  0  0  0  0  0  0  0  0  0
  151.6823  139.2457  155.5450 H   0  0  0  0  0  0  0  0  0  0  0  0
  151.3757  140.2815  154.1564 H   0  0  0  0  0  0  0  0  0  0  0  0
  151.3074  141.0198  156.9716 H   0  0  0  0  0  0  0  0  0  0  0  0
  150.7716  142.0745  155.6735 H   0  0  0  0  0  0  0  0  0  0  0  0
  149.0365  141.1198  157.6125 H   0  0  0  0  0  0  0  0  0  0  0  0
  148.5399  142.2686  154.9863 H   0  0  0  0  0  0  0  0  0  0  0  0
  147.5716  142.3025  156.4227 H   0  0  0  0  0  0  0  0  0  0  0  0
  151.9924  137.5629  158.9604 H   0  0  0  0  0  0  0  0  0  0  0  0
  145.7390  136.0542  158.7297 H   0  0  0  0  0  0  0  0  0  0  0  0
  147.3875  134.0749  159.9169 H   0  0  0  0  0  0  0  0  0  0  0  0
  148.8290  134.7398  160.6249 H   0  0  0  0  0  0  0  0  0  0  0  0
  147.5852  133.5519  162.7867 H   0  0  0  0  0  0  0  0  0  0  0  0
  146.0296  134.1971  163.2518 H   0  0  0  0  0  0  0  0  0  0  0  0
  146.3220  132.2278  161.7523 H   0  0  0  0  0  0  0  0  0  0  0  0
  147.4318  136.2869  163.6172 H   0  0  0  0  0  0  0  0  0  0  0  0
  148.6115  136.7146  162.3435 H   0  0  0  0  0  0  0  0  0  0  0  0
  145.5001  136.4792  160.4944 H   0  0  0  0  0  0  0  0  0  0  0  0
  144.9892  136.1047  162.1697 H   0  0  0  0  0  0  0  0  0  0  0  0
  146.8853  139.9871  155.7012 H   0  0  0  0  0  0  0  0  0  0  0  0
  1  2  1  0  0  0  0
  1 28  1  0  0  0  0
  1 29  1  0  0  0  0
  1 30  1  0  0  0  0
  2  3  1  0  0  0  0
  2 31  1  0  0  0  0
  2 32  1  0  0  0  0
  3 10  1  0  0  0  0
  3  4  1  0  0  0  0
  3 56  1  0  0  0  0
  4  5  1  0  0  0  0
  4 33  1  0  0  0  0
  4 34  1  0  0  0  0
  5  6  1  0  0  0  0
  5 35  1  0  0  0  0
  5 36  1  0  0  0  0
  6 11  1  0  0  0  0
  6  7  1  0  0  0  0
  6 37  1  0  0  0  0
  7  8  1  0  0  0  0
  7 38  1  0  0  0  0
  7 39  1  0  0  0  0
  8  9  1  0  0  0  0
  8 40  1  0  0  0  0
  8 41  1  0  0  0  0
  9 10  1  0  0  0  0
  9 11  1  0  0  0  0
  9 42  1  0  0  0  0
 10 43  1  0  0  0  0
 10 44  1  0  0  0  0
 11 12  1  0  0  0  0
 12 17  1  0  0  0  0
 12 13  2  0  0  0  0
 13 14  1  0  0  0  0
 14 15  2  0  0  0  0
 14 45  1  0  0  0  0
 15 16  1  0  0  0  0
 16 20  1  0  0  0  0
 16 17  2  0  0  0  0
 17 18  1  0  0  0  0
 18 19  2  0  0  0  0
 19 20  1  0  0  0  0
 19 46  1  0  0  0  0
 20 21  1  0  0  0  0
 21 22  1  0  0  0  0
 21 47  1  0  0  0  0
 21 48  1  0  0  0  0
 22 27  1  0  0  0  0
 22 23  1  0  0  0  0
 22 25  1  0  0  0  0
 23 24  1  0  0  0  0
 23 49  1  0  0  0  0
 23 50  1  0  0  0  0
 24 51  1  0  0  0  0
 25 26  1  0  0  0  0
 25 52  1  0  0  0  0
 25 53  1  0  0  0  0
 26 27  1  0  0  0  0
 27 54  1  0  0  0  0
 27 55  1  0  0  0  0
M  CHG  1   3   1
M  END
> <s_m_source_file>
AV-unprocessed.smi

> <i_m_source_file_index>
169

> <i_lp_mmshare_version>
43012

> <i_f3d_flags>
0

> <s_epik_input>
W0NASF0xMltDSDJdW0NIMl1OKFtDSDJdW0NIM10pW0NIMl1bQ0BIXShbQ0gyXVtDSDJdMSlOMmMobltjSF1uMyljKGMzNCluW2NIXW40W0NIMl1DNShbQ0gyXVtPSF0pW0NIMl1PW0NIMl01

> <s_epik_cmdline>
J2VwaWtfcHl0aG9uJywgJy1waCcsICc3LjAnLCAnLXRuJywgJzgnLCAnLW1hJywgJzIwMCcsICctbWV0YWxfYmluZGluZycsICctaW1hZScsICc8aW5maWxlLm1hZT4nLCAnLW9tYWUnLCAnPG91dGZpbGUubWFlPic=

> <r_lp_tautomer_probability>
1

> <r_epik_Ionization_Penalty>
0.00274162

> <r_epik_Ionization_Penalty_Charging>
0.00243722

> <r_epik_Ionization_Penalty_Neutral>
0.000304399

> <r_epik_State_Penalty>
-0

> <r_epik_Charging_Adjusted_Penalty>
0.00243722

> <i_epik_Tot_Q>
1

> <i_epik_Tot_abs_Q>
1

> <r_epik_Metal_State_Penalty>
-0

> <b_epik_Metal_Only>
0

> <s_lp_Force_Field>
OPLS_2005

> <r_lp_Energy>
128.509

> <b_lp_Chiralities_Consistent>
1

> <s_lp_Variant>
AV-unprocessed.smi:169-4

> <Gold.Version>
5.8.1

> <Gold.Id.Protein>
6NUR|6NUR_protein|mol2

> <Gold.PLP.Fitness>
44.6237

> <Gold.PLP.PLP>
-40.2426

> <Gold.PLP.part.hbond>
-3.0000

> <Gold.PLP.part.metal>
0.0000

> <Gold.PLP.part.buried>
-2.1236

> <Gold.PLP.part.nonpolar>
-34.1269

> <Gold.PLP.part.repulsive>
0.0000

> <Gold.PLP.ligand.clash>
0.0000

> <Gold.PLP.ligand.torsion>
0.5157

> <Gold.PLP.Chemscore.Hbond>
1.6560

> <Gold.PLP.Chemscore.CHOScore>
0.0000

> <Gold.PLP.Chemscore.Metal>
0.0000

> <Gold.Chemscore.Hbonds>
donor molecule, donor type, donor heavy atom, donor atom, acceptor molecule, acceptor atom, score
      P1  H  6896  6909       L1    15  0.99
      P1  H  6934  6947       L1    26  0.82

> <Gold.PLP.Chemscore.Internal.Correction>
0.4444

> <Gold.Rescore>
     Score         DG    S(hbond)    S(metal)    S(lipo)     H(rot)  DE(clash)    DE(int)     intcor
     12.50     -14.07       1.62        0.00      84.62       2.62       0.13       1.44       ----

> <Gold.Chemscore.Fitness>
12.4995

> <Gold.Chemscore.DG>
-14.0700

> <Gold.Chemscore.ZeroCoef>
-5.4800

> <Gold.Chemscore.Hbond>
1.6168

> <Gold.Chemscore.Metal>
0.0000

> <Gold.Chemscore.Lipo>
84.6160

> <Gold.Chemscore.Internal_Hbond>
0.0000

> <Gold.Chemscore.DEClash>
0.1334

> <Gold.Chemscore.DEInternal>
1.4371

> <Gold.Chemscore.Rot>
2.6212

> <Gold.Chemscore.Internal.Correction>
   9.000000E+99

> <Gold.Chemscore.Hbonds>
donor molecule, donor type, donor heavy atom, donor atom, acceptor molecule, acceptor atom, score
      P1  H  6896  6909       L1    15  0.77
      P1  H  6934  6947       L1    26  0.75

> <Gold.Chemscore.Hbond.Weighted>
-5.4001

> <Gold.Chemscore.Metal.Weighted>
-0.0000

> <Gold.Chemscore.Lipo.Weighted>
-9.9001

> <Gold.Chemscore.Internal_Hbond.Weighted>
0.0000

> <Gold.Chemscore.DEClash.Weighted>
0.1334

> <Gold.Chemscore.DEInternal.Weighted>
1.4371

> <Gold.Chemscore.Rot.Weighted>
6.7102

> <Gold.Chemscore.Internal.Correction.Weighted>
   9.000000E+99

> <Gold.Protein.RotatedTorsions>
[ 6907 6896 6895 6894 ] final   63.66 input  -60.11 | X-H torsion
[ 7974 7965 7964 7962 ] final   24.01 input  175.53 | X-H torsion
[ 8008 7997 7996 7995 ] final  137.59 input   59.86 | X-H torsion
[ 10167 10162 10161 10158 ] final  173.58 input  -65.29 | X-H torsion
[ 10718 10713 10712 10709 ] final  141.41 input   66.30 | X-H torsion
[ 10763 10752 10751 10750 ] final   76.85 input  -60.55 | X-H torsion
[ 11005 11000 10999 10996 ] final -175.87 input  -57.11 | X-H torsion

> <Gold.Protein.ActiveResidues>
 VAL166  LYS551  ARG553  GLY616  TRP617  ASP618  TYR619  PRO620  LYS621  CYS622 
 ASP623  PHE694  ASN695  SER759  ASP760  ASP761  ALA762  ILE779  LEU786  VAL792 
 PHE793  MET794  SER795  GLU796  ALA797  LYS798  CYS799  TRP800  GLU811  SER814 

> <Gold.Protein.RotatedAtoms>
  152.4270  134.5849  159.9957 H   0  0  0  0  0  0  0  0  0  0  0  0  # atno 6907 bound_to 6896
  151.5982  133.3353  159.3050 H   0  0  0  0  0  0  0  0  0  0  0  0  # atno 6908 bound_to 6896
  150.8161  134.7380  159.6796 H   0  0  0  0  0  0  0  0  0  0  0  0  # atno 6909 bound_to 6896
  146.1958  139.7665  142.8798 H   0  0  0  0  0  0  0  0  0  0  0  0  # atno 7974 bound_to 7965
  156.3001  140.2415  156.3935 H   0  0  0  0  0  0  0  0  0  0  0  0  # atno 8008 bound_to 7997
  154.8592  140.0420  157.1674 H   0  0  0  0  0  0  0  0  0  0  0  0  # atno 8009 bound_to 7997
  154.8914  140.2964  155.5372 H   0  0  0  0  0  0  0  0  0  0  0  0  # atno 8010 bound_to 7997
  139.5113  144.3244  152.0171 H   0  0  0  0  0  0  0  0  0  0  0  0  # atno 10167 bound_to 10162
  157.3923  131.1006  151.0634 H   0  0  0  0  0  0  0  0  0  0  0  0  # atno 10718 bound_to 10713
  153.0755  135.4936  154.8396 H   0  0  0  0  0  0  0  0  0  0  0  0  # atno 10763 bound_to 10752
  154.7082  135.3014  154.9240 H   0  0  0  0  0  0  0  0  0  0  0  0  # atno 10764 bound_to 10752
  153.9942  135.6774  153.4808 H   0  0  0  0  0  0  0  0  0  0  0  0  # atno 10765 bound_to 10752
  140.4584  134.6277  157.4832 H   0  0  0  0  0  0  0  0  0  0  0  0  # atno 11005 bound_to 11000
  145.3648  141.0332  143.3264 LP  0  0  0  0  0  0  0  0  0  0  0  0  # atno 17320 bound_to 7965
  144.8577  139.5224  143.6827 LP  0  0  0  0  0  0  0  0  0  0  0  0  # atno 17321 bound_to 7965
  140.2685  144.3989  150.6159 LP  0  0  0  0  0  0  0  0  0  0  0  0  # atno 17342 bound_to 10162
  140.6105  143.2169  151.6895 LP  0  0  0  0  0  0  0  0  0  0  0  0  # atno 17343 bound_to 10162
  157.1663  130.6248  149.5626 LP  0  0  0  0  0  0  0  0  0  0  0  0  # atno 17370 bound_to 10713
  155.9801  130.4800  150.6756 LP  0  0  0  0  0  0  0  0  0  0  0  0  # atno 17371 bound_to 10713
  139.9961  134.6909  155.9607 LP  0  0  0  0  0  0  0  0  0  0  0  0  # atno 17394 bound_to 11000
  141.1632  133.6538  156.4390 LP  0  0  0  0  0  0  0  0  0  0  0  0  # atno 17395 bound_to 11000

$$$$
