AV-unprocessed.smi:2492|AV-procd|sdf|9817|dock4
  -GOLD-   2272013443D 1   1.00000     0.00000
 Structure written by MMmdl.
 32 33  0  0  0  0  0  0  0  0  2 V2000
  153.1601  142.8564  162.5833 C   0  0  0  0  0  0  0  0  0  0  0  0
  153.1254  141.8919  161.0494 S   0  0  0  0  0  0  0  0  0  0  0  0
  152.7473  143.2051  159.8532 C   0  0  2  0  0  0  0  0  0  0  0  0
  152.2060  144.4663  160.5212 C   0  0  0  0  0  0  0  0  0  0  0  0
  151.5105  145.2202  159.3873 C   0  0  0  0  0  0  0  0  0  0  0  0
  150.9951  144.1414  158.4130 C   0  0  2  0  0  0  0  0  0  0  0  0
  149.5380  144.0342  158.4465 N   0  0  0  0  0  0  0  0  0  0  0  0
  148.7874  143.8596  159.5439 C   0  0  0  0  0  0  0  0  0  0  0  0
  149.3267  143.7676  160.6491 O   0  0  0  0  0  0  0  0  0  0  0  0
  147.4599  143.7997  159.2923 N   0  5  0  0  0  0  0  0  0  0  0  0
  146.6087  143.4380  160.2663 C   0  0  0  0  0  0  0  0  0  0  0  0
  145.9949  144.2608  161.1177 N   0  0  0  0  0  0  0  0  0  0  0  0
  145.2627  143.3930  161.8660 C   0  0  0  0  0  0  0  0  0  0  0  0
  144.3830  143.8307  162.9864 C   0  0  0  0  0  0  0  0  0  0  0  0
  145.3676  142.1146  161.5358 N   0  0  0  0  0  0  0  0  0  0  0  0
  146.2667  142.1375  160.4603 O   0  0  0  0  0  0  0  0  0  0  0  0
  151.6508  142.8194  158.8552 C   0  0  0  0  0  0  0  0  0  0  0  0
  153.3463  142.2010  163.4340 H   0  0  0  0  0  0  0  0  0  0  0  0
  152.2063  143.3615  162.7376 H   0  0  0  0  0  0  0  0  0  0  0  0
  153.9508  143.6056  162.5481 H   0  0  0  0  0  0  0  0  0  0  0  0
  153.6577  143.4601  159.3088 H   0  0  0  0  0  0  0  0  0  0  0  0
  151.4724  144.2008  161.2840 H   0  0  0  0  0  0  0  0  0  0  0  0
  152.9868  145.0580  160.9996 H   0  0  0  0  0  0  0  0  0  0  0  0
  150.7268  145.8814  159.7600 H   0  0  0  0  0  0  0  0  0  0  0  0
  152.2389  145.8480  158.8726 H   0  0  0  0  0  0  0  0  0  0  0  0
  151.3190  144.3827  157.3989 H   0  0  0  0  0  0  0  0  0  0  0  0
  149.0555  144.1020  157.5625 H   0  0  0  0  0  0  0  0  0  0  0  0
  143.3375  143.7921  162.6801 H   0  0  0  0  0  0  0  0  0  0  0  0
  144.6194  144.8527  163.2842 H   0  0  0  0  0  0  0  0  0  0  0  0
  144.5171  143.1810  163.8520 H   0  0  0  0  0  0  0  0  0  0  0  0
  152.0474  142.2586  158.0084 H   0  0  0  0  0  0  0  0  0  0  0  0
  150.9184  142.1790  159.3501 H   0  0  0  0  0  0  0  0  0  0  0  0
  1  2  1  0  0  0  0
  1 18  1  0  0  0  0
  1 19  1  0  0  0  0
  1 20  1  0  0  0  0
  2  3  1  0  0  0  0
  3 17  1  0  0  0  0
  3  4  1  0  0  0  0
  3 21  1  0  0  0  0
  4  5  1  0  0  0  0
  4 22  1  0  0  0  0
  4 23  1  0  0  0  0
  5  6  1  0  0  0  0
  5 24  1  0  0  0  0
  5 25  1  0  0  0  0
  6  7  1  0  0  0  0
  6 17  1  0  0  0  0
  6 26  1  0  0  0  0
  7  8  1  0  0  0  0
  7 27  1  0  0  0  0
  8  9  2  0  0  0  0
  8 10  1  0  0  0  0
 10 11  1  0  0  0  0
 11 16  1  0  0  0  0
 11 12  2  0  0  0  0
 12 13  1  0  0  0  0
 13 14  1  0  0  0  0
 13 15  2  0  0  0  0
 14 28  1  0  0  0  0
 14 29  1  0  0  0  0
 14 30  1  0  0  0  0
 15 16  1  0  0  0  0
 17 31  1  0  0  0  0
 17 32  1  0  0  0  0
M  CHG  1  10  -1
M  END
> <s_m_source_file>
AV-unprocessed.smi

> <i_m_source_file_index>
2492

> <i_lp_mmshare_version>
43012

> <i_f3d_flags>
0

> <s_epik_input>
W0NIM11TW0NAQEhdMVtDSDJdW0NIMl1bQ0BIXShbQ0gyXTEpW05IXUMoPU8pW05IXWMybmMoW0NIM10pbm8y

> <s_epik_cmdline>
J2VwaWtfcHl0aG9uJywgJy1waCcsICc3LjAnLCAnLXRuJywgJzgnLCAnLW1hJywgJzIwMCcsICctbWV0YWxfYmluZGluZycsICctaW1hZScsICc8aW5maWxlLm1hZT4nLCAnLW9tYWUnLCAnPG91dGZpbGUubWFlPic=

> <r_lp_tautomer_probability>
1

> <r_epik_Ionization_Penalty>
6.26454

> <r_epik_Ionization_Penalty_Charging>
6.26445

> <r_epik_Ionization_Penalty_Neutral>
9.05726e-05

> <r_epik_State_Penalty>
6.26444

> <r_epik_Charging_Adjusted_Penalty>
12.5289

> <i_epik_Tot_Q>
-1

> <i_epik_Tot_abs_Q>
1

> <r_epik_Metal_State_Penalty>
2.20125

> <b_epik_Metal_Only>
1

> <s_lp_Force_Field>
OPLS_2005

> <r_lp_Energy>
10.8343

> <b_lp_Chiralities_Consistent>
1

> <s_lp_Variant>
AV-unprocessed.smi:2492-7

> <Gold.Version>
5.8.1

> <Gold.Id.Protein>
6NUR|6NUR_protein|mol2

> <Gold.PLP.Fitness>
42.0340

> <Gold.PLP.PLP>
-38.5699

> <Gold.PLP.part.hbond>
-5.5953

> <Gold.PLP.part.metal>
0.0000

> <Gold.PLP.part.buried>
-2.5101

> <Gold.PLP.part.nonpolar>
-31.3979

> <Gold.PLP.part.repulsive>
1.8746

> <Gold.PLP.ligand.clash>
0.0000

> <Gold.PLP.ligand.torsion>
1.4471

> <Gold.PLP.Chemscore.Hbond>
2.1140

> <Gold.PLP.Chemscore.CHOScore>
0.0000

> <Gold.PLP.Chemscore.Metal>
0.0000

> <Gold.Chemscore.Hbonds>
donor molecule, donor type, donor heavy atom, donor atom, acceptor molecule, acceptor atom, score
      L1  H     7    27       P1  8028  0.50
      P1  H  6933  6944       L1     9  0.40
      P1  H  6934  6946       L1    16  0.68

> <Gold.PLP.Chemscore.Internal.Correction>
0.0164

> <Gold.Rescore>
     Score         DG    S(hbond)    S(metal)    S(lipo)     H(rot)  DE(clash)    DE(int)     intcor
     11.13     -15.93       1.03        0.00      87.68       1.27       0.88       3.92       ----

> <Gold.Chemscore.Fitness>
11.1320

> <Gold.Chemscore.DG>
-15.9260

> <Gold.Chemscore.ZeroCoef>
-5.4800

> <Gold.Chemscore.Hbond>
1.0305

> <Gold.Chemscore.Metal>
0.0000

> <Gold.Chemscore.Lipo>
87.6770

> <Gold.Chemscore.Internal_Hbond>
0.0000

> <Gold.Chemscore.DEClash>
0.8768

> <Gold.Chemscore.DEInternal>
3.9171

> <Gold.Chemscore.Rot>
1.2712

> <Gold.Chemscore.Internal.Correction>
   9.000000E+99

> <Gold.Chemscore.Hbonds>
donor molecule, donor type, donor heavy atom, donor atom, acceptor molecule, acceptor atom, score
      L1  H     7    27       P1  8028  0.02
      P1  H  6933  6944       L1     9  0.22
      P1  H  6934  6946       L1    16  0.12

> <Gold.Chemscore.Hbond.Weighted>
-3.4419

> <Gold.Chemscore.Metal.Weighted>
-0.0000

> <Gold.Chemscore.Lipo.Weighted>
-10.2582

> <Gold.Chemscore.Internal_Hbond.Weighted>
0.0000

> <Gold.Chemscore.DEClash.Weighted>
0.8768

> <Gold.Chemscore.DEInternal.Weighted>
3.9171

> <Gold.Chemscore.Rot.Weighted>
3.2542

> <Gold.Chemscore.Internal.Correction.Weighted>
   9.000000E+99

> <Gold.Protein.RotatedTorsions>
[ 6907 6896 6895 6894 ] final -162.18 input  -60.11 | X-H torsion
[ 7974 7965 7964 7962 ] final  149.22 input  175.53 | X-H torsion
[ 8008 7997 7996 7995 ] final -147.84 input   59.86 | X-H torsion
[ 10167 10162 10161 10158 ] final    0.62 input  -65.29 | X-H torsion
[ 10718 10713 10712 10709 ] final -178.14 input   66.30 | X-H torsion
[ 10763 10752 10751 10750 ] final  -70.40 input  -60.55 | X-H torsion
[ 11005 11000 10999 10996 ] final -134.97 input  -57.11 | X-H torsion

> <Gold.Protein.ActiveResidues>
 VAL166  LYS551  ARG553  GLY616  TRP617  ASP618  TYR619  PRO620  LYS621  CYS622 
 ASP623  PHE694  ASN695  SER759  ASP760  ASP761  ALA762  ILE779  LEU786  VAL792 
 PHE793  MET794  SER795  GLU796  ALA797  LYS798  CYS799  TRP800  GLU811  SER814 

> <Gold.Protein.RotatedAtoms>
  151.3763  133.3837  159.2704 H   0  0  0  0  0  0  0  0  0  0  0  0  # atno 6907 bound_to 6896
  150.9612  134.9000  159.7742 H   0  0  0  0  0  0  0  0  0  0  0  0  # atno 6908 bound_to 6896
  152.5150  134.3722  159.9374 H   0  0  0  0  0  0  0  0  0  0  0  0  # atno 6909 bound_to 6896
  144.8454  139.6253  143.5997 H   0  0  0  0  0  0  0  0  0  0  0  0  # atno 7974 bound_to 7965
  155.5820  140.0644  157.2780 H   0  0  0  0  0  0  0  0  0  0  0  0  # atno 8008 bound_to 7997
  154.4330  140.1850  156.1033 H   0  0  0  0  0  0  0  0  0  0  0  0  # atno 8009 bound_to 7997
  156.0298  140.3308  155.7131 H   0  0  0  0  0  0  0  0  0  0  0  0  # atno 8010 bound_to 7997
  140.6720  143.7021  150.7943 H   0  0  0  0  0  0  0  0  0  0  0  0  # atno 10167 bound_to 10162
  156.8398  130.9682  151.3101 H   0  0  0  0  0  0  0  0  0  0  0  0  # atno 10718 bound_to 10713
  154.4172  135.5995  153.5988 H   0  0  0  0  0  0  0  0  0  0  0  0  # atno 10763 bound_to 10752
  152.9792  135.5943  154.3999 H   0  0  0  0  0  0  0  0  0  0  0  0  # atno 10764 bound_to 10752
  154.3819  135.2841  155.2184 H   0  0  0  0  0  0  0  0  0  0  0  0  # atno 10765 bound_to 10752
  140.8941  134.1774  157.4507 H   0  0  0  0  0  0  0  0  0  0  0  0  # atno 11005 bound_to 11000
  146.2740  139.6705  142.9276 LP  0  0  0  0  0  0  0  0  0  0  0  0  # atno 17320 bound_to 7965
  145.4607  141.0432  143.2753 LP  0  0  0  0  0  0  0  0  0  0  0  0  # atno 17321 bound_to 7965
  140.0708  143.5063  152.2580 LP  0  0  0  0  0  0  0  0  0  0  0  0  # atno 17342 bound_to 10162
  139.5993  144.7577  151.3210 LP  0  0  0  0  0  0  0  0  0  0  0  0  # atno 17343 bound_to 10162
  157.6362  130.8768  149.9363 LP  0  0  0  0  0  0  0  0  0  0  0  0  # atno 17370 bound_to 10713
  156.0887  130.3665  150.0437 LP  0  0  0  0  0  0  0  0  0  0  0  0  # atno 17371 bound_to 10713
  139.8733  134.9871  156.5352 LP  0  0  0  0  0  0  0  0  0  0  0  0  # atno 17394 bound_to 11000
  140.8311  133.8278  155.8985 LP  0  0  0  0  0  0  0  0  0  0  0  0  # atno 17395 bound_to 11000

$$$$
