AV-unprocessed.smi:609|AV-procd|sdf|3051|dock3
  -GOLD-   2262023573D 1   1.00000     0.00000
 Structure written by MMmdl.
 43 45  0  0  0  0  0  0  0  0  2 V2000
  152.1901  144.0990  161.5866 C   0  0  0  0  0  0  0  0  0  0  0  0
  152.0960  143.2218  160.3497 C   0  0  0  0  0  0  0  0  0  0  0  0
  151.2385  143.6248  159.3010 C   0  0  0  0  0  0  0  0  0  0  0  0
  151.1751  142.8029  158.1823 C   0  0  0  0  0  0  0  0  0  0  0  0
  150.4407  142.9202  156.9999 N   0  3  0  0  0  0  0  0  0  0  0  0
  150.7124  141.8598  156.1894 C   0  0  0  0  0  0  0  0  0  0  0  0
  151.6081  141.0676  156.8381 N   0  0  0  0  0  0  0  0  0  0  0  0
  152.2347  139.8086  156.4147 C   0  0  0  0  0  0  0  0  0  0  0  0
  151.2597  138.8752  155.6711 C   0  0  2  0  0  0  0  0  0  0  0  0
  151.0687  139.3482  154.3514 O   0  0  0  0  0  0  0  0  0  0  0  0
  149.8992  138.7847  156.3797 C   0  0  0  0  0  0  0  0  0  0  0  0
  148.6598  137.9213  155.3658 S   0  0  0  0  0  0  0  0  0  0  0  0
  148.0660  139.2714  154.3900 C   0  0  0  0  0  0  0  0  0  0  0  0
  148.4862  140.5309  154.4859 N   0  0  0  0  0  0  0  0  0  0  0  0
  147.7496  141.2319  153.5375 C   0  0  0  0  0  0  0  0  0  0  0  0
  146.9003  140.3666  152.8926 C   0  0  0  0  0  0  0  0  0  0  0  0
  147.1150  139.1130  153.4499 N   0  0  0  0  0  0  0  0  0  0  0  0
  146.4362  137.8869  153.0779 C   0  0  0  0  0  0  0  0  0  0  0  0
  151.9259  141.6155  158.0847 C   0  0  0  0  0  0  0  0  0  0  0  0
  152.7750  141.2026  159.1083 C   0  0  0  0  0  0  0  0  0  0  0  0
  152.8543  142.0258  160.2545 C   0  0  0  0  0  0  0  0  0  0  0  0
  153.7742  141.6030  161.3872 C   0  0  0  0  0  0  0  0  0  0  0  0
  151.5829  144.9993  161.4850 H   0  0  0  0  0  0  0  0  0  0  0  0
  153.2203  144.4108  161.7589 H   0  0  0  0  0  0  0  0  0  0  0  0
  151.8397  143.5579  162.4658 H   0  0  0  0  0  0  0  0  0  0  0  0
  150.6586  144.5339  159.3662 H   0  0  0  0  0  0  0  0  0  0  0  0
  150.2967  141.6814  155.2082 H   0  0  0  0  0  0  0  0  0  0  0  0
  153.1004  140.0460  155.7950 H   0  0  0  0  0  0  0  0  0  0  0  0
  152.6198  139.3179  157.3096 H   0  0  0  0  0  0  0  0  0  0  0  0
  151.6944  137.8769  155.6103 H   0  0  0  0  0  0  0  0  0  0  0  0
  151.1001  138.6093  153.7623 H   0  0  0  0  0  0  0  0  0  0  0  0
  150.0114  138.2391  157.3174 H   0  0  0  0  0  0  0  0  0  0  0  0
  149.5356  139.7825  156.6287 H   0  0  0  0  0  0  0  0  0  0  0  0
  147.8865  142.2937  153.3943 H   0  0  0  0  0  0  0  0  0  0  0  0
  146.1804  140.5347  152.1051 H   0  0  0  0  0  0  0  0  0  0  0  0
  145.7215  138.0794  152.2771 H   0  0  0  0  0  0  0  0  0  0  0  0
  145.9016  137.4853  153.9392 H   0  0  0  0  0  0  0  0  0  0  0  0
  147.1642  137.1524  152.7322 H   0  0  0  0  0  0  0  0  0  0  0  0
  153.3526  140.2931  159.0336 H   0  0  0  0  0  0  0  0  0  0  0  0
  154.2408  140.6387  161.1833 H   0  0  0  0  0  0  0  0  0  0  0  0
  153.2184  141.5115  162.3207 H   0  0  0  0  0  0  0  0  0  0  0  0
  154.5692  142.3357  161.5267 H   0  0  0  0  0  0  0  0  0  0  0  0
  149.8030  143.6685  156.7597 H   0  0  0  0  0  0  0  0  0  0  0  0
  1  2  1  0  0  0  0
  1 23  1  0  0  0  0
  1 24  1  0  0  0  0
  1 25  1  0  0  0  0
  2 21  1  0  0  0  0
  2  3  2  0  0  0  0
  3  4  1  0  0  0  0
  3 26  1  0  0  0  0
  4 19  2  0  0  0  0
  4  5  1  0  0  0  0
  5  6  2  0  0  0  0
  5 43  1  0  0  0  0
  6  7  1  0  0  0  0
  6 27  1  0  0  0  0
  7  8  1  0  0  0  0
  7 19  1  0  0  0  0
  8  9  1  0  0  0  0
  8 28  1  0  0  0  0
  8 29  1  0  0  0  0
  9 10  1  0  0  0  0
  9 11  1  0  0  0  0
  9 30  1  0  0  0  0
 10 31  1  0  0  0  0
 11 12  1  0  0  0  0
 11 32  1  0  0  0  0
 11 33  1  0  0  0  0
 12 13  1  0  0  0  0
 13 17  1  0  0  0  0
 13 14  2  0  0  0  0
 14 15  1  0  0  0  0
 15 16  2  0  0  0  0
 15 34  1  0  0  0  0
 16 17  1  0  0  0  0
 16 35  1  0  0  0  0
 17 18  1  0  0  0  0
 18 36  1  0  0  0  0
 18 37  1  0  0  0  0
 18 38  1  0  0  0  0
 19 20  1  0  0  0  0
 20 21  2  0  0  0  0
 20 39  1  0  0  0  0
 21 22  1  0  0  0  0
 22 40  1  0  0  0  0
 22 41  1  0  0  0  0
 22 42  1  0  0  0  0
M  CHG  1   5   1
M  END
> <s_m_source_file>
AV-unprocessed.smi

> <i_m_source_file_index>
609

> <i_lp_mmshare_version>
43012

> <i_f3d_flags>
0

> <s_epik_input>
W0NIM11jKFtjSF0xKWMoW0NIM10pW2NIXWMoYzEyKW4oW2NIXW4yKVtDSDJdW0NASF0oW09IXSlbQ0gyXVNjM25bY0hdW2NIXW4zW0NIM10=

> <s_epik_cmdline>
J2VwaWtfcHl0aG9uJywgJy1waCcsICc3LjAnLCAnLXRuJywgJzgnLCAnLW1hJywgJzIwMCcsICctbWV0YWxfYmluZGluZycsICctaW1hZScsICc8aW5maWxlLm1hZT4nLCAnLW9tYWUnLCAnPG91dGZpbGUubWFlPic=

> <r_epik_Ionization_Penalty>
2.09683

> <r_epik_Ionization_Penalty_Charging>
2.09682

> <r_epik_Ionization_Penalty_Neutral>
2.49751e-06

> <r_epik_State_Penalty>
2.21514

> <r_epik_Charging_Adjusted_Penalty>
4.31197

> <i_epik_Tot_Q>
1

> <i_epik_Tot_abs_Q>
1

> <r_epik_Metal_State_Penalty>
1.52634

> <b_epik_Metal_Only>
0

> <s_lp_Force_Field>
OPLS_2005

> <r_lp_Energy>
12.8682

> <b_lp_Chiralities_Consistent>
1

> <s_lp_Variant>
AV-unprocessed.smi:609-7

> <Gold.Version>
5.8.1

> <Gold.Id.Protein>
6NUR|6NUR_protein|mol2

> <Gold.PLP.Fitness>
53.7955

> <Gold.PLP.PLP>
-43.6511

> <Gold.PLP.part.hbond>
-2.0000

> <Gold.PLP.part.metal>
0.0000

> <Gold.PLP.part.buried>
-4.7902

> <Gold.PLP.part.nonpolar>
-36.7797

> <Gold.PLP.part.repulsive>
0.1247

> <Gold.PLP.ligand.clash>
0.0000

> <Gold.PLP.ligand.torsion>
0.6122

> <Gold.PLP.Chemscore.Hbond>
3.0000

> <Gold.PLP.Chemscore.CHOScore>
0.7878

> <Gold.PLP.Chemscore.Metal>
0.0000

> <Gold.Chemscore.Hbonds>
donor molecule, donor type, donor heavy atom, donor atom, acceptor molecule, acceptor atom, score
      L1  H     5    43       P1  8028  2.00
      P1  H  7989  7998       L1    10  1.00
      L1  C    16    35       P1 10175  0.83

> <Gold.PLP.Chemscore.Internal.Correction>
0.0054

> <Gold.Rescore>
     Score         DG    S(hbond)    S(metal)    S(lipo)     H(rot)  DE(clash)    DE(int)     intcor
     18.31     -19.33       1.91        0.00     117.93       2.48       0.30       0.71       ----

> <Gold.Chemscore.Fitness>
18.3081

> <Gold.Chemscore.DG>
-19.3262

> <Gold.Chemscore.ZeroCoef>
-5.4800

> <Gold.Chemscore.Hbond>
1.9146

> <Gold.Chemscore.Metal>
0.0000

> <Gold.Chemscore.Lipo>
117.9271

> <Gold.Chemscore.Internal_Hbond>
0.0000

> <Gold.Chemscore.DEClash>
0.3050

> <Gold.Chemscore.DEInternal>
0.7132

> <Gold.Chemscore.Rot>
2.4789

> <Gold.Chemscore.Internal.Correction>
   9.000000E+99

> <Gold.Chemscore.Hbonds>
donor molecule, donor type, donor heavy atom, donor atom, acceptor molecule, acceptor atom, score
      L1  H     5    43       P1  8028  0.98
      P1  H  7989  7998       L1    10  0.70

> <Gold.Chemscore.Hbond.Weighted>
-6.3946

> <Gold.Chemscore.Metal.Weighted>
-0.0000

> <Gold.Chemscore.Lipo.Weighted>
-13.7975

> <Gold.Chemscore.Internal_Hbond.Weighted>
0.0000

> <Gold.Chemscore.DEClash.Weighted>
0.3050

> <Gold.Chemscore.DEInternal.Weighted>
0.7132

> <Gold.Chemscore.Rot.Weighted>
6.3459

> <Gold.Chemscore.Internal.Correction.Weighted>
   9.000000E+99

> <Gold.Protein.RotatedTorsions>
[ 6907 6896 6895 6894 ] final   53.52 input  -60.11 | X-H torsion
[ 7974 7965 7964 7962 ] final  -70.33 input  175.53 | X-H torsion
[ 8008 7997 7996 7995 ] final -164.15 input   59.86 | X-H torsion
[ 10167 10162 10161 10158 ] final    6.27 input  -65.29 | X-H torsion
[ 10718 10713 10712 10709 ] final  110.23 input   66.30 | X-H torsion
[ 10763 10752 10751 10750 ] final  -65.62 input  -60.55 | X-H torsion
[ 11005 11000 10999 10996 ] final -138.05 input  -57.11 | X-H torsion

> <Gold.Protein.ActiveResidues>
 VAL166  LYS551  ARG553  GLY616  TRP617  ASP618  TYR619  PRO620  LYS621  CYS622 
 ASP623  PHE694  ASN695  SER759  ASP760  ASP761  ALA762  ILE779  LEU786  VAL792 
 PHE793  MET794  SER795  GLU796  ALA797  LYS798  CYS799  TRP800  GLU811  SER814 

> <Gold.Protein.RotatedAtoms>
  152.3345  134.7216  160.0280 H   0  0  0  0  0  0  0  0  0  0  0  0  # atno 6907 bound_to 6896
  151.7621  133.3329  159.3429 H   0  0  0  0  0  0  0  0  0  0  0  0  # atno 6908 bound_to 6896
  150.7442  134.6028  159.6090 H   0  0  0  0  0  0  0  0  0  0  0  0  # atno 6909 bound_to 6896
  145.6924  140.9148  143.0774 H   0  0  0  0  0  0  0  0  0  0  0  0  # atno 7974 bound_to 7965
  155.8315  140.0934  157.1789 H   0  0  0  0  0  0  0  0  0  0  0  0  # atno 8008 bound_to 7997
  154.3980  140.1418  156.3680 H   0  0  0  0  0  0  0  0  0  0  0  0  # atno 8009 bound_to 7997
  155.8161  140.3448  155.5488 H   0  0  0  0  0  0  0  0  0  0  0  0  # atno 8010 bound_to 7997
  140.6437  143.7713  150.7466 H   0  0  0  0  0  0  0  0  0  0  0  0  # atno 10167 bound_to 10162
  157.6504  131.0929  150.6571 H   0  0  0  0  0  0  0  0  0  0  0  0  # atno 10718 bound_to 10713
  154.3477  135.6143  153.5627 H   0  0  0  0  0  0  0  0  0  0  0  0  # atno 10763 bound_to 10752
  152.9800  135.5785  154.4780 H   0  0  0  0  0  0  0  0  0  0  0  0  # atno 10764 bound_to 10752
  154.4495  135.2852  155.1768 H   0  0  0  0  0  0  0  0  0  0  0  0  # atno 10765 bound_to 10752
  140.8653  134.2118  157.4683 H   0  0  0  0  0  0  0  0  0  0  0  0  # atno 11005 bound_to 11000
  144.6993  139.8839  143.7449 LP  0  0  0  0  0  0  0  0  0  0  0  0  # atno 17320 bound_to 7965
  146.0870  139.3859  143.0429 LP  0  0  0  0  0  0  0  0  0  0  0  0  # atno 17321 bound_to 7965
  140.1350  143.4492  152.2230 LP  0  0  0  0  0  0  0  0  0  0  0  0  # atno 17342 bound_to 10162
  139.5647  144.7427  151.4057 LP  0  0  0  0  0  0  0  0  0  0  0  0  # atno 17343 bound_to 10162
  156.6882  130.4587  149.5607 LP  0  0  0  0  0  0  0  0  0  0  0  0  # atno 17370 bound_to 10713
  156.1880  130.6541  151.1029 LP  0  0  0  0  0  0  0  0  0  0  0  0  # atno 17371 bound_to 10713
  139.8709  134.9749  156.4863 LP  0  0  0  0  0  0  0  0  0  0  0  0  # atno 17394 bound_to 11000
  140.8636  133.8041  155.9290 LP  0  0  0  0  0  0  0  0  0  0  0  0  # atno 17395 bound_to 11000

$$$$
