AV-unprocessed.smi:2176|AV-procd|sdf|8847|dock3
  -GOLD-   2272012 43D 1   1.00000     0.00000
 Structure written by MMmdl.
 28 29  0  0  0  0  0  0  0  0  2 V2000
  150.5439  139.7317  154.5984 O   0  0  0  0  0  0  0  0  0  0  0  0
  150.2579  138.6291  154.1300 C   0  0  0  0  0  0  0  0  0  0  0  0
  151.2207  137.4449  154.2854 C   0  0  0  0  0  0  0  0  0  0  0  0
  150.7594  136.4761  155.2921 N   0  0  0  0  0  0  0  0  0  0  0  0
  149.4658  135.9445  155.1479 C   0  0  0  0  0  0  0  0  0  0  0  0
  148.9652  135.0478  156.0191 C   0  0  0  0  0  0  0  0  0  0  0  0
  149.8022  134.6293  157.1367 C   0  0  0  0  0  0  0  0  0  0  0  0
  149.3595  133.8153  157.9448 O   0  0  0  0  0  0  0  0  0  0  0  0
  151.0519  135.1705  157.2310 N   0  5  0  0  0  0  0  0  0  0  0  0
  151.5489  136.0796  156.3359 C   0  0  0  0  0  0  0  0  0  0  0  0
  152.6810  136.5538  156.4384 O   0  0  0  0  0  0  0  0  0  0  0  0
  149.1305  138.3915  153.4450 N   0  0  0  0  0  0  0  0  0  0  0  0
  148.0865  139.3761  153.2034 C   0  0  0  0  0  0  0  0  0  0  0  0
  147.8403  140.3086  154.3706 C   0  0  0  0  0  0  0  0  0  0  0  0
  147.0692  141.5933  154.1783 C   0  0  0  0  0  0  0  0  0  0  0  0
  148.5517  141.6380  154.4638 C   0  0  0  0  0  0  0  0  0  0  0  0
  151.3668  136.9478  153.3242 H   0  0  0  0  0  0  0  0  0  0  0  0
  152.2014  137.8386  154.5552 H   0  0  0  0  0  0  0  0  0  0  0  0
  148.9146  136.3015  154.2904 H   0  0  0  0  0  0  0  0  0  0  0  0
  147.9708  134.6460  155.8923 H   0  0  0  0  0  0  0  0  0  0  0  0
  148.9743  137.4582  153.0928 H   0  0  0  0  0  0  0  0  0  0  0  0
  148.3342  139.9694  152.3212 H   0  0  0  0  0  0  0  0  0  0  0  0
  147.1573  138.8505  152.9798 H   0  0  0  0  0  0  0  0  0  0  0  0
  147.6616  139.7930  155.3126 H   0  0  0  0  0  0  0  0  0  0  0  0
  146.7450  141.8447  153.1703 H   0  0  0  0  0  0  0  0  0  0  0  0
  146.3946  141.8993  154.9753 H   0  0  0  0  0  0  0  0  0  0  0  0
  148.8662  141.9690  155.4513 H   0  0  0  0  0  0  0  0  0  0  0  0
  149.2134  141.9170  153.6461 H   0  0  0  0  0  0  0  0  0  0  0  0
  1  2  2  0  0  0  0
  2  3  1  0  0  0  0
  2 12  1  0  0  0  0
  3  4  1  0  0  0  0
  3 17  1  0  0  0  0
  3 18  1  0  0  0  0
  4 10  1  0  0  0  0
  4  5  1  0  0  0  0
  5  6  2  0  0  0  0
  5 19  1  0  0  0  0
  6  7  1  0  0  0  0
  6 20  1  0  0  0  0
  7  8  2  0  0  0  0
  7  9  1  0  0  0  0
  9 10  1  0  0  0  0
 10 11  2  0  0  0  0
 12 13  1  0  0  0  0
 12 21  1  0  0  0  0
 13 14  1  0  0  0  0
 13 22  1  0  0  0  0
 13 23  1  0  0  0  0
 14 16  1  0  0  0  0
 14 15  1  0  0  0  0
 14 24  1  0  0  0  0
 15 16  1  0  0  0  0
 15 25  1  0  0  0  0
 15 26  1  0  0  0  0
 16 27  1  0  0  0  0
 16 28  1  0  0  0  0
M  CHG  1   9  -1
M  END
> <s_m_source_file>
AV-unprocessed.smi

> <i_m_source_file_index>
2176

> <i_lp_mmshare_version>
43012

> <i_f3d_flags>
0

> <s_epik_input>
W0NIMl0xW0NIMl1bQ0hdMVtDSDJdW05IXUMoPU8pW0NIMl1uMltjSF1bY0hdYyg9TylbbkhdYzI9Tw==

> <s_epik_cmdline>
J2VwaWtfcHl0aG9uJywgJy1waCcsICc3LjAnLCAnLXRuJywgJzgnLCAnLW1hJywgJzIwMCcsICctbWV0YWxfYmluZGluZycsICctaW1hZScsICc8aW5maWxlLm1hZT4nLCAnLW9tYWUnLCAnPG91dGZpbGUubWFlPic=

> <r_lp_tautomer_probability>
0.999537

> <r_epik_Ionization_Penalty>
3.07884

> <r_epik_Ionization_Penalty_Charging>
2.64713e-08

> <r_epik_Ionization_Penalty_Neutral>
3.07884

> <r_epik_State_Penalty>
3.07787

> <r_epik_Charging_Adjusted_Penalty>
3.07787

> <i_epik_Tot_Q>
-1

> <i_epik_Tot_abs_Q>
1

> <r_epik_Metal_State_Penalty>
0.459857

> <b_epik_Metal_Only>
1

> <s_lp_Force_Field>
OPLS_2005

> <r_lp_Energy>
21.5126

> <b_lp_Chiralities_Consistent>
1

> <s_lp_Variant>
AV-unprocessed.smi:2176-2

> <Gold.Version>
5.8.1

> <Gold.Id.Protein>
6NUR|6NUR_protein|mol2

> <Gold.PLP.Fitness>
38.2089

> <Gold.PLP.PLP>
-24.2201

> <Gold.PLP.part.hbond>
-6.0000

> <Gold.PLP.part.metal>
0.0000

> <Gold.PLP.part.buried>
1.9166

> <Gold.PLP.part.nonpolar>
-20.6633

> <Gold.PLP.part.repulsive>
0.1590

> <Gold.PLP.ligand.clash>
0.0000

> <Gold.PLP.ligand.torsion>
0.6670

> <Gold.PLP.Chemscore.Hbond>
3.9272

> <Gold.PLP.Chemscore.CHOScore>
1.0000

> <Gold.PLP.Chemscore.Metal>
0.0000

> <Gold.Chemscore.Hbonds>
donor molecule, donor type, donor heavy atom, donor atom, acceptor molecule, acceptor atom, score
      L1  H    12    21       P1  7948  1.00
      P1  H  6896  6909       L1     8  1.00
      P1  H  7989  7998       L1     1  1.00
      P1  H 10752 10765       L1    11  0.85
      L1  C     5    19       P1  7948  1.00

> <Gold.PLP.Chemscore.Internal.Correction>
0.5411

> <Gold.Rescore>
     Score         DG    S(hbond)    S(metal)    S(lipo)     H(rot)  DE(clash)    DE(int)     intcor
      9.25     -15.13       2.90        0.00      43.33       1.99       1.85       4.04       ----

> <Gold.Chemscore.Fitness>
9.2503

> <Gold.Chemscore.DG>
-15.1335

> <Gold.Chemscore.ZeroCoef>
-5.4800

> <Gold.Chemscore.Hbond>
2.8973

> <Gold.Chemscore.Metal>
0.0000

> <Gold.Chemscore.Lipo>
43.3302

> <Gold.Chemscore.Internal_Hbond>
0.0000

> <Gold.Chemscore.DEClash>
1.8459

> <Gold.Chemscore.DEInternal>
4.0373

> <Gold.Chemscore.Rot>
1.9895

> <Gold.Chemscore.Internal.Correction>
   9.000000E+99

> <Gold.Chemscore.Hbonds>
donor molecule, donor type, donor heavy atom, donor atom, acceptor molecule, acceptor atom, score
      L1  H    12    21       P1  7948  0.97
      P1  H  6896  6909       L1     8  0.30
      P1  H  7989  7998       L1     1  0.92
      P1  H 10752 10765       L1    11  0.16

> <Gold.Chemscore.Hbond.Weighted>
-9.6770

> <Gold.Chemscore.Metal.Weighted>
-0.0000

> <Gold.Chemscore.Lipo.Weighted>
-5.0696

> <Gold.Chemscore.Internal_Hbond.Weighted>
0.0000

> <Gold.Chemscore.DEClash.Weighted>
1.8459

> <Gold.Chemscore.DEInternal.Weighted>
4.0373

> <Gold.Chemscore.Rot.Weighted>
5.0931

> <Gold.Chemscore.Internal.Correction.Weighted>
   9.000000E+99

> <Gold.Protein.RotatedTorsions>
[ 6907 6896 6895 6894 ] final    2.98 input  -60.11 | X-H torsion
[ 7974 7965 7964 7962 ] final  -76.27 input  175.53 | X-H torsion
[ 8008 7997 7996 7995 ] final -177.17 input   59.86 | X-H torsion
[ 10167 10162 10161 10158 ] final  150.12 input  -65.29 | X-H torsion
[ 10718 10713 10712 10709 ] final  -44.95 input   66.30 | X-H torsion
[ 10763 10752 10751 10750 ] final -121.61 input  -60.55 | X-H torsion
[ 11005 11000 10999 10996 ] final   42.64 input  -57.11 | X-H torsion

> <Gold.Protein.ActiveResidues>
 VAL166  LYS551  ARG553  GLY616  TRP617  ASP618  TYR619  PRO620  LYS621  CYS622 
 ASP623  PHE694  ASN695  SER759  ASP760  ASP761  ALA762  ILE779  LEU786  VAL792 
 PHE793  MET794  SER795  GLU796  ALA797  LYS798  CYS799  TRP800  GLU811  SER814 

> <Gold.Protein.RotatedAtoms>
  151.6176  135.1035  160.0094 H   0  0  0  0  0  0  0  0  0  0  0  0  # atno 6907 bound_to 6896
  152.4175  133.7058  159.6461 H   0  0  0  0  0  0  0  0  0  0  0  0  # atno 6908 bound_to 6896
  150.8063  133.8431  159.3225 H   0  0  0  0  0  0  0  0  0  0  0  0  # atno 6909 bound_to 6896
  145.6151  140.9377  143.1168 H   0  0  0  0  0  0  0  0  0  0  0  0  # atno 7974 bound_to 7965
  156.0037  140.1226  157.0522 H   0  0  0  0  0  0  0  0  0  0  0  0  # atno 8008 bound_to 7997
  154.4251  140.1101  156.5801 H   0  0  0  0  0  0  0  0  0  0  0  0  # atno 8009 bound_to 7997
  155.6177  140.3472  155.4644 H   0  0  0  0  0  0  0  0  0  0  0  0  # atno 8010 bound_to 7997
  139.4853  144.5548  151.7337 H   0  0  0  0  0  0  0  0  0  0  0  0  # atno 10167 bound_to 10162
  156.2333  130.4174  149.8848 H   0  0  0  0  0  0  0  0  0  0  0  0  # atno 10718 bound_to 10713
  154.8672  135.4162  154.2648 H   0  0  0  0  0  0  0  0  0  0  0  0  # atno 10763 bound_to 10752
  153.3569  135.7001  153.6749 H   0  0  0  0  0  0  0  0  0  0  0  0  # atno 10764 bound_to 10752
  153.5666  135.3599  155.2793 H   0  0  0  0  0  0  0  0  0  0  0  0  # atno 10765 bound_to 10752
  140.1720  134.4210  155.8251 H   0  0  0  0  0  0  0  0  0  0  0  0  # atno 11005 bound_to 11000
  144.7254  139.7894  143.7367 LP  0  0  0  0  0  0  0  0  0  0  0  0  # atno 17320 bound_to 7965
  146.1474  139.4548  143.0070 LP  0  0  0  0  0  0  0  0  0  0  0  0  # atno 17321 bound_to 7965
  140.5107  144.1029  150.5994 LP  0  0  0  0  0  0  0  0  0  0  0  0  # atno 17342 bound_to 10162
  140.3953  143.2731  152.0011 LP  0  0  0  0  0  0  0  0  0  0  0  0  # atno 17343 bound_to 10162
  156.6455  130.8722  151.3522 LP  0  0  0  0  0  0  0  0  0  0  0  0  # atno 17370 bound_to 10713
  157.7143  130.9478  150.1199 LP  0  0  0  0  0  0  0  0  0  0  0  0  # atno 17371 bound_to 10713
  141.2218  133.6960  156.7780 LP  0  0  0  0  0  0  0  0  0  0  0  0  # atno 17394 bound_to 11000
  140.2366  134.8645  157.3531 LP  0  0  0  0  0  0  0  0  0  0  0  0  # atno 17395 bound_to 11000

$$$$
