AV-unprocessed.smi:3024|AV-procd|sdf|11503|dock8
  -GOLD-   2272016443D 1   1.00000     0.00000
 Structure written by MMmdl.
 31 32  0  0  0  0  0  0  0  0  1 V2000
  151.6537  141.4174  156.8960 O   0  0  0  0  0  0  0  0  0  0  0  0
  150.9435  142.3651  156.5608 C   0  0  0  0  0  0  0  0  0  0  0  0
  151.1294  143.6199  156.9940 N   0  0  0  0  0  0  0  0  0  0  0  0
  152.1707  144.0406  157.9248 C   0  0  0  0  0  0  0  0  0  0  0  0
  151.9447  143.4524  159.3272 C   0  0  2  0  0  0  0  0  0  0  0  0
  151.9266  144.5003  160.4385 C   0  0  0  0  0  0  0  0  0  0  0  0
  152.3398  143.7186  161.6764 C   0  0  0  0  0  0  0  0  0  0  0  0
  152.9119  142.4112  161.1205 C   0  0  0  0  0  0  0  0  0  0  0  0
  153.0265  142.6231  159.7208 O   0  0  0  0  0  0  0  0  0  0  0  0
  149.9065  142.2954  155.7086 N   0  0  0  0  0  0  0  0  0  0  0  0
  149.3876  141.1528  155.0419 C   0  0  0  0  0  0  0  0  0  0  0  0
  148.2200  141.3116  154.2673 C   0  0  0  0  0  0  0  0  0  0  0  0
  147.6746  140.1925  153.6101 C   0  0  0  0  0  0  0  0  0  0  0  0
  148.3165  138.9484  153.7622 C   0  0  0  0  0  0  0  0  0  0  0  0
  149.4249  138.7747  154.5124 N   0  0  0  0  0  0  0  0  0  0  0  0
  149.9442  139.8531  155.1386 C   0  0  0  0  0  0  0  0  0  0  0  0
  150.5009  144.3364  156.6618 H   0  0  0  0  0  0  0  0  0  0  0  0
  153.1611  143.7785  157.5485 H   0  0  0  0  0  0  0  0  0  0  0  0
  152.1409  145.1290  157.9791 H   0  0  0  0  0  0  0  0  0  0  0  0
  151.0204  142.8715  159.3537 H   0  0  0  0  0  0  0  0  0  0  0  0
  152.6657  145.2768  160.2368 H   0  0  0  0  0  0  0  0  0  0  0  0
  150.9544  144.9822  160.5453 H   0  0  0  0  0  0  0  0  0  0  0  0
  153.0830  144.2701  162.2532 H   0  0  0  0  0  0  0  0  0  0  0  0
  151.4884  143.5201  162.3285 H   0  0  0  0  0  0  0  0  0  0  0  0
  153.8766  142.1546  161.5589 H   0  0  0  0  0  0  0  0  0  0  0  0
  152.2242  141.5842  161.3023 H   0  0  0  0  0  0  0  0  0  0  0  0
  149.4727  143.1734  155.4648 H   0  0  0  0  0  0  0  0  0  0  0  0
  147.7484  142.2788  154.1727 H   0  0  0  0  0  0  0  0  0  0  0  0
  146.7849  140.2847  153.0049 H   0  0  0  0  0  0  0  0  0  0  0  0
  147.9253  138.0682  153.2736 H   0  0  0  0  0  0  0  0  0  0  0  0
  150.8130  139.6466  155.7439 H   0  0  0  0  0  0  0  0  0  0  0  0
  1  2  2  0  0  0  0
  2  3  1  0  0  0  0
  2 10  1  0  0  0  0
  3  4  1  0  0  0  0
  3 17  1  0  0  0  0
  4  5  1  0  0  0  0
  4 18  1  0  0  0  0
  4 19  1  0  0  0  0
  5  9  1  0  0  0  0
  5  6  1  0  0  0  0
  5 20  1  0  0  0  0
  6  7  1  0  0  0  0
  6 21  1  0  0  0  0
  6 22  1  0  0  0  0
  7  8  1  0  0  0  0
  7 23  1  0  0  0  0
  7 24  1  0  0  0  0
  8  9  1  0  0  0  0
  8 25  1  0  0  0  0
  8 26  1  0  0  0  0
 10 11  1  0  0  0  0
 10 27  1  0  0  0  0
 11 16  1  0  0  0  0
 11 12  2  0  0  0  0
 12 13  1  0  0  0  0
 12 28  1  0  0  0  0
 13 14  2  0  0  0  0
 13 29  1  0  0  0  0
 14 15  1  0  0  0  0
 14 30  1  0  0  0  0
 15 16  2  0  0  0  0
 16 31  1  0  0  0  0
M  END
> <s_m_source_file>
AV-unprocessed.smi

> <i_m_source_file_index>
3024

> <i_lp_mmshare_version>
43012

> <i_f3d_flags>
0

> <s_epik_input>
W2NIXTFuW2NIXVtjSF1bY0hdYzFbTkhdQyg9TylbTkhdW0NIMl1bQ0BASF0yW0NIMl1bQ0gyXVtDSDJdTzI=

> <s_epik_cmdline>
J2VwaWtfcHl0aG9uJywgJy1waCcsICc3LjAnLCAnLXRuJywgJzgnLCAnLW1hJywgJzIwMCcsICctbWV0YWxfYmluZGluZycsICctaW1hZScsICc8aW5maWxlLm1hZT4nLCAnLW9tYWUnLCAnPG91dGZpbGUubWFlPic=

> <r_epik_Ionization_Penalty>
0.00471982

> <r_epik_Ionization_Penalty_Charging>
0

> <r_epik_Ionization_Penalty_Neutral>
0.00471982

> <r_epik_State_Penalty>
0.00339234

> <r_epik_Charging_Adjusted_Penalty>
0.00339234

> <i_epik_Tot_Q>
0

> <i_epik_Tot_abs_Q>
0

> <r_epik_Metal_State_Penalty>
-0

> <b_epik_Metal_Only>
0

> <s_lp_Force_Field>
OPLS_2005

> <r_lp_Energy>
19.771

> <b_lp_Chiralities_Consistent>
1

> <s_lp_Variant>
AV-unprocessed.smi:3024-1

> <Gold.Version>
5.8.1

> <Gold.Id.Protein>
6NUR|6NUR_protein|mol2

> <Gold.PLP.Fitness>
43.8797

> <Gold.PLP.PLP>
-36.5286

> <Gold.PLP.part.hbond>
-2.0000

> <Gold.PLP.part.metal>
0.0000

> <Gold.PLP.part.buried>
-2.7563

> <Gold.PLP.part.nonpolar>
-32.2574

> <Gold.PLP.part.repulsive>
0.3634

> <Gold.PLP.ligand.clash>
0.0000

> <Gold.PLP.ligand.torsion>
0.7685

> <Gold.PLP.Chemscore.Hbond>
1.9600

> <Gold.PLP.Chemscore.CHOScore>
1.0000

> <Gold.PLP.Chemscore.Metal>
0.0000

> <Gold.Chemscore.Hbonds>
donor molecule, donor type, donor heavy atom, donor atom, acceptor molecule, acceptor atom, score
      L1  H     3    17       P1  8028  0.96
      L1  H    10    27       P1  8028  1.00
      L1  C    14    30       P1  7948  1.00

> <Gold.PLP.Chemscore.Internal.Correction>
0.0080

> <Gold.Rescore>
     Score         DG    S(hbond)    S(metal)    S(lipo)     H(rot)  DE(clash)    DE(int)     intcor
     17.51     -19.55       1.95        0.00      91.69       1.24       0.04       2.00       ----

> <Gold.Chemscore.Fitness>
17.5139

> <Gold.Chemscore.DG>
-19.5469

> <Gold.Chemscore.ZeroCoef>
-5.4800

> <Gold.Chemscore.Hbond>
1.9494

> <Gold.Chemscore.Metal>
0.0000

> <Gold.Chemscore.Lipo>
91.6880

> <Gold.Chemscore.Internal_Hbond>
0.0000

> <Gold.Chemscore.DEClash>
0.0358

> <Gold.Chemscore.DEInternal>
1.9972

> <Gold.Chemscore.Rot>
1.2390

> <Gold.Chemscore.Internal.Correction>
   9.000000E+99

> <Gold.Chemscore.Hbonds>
donor molecule, donor type, donor heavy atom, donor atom, acceptor molecule, acceptor atom, score
      L1  H     3    17       P1  8028  0.91
      L1  H    10    27       P1  8028  0.99

> <Gold.Chemscore.Hbond.Weighted>
-6.5112

> <Gold.Chemscore.Metal.Weighted>
-0.0000

> <Gold.Chemscore.Lipo.Weighted>
-10.7275

> <Gold.Chemscore.Internal_Hbond.Weighted>
0.0000

> <Gold.Chemscore.DEClash.Weighted>
0.0358

> <Gold.Chemscore.DEInternal.Weighted>
1.9972

> <Gold.Chemscore.Rot.Weighted>
3.1718

> <Gold.Chemscore.Internal.Correction.Weighted>
   9.000000E+99

> <Gold.Protein.RotatedTorsions>
[ 6907 6896 6895 6894 ] final   55.97 input  -60.11 | X-H torsion
[ 7974 7965 7964 7962 ] final    9.76 input  175.53 | X-H torsion
[ 8008 7997 7996 7995 ] final  179.43 input   59.86 | X-H torsion
[ 10167 10162 10161 10158 ] final  165.47 input  -65.29 | X-H torsion
[ 10718 10713 10712 10709 ] final   58.33 input   66.30 | X-H torsion
[ 10763 10752 10751 10750 ] final  134.12 input  -60.55 | X-H torsion
[ 11005 11000 10999 10996 ] final  -79.14 input  -57.11 | X-H torsion

> <Gold.Protein.ActiveResidues>
 VAL166  LYS551  ARG553  GLY616  TRP617  ASP618  TYR619  PRO620  LYS621  CYS622 
 ASP623  PHE694  ASN695  SER759  ASP760  ASP761  ALA762  ILE779  LEU786  VAL792 
 PHE793  MET794  SER795  GLU796  ALA797  LYS798  CYS799  TRP800  GLU811  SER814 

> <Gold.Protein.RotatedAtoms>
  152.3591  134.6898  160.0212 H   0  0  0  0  0  0  0  0  0  0  0  0  # atno 6907 bound_to 6896
  151.7227  133.3309  159.3327 H   0  0  0  0  0  0  0  0  0  0  0  0  # atno 6908 bound_to 6896
  150.7592  134.6368  159.6260 H   0  0  0  0  0  0  0  0  0  0  0  0  # atno 6909 bound_to 6896
  146.2399  139.9736  142.8444 H   0  0  0  0  0  0  0  0  0  0  0  0  # atno 7974 bound_to 7965
  156.0434  140.1309  157.0130 H   0  0  0  0  0  0  0  0  0  0  0  0  # atno 8008 bound_to 7997
  154.4401  140.1025  156.6341 H   0  0  0  0  0  0  0  0  0  0  0  0  # atno 8009 bound_to 7997
  155.5632  140.3465  155.4498 H   0  0  0  0  0  0  0  0  0  0  0  0  # atno 8010 bound_to 7997
  139.4906  144.4129  151.9278 H   0  0  0  0  0  0  0  0  0  0  0  0  # atno 10167 bound_to 10162
  157.5588  130.8820  149.9077 H   0  0  0  0  0  0  0  0  0  0  0  0  # atno 10718 bound_to 10713
  153.8182  135.3119  155.3407 H   0  0  0  0  0  0  0  0  0  0  0  0  # atno 10763 bound_to 10752
  154.8023  135.4719  154.0309 H   0  0  0  0  0  0  0  0  0  0  0  0  # atno 10764 bound_to 10752
  153.1710  135.6877  153.8698 H   0  0  0  0  0  0  0  0  0  0  0  0  # atno 10765 bound_to 10752
  141.1667  133.7093  156.8077 H   0  0  0  0  0  0  0  0  0  0  0  0  # atno 11005 bound_to 11000
  145.1658  140.9696  143.4350 LP  0  0  0  0  0  0  0  0  0  0  0  0  # atno 17320 bound_to 7965
  145.0074  139.3542  143.6137 LP  0  0  0  0  0  0  0  0  0  0  0  0  # atno 17321 bound_to 7965
  140.3571  144.3019  150.5939 LP  0  0  0  0  0  0  0  0  0  0  0  0  # atno 17342 bound_to 10162
  140.5435  143.2219  151.8045 LP  0  0  0  0  0  0  0  0  0  0  0  0  # atno 17343 bound_to 10162
  156.0643  130.3695  150.0913 LP  0  0  0  0  0  0  0  0  0  0  0  0  # atno 17370 bound_to 10713
  156.9079  130.9642  151.3567 LP  0  0  0  0  0  0  0  0  0  0  0  0  # atno 17371 bound_to 10713
  140.2210  134.8757  157.3377 LP  0  0  0  0  0  0  0  0  0  0  0  0  # atno 17394 bound_to 11000
  140.1988  134.4280  155.7674 LP  0  0  0  0  0  0  0  0  0  0  0  0  # atno 17395 bound_to 11000

$$$$
