AV-unprocessed.smi:3001|AV-procd|sdf|11432|dock8
  -GOLD-   2272016363D 1   1.00000     0.00000
 Structure written by MMmdl.
 42 43  0  0  0  0  0  0  0  0  2 V2000
  145.7442  143.0005  155.7760 C   0  0  0  0  0  0  0  0  0  0  0  0
  146.1787  142.0571  155.1341 C   0  0  0  0  0  0  0  0  0  0  0  0
  146.7059  140.9274  154.3506 C   0  0  0  0  0  0  0  0  0  0  0  0
  147.9174  140.3587  154.9306 N   0  0  0  0  0  0  0  0  0  0  0  0
  149.1566  140.4930  154.4329 C   0  0  0  0  0  0  0  0  0  0  0  0
  149.4080  141.1149  153.3995 O   0  0  0  0  0  0  0  0  0  0  0  0
  150.2751  139.7957  155.2171 C   0  0  0  0  0  0  0  0  0  0  0  0
  150.5137  140.4024  156.5247 N   0  0  0  0  0  0  0  0  0  0  0  0
  151.6399  140.2677  157.2402 C   0  0  0  0  0  0  0  0  0  0  0  0
  152.6223  139.6348  156.8527 O   0  0  0  0  0  0  0  0  0  0  0  0
  151.5426  140.8876  158.4279 N   0  0  0  0  0  0  0  0  0  0  0  0
  152.4983  140.8920  159.4822 C   0  0  0  0  0  0  0  0  0  0  0  0
  153.2879  139.7454  159.7531 C   0  0  0  0  0  0  0  0  0  0  0  0
  154.2759  139.7926  160.7542 C   0  0  0  0  0  0  0  0  0  0  0  0
  154.4720  140.9922  161.4592 C   0  0  0  0  0  0  0  0  0  0  0  0
  153.7137  142.0696  161.1696 N   0  3  0  0  0  0  0  0  0  0  0  0
  152.7364  142.0828  160.2285 C   0  0  0  0  0  0  0  0  0  0  0  0
  152.0141  143.2843  160.0452 N   0  0  0  0  0  0  0  0  0  0  0  0
  151.9213  143.8958  158.7245 C   0  0  0  0  0  0  0  0  0  0  0  0
  151.3934  145.3053  158.9767 C   0  0  0  0  0  0  0  0  0  0  0  0
  152.0439  145.6655  160.3090 C   0  0  0  0  0  0  0  0  0  0  0  0
  152.0999  144.3307  161.0593 C   0  0  0  0  0  0  0  0  0  0  0  0
  145.3652  143.8266  156.3349 H   0  0  0  0  0  0  0  0  0  0  0  0
  145.9211  140.1767  154.2476 H   0  0  0  0  0  0  0  0  0  0  0  0
  146.9334  141.2916  153.3489 H   0  0  0  0  0  0  0  0  0  0  0  0
  147.8050  139.8235  155.7795 H   0  0  0  0  0  0  0  0  0  0  0  0
  150.0491  138.7341  155.3331 H   0  0  0  0  0  0  0  0  0  0  0  0
  151.1954  139.8586  154.6362 H   0  0  0  0  0  0  0  0  0  0  0  0
  149.7537  140.9348  156.9218 H   0  0  0  0  0  0  0  0  0  0  0  0
  150.6425  141.2872  158.6500 H   0  0  0  0  0  0  0  0  0  0  0  0
  153.1644  138.8325  159.1902 H   0  0  0  0  0  0  0  0  0  0  0  0
  154.8820  138.9243  160.9679 H   0  0  0  0  0  0  0  0  0  0  0  0
  155.2092  141.1241  162.2379 H   0  0  0  0  0  0  0  0  0  0  0  0
  152.9069  143.9518  158.2608 H   0  0  0  0  0  0  0  0  0  0  0  0
  151.2621  143.3282  158.0673 H   0  0  0  0  0  0  0  0  0  0  0  0
  151.6418  146.0021  158.1758 H   0  0  0  0  0  0  0  0  0  0  0  0
  150.3080  145.2849  159.0853 H   0  0  0  0  0  0  0  0  0  0  0  0
  153.0566  146.0311  160.1337 H   0  0  0  0  0  0  0  0  0  0  0  0
  151.4990  146.4357  160.8553 H   0  0  0  0  0  0  0  0  0  0  0  0
  151.2415  144.2434  161.7257 H   0  0  0  0  0  0  0  0  0  0  0  0
  153.0072  144.2509  161.6597 H   0  0  0  0  0  0  0  0  0  0  0  0
  153.8808  142.9256  161.6986 H   0  0  0  0  0  0  0  0  0  0  0  0
  1  2  3  0  0  0  0
  1 23  1  0  0  0  0
  2  3  1  0  0  0  0
  3  4  1  0  0  0  0
  3 24  1  0  0  0  0
  3 25  1  0  0  0  0
  4  5  1  0  0  0  0
  4 26  1  0  0  0  0
  5  6  2  0  0  0  0
  5  7  1  0  0  0  0
  7  8  1  0  0  0  0
  7 27  1  0  0  0  0
  7 28  1  0  0  0  0
  8  9  1  0  0  0  0
  8 29  1  0  0  0  0
  9 10  2  0  0  0  0
  9 11  1  0  0  0  0
 11 12  1  0  0  0  0
 11 30  1  0  0  0  0
 12 17  1  0  0  0  0
 12 13  2  0  0  0  0
 13 14  1  0  0  0  0
 13 31  1  0  0  0  0
 14 15  2  0  0  0  0
 14 32  1  0  0  0  0
 15 16  1  0  0  0  0
 15 33  1  0  0  0  0
 16 17  2  0  0  0  0
 16 42  1  0  0  0  0
 17 18  1  0  0  0  0
 18 22  1  0  0  0  0
 18 19  1  0  0  0  0
 19 20  1  0  0  0  0
 19 34  1  0  0  0  0
 19 35  1  0  0  0  0
 20 21  1  0  0  0  0
 20 36  1  0  0  0  0
 20 37  1  0  0  0  0
 21 22  1  0  0  0  0
 21 38  1  0  0  0  0
 21 39  1  0  0  0  0
 22 40  1  0  0  0  0
 22 41  1  0  0  0  0
M  CHG  1  16   1
M  END
> <s_m_source_file>
AV-unprocessed.smi

> <i_m_source_file_index>
3001

> <i_lp_mmshare_version>
43012

> <i_f3d_flags>
0

> <s_epik_input>
W0NIXSNDW0NIMl1bTkhdQyg9TylbQ0gyXVtOSF1DKD1PKVtOSF1jMVtjSF1bY0hdW2NIXW5jMU4yW0NIMl1bQ0gyXVtDSDJdW0NIMl0y

> <s_epik_cmdline>
J2VwaWtfcHl0aG9uJywgJy1waCcsICc3LjAnLCAnLXRuJywgJzgnLCAnLW1hJywgJzIwMCcsICctbWV0YWxfYmluZGluZycsICctaW1hZScsICc8aW5maWxlLm1hZT4nLCAnLW9tYWUnLCAnPG91dGZpbGUubWFlPic=

> <r_lp_tautomer_probability>
0.999994

> <r_epik_Ionization_Penalty>
0.644915

> <r_epik_Ionization_Penalty_Charging>
0.644896

> <r_epik_Ionization_Penalty_Neutral>
1.90142e-05

> <r_epik_State_Penalty>
0.662902

> <r_epik_Charging_Adjusted_Penalty>
1.3078

> <i_epik_Tot_Q>
1

> <i_epik_Tot_abs_Q>
1

> <r_epik_Metal_State_Penalty>
0.837036

> <b_epik_Metal_Only>
0

> <s_lp_Force_Field>
OPLS_2005

> <r_lp_Energy>
32.9475

> <b_lp_Chiralities_Consistent>
1

> <s_lp_Variant>
AV-unprocessed.smi:3001-2

> <Gold.Version>
5.8.1

> <Gold.Id.Protein>
6NUR|6NUR_protein|mol2

> <Gold.PLP.Fitness>
47.1132

> <Gold.PLP.PLP>
-41.8434

> <Gold.PLP.part.hbond>
-3.0000

> <Gold.PLP.part.metal>
0.0000

> <Gold.PLP.part.buried>
-6.8936

> <Gold.PLP.part.nonpolar>
-36.7847

> <Gold.PLP.part.repulsive>
4.7744

> <Gold.PLP.ligand.clash>
0.0000

> <Gold.PLP.ligand.torsion>
0.7576

> <Gold.PLP.Chemscore.Hbond>
2.1287

> <Gold.PLP.Chemscore.CHOScore>
0.0000

> <Gold.PLP.Chemscore.Metal>
0.0000

> <Gold.Chemscore.Hbonds>
donor molecule, donor type, donor heavy atom, donor atom, acceptor molecule, acceptor atom, score
      P1  H  7989  7998       L1     6  0.10
      P1  H  7997  8010       L1    10  1.00
      P1  H  8011  8017       L1     6  1.00

> <Gold.PLP.Chemscore.Internal.Correction>
0.3988

> <Gold.Rescore>
     Score         DG    S(hbond)    S(metal)    S(lipo)     H(rot)  DE(clash)    DE(int)     intcor
     15.25     -18.89       2.02        0.00      97.50       1.85       1.76       1.88       ----

> <Gold.Chemscore.Fitness>
15.2479

> <Gold.Chemscore.DG>
-18.8881

> <Gold.Chemscore.ZeroCoef>
-5.4800

> <Gold.Chemscore.Hbond>
2.0205

> <Gold.Chemscore.Metal>
0.0000

> <Gold.Chemscore.Lipo>
97.4995

> <Gold.Chemscore.Internal_Hbond>
0.0000

> <Gold.Chemscore.DEClash>
1.7623

> <Gold.Chemscore.DEInternal>
1.8779

> <Gold.Chemscore.Rot>
1.8547

> <Gold.Chemscore.Internal.Correction>
   9.000000E+99

> <Gold.Chemscore.Hbonds>
donor molecule, donor type, donor heavy atom, donor atom, acceptor molecule, acceptor atom, score
      P1  H  7989  7998       L1     6  0.02
      P1  H  7997  8010       L1    10  0.95
      P1  H  8011  8017       L1     6  0.98

> <Gold.Chemscore.Hbond.Weighted>
-6.7486

> <Gold.Chemscore.Metal.Weighted>
-0.0000

> <Gold.Chemscore.Lipo.Weighted>
-11.4074

> <Gold.Chemscore.Internal_Hbond.Weighted>
0.0000

> <Gold.Chemscore.DEClash.Weighted>
1.7623

> <Gold.Chemscore.DEInternal.Weighted>
1.8779

> <Gold.Chemscore.Rot.Weighted>
4.7479

> <Gold.Chemscore.Internal.Correction.Weighted>
   9.000000E+99

> <Gold.Protein.RotatedTorsions>
[ 6907 6896 6895 6894 ] final  176.65 input  -60.11 | X-H torsion
[ 7974 7965 7964 7962 ] final  144.83 input  175.53 | X-H torsion
[ 8008 7997 7996 7995 ] final   83.58 input   59.86 | X-H torsion
[ 10167 10162 10161 10158 ] final -143.37 input  -65.29 | X-H torsion
[ 10718 10713 10712 10709 ] final    2.67 input   66.30 | X-H torsion
[ 10763 10752 10751 10750 ] final  138.02 input  -60.55 | X-H torsion
[ 11005 11000 10999 10996 ] final  155.29 input  -57.11 | X-H torsion

> <Gold.Protein.ActiveResidues>
 VAL166  LYS551  ARG553  GLY616  TRP617  ASP618  TYR619  PRO620  LYS621  CYS622 
 ASP623  PHE694  ASN695  SER759  ASP760  ASP761  ALA762  ILE779  LEU786  VAL792 
 PHE793  MET794  SER795  GLU796  ALA797  LYS798  CYS799  TRP800  GLU811  SER814 

> <Gold.Protein.RotatedAtoms>
  151.7166  133.3313  159.3304 H   0  0  0  0  0  0  0  0  0  0  0  0  # atno 6907 bound_to 6896
  150.7671  134.6485  159.6284 H   0  0  0  0  0  0  0  0  0  0  0  0  # atno 6908 bound_to 6896
  152.3678  134.6781  160.0238 H   0  0  0  0  0  0  0  0  0  0  0  0  # atno 6909 bound_to 6896
  144.8802  139.5710  143.5846 H   0  0  0  0  0  0  0  0  0  0  0  0  # atno 7974 bound_to 7965
  155.9258  140.3418  155.6209 H   0  0  0  0  0  0  0  0  0  0  0  0  # atno 8008 bound_to 7997
  155.7218  140.0784  157.2346 H   0  0  0  0  0  0  0  0  0  0  0  0  # atno 8009 bound_to 7997
  154.4077  140.1604  156.2398 H   0  0  0  0  0  0  0  0  0  0  0  0  # atno 8010 bound_to 7997
  139.8000  143.7847  152.2657 H   0  0  0  0  0  0  0  0  0  0  0  0  # atno 10167 bound_to 10162
  156.8665  130.5605  149.5660 H   0  0  0  0  0  0  0  0  0  0  0  0  # atno 10718 bound_to 10713
  153.8826  135.3042  155.3445 H   0  0  0  0  0  0  0  0  0  0  0  0  # atno 10763 bound_to 10752
  154.7754  135.4864  153.9737 H   0  0  0  0  0  0  0  0  0  0  0  0  # atno 10764 bound_to 10752
  153.1343  135.6810  153.9226 H   0  0  0  0  0  0  0  0  0  0  0  0  # atno 10765 bound_to 10752
  140.1568  134.8637  157.2524 H   0  0  0  0  0  0  0  0  0  0  0  0  # atno 11005 bound_to 11000
  146.2990  139.7366  142.9105 LP  0  0  0  0  0  0  0  0  0  0  0  0  # atno 17320 bound_to 7965
  145.3967  141.0380  143.3093 LP  0  0  0  0  0  0  0  0  0  0  0  0  # atno 17321 bound_to 7965
  139.7964  144.7391  150.9885 LP  0  0  0  0  0  0  0  0  0  0  0  0  # atno 17342 bound_to 10162
  140.7820  143.4390  151.0581 LP  0  0  0  0  0  0  0  0  0  0  0  0  # atno 17343 bound_to 10162
  156.0749  130.5773  150.9454 LP  0  0  0  0  0  0  0  0  0  0  0  0  # atno 17370 bound_to 10713
  157.6220  131.0929  150.8604 LP  0  0  0  0  0  0  0  0  0  0  0  0  # atno 17371 bound_to 10713
  140.2538  134.3652  155.7432 LP  0  0  0  0  0  0  0  0  0  0  0  0  # atno 17394 bound_to 11000
  141.2205  133.7331  156.8976 LP  0  0  0  0  0  0  0  0  0  0  0  0  # atno 17395 bound_to 11000

$$$$
