AV-unprocessed.smi:2295|AV-procd|sdf|9219|dock3
  -GOLD-   2272012433D 1   1.00000     0.00000
 Structure written by MMmdl.
 37 38  0  0  0  0  0  0  0  0  1 V2000
  152.0968  145.9190  160.3360 C   0  0  0  0  0  0  0  0  0  0  0  0
  152.0960  144.5528  159.6830 C   0  0  0  0  0  0  0  0  0  0  0  0
  152.8944  143.5088  160.1879 C   0  0  0  0  0  0  0  0  0  0  0  0
  152.8474  142.2609  159.5357 C   0  0  0  0  0  0  0  0  0  0  0  0
  153.6803  141.0944  160.0243 C   0  0  0  0  0  0  0  0  0  0  0  0
  152.0757  142.0237  158.4533 N   0  0  0  0  0  0  0  0  0  0  0  0
  151.3022  143.0218  157.9584 C   0  0  0  0  0  0  0  0  0  0  0  0
  150.4541  142.8761  156.8285 N   0  0  0  0  0  0  0  0  0  0  0  0
  150.2384  141.7758  156.0863 C   0  0  0  0  0  0  0  0  0  0  0  0
  150.7741  140.6811  156.2620 O   0  0  0  0  0  0  0  0  0  0  0  0
  149.3522  142.0186  155.1095 N   0  0  0  0  0  0  0  0  0  0  0  0
  148.8794  141.0444  154.1304 C   0  0  0  0  0  0  0  0  0  0  0  0
  147.3433  140.9435  154.1110 C   0  0  1  0  0  0  0  0  0  0  0  0
  146.7302  140.3470  155.3871 C   0  0  0  0  0  0  0  0  0  0  0  0
  145.2712  140.8022  155.4318 C   0  0  0  0  0  0  0  0  0  0  0  0
  145.2761  142.2948  155.1004 C   0  0  0  0  0  0  0  0  0  0  0  0
  146.5721  142.5680  153.8652 S   0  0  0  0  0  0  0  0  0  0  0  0
  151.2913  144.3037  158.5530 C   0  0  0  0  0  0  0  0  0  0  0  0
  152.7233  145.9321  161.2283 H   0  0  0  0  0  0  0  0  0  0  0  0
  151.0842  146.1994  160.6270 H   0  0  0  0  0  0  0  0  0  0  0  0
  152.4756  146.6693  159.6415 H   0  0  0  0  0  0  0  0  0  0  0  0
  153.5260  143.6603  161.0514 H   0  0  0  0  0  0  0  0  0  0  0  0
  154.2016  141.3403  160.9498 H   0  0  0  0  0  0  0  0  0  0  0  0
  154.4244  140.8215  159.2756 H   0  0  0  0  0  0  0  0  0  0  0  0
  153.0467  140.2271  160.2122 H   0  0  0  0  0  0  0  0  0  0  0  0
  149.9420  143.7037  156.5618 H   0  0  0  0  0  0  0  0  0  0  0  0
  148.9661  142.9487  155.0419 H   0  0  0  0  0  0  0  0  0  0  0  0
  149.2619  141.2703  153.1335 H   0  0  0  0  0  0  0  0  0  0  0  0
  149.3029  140.0778  154.4045 H   0  0  0  0  0  0  0  0  0  0  0  0
  147.0346  140.3305  153.2631 H   0  0  0  0  0  0  0  0  0  0  0  0
  146.8142  139.2600  155.4079 H   0  0  0  0  0  0  0  0  0  0  0  0
  147.2517  140.7288  156.2658 H   0  0  0  0  0  0  0  0  0  0  0  0
  144.6972  140.2603  154.6792 H   0  0  0  0  0  0  0  0  0  0  0  0
  144.8100  140.6032  156.3994 H   0  0  0  0  0  0  0  0  0  0  0  0
  144.3075  142.6407  154.7385 H   0  0  0  0  0  0  0  0  0  0  0  0
  145.5264  142.8747  155.9892 H   0  0  0  0  0  0  0  0  0  0  0  0
  150.6708  145.0908  158.1493 H   0  0  0  0  0  0  0  0  0  0  0  0
  1  2  1  0  0  0  0
  1 19  1  0  0  0  0
  1 20  1  0  0  0  0
  1 21  1  0  0  0  0
  2 18  1  0  0  0  0
  2  3  2  0  0  0  0
  3  4  1  0  0  0  0
  3 22  1  0  0  0  0
  4  5  1  0  0  0  0
  4  6  2  0  0  0  0
  5 23  1  0  0  0  0
  5 24  1  0  0  0  0
  5 25  1  0  0  0  0
  6  7  1  0  0  0  0
  7  8  1  0  0  0  0
  7 18  2  0  0  0  0
  8  9  1  0  0  0  0
  8 26  1  0  0  0  0
  9 10  2  0  0  0  0
  9 11  1  0  0  0  0
 11 12  1  0  0  0  0
 11 27  1  0  0  0  0
 12 13  1  0  0  0  0
 12 28  1  0  0  0  0
 12 29  1  0  0  0  0
 13 17  1  0  0  0  0
 13 14  1  0  0  0  0
 13 30  1  0  0  0  0
 14 15  1  0  0  0  0
 14 31  1  0  0  0  0
 14 32  1  0  0  0  0
 15 16  1  0  0  0  0
 15 33  1  0  0  0  0
 15 34  1  0  0  0  0
 16 17  1  0  0  0  0
 16 35  1  0  0  0  0
 16 36  1  0  0  0  0
 18 37  1  0  0  0  0
M  END
> <s_m_source_file>
AV-unprocessed.smi

> <i_m_source_file_index>
2295

> <i_lp_mmshare_version>
43012

> <i_f3d_flags>
0

> <s_epik_input>
W0NIM11jMVtjSF1jKFtDSDNdKW5jKFtjSF0xKVtOSF1DKD1PKVtOSF1bQ0gyXVtDQEBIXTJbQ0gyXVtDSDJdW0NIMl1TMg==

> <s_epik_cmdline>
J2VwaWtfcHl0aG9uJywgJy1waCcsICc3LjAnLCAnLXRuJywgJzgnLCAnLW1hJywgJzIwMCcsICctbWV0YWxfYmluZGluZycsICctaW1hZScsICc8aW5maWxlLm1hZT4nLCAnLW9tYWUnLCAnPG91dGZpbGUubWFlPic=

> <r_lp_tautomer_probability>
1

> <r_epik_Ionization_Penalty>
0.000247769

> <r_epik_Ionization_Penalty_Charging>
0

> <r_epik_Ionization_Penalty_Neutral>
0.000247769

> <r_epik_State_Penalty>
-0

> <r_epik_Charging_Adjusted_Penalty>
0

> <i_epik_Tot_Q>
0

> <i_epik_Tot_abs_Q>
0

> <r_epik_Metal_State_Penalty>
-0

> <b_epik_Metal_Only>
0

> <s_lp_Force_Field>
OPLS_2005

> <r_lp_Energy>
14.3156

> <b_lp_Chiralities_Consistent>
1

> <s_lp_Variant>
AV-unprocessed.smi:2295-2

> <Gold.Version>
5.8.1

> <Gold.Id.Protein>
6NUR|6NUR_protein|mol2

> <Gold.PLP.Fitness>
47.1608

> <Gold.PLP.PLP>
-41.2373

> <Gold.PLP.part.hbond>
-2.0000

> <Gold.PLP.part.metal>
0.0000

> <Gold.PLP.part.buried>
-5.7804

> <Gold.PLP.part.nonpolar>
-34.1102

> <Gold.PLP.part.repulsive>
0.2718

> <Gold.PLP.ligand.clash>
0.0000

> <Gold.PLP.ligand.torsion>
0.0389

> <Gold.PLP.Chemscore.Hbond>
2.0000

> <Gold.PLP.Chemscore.CHOScore>
0.0000

> <Gold.PLP.Chemscore.Metal>
0.0000

> <Gold.Chemscore.Hbonds>
donor molecule, donor type, donor heavy atom, donor atom, acceptor molecule, acceptor atom, score
      L1  H     8    26       P1  8028  1.00
      L1  H    11    27       P1  8028  1.00

> <Gold.PLP.Chemscore.Internal.Correction>
0.0012

> <Gold.Rescore>
     Score         DG    S(hbond)    S(metal)    S(lipo)     H(rot)  DE(clash)    DE(int)     intcor
     19.17     -20.49       1.95        0.00      98.11       1.17       0.02       1.29       ----

> <Gold.Chemscore.Fitness>
19.1739

> <Gold.Chemscore.DG>
-20.4876

> <Gold.Chemscore.ZeroCoef>
-5.4800

> <Gold.Chemscore.Hbond>
1.9539

> <Gold.Chemscore.Metal>
0.0000

> <Gold.Chemscore.Lipo>
98.1131

> <Gold.Chemscore.Internal_Hbond>
0.0000

> <Gold.Chemscore.DEClash>
0.0203

> <Gold.Chemscore.DEInternal>
1.2934

> <Gold.Chemscore.Rot>
1.1709

> <Gold.Chemscore.Internal.Correction>
   9.000000E+99

> <Gold.Chemscore.Hbonds>
donor molecule, donor type, donor heavy atom, donor atom, acceptor molecule, acceptor atom, score
      L1  H     8    26       P1  8028  1.00
      L1  H    11    27       P1  8028  0.95

> <Gold.Chemscore.Hbond.Weighted>
-6.5259

> <Gold.Chemscore.Metal.Weighted>
-0.0000

> <Gold.Chemscore.Lipo.Weighted>
-11.4792

> <Gold.Chemscore.Internal_Hbond.Weighted>
0.0000

> <Gold.Chemscore.DEClash.Weighted>
0.0203

> <Gold.Chemscore.DEInternal.Weighted>
1.2934

> <Gold.Chemscore.Rot.Weighted>
2.9975

> <Gold.Chemscore.Internal.Correction.Weighted>
   9.000000E+99

> <Gold.Protein.RotatedTorsions>
[ 6907 6896 6895 6894 ] final   74.62 input  -60.11 | X-H torsion
[ 7974 7965 7964 7962 ] final -148.23 input  175.53 | X-H torsion
[ 8008 7997 7996 7995 ] final -161.22 input   59.86 | X-H torsion
[ 10167 10162 10161 10158 ] final   95.29 input  -65.29 | X-H torsion
[ 10718 10713 10712 10709 ] final  -53.54 input   66.30 | X-H torsion
[ 10763 10752 10751 10750 ] final  -70.91 input  -60.55 | X-H torsion
[ 11005 11000 10999 10996 ] final -123.21 input  -57.11 | X-H torsion

> <Gold.Protein.ActiveResidues>
 VAL166  LYS551  ARG553  GLY616  TRP617  ASP618  TYR619  PRO620  LYS621  CYS622 
 ASP623  PHE694  ASN695  SER759  ASP760  ASP761  ALA762  ILE779  LEU786  VAL792 
 PHE793  MET794  SER795  GLU796  ALA797  LYS798  CYS799  TRP800  GLU811  SER814 

> <Gold.Protein.RotatedAtoms>
  152.4985  134.4243  159.9490 H   0  0  0  0  0  0  0  0  0  0  0  0  # atno 6907 bound_to 6896
  151.4218  133.3690  159.2765 H   0  0  0  0  0  0  0  0  0  0  0  0  # atno 6908 bound_to 6896
  150.9217  134.8657  159.7553 H   0  0  0  0  0  0  0  0  0  0  0  0  # atno 6909 bound_to 6896
  144.8043  140.5224  143.5686 H   0  0  0  0  0  0  0  0  0  0  0  0  # atno 7974 bound_to 7965
  155.7890  140.0875  157.2019 H   0  0  0  0  0  0  0  0  0  0  0  0  # atno 8008 bound_to 7997
  154.3986  140.1493  156.3199 H   0  0  0  0  0  0  0  0  0  0  0  0  # atno 8009 bound_to 7997
  155.8577  140.3431  155.5738 H   0  0  0  0  0  0  0  0  0  0  0  0  # atno 8010 bound_to 7997
  139.8003  144.6816  150.9774 H   0  0  0  0  0  0  0  0  0  0  0  0  # atno 10167 bound_to 10162
  156.1527  130.4151  149.9919 H   0  0  0  0  0  0  0  0  0  0  0  0  # atno 10718 bound_to 10713
  154.4244  135.5979  153.6029 H   0  0  0  0  0  0  0  0  0  0  0  0  # atno 10763 bound_to 10752
  152.9795  135.5960  154.3916 H   0  0  0  0  0  0  0  0  0  0  0  0  # atno 10764 bound_to 10752
  154.3746  135.2841  155.2225 H   0  0  0  0  0  0  0  0  0  0  0  0  # atno 10765 bound_to 10752
  140.9936  134.0504  157.3625 H   0  0  0  0  0  0  0  0  0  0  0  0  # atno 11005 bound_to 11000
  145.5477  139.1476  143.3411 LP  0  0  0  0  0  0  0  0  0  0  0  0  # atno 17320 bound_to 7965
  146.2331  140.5616  142.8967 LP  0  0  0  0  0  0  0  0  0  0  0  0  # atno 17321 bound_to 7965
  140.7820  143.4289  151.0726 LP  0  0  0  0  0  0  0  0  0  0  0  0  # atno 17342 bound_to 10162
  139.7961  143.8150  152.3157 LP  0  0  0  0  0  0  0  0  0  0  0  0  # atno 17343 bound_to 10162
  156.7772  130.9208  151.3645 LP  0  0  0  0  0  0  0  0  0  0  0  0  # atno 17370 bound_to 10713
  157.6670  130.9016  149.9953 LP  0  0  0  0  0  0  0  0  0  0  0  0  # atno 17371 bound_to 10713
  139.9004  135.0162  156.7239 LP  0  0  0  0  0  0  0  0  0  0  0  0  # atno 17394 bound_to 11000
  140.7001  133.9314  155.8019 LP  0  0  0  0  0  0  0  0  0  0  0  0  # atno 17395 bound_to 11000

$$$$
