AV-unprocessed.smi:1565|AV-procd|sdf|6301|dock2
  -GOLD-   22720 6503D 1   1.00000     0.00000
 Structure written by MMmdl.
 39 40  0  0  0  0  0  0  0  0  2 V2000
  153.4226  142.3107  162.2567 C   0  0  0  0  0  0  0  0  0  0  0  0
  152.4683  142.4344  161.0642 C   0  0  2  0  0  0  0  0  0  0  0  0
  152.6181  141.2587  160.0805 C   0  0  0  0  0  0  0  0  0  0  0  0
  151.7826  141.4692  158.9018 N   0  0  0  0  0  0  0  0  0  0  0  0
  151.6295  140.3441  158.0631 C   0  0  0  0  0  0  0  0  0  0  0  0
  151.0720  139.1493  158.5750 C   0  0  0  0  0  0  0  0  0  0  0  0
  150.9402  138.0331  157.7267 C   0  0  0  0  0  0  0  0  0  0  0  0
  151.3584  138.1360  156.3805 C   0  0  0  0  0  0  0  0  0  0  0  0
  151.2871  136.9723  155.4287 C   0  0  0  0  0  0  0  0  0  0  0  0
  151.7753  137.1154  154.3022 O   0  0  0  0  0  0  0  0  0  0  0  0
  150.6255  135.9048  155.9588 N   0  5  0  0  0  0  0  0  0  0  0  0
  151.1691  134.5456  156.0178 C   0  0  0  0  0  0  0  0  0  0  0  0
  150.2072  133.5256  155.3752 C   0  0  0  0  0  0  0  0  0  0  0  0
  150.7678  132.3168  155.4158 F   0  0  0  0  0  0  0  0  0  0  0  0
  149.0542  133.4772  156.0442 F   0  0  0  0  0  0  0  0  0  0  0  0
  149.9617  133.8306  154.1001 F   0  0  0  0  0  0  0  0  0  0  0  0
  151.9042  139.3691  155.9634 C   0  0  0  0  0  0  0  0  0  0  0  0
  152.0314  140.4431  156.7723 N   0  0  0  0  0  0  0  0  0  0  0  0
  151.9978  142.7685  158.2690 C   0  0  0  0  0  0  0  0  0  0  0  0
  151.8625  143.9003  159.3045 C   0  0  2  0  0  0  0  0  0  0  0  0
  152.1974  145.2706  158.7064 C   0  0  0  0  0  0  0  0  0  0  0  0
  152.7572  143.6537  160.3858 O   0  0  0  0  0  0  0  0  0  0  0  0
  153.2337  141.3947  162.8174 H   0  0  0  0  0  0  0  0  0  0  0  0
  153.3012  143.1505  162.9412 H   0  0  0  0  0  0  0  0  0  0  0  0
  154.4626  142.2947  161.9295 H   0  0  0  0  0  0  0  0  0  0  0  0
  151.4446  142.4686  161.4418 H   0  0  0  0  0  0  0  0  0  0  0  0
  153.6566  141.1667  159.7596 H   0  0  0  0  0  0  0  0  0  0  0  0
  152.3624  140.3323  160.5932 H   0  0  0  0  0  0  0  0  0  0  0  0
  150.7389  139.0773  159.5994 H   0  0  0  0  0  0  0  0  0  0  0  0
  150.5264  137.1146  158.1169 H   0  0  0  0  0  0  0  0  0  0  0  0
  152.1445  134.4715  155.5345 H   0  0  0  0  0  0  0  0  0  0  0  0
  151.3453  134.2518  157.0532 H   0  0  0  0  0  0  0  0  0  0  0  0
  152.2510  139.5065  154.9494 H   0  0  0  0  0  0  0  0  0  0  0  0
  152.9907  142.7886  157.8173 H   0  0  0  0  0  0  0  0  0  0  0  0
  151.2715  142.9198  157.4692 H   0  0  0  0  0  0  0  0  0  0  0  0
  150.8401  143.9294  159.6859 H   0  0  0  0  0  0  0  0  0  0  0  0
  151.5303  145.5109  157.8782 H   0  0  0  0  0  0  0  0  0  0  0  0
  153.2208  145.2983  158.3312 H   0  0  0  0  0  0  0  0  0  0  0  0
  152.0956  146.0574  159.4541 H   0  0  0  0  0  0  0  0  0  0  0  0
  1  2  1  0  0  0  0
  1 23  1  0  0  0  0
  1 24  1  0  0  0  0
  1 25  1  0  0  0  0
  2 22  1  0  0  0  0
  2  3  1  0  0  0  0
  2 26  1  0  0  0  0
  3  4  1  0  0  0  0
  3 27  1  0  0  0  0
  3 28  1  0  0  0  0
  4  5  1  0  0  0  0
  4 19  1  0  0  0  0
  5 18  1  0  0  0  0
  5  6  2  0  0  0  0
  6  7  1  0  0  0  0
  6 29  1  0  0  0  0
  7  8  2  0  0  0  0
  7 30  1  0  0  0  0
  8  9  1  0  0  0  0
  8 17  1  0  0  0  0
  9 10  2  0  0  0  0
  9 11  1  0  0  0  0
 11 12  1  0  0  0  0
 12 13  1  0  0  0  0
 12 31  1  0  0  0  0
 12 32  1  0  0  0  0
 13 14  1  0  0  0  0
 13 15  1  0  0  0  0
 13 16  1  0  0  0  0
 17 18  2  0  0  0  0
 17 33  1  0  0  0  0
 19 20  1  0  0  0  0
 19 34  1  0  0  0  0
 19 35  1  0  0  0  0
 20 21  1  0  0  0  0
 20 22  1  0  0  0  0
 20 36  1  0  0  0  0
 21 37  1  0  0  0  0
 21 38  1  0  0  0  0
 21 39  1  0  0  0  0
M  CHG  1  11  -1
M  END
> <s_m_source_file>
AV-unprocessed.smi

> <i_m_source_file_index>
1565

> <i_lp_mmshare_version>
43012

> <i_f3d_flags>
0

> <s_epik_input>
W0NIM11bQ0BASF0xW0NIMl1OKFtDSDJdW0NASF0oTzEpW0NIM10pYzJbY0hdW2NIXWMoW2NIXW4yKUMoPU8pW05IXVtDSDJdQyhGKShGKUY=

> <s_epik_cmdline>
J2VwaWtfcHl0aG9uJywgJy1waCcsICc3LjAnLCAnLXRuJywgJzgnLCAnLW1hJywgJzIwMCcsICctbWV0YWxfYmluZGluZycsICctaW1hZScsICc8aW5maWxlLm1hZT4nLCAnLW9tYWUnLCAnPG91dGZpbGUubWFlPic=

> <r_lp_tautomer_probability>
1

> <r_epik_Ionization_Penalty>
6.78525

> <r_epik_Ionization_Penalty_Charging>
6.78469

> <r_epik_Ionization_Penalty_Neutral>
0.000559052

> <r_epik_State_Penalty>
6.78469

> <r_epik_Charging_Adjusted_Penalty>
13.5694

> <i_epik_Tot_Q>
-1

> <i_epik_Tot_abs_Q>
1

> <r_epik_Metal_State_Penalty>
2.70441

> <b_epik_Metal_Only>
1

> <s_lp_Force_Field>
OPLS_2005

> <r_lp_Energy>
25.7162

> <b_lp_Chiralities_Consistent>
1

> <s_lp_Variant>
AV-unprocessed.smi:1565-5

> <Gold.Version>
5.8.1

> <Gold.Id.Protein>
6NUR|6NUR_protein|mol2

> <Gold.PLP.Fitness>
41.7997

> <Gold.PLP.PLP>
-39.9479

> <Gold.PLP.part.hbond>
-1.0000

> <Gold.PLP.part.metal>
0.0000

> <Gold.PLP.part.buried>
-6.7440

> <Gold.PLP.part.nonpolar>
-31.8836

> <Gold.PLP.part.repulsive>
0.2413

> <Gold.PLP.ligand.clash>
0.0000

> <Gold.PLP.ligand.torsion>
0.7594

> <Gold.PLP.Chemscore.Hbond>
1.0000

> <Gold.PLP.Chemscore.CHOScore>
0.0000

> <Gold.PLP.Chemscore.Metal>
0.0000

> <Gold.Chemscore.Hbonds>
donor molecule, donor type, donor heavy atom, donor atom, acceptor molecule, acceptor atom, score
      P1  H 10752 10765       L1    10  1.00

> <Gold.PLP.Chemscore.Internal.Correction>
0.3705

> <Gold.Rescore>
     Score         DG    S(hbond)    S(metal)    S(lipo)     H(rot)  DE(clash)    DE(int)     intcor
     15.68     -16.64       1.00        0.00      95.23       1.29       0.02       0.94       ----

> <Gold.Chemscore.Fitness>
15.6819

> <Gold.Chemscore.DG>
-16.6427

> <Gold.Chemscore.ZeroCoef>
-5.4800

> <Gold.Chemscore.Hbond>
0.9965

> <Gold.Chemscore.Metal>
0.0000

> <Gold.Chemscore.Lipo>
95.2305

> <Gold.Chemscore.Internal_Hbond>
0.0000

> <Gold.Chemscore.DEClash>
0.0168

> <Gold.Chemscore.DEInternal>
0.9439

> <Gold.Chemscore.Rot>
1.2921

> <Gold.Chemscore.Internal.Correction>
   9.000000E+99

> <Gold.Chemscore.Hbonds>
donor molecule, donor type, donor heavy atom, donor atom, acceptor molecule, acceptor atom, score
      P1  H 10752 10765       L1    10  0.25

> <Gold.Chemscore.Hbond.Weighted>
-3.3284

> <Gold.Chemscore.Metal.Weighted>
-0.0000

> <Gold.Chemscore.Lipo.Weighted>
-11.1420

> <Gold.Chemscore.Internal_Hbond.Weighted>
0.0000

> <Gold.Chemscore.DEClash.Weighted>
0.0168

> <Gold.Chemscore.DEInternal.Weighted>
0.9439

> <Gold.Chemscore.Rot.Weighted>
3.3078

> <Gold.Chemscore.Internal.Correction.Weighted>
   9.000000E+99

> <Gold.Protein.RotatedTorsions>
[ 6907 6896 6895 6894 ] final   64.03 input  -60.11 | X-H torsion
[ 7974 7965 7964 7962 ] final   29.65 input  175.53 | X-H torsion
[ 8008 7997 7996 7995 ] final   97.12 input   59.86 | X-H torsion
[ 10167 10162 10161 10158 ] final  140.73 input  -65.29 | X-H torsion
[ 10718 10713 10712 10709 ] final  117.28 input   66.30 | X-H torsion
[ 10763 10752 10751 10750 ] final  161.39 input  -60.55 | X-H torsion
[ 11005 11000 10999 10996 ] final  -99.08 input  -57.11 | X-H torsion

> <Gold.Protein.ActiveResidues>
 VAL166  LYS551  ARG553  GLY616  TRP617  ASP618  TYR619  PRO620  LYS621  CYS622 
 ASP623  PHE694  ASN695  SER759  ASP760  ASP761  ALA762  ILE779  LEU786  VAL792 
 PHE793  MET794  SER795  GLU796  ALA797  LYS798  CYS799  TRP800  GLU811  SER814 

> <Gold.Protein.RotatedAtoms>
  152.4299  134.5797  159.9944 H   0  0  0  0  0  0  0  0  0  0  0  0  # atno 6907 bound_to 6896
  151.5923  133.3359  159.3038 H   0  0  0  0  0  0  0  0  0  0  0  0  # atno 6908 bound_to 6896
  150.8191  134.7426  159.6821 H   0  0  0  0  0  0  0  0  0  0  0  0  # atno 6909 bound_to 6896
  146.1659  139.6893  142.9001 H   0  0  0  0  0  0  0  0  0  0  0  0  # atno 7974 bound_to 7965
  156.0868  140.3263  155.7764 H   0  0  0  0  0  0  0  0  0  0  0  0  # atno 8008 bound_to 7997
  155.5063  140.0573  157.2948 H   0  0  0  0  0  0  0  0  0  0  0  0  # atno 8009 bound_to 7997
  154.4614  140.1968  156.0252 H   0  0  0  0  0  0  0  0  0  0  0  0  # atno 8010 bound_to 7997
  139.5040  144.6216  151.6037 H   0  0  0  0  0  0  0  0  0  0  0  0  # atno 10167 bound_to 10162
  157.6107  131.1035  150.7592 H   0  0  0  0  0  0  0  0  0  0  0  0  # atno 10718 bound_to 10713
  154.2623  135.2768  155.2773 H   0  0  0  0  0  0  0  0  0  0  0  0  # atno 10763 bound_to 10752
  154.5373  135.5712  153.6813 H   0  0  0  0  0  0  0  0  0  0  0  0  # atno 10764 bound_to 10752
  152.9960  135.6242  154.2774 H   0  0  0  0  0  0  0  0  0  0  0  0  # atno 10765 bound_to 10752
  141.1321  133.8294  157.0925 H   0  0  0  0  0  0  0  0  0  0  0  0  # atno 11005 bound_to 11000
  145.4469  141.0426  143.2826 LP  0  0  0  0  0  0  0  0  0  0  0  0  # atno 17320 bound_to 7965
  144.8091  139.5995  143.7037 LP  0  0  0  0  0  0  0  0  0  0  0  0  # atno 17321 bound_to 7965
  140.5920  143.9763  150.6330 LP  0  0  0  0  0  0  0  0  0  0  0  0  # atno 17342 bound_to 10162
  140.2947  143.3301  152.1029 LP  0  0  0  0  0  0  0  0  0  0  0  0  # atno 17343 bound_to 10162
  156.7970  130.4909  149.5375 LP  0  0  0  0  0  0  0  0  0  0  0  0  # atno 17370 bound_to 10713
  156.1208  130.6109  151.0191 LP  0  0  0  0  0  0  0  0  0  0  0  0  # atno 17371 bound_to 10713
  140.0383  134.9867  157.0914 LP  0  0  0  0  0  0  0  0  0  0  0  0  # atno 17394 bound_to 11000
  140.4175  134.1916  155.7164 LP  0  0  0  0  0  0  0  0  0  0  0  0  # atno 17395 bound_to 11000

$$$$
