AV-unprocessed.smi:3036|AV-procd|sdf|11582|dock7
  -GOLD-   2272016553D 1   1.00000     0.00000
 Structure written by MMmdl.
 42 43  0  0  0  0  0  0  0  0  2 V2000
  146.0135  133.3730  154.2414 C   0  0  0  0  0  0  0  0  0  0  0  0
  146.9348  133.9817  153.1761 C   0  0  2  0  0  0  0  0  0  0  0  0
  147.1943  132.9911  152.0243 C   0  0  0  0  0  0  0  0  0  0  0  0
  146.0454  132.8537  151.1461 N   0  0  0  0  0  0  0  0  0  0  0  0
  145.9685  132.2107  149.9288 C   0  0  0  0  0  0  0  0  0  0  0  0
  144.6828  132.3333  149.4857 C   0  0  0  0  0  0  0  0  0  0  0  0
  144.0397  133.0785  150.5128 C   0  0  0  0  0  0  0  0  0  0  0  0
  144.8573  133.3867  151.5068 N   0  0  0  0  0  0  0  0  0  0  0  0
  148.2106  134.3979  153.7994 N   0  3  0  0  0  0  0  0  0  0  0  0
  148.0649  135.1700  155.0522 C   0  0  0  0  0  0  0  0  0  0  0  0
  149.3430  135.9585  155.4007 C   0  0  0  0  0  0  0  0  0  0  0  0
  149.1785  137.4904  155.4129 C   0  0  0  0  0  0  0  0  0  0  0  0
  148.1350  137.9745  155.8545 O   0  0  0  0  0  0  0  0  0  0  0  0
  150.1861  138.2619  154.9386 N   0  0  0  0  0  0  0  0  0  0  0  0
  150.1530  139.7273  154.9591 C   0  0  0  0  0  0  0  0  0  0  0  0
  151.2766  140.2267  155.8852 C   0  0  0  0  0  0  0  0  0  0  0  0
  152.5324  139.7294  155.4296 O   0  0  0  0  0  0  0  0  0  0  0  0
  152.5844  138.3060  155.3745 C   0  0  0  0  0  0  0  0  0  0  0  0
  151.4796  137.7845  154.4383 C   0  0  0  0  0  0  0  0  0  0  0  0
  145.0546  133.0824  153.8109 H   0  0  0  0  0  0  0  0  0  0  0  0
  145.8111  134.0873  155.0405 H   0  0  0  0  0  0  0  0  0  0  0  0
  146.4579  132.4850  154.6925 H   0  0  0  0  0  0  0  0  0  0  0  0
  146.4278  134.8562  152.7642 H   0  0  0  0  0  0  0  0  0  0  0  0
  148.0581  133.3004  151.4334 H   0  0  0  0  0  0  0  0  0  0  0  0
  147.4303  132.0045  152.4255 H   0  0  0  0  0  0  0  0  0  0  0  0
  146.8240  131.7233  149.4849 H   0  0  0  0  0  0  0  0  0  0  0  0
  144.2648  131.9496  148.5666 H   0  0  0  0  0  0  0  0  0  0  0  0
  143.0102  133.4005  150.5660 H   0  0  0  0  0  0  0  0  0  0  0  0
  148.7640  133.5741  153.9904 H   0  0  0  0  0  0  0  0  0  0  0  0
  147.2376  135.8717  154.9360 H   0  0  0  0  0  0  0  0  0  0  0  0
  147.7942  134.4964  155.8668 H   0  0  0  0  0  0  0  0  0  0  0  0
  149.7060  135.6288  156.3751 H   0  0  0  0  0  0  0  0  0  0  0  0
  150.1131  135.7060  154.6709 H   0  0  0  0  0  0  0  0  0  0  0  0
  150.3020  140.1060  153.9470 H   0  0  0  0  0  0  0  0  0  0  0  0
  149.1957  140.1288  155.2936 H   0  0  0  0  0  0  0  0  0  0  0  0
  151.3085  141.3162  155.8870 H   0  0  0  0  0  0  0  0  0  0  0  0
  151.1016  139.9094  156.9145 H   0  0  0  0  0  0  0  0  0  0  0  0
  153.5654  138.0033  155.0076 H   0  0  0  0  0  0  0  0  0  0  0  0
  152.4746  137.8892  156.3768 H   0  0  0  0  0  0  0  0  0  0  0  0
  151.5506  136.7015  154.3558 H   0  0  0  0  0  0  0  0  0  0  0  0
  151.6356  138.1679  153.4289 H   0  0  0  0  0  0  0  0  0  0  0  0
  148.7073  134.9723  153.1327 H   0  0  0  0  0  0  0  0  0  0  0  0
  1  2  1  0  0  0  0
  1 20  1  0  0  0  0
  1 21  1  0  0  0  0
  1 22  1  0  0  0  0
  2  3  1  0  0  0  0
  2  9  1  0  0  0  0
  2 23  1  0  0  0  0
  3  4  1  0  0  0  0
  3 24  1  0  0  0  0
  3 25  1  0  0  0  0
  4  8  1  0  0  0  0
  4  5  1  0  0  0  0
  5  6  2  0  0  0  0
  5 26  1  0  0  0  0
  6  7  1  0  0  0  0
  6 27  1  0  0  0  0
  7  8  2  0  0  0  0
  7 28  1  0  0  0  0
  9 10  1  0  0  0  0
  9 29  1  0  0  0  0
  9 42  1  0  0  0  0
 10 11  1  0  0  0  0
 10 30  1  0  0  0  0
 10 31  1  0  0  0  0
 11 12  1  0  0  0  0
 11 32  1  0  0  0  0
 11 33  1  0  0  0  0
 12 13  2  0  0  0  0
 12 14  1  0  0  0  0
 14 19  1  0  0  0  0
 14 15  1  0  0  0  0
 15 16  1  0  0  0  0
 15 34  1  0  0  0  0
 15 35  1  0  0  0  0
 16 17  1  0  0  0  0
 16 36  1  0  0  0  0
 16 37  1  0  0  0  0
 17 18  1  0  0  0  0
 18 19  1  0  0  0  0
 18 38  1  0  0  0  0
 18 39  1  0  0  0  0
 19 40  1  0  0  0  0
 19 41  1  0  0  0  0
M  CHG  1   9   1
M  END
> <s_m_source_file>
AV-unprocessed.smi

> <i_m_source_file_index>
3036

> <i_lp_mmshare_version>
43012

> <i_f3d_flags>
0

> <s_epik_input>
bjFbY0hdW2NIXVtjSF1uMVtDSDJdW0NAQEhdKFtDSDNdKVtOSF1bQ0gyXVtDSDJdQyg9TylOMltDSDJdW0NIMl1PW0NIMl1bQ0gyXTI=

> <s_epik_cmdline>
J2VwaWtfcHl0aG9uJywgJy1waCcsICc3LjAnLCAnLXRuJywgJzgnLCAnLW1hJywgJzIwMCcsICctbWV0YWxfYmluZGluZycsICctaW1hZScsICc8aW5maWxlLm1hZT4nLCAnLW9tYWUnLCAnPG91dGZpbGUubWFlPic=

> <r_lp_tautomer_probability>
1

> <r_epik_Ionization_Penalty>
0.00797109

> <r_epik_Ionization_Penalty_Charging>
0.0079672

> <r_epik_Ionization_Penalty_Neutral>
3.88864e-06

> <r_epik_State_Penalty>
0.00597998

> <r_epik_Charging_Adjusted_Penalty>
0.0139472

> <i_epik_Tot_Q>
1

> <i_epik_Tot_abs_Q>
1

> <r_epik_Metal_State_Penalty>
0.00598029

> <b_epik_Metal_Only>
0

> <s_lp_Force_Field>
OPLS_2005

> <r_lp_Energy>
23.8433

> <b_lp_Chiralities_Consistent>
1

> <s_lp_Variant>
AV-unprocessed.smi:3036-1

> <Gold.Version>
5.8.1

> <Gold.Id.Protein>
6NUR|6NUR_protein|mol2

> <Gold.PLP.Fitness>
48.5438

> <Gold.PLP.PLP>
-35.5545

> <Gold.PLP.part.hbond>
-3.0000

> <Gold.PLP.part.metal>
0.0000

> <Gold.PLP.part.buried>
-3.3863

> <Gold.PLP.part.nonpolar>
-30.0537

> <Gold.PLP.part.repulsive>
0.1391

> <Gold.PLP.ligand.clash>
0.0000

> <Gold.PLP.ligand.torsion>
1.0492

> <Gold.PLP.Chemscore.Hbond>
3.0000

> <Gold.PLP.Chemscore.CHOScore>
2.0000

> <Gold.PLP.Chemscore.Metal>
0.0000

> <Gold.Chemscore.Hbonds>
donor molecule, donor type, donor heavy atom, donor atom, acceptor molecule, acceptor atom, score
      L1  H     9    42       P1  7948  2.00
      P1  H  7997  8008       L1    17  1.00
      L1  C     5    26       P1 10747  1.00
      L1  C     7    28       P1 10186  1.00

> <Gold.PLP.Chemscore.Internal.Correction>
0.0877

> <Gold.Rescore>
     Score         DG    S(hbond)    S(metal)    S(lipo)     H(rot)  DE(clash)    DE(int)     intcor
     13.83     -15.17       1.74        0.00      78.42       2.07       0.04       1.31       ----

> <Gold.Chemscore.Fitness>
13.8286

> <Gold.Chemscore.DG>
-15.1726

> <Gold.Chemscore.ZeroCoef>
-5.4800

> <Gold.Chemscore.Hbond>
1.7401

> <Gold.Chemscore.Metal>
0.0000

> <Gold.Chemscore.Lipo>
78.4175

> <Gold.Chemscore.Internal_Hbond>
0.0000

> <Gold.Chemscore.DEClash>
0.0352

> <Gold.Chemscore.DEInternal>
1.3088

> <Gold.Chemscore.Rot>
2.0680

> <Gold.Chemscore.Internal.Correction>
   9.000000E+99

> <Gold.Chemscore.Hbonds>
donor molecule, donor type, donor heavy atom, donor atom, acceptor molecule, acceptor atom, score
      L1  H     9    42       P1  7948  0.45
      P1  H  7997  8008       L1    17  0.33

> <Gold.Chemscore.Hbond.Weighted>
-5.8118

> <Gold.Chemscore.Metal.Weighted>
-0.0000

> <Gold.Chemscore.Lipo.Weighted>
-9.1748

> <Gold.Chemscore.Internal_Hbond.Weighted>
0.0000

> <Gold.Chemscore.DEClash.Weighted>
0.0352

> <Gold.Chemscore.DEInternal.Weighted>
1.3088

> <Gold.Chemscore.Rot.Weighted>
5.2941

> <Gold.Chemscore.Internal.Correction.Weighted>
   9.000000E+99

> <Gold.Protein.RotatedTorsions>
[ 6907 6896 6895 6894 ] final   68.84 input  -60.11 | X-H torsion
[ 7974 7965 7964 7962 ] final   60.29 input  175.53 | X-H torsion
[ 8008 7997 7996 7995 ] final  -21.31 input   59.86 | X-H torsion
[ 10167 10162 10161 10158 ] final -119.16 input  -65.29 | X-H torsion
[ 10718 10713 10712 10709 ] final  147.48 input   66.30 | X-H torsion
[ 10763 10752 10751 10750 ] final  -93.35 input  -60.55 | X-H torsion
[ 11005 11000 10999 10996 ] final  149.91 input  -57.11 | X-H torsion

> <Gold.Protein.ActiveResidues>
 VAL166  LYS551  ARG553  GLY616  TRP617  ASP618  TYR619  PRO620  LYS621  CYS622 
 ASP623  PHE694  ASN695  SER759  ASP760  ASP761  ALA762  ILE779  LEU786  VAL792 
 PHE793  MET794  SER795  GLU796  ALA797  LYS798  CYS799  TRP800  GLU811  SER814 

> <Gold.Protein.RotatedAtoms>
  152.4647  134.5102  159.9751 H   0  0  0  0  0  0  0  0  0  0  0  0  # atno 6907 bound_to 6896
  151.5143  133.3473  159.2898 H   0  0  0  0  0  0  0  0  0  0  0  0  # atno 6908 bound_to 6896
  150.8626  134.8011  159.7156 H   0  0  0  0  0  0  0  0  0  0  0  0  # atno 6909 bound_to 6896
  145.8977  139.3558  143.0611 H   0  0  0  0  0  0  0  0  0  0  0  0  # atno 7974 bound_to 7965
  154.4714  140.2038  155.9986 H   0  0  0  0  0  0  0  0  0  0  0  0  # atno 8008 bound_to 7997
  156.1017  140.3243  155.7921 H   0  0  0  0  0  0  0  0  0  0  0  0  # atno 8009 bound_to 7997
  155.4787  140.0537  157.2961 H   0  0  0  0  0  0  0  0  0  0  0  0  # atno 8010 bound_to 7997
  140.0497  143.5072  152.2088 H   0  0  0  0  0  0  0  0  0  0  0  0  # atno 10167 bound_to 10162
  157.3205  131.0903  151.1244 H   0  0  0  0  0  0  0  0  0  0  0  0  # atno 10718 bound_to 10713
  154.6950  135.5197  153.8446 H   0  0  0  0  0  0  0  0  0  0  0  0  # atno 10763 bound_to 10752
  153.0661  135.6585  154.0362 H   0  0  0  0  0  0  0  0  0  0  0  0  # atno 10764 bound_to 10752
  154.0230  135.2992  155.3358 H   0  0  0  0  0  0  0  0  0  0  0  0  # atno 10765 bound_to 10752
  140.1086  134.8938  157.1902 H   0  0  0  0  0  0  0  0  0  0  0  0  # atno 11005 bound_to 11000
  145.8830  140.9351  143.0591 LP  0  0  0  0  0  0  0  0  0  0  0  0  # atno 17320 bound_to 7965
  144.6734  140.0804  143.7469 LP  0  0  0  0  0  0  0  0  0  0  0  0  # atno 17321 bound_to 7965
  139.5961  144.7567  151.3283 LP  0  0  0  0  0  0  0  0  0  0  0  0  # atno 17342 bound_to 10162
  140.7222  143.7103  150.7775 LP  0  0  0  0  0  0  0  0  0  0  0  0  # atno 17343 bound_to 10162
  157.2531  130.6623  149.5940 LP  0  0  0  0  0  0  0  0  0  0  0  0  # atno 17370 bound_to 10713
  155.9685  130.4532  150.5803 LP  0  0  0  0  0  0  0  0  0  0  0  0  # atno 17371 bound_to 10713
  140.3122  134.3011  155.7264 LP  0  0  0  0  0  0  0  0  0  0  0  0  # atno 17394 bound_to 11000
  141.2124  133.7657  156.9793 LP  0  0  0  0  0  0  0  0  0  0  0  0  # atno 17395 bound_to 11000

$$$$
