AV-unprocessed.smi:325|AV-procd|sdf|2342|dock2
  -GOLD-   2262022253D 1   1.00000     0.00000
 Structure written by MMmdl.
 46 47  0  0  0  0  0  0  0  0  1 V2000
  149.9184  137.1763  158.5393 C   0  0  0  0  0  0  0  0  0  0  0  0
  150.8811  138.0461  157.7501 C   0  0  0  0  0  0  0  0  0  0  0  0
  151.1534  139.2724  158.3283 N   0  0  0  0  0  0  0  0  0  0  0  0
  152.0135  140.1524  157.6826 C   0  0  0  0  0  0  0  0  0  0  0  0
  152.2084  141.3631  158.3470 N   0  0  0  0  0  0  0  0  0  0  0  0
  152.4257  141.3727  159.7941 C   0  0  0  0  0  0  0  0  0  0  0  0
  153.0940  142.6811  160.2492 C   0  0  0  0  0  0  0  0  0  0  0  0
  152.3113  143.7899  159.8277 O   0  0  0  0  0  0  0  0  0  0  0  0
  152.2027  143.8407  158.4113 C   0  0  0  0  0  0  0  0  0  0  0  0
  151.5087  142.5675  157.8993 C   0  0  0  0  0  0  0  0  0  0  0  0
  152.6025  139.8690  156.5564 N   0  0  0  0  0  0  0  0  0  0  0  0
  152.3791  138.6350  155.9276 C   0  0  0  0  0  0  0  0  0  0  0  0
  152.9435  138.3632  154.8691 O   0  0  0  0  0  0  0  0  0  0  0  0
  151.4559  137.6826  156.5790 C   0  0  0  0  0  0  0  0  0  0  0  0
  151.1805  136.3474  155.8930 C   0  0  0  0  0  0  0  0  0  0  0  0
  149.7418  136.2584  155.3494 C   0  0  0  0  0  0  0  0  0  0  0  0
  149.2012  134.8257  155.3144 C   0  0  0  0  0  0  0  0  0  0  0  0
  149.1491  134.1493  156.3422 O   0  0  0  0  0  0  0  0  0  0  0  0
  148.7963  134.3757  154.1161 N   0  0  0  0  0  0  0  0  0  0  0  0
  148.2379  133.0522  153.8526 C   0  0  0  0  0  0  0  0  0  0  0  0
  149.2955  131.9619  154.0889 C   0  0  0  0  0  0  0  0  0  0  0  0
  147.6886  133.0060  152.4204 C   0  0  0  0  0  0  0  0  0  0  0  0
  150.7066  139.4905  159.2070 H   0  0  0  0  0  0  0  0  0  0  0  0
  150.3699  136.2076  158.7544 H   0  0  0  0  0  0  0  0  0  0  0  0
  149.0019  137.0128  157.9720 H   0  0  0  0  0  0  0  0  0  0  0  0
  149.6459  137.6372  159.4896 H   0  0  0  0  0  0  0  0  0  0  0  0
  153.0440  140.5308  160.1071 H   0  0  0  0  0  0  0  0  0  0  0  0
  151.4628  141.2561  160.2932 H   0  0  0  0  0  0  0  0  0  0  0  0
  153.1787  142.7007  161.3360 H   0  0  0  0  0  0  0  0  0  0  0  0
  154.1062  142.7604  159.8490 H   0  0  0  0  0  0  0  0  0  0  0  0
  151.6242  144.7211  158.1314 H   0  0  0  0  0  0  0  0  0  0  0  0
  153.1907  143.9528  157.9617 H   0  0  0  0  0  0  0  0  0  0  0  0
  150.4792  142.5342  158.2587 H   0  0  0  0  0  0  0  0  0  0  0  0
  151.4651  142.5969  156.8095 H   0  0  0  0  0  0  0  0  0  0  0  0
  151.3754  135.5364  156.5968 H   0  0  0  0  0  0  0  0  0  0  0  0
  151.8895  136.1945  155.0793 H   0  0  0  0  0  0  0  0  0  0  0  0
  149.0710  136.8596  155.9643 H   0  0  0  0  0  0  0  0  0  0  0  0
  149.7063  136.6805  154.3439 H   0  0  0  0  0  0  0  0  0  0  0  0
  148.8732  135.0010  153.3271 H   0  0  0  0  0  0  0  0  0  0  0  0
  147.4025  132.8796  154.5336 H   0  0  0  0  0  0  0  0  0  0  0  0
  148.8851  130.9705  153.8954 H   0  0  0  0  0  0  0  0  0  0  0  0
  149.6520  131.9716  155.1195 H   0  0  0  0  0  0  0  0  0  0  0  0
  150.1586  132.0971  153.4363 H   0  0  0  0  0  0  0  0  0  0  0  0
  147.2293  132.0401  152.2088 H   0  0  0  0  0  0  0  0  0  0  0  0
  148.4788  133.1660  151.6856 H   0  0  0  0  0  0  0  0  0  0  0  0
  146.9280  133.7723  152.2653 H   0  0  0  0  0  0  0  0  0  0  0  0
  1 24  1  0  0  0  0
  1 25  1  0  0  0  0
  1 26  1  0  0  0  0
  1  2  1  0  0  0  0
  2 14  2  0  0  0  0
  2  3  1  0  0  0  0
  3 23  1  0  0  0  0
  3  4  1  0  0  0  0
  4  5  1  0  0  0  0
  4 11  2  0  0  0  0
  5 10  1  0  0  0  0
  5  6  1  0  0  0  0
  6  7  1  0  0  0  0
  6 27  1  0  0  0  0
  6 28  1  0  0  0  0
  7  8  1  0  0  0  0
  7 29  1  0  0  0  0
  7 30  1  0  0  0  0
  8  9  1  0  0  0  0
  9 10  1  0  0  0  0
  9 31  1  0  0  0  0
  9 32  1  0  0  0  0
 10 33  1  0  0  0  0
 10 34  1  0  0  0  0
 11 12  1  0  0  0  0
 12 13  2  0  0  0  0
 12 14  1  0  0  0  0
 14 15  1  0  0  0  0
 15 16  1  0  0  0  0
 15 35  1  0  0  0  0
 15 36  1  0  0  0  0
 16 17  1  0  0  0  0
 16 37  1  0  0  0  0
 16 38  1  0  0  0  0
 17 18  2  0  0  0  0
 17 19  1  0  0  0  0
 19 20  1  0  0  0  0
 19 39  1  0  0  0  0
 20 21  1  0  0  0  0
 20 22  1  0  0  0  0
 20 40  1  0  0  0  0
 21 41  1  0  0  0  0
 21 42  1  0  0  0  0
 21 43  1  0  0  0  0
 22 44  1  0  0  0  0
 22 45  1  0  0  0  0
 22 46  1  0  0  0  0
M  END
> <s_m_source_file>
AV-unprocessed.smi

> <i_m_source_file_index>
325

> <i_lp_mmshare_version>
43012

> <i_f3d_flags>
0

> <s_epik_input>
W0NIMl0xW0NIMl1PW0NIMl1bQ0gyXU4xYyhuYzJbQ0gzXSlbbkhdYyg9TyljMltDSDJdW0NIMl1DKD1PKVtOSF1bQ0hdKFtDSDNdKVtDSDNd

> <s_epik_cmdline>
J2VwaWtfcHl0aG9uJywgJy1waCcsICc3LjAnLCAnLXRuJywgJzgnLCAnLW1hJywgJzIwMCcsICctbWV0YWxfYmluZGluZycsICctaW1hZScsICc8aW5maWxlLm1hZT4nLCAnLW9tYWUnLCAnPG91dGZpbGUubWFlPic=

> <r_lp_tautomer_probability>
0.108306

> <r_epik_Ionization_Penalty>
0.0738532

> <r_epik_Ionization_Penalty_Charging>
0.0614224

> <r_epik_Ionization_Penalty_Neutral>
0.0124309

> <r_epik_State_Penalty>
1.70966

> <r_epik_Charging_Adjusted_Penalty>
1.77108

> <i_epik_Tot_Q>
0

> <i_epik_Tot_abs_Q>
0

> <r_epik_Metal_State_Penalty>
2.67951

> <b_epik_Metal_Only>
0

> <s_lp_Force_Field>
OPLS_2005

> <r_lp_Energy>
25.9906

> <b_lp_Chiralities_Consistent>
1

> <s_lp_Variant>
AV-unprocessed.smi:325-2

> <Gold.Version>
5.8.1

> <Gold.Id.Protein>
6NUR|6NUR_protein|mol2

> <Gold.PLP.Fitness>
40.6224

> <Gold.PLP.PLP>
-37.0773

> <Gold.PLP.part.hbond>
-2.0987

> <Gold.PLP.part.metal>
0.0000

> <Gold.PLP.part.buried>
-5.7173

> <Gold.PLP.part.nonpolar>
-29.6810

> <Gold.PLP.part.repulsive>
0.1434

> <Gold.PLP.ligand.clash>
0.0000

> <Gold.PLP.ligand.torsion>
1.4055

> <Gold.PLP.Chemscore.Hbond>
2.0000

> <Gold.PLP.Chemscore.CHOScore>
0.0000

> <Gold.PLP.Chemscore.Metal>
0.0000

> <Gold.Chemscore.Hbonds>
donor molecule, donor type, donor heavy atom, donor atom, acceptor molecule, acceptor atom, score
      L1  H    19    39       P1  7948  1.00
      P1  H  7997  8010       L1    11  1.00

> <Gold.PLP.Chemscore.Internal.Correction>
0.3561

> <Gold.Rescore>
     Score         DG    S(hbond)    S(metal)    S(lipo)     H(rot)  DE(clash)    DE(int)     intcor
     14.79     -16.18       1.83        0.00      76.45       1.71       0.00       1.39       ----

> <Gold.Chemscore.Fitness>
14.7858

> <Gold.Chemscore.DG>
-16.1781

> <Gold.Chemscore.ZeroCoef>
-5.4800

> <Gold.Chemscore.Hbond>
1.8342

> <Gold.Chemscore.Metal>
0.0000

> <Gold.Chemscore.Lipo>
76.4472

> <Gold.Chemscore.Internal_Hbond>
0.0000

> <Gold.Chemscore.DEClash>
0.0004

> <Gold.Chemscore.DEInternal>
1.3919

> <Gold.Chemscore.Rot>
1.7080

> <Gold.Chemscore.Internal.Correction>
   9.000000E+99

> <Gold.Chemscore.Hbonds>
donor molecule, donor type, donor heavy atom, donor atom, acceptor molecule, acceptor atom, score
      L1  H    19    39       P1  7948  0.40
      P1  H  7997  8010       L1    11  0.46

> <Gold.Chemscore.Hbond.Weighted>
-6.1262

> <Gold.Chemscore.Metal.Weighted>
-0.0000

> <Gold.Chemscore.Lipo.Weighted>
-8.9443

> <Gold.Chemscore.Internal_Hbond.Weighted>
0.0000

> <Gold.Chemscore.DEClash.Weighted>
0.0004

> <Gold.Chemscore.DEInternal.Weighted>
1.3919

> <Gold.Chemscore.Rot.Weighted>
4.3724

> <Gold.Chemscore.Internal.Correction.Weighted>
   9.000000E+99

> <Gold.Protein.RotatedTorsions>
[ 6907 6896 6895 6894 ] final  -32.52 input  -60.11 | X-H torsion
[ 7974 7965 7964 7962 ] final   60.47 input  175.53 | X-H torsion
[ 8008 7997 7996 7995 ] final   67.00 input   59.86 | X-H torsion
[ 10167 10162 10161 10158 ] final  -23.15 input  -65.29 | X-H torsion
[ 10718 10713 10712 10709 ] final  -54.86 input   66.30 | X-H torsion
[ 10763 10752 10751 10750 ] final  127.52 input  -60.55 | X-H torsion
[ 11005 11000 10999 10996 ] final -162.78 input  -57.11 | X-H torsion

> <Gold.Protein.ActiveResidues>
 VAL166  LYS551  ARG553  GLY616  TRP617  ASP618  TYR619  PRO620  LYS621  CYS622 
 ASP623  PHE694  ASN695  SER759  ASP760  ASP761  ALA762  ILE779  LEU786  VAL792 
 PHE793  MET794  SER795  GLU796  ALA797  LYS798  CYS799  TRP800  GLU811  SER814 

> <Gold.Protein.RotatedAtoms>
  151.0776  134.9838  159.8339 H   0  0  0  0  0  0  0  0  0  0  0  0  # atno 6907 bound_to 6896
  152.5416  134.2221  159.8802 H   0  0  0  0  0  0  0  0  0  0  0  0  # atno 6908 bound_to 6896
  151.2249  133.4438  159.2635 H   0  0  0  0  0  0  0  0  0  0  0  0  # atno 6909 bound_to 6896
  145.8957  139.3543  143.0623 H   0  0  0  0  0  0  0  0  0  0  0  0  # atno 7974 bound_to 7965
  155.6861  140.3496  155.4874 H   0  0  0  0  0  0  0  0  0  0  0  0  # atno 8008 bound_to 7997
  155.9565  140.1129  157.0955 H   0  0  0  0  0  0  0  0  0  0  0  0  # atno 8009 bound_to 7997
  154.4133  140.1184  156.5108 H   0  0  0  0  0  0  0  0  0  0  0  0  # atno 8010 bound_to 7997
  140.7287  143.4469  151.0573 H   0  0  0  0  0  0  0  0  0  0  0  0  # atno 10167 bound_to 10162
  156.1415  130.4154  150.0094 H   0  0  0  0  0  0  0  0  0  0  0  0  # atno 10718 bound_to 10713
  153.7107  135.3269  155.3245 H   0  0  0  0  0  0  0  0  0  0  0  0  # atno 10763 bound_to 10752
  154.8386  135.4476  154.1317 H   0  0  0  0  0  0  0  0  0  0  0  0  # atno 10764 bound_to 10752
  153.2410  135.6971  153.7862 H   0  0  0  0  0  0  0  0  0  0  0  0  # atno 10765 bound_to 10752
  140.6054  134.4904  157.5210 H   0  0  0  0  0  0  0  0  0  0  0  0  # atno 11005 bound_to 11000
  145.8854  140.9337  143.0580 LP  0  0  0  0  0  0  0  0  0  0  0  0  # atno 17320 bound_to 7965
  144.6733  140.0835  143.7468 LP  0  0  0  0  0  0  0  0  0  0  0  0  # atno 17321 bound_to 7965
  139.8142  143.7909  152.3173 LP  0  0  0  0  0  0  0  0  0  0  0  0  # atno 17342 bound_to 10162
  139.7969  144.7389  150.9878 LP  0  0  0  0  0  0  0  0  0  0  0  0  # atno 17343 bound_to 10162
  156.7978  130.9279  151.3646 LP  0  0  0  0  0  0  0  0  0  0  0  0  # atno 17370 bound_to 10713
  157.6580  130.8941  149.9769 LP  0  0  0  0  0  0  0  0  0  0  0  0  # atno 17371 bound_to 10713
  139.9214  134.8140  156.1199 LP  0  0  0  0  0  0  0  0  0  0  0  0  # atno 17394 bound_to 11000
  141.0844  133.6740  156.2405 LP  0  0  0  0  0  0  0  0  0  0  0  0  # atno 17395 bound_to 11000

$$$$
