AV-unprocessed.smi:384|AV-procd|sdf|2466|dock5
  -GOLD-   2262022403D 1   1.00000     0.00000
 Structure written by MMmdl.
 32 33  0  0  0  0  0  0  0  0  2 V2000
  152.2795  144.4429  158.1761 C   0  0  0  0  0  0  0  0  0  0  0  0
  152.1649  143.3640  159.2582 C   0  0  1  0  0  0  0  0  0  0  0  0
  152.7392  142.0130  158.7917 C   0  0  0  0  0  0  0  0  0  0  0  0
  152.6950  141.0480  159.8825 N   0  0  0  0  0  0  0  0  0  0  0  0
  153.0919  139.7590  159.4996 C   0  0  0  0  0  0  0  0  0  0  0  0
  153.1556  138.7448  160.4766 C   0  0  0  0  0  0  0  0  0  0  0  0
  153.5535  137.4516  160.0859 C   0  0  0  0  0  0  0  0  0  0  0  0
  153.8749  137.2096  158.7317 C   0  0  0  0  0  0  0  0  0  0  0  0
  154.3041  135.8469  158.2654 C   0  0  0  0  0  0  0  0  0  0  0  0
  154.6376  135.6956  157.0691 O   0  0  0  0  0  0  0  0  0  0  0  0
  154.3148  134.9045  159.0884 O   0  5  0  0  0  0  0  0  0  0  0  0
  153.7779  138.2956  157.8318 C   0  0  0  0  0  0  0  0  0  0  0  0
  153.3976  139.5386  158.1992 N   0  0  0  0  0  0  0  0  0  0  0  0
  153.3699  141.5328  161.0796 C   0  0  0  0  0  0  0  0  0  0  0  0
  152.7818  142.8920  161.5025 C   0  0  1  0  0  0  0  0  0  0  0  0
  153.5218  143.4918  162.7028 C   0  0  0  0  0  0  0  0  0  0  0  0
  152.8833  143.8031  160.4097 O   0  0  0  0  0  0  0  0  0  0  0  0
  151.7346  144.1556  157.2767 H   0  0  0  0  0  0  0  0  0  0  0  0
  153.3196  144.6144  157.8975 H   0  0  0  0  0  0  0  0  0  0  0  0
  151.8675  145.3900  158.5252 H   0  0  0  0  0  0  0  0  0  0  0  0
  151.1117  143.2450  159.5188 H   0  0  0  0  0  0  0  0  0  0  0  0
  152.1683  141.6337  157.9431 H   0  0  0  0  0  0  0  0  0  0  0  0
  153.7696  142.1418  158.4563 H   0  0  0  0  0  0  0  0  0  0  0  0
  152.9053  138.9503  161.5071 H   0  0  0  0  0  0  0  0  0  0  0  0
  153.6073  136.6642  160.8237 H   0  0  0  0  0  0  0  0  0  0  0  0
  154.0096  138.1761  156.7836 H   0  0  0  0  0  0  0  0  0  0  0  0
  153.2555  140.8056  161.8845 H   0  0  0  0  0  0  0  0  0  0  0  0
  154.4387  141.6340  160.8847 H   0  0  0  0  0  0  0  0  0  0  0  0
  151.7304  142.7706  161.7692 H   0  0  0  0  0  0  0  0  0  0  0  0
  153.4618  142.8331  163.5694 H   0  0  0  0  0  0  0  0  0  0  0  0
  153.0908  144.4523  162.9859 H   0  0  0  0  0  0  0  0  0  0  0  0
  154.5761  143.6532  162.4768 H   0  0  0  0  0  0  0  0  0  0  0  0
  1  2  1  0  0  0  0
  1 18  1  0  0  0  0
  1 19  1  0  0  0  0
  1 20  1  0  0  0  0
  2 17  1  0  0  0  0
  2  3  1  0  0  0  0
  2 21  1  0  0  0  0
  3  4  1  0  0  0  0
  3 22  1  0  0  0  0
  3 23  1  0  0  0  0
  4  5  1  0  0  0  0
  4 14  1  0  0  0  0
  5 13  1  0  0  0  0
  5  6  2  0  0  0  0
  6  7  1  0  0  0  0
  6 24  1  0  0  0  0
  7  8  2  0  0  0  0
  7 25  1  0  0  0  0
  8  9  1  0  0  0  0
  8 12  1  0  0  0  0
  9 10  2  0  0  0  0
  9 11  1  0  0  0  0
 12 13  2  0  0  0  0
 12 26  1  0  0  0  0
 14 15  1  0  0  0  0
 14 27  1  0  0  0  0
 14 28  1  0  0  0  0
 15 16  1  0  0  0  0
 15 17  1  0  0  0  0
 15 29  1  0  0  0  0
 16 30  1  0  0  0  0
 16 31  1  0  0  0  0
 16 32  1  0  0  0  0
M  CHG  1  11  -1
M  END
> <s_m_source_file>
AV-unprocessed.smi

> <i_m_source_file_index>
384

> <i_lp_mmshare_version>
43012

> <i_f3d_flags>
0

> <s_epik_input>
W0NIM11bQ0BASF0xW0NIMl1OKFtDSDJdW0NASF0oTzEpW0NIM10pYzJbY0hdW2NIXWMoW2NIXW4yKUMoPU8pW09IXQ==

> <s_epik_cmdline>
J2VwaWtfcHl0aG9uJywgJy1waCcsICc3LjAnLCAnLXRuJywgJzgnLCAnLW1hJywgJzIwMCcsICctbWV0YWxfYmluZGluZycsICctaW1hZScsICc8aW5maWxlLm1hZT4nLCAnLW9tYWUnLCAnPG91dGZpbGUubWFlPic=

> <r_epik_Ionization_Penalty>
0.0114922

> <r_epik_Ionization_Penalty_Charging>
0.000195896

> <r_epik_Ionization_Penalty_Neutral>
0.0112963

> <r_epik_State_Penalty>
0.00868573

> <r_epik_Charging_Adjusted_Penalty>
0.00888162

> <i_epik_Tot_Q>
-1

> <i_epik_Tot_abs_Q>
1

> <r_epik_Metal_State_Penalty>
8.74964e-06

> <b_epik_Metal_Only>
0

> <s_lp_Force_Field>
OPLS_2005

> <r_lp_Energy>
16.9609

> <b_lp_Chiralities_Consistent>
1

> <s_lp_Variant>
AV-unprocessed.smi:384-2

> <Gold.Version>
5.8.1

> <Gold.Id.Protein>
6NUR|6NUR_protein|mol2

> <Gold.PLP.Fitness>
43.5576

> <Gold.PLP.PLP>
-30.2819

> <Gold.PLP.part.hbond>
-3.0000

> <Gold.PLP.part.metal>
0.0000

> <Gold.PLP.part.buried>
-3.2182

> <Gold.PLP.part.nonpolar>
-23.0288

> <Gold.PLP.part.repulsive>
0.0241

> <Gold.PLP.ligand.clash>
0.0000

> <Gold.PLP.ligand.torsion>
0.1602

> <Gold.PLP.Chemscore.Hbond>
4.5000

> <Gold.PLP.Chemscore.CHOScore>
0.0000

> <Gold.PLP.Chemscore.Metal>
0.0000

> <Gold.Chemscore.Hbonds>
donor molecule, donor type, donor heavy atom, donor atom, acceptor molecule, acceptor atom, score
      P1  H  6896  6907       L1    11  2.00
      P1  H  7997  8008       L1    13  0.20
      P1  H 10752 10765       L1    10  2.00

> <Gold.PLP.Chemscore.Internal.Correction>
0.0961

> <Gold.Rescore>
     Score         DG    S(hbond)    S(metal)    S(lipo)     H(rot)  DE(clash)    DE(int)     intcor
     19.94     -20.18       2.07        0.00      88.33       1.00       0.07       0.17       ----

> <Gold.Chemscore.Fitness>
19.9393

> <Gold.Chemscore.DG>
-20.1765

> <Gold.Chemscore.ZeroCoef>
-5.4800

> <Gold.Chemscore.Hbond>
2.0726

> <Gold.Chemscore.Metal>
0.0000

> <Gold.Chemscore.Lipo>
88.3254

> <Gold.Chemscore.Internal_Hbond>
0.0000

> <Gold.Chemscore.DEClash>
0.0710

> <Gold.Chemscore.DEInternal>
0.1662

> <Gold.Chemscore.Rot>
1.0000

> <Gold.Chemscore.Internal.Correction>
   9.000000E+99

> <Gold.Chemscore.Hbonds>
donor molecule, donor type, donor heavy atom, donor atom, acceptor molecule, acceptor atom, score
      P1  H  6896  6907       L1    11  0.91
      P1  H 10752 10765       L1    10  1.00

> <Gold.Chemscore.Hbond.Weighted>
-6.9224

> <Gold.Chemscore.Metal.Weighted>
-0.0000

> <Gold.Chemscore.Lipo.Weighted>
-10.3341

> <Gold.Chemscore.Internal_Hbond.Weighted>
0.0000

> <Gold.Chemscore.DEClash.Weighted>
0.0710

> <Gold.Chemscore.DEInternal.Weighted>
0.1662

> <Gold.Chemscore.Rot.Weighted>
2.5600

> <Gold.Chemscore.Internal.Correction.Weighted>
   9.000000E+99

> <Gold.Protein.RotatedTorsions>
[ 6907 6896 6895 6894 ] final   77.71 input  -60.11 | X-H torsion
[ 7974 7965 7964 7962 ] final  -63.74 input  175.53 | X-H torsion
[ 8008 7997 7996 7995 ] final  -76.27 input   59.86 | X-H torsion
[ 10167 10162 10161 10158 ] final -141.30 input  -65.29 | X-H torsion
[ 10718 10713 10712 10709 ] final  -84.56 input   66.30 | X-H torsion
[ 10763 10752 10751 10750 ] final  -84.72 input  -60.55 | X-H torsion
[ 11005 11000 10999 10996 ] final  110.13 input  -57.11 | X-H torsion

> <Gold.Protein.ActiveResidues>
 VAL166  LYS551  ARG553  GLY616  TRP617  ASP618  TYR619  PRO620  LYS621  CYS622 
 ASP623  PHE694  ASN695  SER759  ASP760  ASP761  ALA762  ILE779  LEU786  VAL792 
 PHE793  MET794  SER795  GLU796  ALA797  LYS798  CYS799  TRP800  GLU811  SER814 

> <Gold.Protein.RotatedAtoms>
  152.5129  134.3776  159.9339 H   0  0  0  0  0  0  0  0  0  0  0  0  # atno 6907 bound_to 6896
  151.3732  133.3841  159.2709 H   0  0  0  0  0  0  0  0  0  0  0  0  # atno 6908 bound_to 6896
  150.9562  134.8975  159.7761 H   0  0  0  0  0  0  0  0  0  0  0  0  # atno 6909 bound_to 6896
  145.7753  140.8791  143.0359 H   0  0  0  0  0  0  0  0  0  0  0  0  # atno 7974 bound_to 7965
  154.5491  140.0730  156.8637 H   0  0  0  0  0  0  0  0  0  0  0  0  # atno 8008 bound_to 7997
  155.3029  140.3385  155.4229 H   0  0  0  0  0  0  0  0  0  0  0  0  # atno 8009 bound_to 7997
  156.1945  140.1698  156.8013 H   0  0  0  0  0  0  0  0  0  0  0  0  # atno 8010 bound_to 7997
  139.8198  143.7589  152.2666 H   0  0  0  0  0  0  0  0  0  0  0  0  # atno 10167 bound_to 10162
  156.0005  130.4702  150.4429 H   0  0  0  0  0  0  0  0  0  0  0  0  # atno 10718 bound_to 10713
  154.6028  135.5510  153.7392 H   0  0  0  0  0  0  0  0  0  0  0  0  # atno 10763 bound_to 10752
  153.0162  135.6370  154.1690 H   0  0  0  0  0  0  0  0  0  0  0  0  # atno 10764 bound_to 10752
  154.1629  135.2896  155.3083 H   0  0  0  0  0  0  0  0  0  0  0  0  # atno 10765 bound_to 10752
  139.8875  134.9476  156.6232 H   0  0  0  0  0  0  0  0  0  0  0  0  # atno 11005 bound_to 11000
  144.6805  139.9913  143.7484 LP  0  0  0  0  0  0  0  0  0  0  0  0  # atno 17320 bound_to 7965
  146.0129  139.3185  143.0859 LP  0  0  0  0  0  0  0  0  0  0  0  0  # atno 17321 bound_to 7965
  139.7764  144.7459  151.0151 LP  0  0  0  0  0  0  0  0  0  0  0  0  # atno 17342 bound_to 10162
  140.7814  143.4589  151.0305 LP  0  0  0  0  0  0  0  0  0  0  0  0  # atno 17343 bound_to 10162
  157.2468  131.0537  151.2403 LP  0  0  0  0  0  0  0  0  0  0  0  0  # atno 17370 bound_to 10713
  157.3567  130.7110  149.6475 LP  0  0  0  0  0  0  0  0  0  0  0  0  # atno 17371 bound_to 10713
  140.7723  133.8728  155.8501 LP  0  0  0  0  0  0  0  0  0  0  0  0  # atno 17394 bound_to 11000
  140.9831  134.1379  157.4476 LP  0  0  0  0  0  0  0  0  0  0  0  0  # atno 17395 bound_to 11000

$$$$
