AV-unprocessed.smi:2831|AV-procd|sdf|10911|dock6
  -GOLD-   2272015353D 1   1.00000     0.00000
 Structure written by MMmdl.
 29 30  0  0  0  0  0  0  0  0  2 V2000
  145.8040  134.5963  162.4059 C   0  0  0  0  0  0  0  0  0  0  0  0
  146.9098  135.2960  161.6928 C   0  0  0  0  0  0  0  0  0  0  0  0
  147.4926  136.3993  162.1679 N   0  0  0  0  0  0  0  0  0  0  0  0
  148.4956  136.8631  161.3287 N   0  0  0  0  0  0  0  0  0  0  0  0
  148.6647  136.1001  160.2394 C   0  0  0  0  0  0  0  0  0  0  0  0
  149.5845  136.3770  159.3003 N   0  5  0  0  0  0  0  0  0  0  0  0
  149.3193  137.2956  158.3440 C   0  0  0  0  0  0  0  0  0  0  0  0
  148.4957  138.2093  158.4242 O   0  0  0  0  0  0  0  0  0  0  0  0
  150.0601  137.1397  157.2336 N   0  0  0  0  0  0  0  0  0  0  0  0
  150.0604  137.9268  155.9920 C   0  0  2  0  0  0  0  0  0  0  0  0
  148.6208  137.9220  155.4446 C   0  0  0  0  0  0  0  0  0  0  0  0
  151.0377  137.3880  154.9321 C   0  0  0  0  0  0  0  0  0  0  0  0
  152.0380  138.5246  154.7294 C   0  0  0  0  0  0  0  0  0  0  0  0
  151.2897  139.6842  155.0503 O   0  0  0  0  0  0  0  0  0  0  0  0
  150.5438  139.3756  156.2173 C   0  0  0  0  0  0  0  0  0  0  0  0
  147.5531  134.7334  160.1594 S   0  0  0  0  0  0  0  0  0  0  0  0
  146.2114  133.9659  163.1963 H   0  0  0  0  0  0  0  0  0  0  0  0
  145.2436  133.9701  161.7116 H   0  0  0  0  0  0  0  0  0  0  0  0
  145.1211  135.3213  162.8494 H   0  0  0  0  0  0  0  0  0  0  0  0
  150.7100  136.3673  157.2529 H   0  0  0  0  0  0  0  0  0  0  0  0
  148.5396  138.5156  154.5331 H   0  0  0  0  0  0  0  0  0  0  0  0
  147.9194  138.3379  156.1690 H   0  0  0  0  0  0  0  0  0  0  0  0
  148.2905  136.9093  155.2103 H   0  0  0  0  0  0  0  0  0  0  0  0
  151.5323  136.4570  155.2116 H   0  0  0  0  0  0  0  0  0  0  0  0
  150.5205  137.1958  153.9911 H   0  0  0  0  0  0  0  0  0  0  0  0
  152.8815  138.4330  155.4151 H   0  0  0  0  0  0  0  0  0  0  0  0
  152.4277  138.5656  153.7122 H   0  0  0  0  0  0  0  0  0  0  0  0
  149.7256  140.0827  156.3573 H   0  0  0  0  0  0  0  0  0  0  0  0
  151.2029  139.4703  157.0809 H   0  0  0  0  0  0  0  0  0  0  0  0
  1  2  1  0  0  0  0
  1 17  1  0  0  0  0
  1 18  1  0  0  0  0
  1 19  1  0  0  0  0
  2 16  1  0  0  0  0
  2  3  2  0  0  0  0
  3  4  1  0  0  0  0
  4  5  2  0  0  0  0
  5  6  1  0  0  0  0
  5 16  1  0  0  0  0
  6  7  1  0  0  0  0
  7  8  2  0  0  0  0
  7  9  1  0  0  0  0
  9 10  1  0  0  0  0
  9 20  1  0  0  0  0
 10 15  1  0  0  0  0
 10 11  1  0  0  0  0
 10 12  1  0  0  0  0
 11 21  1  0  0  0  0
 11 22  1  0  0  0  0
 11 23  1  0  0  0  0
 12 13  1  0  0  0  0
 12 24  1  0  0  0  0
 12 25  1  0  0  0  0
 13 14  1  0  0  0  0
 13 26  1  0  0  0  0
 13 27  1  0  0  0  0
 14 15  1  0  0  0  0
 15 28  1  0  0  0  0
 15 29  1  0  0  0  0
M  CHG  1   6  -1
M  END
> <s_m_source_file>
AV-unprocessed.smi

> <i_m_source_file_index>
2831

> <i_lp_mmshare_version>
43012

> <i_f3d_flags>
0

> <s_epik_input>
W0NIM11jMW5uYyhzMSlbTkhdQyg9TylbTkhdW0NAQF0yKFtDSDNdKVtDSDJdW0NIMl1PW0NIMl0y

> <s_epik_cmdline>
J2VwaWtfcHl0aG9uJywgJy1waCcsICc3LjAnLCAnLXRuJywgJzgnLCAnLW1hJywgJzIwMCcsICctbWV0YWxfYmluZGluZycsICctaW1hZScsICc8aW5maWxlLm1hZT4nLCAnLW9tYWUnLCAnPG91dGZpbGUubWFlPic=

> <r_lp_tautomer_probability>
1

> <r_epik_Ionization_Penalty>
3.33648

> <r_epik_Ionization_Penalty_Charging>
3.18522

> <r_epik_Ionization_Penalty_Neutral>
0.151254

> <r_epik_State_Penalty>
3.18248

> <r_epik_Charging_Adjusted_Penalty>
6.3677

> <i_epik_Tot_Q>
-1

> <i_epik_Tot_abs_Q>
1

> <r_epik_Metal_State_Penalty>
0.469716

> <b_epik_Metal_Only>
1

> <s_lp_Force_Field>
OPLS_2005

> <r_lp_Energy>
14.5797

> <b_lp_Chiralities_Consistent>
1

> <s_lp_Variant>
AV-unprocessed.smi:2831-4

> <Gold.Version>
5.8.1

> <Gold.Id.Protein>
6NUR|6NUR_protein|mol2

> <Gold.PLP.Fitness>
33.0370

> <Gold.PLP.PLP>
-22.7940

> <Gold.PLP.part.hbond>
-3.5556

> <Gold.PLP.part.metal>
0.0000

> <Gold.PLP.part.buried>
-5.6430

> <Gold.PLP.part.nonpolar>
-15.1465

> <Gold.PLP.part.repulsive>
0.0751

> <Gold.PLP.ligand.clash>
0.0000

> <Gold.PLP.ligand.torsion>
0.8729

> <Gold.PLP.Chemscore.Hbond>
3.9913

> <Gold.PLP.Chemscore.CHOScore>
0.0000

> <Gold.PLP.Chemscore.Metal>
0.0000

> <Gold.Chemscore.Hbonds>
donor molecule, donor type, donor heavy atom, donor atom, acceptor molecule, acceptor atom, score
      P1  H  6896  6907       L1     6  1.90
      P1  H  6931  6943       L1     4  1.00
      P1  H  7989  7998       L1    14  1.00

> <Gold.PLP.Chemscore.Internal.Correction>
0.0151

> <Gold.Rescore>
     Score         DG    S(hbond)    S(metal)    S(lipo)     H(rot)  DE(clash)    DE(int)     intcor
     13.86     -14.82       2.10        0.00      41.81       1.00       0.00       0.96       ----

> <Gold.Chemscore.Fitness>
13.8604

> <Gold.Chemscore.DG>
-14.8219

> <Gold.Chemscore.ZeroCoef>
-5.4800

> <Gold.Chemscore.Hbond>
2.0988

> <Gold.Chemscore.Metal>
0.0000

> <Gold.Chemscore.Lipo>
41.8104

> <Gold.Chemscore.Internal_Hbond>
0.0000

> <Gold.Chemscore.DEClash>
0.0000

> <Gold.Chemscore.DEInternal>
0.9615

> <Gold.Chemscore.Rot>
1.0000

> <Gold.Chemscore.Internal.Correction>
   9.000000E+99

> <Gold.Chemscore.Hbonds>
donor molecule, donor type, donor heavy atom, donor atom, acceptor molecule, acceptor atom, score
      P1  H  6896  6907       L1     6  0.20
      P1  H  6931  6943       L1     4  0.69
      P1  H  7989  7998       L1    14  0.34

> <Gold.Chemscore.Hbond.Weighted>
-7.0101

> <Gold.Chemscore.Metal.Weighted>
-0.0000

> <Gold.Chemscore.Lipo.Weighted>
-4.8918

> <Gold.Chemscore.Internal_Hbond.Weighted>
0.0000

> <Gold.Chemscore.DEClash.Weighted>
0.0000

> <Gold.Chemscore.DEInternal.Weighted>
0.9615

> <Gold.Chemscore.Rot.Weighted>
2.5600

> <Gold.Chemscore.Internal.Correction.Weighted>
   9.000000E+99

> <Gold.Protein.RotatedTorsions>
[ 6907 6896 6895 6894 ] final  -36.15 input  -60.11 | X-H torsion
[ 7974 7965 7964 7962 ] final   98.31 input  175.53 | X-H torsion
[ 8008 7997 7996 7995 ] final   37.17 input   59.86 | X-H torsion
[ 10167 10162 10161 10158 ] final -131.59 input  -65.29 | X-H torsion
[ 10718 10713 10712 10709 ] final -132.58 input   66.30 | X-H torsion
[ 10763 10752 10751 10750 ] final -106.54 input  -60.55 | X-H torsion
[ 11005 11000 10999 10996 ] final  -74.17 input  -57.11 | X-H torsion

> <Gold.Protein.ActiveResidues>
 VAL166  LYS551  ARG553  GLY616  TRP617  ASP618  TYR619  PRO620  LYS621  CYS622 
 ASP623  PHE694  ASN695  SER759  ASP760  ASP761  ALA762  ILE779  LEU786  VAL792 
 PHE793  MET794  SER795  GLU796  ALA797  LYS798  CYS799  TRP800  GLU811  SER814 

> <Gold.Protein.RotatedAtoms>
  151.0308  134.9537  159.8109 H   0  0  0  0  0  0  0  0  0  0  0  0  # atno 6907 bound_to 6896
  152.5345  134.2783  159.9008 H   0  0  0  0  0  0  0  0  0  0  0  0  # atno 6908 bound_to 6896
  151.2793  133.4175  159.2660 H   0  0  0  0  0  0  0  0  0  0  0  0  # atno 6909 bound_to 6896
  145.4139  139.2330  143.3233 H   0  0  0  0  0  0  0  0  0  0  0  0  # atno 7974 bound_to 7965
  155.1994  140.3314  155.4345 H   0  0  0  0  0  0  0  0  0  0  0  0  # atno 8008 bound_to 7997
  156.2413  140.1896  156.7031 H   0  0  0  0  0  0  0  0  0  0  0  0  # atno 8009 bound_to 7997
  154.6152  140.0603  156.9531 H   0  0  0  0  0  0  0  0  0  0  0  0  # atno 8010 bound_to 7997
  139.9173  143.6423  152.2562 H   0  0  0  0  0  0  0  0  0  0  0  0  # atno 10167 bound_to 10162
  156.2360  130.7067  151.0908 H   0  0  0  0  0  0  0  0  0  0  0  0  # atno 10718 bound_to 10713
  154.8018  135.4708  154.0295 H   0  0  0  0  0  0  0  0  0  0  0  0  # atno 10763 bound_to 10752
  153.1795  135.6838  153.8505 H   0  0  0  0  0  0  0  0  0  0  0  0  # atno 10764 bound_to 10752
  153.8060  135.3223  155.3373 H   0  0  0  0  0  0  0  0  0  0  0  0  # atno 10765 bound_to 10752
  141.1632  133.6902  156.7323 H   0  0  0  0  0  0  0  0  0  0  0  0  # atno 11005 bound_to 11000
  146.2691  140.4854  142.8822 LP  0  0  0  0  0  0  0  0  0  0  0  0  # atno 17320 bound_to 7965
  144.8290  140.6676  143.6303 LP  0  0  0  0  0  0  0  0  0  0  0  0  # atno 17321 bound_to 7965
  139.6891  144.7648  151.1470 LP  0  0  0  0  0  0  0  0  0  0  0  0  # atno 17342 bound_to 10162
  140.7671  143.5614  150.9094 LP  0  0  0  0  0  0  0  0  0  0  0  0  # atno 17343 bound_to 10162
  157.7154  131.0712  150.6345 LP  0  0  0  0  0  0  0  0  0  0  0  0  # atno 17370 bound_to 10713
  156.6415  130.4460  149.5751 LP  0  0  0  0  0  0  0  0  0  0  0  0  # atno 17371 bound_to 10713
  140.2736  134.8373  157.3869 LP  0  0  0  0  0  0  0  0  0  0  0  0  # atno 17394 bound_to 11000
  140.1498  134.4864  155.7969 LP  0  0  0  0  0  0  0  0  0  0  0  0  # atno 17395 bound_to 11000

$$$$
