AV-unprocessed.smi:239|AV-procd|sdf|1822|dock3
  -GOLD-   2262020413D 1   1.00000     0.00000
 Structure written by MMmdl.
 54 58  0  0  0  0  0  0  0  0  1 V2000
  152.5777  143.5364  161.0129 C   0  0  0  0  0  0  0  0  0  0  0  0
  153.1370  142.3705  160.1912 C   0  0  2  0  0  0  0  0  0  0  0  0
  152.2026  141.9804  159.0305 C   0  0  0  0  0  0  0  0  0  0  0  0
  152.7114  140.7935  158.3468 N   0  0  0  0  0  0  0  0  0  0  0  0
  152.1498  140.4491  157.1593 C   0  0  0  0  0  0  0  0  0  0  0  0
  152.7885  139.5760  156.3343 N   0  0  0  0  0  0  0  0  0  0  0  0
  152.2508  139.2385  155.1586 C   0  0  0  0  0  0  0  0  0  0  0  0
  151.0997  139.6445  154.6206 N   0  0  0  0  0  0  0  0  0  0  0  0
  150.4469  140.5110  155.4467 C   0  0  0  0  0  0  0  0  0  0  0  0
  150.8966  140.9640  156.7196 C   0  0  0  0  0  0  0  0  0  0  0  0
  149.9606  141.8344  157.2663 N   0  0  0  0  0  0  0  0  0  0  0  0
  149.0207  141.9027  156.3637 C   0  0  0  0  0  0  0  0  0  0  0  0
  149.2245  141.1280  155.2443 N   0  0  0  0  0  0  0  0  0  0  0  0
  148.3446  141.0115  154.0917 C   0  0  0  0  0  0  0  0  0  0  0  0
  147.8046  139.5811  153.8364 C   0  0  0  0  0  0  0  0  0  0  0  0
  148.9397  138.8122  153.4805 O   0  0  0  0  0  0  0  0  0  0  0  0
  147.1569  138.9457  155.0859 C   0  0  0  0  0  0  0  0  0  0  0  0
  146.5512  137.5644  154.7778 C   0  0  0  0  0  0  0  0  0  0  0  0
  145.6141  137.6705  153.7120 O   0  0  0  0  0  0  0  0  0  0  0  0
  146.2067  138.1081  152.4946 C   0  0  0  0  0  0  0  0  0  0  0  0
  146.7934  139.5205  152.6712 C   0  0  0  0  0  0  0  0  0  0  0  0
  152.9680  139.6798  159.2538 C   0  0  0  0  0  0  0  0  0  0  0  0
  153.8900  140.1335  160.3993 C   0  0  2  0  0  0  0  0  0  0  0  0
  154.1012  139.0356  161.4214 C   0  0  0  0  0  0  0  0  0  0  0  0
  155.1518  137.9712  161.2055 C   0  0  0  0  0  0  0  0  0  0  0  0
  153.6875  137.6135  161.1216 C   0  0  0  0  0  0  0  0  0  0  0  0
  153.2986  141.2504  161.0571 O   0  0  0  0  0  0  0  0  0  0  0  0
  152.4539  144.4271  160.3965 H   0  0  0  0  0  0  0  0  0  0  0  0
  153.2480  143.7906  161.8344 H   0  0  0  0  0  0  0  0  0  0  0  0
  151.6061  143.2870  161.4407 H   0  0  0  0  0  0  0  0  0  0  0  0
  154.1126  142.6596  159.7966 H   0  0  0  0  0  0  0  0  0  0  0  0
  151.1999  141.7764  159.4094 H   0  0  0  0  0  0  0  0  0  0  0  0
  152.1241  142.8117  158.3284 H   0  0  0  0  0  0  0  0  0  0  0  0
  152.8265  138.5447  154.5640 H   0  0  0  0  0  0  0  0  0  0  0  0
  148.1423  142.5178  156.4945 H   0  0  0  0  0  0  0  0  0  0  0  0
  147.5146  141.7058  154.2317 H   0  0  0  0  0  0  0  0  0  0  0  0
  148.8899  141.3672  153.2160 H   0  0  0  0  0  0  0  0  0  0  0  0
  149.1050  138.9295  152.5574 H   0  0  0  0  0  0  0  0  0  0  0  0
  147.8819  138.8679  155.8971 H   0  0  0  0  0  0  0  0  0  0  0  0
  146.3540  139.5850  155.4527 H   0  0  0  0  0  0  0  0  0  0  0  0
  147.3266  136.8400  154.5249 H   0  0  0  0  0  0  0  0  0  0  0  0
  146.0368  137.1788  155.6581 H   0  0  0  0  0  0  0  0  0  0  0  0
  146.9714  137.3994  152.1734 H   0  0  0  0  0  0  0  0  0  0  0  0
  145.4420  138.1179  151.7178 H   0  0  0  0  0  0  0  0  0  0  0  0
  145.9649  140.2019  152.8631 H   0  0  0  0  0  0  0  0  0  0  0  0
  147.2577  139.8545  151.7425 H   0  0  0  0  0  0  0  0  0  0  0  0
  152.0169  139.3264  159.6548 H   0  0  0  0  0  0  0  0  0  0  0  0
  153.4232  138.8371  158.7359 H   0  0  0  0  0  0  0  0  0  0  0  0
  154.8620  140.4244  159.9960 H   0  0  0  0  0  0  0  0  0  0  0  0
  153.9587  139.3617  162.4502 H   0  0  0  0  0  0  0  0  0  0  0  0
  155.7167  137.9965  160.2756 H   0  0  0  0  0  0  0  0  0  0  0  0
  155.7053  137.6297  162.0776 H   0  0  0  0  0  0  0  0  0  0  0  0
  153.2644  137.0311  161.9375 H   0  0  0  0  0  0  0  0  0  0  0  0
  153.2781  137.4019  160.1355 H   0  0  0  0  0  0  0  0  0  0  0  0
  1  2  1  0  0  0  0
  1 28  1  0  0  0  0
  1 29  1  0  0  0  0
  1 30  1  0  0  0  0
  2 27  1  0  0  0  0
  2  3  1  0  0  0  0
  2 31  1  0  0  0  0
  3  4  1  0  0  0  0
  3 32  1  0  0  0  0
  3 33  1  0  0  0  0
  4  5  1  0  0  0  0
  4 22  1  0  0  0  0
  5 10  1  0  0  0  0
  5  6  2  0  0  0  0
  6  7  1  0  0  0  0
  7  8  2  0  0  0  0
  7 34  1  0  0  0  0
  8  9  1  0  0  0  0
  9 13  1  0  0  0  0
  9 10  2  0  0  0  0
 10 11  1  0  0  0  0
 11 12  2  0  0  0  0
 12 13  1  0  0  0  0
 12 35  1  0  0  0  0
 13 14  1  0  0  0  0
 14 15  1  0  0  0  0
 14 36  1  0  0  0  0
 14 37  1  0  0  0  0
 15 21  1  0  0  0  0
 15 16  1  0  0  0  0
 15 17  1  0  0  0  0
 16 38  1  0  0  0  0
 17 18  1  0  0  0  0
 17 39  1  0  0  0  0
 17 40  1  0  0  0  0
 18 19  1  0  0  0  0
 18 41  1  0  0  0  0
 18 42  1  0  0  0  0
 19 20  1  0  0  0  0
 20 21  1  0  0  0  0
 20 43  1  0  0  0  0
 20 44  1  0  0  0  0
 21 45  1  0  0  0  0
 21 46  1  0  0  0  0
 22 23  1  0  0  0  0
 22 47  1  0  0  0  0
 22 48  1  0  0  0  0
 23 24  1  0  0  0  0
 23 27  1  0  0  0  0
 23 49  1  0  0  0  0
 24 26  1  0  0  0  0
 24 25  1  0  0  0  0
 24 50  1  0  0  0  0
 25 26  1  0  0  0  0
 25 51  1  0  0  0  0
 25 52  1  0  0  0  0
 26 53  1  0  0  0  0
 26 54  1  0  0  0  0
M  END
> <s_m_source_file>
AV-unprocessed.smi

> <i_m_source_file_index>
239

> <i_lp_mmshare_version>
43012

> <i_f3d_flags>
0

> <s_epik_input>
W0NIMl0xW0NIMl1bQ0hdMVtDQEBIXShPMilbQ0gyXU4oW0NIMl1bQ0BIXTJbQ0gzXSljKG5bY0hdbjMpYyhjMzQpbltjSF1uNFtDSDJdQzUoW09IXSlbQ0gyXVtDSDJdT1tDSDJdW0NIMl01

> <s_epik_cmdline>
J2VwaWtfcHl0aG9uJywgJy1waCcsICc3LjAnLCAnLXRuJywgJzgnLCAnLW1hJywgJzIwMCcsICctbWV0YWxfYmluZGluZycsICctaW1hZScsICc8aW5maWxlLm1hZT4nLCAnLW9tYWUnLCAnPG91dGZpbGUubWFlPic=

> <r_lp_tautomer_probability>
1

> <r_epik_Ionization_Penalty>
9.13091e-05

> <r_epik_Ionization_Penalty_Charging>
0

> <r_epik_Ionization_Penalty_Neutral>
9.13091e-05

> <r_epik_State_Penalty>
-0

> <r_epik_Charging_Adjusted_Penalty>
0

> <i_epik_Tot_Q>
0

> <i_epik_Tot_abs_Q>
0

> <r_epik_Metal_State_Penalty>
-0

> <b_epik_Metal_Only>
0

> <s_lp_Force_Field>
OPLS_2005

> <r_lp_Energy>
38.8789

> <b_lp_Chiralities_Consistent>
1

> <s_lp_Variant>
AV-unprocessed.smi:239-3

> <Gold.Version>
5.8.1

> <Gold.Id.Protein>
6NUR|6NUR_protein|mol2

> <Gold.PLP.Fitness>
53.8119

> <Gold.PLP.PLP>
-44.7815

> <Gold.PLP.part.hbond>
-4.4021

> <Gold.PLP.part.metal>
0.0000

> <Gold.PLP.part.buried>
-2.2165

> <Gold.PLP.part.nonpolar>
-38.0503

> <Gold.PLP.part.repulsive>
0.3432

> <Gold.PLP.ligand.clash>
0.0000

> <Gold.PLP.ligand.torsion>
1.1738

> <Gold.PLP.Chemscore.Hbond>
2.9000

> <Gold.PLP.Chemscore.CHOScore>
0.4326

> <Gold.PLP.Chemscore.Metal>
0.0000

> <Gold.Chemscore.Hbonds>
donor molecule, donor type, donor heavy atom, donor atom, acceptor molecule, acceptor atom, score
      L1  H    16    38       P1  7957  1.00
      P1  H  7989  7998       L1     8  0.80
      P1  H  7997  8009       L1     6  1.00
      L1  C    12    35       P1  8028  0.48

> <Gold.PLP.Chemscore.Internal.Correction>
1.3801

> <Gold.Rescore>
     Score         DG    S(hbond)    S(metal)    S(lipo)     H(rot)  DE(clash)    DE(int)     intcor
     15.44     -18.20       2.03        0.00      99.67       2.24       0.10       2.66       ----

> <Gold.Chemscore.Fitness>
15.4408

> <Gold.Chemscore.DG>
-18.2009

> <Gold.Chemscore.ZeroCoef>
-5.4800

> <Gold.Chemscore.Hbond>
2.0333

> <Gold.Chemscore.Metal>
0.0000

> <Gold.Chemscore.Lipo>
99.6655

> <Gold.Chemscore.Internal_Hbond>
0.0000

> <Gold.Chemscore.DEClash>
0.1031

> <Gold.Chemscore.DEInternal>
2.6570

> <Gold.Chemscore.Rot>
2.2387

> <Gold.Chemscore.Internal.Correction>
   9.000000E+99

> <Gold.Chemscore.Hbonds>
donor molecule, donor type, donor heavy atom, donor atom, acceptor molecule, acceptor atom, score
      L1  H    16    38       P1  7957  0.92
      P1  H  7989  7998       L1     8  0.04
      P1  H  7997  8009       L1     6  0.34

> <Gold.Chemscore.Hbond.Weighted>
-6.7911

> <Gold.Chemscore.Metal.Weighted>
-0.0000

> <Gold.Chemscore.Lipo.Weighted>
-11.6609

> <Gold.Chemscore.Internal_Hbond.Weighted>
0.0000

> <Gold.Chemscore.DEClash.Weighted>
0.1031

> <Gold.Chemscore.DEInternal.Weighted>
2.6570

> <Gold.Chemscore.Rot.Weighted>
5.7311

> <Gold.Chemscore.Internal.Correction.Weighted>
   9.000000E+99

> <Gold.Protein.RotatedTorsions>
[ 6907 6896 6895 6894 ] final  149.40 input  -60.11 | X-H torsion
[ 7974 7965 7964 7962 ] final -117.82 input  175.53 | X-H torsion
[ 8008 7997 7996 7995 ] final -167.31 input   59.86 | X-H torsion
[ 10167 10162 10161 10158 ] final   58.74 input  -65.29 | X-H torsion
[ 10718 10713 10712 10709 ] final  -79.49 input   66.30 | X-H torsion
[ 10763 10752 10751 10750 ] final -179.92 input  -60.55 | X-H torsion
[ 11005 11000 10999 10996 ] final  -91.91 input  -57.11 | X-H torsion

> <Gold.Protein.ActiveResidues>
 VAL166  LYS551  ARG553  GLY616  TRP617  ASP618  TYR619  PRO620  LYS621  CYS622 
 ASP623  PHE694  ASN695  SER759  ASP760  ASP761  ALA762  ILE779  LEU786  VAL792 
 PHE793  MET794  SER795  GLU796  ALA797  LYS798  CYS799  TRP800  GLU811  SER814 

> <Gold.Protein.RotatedAtoms>
  152.1286  133.4394  159.4709 H   0  0  0  0  0  0  0  0  0  0  0  0  # atno 6907 bound_to 6896
  150.6876  134.2448  159.4496 H   0  0  0  0  0  0  0  0  0  0  0  0  # atno 6908 bound_to 6896
  152.0330  134.9756  160.0623 H   0  0  0  0  0  0  0  0  0  0  0  0  # atno 6909 bound_to 6896
  145.0808  140.8424  143.4040 H   0  0  0  0  0  0  0  0  0  0  0  0  # atno 7974 bound_to 7965
  155.8759  140.1001  157.1518 H   0  0  0  0  0  0  0  0  0  0  0  0  # atno 8008 bound_to 7997
  154.4001  140.1338  156.4200 H   0  0  0  0  0  0  0  0  0  0  0  0  # atno 8009 bound_to 7997
  155.7697  140.3461  155.5243 H   0  0  0  0  0  0  0  0  0  0  0  0  # atno 8010 bound_to 7997
  140.1840  144.4153  150.6602 H   0  0  0  0  0  0  0  0  0  0  0  0  # atno 10167 bound_to 10162
  156.0091  130.4547  150.3656 H   0  0  0  0  0  0  0  0  0  0  0  0  # atno 10718 bound_to 10713
  154.5289  135.2798  155.1197 H   0  0  0  0  0  0  0  0  0  0  0  0  # atno 10763 bound_to 10752
  154.2725  135.6301  153.5319 H   0  0  0  0  0  0  0  0  0  0  0  0  # atno 10764 bound_to 10752
  152.9952  135.5631  154.5798 H   0  0  0  0  0  0  0  0  0  0  0  0  # atno 10765 bound_to 10752
  141.1534  133.7786  156.9946 H   0  0  0  0  0  0  0  0  0  0  0  0  # atno 11005 bound_to 11000
  145.1180  139.2712  143.5603 LP  0  0  0  0  0  0  0  0  0  0  0  0  # atno 17320 bound_to 7965
  146.3531  140.0796  142.8618 LP  0  0  0  0  0  0  0  0  0  0  0  0  # atno 17321 bound_to 7965
  140.6501  143.2223  151.6098 LP  0  0  0  0  0  0  0  0  0  0  0  0  # atno 17342 bound_to 10162
  139.5284  144.2990  152.1089 LP  0  0  0  0  0  0  0  0  0  0  0  0  # atno 17343 bound_to 10162
  157.1743  131.0376  151.2780 LP  0  0  0  0  0  0  0  0  0  0  0  0  # atno 17370 bound_to 10713
  157.4202  130.7433  149.6907 LP  0  0  0  0  0  0  0  0  0  0  0  0  # atno 17371 bound_to 10713
  140.0980  134.9552  157.1879 LP  0  0  0  0  0  0  0  0  0  0  0  0  # atno 17394 bound_to 11000
  140.3356  134.2761  155.7220 LP  0  0  0  0  0  0  0  0  0  0  0  0  # atno 17395 bound_to 11000

$$$$
