AV-unprocessed.smi:1403|AV-procd|sdf|5701|dock3
  -GOLD-   22720 5333D 1   1.00000     0.00000
 Structure written by MMmdl.
 35 36  0  0  0  0  0  0  0  0  2 V2000
  145.8823  135.6812  152.2555 C   0  0  0  0  0  0  0  0  0  0  0  0
  146.2829  134.2060  152.1137 C   0  0  2  0  0  0  0  0  0  0  0  0
  147.7096  134.0610  152.3938 N   0  0  0  0  0  0  0  0  0  0  0  0
  148.3370  132.9236  152.7296 C   0  0  0  0  0  0  0  0  0  0  0  0
  147.7554  131.8603  152.9434 O   0  0  0  0  0  0  0  0  0  0  0  0
  149.8635  133.0008  152.8150 C   0  0  0  0  0  0  0  0  0  0  0  0
  150.2874  133.3242  154.1855 N   0  0  0  0  0  0  0  0  0  0  0  0
  150.2126  134.6731  154.5764 C   0  0  0  0  0  0  0  0  0  0  0  0
  150.6157  135.0858  155.7926 C   0  0  0  0  0  0  0  0  0  0  0  0
  151.1396  134.0904  156.7191 C   0  0  0  0  0  0  0  0  0  0  0  0
  151.5119  134.4485  157.8346 O   0  0  0  0  0  0  0  0  0  0  0  0
  151.1910  132.7937  156.2949 N   0  5  0  0  0  0  0  0  0  0  0  0
  150.7833  132.3893  155.0514 C   0  0  0  0  0  0  0  0  0  0  0  0
  150.8496  131.2152  154.6874 O   0  0  0  0  0  0  0  0  0  0  0  0
  145.9456  133.6450  150.7144 C   0  0  2  0  0  0  0  0  0  0  0  0
  144.4858  133.8036  150.2690 C   0  0  0  0  0  0  0  0  0  0  0  0
  144.3227  132.6430  149.3152 C   0  0  0  0  0  0  0  0  0  0  0  0
  145.1398  131.5621  150.0129 C   0  0  0  0  0  0  0  0  0  0  0  0
  146.2210  132.2452  150.6399 O   0  0  0  0  0  0  0  0  0  0  0  0
  144.8162  135.8173  152.0717 H   0  0  0  0  0  0  0  0  0  0  0  0
  146.4247  136.3115  151.5499 H   0  0  0  0  0  0  0  0  0  0  0  0
  146.0918  136.0494  153.2604 H   0  0  0  0  0  0  0  0  0  0  0  0
  145.6994  133.6461  152.8465 H   0  0  0  0  0  0  0  0  0  0  0  0
  148.2800  134.8807  152.2450 H   0  0  0  0  0  0  0  0  0  0  0  0
  150.3049  132.0540  152.4991 H   0  0  0  0  0  0  0  0  0  0  0  0
  150.2249  133.7387  152.0970 H   0  0  0  0  0  0  0  0  0  0  0  0
  149.8203  135.3458  153.8277 H   0  0  0  0  0  0  0  0  0  0  0  0
  150.5574  136.1270  156.0732 H   0  0  0  0  0  0  0  0  0  0  0  0
  146.5779  134.1308  149.9698 H   0  0  0  0  0  0  0  0  0  0  0  0
  143.7909  133.6828  151.0997 H   0  0  0  0  0  0  0  0  0  0  0  0
  144.2878  134.7699  149.8048 H   0  0  0  0  0  0  0  0  0  0  0  0
  143.2818  132.3569  149.1604 H   0  0  0  0  0  0  0  0  0  0  0  0
  144.7626  132.8857  148.3472 H   0  0  0  0  0  0  0  0  0  0  0  0
  144.5427  131.0751  150.7845 H   0  0  0  0  0  0  0  0  0  0  0  0
  145.4951  130.7948  149.3249 H   0  0  0  0  0  0  0  0  0  0  0  0
  1  2  1  0  0  0  0
  1 20  1  0  0  0  0
  1 21  1  0  0  0  0
  1 22  1  0  0  0  0
  2  3  1  0  0  0  0
  2 15  1  0  0  0  0
  2 23  1  0  0  0  0
  3  4  1  0  0  0  0
  3 24  1  0  0  0  0
  4  5  2  0  0  0  0
  4  6  1  0  0  0  0
  6  7  1  0  0  0  0
  6 25  1  0  0  0  0
  6 26  1  0  0  0  0
  7 13  1  0  0  0  0
  7  8  1  0  0  0  0
  8  9  2  0  0  0  0
  8 27  1  0  0  0  0
  9 10  1  0  0  0  0
  9 28  1  0  0  0  0
 10 11  2  0  0  0  0
 10 12  1  0  0  0  0
 12 13  1  0  0  0  0
 13 14  2  0  0  0  0
 15 19  1  0  0  0  0
 15 16  1  0  0  0  0
 15 29  1  0  0  0  0
 16 17  1  0  0  0  0
 16 30  1  0  0  0  0
 16 31  1  0  0  0  0
 17 18  1  0  0  0  0
 17 32  1  0  0  0  0
 17 33  1  0  0  0  0
 18 19  1  0  0  0  0
 18 34  1  0  0  0  0
 18 35  1  0  0  0  0
M  CHG  1  12  -1
M  END
> <s_m_source_file>
AV-unprocessed.smi

> <i_m_source_file_index>
1403

> <i_lp_mmshare_version>
43012

> <i_f3d_flags>
0

> <s_epik_input>
TzFbQ0gyXVtDSDJdW0NIMl1bQ0BIXTFbQ0BIXShbQ0gzXSlbTkhdQyg9TylbQ0gyXW4yW2NIXVtjSF1jKD1PKVtuSF1jMj1P

> <s_epik_cmdline>
J2VwaWtfcHl0aG9uJywgJy1waCcsICc3LjAnLCAnLXRuJywgJzgnLCAnLW1hJywgJzIwMCcsICctbWV0YWxfYmluZGluZycsICctaW1hZScsICc8aW5maWxlLm1hZT4nLCAnLW9tYWUnLCAnPG91dGZpbGUubWFlPic=

> <r_lp_tautomer_probability>
0.999537

> <r_epik_Ionization_Penalty>
3.07438

> <r_epik_Ionization_Penalty_Charging>
2.82466e-08

> <r_epik_Ionization_Penalty_Neutral>
3.07438

> <r_epik_State_Penalty>
3.07341

> <r_epik_Charging_Adjusted_Penalty>
3.07341

> <i_epik_Tot_Q>
-1

> <i_epik_Tot_abs_Q>
1

> <r_epik_Metal_State_Penalty>
0.45947

> <b_epik_Metal_Only>
1

> <s_lp_Force_Field>
OPLS_2005

> <r_lp_Energy>
29.4252

> <b_lp_Chiralities_Consistent>
1

> <s_lp_Variant>
AV-unprocessed.smi:1403-5

> <Gold.Version>
5.8.1

> <Gold.Id.Protein>
6NUR|6NUR_protein|mol2

> <Gold.PLP.Fitness>
39.5995

> <Gold.PLP.PLP>
-29.7266

> <Gold.PLP.part.hbond>
-3.0000

> <Gold.PLP.part.metal>
0.0000

> <Gold.PLP.part.buried>
-4.3785

> <Gold.PLP.part.nonpolar>
-23.9237

> <Gold.PLP.part.repulsive>
0.1726

> <Gold.PLP.ligand.clash>
0.0000

> <Gold.PLP.ligand.torsion>
0.8853

> <Gold.PLP.Chemscore.Hbond>
2.8720

> <Gold.PLP.Chemscore.CHOScore>
1.0000

> <Gold.PLP.Chemscore.Metal>
0.0000

> <Gold.Chemscore.Hbonds>
donor molecule, donor type, donor heavy atom, donor atom, acceptor molecule, acceptor atom, score
      L1  H     3    24       P1  7948  0.94
      L1  C     8    27       P1  7948  0.61

> <Gold.PLP.Chemscore.Internal.Correction>
0.0276

> <Gold.Rescore>
     Score         DG    S(hbond)    S(metal)    S(lipo)     H(rot)  DE(clash)    DE(int)     intcor
     11.71     -12.78       1.72        0.00      56.93       1.99       0.00       1.06       ----

> <Gold.Chemscore.Fitness>
11.7145

> <Gold.Chemscore.DG>
-12.7772

> <Gold.Chemscore.ZeroCoef>
-5.4800

> <Gold.Chemscore.Hbond>
1.7190

> <Gold.Chemscore.Metal>
0.0000

> <Gold.Chemscore.Lipo>
56.9279

> <Gold.Chemscore.Internal_Hbond>
0.0000

> <Gold.Chemscore.DEClash>
0.0000

> <Gold.Chemscore.DEInternal>
1.0627

> <Gold.Chemscore.Rot>
1.9940

> <Gold.Chemscore.Internal.Correction>
   9.000000E+99

> <Gold.Chemscore.Hbonds>
donor molecule, donor type, donor heavy atom, donor atom, acceptor molecule, acceptor atom, score
      L1  H     3    24       P1  7948  0.27
      P1  H  6896  6907       L1    11  0.06

> <Gold.Chemscore.Hbond.Weighted>
-5.7414

> <Gold.Chemscore.Metal.Weighted>
-0.0000

> <Gold.Chemscore.Lipo.Weighted>
-6.6606

> <Gold.Chemscore.Internal_Hbond.Weighted>
0.0000

> <Gold.Chemscore.DEClash.Weighted>
0.0000

> <Gold.Chemscore.DEInternal.Weighted>
1.0627

> <Gold.Chemscore.Rot.Weighted>
5.1047

> <Gold.Chemscore.Internal.Correction.Weighted>
   9.000000E+99

> <Gold.Protein.RotatedTorsions>
[ 6907 6896 6895 6894 ] final -130.49 input  -60.11 | X-H torsion
[ 7974 7965 7964 7962 ] final -168.72 input  175.53 | X-H torsion
[ 8008 7997 7996 7995 ] final   25.99 input   59.86 | X-H torsion
[ 10167 10162 10161 10158 ] final  162.53 input  -65.29 | X-H torsion
[ 10718 10713 10712 10709 ] final -121.23 input   66.30 | X-H torsion
[ 10763 10752 10751 10750 ] final  -44.23 input  -60.55 | X-H torsion
[ 11005 11000 10999 10996 ] final -160.08 input  -57.11 | X-H torsion

> <Gold.Protein.ActiveResidues>
 VAL166  LYS551  ARG553  GLY616  TRP617  ASP618  TYR619  PRO620  LYS621  CYS622 
 ASP623  PHE694  ASN695  SER759  ASP760  ASP761  ALA762  ILE779  LEU786  VAL792 
 PHE793  MET794  SER795  GLU796  ALA797  LYS798  CYS799  TRP800  GLU811  SER814 

> <Gold.Protein.RotatedAtoms>
  150.9403  133.6664  159.2791 H   0  0  0  0  0  0  0  0  0  0  0  0  # atno 6907 bound_to 6896
  151.4055  135.0976  159.9579 H   0  0  0  0  0  0  0  0  0  0  0  0  # atno 6908 bound_to 6896
  152.5066  133.8888  159.7438 H   0  0  0  0  0  0  0  0  0  0  0  0  # atno 6909 bound_to 6896
  144.7198  140.2327  143.6302 H   0  0  0  0  0  0  0  0  0  0  0  0  # atno 7974 bound_to 7965
  155.0204  140.3147  155.4796 H   0  0  0  0  0  0  0  0  0  0  0  0  # atno 8008 bound_to 7997
  156.2893  140.2198  156.5263 H   0  0  0  0  0  0  0  0  0  0  0  0  # atno 8009 bound_to 7997
  154.7457  140.0470  157.0838 H   0  0  0  0  0  0  0  0  0  0  0  0  # atno 8010 bound_to 7997
  139.4862  144.4428  151.8930 H   0  0  0  0  0  0  0  0  0  0  0  0  # atno 10167 bound_to 10162
  156.1320  130.6403  150.9637 H   0  0  0  0  0  0  0  0  0  0  0  0  # atno 10718 bound_to 10713
  154.0086  135.6684  153.4764 H   0  0  0  0  0  0  0  0  0  0  0  0  # atno 10763 bound_to 10752
  153.0631  135.5016  154.8134 H   0  0  0  0  0  0  0  0  0  0  0  0  # atno 10764 bound_to 10752
  154.7009  135.3078  154.9306 H   0  0  0  0  0  0  0  0  0  0  0  0  # atno 10765 bound_to 10752
  140.6355  134.4606  157.5231 H   0  0  0  0  0  0  0  0  0  0  0  0  # atno 11005 bound_to 11000
  145.8395  139.2123  143.1836 LP  0  0  0  0  0  0  0  0  0  0  0  0  # atno 17320 bound_to 7965
  146.0359  140.8212  142.9853 LP  0  0  0  0  0  0  0  0  0  0  0  0  # atno 17321 bound_to 7965
  140.3881  144.2651  150.5902 LP  0  0  0  0  0  0  0  0  0  0  0  0  # atno 17342 bound_to 10162
  140.5172  143.2275  151.8445 LP  0  0  0  0  0  0  0  0  0  0  0  0  # atno 17343 bound_to 10162
  157.6497  131.0899  150.8077 LP  0  0  0  0  0  0  0  0  0  0  0  0  # atno 17370 bound_to 10713
  156.8160  130.4968  149.5349 LP  0  0  0  0  0  0  0  0  0  0  0  0  # atno 17371 bound_to 10713
  139.9100  134.8366  156.1564 LP  0  0  0  0  0  0  0  0  0  0  0  0  # atno 17394 bound_to 11000
  141.0645  133.6826  156.2017 LP  0  0  0  0  0  0  0  0  0  0  0  0  # atno 17395 bound_to 11000

$$$$
