AV-unprocessed.smi:1297|AV-procd|sdf|5416|dock6
  -GOLD-   22720 4573D 1   1.00000     0.00000
 Structure written by MMmdl.
 26 27  0  0  0  0  0  0  0  0  1 V2000
  152.3271  139.3567  155.3517 C   0  0  0  0  0  0  0  0  0  0  0  0
  151.1035  140.0337  156.5098 S   0  0  0  0  0  0  0  0  0  0  0  0
  152.1630  140.4952  157.8508 C   0  0  0  0  0  0  0  0  0  0  0  0
  153.1707  139.7459  158.3099 N   0  0  0  0  0  0  0  0  0  0  0  0
  153.7198  140.4552  159.3529 N   0  0  0  0  0  0  0  0  0  0  0  0
  153.0114  141.5836  159.4243 C   0  0  0  0  0  0  0  0  0  0  0  0
  153.2496  142.6428  160.4544 C   0  0  0  0  0  0  0  0  0  0  0  0
  153.1580  142.3265  161.9307 C   0  0  0  0  0  0  0  0  0  0  0  0
  152.1163  143.2027  161.2876 C   0  0  0  0  0  0  0  0  0  0  0  0
  152.0139  141.6603  158.5184 N   0  0  0  0  0  0  0  0  0  0  0  0
  151.0293  142.7195  158.3237 C   0  0  0  0  0  0  0  0  0  0  0  0
  151.6818  144.0403  157.9067 C   0  0  0  0  0  0  0  0  0  0  0  0
  151.3143  144.5672  156.7360 N   0  0  0  0  0  0  0  0  0  0  0  0
  152.5016  144.5867  158.6409 O   0  0  0  0  0  0  0  0  0  0  0  0
  151.8306  139.0207  154.4415 H   0  0  0  0  0  0  0  0  0  0  0  0
  152.8441  138.5038  155.7923 H   0  0  0  0  0  0  0  0  0  0  0  0
  153.0627  140.1142  155.0795 H   0  0  0  0  0  0  0  0  0  0  0  0
  154.0249  143.3321  160.1258 H   0  0  0  0  0  0  0  0  0  0  0  0
  152.8534  141.3220  162.2175 H   0  0  0  0  0  0  0  0  0  0  0  0
  153.8816  142.8011  162.5901 H   0  0  0  0  0  0  0  0  0  0  0  0
  152.1417  144.2655  161.5188 H   0  0  0  0  0  0  0  0  0  0  0  0
  151.1230  142.7787  161.1525 H   0  0  0  0  0  0  0  0  0  0  0  0
  150.3032  142.4109  157.5715 H   0  0  0  0  0  0  0  0  0  0  0  0
  150.4698  142.8597  159.2492 H   0  0  0  0  0  0  0  0  0  0  0  0
  151.7204  145.4379  156.4245 H   0  0  0  0  0  0  0  0  0  0  0  0
  150.6296  144.0925  156.1655 H   0  0  0  0  0  0  0  0  0  0  0  0
  1  2  1  0  0  0  0
  1 15  1  0  0  0  0
  1 16  1  0  0  0  0
  1 17  1  0  0  0  0
  2  3  1  0  0  0  0
  3 10  1  0  0  0  0
  3  4  2  0  0  0  0
  4  5  1  0  0  0  0
  5  6  2  0  0  0  0
  6  7  1  0  0  0  0
  6 10  1  0  0  0  0
  7  9  1  0  0  0  0
  7  8  1  0  0  0  0
  7 18  1  0  0  0  0
  8  9  1  0  0  0  0
  8 19  1  0  0  0  0
  8 20  1  0  0  0  0
  9 21  1  0  0  0  0
  9 22  1  0  0  0  0
 10 11  1  0  0  0  0
 11 12  1  0  0  0  0
 11 23  1  0  0  0  0
 11 24  1  0  0  0  0
 12 13  1  0  0  0  0
 12 14  2  0  0  0  0
 13 25  1  0  0  0  0
 13 26  1  0  0  0  0
M  END
> <s_m_source_file>
AV-unprocessed.smi

> <i_m_source_file_index>
1297

> <i_lp_mmshare_version>
43012

> <i_f3d_flags>
0

> <s_epik_input>
W0NIM11TYzFubmMoW0NIXTJbQ0gyXVtDSDJdMiluMVtDSDJdQyg9TylbTkgyXQ==

> <s_epik_cmdline>
J2VwaWtfcHl0aG9uJywgJy1waCcsICc3LjAnLCAnLXRuJywgJzgnLCAnLW1hJywgJzIwMCcsICctbWV0YWxfYmluZGluZycsICctaW1hZScsICc8aW5maWxlLm1hZT4nLCAnLW9tYWUnLCAnPG91dGZpbGUubWFlPic=

> <r_lp_tautomer_probability>
1

> <r_epik_Ionization_Penalty>
2.14715e-06

> <r_epik_Ionization_Penalty_Charging>
0

> <r_epik_Ionization_Penalty_Neutral>
2.14715e-06

> <r_epik_State_Penalty>
-0

> <r_epik_Charging_Adjusted_Penalty>
0

> <i_epik_Tot_Q>
0

> <i_epik_Tot_abs_Q>
0

> <r_epik_Metal_State_Penalty>
-0

> <b_epik_Metal_Only>
0

> <s_lp_Force_Field>
OPLS_2005

> <r_lp_Energy>
5.16146

> <b_lp_Chiralities_Consistent>
1

> <s_lp_Variant>
AV-unprocessed.smi:1297-1

> <Gold.Version>
5.8.1

> <Gold.Id.Protein>
6NUR|6NUR_protein|mol2

> <Gold.PLP.Fitness>
36.6930

> <Gold.PLP.PLP>
-32.5626

> <Gold.PLP.part.hbond>
-2.3269

> <Gold.PLP.part.metal>
0.0000

> <Gold.PLP.part.buried>
-3.2001

> <Gold.PLP.part.nonpolar>
-27.3080

> <Gold.PLP.part.repulsive>
0.0923

> <Gold.PLP.ligand.clash>
0.0000

> <Gold.PLP.ligand.torsion>
0.3666

> <Gold.PLP.Chemscore.Hbond>
1.5760

> <Gold.PLP.Chemscore.CHOScore>
0.0000

> <Gold.PLP.Chemscore.Metal>
0.0000

> <Gold.Chemscore.Hbonds>
donor molecule, donor type, donor heavy atom, donor atom, acceptor molecule, acceptor atom, score
      L1  H    13    26       P1  8028  0.53
      P1  H  7997  8008       L1     4  0.90

> <Gold.PLP.Chemscore.Internal.Correction>
0.1356

> <Gold.Rescore>
     Score         DG    S(hbond)    S(metal)    S(lipo)     H(rot)  DE(clash)    DE(int)     intcor
      7.82      -8.61       0.56        0.00      58.63       2.19       0.23       0.56       ----

> <Gold.Chemscore.Fitness>
7.8169

> <Gold.Chemscore.DG>
-8.6066

> <Gold.Chemscore.ZeroCoef>
-5.4800

> <Gold.Chemscore.Hbond>
0.5607

> <Gold.Chemscore.Metal>
0.0000

> <Gold.Chemscore.Lipo>
58.6283

> <Gold.Chemscore.Internal_Hbond>
0.0000

> <Gold.Chemscore.DEClash>
0.2321

> <Gold.Chemscore.DEInternal>
0.5576

> <Gold.Chemscore.Rot>
2.1897

> <Gold.Chemscore.Internal.Correction>
   9.000000E+99

> <Gold.Chemscore.Hbonds>
donor molecule, donor type, donor heavy atom, donor atom, acceptor molecule, acceptor atom, score
      L1  H    13    26       P1  8028  0.52
      P1  H  7997  8008       L1     4  0.06

> <Gold.Chemscore.Hbond.Weighted>
-1.8728

> <Gold.Chemscore.Metal.Weighted>
-0.0000

> <Gold.Chemscore.Lipo.Weighted>
-6.8595

> <Gold.Chemscore.Internal_Hbond.Weighted>
0.0000

> <Gold.Chemscore.DEClash.Weighted>
0.2321

> <Gold.Chemscore.DEInternal.Weighted>
0.5576

> <Gold.Chemscore.Rot.Weighted>
5.6057

> <Gold.Chemscore.Internal.Correction.Weighted>
   9.000000E+99

> <Gold.Protein.RotatedTorsions>
[ 6907 6896 6895 6894 ] final   42.14 input  -60.11 | X-H torsion
[ 7974 7965 7964 7962 ] final  -88.45 input  175.53 | X-H torsion
[ 8008 7997 7996 7995 ] final  -71.57 input   59.86 | X-H torsion
[ 10167 10162 10161 10158 ] final  102.06 input  -65.29 | X-H torsion
[ 10718 10713 10712 10709 ] final   65.58 input   66.30 | X-H torsion
[ 10763 10752 10751 10750 ] final -117.56 input  -60.55 | X-H torsion
[ 11005 11000 10999 10996 ] final  112.20 input  -57.11 | X-H torsion

> <Gold.Protein.ActiveResidues>
 VAL166  LYS551  ARG553  GLY616  TRP617  ASP618  TYR619  PRO620  LYS621  CYS622 
 ASP623  PHE694  ASN695  SER759  ASP760  ASP761  ALA762  ILE779  LEU786  VAL792 
 PHE793  MET794  SER795  GLU796  ALA797  LYS798  CYS799  TRP800  GLU811  SER814 

> <Gold.Protein.RotatedAtoms>
  152.2041  134.8561  160.0504 H   0  0  0  0  0  0  0  0  0  0  0  0  # atno 6907 bound_to 6896
  151.9404  133.3631  159.3971 H   0  0  0  0  0  0  0  0  0  0  0  0  # atno 6908 bound_to 6896
  150.6961  134.4370  159.5318 H   0  0  0  0  0  0  0  0  0  0  0  0  # atno 6909 bound_to 6896
  145.4530  140.9561  143.2011 H   0  0  0  0  0  0  0  0  0  0  0  0  # atno 7974 bound_to 7965
  154.5098  140.0813  156.7968 H   0  0  0  0  0  0  0  0  0  0  0  0  # atno 8008 bound_to 7997
  155.3810  140.3428  155.4228 H   0  0  0  0  0  0  0  0  0  0  0  0  # atno 8009 bound_to 7997
  156.1560  140.1573  156.8679 H   0  0  0  0  0  0  0  0  0  0  0  0  # atno 8010 bound_to 7997
  139.7383  144.7018  151.0615 H   0  0  0  0  0  0  0  0  0  0  0  0  # atno 10167 bound_to 10162
  157.6114  130.9222  149.9995 H   0  0  0  0  0  0  0  0  0  0  0  0  # atno 10718 bound_to 10713
  154.8559  135.4305  154.1998 H   0  0  0  0  0  0  0  0  0  0  0  0  # atno 10763 bound_to 10752
  153.3048  135.6971  153.7176 H   0  0  0  0  0  0  0  0  0  0  0  0  # atno 10764 bound_to 10752
  153.6292  135.3488  155.3010 H   0  0  0  0  0  0  0  0  0  0  0  0  # atno 10765 bound_to 10752
  139.8921  134.9525  156.6549 H   0  0  0  0  0  0  0  0  0  0  0  0  # atno 11005 bound_to 11000
  144.8049  139.6070  143.7055 LP  0  0  0  0  0  0  0  0  0  0  0  0  # atno 17320 bound_to 7965
  146.2493  139.6166  142.9438 LP  0  0  0  0  0  0  0  0  0  0  0  0  # atno 17321 bound_to 7965
  140.7782  143.4956  150.9837 LP  0  0  0  0  0  0  0  0  0  0  0  0  # atno 17342 bound_to 10162
  139.8644  143.7272  152.3171 LP  0  0  0  0  0  0  0  0  0  0  0  0  # atno 17343 bound_to 10162
  156.1219  130.3645  149.9873 LP  0  0  0  0  0  0  0  0  0  0  0  0  # atno 17370 bound_to 10713
  156.7952  130.9270  151.3646 LP  0  0  0  0  0  0  0  0  0  0  0  0  # atno 17371 bound_to 10713
  140.7491  133.8912  155.8334 LP  0  0  0  0  0  0  0  0  0  0  0  0  # atno 17394 bound_to 11000
  141.0015  134.1144  157.4312 LP  0  0  0  0  0  0  0  0  0  0  0  0  # atno 17395 bound_to 11000

$$$$
