AV-unprocessed.smi:1554|AV-procd|sdf|6259|dock4
  -GOLD-   22720 6443D 1   1.00000     0.00000
 Structure written by MMmdl.
 49 51  0  0  0  0  0  0  0  0  3 V2000
  152.4004  143.7338  160.1365 C   0  0  0  0  0  0  0  0  0  0  0  0
  152.0890  142.7576  159.0147 C   0  0  0  0  0  0  0  0  0  0  0  0
  151.1779  143.1535  158.0098 C   0  0  0  0  0  0  0  0  0  0  0  0
  150.9142  142.2392  156.9968 C   0  0  0  0  0  0  0  0  0  0  0  0
  150.0784  142.3286  155.8824 N   0  3  0  0  0  0  0  0  0  0  0  0
  150.1482  141.1719  155.1677 C   0  0  0  0  0  0  0  0  0  0  0  0
  151.0180  140.3438  155.8086 N   0  0  0  0  0  0  0  0  0  0  0  0
  151.4478  138.9827  155.4546 C   0  0  0  0  0  0  0  0  0  0  0  0
  150.2921  138.1082  154.9292 C   0  0  1  0  0  0  0  0  0  0  0  0
  150.0664  138.3909  153.5612 O   0  0  0  0  0  0  0  0  0  0  0  0
  150.5967  136.6047  155.0819 C   0  0  0  0  0  0  0  0  0  0  0  0
  149.4502  135.7492  154.6719 N   0  3  2  0  0  0  0  0  0  0  0  0
  148.2352  135.8933  155.5143 C   0  0  0  0  0  0  0  0  0  0  0  0
  148.3654  135.1117  156.8363 C   0  0  0  0  0  0  0  0  0  0  0  0
  148.6815  133.7514  156.5666 O   0  0  0  0  0  0  0  0  0  0  0  0
  149.9147  133.6057  155.8708 C   0  0  1  0  0  0  0  0  0  0  0  0
  150.2033  132.1081  155.7180 C   0  0  0  0  0  0  0  0  0  0  0  0
  149.8020  134.3175  154.5068 C   0  0  0  0  0  0  0  0  0  0  0  0
  151.5203  140.9681  156.9579 C   0  0  0  0  0  0  0  0  0  0  0  0
  152.4214  140.5635  157.9406 C   0  0  0  0  0  0  0  0  0  0  0  0
  152.7029  141.4790  158.9802 C   0  0  0  0  0  0  0  0  0  0  0  0
  153.6812  141.0639  160.0662 C   0  0  0  0  0  0  0  0  0  0  0  0
  151.8184  144.6512  160.0410 H   0  0  0  0  0  0  0  0  0  0  0  0
  153.4561  144.0061  160.1231 H   0  0  0  0  0  0  0  0  0  0  0  0
  152.1679  143.2928  161.1061 H   0  0  0  0  0  0  0  0  0  0  0  0
  150.7079  144.1259  158.0282 H   0  0  0  0  0  0  0  0  0  0  0  0
  149.6105  140.9526  154.2564 H   0  0  0  0  0  0  0  0  0  0  0  0
  152.2669  139.0354  154.7373 H   0  0  0  0  0  0  0  0  0  0  0  0
  151.8650  138.5375  156.3586 H   0  0  0  0  0  0  0  0  0  0  0  0
  149.3882  138.3681  155.4793 H   0  0  0  0  0  0  0  0  0  0  0  0
  149.8335  137.5889  153.1189 H   0  0  0  0  0  0  0  0  0  0  0  0
  151.4708  136.3681  154.4733 H   0  0  0  0  0  0  0  0  0  0  0  0
  150.8793  136.3781  156.1101 H   0  0  0  0  0  0  0  0  0  0  0  0
  148.0113  136.9412  155.7099 H   0  0  0  0  0  0  0  0  0  0  0  0
  147.3867  135.5014  154.9521 H   0  0  0  0  0  0  0  0  0  0  0  0
  149.1218  135.5505  157.4881 H   0  0  0  0  0  0  0  0  0  0  0  0
  147.4233  135.1491  157.3837 H   0  0  0  0  0  0  0  0  0  0  0  0
  150.7170  134.0514  156.4613 H   0  0  0  0  0  0  0  0  0  0  0  0
  151.1459  131.9415  155.1958 H   0  0  0  0  0  0  0  0  0  0  0  0
  149.4152  131.6079  155.1545 H   0  0  0  0  0  0  0  0  0  0  0  0
  150.2743  131.6235  156.6920 H   0  0  0  0  0  0  0  0  0  0  0  0
  149.0199  133.8425  153.9127 H   0  0  0  0  0  0  0  0  0  0  0  0
  150.7241  134.2137  153.9334 H   0  0  0  0  0  0  0  0  0  0  0  0
  152.8929  139.5926  157.9174 H   0  0  0  0  0  0  0  0  0  0  0  0
  154.0934  140.0727  159.8746 H   0  0  0  0  0  0  0  0  0  0  0  0
  153.1858  141.0372  161.0370 H   0  0  0  0  0  0  0  0  0  0  0  0
  154.5144  141.7648  160.1213 H   0  0  0  0  0  0  0  0  0  0  0  0
  149.2023  136.0775  153.7488 H   0  0  0  0  0  0  0  0  0  0  0  0
  149.5011  143.1198  155.6266 H   0  0  0  0  0  0  0  0  0  0  0  0
  1  2  1  0  0  0  0
  1 23  1  0  0  0  0
  1 24  1  0  0  0  0
  1 25  1  0  0  0  0
  2 21  1  0  0  0  0
  2  3  2  0  0  0  0
  3  4  1  0  0  0  0
  3 26  1  0  0  0  0
  4 19  2  0  0  0  0
  4  5  1  0  0  0  0
  5  6  2  0  0  0  0
  5 49  1  0  0  0  0
  6  7  1  0  0  0  0
  6 27  1  0  0  0  0
  7  8  1  0  0  0  0
  7 19  1  0  0  0  0
  8  9  1  0  0  0  0
  8 28  1  0  0  0  0
  8 29  1  0  0  0  0
  9 10  1  0  0  0  0
  9 11  1  0  0  0  0
  9 30  1  0  0  0  0
 10 31  1  0  0  0  0
 11 12  1  0  0  0  0
 11 32  1  0  0  0  0
 11 33  1  0  0  0  0
 12 18  1  0  0  0  0
 12 13  1  0  0  0  0
 12 48  1  0  0  0  0
 13 14  1  0  0  0  0
 13 34  1  0  0  0  0
 13 35  1  0  0  0  0
 14 15  1  0  0  0  0
 14 36  1  0  0  0  0
 14 37  1  0  0  0  0
 15 16  1  0  0  0  0
 16 17  1  0  0  0  0
 16 18  1  0  0  0  0
 16 38  1  0  0  0  0
 17 39  1  0  0  0  0
 17 40  1  0  0  0  0
 17 41  1  0  0  0  0
 18 42  1  0  0  0  0
 18 43  1  0  0  0  0
 19 20  1  0  0  0  0
 20 21  2  0  0  0  0
 20 44  1  0  0  0  0
 21 22  1  0  0  0  0
 22 45  1  0  0  0  0
 22 46  1  0  0  0  0
 22 47  1  0  0  0  0
M  CHG  1   5   1
M  CHG  1  12   1
M  END
> <s_m_source_file>
AV-unprocessed.smi

> <i_m_source_file_index>
1554

> <i_lp_mmshare_version>
43012

> <i_f3d_flags>
0

> <s_epik_input>
W0NIM11jKFtjSF0xKWMoW0NIM10pW2NIXWMoYzEyKW4oW2NIXW4yKVtDSDJdW0NASF0oW09IXSlbQ0gyXU4zW0NIMl1bQ0gyXU9bQ0BASF0oW0NIM10pW0NIMl0z

> <s_epik_cmdline>
J2VwaWtfcHl0aG9uJywgJy1waCcsICc3LjAnLCAnLXRuJywgJzgnLCAnLW1hJywgJzIwMCcsICctbWV0YWxfYmluZGluZycsICctaW1hZScsICc8aW5maWxlLm1hZT4nLCAnLW9tYWUnLCAnPG91dGZpbGUubWFlPic=

> <r_epik_Ionization_Penalty>
1.8848

> <r_epik_Ionization_Penalty_Charging>
1.88479

> <r_epik_Ionization_Penalty_Neutral>
1.42224e-05

> <r_epik_State_Penalty>
1.94551

> <r_epik_Charging_Adjusted_Penalty>
3.8303

> <i_epik_Tot_Q>
2

> <i_epik_Tot_abs_Q>
2

> <r_epik_Metal_State_Penalty>
5.95849

> <b_epik_Metal_Only>
0

> <s_lp_Force_Field>
OPLS_2005

> <r_lp_Energy>
32.9811

> <b_lp_Chiralities_Consistent>
1

> <s_lp_Variant>
AV-unprocessed.smi:1554-20

> <Gold.Version>
5.8.1

> <Gold.Id.Protein>
6NUR|6NUR_protein|mol2

> <Gold.PLP.Fitness>
56.4411

> <Gold.PLP.PLP>
-42.5025

> <Gold.PLP.part.hbond>
-4.0000

> <Gold.PLP.part.metal>
0.0000

> <Gold.PLP.part.buried>
-4.1704

> <Gold.PLP.part.nonpolar>
-34.0224

> <Gold.PLP.part.repulsive>
0.1493

> <Gold.PLP.ligand.clash>
0.0000

> <Gold.PLP.ligand.torsion>
0.5510

> <Gold.PLP.Chemscore.Hbond>
5.0000

> <Gold.PLP.Chemscore.CHOScore>
0.0000

> <Gold.PLP.Chemscore.Metal>
0.0000

> <Gold.Chemscore.Hbonds>
donor molecule, donor type, donor heavy atom, donor atom, acceptor molecule, acceptor atom, score
      L1  H     5    49       P1  8028  2.00
      L1  H    10    31       P1  7948  1.00
      L1  H    12    48       P1  7948  2.00

> <Gold.PLP.Chemscore.Internal.Correction>
0.0405

> <Gold.Rescore>
     Score         DG    S(hbond)    S(metal)    S(lipo)     H(rot)  DE(clash)    DE(int)     intcor
     22.02     -22.58       2.84        0.00     111.30       2.11       0.14       0.42       ----

> <Gold.Chemscore.Fitness>
22.0208

> <Gold.Chemscore.DG>
-22.5797

> <Gold.Chemscore.ZeroCoef>
-5.4800

> <Gold.Chemscore.Hbond>
2.8399

> <Gold.Chemscore.Metal>
0.0000

> <Gold.Chemscore.Lipo>
111.2978

> <Gold.Chemscore.Internal_Hbond>
0.0000

> <Gold.Chemscore.DEClash>
0.1434

> <Gold.Chemscore.DEInternal>
0.4155

> <Gold.Chemscore.Rot>
2.1122

> <Gold.Chemscore.Internal.Correction>
   9.000000E+99

> <Gold.Chemscore.Hbonds>
donor molecule, donor type, donor heavy atom, donor atom, acceptor molecule, acceptor atom, score
      L1  H     5    49       P1  8028  0.99
      L1  H    10    31       P1  7948  0.48
      L1  H    12    48       P1  7948  0.88

> <Gold.Chemscore.Hbond.Weighted>
-9.4852

> <Gold.Chemscore.Metal.Weighted>
-0.0000

> <Gold.Chemscore.Lipo.Weighted>
-13.0218

> <Gold.Chemscore.Internal_Hbond.Weighted>
0.0000

> <Gold.Chemscore.DEClash.Weighted>
0.1434

> <Gold.Chemscore.DEInternal.Weighted>
0.4155

> <Gold.Chemscore.Rot.Weighted>
5.4073

> <Gold.Chemscore.Internal.Correction.Weighted>
   9.000000E+99

> <Gold.Protein.RotatedTorsions>
[ 6907 6896 6895 6894 ] final -141.91 input  -60.11 | X-H torsion
[ 7974 7965 7964 7962 ] final  -81.60 input  175.53 | X-H torsion
[ 8008 7997 7996 7995 ] final  143.21 input   59.86 | X-H torsion
[ 10167 10162 10161 10158 ] final  -60.88 input  -65.29 | X-H torsion
[ 10718 10713 10712 10709 ] final   56.85 input   66.30 | X-H torsion
[ 10763 10752 10751 10750 ] final   20.04 input  -60.55 | X-H torsion
[ 11005 11000 10999 10996 ] final -171.81 input  -57.11 | X-H torsion

> <Gold.Protein.ActiveResidues>
 VAL166  LYS551  ARG553  GLY616  TRP617  ASP618  TYR619  PRO620  LYS621  CYS622 
 ASP623  PHE694  ASN695  SER759  ASP760  ASP761  ALA762  ILE779  LEU786  VAL792 
 PHE793  MET794  SER795  GLU796  ALA797  LYS798  CYS799  TRP800  GLU811  SER814 

> <Gold.Protein.RotatedAtoms>
  151.0800  133.5397  159.2621 H   0  0  0  0  0  0  0  0  0  0  0  0  # atno 6907 bound_to 6896
  151.2304  135.0551  159.8995 H   0  0  0  0  0  0  0  0  0  0  0  0  # atno 6908 bound_to 6896
  152.5422  134.0590  159.8197 H   0  0  0  0  0  0  0  0  0  0  0  0  # atno 6909 bound_to 6896
  145.5445  140.9505  143.1533 H   0  0  0  0  0  0  0  0  0  0  0  0  # atno 7974 bound_to 7965
  156.2935  140.2268  156.4853 H   0  0  0  0  0  0  0  0  0  0  0  0  # atno 8008 bound_to 7997
  154.7817  140.0460  157.1154 H   0  0  0  0  0  0  0  0  0  0  0  0  # atno 8009 bound_to 7997
  154.9750  140.3071  155.4974 H   0  0  0  0  0  0  0  0  0  0  0  0  # atno 8010 bound_to 7997
  140.6042  143.2369  151.5859 H   0  0  0  0  0  0  0  0  0  0  0  0  # atno 10167 bound_to 10162
  157.5465  130.8735  149.8899 H   0  0  0  0  0  0  0  0  0  0  0  0  # atno 10718 bound_to 10713
  153.1110  135.6696  153.9500 H   0  0  0  0  0  0  0  0  0  0  0  0  # atno 10763 bound_to 10752
  153.9043  135.3032  155.3450 H   0  0  0  0  0  0  0  0  0  0  0  0  # atno 10764 bound_to 10752
  154.7530  135.5025  153.9400 H   0  0  0  0  0  0  0  0  0  0  0  0  # atno 10765 bound_to 10752
  140.5040  134.5866  157.4997 H   0  0  0  0  0  0  0  0  0  0  0  0  # atno 11005 bound_to 11000
  144.7560  139.7073  143.7254 LP  0  0  0  0  0  0  0  0  0  0  0  0  # atno 17320 bound_to 7965
  146.1958  139.5224  142.9775 LP  0  0  0  0  0  0  0  0  0  0  0  0  # atno 17321 bound_to 7965
  139.5313  144.2908  152.1153 LP  0  0  0  0  0  0  0  0  0  0  0  0  # atno 17342 bound_to 10162
  140.2095  144.4577  150.6392 LP  0  0  0  0  0  0  0  0  0  0  0  0  # atno 17343 bound_to 10162
  156.0540  130.3712  150.1134 LP  0  0  0  0  0  0  0  0  0  0  0  0  # atno 17370 bound_to 10713
  156.9310  130.9714  151.3533 LP  0  0  0  0  0  0  0  0  0  0  0  0  # atno 17371 bound_to 10713
  139.9697  134.7314  156.0067 LP  0  0  0  0  0  0  0  0  0  0  0  0  # atno 17394 bound_to 11000
  141.1420  133.6563  156.3759 LP  0  0  0  0  0  0  0  0  0  0  0  0  # atno 17395 bound_to 11000

$$$$
