AV-unprocessed.smi:2923|AV-procd|sdf|11204|dock5
  -GOLD-   2272016 93D 1   1.00000     0.00000
 Structure written by MMmdl.
 47 49  0  0  0  0  0  0  0  0  2 V2000
  147.5229  128.0532  153.8897 C   0  0  0  0  0  0  0  0  0  0  0  0
  146.7618  129.1749  153.3553 N   0  0  0  0  0  0  0  0  0  0  0  0
  145.5336  128.9406  152.6037 C   0  0  0  0  0  0  0  0  0  0  0  0
  147.2451  130.4915  153.5164 C   0  0  0  0  0  0  0  0  0  0  0  0
  146.5444  131.6363  153.0638 C   0  0  0  0  0  0  0  0  0  0  0  0
  147.0940  132.9193  153.2626 C   0  0  0  0  0  0  0  0  0  0  0  0
  148.3345  133.0585  153.9189 C   0  0  0  0  0  0  0  0  0  0  0  0
  148.8547  134.3709  154.0830 N   0  0  0  0  0  0  0  0  0  0  0  0
  149.6831  134.8293  155.0371 C   0  0  0  0  0  0  0  0  0  0  0  0
  150.1045  134.1739  155.9896 O   0  0  0  0  0  0  0  0  0  0  0  0
  149.9953  136.1157  154.8319 N   0  0  0  0  0  0  0  0  0  0  0  0
  150.8782  136.8958  155.6934 C   0  0  2  0  0  0  0  0  0  0  0  0
  150.1679  137.4054  156.9571 C   0  0  1  0  0  0  0  0  0  0  0  0
  150.5982  136.9092  158.3110 C   0  0  0  0  0  0  0  0  0  0  0  0
  151.5710  137.9951  158.7796 C   0  0  0  0  0  0  0  0  0  0  0  0
  152.0034  138.6324  157.5799 O   0  0  0  0  0  0  0  0  0  0  0  0
  150.8740  138.7310  156.7156 C   0  0  1  0  0  0  0  0  0  0  0  0
  151.1022  138.3601  155.2350 C   0  0  0  0  0  0  0  0  0  0  0  0
  152.4853  138.6850  154.6686 C   0  0  0  0  0  0  0  0  0  0  0  0
  150.0745  138.9682  154.2695 C   0  0  0  0  0  0  0  0  0  0  0  0
  149.0018  131.8846  154.3424 C   0  0  0  0  0  0  0  0  0  0  0  0
  148.4398  130.6751  154.1297 N   0  3  0  0  0  0  0  0  0  0  0  0
  148.5148  128.0129  153.4382 H   0  0  0  0  0  0  0  0  0  0  0  0
  147.0257  127.1045  153.6873 H   0  0  0  0  0  0  0  0  0  0  0  0
  147.6345  128.1459  154.9705 H   0  0  0  0  0  0  0  0  0  0  0  0
  144.6930  129.4519  153.0745 H   0  0  0  0  0  0  0  0  0  0  0  0
  145.2935  127.8782  152.5562 H   0  0  0  0  0  0  0  0  0  0  0  0
  145.6346  129.3062  151.5811 H   0  0  0  0  0  0  0  0  0  0  0  0
  145.5908  131.5531  152.5641 H   0  0  0  0  0  0  0  0  0  0  0  0
  146.5590  133.7912  152.9147 H   0  0  0  0  0  0  0  0  0  0  0  0
  148.5334  135.0523  153.4109 H   0  0  0  0  0  0  0  0  0  0  0  0
  149.6045  136.5865  154.0291 H   0  0  0  0  0  0  0  0  0  0  0  0
  151.8162  136.3904  155.9346 H   0  0  0  0  0  0  0  0  0  0  0  0
  149.0881  137.4984  156.8267 H   0  0  0  0  0  0  0  0  0  0  0  0
  149.7628  136.7940  159.0019 H   0  0  0  0  0  0  0  0  0  0  0  0
  151.1018  135.9454  158.2302 H   0  0  0  0  0  0  0  0  0  0  0  0
  151.0563  138.7271  159.4039 H   0  0  0  0  0  0  0  0  0  0  0  0
  152.4112  137.5934  159.3464 H   0  0  0  0  0  0  0  0  0  0  0  0
  150.2529  139.6079  156.9043 H   0  0  0  0  0  0  0  0  0  0  0  0
  152.6557  139.7609  154.6211 H   0  0  0  0  0  0  0  0  0  0  0  0
  152.6090  138.2848  153.6618 H   0  0  0  0  0  0  0  0  0  0  0  0
  153.2807  138.2590  155.2806 H   0  0  0  0  0  0  0  0  0  0  0  0
  150.1955  140.0488  154.1891 H   0  0  0  0  0  0  0  0  0  0  0  0
  149.0515  138.7860  154.5998 H   0  0  0  0  0  0  0  0  0  0  0  0
  150.1703  138.5546  153.2651 H   0  0  0  0  0  0  0  0  0  0  0  0
  149.9642  131.8551  154.8304 H   0  0  0  0  0  0  0  0  0  0  0  0
  148.9481  129.8502  154.4489 H   0  0  0  0  0  0  0  0  0  0  0  0
  1  2  1  0  0  0  0
  1 23  1  0  0  0  0
  1 24  1  0  0  0  0
  1 25  1  0  0  0  0
  2  3  1  0  0  0  0
  2  4  1  0  0  0  0
  3 26  1  0  0  0  0
  3 27  1  0  0  0  0
  3 28  1  0  0  0  0
  4 22  1  0  0  0  0
  4  5  2  0  0  0  0
  5  6  1  0  0  0  0
  5 29  1  0  0  0  0
  6  7  2  0  0  0  0
  6 30  1  0  0  0  0
  7  8  1  0  0  0  0
  7 21  1  0  0  0  0
  8  9  1  0  0  0  0
  8 31  1  0  0  0  0
  9 10  2  0  0  0  0
  9 11  1  0  0  0  0
 11 12  1  0  0  0  0
 11 32  1  0  0  0  0
 12 18  1  0  0  0  0
 12 13  1  0  0  0  0
 12 33  1  0  0  0  0
 13 17  1  0  0  0  0
 13 14  1  0  0  0  0
 13 34  1  0  0  0  0
 14 15  1  0  0  0  0
 14 35  1  0  0  0  0
 14 36  1  0  0  0  0
 15 16  1  0  0  0  0
 15 37  1  0  0  0  0
 15 38  1  0  0  0  0
 16 17  1  0  0  0  0
 17 18  1  0  0  0  0
 17 39  1  0  0  0  0
 18 19  1  0  0  0  0
 18 20  1  0  0  0  0
 19 40  1  0  0  0  0
 19 41  1  0  0  0  0
 19 42  1  0  0  0  0
 20 43  1  0  0  0  0
 20 44  1  0  0  0  0
 20 45  1  0  0  0  0
 21 22  2  0  0  0  0
 21 46  1  0  0  0  0
 22 47  1  0  0  0  0
M  CHG  1  22   1
M  END
> <s_m_source_file>
AV-unprocessed.smi

> <i_m_source_file_index>
2923

> <i_lp_mmshare_version>
43012

> <i_f3d_flags>
0

> <s_epik_input>
W0NIM11OKFtDSDNdKWMxW2NIXVtjSF1jKFtjSF1uMSlbTkhdQyg9TylbTkhdW0NASF0yQyhbQ0gzXSkoW0NIM10pW0NAQEhdKFtDQEhdMjMpT1tDSDJdW0NIMl0z

> <s_epik_cmdline>
J2VwaWtfcHl0aG9uJywgJy1waCcsICc3LjAnLCAnLXRuJywgJzgnLCAnLW1hJywgJzIwMCcsICctbWV0YWxfYmluZGluZycsICctaW1hZScsICc8aW5maWxlLm1hZT4nLCAnLW9tYWUnLCAnPG91dGZpbGUubWFlPic=

> <r_lp_tautomer_probability>
0.999994

> <r_epik_Ionization_Penalty>
0.252205

> <r_epik_Ionization_Penalty_Charging>
0.252185

> <r_epik_Ionization_Penalty_Neutral>
1.99479e-05

> <r_epik_State_Penalty>
0.243573

> <r_epik_Charging_Adjusted_Penalty>
0.495758

> <i_epik_Tot_Q>
1

> <i_epik_Tot_abs_Q>
1

> <r_epik_Metal_State_Penalty>
0.534372

> <b_epik_Metal_Only>
0

> <s_lp_Force_Field>
OPLS_2005

> <r_lp_Energy>
44.365

> <b_lp_Chiralities_Consistent>
1

> <s_lp_Variant>
AV-unprocessed.smi:2923-3

> <Gold.Version>
5.8.1

> <Gold.Id.Protein>
6NUR|6NUR_protein|mol2

> <Gold.PLP.Fitness>
39.9388

> <Gold.PLP.PLP>
-35.3241

> <Gold.PLP.part.hbond>
-2.0975

> <Gold.PLP.part.metal>
0.0000

> <Gold.PLP.part.buried>
-3.3588

> <Gold.PLP.part.nonpolar>
-29.5652

> <Gold.PLP.part.repulsive>
0.0938

> <Gold.PLP.ligand.clash>
0.0000

> <Gold.PLP.ligand.torsion>
0.3143

> <Gold.PLP.Chemscore.Hbond>
1.6880

> <Gold.PLP.Chemscore.CHOScore>
0.0000

> <Gold.PLP.Chemscore.Metal>
0.0000

> <Gold.Chemscore.Hbonds>
donor molecule, donor type, donor heavy atom, donor atom, acceptor molecule, acceptor atom, score
      L1  H     8    31       P1  7948  0.94
      L1  H    11    32       P1  7948  0.35

> <Gold.PLP.Chemscore.Internal.Correction>
0.1793

> <Gold.Rescore>
     Score         DG    S(hbond)    S(metal)    S(lipo)     H(rot)  DE(clash)    DE(int)     intcor
     14.79     -16.42       1.36        0.00      76.62       1.00       0.15       1.48       ----

> <Gold.Chemscore.Fitness>
14.7873

> <Gold.Chemscore.DG>
-16.4227

> <Gold.Chemscore.ZeroCoef>
-5.4800

> <Gold.Chemscore.Hbond>
1.3588

> <Gold.Chemscore.Metal>
0.0000

> <Gold.Chemscore.Lipo>
76.6167

> <Gold.Chemscore.Internal_Hbond>
0.0000

> <Gold.Chemscore.DEClash>
0.1548

> <Gold.Chemscore.DEInternal>
1.4806

> <Gold.Chemscore.Rot>
1.0000

> <Gold.Chemscore.Internal.Correction>
   9.000000E+99

> <Gold.Chemscore.Hbonds>
donor molecule, donor type, donor heavy atom, donor atom, acceptor molecule, acceptor atom, score
      L1  H     8    31       P1  7948  0.73
      L1  H    11    32       P1  7948  0.26

> <Gold.Chemscore.Hbond.Weighted>
-4.5385

> <Gold.Chemscore.Metal.Weighted>
-0.0000

> <Gold.Chemscore.Lipo.Weighted>
-8.9642

> <Gold.Chemscore.Internal_Hbond.Weighted>
0.0000

> <Gold.Chemscore.DEClash.Weighted>
0.1548

> <Gold.Chemscore.DEInternal.Weighted>
1.4806

> <Gold.Chemscore.Rot.Weighted>
2.5600

> <Gold.Chemscore.Internal.Correction.Weighted>
   9.000000E+99

> <Gold.Protein.RotatedTorsions>
[ 6907 6896 6895 6894 ] final    6.63 input  -60.11 | X-H torsion
[ 7974 7965 7964 7962 ] final -111.19 input  175.53 | X-H torsion
[ 8008 7997 7996 7995 ] final  -30.04 input   59.86 | X-H torsion
[ 10167 10162 10161 10158 ] final  144.68 input  -65.29 | X-H torsion
[ 10718 10713 10712 10709 ] final  151.01 input   66.30 | X-H torsion
[ 10763 10752 10751 10750 ] final  -38.90 input  -60.55 | X-H torsion
[ 11005 11000 10999 10996 ] final  134.18 input  -57.11 | X-H torsion

> <Gold.Protein.ActiveResidues>
 VAL166  LYS551  ARG553  GLY616  TRP617  ASP618  TYR619  PRO620  LYS621  CYS622 
 ASP623  PHE694  ASN695  SER759  ASP760  ASP761  ALA762  ILE779  LEU786  VAL792 
 PHE793  MET794  SER795  GLU796  ALA797  LYS798  CYS799  TRP800  GLU811  SER814 

> <Gold.Protein.RotatedAtoms>
  151.6769  135.0968  160.0208 H   0  0  0  0  0  0  0  0  0  0  0  0  # atno 6907 bound_to 6896
  152.3858  133.6605  159.6206 H   0  0  0  0  0  0  0  0  0  0  0  0  # atno 6908 bound_to 6896
  150.7784  133.8953  159.3366 H   0  0  0  0  0  0  0  0  0  0  0  0  # atno 6909 bound_to 6896
  145.1591  140.8869  143.3601 H   0  0  0  0  0  0  0  0  0  0  0  0  # atno 7974 bound_to 7965
  154.4266  140.1802  156.1344 H   0  0  0  0  0  0  0  0  0  0  0  0  # atno 8008 bound_to 7997
  156.0042  140.3357  155.6851 H   0  0  0  0  0  0  0  0  0  0  0  0  # atno 8009 bound_to 7997
  155.6201  140.0659  157.2671 H   0  0  0  0  0  0  0  0  0  0  0  0  # atno 8010 bound_to 7997
  139.4942  144.5955  151.6592 H   0  0  0  0  0  0  0  0  0  0  0  0  # atno 10167 bound_to 10162
  157.2761  131.0826  151.1565 H   0  0  0  0  0  0  0  0  0  0  0  0  # atno 10718 bound_to 10713
  153.9205  135.6783  153.4748 H   0  0  0  0  0  0  0  0  0  0  0  0  # atno 10763 bound_to 10752
  153.1031  135.4818  154.8900 H   0  0  0  0  0  0  0  0  0  0  0  0  # atno 10764 bound_to 10752
  154.7480  135.3177  154.8565 H   0  0  0  0  0  0  0  0  0  0  0  0  # atno 10765 bound_to 10752
  139.9898  134.9519  156.9830 H   0  0  0  0  0  0  0  0  0  0  0  0  # atno 11005 bound_to 11000
  145.0350  139.3308  143.6005 LP  0  0  0  0  0  0  0  0  0  0  0  0  # atno 17320 bound_to 7965
  146.3485  139.9701  142.8707 LP  0  0  0  0  0  0  0  0  0  0  0  0  # atno 17321 bound_to 7965
  140.5592  144.0298  150.6161 LP  0  0  0  0  0  0  0  0  0  0  0  0  # atno 17342 bound_to 10162
  140.3378  143.3038  152.0620 LP  0  0  0  0  0  0  0  0  0  0  0  0  # atno 17343 bound_to 10162
  157.3017  130.6846  149.6168 LP  0  0  0  0  0  0  0  0  0  0  0  0  # atno 17370 bound_to 10713
  155.9664  130.4390  150.5240 LP  0  0  0  0  0  0  0  0  0  0  0  0  # atno 17371 bound_to 10713
  140.4930  134.1174  155.7236 LP  0  0  0  0  0  0  0  0  0  0  0  0  # atno 17394 bound_to 11000
  141.1556  133.8888  157.1985 LP  0  0  0  0  0  0  0  0  0  0  0  0  # atno 17395 bound_to 11000

$$$$
