AV-unprocessed.smi:1771|AV-procd|sdf|7157|dock2
  -GOLD-   22720 8393D 1   1.00000     0.00000
 Structure written by MMmdl.
 31 32  0  0  0  0  0  0  0  0  1 V2000
  145.0265  137.8940  152.4650 O   0  0  0  0  0  0  0  0  0  0  0  0
  146.1489  137.4185  152.2908 C   0  0  0  0  0  0  0  0  0  0  0  0
  147.2828  138.0700  152.5849 N   0  0  0  0  0  0  0  0  0  0  0  0
  147.3528  139.4119  153.1545 C   0  0  0  0  0  0  0  0  0  0  0  0
  148.2578  139.4684  154.4009 C   0  0  2  0  0  0  0  0  0  0  0  0
  148.6063  140.9129  154.8089 C   0  0  0  0  0  0  0  0  0  0  0  0
  149.7110  140.8668  155.8687 C   0  0  0  0  0  0  0  0  0  0  0  0
  150.7645  139.4393  155.4163 S   0  0  0  0  0  0  0  0  0  0  0  0
  151.9402  139.9150  154.6717 O   0  0  0  0  0  0  0  0  0  0  0  0
  150.9132  138.5617  156.5870 O   0  0  0  0  0  0  0  0  0  0  0  0
  149.5769  138.6933  154.2352 C   0  0  0  0  0  0  0  0  0  0  0  0
  146.4022  136.1972  151.7923 N   0  0  0  0  0  0  0  0  0  0  0  0
  145.4578  135.2246  151.3763 C   0  0  0  0  0  0  0  0  0  0  0  0
  145.7058  133.8258  151.3247 C   0  0  0  0  0  0  0  0  0  0  0  0
  144.6413  133.1611  150.8985 N   0  0  0  0  0  0  0  0  0  0  0  0
  143.7159  134.1221  150.6782 N   0  0  0  0  0  0  0  0  0  0  0  0
  144.1683  135.3932  150.9557 C   0  0  0  0  0  0  0  0  0  0  0  0
  142.7900  133.8973  150.3427 H   0  0  0  0  0  0  0  0  0  0  0  0
  148.1606  137.6038  152.4085 H   0  0  0  0  0  0  0  0  0  0  0  0
  147.7339  140.0839  152.3850 H   0  0  0  0  0  0  0  0  0  0  0  0
  146.3486  139.7632  153.3984 H   0  0  0  0  0  0  0  0  0  0  0  0
  147.7225  139.0244  155.2417 H   0  0  0  0  0  0  0  0  0  0  0  0
  148.9774  141.4536  153.9372 H   0  0  0  0  0  0  0  0  0  0  0  0
  147.7309  141.4531  155.1705 H   0  0  0  0  0  0  0  0  0  0  0  0
  150.3055  141.7793  155.9099 H   0  0  0  0  0  0  0  0  0  0  0  0
  149.2908  140.6766  156.8567 H   0  0  0  0  0  0  0  0  0  0  0  0
  149.4691  137.6270  154.4358 H   0  0  0  0  0  0  0  0  0  0  0  0
  149.9841  138.8180  153.2315 H   0  0  0  0  0  0  0  0  0  0  0  0
  147.3726  135.9336  151.7023 H   0  0  0  0  0  0  0  0  0  0  0  0
  146.6040  133.2819  151.5775 H   0  0  0  0  0  0  0  0  0  0  0  0
  143.5470  136.2677  150.8309 H   0  0  0  0  0  0  0  0  0  0  0  0
  1  2  2  0  0  0  0
  2  3  1  0  0  0  0
  2 12  1  0  0  0  0
  3  4  1  0  0  0  0
  3 19  1  0  0  0  0
  4  5  1  0  0  0  0
  4 20  1  0  0  0  0
  4 21  1  0  0  0  0
  5 11  1  0  0  0  0
  5  6  1  0  0  0  0
  5 22  1  0  0  0  0
  6  7  1  0  0  0  0
  6 23  1  0  0  0  0
  6 24  1  0  0  0  0
  7  8  1  0  0  0  0
  7 25  1  0  0  0  0
  7 26  1  0  0  0  0
  8  9  2  0  0  0  0
  8 10  2  0  0  0  0
  8 11  1  0  0  0  0
 11 27  1  0  0  0  0
 11 28  1  0  0  0  0
 12 13  1  0  0  0  0
 12 29  1  0  0  0  0
 13 17  2  0  0  0  0
 13 14  1  0  0  0  0
 14 15  2  0  0  0  0
 14 30  1  0  0  0  0
 15 16  1  0  0  0  0
 16 18  1  0  0  0  0
 16 17  1  0  0  0  0
 17 31  1  0  0  0  0
M  END
> <s_m_source_file>
AV-unprocessed.smi

> <i_m_source_file_index>
1771

> <i_lp_mmshare_version>
43012

> <i_f3d_flags>
0

> <s_epik_input>
W2NIXTFbbkhdbltjSF1jMVtOSF1DKD1PKVtOSF1bQ0gyXVtDQEBIXShbQ0gyXTIpW0NIMl1bQ0gyXVMyKD1PKT1P

> <s_epik_cmdline>
J2VwaWtfcHl0aG9uJywgJy1waCcsICc3LjAnLCAnLXRuJywgJzgnLCAnLW1hJywgJzIwMCcsICctbWV0YWxfYmluZGluZycsICctaW1hZScsICc8aW5maWxlLm1hZT4nLCAnLW9tYWUnLCAnPG91dGZpbGUubWFlPic=

> <r_lp_tautomer_probability>
1

> <r_epik_Ionization_Penalty>
4.89708e-05

> <r_epik_Ionization_Penalty_Charging>
0

> <r_epik_Ionization_Penalty_Neutral>
4.89708e-05

> <r_epik_State_Penalty>
-0

> <r_epik_Charging_Adjusted_Penalty>
0

> <i_epik_Tot_Q>
0

> <i_epik_Tot_abs_Q>
0

> <r_epik_Metal_State_Penalty>
-0

> <b_epik_Metal_Only>
0

> <s_lp_Force_Field>
OPLS_2005

> <r_lp_Energy>
6.8857

> <b_lp_Chiralities_Consistent>
1

> <s_lp_Variant>
AV-unprocessed.smi:1771-1

> <Gold.Version>
5.8.1

> <Gold.Id.Protein>
6NUR|6NUR_protein|mol2

> <Gold.PLP.Fitness>
37.7651

> <Gold.PLP.PLP>
-23.6401

> <Gold.PLP.part.hbond>
-3.7250

> <Gold.PLP.part.metal>
0.0000

> <Gold.PLP.part.buried>
-3.4434

> <Gold.PLP.part.nonpolar>
-19.6177

> <Gold.PLP.part.repulsive>
3.1566

> <Gold.PLP.ligand.clash>
0.0000

> <Gold.PLP.ligand.torsion>
0.2733

> <Gold.PLP.Chemscore.Hbond>
3.8880

> <Gold.PLP.Chemscore.CHOScore>
1.0000

> <Gold.PLP.Chemscore.Metal>
0.0000

> <Gold.Chemscore.Hbonds>
donor molecule, donor type, donor heavy atom, donor atom, acceptor molecule, acceptor atom, score
      L1  H     3    19       P1  7948  0.98
      L1  H    12    29       P1  7948  1.00
      L1  H    16    18       P1 10186  1.00
      P1  H  7989  7998       L1     9  0.90
      L1  C    17    31       P1 10171  0.99

> <Gold.PLP.Chemscore.Internal.Correction>
0.0075

> <Gold.Rescore>
     Score         DG    S(hbond)    S(metal)    S(lipo)     H(rot)  DE(clash)    DE(int)     intcor
     18.33     -19.50       3.80        0.00      41.64       1.39       0.13       1.04       ----

> <Gold.Chemscore.Fitness>
18.3287

> <Gold.Chemscore.DG>
-19.4979

> <Gold.Chemscore.ZeroCoef>
-5.4800

> <Gold.Chemscore.Hbond>
3.8044

> <Gold.Chemscore.Metal>
0.0000

> <Gold.Chemscore.Lipo>
41.6365

> <Gold.Chemscore.Internal_Hbond>
0.0000

> <Gold.Chemscore.DEClash>
0.1310

> <Gold.Chemscore.DEInternal>
1.0382

> <Gold.Chemscore.Rot>
1.3908

> <Gold.Chemscore.Internal.Correction>
   9.000000E+99

> <Gold.Chemscore.Hbonds>
donor molecule, donor type, donor heavy atom, donor atom, acceptor molecule, acceptor atom, score
      L1  H     3    19       P1  7948  0.92
      L1  H    12    29       P1  7948  0.95
      L1  H    16    18       P1 10186  0.89
      P1  H  7989  7998       L1     9  0.77

> <Gold.Chemscore.Hbond.Weighted>
-12.7068

> <Gold.Chemscore.Metal.Weighted>
-0.0000

> <Gold.Chemscore.Lipo.Weighted>
-4.8715

> <Gold.Chemscore.Internal_Hbond.Weighted>
0.0000

> <Gold.Chemscore.DEClash.Weighted>
0.1310

> <Gold.Chemscore.DEInternal.Weighted>
1.0382

> <Gold.Chemscore.Rot.Weighted>
3.5603

> <Gold.Chemscore.Internal.Correction.Weighted>
   9.000000E+99

> <Gold.Protein.RotatedTorsions>
[ 6907 6896 6895 6894 ] final -123.04 input  -60.11 | X-H torsion
[ 7974 7965 7964 7962 ] final  -12.86 input  175.53 | X-H torsion
[ 8008 7997 7996 7995 ] final  -75.13 input   59.86 | X-H torsion
[ 10167 10162 10161 10158 ] final   73.70 input  -65.29 | X-H torsion
[ 10718 10713 10712 10709 ] final   21.70 input   66.30 | X-H torsion
[ 10763 10752 10751 10750 ] final  143.80 input  -60.55 | X-H torsion
[ 11005 11000 10999 10996 ] final  -73.61 input  -57.11 | X-H torsion

> <Gold.Protein.ActiveResidues>
 VAL166  LYS551  ARG553  GLY616  TRP617  ASP618  TYR619  PRO620  LYS621  CYS622 
 ASP623  PHE694  ASN695  SER759  ASP760  ASP761  ALA762  ILE779  LEU786  VAL792 
 PHE793  MET794  SER795  GLU796  ALA797  LYS798  CYS799  TRP800  GLU811  SER814 

> <Gold.Protein.RotatedAtoms>
  150.8633  133.7612  159.2984 H   0  0  0  0  0  0  0  0  0  0  0  0  # atno 6907 bound_to 6896
  151.5247  135.1066  159.9897 H   0  0  0  0  0  0  0  0  0  0  0  0  # atno 6908 bound_to 6896
  152.4642  133.7843  159.6923 H   0  0  0  0  0  0  0  0  0  0  0  0  # atno 6909 bound_to 6896
  146.2136  140.3118  142.8383 H   0  0  0  0  0  0  0  0  0  0  0  0  # atno 7974 bound_to 7965
  154.5390  140.0749  156.8478 H   0  0  0  0  0  0  0  0  0  0  0  0  # atno 8008 bound_to 7997
  155.3218  140.3396  155.4223 H   0  0  0  0  0  0  0  0  0  0  0  0  # atno 8009 bound_to 7997
  156.1856  140.1668  156.8177 H   0  0  0  0  0  0  0  0  0  0  0  0  # atno 8010 bound_to 7997
  140.0216  144.5536  150.7577 H   0  0  0  0  0  0  0  0  0  0  0  0  # atno 10167 bound_to 10162
  157.1421  130.6637  149.5984 H   0  0  0  0  0  0  0  0  0  0  0  0  # atno 10718 bound_to 10713
  153.9784  135.2943  155.3422 H   0  0  0  0  0  0  0  0  0  0  0  0  # atno 10763 bound_to 10752
  154.7283  135.5079  153.8925 H   0  0  0  0  0  0  0  0  0  0  0  0  # atno 10764 bound_to 10752
  153.0866  135.6695  154.0050 H   0  0  0  0  0  0  0  0  0  0  0  0  # atno 10765 bound_to 10752
  141.1625  133.6884  156.7238 H   0  0  0  0  0  0  0  0  0  0  0  0  # atno 11005 bound_to 11000
  144.8982  140.7610  143.5883 LP  0  0  0  0  0  0  0  0  0  0  0  0  # atno 17320 bound_to 7965
  145.3043  139.1840  143.4673 LP  0  0  0  0  0  0  0  0  0  0  0  0  # atno 17321 bound_to 7965
  140.7340  143.2723  151.3848 LP  0  0  0  0  0  0  0  0  0  0  0  0  # atno 17342 bound_to 10162
  139.6136  144.1049  152.2323 LP  0  0  0  0  0  0  0  0  0  0  0  0  # atno 17343 bound_to 10162
  155.9786  130.4774  150.6668 LP  0  0  0  0  0  0  0  0  0  0  0  0  # atno 17370 bound_to 10713
  157.4298  131.0848  151.1050 LP  0  0  0  0  0  0  0  0  0  0  0  0  # atno 17371 bound_to 10713
  140.2796  134.8327  157.3921 LP  0  0  0  0  0  0  0  0  0  0  0  0  # atno 17394 bound_to 11000
  140.1446  134.4928  155.8006 LP  0  0  0  0  0  0  0  0  0  0  0  0  # atno 17395 bound_to 11000

$$$$
