AV-unprocessed.smi:2281|AV-procd|sdf|9194|dock5
  -GOLD-   2272012413D 1   1.00000     0.00000
 Structure written by MMmdl.
 40 41  0  0  0  0  0  0  0  0  1 V2000
  149.1379  136.9381  159.2472 C   0  0  0  0  0  0  0  0  0  0  0  0
  149.7757  138.1888  158.6690 C   0  0  0  0  0  0  0  0  0  0  0  0
  148.8941  139.2261  158.3538 N   0  0  0  0  0  0  0  0  0  0  0  0
  149.3506  140.3377  157.8776 C   0  0  0  0  0  0  0  0  0  0  0  0
  150.7264  140.5436  157.6646 N   0  0  0  0  0  0  0  0  0  0  0  0
  151.1365  141.8640  157.1390 C   0  0  0  0  0  0  0  0  0  0  0  0
  150.9269  143.0559  158.1225 C   0  0  2  0  0  0  0  0  0  0  0  0
  149.4208  143.2523  158.3977 C   0  0  0  0  0  0  0  0  0  0  0  0
  151.2648  144.2390  157.4200 O   0  0  0  0  0  0  0  0  0  0  0  0
  151.7165  142.9033  159.4318 C   0  0  0  0  0  0  0  0  0  0  0  0
  151.5753  143.8392  160.4838 C   0  0  0  0  0  0  0  0  0  0  0  0
  152.3272  143.7055  161.6658 C   0  0  0  0  0  0  0  0  0  0  0  0
  153.2305  142.6372  161.8128 C   0  0  0  0  0  0  0  0  0  0  0  0
  153.3874  141.6953  160.7739 C   0  0  0  0  0  0  0  0  0  0  0  0
  154.3674  140.5387  160.8994 C   0  0  0  0  0  0  0  0  0  0  0  0
  153.7516  139.3934  160.6060 F   0  0  0  0  0  0  0  0  0  0  0  0
  155.3716  140.7180  160.0418 F   0  0  0  0  0  0  0  0  0  0  0  0
  154.8702  140.4427  162.1307 F   0  0  0  0  0  0  0  0  0  0  0  0
  152.6322  141.8374  159.5912 C   0  0  0  0  0  0  0  0  0  0  0  0
  151.6470  139.5640  157.8999 C   0  0  0  0  0  0  0  0  0  0  0  0
  152.8438  139.7274  157.6563 O   0  0  0  0  0  0  0  0  0  0  0  0
  151.1151  138.3128  158.4634 C   0  0  0  0  0  0  0  0  0  0  0  0
  152.1242  137.2200  158.7941 C   0  0  0  0  0  0  0  0  0  0  0  0
  149.3495  136.0745  158.6160 H   0  0  0  0  0  0  0  0  0  0  0  0
  148.0544  137.0413  159.3188 H   0  0  0  0  0  0  0  0  0  0  0  0
  149.5221  136.7419  160.2484 H   0  0  0  0  0  0  0  0  0  0  0  0
  148.7021  141.1780  157.6239 H   0  0  0  0  0  0  0  0  0  0  0  0
  152.1688  141.8325  156.7840 H   0  0  0  0  0  0  0  0  0  0  0  0
  150.5648  142.0702  156.2318 H   0  0  0  0  0  0  0  0  0  0  0  0
  148.9706  142.3825  158.8752 H   0  0  0  0  0  0  0  0  0  0  0  0
  148.8665  143.4228  157.4734 H   0  0  0  0  0  0  0  0  0  0  0  0
  149.2451  144.1102  159.0485 H   0  0  0  0  0  0  0  0  0  0  0  0
  150.4985  144.5463  156.9603 H   0  0  0  0  0  0  0  0  0  0  0  0
  150.9001  144.6771  160.3939 H   0  0  0  0  0  0  0  0  0  0  0  0
  152.2132  144.4280  162.4605 H   0  0  0  0  0  0  0  0  0  0  0  0
  153.8026  142.5528  162.7248 H   0  0  0  0  0  0  0  0  0  0  0  0
  152.7784  141.1235  158.7949 H   0  0  0  0  0  0  0  0  0  0  0  0
  152.8384  137.5812  159.5348 H   0  0  0  0  0  0  0  0  0  0  0  0
  152.6788  136.9358  157.8991 H   0  0  0  0  0  0  0  0  0  0  0  0
  151.6653  136.3174  159.1946 H   0  0  0  0  0  0  0  0  0  0  0  0
  1  2  1  0  0  0  0
  1 24  1  0  0  0  0
  1 25  1  0  0  0  0
  1 26  1  0  0  0  0
  2 22  2  0  0  0  0
  2  3  1  0  0  0  0
  3  4  2  0  0  0  0
  4  5  1  0  0  0  0
  4 27  1  0  0  0  0
  5  6  1  0  0  0  0
  5 20  1  0  0  0  0
  6  7  1  0  0  0  0
  6 28  1  0  0  0  0
  6 29  1  0  0  0  0
  7  8  1  0  0  0  0
  7  9  1  0  0  0  0
  7 10  1  0  0  0  0
  8 30  1  0  0  0  0
  8 31  1  0  0  0  0
  8 32  1  0  0  0  0
  9 33  1  0  0  0  0
 10 19  1  0  0  0  0
 10 11  2  0  0  0  0
 11 12  1  0  0  0  0
 11 34  1  0  0  0  0
 12 13  2  0  0  0  0
 12 35  1  0  0  0  0
 13 14  1  0  0  0  0
 13 36  1  0  0  0  0
 14 15  1  0  0  0  0
 14 19  2  0  0  0  0
 15 16  1  0  0  0  0
 15 17  1  0  0  0  0
 15 18  1  0  0  0  0
 19 37  1  0  0  0  0
 20 21  2  0  0  0  0
 20 22  1  0  0  0  0
 22 23  1  0  0  0  0
 23 38  1  0  0  0  0
 23 39  1  0  0  0  0
 23 40  1  0  0  0  0
M  END
> <s_m_source_file>
AV-unprocessed.smi

> <i_m_source_file_index>
2281

> <i_lp_mmshare_version>
43012

> <i_f3d_flags>
0

> <s_epik_input>
W0NIM11jMW5bY0hdbihjKD1PKWMxW0NIM10pW0NIMl1bQ0BAXShbQ0gzXSkoW09IXSljMltjSF1bY0hdW2NIXWMoQyhGKShGKUYpW2NIXTI=

> <s_epik_cmdline>
J2VwaWtfcHl0aG9uJywgJy1waCcsICc3LjAnLCAnLXRuJywgJzgnLCAnLW1hJywgJzIwMCcsICctbWV0YWxfYmluZGluZycsICctaW1hZScsICc8aW5maWxlLm1hZT4nLCAnLW9tYWUnLCAnPG91dGZpbGUubWFlPic=

> <r_lp_tautomer_probability>
1

> <r_epik_Ionization_Penalty>
5.68222e-05

> <r_epik_Ionization_Penalty_Charging>
9.07816e-08

> <r_epik_Ionization_Penalty_Neutral>
5.67314e-05

> <r_epik_State_Penalty>
-0

> <r_epik_Charging_Adjusted_Penalty>
9.07816e-08

> <i_epik_Tot_Q>
0

> <i_epik_Tot_abs_Q>
0

> <r_epik_Metal_State_Penalty>
-0

> <b_epik_Metal_Only>
0

> <s_lp_Force_Field>
OPLS_2005

> <r_lp_Energy>
21.2776

> <b_lp_Chiralities_Consistent>
1

> <s_lp_Variant>
AV-unprocessed.smi:2281-2

> <Gold.Version>
5.8.1

> <Gold.Id.Protein>
6NUR|6NUR_protein|mol2

> <Gold.PLP.Fitness>
51.2123

> <Gold.PLP.PLP>
-46.9941

> <Gold.PLP.part.hbond>
-2.4981

> <Gold.PLP.part.metal>
0.0000

> <Gold.PLP.part.buried>
-4.8437

> <Gold.PLP.part.nonpolar>
-39.5326

> <Gold.PLP.part.repulsive>
0.0000

> <Gold.PLP.ligand.clash>
1.2778

> <Gold.PLP.ligand.torsion>
0.4036

> <Gold.PLP.Chemscore.Hbond>
2.0000

> <Gold.PLP.Chemscore.CHOScore>
0.0000

> <Gold.PLP.Chemscore.Metal>
0.0000

> <Gold.Chemscore.Hbonds>
donor molecule, donor type, donor heavy atom, donor atom, acceptor molecule, acceptor atom, score
      L1  H     9    33       P1  8028  0.96
      P1  H  7997  8009       L1    21  1.00

> <Gold.PLP.Chemscore.Internal.Correction>
0.3033

> <Gold.Rescore>
     Score         DG    S(hbond)    S(metal)    S(lipo)     H(rot)  DE(clash)    DE(int)     intcor
     17.07     -19.76       1.98        0.00     111.23       2.09       0.40       2.29       ----

> <Gold.Chemscore.Fitness>
17.0675

> <Gold.Chemscore.DG>
-19.7551

> <Gold.Chemscore.ZeroCoef>
-5.4800

> <Gold.Chemscore.Hbond>
1.9766

> <Gold.Chemscore.Metal>
0.0000

> <Gold.Chemscore.Lipo>
111.2253

> <Gold.Chemscore.Internal_Hbond>
0.0000

> <Gold.Chemscore.DEClash>
0.3984

> <Gold.Chemscore.DEInternal>
2.2891

> <Gold.Chemscore.Rot>
2.0860

> <Gold.Chemscore.Internal.Correction>
   9.000000E+99

> <Gold.Chemscore.Hbonds>
donor molecule, donor type, donor heavy atom, donor atom, acceptor molecule, acceptor atom, score
      L1  H     9    33       P1  8028  0.78
      P1  H  7997  8009       L1    21  0.97

> <Gold.Chemscore.Hbond.Weighted>
-6.6019

> <Gold.Chemscore.Metal.Weighted>
-0.0000

> <Gold.Chemscore.Lipo.Weighted>
-13.0134

> <Gold.Chemscore.Internal_Hbond.Weighted>
0.0000

> <Gold.Chemscore.DEClash.Weighted>
0.3984

> <Gold.Chemscore.DEInternal.Weighted>
2.2891

> <Gold.Chemscore.Rot.Weighted>
5.3402

> <Gold.Chemscore.Internal.Correction.Weighted>
   9.000000E+99

> <Gold.Protein.RotatedTorsions>
[ 6907 6896 6895 6894 ] final  164.69 input  -60.11 | X-H torsion
[ 7974 7965 7964 7962 ] final  107.27 input  175.53 | X-H torsion
[ 8008 7997 7996 7995 ] final  152.94 input   59.86 | X-H torsion
[ 10167 10162 10161 10158 ] final   13.72 input  -65.29 | X-H torsion
[ 10718 10713 10712 10709 ] final -147.95 input   66.30 | X-H torsion
[ 10763 10752 10751 10750 ] final -138.83 input  -60.55 | X-H torsion
[ 11005 11000 10999 10996 ] final  -85.24 input  -57.11 | X-H torsion

> <Gold.Protein.ActiveResidues>
 VAL166  LYS551  ARG553  GLY616  TRP617  ASP618  TYR619  PRO620  LYS621  CYS622 
 ASP623  PHE694  ASN695  SER759  ASP760  ASP761  ALA762  ILE779  LEU786  VAL792 
 PHE793  MET794  SER795  GLU796  ALA797  LYS798  CYS799  TRP800  GLU811  SER814 

> <Gold.Protein.RotatedAtoms>
  151.9060  133.3549  159.3846 H   0  0  0  0  0  0  0  0  0  0  0  0  # atno 6907 bound_to 6896
  150.7069  134.4780  159.5466 H   0  0  0  0  0  0  0  0  0  0  0  0  # atno 6908 bound_to 6896
  152.2378  134.8259  160.0515 H   0  0  0  0  0  0  0  0  0  0  0  0  # atno 6909 bound_to 6896
  145.2957  139.2585  143.3841 H   0  0  0  0  0  0  0  0  0  0  0  0  # atno 7974 bound_to 7965
  156.2605  140.2007  156.6413 H   0  0  0  0  0  0  0  0  0  0  0  0  # atno 8008 bound_to 7997
  154.6607  140.0561  157.0084 H   0  0  0  0  0  0  0  0  0  0  0  0  # atno 8009 bound_to 7997
  155.1280  140.3231  155.4484 H   0  0  0  0  0  0  0  0  0  0  0  0  # atno 8010 bound_to 7997
  140.5984  143.8655  150.6940 H   0  0  0  0  0  0  0  0  0  0  0  0  # atno 10167 bound_to 10162
  156.4141  130.7996  151.2215 H   0  0  0  0  0  0  0  0  0  0  0  0  # atno 10718 bound_to 10713
  154.8626  135.3600  154.5448 H   0  0  0  0  0  0  0  0  0  0  0  0  # atno 10763 bound_to 10752
  153.6068  135.7011  153.5367 H   0  0  0  0  0  0  0  0  0  0  0  0  # atno 10764 bound_to 10752
  153.3243  135.4142  155.1404 H   0  0  0  0  0  0  0  0  0  0  0  0  # atno 10765 bound_to 10752
  141.1643  133.7389  156.8986 H   0  0  0  0  0  0  0  0  0  0  0  0  # atno 11005 bound_to 11000
  146.3169  140.3459  142.8652 LP  0  0  0  0  0  0  0  0  0  0  0  0  # atno 17320 bound_to 7965
  144.9135  140.7785  143.5793 LP  0  0  0  0  0  0  0  0  0  0  0  0  # atno 17321 bound_to 7965
  140.2195  143.3820  152.1654 LP  0  0  0  0  0  0  0  0  0  0  0  0  # atno 17342 bound_to 10162
  139.5274  144.7118  151.5180 LP  0  0  0  0  0  0  0  0  0  0  0  0  # atno 17343 bound_to 10162
  157.7507  131.0248  150.3894 LP  0  0  0  0  0  0  0  0  0  0  0  0  # atno 17370 bound_to 10713
  156.4198  130.3950  149.6833 LP  0  0  0  0  0  0  0  0  0  0  0  0  # atno 17371 bound_to 10713
  140.1598  134.9173  157.2700 LP  0  0  0  0  0  0  0  0  0  0  0  0  # atno 17394 bound_to 11000
  140.2624  134.3555  155.7402 LP  0  0  0  0  0  0  0  0  0  0  0  0  # atno 17395 bound_to 11000

$$$$
