AV-unprocessed.smi:2340|AV-procd|sdf|9351|dock7
  -GOLD-   2272012573D 1   1.00000     0.00000
 Structure written by MMmdl.
 40 41  0  0  0  0  0  0  0  0  1 V2000
  145.7370  132.1047  149.4877 C   0  0  0  0  0  0  0  0  0  0  0  0
  145.3687  132.8881  150.7079 C   0  0  0  0  0  0  0  0  0  0  0  0
  144.1640  133.4893  150.9743 C   0  0  0  0  0  0  0  0  0  0  0  0
  144.1628  134.2811  152.5265 S   0  0  0  0  0  0  0  0  0  0  0  0
  145.8319  133.7675  152.7571 C   0  0  0  0  0  0  0  0  0  0  0  0
  146.6221  134.0328  154.0048 C   0  0  1  0  0  0  0  0  0  0  0  0
  148.1020  133.6569  153.8436 C   0  0  0  0  0  0  0  0  0  0  0  0
  146.4367  135.4721  154.5413 C   0  0  0  0  0  0  0  0  0  0  0  0
  147.3958  136.4202  153.9800 N   0  0  0  0  0  0  0  0  0  0  0  0
  147.5225  137.7003  154.3531 C   0  0  0  0  0  0  0  0  0  0  0  0
  146.9109  138.2098  155.2922 O   0  0  0  0  0  0  0  0  0  0  0  0
  148.3597  138.3672  153.5480 N   0  0  0  0  0  0  0  0  0  0  0  0
  148.5929  139.8067  153.5936 C   0  0  1  0  0  0  0  0  0  0  0  0
  147.3104  140.5901  153.3981 C   0  0  0  0  0  0  0  0  0  0  0  0
  147.6132  141.9129  154.1004 C   0  0  0  0  0  0  0  0  0  0  0  0
  148.6523  141.6473  155.0388 O   0  0  0  0  0  0  0  0  0  0  0  0
  149.0185  140.2735  154.9902 C   0  0  2  0  0  0  0  0  0  0  0  0
  150.5133  140.1111  155.2930 C   0  0  0  0  0  0  0  0  0  0  0  0
  146.3070  133.0596  151.7281 N   0  0  0  0  0  0  0  0  0  0  0  0
  144.8928  132.0095  148.8044 H   0  0  0  0  0  0  0  0  0  0  0  0
  146.0622  131.0977  149.7509 H   0  0  0  0  0  0  0  0  0  0  0  0
  146.5505  132.5840  148.9430 H   0  0  0  0  0  0  0  0  0  0  0  0
  143.2779  133.5088  150.3574 H   0  0  0  0  0  0  0  0  0  0  0  0
  146.2249  133.3601  154.7668 H   0  0  0  0  0  0  0  0  0  0  0  0
  148.2111  132.6131  153.5480 H   0  0  0  0  0  0  0  0  0  0  0  0
  148.6447  133.7935  154.7794 H   0  0  0  0  0  0  0  0  0  0  0  0
  148.5895  134.2711  153.0859 H   0  0  0  0  0  0  0  0  0  0  0  0
  145.4176  135.8207  154.3672 H   0  0  0  0  0  0  0  0  0  0  0  0
  146.5842  135.4776  155.6215 H   0  0  0  0  0  0  0  0  0  0  0  0
  147.9450  136.0985  153.1964 H   0  0  0  0  0  0  0  0  0  0  0  0
  148.8133  137.8563  152.8049 H   0  0  0  0  0  0  0  0  0  0  0  0
  149.3226  140.1229  152.8452 H   0  0  0  0  0  0  0  0  0  0  0  0
  147.0420  140.7177  152.3489 H   0  0  0  0  0  0  0  0  0  0  0  0
  146.4795  140.0936  153.9020 H   0  0  0  0  0  0  0  0  0  0  0  0
  147.9749  142.6534  153.3862 H   0  0  0  0  0  0  0  0  0  0  0  0
  146.7322  142.3232  154.5945 H   0  0  0  0  0  0  0  0  0  0  0  0
  148.4313  139.7530  155.7492 H   0  0  0  0  0  0  0  0  0  0  0  0
  150.8060  139.0612  155.2852 H   0  0  0  0  0  0  0  0  0  0  0  0
  150.7566  140.5128  156.2767 H   0  0  0  0  0  0  0  0  0  0  0  0
  151.1245  140.6350  154.5576 H   0  0  0  0  0  0  0  0  0  0  0  0
  1  2  1  0  0  0  0
  1 20  1  0  0  0  0
  1 21  1  0  0  0  0
  1 22  1  0  0  0  0
  2 19  1  0  0  0  0
  2  3  2  0  0  0  0
  3  4  1  0  0  0  0
  3 23  1  0  0  0  0
  4  5  1  0  0  0  0
  5  6  1  0  0  0  0
  5 19  2  0  0  0  0
  6  7  1  0  0  0  0
  6  8  1  0  0  0  0
  6 24  1  0  0  0  0
  7 25  1  0  0  0  0
  7 26  1  0  0  0  0
  7 27  1  0  0  0  0
  8  9  1  0  0  0  0
  8 28  1  0  0  0  0
  8 29  1  0  0  0  0
  9 10  1  0  0  0  0
  9 30  1  0  0  0  0
 10 11  2  0  0  0  0
 10 12  1  0  0  0  0
 12 13  1  0  0  0  0
 12 31  1  0  0  0  0
 13 17  1  0  0  0  0
 13 14  1  0  0  0  0
 13 32  1  0  0  0  0
 14 15  1  0  0  0  0
 14 33  1  0  0  0  0
 14 34  1  0  0  0  0
 15 16  1  0  0  0  0
 15 35  1  0  0  0  0
 15 36  1  0  0  0  0
 16 17  1  0  0  0  0
 17 18  1  0  0  0  0
 17 37  1  0  0  0  0
 18 38  1  0  0  0  0
 18 39  1  0  0  0  0
 18 40  1  0  0  0  0
M  END
> <s_m_source_file>
AV-unprocessed.smi

> <i_m_source_file_index>
2340

> <i_lp_mmshare_version>
43012

> <i_f3d_flags>
0

> <s_epik_input>
W0NIM11jMVtjSF1zYyhuMSlbQ0BIXShbQ0gzXSlbQ0gyXVtOSF1DKD1PKVtOSF1bQ0BASF0yW0NIMl1bQ0gyXU9bQ0BIXTJbQ0gzXQ==

> <s_epik_cmdline>
J2VwaWtfcHl0aG9uJywgJy1waCcsICc3LjAnLCAnLXRuJywgJzgnLCAnLW1hJywgJzIwMCcsICctbWV0YWxfYmluZGluZycsICctaW1hZScsICc8aW5maWxlLm1hZT4nLCAnLW9tYWUnLCAnPG91dGZpbGUubWFlPic=

> <r_epik_Ionization_Penalty>
0.00156622

> <r_epik_Ionization_Penalty_Charging>
0

> <r_epik_Ionization_Penalty_Neutral>
0.00156622

> <r_epik_State_Penalty>
0.00101902

> <r_epik_Charging_Adjusted_Penalty>
0.00101902

> <i_epik_Tot_Q>
0

> <i_epik_Tot_abs_Q>
0

> <r_epik_Metal_State_Penalty>
-0

> <b_epik_Metal_Only>
0

> <s_lp_Force_Field>
OPLS_2005

> <r_lp_Energy>
3.95119

> <b_lp_Chiralities_Consistent>
1

> <s_lp_Variant>
AV-unprocessed.smi:2340-8

> <Gold.Version>
5.8.1

> <Gold.Id.Protein>
6NUR|6NUR_protein|mol2

> <Gold.PLP.Fitness>
35.9182

> <Gold.PLP.PLP>
-28.1051

> <Gold.PLP.part.hbond>
-2.4527

> <Gold.PLP.part.metal>
0.0000

> <Gold.PLP.part.buried>
-1.7204

> <Gold.PLP.part.nonpolar>
-25.2278

> <Gold.PLP.part.repulsive>
0.3501

> <Gold.PLP.ligand.clash>
0.0000

> <Gold.PLP.ligand.torsion>
0.6599

> <Gold.PLP.Chemscore.Hbond>
2.0000

> <Gold.PLP.Chemscore.CHOScore>
1.0000

> <Gold.PLP.Chemscore.Metal>
0.0000

> <Gold.Chemscore.Hbonds>
donor molecule, donor type, donor heavy atom, donor atom, acceptor molecule, acceptor atom, score
      L1  H     9    30       P1  7948  1.00
      L1  H    12    31       P1  7948  0.98
      L1  C     3    23       P1 10186  0.89

> <Gold.PLP.Chemscore.Internal.Correction>
0.1329

> <Gold.Rescore>
     Score         DG    S(hbond)    S(metal)    S(lipo)     H(rot)  DE(clash)    DE(int)     intcor
     13.86     -16.97       1.95        0.00      76.15       1.53       1.33       1.77       ----

> <Gold.Chemscore.Fitness>
13.8624

> <Gold.Chemscore.DG>
-16.9687

> <Gold.Chemscore.ZeroCoef>
-5.4800

> <Gold.Chemscore.Hbond>
1.9470

> <Gold.Chemscore.Metal>
0.0000

> <Gold.Chemscore.Lipo>
76.1469

> <Gold.Chemscore.Internal_Hbond>
0.0000

> <Gold.Chemscore.DEClash>
1.3326

> <Gold.Chemscore.DEInternal>
1.7737

> <Gold.Chemscore.Rot>
1.5325

> <Gold.Chemscore.Internal.Correction>
   9.000000E+99

> <Gold.Chemscore.Hbonds>
donor molecule, donor type, donor heavy atom, donor atom, acceptor molecule, acceptor atom, score
      L1  H     9    30       P1  7948  0.99
      L1  H    12    31       P1  7948  0.93

> <Gold.Chemscore.Hbond.Weighted>
-6.5029

> <Gold.Chemscore.Metal.Weighted>
-0.0000

> <Gold.Chemscore.Lipo.Weighted>
-8.9092

> <Gold.Chemscore.Internal_Hbond.Weighted>
0.0000

> <Gold.Chemscore.DEClash.Weighted>
1.3326

> <Gold.Chemscore.DEInternal.Weighted>
1.7737

> <Gold.Chemscore.Rot.Weighted>
3.9233

> <Gold.Chemscore.Internal.Correction.Weighted>
   9.000000E+99

> <Gold.Protein.RotatedTorsions>
[ 6907 6896 6895 6894 ] final   31.33 input  -60.11 | X-H torsion
[ 7974 7965 7964 7962 ] final   15.44 input  175.53 | X-H torsion
[ 8008 7997 7996 7995 ] final  118.06 input   59.86 | X-H torsion
[ 10167 10162 10161 10158 ] final -113.14 input  -65.29 | X-H torsion
[ 10718 10713 10712 10709 ] final   -7.63 input   66.30 | X-H torsion
[ 10763 10752 10751 10750 ] final  -71.98 input  -60.55 | X-H torsion
[ 11005 11000 10999 10996 ] final   80.98 input  -57.11 | X-H torsion

> <Gold.Protein.ActiveResidues>
 VAL166  LYS551  ARG553  GLY616  TRP617  ASP618  TYR619  PRO620  LYS621  CYS622 
 ASP623  PHE694  ASN695  SER759  ASP760  ASP761  ALA762  ILE779  LEU786  VAL792 
 PHE793  MET794  SER795  GLU796  ALA797  LYS798  CYS799  TRP800  GLU811  SER814 

> <Gold.Protein.RotatedAtoms>
  152.0587  134.9608  160.0574 H   0  0  0  0  0  0  0  0  0  0  0  0  # atno 6907 bound_to 6896
  152.0980  133.4230  159.4582 H   0  0  0  0  0  0  0  0  0  0  0  0  # atno 6908 bound_to 6896
  150.6838  134.2713  159.4632 H   0  0  0  0  0  0  0  0  0  0  0  0  # atno 6909 bound_to 6896
  146.2278  139.8894  142.8557 H   0  0  0  0  0  0  0  0  0  0  0  0  # atno 7974 bound_to 7965
  156.2527  140.2883  156.0776 H   0  0  0  0  0  0  0  0  0  0  0  0  # atno 8008 bound_to 7997
  155.1602  140.0399  157.2858 H   0  0  0  0  0  0  0  0  0  0  0  0  # atno 8009 bound_to 7997
  154.6398  140.2519  155.7342 H   0  0  0  0  0  0  0  0  0  0  0  0  # atno 8010 bound_to 7997
  140.1151  143.4493  152.1727 H   0  0  0  0  0  0  0  0  0  0  0  0  # atno 10167 bound_to 10162
  156.7144  130.5131  149.5884 H   0  0  0  0  0  0  0  0  0  0  0  0  # atno 10718 bound_to 10713
  154.4394  135.5944  153.6119 H   0  0  0  0  0  0  0  0  0  0  0  0  # atno 10763 bound_to 10752
  152.9804  135.5994  154.3741 H   0  0  0  0  0  0  0  0  0  0  0  0  # atno 10764 bound_to 10752
  154.3589  135.2841  155.2309 H   0  0  0  0  0  0  0  0  0  0  0  0  # atno 10765 bound_to 10752
  139.9114  134.7962  156.1980 H   0  0  0  0  0  0  0  0  0  0  0  0  # atno 11005 bound_to 11000
  145.2432  141.0017  143.3923 LP  0  0  0  0  0  0  0  0  0  0  0  0  # atno 17320 bound_to 7965
  144.9434  139.4163  143.6437 LP  0  0  0  0  0  0  0  0  0  0  0  0  # atno 17321 bound_to 7965
  139.5598  144.7398  151.4187 LP  0  0  0  0  0  0  0  0  0  0  0  0  # atno 17342 bound_to 10162
  140.6904  143.7875  150.7246 LP  0  0  0  0  0  0  0  0  0  0  0  0  # atno 17343 bound_to 10162
  156.1638  130.6392  151.0753 LP  0  0  0  0  0  0  0  0  0  0  0  0  # atno 17370 bound_to 10713
  157.6923  131.0806  150.7071 LP  0  0  0  0  0  0  0  0  0  0  0  0  # atno 17371 bound_to 10713
  141.0542  133.6873  156.1829 LP  0  0  0  0  0  0  0  0  0  0  0  0  # atno 17394 bound_to 11000
  140.6763  134.4815  157.5588 LP  0  0  0  0  0  0  0  0  0  0  0  0  # atno 17395 bound_to 11000

$$$$
