AV-unprocessed.smi:2536|AV-procd|sdf|9979|dock3
  -GOLD-   2272014 23D 1   1.00000     0.00000
 Structure written by MMmdl.
 32 33  0  0  0  0  0  0  0  0  1 V2000
  152.4912  144.0480  161.9945 C   0  0  0  0  0  0  0  0  0  0  0  0
  151.9534  143.6676  160.6281 C   0  0  0  0  0  0  0  0  0  0  0  0
  150.8827  144.3810  160.0477 C   0  0  0  0  0  0  0  0  0  0  0  0
  150.3832  144.0599  158.8348 N   0  0  0  0  0  0  0  0  0  0  0  0
  150.9468  143.0304  158.1998 C   0  0  0  0  0  0  0  0  0  0  0  0
  150.4051  142.7285  156.9630 N   0  0  0  0  0  0  0  0  0  0  0  0
  150.8379  141.6346  156.1022 C   0  0  1  0  0  0  0  0  0  0  0  0
  151.0748  140.3415  156.9017 C   0  0  0  0  0  0  0  0  0  0  0  0
  151.4338  139.1989  155.9460 C   0  0  0  0  0  0  0  0  0  0  0  0
  150.3724  139.0714  154.8422 C   0  0  0  0  0  0  0  0  0  0  0  0
  150.2384  140.3100  154.1530 O   0  0  0  0  0  0  0  0  0  0  0  0
  149.8012  141.3733  154.9935 C   0  0  0  0  0  0  0  0  0  0  0  0
  151.9642  142.2869  158.6489 N   0  0  0  0  0  0  0  0  0  0  0  0
  152.4746  142.5968  159.8612 C   0  0  0  0  0  0  0  0  0  0  0  0
  153.6229  141.7198  160.3269 C   0  0  0  0  0  0  0  0  0  0  0  0
  151.9361  144.8865  162.4161 H   0  0  0  0  0  0  0  0  0  0  0  0
  153.5394  144.3397  161.9244 H   0  0  0  0  0  0  0  0  0  0  0  0
  152.4074  143.2078  162.6842 H   0  0  0  0  0  0  0  0  0  0  0  0
  150.4203  145.2133  160.5575 H   0  0  0  0  0  0  0  0  0  0  0  0
  149.5967  143.2612  156.6769 H   0  0  0  0  0  0  0  0  0  0  0  0
  151.7720  141.9271  155.6208 H   0  0  0  0  0  0  0  0  0  0  0  0
  151.8709  140.4761  157.6344 H   0  0  0  0  0  0  0  0  0  0  0  0
  150.1755  140.0792  157.4608 H   0  0  0  0  0  0  0  0  0  0  0  0
  152.4080  139.3912  155.4948 H   0  0  0  0  0  0  0  0  0  0  0  0
  151.5222  138.2615  156.4954 H   0  0  0  0  0  0  0  0  0  0  0  0
  150.6646  138.3010  154.1284 H   0  0  0  0  0  0  0  0  0  0  0  0
  149.4108  138.7698  155.2605 H   0  0  0  0  0  0  0  0  0  0  0  0
  148.8235  141.1345  155.4160 H   0  0  0  0  0  0  0  0  0  0  0  0
  149.6729  142.2663  154.3810 H   0  0  0  0  0  0  0  0  0  0  0  0
  154.0542  142.0528  161.2695 H   0  0  0  0  0  0  0  0  0  0  0  0
  154.4182  141.7168  159.5808 H   0  0  0  0  0  0  0  0  0  0  0  0
  153.2781  140.6940  160.4587 H   0  0  0  0  0  0  0  0  0  0  0  0
  1  2  1  0  0  0  0
  1 16  1  0  0  0  0
  1 17  1  0  0  0  0
  1 18  1  0  0  0  0
  2 14  1  0  0  0  0
  2  3  2  0  0  0  0
  3  4  1  0  0  0  0
  3 19  1  0  0  0  0
  4  5  2  0  0  0  0
  5  6  1  0  0  0  0
  5 13  1  0  0  0  0
  6  7  1  0  0  0  0
  6 20  1  0  0  0  0
  7 12  1  0  0  0  0
  7  8  1  0  0  0  0
  7 21  1  0  0  0  0
  8  9  1  0  0  0  0
  8 22  1  0  0  0  0
  8 23  1  0  0  0  0
  9 10  1  0  0  0  0
  9 24  1  0  0  0  0
  9 25  1  0  0  0  0
 10 11  1  0  0  0  0
 10 26  1  0  0  0  0
 10 27  1  0  0  0  0
 11 12  1  0  0  0  0
 12 28  1  0  0  0  0
 12 29  1  0  0  0  0
 13 14  2  0  0  0  0
 14 15  1  0  0  0  0
 15 30  1  0  0  0  0
 15 31  1  0  0  0  0
 15 32  1  0  0  0  0
M  END
> <s_m_source_file>
AV-unprocessed.smi

> <i_m_source_file_index>
2536

> <i_lp_mmshare_version>
43012

> <i_f3d_flags>
0

> <s_epik_input>
W0NIM11jMVtjSF1uYyhuYzFbQ0gzXSlbTkhdW0NAQEhdMltDSDJdW0NIMl1bQ0gyXU9bQ0gyXTI=

> <s_epik_cmdline>
J2VwaWtfcHl0aG9uJywgJy1waCcsICc3LjAnLCAnLXRuJywgJzgnLCAnLW1hJywgJzIwMCcsICctbWV0YWxfYmluZGluZycsICctaW1hZScsICc8aW5maWxlLm1hZT4nLCAnLW9tYWUnLCAnPG91dGZpbGUubWFlPic=

> <r_lp_tautomer_probability>
1

> <r_epik_Ionization_Penalty>
0.00982357

> <r_epik_Ionization_Penalty_Charging>
0

> <r_epik_Ionization_Penalty_Neutral>
0.00982357

> <r_epik_State_Penalty>
0.0064698

> <r_epik_Charging_Adjusted_Penalty>
0.0064698

> <i_epik_Tot_Q>
0

> <i_epik_Tot_abs_Q>
0

> <r_epik_Metal_State_Penalty>
-0

> <b_epik_Metal_Only>
0

> <s_lp_Force_Field>
OPLS_2005

> <r_lp_Energy>
1.83983

> <b_lp_Chiralities_Consistent>
1

> <s_lp_Variant>
AV-unprocessed.smi:2536-2

> <Gold.Version>
5.8.1

> <Gold.Id.Protein>
6NUR|6NUR_protein|mol2

> <Gold.PLP.Fitness>
39.5843

> <Gold.PLP.PLP>
-34.2705

> <Gold.PLP.part.hbond>
-2.0000

> <Gold.PLP.part.metal>
0.0000

> <Gold.PLP.part.buried>
-5.0022

> <Gold.PLP.part.nonpolar>
-27.4641

> <Gold.PLP.part.repulsive>
0.7080

> <Gold.PLP.ligand.clash>
0.0000

> <Gold.PLP.ligand.torsion>
0.2005

> <Gold.PLP.Chemscore.Hbond>
1.9040

> <Gold.PLP.Chemscore.CHOScore>
0.0000

> <Gold.PLP.Chemscore.Metal>
0.0000

> <Gold.Chemscore.Hbonds>
donor molecule, donor type, donor heavy atom, donor atom, acceptor molecule, acceptor atom, score
      L1  H     6    20       P1  8028  0.96
      P1  H  7989  7998       L1    11  0.93

> <Gold.PLP.Chemscore.Internal.Correction>
0.0029

> <Gold.Rescore>
     Score         DG    S(hbond)    S(metal)    S(lipo)     H(rot)  DE(clash)    DE(int)     intcor
     17.09     -18.76       1.65        0.00      88.37       1.00       0.14       1.53       ----

> <Gold.Chemscore.Fitness>
17.0870

> <Gold.Chemscore.DG>
-18.7626

> <Gold.Chemscore.ZeroCoef>
-5.4800

> <Gold.Chemscore.Hbond>
1.6478

> <Gold.Chemscore.Metal>
0.0000

> <Gold.Chemscore.Lipo>
88.3657

> <Gold.Chemscore.Internal_Hbond>
0.0000

> <Gold.Chemscore.DEClash>
0.1443

> <Gold.Chemscore.DEInternal>
1.5313

> <Gold.Chemscore.Rot>
1.0000

> <Gold.Chemscore.Internal.Correction>
   9.000000E+99

> <Gold.Chemscore.Hbonds>
donor molecule, donor type, donor heavy atom, donor atom, acceptor molecule, acceptor atom, score
      L1  H     6    20       P1  8028  0.92
      P1  H  7989  7998       L1    11  0.37

> <Gold.Chemscore.Hbond.Weighted>
-5.5038

> <Gold.Chemscore.Metal.Weighted>
-0.0000

> <Gold.Chemscore.Lipo.Weighted>
-10.3388

> <Gold.Chemscore.Internal_Hbond.Weighted>
0.0000

> <Gold.Chemscore.DEClash.Weighted>
0.1443

> <Gold.Chemscore.DEInternal.Weighted>
1.5313

> <Gold.Chemscore.Rot.Weighted>
2.5600

> <Gold.Chemscore.Internal.Correction.Weighted>
   9.000000E+99

> <Gold.Protein.RotatedTorsions>
[ 6907 6896 6895 6894 ] final  -27.02 input  -60.11 | X-H torsion
[ 7974 7965 7964 7962 ] final -126.30 input  175.53 | X-H torsion
[ 8008 7997 7996 7995 ] final   52.59 input   59.86 | X-H torsion
[ 10167 10162 10161 10158 ] final  162.76 input  -65.29 | X-H torsion
[ 10718 10713 10712 10709 ] final -174.54 input   66.30 | X-H torsion
[ 10763 10752 10751 10750 ] final  -28.84 input  -60.55 | X-H torsion
[ 11005 11000 10999 10996 ] final -173.16 input  -57.11 | X-H torsion

> <Gold.Protein.ActiveResidues>
 VAL166  LYS551  ARG553  GLY616  TRP617  ASP618  TYR619  PRO620  LYS621  CYS622 
 ASP623  PHE694  ASN695  SER759  ASP760  ASP761  ALA762  ILE779  LEU786  VAL792 
 PHE793  MET794  SER795  GLU796  ALA797  LYS798  CYS799  TRP800  GLU811  SER814 

> <Gold.Protein.RotatedAtoms>
  151.1527  135.0235  159.8675 H   0  0  0  0  0  0  0  0  0  0  0  0  # atno 6907 bound_to 6896
  152.5452  134.1370  159.8473 H   0  0  0  0  0  0  0  0  0  0  0  0  # atno 6908 bound_to 6896
  151.1457  133.4895  159.2628 H   0  0  0  0  0  0  0  0  0  0  0  0  # atno 6909 bound_to 6896
  144.9887  140.7711  143.4567 H   0  0  0  0  0  0  0  0  0  0  0  0  # atno 7974 bound_to 7965
  155.4544  140.3459  155.4305 H   0  0  0  0  0  0  0  0  0  0  0  0  # atno 8008 bound_to 7997
  156.1200  140.1484  156.9247 H   0  0  0  0  0  0  0  0  0  0  0  0  # atno 8009 bound_to 7997
  154.4817  140.0868  156.7371 H   0  0  0  0  0  0  0  0  0  0  0  0  # atno 8010 bound_to 7997
  139.4865  144.4406  151.8957 H   0  0  0  0  0  0  0  0  0  0  0  0  # atno 10167 bound_to 10162
  156.7865  130.9502  151.3120 H   0  0  0  0  0  0  0  0  0  0  0  0  # atno 10718 bound_to 10713
  153.7549  135.6923  153.4938 H   0  0  0  0  0  0  0  0  0  0  0  0  # atno 10763 bound_to 10752
  153.1978  135.4447  155.0228 H   0  0  0  0  0  0  0  0  0  0  0  0  # atno 10764 bound_to 10752
  154.8174  135.3405  154.7068 H   0  0  0  0  0  0  0  0  0  0  0  0  # atno 10765 bound_to 10752
  140.4888  134.6004  157.4947 H   0  0  0  0  0  0  0  0  0  0  0  0  # atno 11005 bound_to 11000
  145.2316  139.2112  143.5040 LP  0  0  0  0  0  0  0  0  0  0  0  0  # atno 17320 bound_to 7965
  146.3426  140.2194  142.8591 LP  0  0  0  0  0  0  0  0  0  0  0  0  # atno 17321 bound_to 7965
  140.3857  144.2679  150.5904 LP  0  0  0  0  0  0  0  0  0  0  0  0  # atno 17342 bound_to 10162
  140.5192  143.2270  151.8415 LP  0  0  0  0  0  0  0  0  0  0  0  0  # atno 17343 bound_to 10162
  157.6621  130.8975  149.9852 LP  0  0  0  0  0  0  0  0  0  0  0  0  # atno 17370 bound_to 10713
  156.1185  130.3647  149.9927 LP  0  0  0  0  0  0  0  0  0  0  0  0  # atno 17371 bound_to 10713
  139.9781  134.7181  155.9910 LP  0  0  0  0  0  0  0  0  0  0  0  0  # atno 17394 bound_to 11000
  141.1494  133.6551  156.3967 LP  0  0  0  0  0  0  0  0  0  0  0  0  # atno 17395 bound_to 11000

$$$$
