AV-unprocessed.smi:2021|AV-procd|sdf|8177|dock3
  -GOLD-   2272010423D 1   1.00000     0.00000
 Structure written by MMmdl.
 42 43  0  0  0  0  0  0  0  0  2 V2000
  145.8704  131.1418  151.4090 C   0  0  0  0  0  0  0  0  0  0  0  0
  144.8718  132.3107  151.3682 C   0  0  0  0  0  0  0  0  0  0  0  0
  143.8370  132.0921  150.2543 C   0  0  0  0  0  0  0  0  0  0  0  0
  145.5806  133.6714  151.1890 C   0  0  0  0  0  0  0  0  0  0  0  0
  144.6455  134.7843  150.8669 N   0  3  1  0  0  0  0  0  0  0  0  0
  143.5261  134.9138  151.8311 C   0  0  0  0  0  0  0  0  0  0  0  0
  143.9868  135.6070  153.1256 C   0  0  0  0  0  0  0  0  0  0  0  0
  144.5462  136.8744  152.8067 O   0  0  0  0  0  0  0  0  0  0  0  0
  145.6995  136.7760  151.9763 C   0  0  2  0  0  0  0  0  0  0  0  0
  146.2671  138.1881  151.7452 C   0  0  0  0  0  0  0  0  0  0  0  0
  147.5352  138.3851  152.4396 N   0  0  0  0  0  0  0  0  0  0  0  0
  147.7993  139.3786  153.3004 C   0  0  0  0  0  0  0  0  0  0  0  0
  146.9798  140.2438  153.6098 O   0  0  0  0  0  0  0  0  0  0  0  0
  149.0579  139.2956  153.7660 N   0  0  0  0  0  0  0  0  0  0  0  0
  149.7180  140.1593  154.6795 C   0  0  0  0  0  0  0  0  0  0  0  0
  151.0323  140.0987  154.9450 N   0  0  0  0  0  0  0  0  0  0  0  0
  151.4186  141.0549  155.8755 N   0  0  0  0  0  0  0  0  0  0  0  0
  150.3820  141.7979  156.2738 C   0  0  0  0  0  0  0  0  0  0  0  0
  148.8327  141.4037  155.5498 S   0  0  0  0  0  0  0  0  0  0  0  0
  145.2905  136.1049  150.6460 C   0  0  0  0  0  0  0  0  0  0  0  0
  146.4484  131.0807  150.4864 H   0  0  0  0  0  0  0  0  0  0  0  0
  145.3536  130.1904  151.5391 H   0  0  0  0  0  0  0  0  0  0  0  0
  146.5724  131.2434  152.2368 H   0  0  0  0  0  0  0  0  0  0  0  0
  144.3204  132.3123  152.3077 H   0  0  0  0  0  0  0  0  0  0  0  0
  144.3097  132.0653  149.2719 H   0  0  0  0  0  0  0  0  0  0  0  0
  143.0942  132.8902  150.2450 H   0  0  0  0  0  0  0  0  0  0  0  0
  143.3034  131.1511  150.3917 H   0  0  0  0  0  0  0  0  0  0  0  0
  146.1058  133.9019  152.1172 H   0  0  0  0  0  0  0  0  0  0  0  0
  146.3522  133.5985  150.4226 H   0  0  0  0  0  0  0  0  0  0  0  0
  142.7394  135.5090  151.3654 H   0  0  0  0  0  0  0  0  0  0  0  0
  143.0847  133.9400  152.0462 H   0  0  0  0  0  0  0  0  0  0  0  0
  143.1376  135.7567  153.7924 H   0  0  0  0  0  0  0  0  0  0  0  0
  144.7117  134.9979  153.6674 H   0  0  0  0  0  0  0  0  0  0  0  0
  146.4593  136.1762  152.4795 H   0  0  0  0  0  0  0  0  0  0  0  0
  146.4575  138.3361  150.6820 H   0  0  0  0  0  0  0  0  0  0  0  0
  145.5413  138.9500  152.0350 H   0  0  0  0  0  0  0  0  0  0  0  0
  148.2688  137.7202  152.2428 H   0  0  0  0  0  0  0  0  0  0  0  0
  149.6146  138.5287  153.4189 H   0  0  0  0  0  0  0  0  0  0  0  0
  150.5307  142.5839  156.9992 H   0  0  0  0  0  0  0  0  0  0  0  0
  146.1476  136.0179  149.9799 H   0  0  0  0  0  0  0  0  0  0  0  0
  144.5732  136.7436  150.1286 H   0  0  0  0  0  0  0  0  0  0  0  0
  144.2212  134.5206  149.9888 H   0  0  0  0  0  0  0  0  0  0  0  0
  1  2  1  0  0  0  0
  1 21  1  0  0  0  0
  1 22  1  0  0  0  0
  1 23  1  0  0  0  0
  2  3  1  0  0  0  0
  2  4  1  0  0  0  0
  2 24  1  0  0  0  0
  3 25  1  0  0  0  0
  3 26  1  0  0  0  0
  3 27  1  0  0  0  0
  4  5  1  0  0  0  0
  4 28  1  0  0  0  0
  4 29  1  0  0  0  0
  5 20  1  0  0  0  0
  5  6  1  0  0  0  0
  5 42  1  0  0  0  0
  6  7  1  0  0  0  0
  6 30  1  0  0  0  0
  6 31  1  0  0  0  0
  7  8  1  0  0  0  0
  7 32  1  0  0  0  0
  7 33  1  0  0  0  0
  8  9  1  0  0  0  0
  9 10  1  0  0  0  0
  9 20  1  0  0  0  0
  9 34  1  0  0  0  0
 10 11  1  0  0  0  0
 10 35  1  0  0  0  0
 10 36  1  0  0  0  0
 11 12  1  0  0  0  0
 11 37  1  0  0  0  0
 12 13  2  0  0  0  0
 12 14  1  0  0  0  0
 14 15  1  0  0  0  0
 14 38  1  0  0  0  0
 15 19  1  0  0  0  0
 15 16  2  0  0  0  0
 16 17  1  0  0  0  0
 17 18  2  0  0  0  0
 18 19  1  0  0  0  0
 18 39  1  0  0  0  0
 20 40  1  0  0  0  0
 20 41  1  0  0  0  0
M  CHG  1   5   1
M  END
> <s_m_source_file>
AV-unprocessed.smi

> <i_m_source_file_index>
2021

> <i_lp_mmshare_version>
43012

> <i_f3d_flags>
0

> <s_epik_input>
W0NIM11bQ0hdKFtDSDNdKVtDSDJdTjFbQ0gyXVtDSDJdT1tDQEhdKFtDSDJdMSlbQ0gyXVtOSF1DKD1PKVtOSF1jMm5uW2NIXXMy

> <s_epik_cmdline>
J2VwaWtfcHl0aG9uJywgJy1waCcsICc3LjAnLCAnLXRuJywgJzgnLCAnLW1hJywgJzIwMCcsICctbWV0YWxfYmluZGluZycsICctaW1hZScsICc8aW5maWxlLm1hZT4nLCAnLW9tYWUnLCAnPG91dGZpbGUubWFlPic=

> <r_lp_tautomer_probability>
1

> <r_epik_Ionization_Penalty>
0.102019

> <r_epik_Ionization_Penalty_Charging>
0.098413

> <r_epik_Ionization_Penalty_Neutral>
0.00360555

> <r_epik_State_Penalty>
0.0884988

> <r_epik_Charging_Adjusted_Penalty>
0.186912

> <i_epik_Tot_Q>
1

> <i_epik_Tot_abs_Q>
1

> <r_epik_Metal_State_Penalty>
0.454709

> <b_epik_Metal_Only>
0

> <s_lp_Force_Field>
OPLS_2005

> <r_lp_Energy>
19.4379

> <b_lp_Chiralities_Consistent>
1

> <s_lp_Variant>
AV-unprocessed.smi:2021-3

> <Gold.Version>
5.8.1

> <Gold.Id.Protein>
6NUR|6NUR_protein|mol2

> <Gold.PLP.Fitness>
38.8426

> <Gold.PLP.PLP>
-34.3678

> <Gold.PLP.part.hbond>
-4.6161

> <Gold.PLP.part.metal>
0.0000

> <Gold.PLP.part.buried>
-1.1744

> <Gold.PLP.part.nonpolar>
-29.8195

> <Gold.PLP.part.repulsive>
0.5780

> <Gold.PLP.ligand.clash>
0.0000

> <Gold.PLP.ligand.torsion>
0.8341

> <Gold.PLP.Chemscore.Hbond>
2.0000

> <Gold.PLP.Chemscore.CHOScore>
0.0000

> <Gold.PLP.Chemscore.Metal>
0.0000

> <Gold.Chemscore.Hbonds>
donor molecule, donor type, donor heavy atom, donor atom, acceptor molecule, acceptor atom, score
      L1  H    11    37       P1  7948  1.00
      P1  H  7989  7998       L1    16  0.90

> <Gold.PLP.Chemscore.Internal.Correction>
0.1429

> <Gold.Rescore>
     Score         DG    S(hbond)    S(metal)    S(lipo)     H(rot)  DE(clash)    DE(int)     intcor
     11.04     -14.98       1.63        0.00      75.87       1.88       1.90       2.04       ----

> <Gold.Chemscore.Fitness>
11.0367

> <Gold.Chemscore.DG>
-14.9781

> <Gold.Chemscore.ZeroCoef>
-5.4800

> <Gold.Chemscore.Hbond>
1.6280

> <Gold.Chemscore.Metal>
0.0000

> <Gold.Chemscore.Lipo>
75.8670

> <Gold.Chemscore.Internal_Hbond>
0.0000

> <Gold.Chemscore.DEClash>
1.9040

> <Gold.Chemscore.DEInternal>
2.0373

> <Gold.Chemscore.Rot>
1.8812

> <Gold.Chemscore.Internal.Correction>
   9.000000E+99

> <Gold.Chemscore.Hbonds>
donor molecule, donor type, donor heavy atom, donor atom, acceptor molecule, acceptor atom, score
      L1  H    11    37       P1  7948  0.99
      P1  H  7989  7998       L1    16  0.05

> <Gold.Chemscore.Hbond.Weighted>
-5.4375

> <Gold.Chemscore.Metal.Weighted>
-0.0000

> <Gold.Chemscore.Lipo.Weighted>
-8.8764

> <Gold.Chemscore.Internal_Hbond.Weighted>
0.0000

> <Gold.Chemscore.DEClash.Weighted>
1.9040

> <Gold.Chemscore.DEInternal.Weighted>
2.0373

> <Gold.Chemscore.Rot.Weighted>
4.8159

> <Gold.Chemscore.Internal.Correction.Weighted>
   9.000000E+99

> <Gold.Protein.RotatedTorsions>
[ 6907 6896 6895 6894 ] final  -32.31 input  -60.11 | X-H torsion
[ 7974 7965 7964 7962 ] final -172.66 input  175.53 | X-H torsion
[ 8008 7997 7996 7995 ] final   -9.20 input   59.86 | X-H torsion
[ 10167 10162 10161 10158 ] final -135.70 input  -65.29 | X-H torsion
[ 10718 10713 10712 10709 ] final -153.05 input   66.30 | X-H torsion
[ 10763 10752 10751 10750 ] final  129.55 input  -60.55 | X-H torsion
[ 11005 11000 10999 10996 ] final   99.92 input  -57.11 | X-H torsion

> <Gold.Protein.ActiveResidues>
 VAL166  LYS551  ARG553  GLY616  TRP617  ASP618  TYR619  PRO620  LYS621  CYS622 
 ASP623  PHE694  ASN695  SER759  ASP760  ASP761  ALA762  ILE779  LEU786  VAL792 
 PHE793  MET794  SER795  GLU796  ALA797  LYS798  CYS799  TRP800  GLU811  SER814 

> <Gold.Protein.RotatedAtoms>
  151.0805  134.9855  159.8353 H   0  0  0  0  0  0  0  0  0  0  0  0  # atno 6907 bound_to 6896
  152.5419  134.2188  159.8789 H   0  0  0  0  0  0  0  0  0  0  0  0  # atno 6908 bound_to 6896
  151.2218  133.4455  159.2634 H   0  0  0  0  0  0  0  0  0  0  0  0  # atno 6909 bound_to 6896
  144.7144  140.1739  143.6365 H   0  0  0  0  0  0  0  0  0  0  0  0  # atno 7974 bound_to 7965
  154.5669  140.2361  155.8250 H   0  0  0  0  0  0  0  0  0  0  0  0  # atno 8008 bound_to 7997
  156.2075  140.3035  155.9618 H   0  0  0  0  0  0  0  0  0  0  0  0  # atno 8009 bound_to 7997
  155.2785  140.0421  157.3004 H   0  0  0  0  0  0  0  0  0  0  0  0  # atno 8010 bound_to 7997
  139.8752  143.6907  152.2634 H   0  0  0  0  0  0  0  0  0  0  0  0  # atno 10167 bound_to 10162
  156.4806  130.8301  151.2528 H   0  0  0  0  0  0  0  0  0  0  0  0  # atno 10718 bound_to 10713
  153.7436  135.3220  155.3308 H   0  0  0  0  0  0  0  0  0  0  0  0  # atno 10763 bound_to 10752
  154.8287  135.4550  154.1002 H   0  0  0  0  0  0  0  0  0  0  0  0  # atno 10764 bound_to 10752
  153.2184  135.6945  153.8111 H   0  0  0  0  0  0  0  0  0  0  0  0  # atno 10765 bound_to 10752
  139.8770  134.9117  156.4679 H   0  0  0  0  0  0  0  0  0  0  0  0  # atno 11005 bound_to 11000
  145.8918  139.2380  143.1545 LP  0  0  0  0  0  0  0  0  0  0  0  0  # atno 17320 bound_to 7965
  145.9896  140.8614  143.0073 LP  0  0  0  0  0  0  0  0  0  0  0  0  # atno 17321 bound_to 7965
  139.7246  144.7595  151.0899 LP  0  0  0  0  0  0  0  0  0  0  0  0  # atno 17342 bound_to 10162
  140.7754  143.5164  150.9590 LP  0  0  0  0  0  0  0  0  0  0  0  0  # atno 17343 bound_to 10162
  157.7483  131.0046  150.3082 LP  0  0  0  0  0  0  0  0  0  0  0  0  # atno 17370 bound_to 10713
  156.3525  130.3833  149.7317 LP  0  0  0  0  0  0  0  0  0  0  0  0  # atno 17371 bound_to 10713
  140.8817  133.7913  155.9474 LP  0  0  0  0  0  0  0  0  0  0  0  0  # atno 17394 bound_to 11000
  140.8847  134.2568  157.5126 LP  0  0  0  0  0  0  0  0  0  0  0  0  # atno 17395 bound_to 11000

$$$$
