AV-unprocessed.smi:1997|AV-procd|sdf|8088|dock7
  -GOLD-   2272010303D 1   1.00000     0.00000
 Structure written by MMmdl.
 36 38  0  0  0  0  0  0  0  0  2 V2000
  150.8550  136.6849  159.3652 O   0  0  0  0  0  0  0  0  0  0  0  0
  149.9346  137.4075  159.7550 C   0  0  0  0  0  0  0  0  0  0  0  0
  149.6740  138.6678  159.3391 N   0  5  0  0  0  0  0  0  0  0  0  0
  150.6615  139.5770  159.2902 C   0  0  0  0  0  0  0  0  0  0  0  0
  151.9510  139.2323  159.1665 N   0  0  0  0  0  0  0  0  0  0  0  0
  152.8054  140.3249  159.1286 N   0  0  0  0  0  0  0  0  0  0  0  0
  152.1466  141.4828  159.2179 C   0  0  0  0  0  0  0  0  0  0  0  0
  152.8422  142.8027  159.2017 C   0  0  0  0  0  0  0  0  0  0  0  0
  152.8275  143.6992  160.4185 C   0  0  0  0  0  0  0  0  0  0  0  0
  152.0695  144.1037  159.1799 C   0  0  0  0  0  0  0  0  0  0  0  0
  150.4027  141.3201  159.3498 S   0  0  0  0  0  0  0  0  0  0  0  0
  149.0758  136.9569  160.6824 N   0  0  0  0  0  0  0  0  0  0  0  0
  149.1113  135.6461  161.3352 C   0  0  2  0  0  0  0  0  0  0  0  0
  147.9791  134.7785  160.7294 C   0  0  0  0  0  0  0  0  0  0  0  0
  147.5719  133.5208  161.5297 C   0  0  0  0  0  0  0  0  0  0  0  0
  148.7449  132.6805  162.0750 C   0  0  0  0  0  0  0  0  0  0  0  0
  149.7071  133.3874  163.0650 C   0  0  0  0  0  0  0  0  0  0  0  0
  149.2160  134.6584  163.5972 N   0  0  0  0  0  0  0  0  0  0  0  0
  148.9332  135.7507  162.8670 C   0  0  0  0  0  0  0  0  0  0  0  0
  148.5195  136.7828  163.3940 O   0  0  0  0  0  0  0  0  0  0  0  0
  153.7604  142.7461  158.6206 H   0  0  0  0  0  0  0  0  0  0  0  0
  152.2463  143.3730  161.2788 H   0  0  0  0  0  0  0  0  0  0  0  0
  153.7404  144.2432  160.6510 H   0  0  0  0  0  0  0  0  0  0  0  0
  152.4762  144.9186  158.5849 H   0  0  0  0  0  0  0  0  0  0  0  0
  150.9832  144.0582  159.2254 H   0  0  0  0  0  0  0  0  0  0  0  0
  148.3425  137.5865  160.9729 H   0  0  0  0  0  0  0  0  0  0  0  0
  150.0747  135.1851  161.1136 H   0  0  0  0  0  0  0  0  0  0  0  0
  147.0837  135.3857  160.5857 H   0  0  0  0  0  0  0  0  0  0  0  0
  148.2870  134.4724  159.7288 H   0  0  0  0  0  0  0  0  0  0  0  0
  146.9229  133.8092  162.3580 H   0  0  0  0  0  0  0  0  0  0  0  0
  146.9498  132.8911  160.8931 H   0  0  0  0  0  0  0  0  0  0  0  0
  148.3216  131.8094  162.5762 H   0  0  0  0  0  0  0  0  0  0  0  0
  149.3223  132.2807  161.2410 H   0  0  0  0  0  0  0  0  0  0  0  0
  149.9138  132.7256  163.9063 H   0  0  0  0  0  0  0  0  0  0  0  0
  150.6735  133.5577  162.5887 H   0  0  0  0  0  0  0  0  0  0  0  0
  149.0896  134.7172  164.5972 H   0  0  0  0  0  0  0  0  0  0  0  0
  1  2  2  0  0  0  0
  2  3  1  0  0  0  0
  2 12  1  0  0  0  0
  3  4  1  0  0  0  0
  4 11  1  0  0  0  0
  4  5  2  0  0  0  0
  5  6  1  0  0  0  0
  6  7  2  0  0  0  0
  7  8  1  0  0  0  0
  7 11  1  0  0  0  0
  8 10  1  0  0  0  0
  8  9  1  0  0  0  0
  8 21  1  0  0  0  0
  9 10  1  0  0  0  0
  9 22  1  0  0  0  0
  9 23  1  0  0  0  0
 10 24  1  0  0  0  0
 10 25  1  0  0  0  0
 12 13  1  0  0  0  0
 12 26  1  0  0  0  0
 13 19  1  0  0  0  0
 13 14  1  0  0  0  0
 13 27  1  0  0  0  0
 14 15  1  0  0  0  0
 14 28  1  0  0  0  0
 14 29  1  0  0  0  0
 15 16  1  0  0  0  0
 15 30  1  0  0  0  0
 15 31  1  0  0  0  0
 16 17  1  0  0  0  0
 16 32  1  0  0  0  0
 16 33  1  0  0  0  0
 17 18  1  0  0  0  0
 17 34  1  0  0  0  0
 17 35  1  0  0  0  0
 18 19  1  0  0  0  0
 18 36  1  0  0  0  0
 19 20  2  0  0  0  0
M  CHG  1   3  -1
M  END
> <s_m_source_file>
AV-unprocessed.smi

> <i_m_source_file_index>
1997

> <i_lp_mmshare_version>
43012

> <i_f3d_flags>
0

> <s_epik_input>
W0NIMl0xW0NIMl1bQ0hdMWMoczIpbm5jMltOSF1DKD1PKVtOSF1bQ0BASF0zW0NIMl1bQ0gyXVtDSDJdW0NIMl1bTkhdQzM9Tw==

> <s_epik_cmdline>
J2VwaWtfcHl0aG9uJywgJy1waCcsICc3LjAnLCAnLXRuJywgJzgnLCAnLW1hJywgJzIwMCcsICctbWV0YWxfYmluZGluZycsICctaW1hZScsICc8aW5maWxlLm1hZT4nLCAnLW9tYWUnLCAnPG91dGZpbGUubWFlPic=

> <r_lp_tautomer_probability>
1

> <r_epik_Ionization_Penalty>
4.47229

> <r_epik_Ionization_Penalty_Charging>
4.32584

> <r_epik_Ionization_Penalty_Neutral>
0.146443

> <r_epik_State_Penalty>
4.32544

> <r_epik_Charging_Adjusted_Penalty>
8.65129

> <i_epik_Tot_Q>
-1

> <i_epik_Tot_abs_Q>
1

> <r_epik_Metal_State_Penalty>
0.738743

> <b_epik_Metal_Only>
1

> <s_lp_Force_Field>
OPLS_2005

> <r_lp_Energy>
12.6103

> <b_lp_Chiralities_Consistent>
1

> <s_lp_Variant>
AV-unprocessed.smi:1997-3

> <Gold.Version>
5.8.1

> <Gold.Id.Protein>
6NUR|6NUR_protein|mol2

> <Gold.PLP.Fitness>
39.2661

> <Gold.PLP.PLP>
-34.6897

> <Gold.PLP.part.hbond>
-2.4343

> <Gold.PLP.part.metal>
0.0000

> <Gold.PLP.part.buried>
-6.4493

> <Gold.PLP.part.nonpolar>
-26.3620

> <Gold.PLP.part.repulsive>
0.3465

> <Gold.PLP.ligand.clash>
0.0000

> <Gold.PLP.ligand.torsion>
0.7777

> <Gold.PLP.Chemscore.Hbond>
2.0000

> <Gold.PLP.Chemscore.CHOScore>
0.0000

> <Gold.PLP.Chemscore.Metal>
0.0000

> <Gold.Chemscore.Hbonds>
donor molecule, donor type, donor heavy atom, donor atom, acceptor molecule, acceptor atom, score
      P1  H  6896  6909       L1     1  0.98
      P1  H  6931  6943       L1    20  0.51

> <Gold.PLP.Chemscore.Internal.Correction>
0.1317

> <Gold.Rescore>
     Score         DG    S(hbond)    S(metal)    S(lipo)     H(rot)  DE(clash)    DE(int)     intcor
     15.54     -17.84       1.95        0.00      77.78       1.27       0.00       2.31       ----

> <Gold.Chemscore.Fitness>
15.5357

> <Gold.Chemscore.DG>
-17.8426

> <Gold.Chemscore.ZeroCoef>
-5.4800

> <Gold.Chemscore.Hbond>
1.9529

> <Gold.Chemscore.Metal>
0.0000

> <Gold.Chemscore.Lipo>
77.7840

> <Gold.Chemscore.Internal_Hbond>
0.0000

> <Gold.Chemscore.DEClash>
0.0000

> <Gold.Chemscore.DEInternal>
2.3069

> <Gold.Chemscore.Rot>
1.2738

> <Gold.Chemscore.Internal.Correction>
   9.000000E+99

> <Gold.Chemscore.Hbonds>
donor molecule, donor type, donor heavy atom, donor atom, acceptor molecule, acceptor atom, score
      P1  H  6896  6909       L1     1  0.93
      P1  H  6931  6943       L1    20  0.17

> <Gold.Chemscore.Hbond.Weighted>
-6.5228

> <Gold.Chemscore.Metal.Weighted>
-0.0000

> <Gold.Chemscore.Lipo.Weighted>
-9.1007

> <Gold.Chemscore.Internal_Hbond.Weighted>
0.0000

> <Gold.Chemscore.DEClash.Weighted>
0.0000

> <Gold.Chemscore.DEInternal.Weighted>
2.3069

> <Gold.Chemscore.Rot.Weighted>
3.2610

> <Gold.Chemscore.Internal.Correction.Weighted>
   9.000000E+99

> <Gold.Protein.RotatedTorsions>
[ 6907 6896 6895 6894 ] final   78.92 input  -60.11 | X-H torsion
[ 7974 7965 7964 7962 ] final   26.84 input  175.53 | X-H torsion
[ 8008 7997 7996 7995 ] final -105.63 input   59.86 | X-H torsion
[ 10167 10162 10161 10158 ] final    0.69 input  -65.29 | X-H torsion
[ 10718 10713 10712 10709 ] final -165.86 input   66.30 | X-H torsion
[ 10763 10752 10751 10750 ] final  -64.56 input  -60.55 | X-H torsion
[ 11005 11000 10999 10996 ] final   56.16 input  -57.11 | X-H torsion

> <Gold.Protein.ActiveResidues>
 VAL166  LYS551  ARG553  GLY616  TRP617  ASP618  TYR619  PRO620  LYS621  CYS622 
 ASP623  PHE694  ASN695  SER759  ASP760  ASP761  ALA762  ILE779  LEU786  VAL792 
 PHE793  MET794  SER795  GLU796  ALA797  LYS798  CYS799  TRP800  GLU811  SER814 

> <Gold.Protein.RotatedAtoms>
  152.5178  134.3591  159.9278 H   0  0  0  0  0  0  0  0  0  0  0  0  # atno 6907 bound_to 6896
  151.3543  133.3907  159.2691 H   0  0  0  0  0  0  0  0  0  0  0  0  # atno 6908 bound_to 6896
  150.9702  134.9095  159.7841 H   0  0  0  0  0  0  0  0  0  0  0  0  # atno 6909 bound_to 6896
  146.1816  139.7274  142.8896 H   0  0  0  0  0  0  0  0  0  0  0  0  # atno 7974 bound_to 7965
  154.9027  140.0412  157.1902 H   0  0  0  0  0  0  0  0  0  0  0  0  # atno 8008 bound_to 7997
  154.8428  140.2917  155.5627 H   0  0  0  0  0  0  0  0  0  0  0  0  # atno 8009 bound_to 7997
  156.2993  140.2479  156.3373 H   0  0  0  0  0  0  0  0  0  0  0  0  # atno 8010 bound_to 7997
  140.6717  143.7029  150.7937 H   0  0  0  0  0  0  0  0  0  0  0  0  # atno 10167 bound_to 10162
  156.6595  130.9040  151.3027 H   0  0  0  0  0  0  0  0  0  0  0  0  # atno 10718 bound_to 10713
  154.3320  135.6174  153.5556 H   0  0  0  0  0  0  0  0  0  0  0  0  # atno 10763 bound_to 10752
  152.9810  135.5749  154.4951 H   0  0  0  0  0  0  0  0  0  0  0  0  # atno 10764 bound_to 10752
  154.4639  135.2857  155.1669 H   0  0  0  0  0  0  0  0  0  0  0  0  # atno 10765 bound_to 10752
  140.0551  134.5682  155.9218 H   0  0  0  0  0  0  0  0  0  0  0  0  # atno 11005 bound_to 11000
  145.4058  141.0391  143.3044 LP  0  0  0  0  0  0  0  0  0  0  0  0  # atno 17320 bound_to 7965
  144.8325  139.5604  143.6937 LP  0  0  0  0  0  0  0  0  0  0  0  0  # atno 17321 bound_to 7965
  140.0716  143.5056  152.2577 LP  0  0  0  0  0  0  0  0  0  0  0  0  # atno 17342 bound_to 10162
  139.5989  144.7576  151.3219 LP  0  0  0  0  0  0  0  0  0  0  0  0  # atno 17343 bound_to 10162
  157.7114  130.9445  150.1103 LP  0  0  0  0  0  0  0  0  0  0  0  0  # atno 17370 bound_to 10713
  156.2022  130.3661  149.8774 LP  0  0  0  0  0  0  0  0  0  0  0  0  # atno 17371 bound_to 10713
  141.1948  133.6584  156.5613 LP  0  0  0  0  0  0  0  0  0  0  0  0  # atno 17394 bound_to 11000
  140.3857  134.7484  157.4690 LP  0  0  0  0  0  0  0  0  0  0  0  0  # atno 17395 bound_to 11000

$$$$
