AV-unprocessed.smi:2432|AV-procd|sdf|9587|dock3
  -GOLD-   2272013223D 1   1.00000     0.00000
 Structure written by MMmdl.
 33 34  0  0  0  0  0  0  0  0  1 V2000
  146.7729  143.1729  154.1556 C   0  0  0  0  0  0  0  0  0  0  0  0
  147.7099  142.4242  154.9790 N   0  0  0  0  0  0  0  0  0  0  0  0
  148.6497  141.5973  154.4967 C   0  0  0  0  0  0  0  0  0  0  0  0
  148.8102  141.4013  153.2913 O   0  0  0  0  0  0  0  0  0  0  0  0
  149.5531  140.9072  155.5299 C   0  0  2  0  0  0  0  0  0  0  0  0
  150.4892  141.9002  156.2563 C   0  0  0  0  0  0  0  0  0  0  0  0
  151.4167  141.1983  157.1482 N   0  0  0  0  0  0  0  0  0  0  0  0
  151.8907  141.7785  158.3329 C   0  0  0  0  0  0  0  0  0  0  0  0
  151.4819  143.0218  158.6233 N   0  0  0  0  0  0  0  0  0  0  0  0
  151.9362  143.5864  159.7627 C   0  0  0  0  0  0  0  0  0  0  0  0
  152.8120  142.9051  160.6291 C   0  0  0  0  0  0  0  0  0  0  0  0
  153.1835  141.6050  160.2341 C   0  0  0  0  0  0  0  0  0  0  0  0
  154.1160  140.7597  161.0751 C   0  0  0  0  0  0  0  0  0  0  0  0
  152.7214  141.0506  159.0925 N   0  0  0  0  0  0  0  0  0  0  0  0
  152.1248  140.1012  156.4855 C   0  0  0  0  0  0  0  0  0  0  0  0
  151.1346  139.1694  155.7707 C   0  0  0  0  0  0  0  0  0  0  0  0
  150.3401  139.9217  154.8635 O   0  0  0  0  0  0  0  0  0  0  0  0
  146.1116  143.7643  154.7889 H   0  0  0  0  0  0  0  0  0  0  0  0
  146.1593  142.4997  153.5556 H   0  0  0  0  0  0  0  0  0  0  0  0
  147.3021  143.8522  153.4860 H   0  0  0  0  0  0  0  0  0  0  0  0
  147.6395  142.5346  155.9805 H   0  0  0  0  0  0  0  0  0  0  0  0
  148.9025  140.4160  156.2559 H   0  0  0  0  0  0  0  0  0  0  0  0
  151.0725  142.4722  155.5336 H   0  0  0  0  0  0  0  0  0  0  0  0
  149.8734  142.6154  156.8015 H   0  0  0  0  0  0  0  0  0  0  0  0
  151.5980  144.5879  159.9840 H   0  0  0  0  0  0  0  0  0  0  0  0
  153.1743  143.3555  161.5415 H   0  0  0  0  0  0  0  0  0  0  0  0
  154.7536  141.3875  161.6982 H   0  0  0  0  0  0  0  0  0  0  0  0
  154.7589  140.1452  160.4440 H   0  0  0  0  0  0  0  0  0  0  0  0
  153.5410  140.1006  161.7256 H   0  0  0  0  0  0  0  0  0  0  0  0
  152.8272  140.5242  155.7665 H   0  0  0  0  0  0  0  0  0  0  0  0
  152.7098  139.5043  157.1845 H   0  0  0  0  0  0  0  0  0  0  0  0
  151.6757  138.4038  155.2147 H   0  0  0  0  0  0  0  0  0  0  0  0
  150.4980  138.6504  156.4895 H   0  0  0  0  0  0  0  0  0  0  0  0
  1  2  1  0  0  0  0
  1 18  1  0  0  0  0
  1 19  1  0  0  0  0
  1 20  1  0  0  0  0
  2  3  1  0  0  0  0
  2 21  1  0  0  0  0
  3  4  2  0  0  0  0
  3  5  1  0  0  0  0
  5 17  1  0  0  0  0
  5  6  1  0  0  0  0
  5 22  1  0  0  0  0
  6  7  1  0  0  0  0
  6 23  1  0  0  0  0
  6 24  1  0  0  0  0
  7  8  1  0  0  0  0
  7 15  1  0  0  0  0
  8 14  1  0  0  0  0
  8  9  2  0  0  0  0
  9 10  1  0  0  0  0
 10 11  2  0  0  0  0
 10 25  1  0  0  0  0
 11 12  1  0  0  0  0
 11 26  1  0  0  0  0
 12 13  1  0  0  0  0
 12 14  2  0  0  0  0
 13 27  1  0  0  0  0
 13 28  1  0  0  0  0
 13 29  1  0  0  0  0
 15 16  1  0  0  0  0
 15 30  1  0  0  0  0
 15 31  1  0  0  0  0
 16 17  1  0  0  0  0
 16 32  1  0  0  0  0
 16 33  1  0  0  0  0
M  END
> <s_m_source_file>
AV-unprocessed.smi

> <i_m_source_file_index>
2432

> <i_lp_mmshare_version>
43012

> <i_f3d_flags>
0

> <s_epik_input>
W0NIM11bTkhdQyg9TylbQ0BASF0xW0NIMl1OKFtDSDJdW0NIMl1PMSljMm5bY0hdW2NIXWMobjIpW0NIM10=

> <s_epik_cmdline>
J2VwaWtfcHl0aG9uJywgJy1waCcsICc3LjAnLCAnLXRuJywgJzgnLCAnLW1hJywgJzIwMCcsICctbWV0YWxfYmluZGluZycsICctaW1hZScsICc8aW5maWxlLm1hZT4nLCAnLW9tYWUnLCAnPG91dGZpbGUubWFlPic=

> <r_lp_tautomer_probability>
1

> <r_epik_Ionization_Penalty>
3.16085e-05

> <r_epik_Ionization_Penalty_Charging>
0

> <r_epik_Ionization_Penalty_Neutral>
3.16085e-05

> <r_epik_State_Penalty>
-0

> <r_epik_Charging_Adjusted_Penalty>
0

> <i_epik_Tot_Q>
0

> <i_epik_Tot_abs_Q>
0

> <r_epik_Metal_State_Penalty>
-0

> <b_epik_Metal_Only>
0

> <s_lp_Force_Field>
OPLS_2005

> <r_lp_Energy>
9.35754

> <b_lp_Chiralities_Consistent>
1

> <s_lp_Variant>
AV-unprocessed.smi:2432-1

> <Gold.Version>
5.8.1

> <Gold.Id.Protein>
6NUR|6NUR_protein|mol2

> <Gold.PLP.Fitness>
38.6971

> <Gold.PLP.PLP>
-33.5146

> <Gold.PLP.part.hbond>
-3.0000

> <Gold.PLP.part.metal>
0.0000

> <Gold.PLP.part.buried>
-3.1086

> <Gold.PLP.part.nonpolar>
-29.5215

> <Gold.PLP.part.repulsive>
2.7691

> <Gold.PLP.ligand.clash>
0.0000

> <Gold.PLP.ligand.torsion>
0.2577

> <Gold.PLP.Chemscore.Hbond>
1.8640

> <Gold.PLP.Chemscore.CHOScore>
0.0000

> <Gold.PLP.Chemscore.Metal>
0.0000

> <Gold.Chemscore.Hbonds>
donor molecule, donor type, donor heavy atom, donor atom, acceptor molecule, acceptor atom, score
      P1  H  7989  7998       L1    17  0.81
      P1  H  8011  8017       L1     4  0.90

> <Gold.PLP.Chemscore.Internal.Correction>
0.1059

> <Gold.Rescore>
     Score         DG    S(hbond)    S(metal)    S(lipo)     H(rot)  DE(clash)    DE(int)     intcor
     14.51     -16.35       1.42        0.00      74.25       1.00       1.13       0.71       ----

> <Gold.Chemscore.Fitness>
14.5110

> <Gold.Chemscore.DG>
-16.3489

> <Gold.Chemscore.ZeroCoef>
-5.4800

> <Gold.Chemscore.Hbond>
1.4197

> <Gold.Chemscore.Metal>
0.0000

> <Gold.Chemscore.Lipo>
74.2492

> <Gold.Chemscore.Internal_Hbond>
0.0000

> <Gold.Chemscore.DEClash>
1.1295

> <Gold.Chemscore.DEInternal>
0.7085

> <Gold.Chemscore.Rot>
1.0000

> <Gold.Chemscore.Internal.Correction>
   9.000000E+99

> <Gold.Chemscore.Hbonds>
donor molecule, donor type, donor heavy atom, donor atom, acceptor molecule, acceptor atom, score
      P1  H  7989  7998       L1    17  0.37
      P1  H  8011  8017       L1     4  0.87

> <Gold.Chemscore.Hbond.Weighted>
-4.7418

> <Gold.Chemscore.Metal.Weighted>
-0.0000

> <Gold.Chemscore.Lipo.Weighted>
-8.6872

> <Gold.Chemscore.Internal_Hbond.Weighted>
0.0000

> <Gold.Chemscore.DEClash.Weighted>
1.1295

> <Gold.Chemscore.DEInternal.Weighted>
0.7085

> <Gold.Chemscore.Rot.Weighted>
2.5600

> <Gold.Chemscore.Internal.Correction.Weighted>
   9.000000E+99

> <Gold.Protein.RotatedTorsions>
[ 6907 6896 6895 6894 ] final  106.39 input  -60.11 | X-H torsion
[ 7974 7965 7964 7962 ] final -106.22 input  175.53 | X-H torsion
[ 8008 7997 7996 7995 ] final   65.77 input   59.86 | X-H torsion
[ 10167 10162 10161 10158 ] final    1.99 input  -65.29 | X-H torsion
[ 10718 10713 10712 10709 ] final -125.79 input   66.30 | X-H torsion
[ 10763 10752 10751 10750 ] final  -89.29 input  -60.55 | X-H torsion
[ 11005 11000 10999 10996 ] final  143.03 input  -57.11 | X-H torsion

> <Gold.Protein.ActiveResidues>
 VAL166  LYS551  ARG553  GLY616  TRP617  ASP618  TYR619  PRO620  LYS621  CYS622 
 ASP623  PHE694  ASN695  SER759  ASP760  ASP761  ALA762  ILE779  LEU786  VAL792 
 PHE793  MET794  SER795  GLU796  ALA797  LYS798  CYS799  TRP800  GLU811  SER814 

> <Gold.Protein.RotatedAtoms>
  152.5195  133.9388  159.7615 H   0  0  0  0  0  0  0  0  0  0  0  0  # atno 6907 bound_to 6896
  150.9722  133.6323  159.2743 H   0  0  0  0  0  0  0  0  0  0  0  0  # atno 6908 bound_to 6896
  151.3530  135.0894  159.9462 H   0  0  0  0  0  0  0  0  0  0  0  0  # atno 6909 bound_to 6896
  145.2205  140.9132  143.3262 H   0  0  0  0  0  0  0  0  0  0  0  0  # atno 7974 bound_to 7965
  155.6670  140.3497  155.4804 H   0  0  0  0  0  0  0  0  0  0  0  0  # atno 8008 bound_to 7997
  155.9720  140.1157  157.0826 H   0  0  0  0  0  0  0  0  0  0  0  0  # atno 8009 bound_to 7997
  154.4169  140.1155  156.5306 H   0  0  0  0  0  0  0  0  0  0  0  0  # atno 8010 bound_to 7997
  140.6657  143.7187  150.7822 H   0  0  0  0  0  0  0  0  0  0  0  0  # atno 10167 bound_to 10162
  156.1707  130.6665  151.0176 H   0  0  0  0  0  0  0  0  0  0  0  0  # atno 10718 bound_to 10713
  154.6536  135.5346  153.7932 H   0  0  0  0  0  0  0  0  0  0  0  0  # atno 10763 bound_to 10752
  153.0400  135.6488  154.0978 H   0  0  0  0  0  0  0  0  0  0  0  0  # atno 10764 bound_to 10752
  154.0893  135.2941  155.3254 H   0  0  0  0  0  0  0  0  0  0  0  0  # atno 10765 bound_to 10752
  140.0522  134.9249  157.1037 H   0  0  0  0  0  0  0  0  0  0  0  0  # atno 11005 bound_to 11000
  144.9769  139.3822  143.6281 LP  0  0  0  0  0  0  0  0  0  0  0  0  # atno 17320 bound_to 7965
  146.3377  139.8893  142.8811 LP  0  0  0  0  0  0  0  0  0  0  0  0  # atno 17321 bound_to 7965
  140.0863  143.4920  152.2503 LP  0  0  0  0  0  0  0  0  0  0  0  0  # atno 17342 bound_to 10162
  139.5905  144.7548  151.3414 LP  0  0  0  0  0  0  0  0  0  0  0  0  # atno 17343 bound_to 10162
  157.6800  131.0840  150.7393 LP  0  0  0  0  0  0  0  0  0  0  0  0  # atno 17370 bound_to 10713
  156.7453  130.4751  149.5468 LP  0  0  0  0  0  0  0  0  0  0  0  0  # atno 17371 bound_to 10713
  140.3900  134.2195  155.7166 LP  0  0  0  0  0  0  0  0  0  0  0  0  # atno 17394 bound_to 11000
  141.1935  133.8148  157.0794 LP  0  0  0  0  0  0  0  0  0  0  0  0  # atno 17395 bound_to 11000

$$$$
