AV-unprocessed.smi:1824|AV-procd|sdf|7412|dock4
  -GOLD-   22720 9 83D 1   1.00000     0.00000
 Structure written by MMmdl.
 45 47  0  0  0  0  0  0  0  0  2 V2000
  152.9535  142.5285  162.0675 C   0  0  0  0  0  0  0  0  0  0  0  0
  152.7972  142.6947  160.5524 C   0  0  1  0  0  0  0  0  0  0  0  0
  152.1775  141.4493  159.8933 C   0  0  0  0  0  0  0  0  0  0  0  0
  151.9557  141.6411  158.4655 N   0  0  0  0  0  0  0  0  0  0  0  0
  151.4145  140.4275  157.8516 C   0  0  0  0  0  0  0  0  0  0  0  0
  152.4646  139.4397  157.3050 C   0  0  1  0  0  0  0  0  0  0  0  0
  152.0959  138.1333  157.7004 O   0  0  0  0  0  0  0  0  0  0  0  0
  152.5568  139.5044  155.7686 C   0  0  0  0  0  0  0  0  0  0  0  0
  151.4411  138.8168  155.1023 N   0  0  0  0  0  0  0  0  0  0  0  0
  151.3245  137.5127  154.7323 C   0  0  0  0  0  0  0  0  0  0  0  0
  150.1050  137.3583  154.1465 N   0  3  0  0  0  0  0  0  0  0  0  0
  149.4311  138.5816  154.1428 C   0  0  0  0  0  0  0  0  0  0  0  0
  148.1729  138.9267  153.6604 C   0  0  0  0  0  0  0  0  0  0  0  0
  147.7794  140.2718  153.8174 C   0  0  0  0  0  0  0  0  0  0  0  0
  146.5644  140.6618  153.3643 F   0  0  0  0  0  0  0  0  0  0  0  0
  148.6248  141.2163  154.4371 C   0  0  0  0  0  0  0  0  0  0  0  0
  148.2066  142.4973  154.5700 F   0  0  0  0  0  0  0  0  0  0  0  0
  149.8989  140.8543  154.9219 C   0  0  0  0  0  0  0  0  0  0  0  0
  150.2821  139.5234  154.7588 C   0  0  0  0  0  0  0  0  0  0  0  0
  151.0908  142.8050  158.2764 C   0  0  0  0  0  0  0  0  0  0  0  0
  151.6512  144.0769  158.9437 C   0  0  2  0  0  0  0  0  0  0  0  0
  152.8510  144.6775  158.1917 C   0  0  0  0  0  0  0  0  0  0  0  0
  151.9576  143.8231  160.3156 O   0  0  0  0  0  0  0  0  0  0  0  0
  153.6008  141.6840  162.3052 H   0  0  0  0  0  0  0  0  0  0  0  0
  151.9896  142.3577  162.5476 H   0  0  0  0  0  0  0  0  0  0  0  0
  153.3940  143.4206  162.5133 H   0  0  0  0  0  0  0  0  0  0  0  0
  153.7828  142.8809  160.1250 H   0  0  0  0  0  0  0  0  0  0  0  0
  152.8383  140.5964  160.0521 H   0  0  0  0  0  0  0  0  0  0  0  0
  151.2333  141.2068  160.3842 H   0  0  0  0  0  0  0  0  0  0  0  0
  150.8016  139.8954  158.5809 H   0  0  0  0  0  0  0  0  0  0  0  0
  150.7333  140.7109  157.0477 H   0  0  0  0  0  0  0  0  0  0  0  0
  153.4509  139.6552  157.7136 H   0  0  0  0  0  0  0  0  0  0  0  0
  151.7498  138.1775  158.5793 H   0  0  0  0  0  0  0  0  0  0  0  0
  152.6117  140.5344  155.4157 H   0  0  0  0  0  0  0  0  0  0  0  0
  153.4743  139.0191  155.4336 H   0  0  0  0  0  0  0  0  0  0  0  0
  152.0657  136.7399  154.8774 H   0  0  0  0  0  0  0  0  0  0  0  0
  147.5214  138.2067  153.1876 H   0  0  0  0  0  0  0  0  0  0  0  0
  150.5337  141.5850  155.4001 H   0  0  0  0  0  0  0  0  0  0  0  0
  150.9370  143.0064  157.2175 H   0  0  0  0  0  0  0  0  0  0  0  0
  150.1053  142.5941  158.6947 H   0  0  0  0  0  0  0  0  0  0  0  0
  150.8645  144.8316  158.9409 H   0  0  0  0  0  0  0  0  0  0  0  0
  152.5651  144.9775  157.1834 H   0  0  0  0  0  0  0  0  0  0  0  0
  153.6733  143.9685  158.0986 H   0  0  0  0  0  0  0  0  0  0  0  0
  153.2285  145.5621  158.7048 H   0  0  0  0  0  0  0  0  0  0  0  0
  149.7607  136.4808  153.7780 H   0  0  0  0  0  0  0  0  0  0  0  0
  1  2  1  0  0  0  0
  1 24  1  0  0  0  0
  1 25  1  0  0  0  0
  1 26  1  0  0  0  0
  2 23  1  0  0  0  0
  2  3  1  0  0  0  0
  2 27  1  0  0  0  0
  3  4  1  0  0  0  0
  3 28  1  0  0  0  0
  3 29  1  0  0  0  0
  4  5  1  0  0  0  0
  4 20  1  0  0  0  0
  5  6  1  0  0  0  0
  5 30  1  0  0  0  0
  5 31  1  0  0  0  0
  6  7  1  0  0  0  0
  6  8  1  0  0  0  0
  6 32  1  0  0  0  0
  7 33  1  0  0  0  0
  8  9  1  0  0  0  0
  8 34  1  0  0  0  0
  8 35  1  0  0  0  0
  9 19  1  0  0  0  0
  9 10  1  0  0  0  0
 10 11  2  0  0  0  0
 10 36  1  0  0  0  0
 11 12  1  0  0  0  0
 11 45  1  0  0  0  0
 12 19  2  0  0  0  0
 12 13  1  0  0  0  0
 13 14  2  0  0  0  0
 13 37  1  0  0  0  0
 14 15  1  0  0  0  0
 14 16  1  0  0  0  0
 16 17  1  0  0  0  0
 16 18  2  0  0  0  0
 18 19  1  0  0  0  0
 18 38  1  0  0  0  0
 20 21  1  0  0  0  0
 20 39  1  0  0  0  0
 20 40  1  0  0  0  0
 21 22  1  0  0  0  0
 21 23  1  0  0  0  0
 21 41  1  0  0  0  0
 22 42  1  0  0  0  0
 22 43  1  0  0  0  0
 22 44  1  0  0  0  0
M  CHG  1  11   1
M  END
> <s_m_source_file>
AV-unprocessed.smi

> <i_m_source_file_index>
1824

> <i_lp_mmshare_version>
43012

> <i_f3d_flags>
0

> <s_epik_input>
W0NIM11bQ0BASF0xW0NIMl1OKFtDSDJdW0NASF0oTzEpW0NIM10pW0NIMl1bQ0BIXShbT0hdKVtDSDJdbihbY0hdbjIpYyhjMjMpW2NIXWMoRiljKEYpW2NIXTM=

> <s_epik_cmdline>
J2VwaWtfcHl0aG9uJywgJy1waCcsICc3LjAnLCAnLXRuJywgJzgnLCAnLW1hJywgJzIwMCcsICctbWV0YWxfYmluZGluZycsICctaW1hZScsICc8aW5maWxlLm1hZT4nLCAnLW9tYWUnLCAnPG91dGZpbGUubWFlPic=

> <r_epik_Ionization_Penalty>
2.58709

> <r_epik_Ionization_Penalty_Charging>
2.37273

> <r_epik_Ionization_Penalty_Neutral>
0.214359

> <r_epik_State_Penalty>
2.71799

> <r_epik_Charging_Adjusted_Penalty>
5.09071

> <i_epik_Tot_Q>
1

> <i_epik_Tot_abs_Q>
1

> <r_epik_Metal_State_Penalty>
6.80217

> <b_epik_Metal_Only>
0

> <s_lp_Force_Field>
OPLS_2005

> <r_lp_Energy>
35.189

> <b_lp_Chiralities_Consistent>
1

> <s_lp_Variant>
AV-unprocessed.smi:1824-20

> <Gold.Version>
5.8.1

> <Gold.Id.Protein>
6NUR|6NUR_protein|mol2

> <Gold.PLP.Fitness>
46.3658

> <Gold.PLP.PLP>
-45.8634

> <Gold.PLP.part.hbond>
-1.5559

> <Gold.PLP.part.metal>
0.0000

> <Gold.PLP.part.buried>
6.4912

> <Gold.PLP.part.nonpolar>
-49.7586

> <Gold.PLP.part.repulsive>
0.1075

> <Gold.PLP.ligand.clash>
0.0000

> <Gold.PLP.ligand.torsion>
1.5424

> <Gold.PLP.Chemscore.Hbond>
1.1840

> <Gold.PLP.Chemscore.CHOScore>
0.0000

> <Gold.PLP.Chemscore.Metal>
0.0000

> <Gold.Chemscore.Hbonds>
donor molecule, donor type, donor heavy atom, donor atom, acceptor molecule, acceptor atom, score
      L1  H    11    45       P1  7948  0.92

> <Gold.PLP.Chemscore.Internal.Correction>
0.0352

> <Gold.Rescore>
     Score         DG    S(hbond)    S(metal)    S(lipo)     H(rot)  DE(clash)    DE(int)     intcor
     13.21     -16.61       0.64        0.00     127.69       2.32       1.88       1.53       ----

> <Gold.Chemscore.Fitness>
13.2119

> <Gold.Chemscore.DG>
-16.6127

> <Gold.Chemscore.ZeroCoef>
-5.4800

> <Gold.Chemscore.Hbond>
0.6392

> <Gold.Chemscore.Metal>
0.0000

> <Gold.Chemscore.Lipo>
127.6883

> <Gold.Chemscore.Internal_Hbond>
0.0000

> <Gold.Chemscore.DEClash>
1.8755

> <Gold.Chemscore.DEInternal>
1.5253

> <Gold.Chemscore.Rot>
2.3210

> <Gold.Chemscore.Internal.Correction>
   9.000000E+99

> <Gold.Chemscore.Hbonds>
donor molecule, donor type, donor heavy atom, donor atom, acceptor molecule, acceptor atom, score
      L1  H    11    45       P1  7948  0.20

> <Gold.Chemscore.Hbond.Weighted>
-2.1348

> <Gold.Chemscore.Metal.Weighted>
-0.0000

> <Gold.Chemscore.Lipo.Weighted>
-14.9395

> <Gold.Chemscore.Internal_Hbond.Weighted>
0.0000

> <Gold.Chemscore.DEClash.Weighted>
1.8755

> <Gold.Chemscore.DEInternal.Weighted>
1.5253

> <Gold.Chemscore.Rot.Weighted>
5.9416

> <Gold.Chemscore.Internal.Correction.Weighted>
   9.000000E+99

> <Gold.Protein.RotatedTorsions>
[ 6907 6896 6895 6894 ] final   24.71 input  -60.11 | X-H torsion
[ 7974 7965 7964 7962 ] final  161.74 input  175.53 | X-H torsion
[ 8008 7997 7996 7995 ] final   -5.50 input   59.86 | X-H torsion
[ 10167 10162 10161 10158 ] final -101.58 input  -65.29 | X-H torsion
[ 10718 10713 10712 10709 ] final -167.50 input   66.30 | X-H torsion
[ 10763 10752 10751 10750 ] final  -85.93 input  -60.55 | X-H torsion
[ 11005 11000 10999 10996 ] final  115.90 input  -57.11 | X-H torsion

> <Gold.Protein.ActiveResidues>
 VAL166  LYS551  ARG553  GLY616  TRP617  ASP618  TYR619  PRO620  LYS621  CYS622 
 ASP623  PHE694  ASN695  SER759  ASP760  ASP761  ALA762  ILE779  LEU786  VAL792 
 PHE793  MET794  SER795  GLU796  ALA797  LYS798  CYS799  TRP800  GLU811  SER814 

> <Gold.Protein.RotatedAtoms>
  151.9615  135.0121  160.0547 H   0  0  0  0  0  0  0  0  0  0  0  0  # atno 6907 bound_to 6896
  152.1864  133.4738  159.4993 H   0  0  0  0  0  0  0  0  0  0  0  0  # atno 6908 bound_to 6896
  150.6927  134.1685  159.4246 H   0  0  0  0  0  0  0  0  0  0  0  0  # atno 6909 bound_to 6896
  144.7670  139.7941  143.6311 H   0  0  0  0  0  0  0  0  0  0  0  0  # atno 7974 bound_to 7965
  154.6033  140.2457  155.7764 H   0  0  0  0  0  0  0  0  0  0  0  0  # atno 8008 bound_to 7997
  156.2324  140.2962  156.0176 H   0  0  0  0  0  0  0  0  0  0  0  0  # atno 8009 bound_to 7997
  155.2175  140.0399  157.2933 H   0  0  0  0  0  0  0  0  0  0  0  0  # atno 8010 bound_to 7997
  140.2398  143.3547  152.0812 H   0  0  0  0  0  0  0  0  0  0  0  0  # atno 10167 bound_to 10162
  156.6834  130.9130  151.3060 H   0  0  0  0  0  0  0  0  0  0  0  0  # atno 10718 bound_to 10713
  154.6167  135.5467  153.7531 H   0  0  0  0  0  0  0  0  0  0  0  0  # atno 10763 bound_to 10752
  153.0219  135.6403  154.1499 H   0  0  0  0  0  0  0  0  0  0  0  0  # atno 10764 bound_to 10752
  154.1435  135.2907  155.3134 H   0  0  0  0  0  0  0  0  0  0  0  0  # atno 10765 bound_to 10752
  139.9024  134.9590  156.7116 H   0  0  0  0  0  0  0  0  0  0  0  0  # atno 11005 bound_to 11000
  146.1786  139.4969  142.9881 LP  0  0  0  0  0  0  0  0  0  0  0  0  # atno 17320 bound_to 7965
  145.6438  141.0278  143.1797 LP  0  0  0  0  0  0  0  0  0  0  0  0  # atno 17321 bound_to 7965
  139.5081  144.6844  151.5925 LP  0  0  0  0  0  0  0  0  0  0  0  0  # atno 17342 bound_to 10162
  140.6122  143.9414  150.6462 LP  0  0  0  0  0  0  0  0  0  0  0  0  # atno 17343 bound_to 10162
  157.7035  130.9359  150.0859 LP  0  0  0  0  0  0  0  0  0  0  0  0  # atno 17370 bound_to 10713
  156.1851  130.3652  149.8984 LP  0  0  0  0  0  0  0  0  0  0  0  0  # atno 17371 bound_to 10713
  140.7071  133.9255  155.8061 LP  0  0  0  0  0  0  0  0  0  0  0  0  # atno 17394 bound_to 11000
  141.0328  134.0732  157.3994 LP  0  0  0  0  0  0  0  0  0  0  0  0  # atno 17395 bound_to 11000

$$$$
