AV-unprocessed.smi:1891|AV-procd|sdf|7668|dock10
  -GOLD-   22720 9403D 1   1.00000     0.00000
 Structure written by MMmdl.
 37 39  0  0  0  0  0  0  0  0  2 V2000
  151.1491  136.4465  154.3830 O   0  0  0  0  0  0  0  0  0  0  0  0
  151.6031  137.7812  154.3984 C   0  0  0  0  0  0  0  0  0  0  0  0
  150.4870  138.7621  154.2481 C   0  0  0  0  0  0  0  0  0  0  0  0
  149.4080  138.6150  153.4284 N   0  3  0  0  0  0  0  0  0  0  0  0
  148.5657  139.7206  153.5509 C   0  0  0  0  0  0  0  0  0  0  0  0
  147.3602  140.0228  152.9249 C   0  0  0  0  0  0  0  0  0  0  0  0
  146.7520  141.2451  153.2797 C   0  0  0  0  0  0  0  0  0  0  0  0
  147.3414  142.1124  154.2225 C   0  0  0  0  0  0  0  0  0  0  0  0
  148.5636  141.7947  154.8511 C   0  0  0  0  0  0  0  0  0  0  0  0
  149.1581  140.5846  154.4940 C   0  0  0  0  0  0  0  0  0  0  0  0
  150.3389  139.9530  154.8997 N   0  0  0  0  0  0  0  0  0  0  0  0
  151.1916  140.6149  155.9000 C   0  0  0  0  0  0  0  0  0  0  0  0
  150.4170  141.0511  157.1596 C   0  0  1  0  0  0  0  0  0  0  0  0
  149.4019  140.1080  157.4468 O   0  0  0  0  0  0  0  0  0  0  0  0
  151.3610  141.2693  158.3342 C   0  0  0  0  0  0  0  0  0  0  0  0
  152.1503  140.2053  158.8262 C   0  0  0  0  0  0  0  0  0  0  0  0
  153.0301  140.4115  159.9062 C   0  0  0  0  0  0  0  0  0  0  0  0
  153.1301  141.6838  160.5001 C   0  0  0  0  0  0  0  0  0  0  0  0
  153.9760  141.8823  161.5386 F   0  0  0  0  0  0  0  0  0  0  0  0
  152.3524  142.7503  160.0108 C   0  0  0  0  0  0  0  0  0  0  0  0
  151.4727  142.5465  158.9296 C   0  0  0  0  0  0  0  0  0  0  0  0
  150.7399  143.5868  158.4635 F   0  0  0  0  0  0  0  0  0  0  0  0
  151.3062  136.0871  153.5222 H   0  0  0  0  0  0  0  0  0  0  0  0
  152.1428  137.9697  155.3262 H   0  0  0  0  0  0  0  0  0  0  0  0
  152.3152  137.9183  153.5843 H   0  0  0  0  0  0  0  0  0  0  0  0
  146.9067  139.3601  152.2024 H   0  0  0  0  0  0  0  0  0  0  0  0
  145.8147  141.5230  152.8198 H   0  0  0  0  0  0  0  0  0  0  0  0
  146.8463  143.0405  154.4692 H   0  0  0  0  0  0  0  0  0  0  0  0
  149.0061  142.4653  155.5729 H   0  0  0  0  0  0  0  0  0  0  0  0
  151.9949  139.9287  156.1680 H   0  0  0  0  0  0  0  0  0  0  0  0
  151.6715  141.4714  155.4247 H   0  0  0  0  0  0  0  0  0  0  0  0
  149.9027  141.9899  156.9538 H   0  0  0  0  0  0  0  0  0  0  0  0
  149.4430  139.4186  156.8015 H   0  0  0  0  0  0  0  0  0  0  0  0
  152.0875  139.2256  158.3754 H   0  0  0  0  0  0  0  0  0  0  0  0
  153.6294  139.5933  160.2775 H   0  0  0  0  0  0  0  0  0  0  0  0
  152.4327  143.7274  160.4638 H   0  0  0  0  0  0  0  0  0  0  0  0
  149.2609  137.8113  152.8313 H   0  0  0  0  0  0  0  0  0  0  0  0
  1  2  1  0  0  0  0
  1 23  1  0  0  0  0
  2  3  1  0  0  0  0
  2 24  1  0  0  0  0
  2 25  1  0  0  0  0
  3 11  1  0  0  0  0
  3  4  2  0  0  0  0
  4  5  1  0  0  0  0
  4 37  1  0  0  0  0
  5 10  2  0  0  0  0
  5  6  1  0  0  0  0
  6  7  2  0  0  0  0
  6 26  1  0  0  0  0
  7  8  1  0  0  0  0
  7 27  1  0  0  0  0
  8  9  2  0  0  0  0
  8 28  1  0  0  0  0
  9 10  1  0  0  0  0
  9 29  1  0  0  0  0
 10 11  1  0  0  0  0
 11 12  1  0  0  0  0
 12 13  1  0  0  0  0
 12 30  1  0  0  0  0
 12 31  1  0  0  0  0
 13 14  1  0  0  0  0
 13 15  1  0  0  0  0
 13 32  1  0  0  0  0
 14 33  1  0  0  0  0
 15 21  1  0  0  0  0
 15 16  2  0  0  0  0
 16 17  1  0  0  0  0
 16 34  1  0  0  0  0
 17 18  2  0  0  0  0
 17 35  1  0  0  0  0
 18 19  1  0  0  0  0
 18 20  1  0  0  0  0
 20 21  2  0  0  0  0
 20 36  1  0  0  0  0
 21 22  1  0  0  0  0
M  CHG  1   4   1
M  END
> <s_m_source_file>
AV-unprocessed.smi

> <i_m_source_file_index>
1891

> <i_lp_mmshare_version>
43012

> <i_f3d_flags>
0

> <s_epik_input>
W2NIXTFbY0hdW2NIXVtjSF1jKGMxMiluKGMobjIpW0NIMl1bT0hdKVtDSDJdW0NASF0oW09IXSljM1tjSF1bY0hdYyhGKVtjSF1jM0Y=

> <s_epik_cmdline>
J2VwaWtfcHl0aG9uJywgJy1waCcsICc3LjAnLCAnLXRuJywgJzgnLCAnLW1hJywgJzIwMCcsICctbWV0YWxfYmluZGluZycsICctaW1hZScsICc8aW5maWxlLm1hZT4nLCAnLW9tYWUnLCAnPG91dGZpbGUubWFlPic=

> <r_epik_Ionization_Penalty>
1.35643

> <r_epik_Ionization_Penalty_Charging>
1.35557

> <r_epik_Ionization_Penalty_Neutral>
0.00085758

> <r_epik_State_Penalty>
1.43401

> <r_epik_Charging_Adjusted_Penalty>
2.78958

> <i_epik_Tot_Q>
1

> <i_epik_Tot_abs_Q>
1

> <r_epik_Metal_State_Penalty>
5.47166

> <b_epik_Metal_Only>
0

> <s_lp_Force_Field>
OPLS_2005

> <r_lp_Energy>
14.1785

> <b_lp_Chiralities_Consistent>
1

> <s_lp_Variant>
AV-unprocessed.smi:1891-4

> <Gold.Version>
5.8.1

> <Gold.Id.Protein>
6NUR|6NUR_protein|mol2

> <Gold.PLP.Fitness>
57.2612

> <Gold.PLP.PLP>
-49.4461

> <Gold.PLP.part.hbond>
-4.2458

> <Gold.PLP.part.metal>
0.0000

> <Gold.PLP.part.buried>
2.5272

> <Gold.PLP.part.nonpolar>
-48.1395

> <Gold.PLP.part.repulsive>
0.0814

> <Gold.PLP.ligand.clash>
0.0000

> <Gold.PLP.ligand.torsion>
0.6043

> <Gold.PLP.Chemscore.Hbond>
3.0000

> <Gold.PLP.Chemscore.CHOScore>
0.0000

> <Gold.PLP.Chemscore.Metal>
0.0000

> <Gold.Chemscore.Hbonds>
donor molecule, donor type, donor heavy atom, donor atom, acceptor molecule, acceptor atom, score
      L1  H     1    23       P1  7949  0.99
      L1  H     4    37       P1  7948  2.00

> <Gold.PLP.Chemscore.Internal.Correction>
0.0237

> <Gold.Rescore>
     Score         DG    S(hbond)    S(metal)    S(lipo)     H(rot)  DE(clash)    DE(int)     intcor
     13.47     -16.98       1.67        0.00     115.05       2.95       2.94       0.56       ----

> <Gold.Chemscore.Fitness>
13.4728

> <Gold.Chemscore.DG>
-16.9778

> <Gold.Chemscore.ZeroCoef>
-5.4800

> <Gold.Chemscore.Hbond>
1.6713

> <Gold.Chemscore.Metal>
0.0000

> <Gold.Chemscore.Lipo>
115.0542

> <Gold.Chemscore.Internal_Hbond>
0.0000

> <Gold.Chemscore.DEClash>
2.9423

> <Gold.Chemscore.DEInternal>
0.5627

> <Gold.Chemscore.Rot>
2.9475

> <Gold.Chemscore.Internal.Correction>
   9.000000E+99

> <Gold.Chemscore.Hbonds>
donor molecule, donor type, donor heavy atom, donor atom, acceptor molecule, acceptor atom, score
      L1  H     1    23       P1  7949  0.55
      L1  H     4    37       P1  7948  0.96

> <Gold.Chemscore.Hbond.Weighted>
-5.5821

> <Gold.Chemscore.Metal.Weighted>
-0.0000

> <Gold.Chemscore.Lipo.Weighted>
-13.4613

> <Gold.Chemscore.Internal_Hbond.Weighted>
0.0000

> <Gold.Chemscore.DEClash.Weighted>
2.9423

> <Gold.Chemscore.DEInternal.Weighted>
0.5627

> <Gold.Chemscore.Rot.Weighted>
7.5457

> <Gold.Chemscore.Internal.Correction.Weighted>
   9.000000E+99

> <Gold.Protein.RotatedTorsions>
[ 6907 6896 6895 6894 ] final  157.77 input  -60.11 | X-H torsion
[ 7974 7965 7964 7962 ] final -172.10 input  175.53 | X-H torsion
[ 8008 7997 7996 7995 ] final -155.89 input   59.86 | X-H torsion
[ 10167 10162 10161 10158 ] final  -64.41 input  -65.29 | X-H torsion
[ 10718 10713 10712 10709 ] final   25.86 input   66.30 | X-H torsion
[ 10763 10752 10751 10750 ] final  -83.27 input  -60.55 | X-H torsion
[ 11005 11000 10999 10996 ] final  -21.17 input  -57.11 | X-H torsion

> <Gold.Protein.ActiveResidues>
 VAL166  LYS551  ARG553  GLY616  TRP617  ASP618  TYR619  PRO620  LYS621  CYS622 
 ASP623  PHE694  ASN695  SER759  ASP760  ASP761  ALA762  ILE779  LEU786  VAL792 
 PHE793  MET794  SER795  GLU796  ALA797  LYS798  CYS799  TRP800  GLU811  SER814 

> <Gold.Protein.RotatedAtoms>
  152.0102  133.3858  159.4216 H   0  0  0  0  0  0  0  0  0  0  0  0  # atno 6907 bound_to 6896
  150.6900  134.3739  159.5013 H   0  0  0  0  0  0  0  0  0  0  0  0  # atno 6908 bound_to 6896
  152.1498  134.8997  160.0599 H   0  0  0  0  0  0  0  0  0  0  0  0  # atno 6909 bound_to 6896
  144.7150  140.1822  143.6357 H   0  0  0  0  0  0  0  0  0  0  0  0  # atno 7974 bound_to 7965
  155.7088  140.0776  157.2379 H   0  0  0  0  0  0  0  0  0  0  0  0  # atno 8008 bound_to 7997
  154.4061  140.1634  156.2327 H   0  0  0  0  0  0  0  0  0  0  0  0  # atno 8009 bound_to 7997
  155.9301  140.3392  155.6245 H   0  0  0  0  0  0  0  0  0  0  0  0  # atno 8010 bound_to 7997
  140.5802  143.2326  151.6357 H   0  0  0  0  0  0  0  0  0  0  0  0  # atno 10167 bound_to 10162
  157.1991  130.6881  149.6181 H   0  0  0  0  0  0  0  0  0  0  0  0  # atno 10718 bound_to 10713
  154.5858  135.5562  153.7229 H   0  0  0  0  0  0  0  0  0  0  0  0  # atno 10763 bound_to 10752
  153.0098  135.6331  154.1919 H   0  0  0  0  0  0  0  0  0  0  0  0  # atno 10764 bound_to 10752
  154.1860  135.2885  155.3017 H   0  0  0  0  0  0  0  0  0  0  0  0  # atno 10765 bound_to 10752
  140.8535  133.7839  155.9993 H   0  0  0  0  0  0  0  0  0  0  0  0  # atno 11005 bound_to 11000
  145.8845  139.2341  143.1585 LP  0  0  0  0  0  0  0  0  0  0  0  0  # atno 17320 bound_to 7965
  145.9962  140.8560  143.0041 LP  0  0  0  0  0  0  0  0  0  0  0  0  # atno 17321 bound_to 7965
  139.5165  144.3343  152.0798 LP  0  0  0  0  0  0  0  0  0  0  0  0  # atno 17342 bound_to 10162
  140.2492  144.4187  150.6228 LP  0  0  0  0  0  0  0  0  0  0  0  0  # atno 17343 bound_to 10162
  155.9702  130.4589  150.6016 LP  0  0  0  0  0  0  0  0  0  0  0  0  # atno 17370 bound_to 10713
  157.3785  131.0777  151.1497 LP  0  0  0  0  0  0  0  0  0  0  0  0  # atno 17371 bound_to 10713
  140.8763  134.2665  157.5166 LP  0  0  0  0  0  0  0  0  0  0  0  0  # atno 17394 bound_to 11000
  139.8704  134.9593  156.4327 LP  0  0  0  0  0  0  0  0  0  0  0  0  # atno 17395 bound_to 11000

$$$$
