AV-unprocessed.smi:3140|AV-procd|sdf|11959|dock4
  -GOLD-   2272017363D 1   1.00000     0.00000
 Structure written by MMmdl.
 38 39  0  0  0  0  0  0  0  0  2 V2000
  146.3552  138.6858  151.5743 C   0  0  0  0  0  0  0  0  0  0  0  0
  146.9527  138.7170  152.9875 C   0  0  1  0  0  0  0  0  0  0  0  0
  146.4270  137.5333  153.8286 C   0  0  0  0  0  0  0  0  0  0  0  0
  145.4938  136.6912  153.1016 N   0  0  0  0  0  0  0  0  0  0  0  0
  145.7588  135.7871  152.0944 C   0  0  0  0  0  0  0  0  0  0  0  0
  144.5640  135.2519  151.7059 C   0  0  0  0  0  0  0  0  0  0  0  0
  143.6140  135.8954  152.5475 C   0  0  0  0  0  0  0  0  0  0  0  0
  144.1739  136.7564  153.3822 N   0  0  0  0  0  0  0  0  0  0  0  0
  148.4308  138.6967  152.8968 N   0  3  0  0  0  0  0  0  0  0  0  0
  149.1346  138.7926  154.1924 C   0  0  0  0  0  0  0  0  0  0  0  0
  150.6491  138.6141  154.0097 C   0  0  0  0  0  0  0  0  0  0  0  0
  151.3927  139.1594  155.1417 N   0  0  0  0  0  0  0  0  0  0  0  0
  151.2724  140.5602  155.5090 C   0  0  0  0  0  0  0  0  0  0  0  0
  152.0276  140.6874  156.8402 C   0  0  0  0  0  0  0  0  0  0  0  0
  152.8577  139.4058  156.9715 C   0  0  0  0  0  0  0  0  0  0  0  0
  152.2681  138.4962  155.9071 C   0  0  0  0  0  0  0  0  0  0  0  0
  152.5770  137.3109  155.7936 O   0  0  0  0  0  0  0  0  0  0  0  0
  145.2665  138.7353  151.6075 H   0  0  0  0  0  0  0  0  0  0  0  0
  146.6301  137.7730  151.0445 H   0  0  0  0  0  0  0  0  0  0  0  0
  146.7031  139.5327  150.9817 H   0  0  0  0  0  0  0  0  0  0  0  0
  146.6354  139.6522  153.4523 H   0  0  0  0  0  0  0  0  0  0  0  0
  147.2601  136.9061  154.1491 H   0  0  0  0  0  0  0  0  0  0  0  0
  145.9448  137.8933  154.7393 H   0  0  0  0  0  0  0  0  0  0  0  0
  146.7623  135.6059  151.7381 H   0  0  0  0  0  0  0  0  0  0  0  0
  144.3934  134.5130  150.9368 H   0  0  0  0  0  0  0  0  0  0  0  0
  142.5419  135.7662  152.5740 H   0  0  0  0  0  0  0  0  0  0  0  0
  148.7062  137.8408  152.4356 H   0  0  0  0  0  0  0  0  0  0  0  0
  148.9192  139.7623  154.6436 H   0  0  0  0  0  0  0  0  0  0  0  0
  148.7517  138.0351  154.8754 H   0  0  0  0  0  0  0  0  0  0  0  0
  150.8920  137.5555  153.9009 H   0  0  0  0  0  0  0  0  0  0  0  0
  150.9759  139.1023  153.0905 H   0  0  0  0  0  0  0  0  0  0  0  0
  151.7360  141.1755  154.7367 H   0  0  0  0  0  0  0  0  0  0  0  0
  150.2281  140.8597  155.6056 H   0  0  0  0  0  0  0  0  0  0  0  0
  152.6499  141.5827  156.8678 H   0  0  0  0  0  0  0  0  0  0  0  0
  151.3201  140.7553  157.6677 H   0  0  0  0  0  0  0  0  0  0  0  0
  153.9098  139.5882  156.7500 H   0  0  0  0  0  0  0  0  0  0  0  0
  152.7793  138.9619  157.9644 H   0  0  0  0  0  0  0  0  0  0  0  0
  148.7269  139.4774  152.3284 H   0  0  0  0  0  0  0  0  0  0  0  0
  1  2  1  0  0  0  0
  1 18  1  0  0  0  0
  1 19  1  0  0  0  0
  1 20  1  0  0  0  0
  2  3  1  0  0  0  0
  2  9  1  0  0  0  0
  2 21  1  0  0  0  0
  3  4  1  0  0  0  0
  3 22  1  0  0  0  0
  3 23  1  0  0  0  0
  4  8  1  0  0  0  0
  4  5  1  0  0  0  0
  5  6  2  0  0  0  0
  5 24  1  0  0  0  0
  6  7  1  0  0  0  0
  6 25  1  0  0  0  0
  7  8  2  0  0  0  0
  7 26  1  0  0  0  0
  9 10  1  0  0  0  0
  9 27  1  0  0  0  0
  9 38  1  0  0  0  0
 10 11  1  0  0  0  0
 10 28  1  0  0  0  0
 10 29  1  0  0  0  0
 11 12  1  0  0  0  0
 11 30  1  0  0  0  0
 11 31  1  0  0  0  0
 12 16  1  0  0  0  0
 12 13  1  0  0  0  0
 13 14  1  0  0  0  0
 13 32  1  0  0  0  0
 13 33  1  0  0  0  0
 14 15  1  0  0  0  0
 14 34  1  0  0  0  0
 14 35  1  0  0  0  0
 15 16  1  0  0  0  0
 15 36  1  0  0  0  0
 15 37  1  0  0  0  0
 16 17  2  0  0  0  0
M  CHG  1   9   1
M  END
> <s_m_source_file>
AV-unprocessed.smi

> <i_m_source_file_index>
3140

> <i_lp_mmshare_version>
43012

> <i_f3d_flags>
0

> <s_epik_input>
bjFbY0hdW2NIXVtjSF1uMVtDSDJdW0NAQEhdKFtDSDNdKVtOSF1bQ0gyXVtDSDJdTjJbQ0gyXVtDSDJdW0NIMl1DMj1P

> <s_epik_cmdline>
J2VwaWtfcHl0aG9uJywgJy1waCcsICc3LjAnLCAnLXRuJywgJzgnLCAnLW1hJywgJzIwMCcsICctbWV0YWxfYmluZGluZycsICctaW1hZScsICc8aW5maWxlLm1hZT4nLCAnLW9tYWUnLCAnPG91dGZpbGUubWFlPic=

> <r_lp_tautomer_probability>
1

> <r_epik_Ionization_Penalty>
0.00826299

> <r_epik_Ionization_Penalty_Charging>
0.00825899

> <r_epik_Ionization_Penalty_Neutral>
3.99893e-06

> <r_epik_State_Penalty>
0.00621436

> <r_epik_Charging_Adjusted_Penalty>
0.0144734

> <i_epik_Tot_Q>
1

> <i_epik_Tot_abs_Q>
1

> <r_epik_Metal_State_Penalty>
0.00621472

> <b_epik_Metal_Only>
0

> <s_lp_Force_Field>
OPLS_2005

> <r_lp_Energy>
19.0418

> <b_lp_Chiralities_Consistent>
1

> <s_lp_Variant>
AV-unprocessed.smi:3140-2

> <Gold.Version>
5.8.1

> <Gold.Id.Protein>
6NUR|6NUR_protein|mol2

> <Gold.PLP.Fitness>
43.4874

> <Gold.PLP.PLP>
-30.4555

> <Gold.PLP.part.hbond>
-2.7452

> <Gold.PLP.part.metal>
0.0000

> <Gold.PLP.part.buried>
-2.3115

> <Gold.PLP.part.nonpolar>
-27.0901

> <Gold.PLP.part.repulsive>
0.2523

> <Gold.PLP.ligand.clash>
0.0000

> <Gold.PLP.ligand.torsion>
1.0297

> <Gold.PLP.Chemscore.Hbond>
3.9920

> <Gold.PLP.Chemscore.CHOScore>
1.0000

> <Gold.PLP.Chemscore.Metal>
0.0000

> <Gold.Chemscore.Hbonds>
donor molecule, donor type, donor heavy atom, donor atom, acceptor molecule, acceptor atom, score
      L1  H     9    27       P1  7948  2.00
      L1  H     9    38       P1  7957  0.98
      P1  H 10752 10765       L1    17  0.68
      L1  C     5    24       P1  7948  1.00

> <Gold.PLP.Chemscore.Internal.Correction>
0.1154

> <Gold.Rescore>
     Score         DG    S(hbond)    S(metal)    S(lipo)     H(rot)  DE(clash)    DE(int)     intcor
     16.52     -17.76       2.93        0.00      66.44       2.06       0.08       1.16       ----

> <Gold.Chemscore.Fitness>
16.5247

> <Gold.Chemscore.DG>
-17.7639

> <Gold.Chemscore.ZeroCoef>
-5.4800

> <Gold.Chemscore.Hbond>
2.9259

> <Gold.Chemscore.Metal>
0.0000

> <Gold.Chemscore.Lipo>
66.4446

> <Gold.Chemscore.Internal_Hbond>
0.0000

> <Gold.Chemscore.DEClash>
0.0787

> <Gold.Chemscore.DEInternal>
1.1604

> <Gold.Chemscore.Rot>
2.0557

> <Gold.Chemscore.Internal.Correction>
   9.000000E+99

> <Gold.Chemscore.Hbonds>
donor molecule, donor type, donor heavy atom, donor atom, acceptor molecule, acceptor atom, score
      L1  H     9    27       P1  7948  1.00
      L1  H     9    38       P1  7957  0.90
      P1  H 10752 10765       L1    17  0.65

> <Gold.Chemscore.Hbond.Weighted>
-9.7725

> <Gold.Chemscore.Metal.Weighted>
-0.0000

> <Gold.Chemscore.Lipo.Weighted>
-7.7740

> <Gold.Chemscore.Internal_Hbond.Weighted>
0.0000

> <Gold.Chemscore.DEClash.Weighted>
0.0787

> <Gold.Chemscore.DEInternal.Weighted>
1.1604

> <Gold.Chemscore.Rot.Weighted>
5.2627

> <Gold.Chemscore.Internal.Correction.Weighted>
   9.000000E+99

> <Gold.Protein.RotatedTorsions>
[ 6907 6896 6895 6894 ] final  -46.17 input  -60.11 | X-H torsion
[ 7974 7965 7964 7962 ] final   83.36 input  175.53 | X-H torsion
[ 8008 7997 7996 7995 ] final  158.05 input   59.86 | X-H torsion
[ 10167 10162 10161 10158 ] final  -11.87 input  -65.29 | X-H torsion
[ 10718 10713 10712 10709 ] final -132.66 input   66.30 | X-H torsion
[ 10763 10752 10751 10750 ] final -150.17 input  -60.55 | X-H torsion
[ 11005 11000 10999 10996 ] final   74.32 input  -57.11 | X-H torsion

> <Gold.Protein.ActiveResidues>
 VAL166  LYS551  ARG553  GLY616  TRP617  ASP618  TYR619  PRO620  LYS621  CYS622 
 ASP623  PHE694  ASN695  SER759  ASP760  ASP761  ALA762  ILE779  LEU786  VAL792 
 PHE793  MET794  SER795  GLU796  ALA797  LYS798  CYS799  TRP800  GLU811  SER814 

> <Gold.Protein.RotatedAtoms>
  150.9141  134.8558  159.7444 H   0  0  0  0  0  0  0  0  0  0  0  0  # atno 6907 bound_to 6896
  152.4959  134.4316  159.9524 H   0  0  0  0  0  0  0  0  0  0  0  0  # atno 6908 bound_to 6896
  151.4355  133.3618  159.2810 H   0  0  0  0  0  0  0  0  0  0  0  0  # atno 6909 bound_to 6896
  145.6129  139.2371  143.2182 H   0  0  0  0  0  0  0  0  0  0  0  0  # atno 7974 bound_to 7965
  156.2326  140.1868  156.7202 H   0  0  0  0  0  0  0  0  0  0  0  0  # atno 8008 bound_to 7997
  154.6050  140.0630  156.9446 H   0  0  0  0  0  0  0  0  0  0  0  0  # atno 8009 bound_to 7997
  155.2111  140.3300  155.4331 H   0  0  0  0  0  0  0  0  0  0  0  0  # atno 8010 bound_to 7997
  140.7148  143.5593  150.9213 H   0  0  0  0  0  0  0  0  0  0  0  0  # atno 10167 bound_to 10162
  156.2369  130.7072  151.0916 H   0  0  0  0  0  0  0  0  0  0  0  0  # atno 10718 bound_to 10713
  154.8135  135.3291  154.7241 H   0  0  0  0  0  0  0  0  0  0  0  0  # atno 10763 bound_to 10752
  153.7886  135.6913  153.4880 H   0  0  0  0  0  0  0  0  0  0  0  0  # atno 10764 bound_to 10752
  153.1932  135.4543  155.0121 H   0  0  0  0  0  0  0  0  0  0  0  0  # atno 10765 bound_to 10752
  139.9397  134.7423  156.1133 H   0  0  0  0  0  0  0  0  0  0  0  0  # atno 11005 bound_to 11000
  146.1490  140.6952  142.9331 LP  0  0  0  0  0  0  0  0  0  0  0  0  # atno 17320 bound_to 7965
  144.7262  140.4532  143.6971 LP  0  0  0  0  0  0  0  0  0  0  0  0  # atno 17321 bound_to 7965
  139.9318  143.6484  152.3074 LP  0  0  0  0  0  0  0  0  0  0  0  0  # atno 17342 bound_to 10162
  139.6937  144.7644  151.1393 LP  0  0  0  0  0  0  0  0  0  0  0  0  # atno 17343 bound_to 10162
  157.7158  131.0710  150.6331 LP  0  0  0  0  0  0  0  0  0  0  0  0  # atno 17370 bound_to 10713
  156.6402  130.4456  149.5755 LP  0  0  0  0  0  0  0  0  0  0  0  0  # atno 17371 bound_to 10713
  141.1026  133.6672  156.2789 LP  0  0  0  0  0  0  0  0  0  0  0  0  # atno 17394 bound_to 11000
  140.5984  134.5579  157.5513 LP  0  0  0  0  0  0  0  0  0  0  0  0  # atno 17395 bound_to 11000

$$$$
