AV-unprocessed.smi:55|AV-procd|sdf|567|dock7
  -GOLD-   2262016473D 1   1.00000     0.00000
 Structure written by MMmdl.
 31 32  0  0  0  0  0  0  0  0  1 V2000
  151.9667  144.8063  158.1339 C   0  0  0  0  0  0  0  0  0  0  0  0
  151.7825  143.3112  158.3350 C   0  0  0  0  0  0  0  0  0  0  0  0
  150.9742  142.5640  157.5405 C   0  0  0  0  0  0  0  0  0  0  0  0
  150.7899  141.1970  157.6955 N   0  0  0  0  0  0  0  0  0  0  0  0
  149.8804  140.4213  156.7700 C   0  0  2  0  0  0  0  0  0  0  0  0
  150.4398  140.4073  155.3463 C   0  0  0  0  0  0  0  0  0  0  0  0
  149.1763  140.5386  154.5220 C   0  0  2  0  0  0  0  0  0  0  0  0
  149.4606  141.1103  153.2616 O   0  0  0  0  0  0  0  0  0  0  0  0
  148.3171  141.4516  155.4023 C   0  0  1  0  0  0  0  0  0  0  0  0
  146.8027  141.3270  155.1743 C   0  0  0  0  0  0  0  0  0  0  0  0
  146.4831  141.5684  153.8206 O   0  0  0  0  0  0  0  0  0  0  0  0
  148.6294  141.0448  156.7333 O   0  0  0  0  0  0  0  0  0  0  0  0
  151.4885  140.5172  158.7149 C   0  0  0  0  0  0  0  0  0  0  0  0
  151.4018  139.3033  158.8950 O   0  0  0  0  0  0  0  0  0  0  0  0
  152.3147  141.2843  159.5344 N   0  0  0  0  0  0  0  0  0  0  0  0
  152.5170  142.6622  159.4244 C   0  0  0  0  0  0  0  0  0  0  0  0
  153.2708  143.2300  160.2129 O   0  0  0  0  0  0  0  0  0  0  0  0
  149.7368  139.4245  157.1896 H   0  0  0  0  0  0  0  0  0  0  0  0
  148.7055  139.5622  154.3988 H   0  0  0  0  0  0  0  0  0  0  0  0
  148.6338  142.4901  155.2915 H   0  0  0  0  0  0  0  0  0  0  0  0
  152.8142  140.8021  160.2674 H   0  0  0  0  0  0  0  0  0  0  0  0
  151.3616  145.1808  157.3079 H   0  0  0  0  0  0  0  0  0  0  0  0
  153.0103  145.0346  157.9143 H   0  0  0  0  0  0  0  0  0  0  0  0
  151.6784  145.3514  159.0333 H   0  0  0  0  0  0  0  0  0  0  0  0
  150.4523  143.0640  156.7389 H   0  0  0  0  0  0  0  0  0  0  0  0
  151.0915  141.2705  155.1983 H   0  0  0  0  0  0  0  0  0  0  0  0
  151.0055  139.4959  155.1506 H   0  0  0  0  0  0  0  0  0  0  0  0
  149.3031  140.4582  152.5954 H   0  0  0  0  0  0  0  0  0  0  0  0
  146.4412  140.3408  155.4670 H   0  0  0  0  0  0  0  0  0  0  0  0
  146.2719  142.0583  155.7842 H   0  0  0  0  0  0  0  0  0  0  0  0
  145.7782  142.1970  153.7859 H   0  0  0  0  0  0  0  0  0  0  0  0
  1  2  1  0  0  0  0
  1 22  1  0  0  0  0
  1 23  1  0  0  0  0
  1 24  1  0  0  0  0
  2 16  1  0  0  0  0
  2  3  2  0  0  0  0
  3  4  1  0  0  0  0
  3 25  1  0  0  0  0
  4  5  1  0  0  0  0
  4 13  1  0  0  0  0
  5 18  1  0  0  0  0
  5 12  1  0  0  0  0
  5  6  1  0  0  0  0
  6  7  1  0  0  0  0
  6 26  1  0  0  0  0
  6 27  1  0  0  0  0
  7 19  1  0  0  0  0
  7  8  1  0  0  0  0
  7  9  1  0  0  0  0
  8 28  1  0  0  0  0
  9 20  1  0  0  0  0
  9 10  1  0  0  0  0
  9 12  1  0  0  0  0
 10 11  1  0  0  0  0
 10 29  1  0  0  0  0
 10 30  1  0  0  0  0
 11 31  1  0  0  0  0
 13 14  2  0  0  0  0
 13 15  1  0  0  0  0
 15 21  1  0  0  0  0
 15 16  1  0  0  0  0
 16 17  2  0  0  0  0
M  END
> <s_m_source_file>
AV-unprocessed.smi

> <i_m_source_file_index>
55

> <i_lp_mmshare_version>
43012

> <i_f3d_flags>
0

> <s_epik_input>
Tz1jMVtuSF1jKD1PKW4oW2NIXWMxW0NIM10pW0NAQEhdMltDSDJdW0NAQEhdKFtPSF0pW0NAQEhdKE8yKVtDSDJdW09IXQ==

> <s_epik_cmdline>
J2VwaWtfcHl0aG9uJywgJy1waCcsICc3LjAnLCAnLXRuJywgJzgnLCAnLW1hJywgJzIwMCcsICctbWV0YWxfYmluZGluZycsICctaW1hZScsICc8aW5maWxlLm1hZT4nLCAnLW9tYWUnLCAnPG91dGZpbGUubWFlPic=

> <r_lp_tautomer_probability>
0.999537

> <r_epik_Ionization_Penalty>
0.00121888

> <r_epik_Ionization_Penalty_Charging>
0.00121876

> <r_epik_Ionization_Penalty_Neutral>
1.19946e-07

> <r_epik_State_Penalty>
0.000805124

> <r_epik_Charging_Adjusted_Penalty>
0.00202389

> <i_epik_Tot_Q>
0

> <i_epik_Tot_abs_Q>
0

> <r_epik_Metal_State_Penalty>
0.662472

> <b_epik_Metal_Only>
0

> <s_epik_Chemistry_Notes>
This compound contains an acetal/aminal-like group ( X-CH(R)-Y where X, Y are N, S, or O) that may be acid/base labile, releasing an aldehyde.

> <s_lp_Force_Field>
OPLS_2005

> <r_lp_Energy>
24.0727

> <b_lp_Chiralities_Consistent>
1

> <s_lp_Variant>
AV-unprocessed.smi:55-7

> <Gold.Version>
5.8.1

> <Gold.Id.Protein>
6NUR|6NUR_protein|mol2

> <Gold.PLP.Fitness>
40.2921

> <Gold.PLP.PLP>
-31.8785

> <Gold.PLP.part.hbond>
-2.4187

> <Gold.PLP.part.metal>
0.0000

> <Gold.PLP.part.buried>
-4.0830

> <Gold.PLP.part.nonpolar>
-24.7615

> <Gold.PLP.part.repulsive>
0.1942

> <Gold.PLP.ligand.clash>
0.0000

> <Gold.PLP.ligand.torsion>
0.1251

> <Gold.PLP.Chemscore.Hbond>
1.9005

> <Gold.PLP.Chemscore.CHOScore>
0.9849

> <Gold.PLP.Chemscore.Metal>
0.0000

> <Gold.Chemscore.Hbonds>
donor molecule, donor type, donor heavy atom, donor atom, acceptor molecule, acceptor atom, score
      L1  H     8    28       P1  7957  0.86
      P1  H  7989  7998       L1     8  0.07
      P1  H  8011  8017       L1     8  1.00
      L1  C     3    25       P1  8028  1.00

> <Gold.PLP.Chemscore.Internal.Correction>
0.0077

> <Gold.Rescore>
     Score         DG    S(hbond)    S(metal)    S(lipo)     H(rot)  DE(clash)    DE(int)     intcor
      9.24      -9.49       1.22        0.00      58.91       2.73       0.15       0.10       ----

> <Gold.Chemscore.Fitness>
9.2412

> <Gold.Chemscore.DG>
-9.4854

> <Gold.Chemscore.ZeroCoef>
-5.4800

> <Gold.Chemscore.Hbond>
1.2243

> <Gold.Chemscore.Metal>
0.0000

> <Gold.Chemscore.Lipo>
58.9146

> <Gold.Chemscore.Internal_Hbond>
0.0000

> <Gold.Chemscore.DEClash>
0.1489

> <Gold.Chemscore.DEInternal>
0.0953

> <Gold.Chemscore.Rot>
2.7253

> <Gold.Chemscore.Internal.Correction>
   9.000000E+99

> <Gold.Chemscore.Hbonds>
donor molecule, donor type, donor heavy atom, donor atom, acceptor molecule, acceptor atom, score
      L1  H     8    28       P1  7957  0.80
      P1  H  8011  8017       L1     8  0.25

> <Gold.Chemscore.Hbond.Weighted>
-4.0893

> <Gold.Chemscore.Metal.Weighted>
-0.0000

> <Gold.Chemscore.Lipo.Weighted>
-6.8930

> <Gold.Chemscore.Internal_Hbond.Weighted>
0.0000

> <Gold.Chemscore.DEClash.Weighted>
0.1489

> <Gold.Chemscore.DEInternal.Weighted>
0.0953

> <Gold.Chemscore.Rot.Weighted>
6.9769

> <Gold.Chemscore.Internal.Correction.Weighted>
   9.000000E+99

> <Gold.Protein.RotatedTorsions>
[ 6907 6896 6895 6894 ] final   60.63 input  -60.11 | X-H torsion
[ 7974 7965 7964 7962 ] final -159.70 input  175.53 | X-H torsion
[ 8008 7997 7996 7995 ] final -117.04 input   59.86 | X-H torsion
[ 10167 10162 10161 10158 ] final  153.54 input  -65.29 | X-H torsion
[ 10718 10713 10712 10709 ] final  -34.29 input   66.30 | X-H torsion
[ 10763 10752 10751 10750 ] final -150.37 input  -60.55 | X-H torsion
[ 11005 11000 10999 10996 ] final  -28.42 input  -57.11 | X-H torsion

> <Gold.Protein.ActiveResidues>
 VAL166  LYS551  ARG553  GLY616  TRP617  ASP618  TYR619  PRO620  LYS621  CYS622 
 ASP623  PHE694  ASN695  SER759  ASP760  ASP761  ALA762  ILE779  LEU786  VAL792 
 PHE793  MET794  SER795  GLU796  ALA797  LYS798  CYS799  TRP800  GLU811  SER814 

> <Gold.Protein.RotatedAtoms>
  152.4019  134.6271  160.0065 H   0  0  0  0  0  0  0  0  0  0  0  0  # atno 6907 bound_to 6896
  151.6474  133.3317  159.3152 H   0  0  0  0  0  0  0  0  0  0  0  0  # atno 6908 bound_to 6896
  150.7919  134.6991  159.6584 H   0  0  0  0  0  0  0  0  0  0  0  0  # atno 6909 bound_to 6896
  144.7455  140.3647  143.6088 H   0  0  0  0  0  0  0  0  0  0  0  0  # atno 7974 bound_to 7965
  155.0774  140.0394  157.2628 H   0  0  0  0  0  0  0  0  0  0  0  0  # atno 8008 bound_to 7997
  154.6934  140.2658  155.6765 H   0  0  0  0  0  0  0  0  0  0  0  0  # atno 8009 bound_to 7997
  156.2736  140.2755  156.1520 H   0  0  0  0  0  0  0  0  0  0  0  0  # atno 8010 bound_to 7997
  139.4827  144.5264  151.7794 H   0  0  0  0  0  0  0  0  0  0  0  0  # atno 10167 bound_to 10162
  156.3523  130.4310  149.7694 H   0  0  0  0  0  0  0  0  0  0  0  0  # atno 10718 bound_to 10713
  154.8122  135.3286  154.7273 H   0  0  0  0  0  0  0  0  0  0  0  0  # atno 10763 bound_to 10752
  153.7920  135.6910  153.4874 H   0  0  0  0  0  0  0  0  0  0  0  0  # atno 10764 bound_to 10752
  153.1910  135.4551  155.0096 H   0  0  0  0  0  0  0  0  0  0  0  0  # atno 10765 bound_to 10752
  140.9206  133.7401  156.0796 H   0  0  0  0  0  0  0  0  0  0  0  0  # atno 11005 bound_to 11000
  145.7140  139.1692  143.2522 LP  0  0  0  0  0  0  0  0  0  0  0  0  # atno 17320 bound_to 7965
  146.1326  140.7165  142.9405 LP  0  0  0  0  0  0  0  0  0  0  0  0  # atno 17321 bound_to 7965
  140.4784  144.1485  150.5928 LP  0  0  0  0  0  0  0  0  0  0  0  0  # atno 17342 bound_to 10162
  140.4304  143.2570  151.9602 LP  0  0  0  0  0  0  0  0  0  0  0  0  # atno 17343 bound_to 10162
  156.4889  130.8076  151.3086 LP  0  0  0  0  0  0  0  0  0  0  0  0  # atno 17370 bound_to 10713
  157.7463  130.9981  150.2842 LP  0  0  0  0  0  0  0  0  0  0  0  0  # atno 17371 bound_to 10713
  140.7992  134.3528  157.5444 LP  0  0  0  0  0  0  0  0  0  0  0  0  # atno 17394 bound_to 11000
  139.8775  134.9187  156.3210 LP  0  0  0  0  0  0  0  0  0  0  0  0  # atno 17395 bound_to 11000

$$$$
