AV-unprocessed.smi:3085|AV-procd|sdf|11750|dock4
  -GOLD-   2272017143D 1   1.00000     0.00000
 Structure written by MMmdl.
 28 29  0  0  0  0  0  0  0  0  2 V2000
  152.4795  142.9706  159.2280 C   0  0  0  0  0  0  0  0  0  0  0  0
  151.3935  143.4419  158.2547 C   0  0  0  0  0  0  0  0  0  0  0  0
  151.0255  142.3938  157.2565 C   0  0  0  0  0  0  0  0  0  0  0  0
  151.5438  141.1714  157.2034 N   0  0  0  0  0  0  0  0  0  0  0  0
  150.8755  140.6691  156.1211 C   0  0  0  0  0  0  0  0  0  0  0  0
  151.1399  139.2942  155.5894 C   0  0  2  0  0  0  0  0  0  0  0  0
  150.3051  138.9856  154.3321 C   0  0  0  0  0  0  0  0  0  0  0  0
  150.5372  137.5921  153.9057 N   0  3  0  0  0  0  0  0  0  0  0  0
  150.2720  136.6398  155.0024 C   0  0  0  0  0  0  0  0  0  0  0  0
  151.0938  137.0215  156.2469 C   0  0  0  0  0  0  0  0  0  0  0  0
  150.8086  138.3659  156.6208 O   0  0  0  0  0  0  0  0  0  0  0  0
  150.0309  141.5074  155.5190 N   0  0  0  0  0  0  0  0  0  0  0  0
  150.1403  142.6148  156.2828 N   0  0  0  0  0  0  0  0  0  0  0  0
  149.6220  143.4634  156.1034 H   0  0  0  0  0  0  0  0  0  0  0  0
  152.7267  143.7543  159.9441 H   0  0  0  0  0  0  0  0  0  0  0  0
  153.3938  142.7034  158.6971 H   0  0  0  0  0  0  0  0  0  0  0  0
  152.1509  142.0965  159.7913 H   0  0  0  0  0  0  0  0  0  0  0  0
  150.4981  143.7267  158.8082 H   0  0  0  0  0  0  0  0  0  0  0  0
  151.7299  144.3353  157.7270 H   0  0  0  0  0  0  0  0  0  0  0  0
  152.2044  139.2107  155.3616 H   0  0  0  0  0  0  0  0  0  0  0  0
  149.2421  139.1230  154.5363 H   0  0  0  0  0  0  0  0  0  0  0  0
  150.5678  139.6619  153.5184 H   0  0  0  0  0  0  0  0  0  0  0  0
  149.9403  137.3763  153.1197 H   0  0  0  0  0  0  0  0  0  0  0  0
  149.2066  136.6500  155.2368 H   0  0  0  0  0  0  0  0  0  0  0  0
  150.5195  135.6304  154.6731 H   0  0  0  0  0  0  0  0  0  0  0  0
  150.8452  136.3621  157.0787 H   0  0  0  0  0  0  0  0  0  0  0  0
  152.1622  136.9050  156.0575 H   0  0  0  0  0  0  0  0  0  0  0  0
  151.5023  137.4979  153.6223 H   0  0  0  0  0  0  0  0  0  0  0  0
  1  2  1  0  0  0  0
  1 15  1  0  0  0  0
  1 16  1  0  0  0  0
  1 17  1  0  0  0  0
  2  3  1  0  0  0  0
  2 18  1  0  0  0  0
  2 19  1  0  0  0  0
  3 13  1  0  0  0  0
  3  4  2  0  0  0  0
  4  5  1  0  0  0  0
  5  6  1  0  0  0  0
  5 12  2  0  0  0  0
  6 11  1  0  0  0  0
  6  7  1  0  0  0  0
  6 20  1  0  0  0  0
  7  8  1  0  0  0  0
  7 21  1  0  0  0  0
  7 22  1  0  0  0  0
  8  9  1  0  0  0  0
  8 23  1  0  0  0  0
  8 28  1  0  0  0  0
  9 10  1  0  0  0  0
  9 24  1  0  0  0  0
  9 25  1  0  0  0  0
 10 11  1  0  0  0  0
 10 26  1  0  0  0  0
 10 27  1  0  0  0  0
 12 13  1  0  0  0  0
 13 14  1  0  0  0  0
M  CHG  1   8   1
M  END
> <s_m_source_file>
AV-unprocessed.smi

> <i_m_source_file_index>
3085

> <i_lp_mmshare_version>
43012

> <i_f3d_flags>
0

> <s_epik_input>
W0NIM11bQ0gyXWMxbmMobltuSF0xKVtDQEBIXTJbQ0gyXVtOSF1bQ0gyXVtDSDJdTzI=

> <s_epik_cmdline>
J2VwaWtfcHl0aG9uJywgJy1waCcsICc3LjAnLCAnLXRuJywgJzgnLCAnLW1hJywgJzIwMCcsICctbWV0YWxfYmluZGluZycsICctaW1hZScsICc8aW5maWxlLm1hZT4nLCAnLW9tYWUnLCAnPG91dGZpbGUubWFlPic=

> <r_lp_tautomer_probability>
0.948284

> <r_epik_Ionization_Penalty>
0.107151

> <r_epik_Ionization_Penalty_Charging>
0.100865

> <r_epik_Ionization_Penalty_Neutral>
0.00628602

> <r_epik_State_Penalty>
0.429695

> <r_epik_Charging_Adjusted_Penalty>
0.530559

> <i_epik_Tot_Q>
1

> <i_epik_Tot_abs_Q>
1

> <r_epik_Metal_State_Penalty>
0.651827

> <b_epik_Metal_Only>
0

> <s_lp_Force_Field>
OPLS_2005

> <r_lp_Energy>
10.1089

> <b_lp_Chiralities_Consistent>
1

> <s_lp_Variant>
AV-unprocessed.smi:3085-1

> <Gold.Version>
5.8.1

> <Gold.Id.Protein>
6NUR|6NUR_protein|mol2

> <Gold.PLP.Fitness>
32.6538

> <Gold.PLP.PLP>
-23.6621

> <Gold.PLP.part.hbond>
-3.1188

> <Gold.PLP.part.metal>
0.0000

> <Gold.PLP.part.buried>
-3.3621

> <Gold.PLP.part.nonpolar>
-18.7364

> <Gold.PLP.part.repulsive>
0.3042

> <Gold.PLP.ligand.clash>
0.0000

> <Gold.PLP.ligand.torsion>
0.0135

> <Gold.PLP.Chemscore.Hbond>
3.0000

> <Gold.PLP.Chemscore.CHOScore>
0.0000

> <Gold.PLP.Chemscore.Metal>
0.0000

> <Gold.Chemscore.Hbonds>
donor molecule, donor type, donor heavy atom, donor atom, acceptor molecule, acceptor atom, score
      L1  H     8    23       P1  7948  2.00
      L1  H    13    14       P1  8028  0.98

> <Gold.PLP.Chemscore.Internal.Correction>
0.0188

> <Gold.Rescore>
     Score         DG    S(hbond)    S(metal)    S(lipo)     H(rot)  DE(clash)    DE(int)     intcor
     13.66     -13.72       1.86        0.00      45.80       1.30       0.05       0.01       ----

> <Gold.Chemscore.Fitness>
13.6568

> <Gold.Chemscore.DG>
-13.7158

> <Gold.Chemscore.ZeroCoef>
-5.4800

> <Gold.Chemscore.Hbond>
1.8587

> <Gold.Chemscore.Metal>
0.0000

> <Gold.Chemscore.Lipo>
45.7993

> <Gold.Chemscore.Internal_Hbond>
0.0000

> <Gold.Chemscore.DEClash>
0.0460

> <Gold.Chemscore.DEInternal>
0.0130

> <Gold.Chemscore.Rot>
1.3011

> <Gold.Chemscore.Internal.Correction>
   9.000000E+99

> <Gold.Chemscore.Hbonds>
donor molecule, donor type, donor heavy atom, donor atom, acceptor molecule, acceptor atom, score
      L1  H     8    23       P1  7948  0.30
      L1  H    13    14       P1  8028  0.92

> <Gold.Chemscore.Hbond.Weighted>
-6.2081

> <Gold.Chemscore.Metal.Weighted>
-0.0000

> <Gold.Chemscore.Lipo.Weighted>
-5.3585

> <Gold.Chemscore.Internal_Hbond.Weighted>
0.0000

> <Gold.Chemscore.DEClash.Weighted>
0.0460

> <Gold.Chemscore.DEInternal.Weighted>
0.0130

> <Gold.Chemscore.Rot.Weighted>
3.3308

> <Gold.Chemscore.Internal.Correction.Weighted>
   9.000000E+99

> <Gold.Protein.RotatedTorsions>
[ 6907 6896 6895 6894 ] final  110.70 input  -60.11 | X-H torsion
[ 7974 7965 7964 7962 ] final  -84.23 input  175.53 | X-H torsion
[ 8008 7997 7996 7995 ] final  -79.39 input   59.86 | X-H torsion
[ 10167 10162 10161 10158 ] final -124.57 input  -65.29 | X-H torsion
[ 10718 10713 10712 10709 ] final  -54.86 input   66.30 | X-H torsion
[ 10763 10752 10751 10750 ] final  127.00 input  -60.55 | X-H torsion
[ 11005 11000 10999 10996 ] final -117.58 input  -57.11 | X-H torsion

> <Gold.Protein.ActiveResidues>
 VAL166  LYS551  ARG553  GLY616  TRP617  ASP618  TYR619  PRO620  LYS621  CYS622 
 ASP623  PHE694  ASN695  SER759  ASP760  ASP761  ALA762  ILE779  LEU786  VAL792 
 PHE793  MET794  SER795  GLU796  ALA797  LYS798  CYS799  TRP800  GLU811  SER814 

> <Gold.Protein.RotatedAtoms>
  152.5007  133.8763  159.7323 H   0  0  0  0  0  0  0  0  0  0  0  0  # atno 6907 bound_to 6896
  150.9237  133.6841  159.2833 H   0  0  0  0  0  0  0  0  0  0  0  0  # atno 6908 bound_to 6896
  151.4209  135.1002  159.9666 H   0  0  0  0  0  0  0  0  0  0  0  0  # atno 6909 bound_to 6896
  145.5094  140.9541  143.1716 H   0  0  0  0  0  0  0  0  0  0  0  0  # atno 7974 bound_to 7965
  154.5781  140.0679  156.9063 H   0  0  0  0  0  0  0  0  0  0  0  0  # atno 8008 bound_to 7997
  155.2512  140.3352  155.4264 H   0  0  0  0  0  0  0  0  0  0  0  0  # atno 8009 bound_to 7997
  156.2169  140.1782  156.7553 H   0  0  0  0  0  0  0  0  0  0  0  0  # atno 8010 bound_to 7997
  139.9913  143.5637  152.2340 H   0  0  0  0  0  0  0  0  0  0  0  0  # atno 10167 bound_to 10162
  156.1415  130.4154  150.0095 H   0  0  0  0  0  0  0  0  0  0  0  0  # atno 10718 bound_to 10713
  153.7024  135.3281  155.3228 H   0  0  0  0  0  0  0  0  0  0  0  0  # atno 10763 bound_to 10752
  154.8409  135.4457  154.1397 H   0  0  0  0  0  0  0  0  0  0  0  0  # atno 10764 bound_to 10752
  153.2468  135.6977  153.7801 H   0  0  0  0  0  0  0  0  0  0  0  0  # atno 10765 bound_to 10752
  141.0345  133.9931  157.3092 H   0  0  0  0  0  0  0  0  0  0  0  0  # atno 11005 bound_to 11000
  144.7736  139.6680  143.7184 LP  0  0  0  0  0  0  0  0  0  0  0  0  # atno 17320 bound_to 7965
  146.2176  139.5577  142.9640 LP  0  0  0  0  0  0  0  0  0  0  0  0  # atno 17321 bound_to 7965
  139.6338  144.7647  151.2481 LP  0  0  0  0  0  0  0  0  0  0  0  0  # atno 17342 bound_to 10162
  140.7453  143.6434  150.8314 LP  0  0  0  0  0  0  0  0  0  0  0  0  # atno 17343 bound_to 10162
  156.7978  130.9279  151.3646 LP  0  0  0  0  0  0  0  0  0  0  0  0  # atno 17370 bound_to 10713
  157.6580  130.8941  149.9769 LP  0  0  0  0  0  0  0  0  0  0  0  0  # atno 17371 bound_to 10713
  139.9231  135.0201  156.8135 LP  0  0  0  0  0  0  0  0  0  0  0  0  # atno 17394 bound_to 11000
  140.6348  133.9873  155.7679 LP  0  0  0  0  0  0  0  0  0  0  0  0  # atno 17395 bound_to 11000

$$$$
