AV-unprocessed.smi:2324|AV-procd|sdf|9291|dock3
  -GOLD-   2272012513D 1   1.00000     0.00000
 Structure written by MMmdl.
 37 39  0  0  0  0  0  0  0  0  1 V2000
  150.2087  135.6141  156.1116 O   0  0  0  0  0  0  0  0  0  0  0  0
  149.7402  135.7474  154.9823 C   0  0  0  0  0  0  0  0  0  0  0  0
  149.4822  134.6725  154.2073 N   0  0  0  0  0  0  0  0  0  0  0  0
  149.6505  133.2759  154.4395 C   0  0  0  0  0  0  0  0  0  0  0  0
  149.0129  132.4405  153.4973 C   0  0  0  0  0  0  0  0  0  0  0  0
  149.1283  131.0483  153.6496 C   0  0  0  0  0  0  0  0  0  0  0  0
  149.8790  130.5808  154.7414 C   0  0  0  0  0  0  0  0  0  0  0  0
  150.4739  131.4150  155.6208 N   0  0  0  0  0  0  0  0  0  0  0  0
  150.3587  132.7383  155.4682 N   0  0  0  0  0  0  0  0  0  0  0  0
  149.4604  136.9489  154.4505 N   0  0  0  0  0  0  0  0  0  0  0  0
  149.6629  138.2349  155.1101 C   0  0  2  0  0  0  0  0  0  0  0  0
  149.1454  139.3674  154.2137 C   0  0  0  0  0  0  0  0  0  0  0  0
  149.4523  140.7364  154.8392 C   0  0  0  0  0  0  0  0  0  0  0  0
  150.8508  140.8707  155.0854 O   0  0  0  0  0  0  0  0  0  0  0  0
  151.4163  139.8865  155.9532 C   0  0  1  0  0  0  0  0  0  0  0  0
  150.9608  140.0692  157.3949 C   0  0  0  0  0  0  0  0  0  0  0  0
  151.4203  141.2601  158.2026 C   0  0  0  0  0  0  0  0  0  0  0  0
  151.9294  139.8787  158.5384 C   0  0  0  0  0  0  0  0  0  0  0  0
  151.1542  138.4693  155.4072 C   0  0  0  0  0  0  0  0  0  0  0  0
  149.1019  134.8987  153.2998 H   0  0  0  0  0  0  0  0  0  0  0  0
  148.4477  132.8539  152.6744 H   0  0  0  0  0  0  0  0  0  0  0  0
  148.6602  130.3655  152.9562 H   0  0  0  0  0  0  0  0  0  0  0  0
  150.0063  129.5222  154.9128 H   0  0  0  0  0  0  0  0  0  0  0  0
  149.0791  136.9723  153.5152 H   0  0  0  0  0  0  0  0  0  0  0  0
  149.0972  138.2474  156.0433 H   0  0  0  0  0  0  0  0  0  0  0  0
  149.6155  139.3087  153.2309 H   0  0  0  0  0  0  0  0  0  0  0  0
  148.0717  139.2633  154.0527 H   0  0  0  0  0  0  0  0  0  0  0  0
  149.1439  141.5307  154.1596 H   0  0  0  0  0  0  0  0  0  0  0  0
  148.8840  140.8797  155.7583 H   0  0  0  0  0  0  0  0  0  0  0  0
  152.4941  140.0525  155.9348 H   0  0  0  0  0  0  0  0  0  0  0  0
  149.9452  139.7334  157.5921 H   0  0  0  0  0  0  0  0  0  0  0  0
  152.1178  141.9521  157.7347 H   0  0  0  0  0  0  0  0  0  0  0  0
  150.7016  141.7118  158.8833 H   0  0  0  0  0  0  0  0  0  0  0  0
  151.5496  139.4072  159.4423 H   0  0  0  0  0  0  0  0  0  0  0  0
  152.9650  139.6509  158.2938 H   0  0  0  0  0  0  0  0  0  0  0  0
  151.5297  137.7229  156.1083 H   0  0  0  0  0  0  0  0  0  0  0  0
  151.7267  138.3394  154.4875 H   0  0  0  0  0  0  0  0  0  0  0  0
  1  2  2  0  0  0  0
  2  3  1  0  0  0  0
  2 10  1  0  0  0  0
  3  4  1  0  0  0  0
  3 20  1  0  0  0  0
  4  9  1  0  0  0  0
  4  5  2  0  0  0  0
  5  6  1  0  0  0  0
  5 21  1  0  0  0  0
  6  7  2  0  0  0  0
  6 22  1  0  0  0  0
  7  8  1  0  0  0  0
  7 23  1  0  0  0  0
  8  9  2  0  0  0  0
 10 11  1  0  0  0  0
 10 24  1  0  0  0  0
 11 19  1  0  0  0  0
 11 12  1  0  0  0  0
 11 25  1  0  0  0  0
 12 13  1  0  0  0  0
 12 26  1  0  0  0  0
 12 27  1  0  0  0  0
 13 14  1  0  0  0  0
 13 28  1  0  0  0  0
 13 29  1  0  0  0  0
 14 15  1  0  0  0  0
 15 16  1  0  0  0  0
 15 19  1  0  0  0  0
 15 30  1  0  0  0  0
 16 18  1  0  0  0  0
 16 17  1  0  0  0  0
 16 31  1  0  0  0  0
 17 18  1  0  0  0  0
 17 32  1  0  0  0  0
 17 33  1  0  0  0  0
 18 34  1  0  0  0  0
 18 35  1  0  0  0  0
 19 36  1  0  0  0  0
 19 37  1  0  0  0  0
M  END
> <s_m_source_file>
AV-unprocessed.smi

> <i_m_source_file_index>
2324

> <i_lp_mmshare_version>
43012

> <i_f3d_flags>
0

> <s_epik_input>
bjFuW2NIXVtjSF1bY0hdYzFbTkhdQyg9TylbTkhdW0NAQEhdMltDSDJdW0NIMl1PW0NASF0oW0NIMl0yKVtDSF0zW0NIMl1bQ0gyXTM=

> <s_epik_cmdline>
J2VwaWtfcHl0aG9uJywgJy1waCcsICc3LjAnLCAnLXRuJywgJzgnLCAnLW1hJywgJzIwMCcsICctbWV0YWxfYmluZGluZycsICctaW1hZScsICc8aW5maWxlLm1hZT4nLCAnLW9tYWUnLCAnPG91dGZpbGUubWFlPic=

> <r_lp_tautomer_probability>
1

> <r_epik_Ionization_Penalty>
0.00521499

> <r_epik_Ionization_Penalty_Charging>
0

> <r_epik_Ionization_Penalty_Neutral>
0.00521499

> <r_epik_State_Penalty>
-0

> <r_epik_Charging_Adjusted_Penalty>
0

> <i_epik_Tot_Q>
0

> <i_epik_Tot_abs_Q>
0

> <r_epik_Metal_State_Penalty>
-0

> <b_epik_Metal_Only>
0

> <s_lp_Force_Field>
OPLS_2005

> <r_lp_Energy>
28.1305

> <b_lp_Chiralities_Consistent>
1

> <s_lp_Variant>
AV-unprocessed.smi:2324-1

> <Gold.Version>
5.8.1

> <Gold.Id.Protein>
6NUR|6NUR_protein|mol2

> <Gold.PLP.Fitness>
37.9372

> <Gold.PLP.PLP>
-30.1926

> <Gold.PLP.part.hbond>
-3.0000

> <Gold.PLP.part.metal>
0.0000

> <Gold.PLP.part.buried>
-2.7792

> <Gold.PLP.part.nonpolar>
-25.1771

> <Gold.PLP.part.repulsive>
0.1503

> <Gold.PLP.ligand.clash>
0.0000

> <Gold.PLP.ligand.torsion>
0.6291

> <Gold.PLP.Chemscore.Hbond>
2.6416

> <Gold.PLP.Chemscore.CHOScore>
0.0000

> <Gold.PLP.Chemscore.Metal>
0.0000

> <Gold.Chemscore.Hbonds>
donor molecule, donor type, donor heavy atom, donor atom, acceptor molecule, acceptor atom, score
      L1  H     3    20       P1  7948  0.76
      L1  H    10    24       P1  7948  0.98
      P1  H  7989  7998       L1    14  0.78

> <Gold.PLP.Chemscore.Internal.Correction>
1.0781

> <Gold.Rescore>
     Score         DG    S(hbond)    S(metal)    S(lipo)     H(rot)  DE(clash)    DE(int)     intcor
     13.39     -15.44       1.81        0.00      60.70       1.25       0.10       1.95       ----

> <Gold.Chemscore.Fitness>
13.3927

> <Gold.Chemscore.DG>
-15.4385

> <Gold.Chemscore.ZeroCoef>
-5.4800

> <Gold.Chemscore.Hbond>
1.8115

> <Gold.Chemscore.Metal>
0.0000

> <Gold.Chemscore.Lipo>
60.7003

> <Gold.Chemscore.Internal_Hbond>
0.0000

> <Gold.Chemscore.DEClash>
0.0998

> <Gold.Chemscore.DEInternal>
1.9459

> <Gold.Chemscore.Rot>
1.2476

> <Gold.Chemscore.Internal.Correction>
   9.000000E+99

> <Gold.Chemscore.Hbonds>
donor molecule, donor type, donor heavy atom, donor atom, acceptor molecule, acceptor atom, score
      L1  H     3    20       P1  7948  0.11
      L1  H    10    24       P1  7948  0.93
      P1  H  7989  7998       L1    14  0.35

> <Gold.Chemscore.Hbond.Weighted>
-6.0503

> <Gold.Chemscore.Metal.Weighted>
-0.0000

> <Gold.Chemscore.Lipo.Weighted>
-7.1019

> <Gold.Chemscore.Internal_Hbond.Weighted>
0.0000

> <Gold.Chemscore.DEClash.Weighted>
0.0998

> <Gold.Chemscore.DEInternal.Weighted>
1.9459

> <Gold.Chemscore.Rot.Weighted>
3.1938

> <Gold.Chemscore.Internal.Correction.Weighted>
   9.000000E+99

> <Gold.Protein.RotatedTorsions>
[ 6907 6896 6895 6894 ] final -175.38 input  -60.11 | X-H torsion
[ 7974 7965 7964 7962 ] final -126.88 input  175.53 | X-H torsion
[ 8008 7997 7996 7995 ] final  -94.42 input   59.86 | X-H torsion
[ 10167 10162 10161 10158 ] final  -80.25 input  -65.29 | X-H torsion
[ 10718 10713 10712 10709 ] final  177.04 input   66.30 | X-H torsion
[ 10763 10752 10751 10750 ] final  -46.86 input  -60.55 | X-H torsion
[ 11005 11000 10999 10996 ] final  -84.98 input  -57.11 | X-H torsion

> <Gold.Protein.ActiveResidues>
 VAL166  LYS551  ARG553  GLY616  TRP617  ASP618  TYR619  PRO620  LYS621  CYS622 
 ASP623  PHE694  ASN695  SER759  ASP760  ASP761  ALA762  ILE779  LEU786  VAL792 
 PHE793  MET794  SER795  GLU796  ALA797  LYS798  CYS799  TRP800  GLU811  SER814 

> <Gold.Protein.RotatedAtoms>
  151.5876  133.3370  159.3020 H   0  0  0  0  0  0  0  0  0  0  0  0  # atno 6907 bound_to 6896
  150.8278  134.7520  159.6839 H   0  0  0  0  0  0  0  0  0  0  0  0  # atno 6908 bound_to 6896
  152.4365  134.5681  159.9965 H   0  0  0  0  0  0  0  0  0  0  0  0  # atno 6909 bound_to 6896
  144.9827  140.7656  143.4602 H   0  0  0  0  0  0  0  0  0  0  0  0  # atno 7974 bound_to 7965
  154.7482  140.0489  157.0871 H   0  0  0  0  0  0  0  0  0  0  0  0  # atno 8008 bound_to 7997
  155.0090  140.3134  155.4818 H   0  0  0  0  0  0  0  0  0  0  0  0  # atno 8009 bound_to 7997
  156.2879  140.2187  156.5204 H   0  0  0  0  0  0  0  0  0  0  0  0  # atno 8010 bound_to 7997
  140.4520  143.2480  151.8475 H   0  0  0  0  0  0  0  0  0  0  0  0  # atno 10167 bound_to 10162
  156.9112  130.9910  151.3020 H   0  0  0  0  0  0  0  0  0  0  0  0  # atno 10718 bound_to 10713
  154.0519  135.6630  153.4801 H   0  0  0  0  0  0  0  0  0  0  0  0  # atno 10763 bound_to 10752
  153.0460  135.5114  154.7743 H   0  0  0  0  0  0  0  0  0  0  0  0  # atno 10764 bound_to 10752
  154.6752  135.3036  154.9655 H   0  0  0  0  0  0  0  0  0  0  0  0  # atno 10765 bound_to 10752
  141.1645  133.7375  156.8948 H   0  0  0  0  0  0  0  0  0  0  0  0  # atno 11005 bound_to 11000
  145.2397  139.2078  143.4999 LP  0  0  0  0  0  0  0  0  0  0  0  0  # atno 17320 bound_to 7965
  146.3412  140.2290  142.8593 LP  0  0  0  0  0  0  0  0  0  0  0  0  # atno 17321 bound_to 7965
  139.4797  144.5109  151.8934 LP  0  0  0  0  0  0  0  0  0  0  0  0  # atno 17342 bound_to 10162
  140.4196  144.2261  150.5887 LP  0  0  0  0  0  0  0  0  0  0  0  0  # atno 17343 bound_to 10162
  157.5966  130.8482  149.8739 LP  0  0  0  0  0  0  0  0  0  0  0  0  # atno 17370 bound_to 10713
  156.0535  130.3713  150.1145 LP  0  0  0  0  0  0  0  0  0  0  0  0  # atno 17371 bound_to 10713
  140.1623  134.9157  157.2730 LP  0  0  0  0  0  0  0  0  0  0  0  0  # atno 17394 bound_to 11000
  140.2597  134.3586  155.7411 LP  0  0  0  0  0  0  0  0  0  0  0  0  # atno 17395 bound_to 11000

$$$$
