AV-unprocessed.smi:1152|AV-procd|sdf|4898|dock10
  -GOLD-   22720 3473D 1   1.00000     0.00000
 Structure written by MMmdl.
 31 32  0  0  0  0  0  0  0  0  2 V2000
  146.9792  138.8886  152.7433 C   0  0  0  0  0  0  0  0  0  0  0  0
  148.3430  138.7728  153.2388 N   0  0  0  0  0  0  0  0  0  0  0  0
  148.8908  139.5568  154.1771 C   0  0  0  0  0  0  0  0  0  0  0  0
  148.2151  140.4563  154.6808 O   0  0  0  0  0  0  0  0  0  0  0  0
  150.1799  139.2344  154.4564 N   0  5  0  0  0  0  0  0  0  0  0  0
  150.9273  139.7720  155.4468 C   0  0  0  0  0  0  0  0  0  0  0  0
  152.0450  139.2443  155.9796 N   0  0  0  0  0  0  0  0  0  0  0  0
  152.6017  140.0198  156.9840 N   0  0  0  0  0  0  0  0  0  0  0  0
  151.9005  141.1336  157.2068 C   0  0  0  0  0  0  0  0  0  0  0  0
  152.2814  142.1492  158.2384 C   0  0  0  0  0  0  0  0  0  0  0  0
  152.3714  141.5482  159.6546 C   0  0  0  0  0  0  0  0  0  0  0  0
  152.8053  142.6038  160.6849 C   0  0  0  0  0  0  0  0  0  0  0  0
  151.8832  143.8333  160.6485 C   0  0  0  0  0  0  0  0  0  0  0  0
  151.8230  144.4420  159.2381 C   0  0  0  0  0  0  0  0  0  0  0  0
  151.3819  143.3999  158.1972 C   0  0  0  0  0  0  0  0  0  0  0  0
  150.4857  141.3118  156.1841 S   0  0  0  0  0  0  0  0  0  0  0  0
  146.7942  138.1284  151.9847 H   0  0  0  0  0  0  0  0  0  0  0  0
  146.8120  139.8681  152.2934 H   0  0  0  0  0  0  0  0  0  0  0  0
  146.2600  138.7475  153.5510 H   0  0  0  0  0  0  0  0  0  0  0  0
  148.9182  138.0440  152.8426 H   0  0  0  0  0  0  0  0  0  0  0  0
  153.2874  142.4812  157.9772 H   0  0  0  0  0  0  0  0  0  0  0  0
  151.4031  141.1375  159.9439 H   0  0  0  0  0  0  0  0  0  0  0  0
  153.0760  140.7158  159.6635 H   0  0  0  0  0  0  0  0  0  0  0  0
  152.8054  142.1682  161.6844 H   0  0  0  0  0  0  0  0  0  0  0  0
  153.8319  142.9118  160.4823 H   0  0  0  0  0  0  0  0  0  0  0  0
  150.8798  143.5475  160.9666 H   0  0  0  0  0  0  0  0  0  0  0  0
  152.2327  144.5809  161.3610 H   0  0  0  0  0  0  0  0  0  0  0  0
  151.1374  145.2897  159.2275 H   0  0  0  0  0  0  0  0  0  0  0  0
  152.8041  144.8352  158.9684 H   0  0  0  0  0  0  0  0  0  0  0  0
  151.4043  143.8439  157.2014 H   0  0  0  0  0  0  0  0  0  0  0  0
  150.3457  143.1161  158.3866 H   0  0  0  0  0  0  0  0  0  0  0  0
  1  2  1  0  0  0  0
  1 17  1  0  0  0  0
  1 18  1  0  0  0  0
  1 19  1  0  0  0  0
  2  3  1  0  0  0  0
  2 20  1  0  0  0  0
  3  4  2  0  0  0  0
  3  5  1  0  0  0  0
  5  6  1  0  0  0  0
  6 16  1  0  0  0  0
  6  7  2  0  0  0  0
  7  8  1  0  0  0  0
  8  9  2  0  0  0  0
  9 10  1  0  0  0  0
  9 16  1  0  0  0  0
 10 15  1  0  0  0  0
 10 11  1  0  0  0  0
 10 21  1  0  0  0  0
 11 12  1  0  0  0  0
 11 22  1  0  0  0  0
 11 23  1  0  0  0  0
 12 13  1  0  0  0  0
 12 24  1  0  0  0  0
 12 25  1  0  0  0  0
 13 14  1  0  0  0  0
 13 26  1  0  0  0  0
 13 27  1  0  0  0  0
 14 15  1  0  0  0  0
 14 28  1  0  0  0  0
 14 29  1  0  0  0  0
 15 30  1  0  0  0  0
 15 31  1  0  0  0  0
M  CHG  1   5  -1
M  END
> <s_m_source_file>
AV-unprocessed.smi

> <i_m_source_file_index>
1152

> <i_lp_mmshare_version>
43012

> <i_f3d_flags>
0

> <s_epik_input>
W0NIM11bTkhdQyg9TylbTkhdYzFubmMoczEpW0NIXTJbQ0gyXVtDSDJdW0NIMl1bQ0gyXVtDSDJdMg==

> <s_epik_cmdline>
J2VwaWtfcHl0aG9uJywgJy1waCcsICc3LjAnLCAnLXRuJywgJzgnLCAnLW1hJywgJzIwMCcsICctbWV0YWxfYmluZGluZycsICctaW1hZScsICc8aW5maWxlLm1hZT4nLCAnLW9tYWUnLCAnPG91dGZpbGUubWFlPic=

> <r_lp_tautomer_probability>
1

> <r_epik_Ionization_Penalty>
4.62071

> <r_epik_Ionization_Penalty_Charging>
4.36597

> <r_epik_Ionization_Penalty_Neutral>
0.254736

> <r_epik_State_Penalty>
4.3656

> <r_epik_Charging_Adjusted_Penalty>
8.73157

> <i_epik_Tot_Q>
-1

> <i_epik_Tot_abs_Q>
1

> <r_epik_Metal_State_Penalty>
0.756176

> <b_epik_Metal_Only>
1

> <s_lp_Force_Field>
OPLS_2005

> <r_lp_Energy>
5.71757

> <b_lp_Chiralities_Consistent>
1

> <s_lp_Variant>
AV-unprocessed.smi:1152-2

> <Gold.Version>
5.8.1

> <Gold.Id.Protein>
6NUR|6NUR_protein|mol2

> <Gold.PLP.Fitness>
39.2563

> <Gold.PLP.PLP>
-33.4510

> <Gold.PLP.part.hbond>
-3.0000

> <Gold.PLP.part.metal>
0.0000

> <Gold.PLP.part.buried>
-3.8372

> <Gold.PLP.part.nonpolar>
-26.3541

> <Gold.PLP.part.repulsive>
0.3101

> <Gold.PLP.ligand.clash>
0.0000

> <Gold.PLP.ligand.torsion>
0.1282

> <Gold.PLP.Chemscore.Hbond>
2.0000

> <Gold.PLP.Chemscore.CHOScore>
0.0000

> <Gold.PLP.Chemscore.Metal>
0.0000

> <Gold.Chemscore.Hbonds>
donor molecule, donor type, donor heavy atom, donor atom, acceptor molecule, acceptor atom, score
      L1  H     2    20       P1  7948  0.94
      P1  H  7997  8008       L1     8  0.96

> <Gold.PLP.Chemscore.Internal.Correction>
0.0617

> <Gold.Rescore>
     Score         DG    S(hbond)    S(metal)    S(lipo)     H(rot)  DE(clash)    DE(int)     intcor
     16.82     -18.32       1.63        0.00      85.01       1.00       0.06       1.44       ----

> <Gold.Chemscore.Fitness>
16.8211

> <Gold.Chemscore.DG>
-18.3190

> <Gold.Chemscore.ZeroCoef>
-5.4800

> <Gold.Chemscore.Hbond>
1.6326

> <Gold.Chemscore.Metal>
0.0000

> <Gold.Chemscore.Lipo>
85.0112

> <Gold.Chemscore.Internal_Hbond>
0.0000

> <Gold.Chemscore.DEClash>
0.0557

> <Gold.Chemscore.DEInternal>
1.4422

> <Gold.Chemscore.Rot>
1.0000

> <Gold.Chemscore.Internal.Correction>
   9.000000E+99

> <Gold.Chemscore.Hbonds>
donor molecule, donor type, donor heavy atom, donor atom, acceptor molecule, acceptor atom, score
      L1  H     2    20       P1  7948  0.84
      P1  H  7997  8008       L1     8  0.71

> <Gold.Chemscore.Hbond.Weighted>
-5.4527

> <Gold.Chemscore.Metal.Weighted>
-0.0000

> <Gold.Chemscore.Lipo.Weighted>
-9.9463

> <Gold.Chemscore.Internal_Hbond.Weighted>
0.0000

> <Gold.Chemscore.DEClash.Weighted>
0.0557

> <Gold.Chemscore.DEInternal.Weighted>
1.4422

> <Gold.Chemscore.Rot.Weighted>
2.5600

> <Gold.Chemscore.Internal.Correction.Weighted>
   9.000000E+99

> <Gold.Protein.RotatedTorsions>
[ 6907 6896 6895 6894 ] final  -91.55 input  -60.11 | X-H torsion
[ 7974 7965 7964 7962 ] final   -1.83 input  175.53 | X-H torsion
[ 8008 7997 7996 7995 ] final  -72.82 input   59.86 | X-H torsion
[ 10167 10162 10161 10158 ] final  147.17 input  -65.29 | X-H torsion
[ 10718 10713 10712 10709 ] final  129.49 input   66.30 | X-H torsion
[ 10763 10752 10751 10750 ] final  -22.41 input  -60.55 | X-H torsion
[ 11005 11000 10999 10996 ] final  -86.89 input  -57.11 | X-H torsion

> <Gold.Protein.ActiveResidues>
 VAL166  LYS551  ARG553  GLY616  TRP617  ASP618  TYR619  PRO620  LYS621  CYS622 
 ASP623  PHE694  ASN695  SER759  ASP760  ASP761  ALA762  ILE779  LEU786  VAL792 
 PHE793  MET794  SER795  GLU796  ALA797  LYS798  CYS799  TRP800  GLU811  SER814 

> <Gold.Protein.RotatedAtoms>
  150.6894  134.2260  159.4415 H   0  0  0  0  0  0  0  0  0  0  0  0  # atno 6907 bound_to 6896
  152.0213  134.9818  160.0580 H   0  0  0  0  0  0  0  0  0  0  0  0  # atno 6908 bound_to 6896
  152.1394  133.4420  159.4796 H   0  0  0  0  0  0  0  0  0  0  0  0  # atno 6909 bound_to 6896
  146.2412  140.1480  142.8334 H   0  0  0  0  0  0  0  0  0  0  0  0  # atno 7974 bound_to 7965
  154.5197  140.0790  156.8149 H   0  0  0  0  0  0  0  0  0  0  0  0  # atno 8008 bound_to 7997
  155.3602  140.3417  155.4222 H   0  0  0  0  0  0  0  0  0  0  0  0  # atno 8009 bound_to 7997
  156.1668  140.1606  156.8505 H   0  0  0  0  0  0  0  0  0  0  0  0  # atno 8010 bound_to 7997
  139.4894  144.5775  151.6936 H   0  0  0  0  0  0  0  0  0  0  0  0  # atno 10167 bound_to 10162
  157.5149  131.1097  150.9238 H   0  0  0  0  0  0  0  0  0  0  0  0  # atno 10718 bound_to 10713
  153.6515  135.6980  153.5207 H   0  0  0  0  0  0  0  0  0  0  0  0  # atno 10763 bound_to 10752
  153.2702  135.4217  155.0980 H   0  0  0  0  0  0  0  0  0  0  0  0  # atno 10764 bound_to 10752
  154.8475  135.3576  154.6060 H   0  0  0  0  0  0  0  0  0  0  0  0  # atno 10765 bound_to 10752
  141.1624  133.7480  156.9228 H   0  0  0  0  0  0  0  0  0  0  0  0  # atno 11005 bound_to 11000
  145.0191  140.8779  143.5177 LP  0  0  0  0  0  0  0  0  0  0  0  0  # atno 17320 bound_to 7965
  145.1525  139.2506  143.5433 LP  0  0  0  0  0  0  0  0  0  0  0  0  # atno 17321 bound_to 7965
  140.5375  144.0633  150.6075 LP  0  0  0  0  0  0  0  0  0  0  0  0  # atno 17342 bound_to 10162
  140.3644  143.2890  152.0348 LP  0  0  0  0  0  0  0  0  0  0  0  0  # atno 17343 bound_to 10162
  156.9867  130.5547  149.5300 LP  0  0  0  0  0  0  0  0  0  0  0  0  # atno 17370 bound_to 10713
  156.0314  130.5405  150.8543 LP  0  0  0  0  0  0  0  0  0  0  0  0  # atno 17371 bound_to 10713
  140.1440  134.9275  157.2504 LP  0  0  0  0  0  0  0  0  0  0  0  0  # atno 17394 bound_to 11000
  140.2802  134.3358  155.7345 LP  0  0  0  0  0  0  0  0  0  0  0  0  # atno 17395 bound_to 11000

$$$$
