AV-unprocessed.smi:637|AV-procd|sdf|3141|dock2
  -GOLD-   22720 0 63D 1   1.00000     0.00000
 Structure written by MMmdl.
 38 40  0  0  0  0  0  0  0  0  1 V2000
  151.5673  144.9996  159.5304 C   0  0  0  0  0  0  0  0  0  0  0  0
  152.0086  143.5762  159.5774 C   0  0  0  0  0  0  0  0  0  0  0  0
  152.6557  142.9316  160.6036 C   0  0  0  0  0  0  0  0  0  0  0  0
  152.9401  141.5619  160.3231 C   0  0  0  0  0  0  0  0  0  0  0  0
  152.4981  141.1929  159.0748 C   0  0  0  0  0  0  0  0  0  0  0  0
  152.6865  139.8413  158.5728 C   0  0  0  0  0  0  0  0  0  0  0  0
  153.0827  138.7557  159.4534 C   0  0  0  0  0  0  0  0  0  0  0  0
  153.2364  137.5149  158.9429 C   0  0  0  0  0  0  0  0  0  0  0  0
  153.0164  137.2327  157.5260 C   0  0  0  0  0  0  0  0  0  0  0  0
  153.1472  136.1128  157.0323 O   0  0  0  0  0  0  0  0  0  0  0  0
  152.6531  138.3288  156.7972 N   0  0  0  0  0  0  0  0  0  0  0  0
  152.3875  138.2352  155.3567 C   0  0  0  0  0  0  0  0  0  0  0  0
  150.9088  137.9147  155.0483 C   0  0  2  0  0  0  0  0  0  0  0  0
  150.8503  137.0961  153.8961 O   0  0  0  0  0  0  0  0  0  0  0  0
  150.1064  139.1936  154.8618 C   0  0  0  0  0  0  0  0  0  0  0  0
  150.5100  140.3791  155.5130 C   0  0  0  0  0  0  0  0  0  0  0  0
  149.7794  141.5704  155.3365 C   0  0  0  0  0  0  0  0  0  0  0  0
  148.6430  141.5838  154.5052 C   0  0  0  0  0  0  0  0  0  0  0  0
  148.2375  140.4055  153.8499 C   0  0  0  0  0  0  0  0  0  0  0  0
  147.1464  140.4175  153.0484 F   0  0  0  0  0  0  0  0  0  0  0  0
  148.9675  139.2142  154.0262 C   0  0  0  0  0  0  0  0  0  0  0  0
  152.4916  139.6010  157.3155 N   0  0  0  0  0  0  0  0  0  0  0  0
  151.7242  142.5044  158.2277 S   0  0  0  0  0  0  0  0  0  0  0  0
  151.8835  145.5393  160.4233 H   0  0  0  0  0  0  0  0  0  0  0  0
  150.4813  145.0654  159.4635 H   0  0  0  0  0  0  0  0  0  0  0  0
  151.9914  145.5071  158.6637 H   0  0  0  0  0  0  0  0  0  0  0  0
  152.9346  143.3930  161.5395 H   0  0  0  0  0  0  0  0  0  0  0  0
  153.4469  140.9295  161.0381 H   0  0  0  0  0  0  0  0  0  0  0  0
  153.2528  138.9361  160.5042 H   0  0  0  0  0  0  0  0  0  0  0  0
  153.5302  136.7080  159.5981 H   0  0  0  0  0  0  0  0  0  0  0  0
  152.6559  139.1898  154.8996 H   0  0  0  0  0  0  0  0  0  0  0  0
  153.0433  137.5023  154.8819 H   0  0  0  0  0  0  0  0  0  0  0  0
  150.4656  137.3522  155.8711 H   0  0  0  0  0  0  0  0  0  0  0  0
  149.9947  137.1893  153.5062 H   0  0  0  0  0  0  0  0  0  0  0  0
  151.3836  140.3800  156.1486 H   0  0  0  0  0  0  0  0  0  0  0  0
  150.0918  142.4747  155.8379 H   0  0  0  0  0  0  0  0  0  0  0  0
  148.0841  142.4978  154.3687 H   0  0  0  0  0  0  0  0  0  0  0  0
  148.6519  138.3165  153.5149 H   0  0  0  0  0  0  0  0  0  0  0  0
  1  2  1  0  0  0  0
  1 24  1  0  0  0  0
  1 25  1  0  0  0  0
  1 26  1  0  0  0  0
  2 23  1  0  0  0  0
  2  3  2  0  0  0  0
  3  4  1  0  0  0  0
  3 27  1  0  0  0  0
  4  5  2  0  0  0  0
  4 28  1  0  0  0  0
  5  6  1  0  0  0  0
  5 23  1  0  0  0  0
  6 22  2  0  0  0  0
  6  7  1  0  0  0  0
  7  8  2  0  0  0  0
  7 29  1  0  0  0  0
  8  9  1  0  0  0  0
  8 30  1  0  0  0  0
  9 10  2  0  0  0  0
  9 11  1  0  0  0  0
 11 12  1  0  0  0  0
 11 22  1  0  0  0  0
 12 13  1  0  0  0  0
 12 31  1  0  0  0  0
 12 32  1  0  0  0  0
 13 14  1  0  0  0  0
 13 15  1  0  0  0  0
 13 33  1  0  0  0  0
 14 34  1  0  0  0  0
 15 21  1  0  0  0  0
 15 16  2  0  0  0  0
 16 17  1  0  0  0  0
 16 35  1  0  0  0  0
 17 18  2  0  0  0  0
 17 36  1  0  0  0  0
 18 19  1  0  0  0  0
 18 37  1  0  0  0  0
 19 20  1  0  0  0  0
 19 21  2  0  0  0  0
 21 38  1  0  0  0  0
M  END
> <s_m_source_file>
AV-unprocessed.smi

> <i_m_source_file_index>
637

> <i_lp_mmshare_version>
43012

> <i_f3d_flags>
0

> <s_epik_input>
W0NIM11jMVtjSF1bY0hdYyhzMSktYzJbY0hdW2NIXWMoPU8pbihuMilbQ0gyXVtDQEhdKFtPSF0pYzNbY0hdW2NIXVtjSF1jKEYpW2NIXTM=

> <s_epik_cmdline>
J2VwaWtfcHl0aG9uJywgJy1waCcsICc3LjAnLCAnLXRuJywgJzgnLCAnLW1hJywgJzIwMCcsICctbWV0YWxfYmluZGluZycsICctaW1hZScsICc8aW5maWxlLm1hZT4nLCAnLW9tYWUnLCAnPG91dGZpbGUubWFlPic=

> <r_lp_tautomer_probability>
1

> <r_epik_Ionization_Penalty>
2.26963e-07

> <r_epik_Ionization_Penalty_Charging>
5.89185e-08

> <r_epik_Ionization_Penalty_Neutral>
1.68044e-07

> <r_epik_State_Penalty>
-0

> <r_epik_Charging_Adjusted_Penalty>
5.89185e-08

> <i_epik_Tot_Q>
0

> <i_epik_Tot_abs_Q>
0

> <r_epik_Metal_State_Penalty>
-0

> <b_epik_Metal_Only>
0

> <s_lp_Force_Field>
OPLS_2005

> <r_lp_Energy>
28.2523

> <b_lp_Chiralities_Consistent>
1

> <s_lp_Variant>
AV-unprocessed.smi:637-1

> <Gold.Version>
5.8.1

> <Gold.Id.Protein>
6NUR|6NUR_protein|mol2

> <Gold.PLP.Fitness>
52.4890

> <Gold.PLP.PLP>
-49.9448

> <Gold.PLP.part.hbond>
-4.0000

> <Gold.PLP.part.metal>
0.0000

> <Gold.PLP.part.buried>
-1.5161

> <Gold.PLP.part.nonpolar>
-44.2041

> <Gold.PLP.part.repulsive>
0.0000

> <Gold.PLP.ligand.clash>
0.0000

> <Gold.PLP.ligand.torsion>
1.6345

> <Gold.PLP.Chemscore.Hbond>
1.9233

> <Gold.PLP.Chemscore.CHOScore>
0.0000

> <Gold.PLP.Chemscore.Metal>
0.0000

> <Gold.Chemscore.Hbonds>
donor molecule, donor type, donor heavy atom, donor atom, acceptor molecule, acceptor atom, score
      L1  H    14    34       P1  7948  0.51
      P1  H  7997  8010       L1    22  0.30
      P1  H 10752 10765       L1    10  1.00

> <Gold.PLP.Chemscore.Internal.Correction>
0.0433

> <Gold.Rescore>
     Score         DG    S(hbond)    S(metal)    S(lipo)     H(rot)  DE(clash)    DE(int)     intcor
     17.80     -20.88       1.26        0.00     135.38       1.82       0.15       2.93       ----

> <Gold.Chemscore.Fitness>
17.7971

> <Gold.Chemscore.DG>
-20.8776

> <Gold.Chemscore.ZeroCoef>
-5.4800

> <Gold.Chemscore.Hbond>
1.2643

> <Gold.Chemscore.Metal>
0.0000

> <Gold.Chemscore.Lipo>
135.3829

> <Gold.Chemscore.Internal_Hbond>
0.0000

> <Gold.Chemscore.DEClash>
0.1508

> <Gold.Chemscore.DEInternal>
2.9297

> <Gold.Chemscore.Rot>
1.8222

> <Gold.Chemscore.Internal.Correction>
   9.000000E+99

> <Gold.Chemscore.Hbonds>
donor molecule, donor type, donor heavy atom, donor atom, acceptor molecule, acceptor atom, score
      L1  H    14    34       P1  7948  0.17
      P1  H 10752 10765       L1    10  0.99

> <Gold.Chemscore.Hbond.Weighted>
-4.2227

> <Gold.Chemscore.Metal.Weighted>
-0.0000

> <Gold.Chemscore.Lipo.Weighted>
-15.8398

> <Gold.Chemscore.Internal_Hbond.Weighted>
0.0000

> <Gold.Chemscore.DEClash.Weighted>
0.1508

> <Gold.Chemscore.DEInternal.Weighted>
2.9297

> <Gold.Chemscore.Rot.Weighted>
4.6649

> <Gold.Chemscore.Internal.Correction.Weighted>
   9.000000E+99

> <Gold.Protein.RotatedTorsions>
[ 6907 6896 6895 6894 ] final -140.01 input  -60.11 | X-H torsion
[ 7974 7965 7964 7962 ] final  -18.85 input  175.53 | X-H torsion
[ 8008 7997 7996 7995 ] final   76.35 input   59.86 | X-H torsion
[ 10167 10162 10161 10158 ] final   41.89 input  -65.29 | X-H torsion
[ 10718 10713 10712 10709 ] final   96.74 input   66.30 | X-H torsion
[ 10763 10752 10751 10750 ] final -132.70 input  -60.55 | X-H torsion
[ 11005 11000 10999 10996 ] final  143.63 input  -57.11 | X-H torsion

> <Gold.Protein.ActiveResidues>
 VAL166  LYS551  ARG553  GLY616  TRP617  ASP618  TYR619  PRO620  LYS621  CYS622 
 ASP623  PHE694  ASN695  SER759  ASP760  ASP761  ALA762  ILE779  LEU786  VAL792 
 PHE793  MET794  SER795  GLU796  ALA797  LYS798  CYS799  TRP800  GLU811  SER814 

> <Gold.Protein.RotatedAtoms>
  151.0551  133.5591  159.2638 H   0  0  0  0  0  0  0  0  0  0  0  0  # atno 6907 bound_to 6896
  151.2587  135.0646  159.9100 H   0  0  0  0  0  0  0  0  0  0  0  0  # atno 6908 bound_to 6896
  152.5388  134.0300  159.8074 H   0  0  0  0  0  0  0  0  0  0  0  0  # atno 6909 bound_to 6896
  146.1871  140.3980  142.8472 H   0  0  0  0  0  0  0  0  0  0  0  0  # atno 7974 bound_to 7965
  155.8261  140.3468  155.5544 H   0  0  0  0  0  0  0  0  0  0  0  0  # atno 8008 bound_to 7997
  155.8291  140.0924  157.1823 H   0  0  0  0  0  0  0  0  0  0  0  0  # atno 8009 bound_to 7997
  154.4004  140.1415  156.3579 H   0  0  0  0  0  0  0  0  0  0  0  0  # atno 8010 bound_to 7997
  140.3598  144.2243  150.6139 H   0  0  0  0  0  0  0  0  0  0  0  0  # atno 10167 bound_to 10162
  157.6923  131.0587  150.4537 H   0  0  0  0  0  0  0  0  0  0  0  0  # atno 10718 bound_to 10713
  154.8740  135.3789  154.4452 H   0  0  0  0  0  0  0  0  0  0  0  0  # atno 10763 bound_to 10752
  153.5133  135.7029  153.5774 H   0  0  0  0  0  0  0  0  0  0  0  0  # atno 10764 bound_to 10752
  153.4054  135.3938  155.1981 H   0  0  0  0  0  0  0  0  0  0  0  0  # atno 10765 bound_to 10752
  140.0569  134.9226  157.1115 H   0  0  0  0  0  0  0  0  0  0  0  0  # atno 11005 bound_to 11000
  144.8417  140.6867  143.6225 LP  0  0  0  0  0  0  0  0  0  0  0  0  # atno 17320 bound_to 7965
  145.3905  139.1617  143.4231 LP  0  0  0  0  0  0  0  0  0  0  0  0  # atno 17321 bound_to 7965
  140.5138  143.2283  151.8495 LP  0  0  0  0  0  0  0  0  0  0  0  0  # atno 17342 bound_to 10162
  139.4815  144.4918  151.9175 LP  0  0  0  0  0  0  0  0  0  0  0  0  # atno 17343 bound_to 10162
  156.4886  130.4090  149.6419 LP  0  0  0  0  0  0  0  0  0  0  0  0  # atno 17370 bound_to 10713
  156.3438  130.7396  151.2345 LP  0  0  0  0  0  0  0  0  0  0  0  0  # atno 17371 bound_to 10713
  140.3831  134.2266  155.7170 LP  0  0  0  0  0  0  0  0  0  0  0  0  # atno 17394 bound_to 11000
  141.1956  133.8102  157.0709 LP  0  0  0  0  0  0  0  0  0  0  0  0  # atno 17395 bound_to 11000

$$$$
