AV-unprocessed.smi:1824|AV-procd|sdf|7400|dock1
  -GOLD-   22720 9 73D 1   1.00000     0.00000
 Structure written by MMmdl.
 45 47  0  0  0  0  0  0  0  0  2 V2000
  145.6715  138.2052  154.8624 C   0  0  0  0  0  0  0  0  0  0  0  0
  146.8134  139.2067  155.0668 C   0  0  1  0  0  0  0  0  0  0  0  0
  148.1436  138.6968  154.4769 C   0  0  0  0  0  0  0  0  0  0  0  0
  149.2158  139.7127  154.6091 N   0  3  2  0  0  0  0  0  0  0  0  0
  149.7947  139.7979  155.9774 C   0  0  0  0  0  0  0  0  0  0  0  0
  150.9712  140.7907  156.0595 C   0  0  2  0  0  0  0  0  0  0  0  0
  151.9229  140.4482  155.0700 O   0  0  0  0  0  0  0  0  0  0  0  0
  151.6448  140.7640  157.4453 C   0  0  0  0  0  0  0  0  0  0  0  0
  151.5699  142.0468  158.1226 N   0  0  0  0  0  0  0  0  0  0  0  0
  151.0353  143.1851  157.6400 C   0  0  0  0  0  0  0  0  0  0  0  0
  151.0733  144.2570  158.4255 N   0  0  0  0  0  0  0  0  0  0  0  0
  151.7018  143.7563  159.5527 C   0  0  0  0  0  0  0  0  0  0  0  0
  152.0480  144.3901  160.7673 C   0  0  0  0  0  0  0  0  0  0  0  0
  152.6959  143.6685  161.7913 C   0  0  0  0  0  0  0  0  0  0  0  0
  153.0197  144.2915  162.9493 F   0  0  0  0  0  0  0  0  0  0  0  0
  153.0085  142.3040  161.6155 C   0  0  0  0  0  0  0  0  0  0  0  0
  153.6325  141.6188  162.6027 F   0  0  0  0  0  0  0  0  0  0  0  0
  152.6734  141.6507  160.4137 C   0  0  0  0  0  0  0  0  0  0  0  0
  152.0255  142.3746  159.3956 C   0  0  0  0  0  0  0  0  0  0  0  0
  148.7750  141.0094  154.0343 C   0  0  0  0  0  0  0  0  0  0  0  0
  147.4136  141.4567  154.6104 C   0  0  1  0  0  0  0  0  0  0  0  0
  146.8881  142.7228  153.9257 C   0  0  0  0  0  0  0  0  0  0  0  0
  146.4570  140.4209  154.4147 O   0  0  0  0  0  0  0  0  0  0  0  0
  145.8919  137.2537  155.3473 H   0  0  0  0  0  0  0  0  0  0  0  0
  145.5018  138.0094  153.8031 H   0  0  0  0  0  0  0  0  0  0  0  0
  144.7401  138.5842  155.2837 H   0  0  0  0  0  0  0  0  0  0  0  0
  146.9233  139.3900  156.1370 H   0  0  0  0  0  0  0  0  0  0  0  0
  148.4457  137.7587  154.9443 H   0  0  0  0  0  0  0  0  0  0  0  0
  148.0113  138.4791  153.4162 H   0  0  0  0  0  0  0  0  0  0  0  0
  149.0203  140.0698  156.6945 H   0  0  0  0  0  0  0  0  0  0  0  0
  150.1544  138.8149  156.2854 H   0  0  0  0  0  0  0  0  0  0  0  0
  150.6265  141.8055  155.8627 H   0  0  0  0  0  0  0  0  0  0  0  0
  152.0979  139.5206  155.1283 H   0  0  0  0  0  0  0  0  0  0  0  0
  151.1668  140.0169  158.0807 H   0  0  0  0  0  0  0  0  0  0  0  0
  152.6926  140.4730  157.3592 H   0  0  0  0  0  0  0  0  0  0  0  0
  150.5955  143.2298  156.6542 H   0  0  0  0  0  0  0  0  0  0  0  0
  151.8147  145.4346  160.9124 H   0  0  0  0  0  0  0  0  0  0  0  0
  152.9130  140.6067  160.2781 H   0  0  0  0  0  0  0  0  0  0  0  0
  149.5283  141.7817  154.1842 H   0  0  0  0  0  0  0  0  0  0  0  0
  148.6843  140.8819  152.9545 H   0  0  0  0  0  0  0  0  0  0  0  0
  147.5027  141.6623  155.6777 H   0  0  0  0  0  0  0  0  0  0  0  0
  147.5815  143.5547  154.0515 H   0  0  0  0  0  0  0  0  0  0  0  0
  145.9290  143.0240  154.3478 H   0  0  0  0  0  0  0  0  0  0  0  0
  146.7456  142.5639  152.8562 H   0  0  0  0  0  0  0  0  0  0  0  0
  149.9763  139.3829  154.0310 H   0  0  0  0  0  0  0  0  0  0  0  0
  1  2  1  0  0  0  0
  1 24  1  0  0  0  0
  1 25  1  0  0  0  0
  1 26  1  0  0  0  0
  2 23  1  0  0  0  0
  2  3  1  0  0  0  0
  2 27  1  0  0  0  0
  3  4  1  0  0  0  0
  3 28  1  0  0  0  0
  3 29  1  0  0  0  0
  4  5  1  0  0  0  0
  4 20  1  0  0  0  0
  4 45  1  0  0  0  0
  5  6  1  0  0  0  0
  5 30  1  0  0  0  0
  5 31  1  0  0  0  0
  6  7  1  0  0  0  0
  6  8  1  0  0  0  0
  6 32  1  0  0  0  0
  7 33  1  0  0  0  0
  8  9  1  0  0  0  0
  8 34  1  0  0  0  0
  8 35  1  0  0  0  0
  9 19  1  0  0  0  0
  9 10  1  0  0  0  0
 10 11  2  0  0  0  0
 10 36  1  0  0  0  0
 11 12  1  0  0  0  0
 12 19  2  0  0  0  0
 12 13  1  0  0  0  0
 13 14  2  0  0  0  0
 13 37  1  0  0  0  0
 14 15  1  0  0  0  0
 14 16  1  0  0  0  0
 16 17  1  0  0  0  0
 16 18  2  0  0  0  0
 18 19  1  0  0  0  0
 18 38  1  0  0  0  0
 20 21  1  0  0  0  0
 20 39  1  0  0  0  0
 20 40  1  0  0  0  0
 21 22  1  0  0  0  0
 21 23  1  0  0  0  0
 21 41  1  0  0  0  0
 22 42  1  0  0  0  0
 22 43  1  0  0  0  0
 22 44  1  0  0  0  0
M  CHG  1   4   1
M  END
> <s_m_source_file>
AV-unprocessed.smi

> <i_m_source_file_index>
1824

> <i_lp_mmshare_version>
43012

> <i_f3d_flags>
0

> <s_epik_input>
W0NIM11bQ0BASF0xW0NIMl1OKFtDSDJdW0NASF0oTzEpW0NIM10pW0NIMl1bQ0BIXShbT0hdKVtDSDJdbihbY0hdbjIpYyhjMjMpW2NIXWMoRiljKEYpW2NIXTM=

> <s_epik_cmdline>
J2VwaWtfcHl0aG9uJywgJy1waCcsICc3LjAnLCAnLXRuJywgJzgnLCAnLW1hJywgJzIwMCcsICctbWV0YWxfYmluZGluZycsICctaW1hZScsICc8aW5maWxlLm1hZT4nLCAnLW9tYWUnLCAnPG91dGZpbGUubWFlPic=

> <r_epik_Ionization_Penalty>
0.61967

> <r_epik_Ionization_Penalty_Charging>
0.608065

> <r_epik_Ionization_Penalty_Neutral>
0.0116057

> <r_epik_State_Penalty>
0.664205

> <r_epik_Charging_Adjusted_Penalty>
1.27227

> <i_epik_Tot_Q>
1

> <i_epik_Tot_abs_Q>
1

> <r_epik_Metal_State_Penalty>
0.654947

> <b_epik_Metal_Only>
0

> <s_lp_Force_Field>
OPLS_2005

> <r_lp_Energy>
21.7037

> <b_lp_Chiralities_Consistent>
1

> <s_lp_Variant>
AV-unprocessed.smi:1824-8

> <Gold.Version>
5.8.1

> <Gold.Id.Protein>
6NUR|6NUR_protein|mol2

> <Gold.PLP.Fitness>
47.5193

> <Gold.PLP.PLP>
-43.8745

> <Gold.PLP.part.hbond>
-0.5372

> <Gold.PLP.part.metal>
0.0000

> <Gold.PLP.part.buried>
-4.8744

> <Gold.PLP.part.nonpolar>
-38.1976

> <Gold.PLP.part.repulsive>
0.3207

> <Gold.PLP.ligand.clash>
0.0000

> <Gold.PLP.ligand.torsion>
0.7830

> <Gold.PLP.Chemscore.Hbond>
0.7200

> <Gold.PLP.Chemscore.CHOScore>
1.0000

> <Gold.PLP.Chemscore.Metal>
0.0000

> <Gold.Chemscore.Hbonds>
donor molecule, donor type, donor heavy atom, donor atom, acceptor molecule, acceptor atom, score
      P1  H  7989  7998       L1     7  0.72
      L1  C    10    36       P1  8028  1.00

> <Gold.PLP.Chemscore.Internal.Correction>
0.0508

> <Gold.Rescore>
     Score         DG    S(hbond)    S(metal)    S(lipo)     H(rot)  DE(clash)    DE(int)     intcor
     12.88     -14.58       0.75        0.00     107.34       2.33       0.92       0.78       ----

> <Gold.Chemscore.Fitness>
12.8793

> <Gold.Chemscore.DG>
-14.5807

> <Gold.Chemscore.ZeroCoef>
-5.4800

> <Gold.Chemscore.Hbond>
0.7469

> <Gold.Chemscore.Metal>
0.0000

> <Gold.Chemscore.Lipo>
107.3382

> <Gold.Chemscore.Internal_Hbond>
0.0000

> <Gold.Chemscore.DEClash>
0.9219

> <Gold.Chemscore.DEInternal>
0.7796

> <Gold.Chemscore.Rot>
2.3251

> <Gold.Chemscore.Internal.Correction>
   9.000000E+99

> <Gold.Chemscore.Hbonds>
donor molecule, donor type, donor heavy atom, donor atom, acceptor molecule, acceptor atom, score
      P1  H  7989  7998       L1     7  0.52

> <Gold.Chemscore.Hbond.Weighted>
-2.4945

> <Gold.Chemscore.Metal.Weighted>
-0.0000

> <Gold.Chemscore.Lipo.Weighted>
-12.5586

> <Gold.Chemscore.Internal_Hbond.Weighted>
0.0000

> <Gold.Chemscore.DEClash.Weighted>
0.9219

> <Gold.Chemscore.DEInternal.Weighted>
0.7796

> <Gold.Chemscore.Rot.Weighted>
5.9523

> <Gold.Chemscore.Internal.Correction.Weighted>
   9.000000E+99

> <Gold.Protein.RotatedTorsions>
[ 6907 6896 6895 6894 ] final   77.67 input  -60.11 | X-H torsion
[ 7974 7965 7964 7962 ] final   71.36 input  175.53 | X-H torsion
[ 8008 7997 7996 7995 ] final   52.20 input   59.86 | X-H torsion
[ 10167 10162 10161 10158 ] final -147.92 input  -65.29 | X-H torsion
[ 10718 10713 10712 10709 ] final -149.39 input   66.30 | X-H torsion
[ 10763 10752 10751 10750 ] final  140.02 input  -60.55 | X-H torsion
[ 11005 11000 10999 10996 ] final  -63.36 input  -57.11 | X-H torsion

> <Gold.Protein.ActiveResidues>
 VAL166  LYS551  ARG553  GLY616  TRP617  ASP618  TYR619  PRO620  LYS621  CYS622 
 ASP623  PHE694  ASN695  SER759  ASP760  ASP761  ALA762  ILE779  LEU786  VAL792 
 PHE793  MET794  SER795  GLU796  ALA797  LYS798  CYS799  TRP800  GLU811  SER814 

> <Gold.Protein.RotatedAtoms>
  152.5127  134.3781  159.9341 H   0  0  0  0  0  0  0  0  0  0  0  0  # atno 6907 bound_to 6896
  151.3737  133.3839  159.2710 H   0  0  0  0  0  0  0  0  0  0  0  0  # atno 6908 bound_to 6896
  150.9558  134.8972  159.7758 H   0  0  0  0  0  0  0  0  0  0  0  0  # atno 6909 bound_to 6896
  145.7667  139.2825  143.1345 H   0  0  0  0  0  0  0  0  0  0  0  0  # atno 7974 bound_to 7965
  155.4479  140.3457  155.4297 H   0  0  0  0  0  0  0  0  0  0  0  0  # atno 8008 bound_to 7997
  156.1238  140.1495  156.9195 H   0  0  0  0  0  0  0  0  0  0  0  0  # atno 8009 bound_to 7997
  154.4843  140.0860  156.7430 H   0  0  0  0  0  0  0  0  0  0  0  0  # atno 8010 bound_to 7997
  139.7579  143.8421  152.2601 H   0  0  0  0  0  0  0  0  0  0  0  0  # atno 10167 bound_to 10162
  156.4326  130.8083  151.2310 H   0  0  0  0  0  0  0  0  0  0  0  0  # atno 10718 bound_to 10713
  153.9158  135.3006  155.3448 H   0  0  0  0  0  0  0  0  0  0  0  0  # atno 10763 bound_to 10752
  154.7600  135.4938  153.9450 H   0  0  0  0  0  0  0  0  0  0  0  0  # atno 10764 bound_to 10752
  153.1168  135.6772  153.9506 H   0  0  0  0  0  0  0  0  0  0  0  0  # atno 10765 bound_to 10752
  141.1391  133.6651  156.5669 H   0  0  0  0  0  0  0  0  0  0  0  0  # atno 11005 bound_to 11000
  146.0210  140.8348  142.9923 LP  0  0  0  0  0  0  0  0  0  0  0  0  # atno 17320 bound_to 7965
  144.6820  140.2629  143.7316 LP  0  0  0  0  0  0  0  0  0  0  0  0  # atno 17321 bound_to 7965
  139.8418  144.7206  150.9321 LP  0  0  0  0  0  0  0  0  0  0  0  0  # atno 17342 bound_to 10162
  140.7804  143.3976  151.1203 LP  0  0  0  0  0  0  0  0  0  0  0  0  # atno 17343 bound_to 10162
  157.7508  131.0193  150.3664 LP  0  0  0  0  0  0  0  0  0  0  0  0  # atno 17370 bound_to 10713
  156.4004  130.3915  149.6964 LP  0  0  0  0  0  0  0  0  0  0  0  0  # atno 17371 bound_to 10713
  140.3944  134.7412  157.4741 LP  0  0  0  0  0  0  0  0  0  0  0  0  # atno 17394 bound_to 11000
  140.0542  134.6087  155.8825 LP  0  0  0  0  0  0  0  0  0  0  0  0  # atno 17395 bound_to 11000

$$$$
