AV-unprocessed.smi:2479|AV-procd|sdf|9768|dock1
  -GOLD-   2272013413D 1   1.00000     0.00000
 Structure written by MMmdl.
 29 30  0  0  0  0  0  0  0  0  1 V2000
  146.5443  135.6767  161.3841 N   0  0  0  0  0  0  0  0  0  0  0  0
  147.2037  136.1905  160.5844 C   0  0  0  0  0  0  0  0  0  0  0  0
  148.0317  136.8362  159.5807 C   0  0  0  0  0  0  0  0  0  0  0  0
  147.4637  137.3553  158.4006 C   0  0  0  0  0  0  0  0  0  0  0  0
  148.1885  137.9644  157.4386 N   0  0  0  0  0  0  0  0  0  0  0  0
  149.5274  138.0900  157.6131 C   0  0  0  0  0  0  0  0  0  0  0  0
  150.2721  138.7196  156.5949 N   0  0  0  0  0  0  0  0  0  0  0  0
  150.8558  139.9633  157.0918 C   0  0  0  0  0  0  0  0  0  0  0  0
  151.5384  140.7340  155.9538 C   0  0  0  0  0  0  0  0  0  0  0  0
  152.5160  139.8971  155.3522 O   0  0  0  0  0  0  0  0  0  0  0  0
  151.9272  138.7432  154.7641 C   0  0  0  0  0  0  0  0  0  0  0  0
  151.2168  137.8815  155.8354 C   0  0  2  0  0  0  0  0  0  0  0  0
  150.6190  136.6461  155.1297 C   0  0  0  0  0  0  0  0  0  0  0  0
  149.6307  136.8271  154.2469 N   0  0  0  0  0  0  0  0  0  0  0  0
  151.0485  135.5247  155.3924 O   0  0  0  0  0  0  0  0  0  0  0  0
  150.1870  137.5951  158.7649 C   0  0  0  0  0  0  0  0  0  0  0  0
  151.8944  137.7685  158.9772 Cl  0  0  0  0  0  0  0  0  0  0  0  0
  149.4227  136.9596  159.7633 C   0  0  0  0  0  0  0  0  0  0  0  0
  146.4014  137.2820  158.2173 H   0  0  0  0  0  0  0  0  0  0  0  0
  150.0861  140.5910  157.5434 H   0  0  0  0  0  0  0  0  0  0  0  0
  151.5840  139.7399  157.8737 H   0  0  0  0  0  0  0  0  0  0  0  0
  150.8108  141.0654  155.2109 H   0  0  0  0  0  0  0  0  0  0  0  0
  152.0269  141.6270  156.3438 H   0  0  0  0  0  0  0  0  0  0  0  0
  151.2323  139.0492  153.9792 H   0  0  0  0  0  0  0  0  0  0  0  0
  152.7182  138.1714  154.2768 H   0  0  0  0  0  0  0  0  0  0  0  0
  151.9822  137.5227  156.5262 H   0  0  0  0  0  0  0  0  0  0  0  0
  149.2251  136.0315  153.7753 H   0  0  0  0  0  0  0  0  0  0  0  0
  149.2929  137.7594  154.0564 H   0  0  0  0  0  0  0  0  0  0  0  0
  149.9003  136.5761  160.6535 H   0  0  0  0  0  0  0  0  0  0  0  0
  1  2  3  0  0  0  0
  2  3  1  0  0  0  0
  3 18  1  0  0  0  0
  3  4  2  0  0  0  0
  4  5  1  0  0  0  0
  4 19  1  0  0  0  0
  5  6  2  0  0  0  0
  6  7  1  0  0  0  0
  6 16  1  0  0  0  0
  7 12  1  0  0  0  0
  7  8  1  0  0  0  0
  8  9  1  0  0  0  0
  8 20  1  0  0  0  0
  8 21  1  0  0  0  0
  9 10  1  0  0  0  0
  9 22  1  0  0  0  0
  9 23  1  0  0  0  0
 10 11  1  0  0  0  0
 11 12  1  0  0  0  0
 11 24  1  0  0  0  0
 11 25  1  0  0  0  0
 12 13  1  0  0  0  0
 12 26  1  0  0  0  0
 13 14  1  0  0  0  0
 13 15  2  0  0  0  0
 14 27  1  0  0  0  0
 14 28  1  0  0  0  0
 16 17  1  0  0  0  0
 16 18  2  0  0  0  0
 18 29  1  0  0  0  0
M  END
> <s_m_source_file>
AV-unprocessed.smi

> <i_m_source_file_index>
2479

> <i_lp_mmshare_version>
43012

> <i_f3d_flags>
0

> <s_epik_input>
TiNDYzFbY0hdbmMoYyhDbClbY0hdMSlOMltDSDJdW0NIMl1PW0NIMl1bQ0BIXTJDKD1PKVtOSDJd

> <s_epik_cmdline>
J2VwaWtfcHl0aG9uJywgJy1waCcsICc3LjAnLCAnLXRuJywgJzgnLCAnLW1hJywgJzIwMCcsICctbWV0YWxfYmluZGluZycsICctaW1hZScsICc8aW5maWxlLm1hZT4nLCAnLW9tYWUnLCAnPG91dGZpbGUubWFlPic=

> <r_lp_tautomer_probability>
1

> <r_epik_Ionization_Penalty>
1.61078e-07

> <r_epik_Ionization_Penalty_Charging>
0

> <r_epik_Ionization_Penalty_Neutral>
1.61078e-07

> <r_epik_State_Penalty>
-0

> <r_epik_Charging_Adjusted_Penalty>
0

> <i_epik_Tot_Q>
0

> <i_epik_Tot_abs_Q>
0

> <r_epik_Metal_State_Penalty>
-0

> <b_epik_Metal_Only>
0

> <s_lp_Force_Field>
OPLS_2005

> <r_lp_Energy>
19.0846

> <b_lp_Chiralities_Consistent>
1

> <s_lp_Variant>
AV-unprocessed.smi:2479-2

> <Gold.Version>
5.8.1

> <Gold.Id.Protein>
6NUR|6NUR_protein|mol2

> <Gold.PLP.Fitness>
30.2380

> <Gold.PLP.PLP>
-23.3842

> <Gold.PLP.part.hbond>
-4.1151

> <Gold.PLP.part.metal>
0.0000

> <Gold.PLP.part.buried>
-2.5054

> <Gold.PLP.part.nonpolar>
-16.7257

> <Gold.PLP.part.repulsive>
0.1247

> <Gold.PLP.ligand.clash>
0.0000

> <Gold.PLP.ligand.torsion>
0.1156

> <Gold.PLP.Chemscore.Hbond>
2.3070

> <Gold.PLP.Chemscore.CHOScore>
0.0000

> <Gold.PLP.Chemscore.Metal>
0.0000

> <Gold.Chemscore.Hbonds>
donor molecule, donor type, donor heavy atom, donor atom, acceptor molecule, acceptor atom, score
      L1  H    14    27       P1  7948  0.32
      P1  H  7997  8008       L1    10  1.00
      P1  H 10752 10763       L1    15  0.94

> <Gold.PLP.Chemscore.Internal.Correction>
0.1640

> <Gold.Rescore>
     Score         DG    S(hbond)    S(metal)    S(lipo)     H(rot)  DE(clash)    DE(int)     intcor
     15.11     -15.35       2.72        0.00      39.50       1.50       0.15       0.09       ----

> <Gold.Chemscore.Fitness>
15.1128

> <Gold.Chemscore.DG>
-15.3520

> <Gold.Chemscore.ZeroCoef>
-5.4800

> <Gold.Chemscore.Hbond>
2.7222

> <Gold.Chemscore.Metal>
0.0000

> <Gold.Chemscore.Lipo>
39.4999

> <Gold.Chemscore.Internal_Hbond>
0.0000

> <Gold.Chemscore.DEClash>
0.1525

> <Gold.Chemscore.DEInternal>
0.0867

> <Gold.Chemscore.Rot>
1.5006

> <Gold.Chemscore.Internal.Correction>
   9.000000E+99

> <Gold.Chemscore.Hbonds>
donor molecule, donor type, donor heavy atom, donor atom, acceptor molecule, acceptor atom, score
      L1  H    14    27       P1  7948  0.27
      P1  H  7997  8008       L1    10  0.81
      P1  H 10752 10763       L1    15  0.57

> <Gold.Chemscore.Hbond.Weighted>
-9.0921

> <Gold.Chemscore.Metal.Weighted>
-0.0000

> <Gold.Chemscore.Lipo.Weighted>
-4.6215

> <Gold.Chemscore.Internal_Hbond.Weighted>
0.0000

> <Gold.Chemscore.DEClash.Weighted>
0.1525

> <Gold.Chemscore.DEInternal.Weighted>
0.0867

> <Gold.Chemscore.Rot.Weighted>
3.8416

> <Gold.Chemscore.Internal.Correction.Weighted>
   9.000000E+99

> <Gold.Protein.RotatedTorsions>
[ 6907 6896 6895 6894 ] final  -25.25 input  -60.11 | X-H torsion
[ 7974 7965 7964 7962 ] final  134.50 input  175.53 | X-H torsion
[ 8008 7997 7996 7995 ] final  -31.30 input   59.86 | X-H torsion
[ 10167 10162 10161 10158 ] final  -54.86 input  -65.29 | X-H torsion
[ 10718 10713 10712 10709 ] final  -99.68 input   66.30 | X-H torsion
[ 10763 10752 10751 10750 ] final   82.05 input  -60.55 | X-H torsion
[ 11005 11000 10999 10996 ] final  -58.27 input  -57.11 | X-H torsion

> <Gold.Protein.ActiveResidues>
 VAL166  LYS551  ARG553  GLY616  TRP617  ASP618  TYR619  PRO620  LYS621  CYS622 
 ASP623  PHE694  ASN695  SER759  ASP760  ASP761  ALA762  ILE779  LEU786  VAL792 
 PHE793  MET794  SER795  GLU796  ALA797  LYS798  CYS799  TRP800  GLU811  SER814 

> <Gold.Protein.RotatedAtoms>
  151.1779  135.0348  159.8779 H   0  0  0  0  0  0  0  0  0  0  0  0  # atno 6907 bound_to 6896
  152.5446  134.1096  159.8363 H   0  0  0  0  0  0  0  0  0  0  0  0  # atno 6908 bound_to 6896
  151.1209  133.5058  159.2634 H   0  0  0  0  0  0  0  0  0  0  0  0  # atno 6909 bound_to 6896
  144.9757  139.4558  143.5411 H   0  0  0  0  0  0  0  0  0  0  0  0  # atno 7974 bound_to 7965
  154.4219  140.1768  156.1544 H   0  0  0  0  0  0  0  0  0  0  0  0  # atno 8008 bound_to 7997
  155.9889  140.3371  155.6709 H   0  0  0  0  0  0  0  0  0  0  0  0  # atno 8009 bound_to 7997
  155.6400  140.0679  157.2612 H   0  0  0  0  0  0  0  0  0  0  0  0  # atno 8010 bound_to 7997
  140.6407  143.2506  151.4997 H   0  0  0  0  0  0  0  0  0  0  0  0  # atno 10167 bound_to 10162
  156.0141  130.5293  150.6706 H   0  0  0  0  0  0  0  0  0  0  0  0  # atno 10718 bound_to 10713
  153.1169  135.4743  154.9130 H   0  0  0  0  0  0  0  0  0  0  0  0  # atno 10763 bound_to 10752
  154.7537  135.3113  154.8512 H   0  0  0  0  0  0  0  0  0  0  0  0  # atno 10764 bound_to 10752
  153.9086  135.6867  153.4805 H   0  0  0  0  0  0  0  0  0  0  0  0  # atno 10765 bound_to 10752
  141.1200  133.6612  156.4894 H   0  0  0  0  0  0  0  0  0  0  0  0  # atno 11005 bound_to 11000
  146.3394  139.8997  142.8796 LP  0  0  0  0  0  0  0  0  0  0  0  0  # atno 17320 bound_to 7965
  145.2494  141.0038  143.3890 LP  0  0  0  0  0  0  0  0  0  0  0  0  # atno 17321 bound_to 7965
  139.5616  144.2142  152.1701 LP  0  0  0  0  0  0  0  0  0  0  0  0  # atno 17342 bound_to 10162
  140.1411  144.5201  150.6743 LP  0  0  0  0  0  0  0  0  0  0  0  0  # atno 17343 bound_to 10162
  157.4430  131.0863  151.0924 LP  0  0  0  0  0  0  0  0  0  0  0  0  # atno 17370 bound_to 10713
  157.1463  130.6165  149.5569 LP  0  0  0  0  0  0  0  0  0  0  0  0  # atno 17371 bound_to 10713
  140.4535  134.6907  157.5051 LP  0  0  0  0  0  0  0  0  0  0  0  0  # atno 17394 bound_to 11000
  140.0150  134.6633  155.9324 LP  0  0  0  0  0  0  0  0  0  0  0  0  # atno 17395 bound_to 11000

$$$$
