AV-unprocessed.smi:3007|AV-procd|sdf|11446|dock2
  -GOLD-   2272016373D 1   1.00000     0.00000
 Structure written by MMmdl.
 39 40  0  0  0  0  0  0  0  0  1 V2000
  152.1649  143.9884  161.7073 C   0  0  0  0  0  0  0  0  0  0  0  0
  152.0747  144.6233  160.3179 C   0  0  0  0  0  0  0  0  0  0  0  0
  151.6175  145.7633  160.2322 O   0  0  0  0  0  0  0  0  0  0  0  0
  152.4955  143.9204  159.2388 N   0  0  0  0  0  0  0  0  0  0  0  0
  152.9903  142.5419  159.3338 C   0  0  0  0  0  0  0  0  0  0  0  0
  151.9609  141.5971  158.6883 C   0  0  0  0  0  0  0  0  0  0  0  0
  151.6660  142.0040  157.2293 C   0  0  0  0  0  0  0  0  0  0  0  0
  150.5634  141.2016  156.7108 N   0  0  0  0  0  0  0  0  0  0  0  0
  150.6416  140.3490  155.6764 C   0  0  0  0  0  0  0  0  0  0  0  0
  151.6847  140.1401  155.0553 O   0  0  0  0  0  0  0  0  0  0  0  0
  149.3383  139.6285  155.2941 C   0  0  2  0  0  0  0  0  0  0  0  0
  149.5391  138.5640  154.1961 C   0  0  0  0  0  0  0  0  0  0  0  0
  148.3073  140.5967  154.9371 N   0  0  0  0  0  0  0  0  0  0  0  0
  148.2692  141.4284  153.8359 C   0  0  0  0  0  0  0  0  0  0  0  0
  147.1021  142.1345  153.8942 C   0  0  0  0  0  0  0  0  0  0  0  0
  146.4750  141.6529  155.0766 C   0  0  0  0  0  0  0  0  0  0  0  0
  147.1932  140.7296  155.6942 N   0  0  0  0  0  0  0  0  0  0  0  0
  151.3391  143.5111  157.1210 C   0  0  0  0  0  0  0  0  0  0  0  0
  152.3968  144.3652  157.8428 C   0  0  0  0  0  0  0  0  0  0  0  0
  153.1966  143.7317  161.9498 H   0  0  0  0  0  0  0  0  0  0  0  0
  151.5520  143.0885  161.7614 H   0  0  0  0  0  0  0  0  0  0  0  0
  151.8062  144.6805  162.4699 H   0  0  0  0  0  0  0  0  0  0  0  0
  153.9468  142.4646  158.8150 H   0  0  0  0  0  0  0  0  0  0  0  0
  153.1848  142.2315  160.3613 H   0  0  0  0  0  0  0  0  0  0  0  0
  152.3248  140.5699  158.7247 H   0  0  0  0  0  0  0  0  0  0  0  0
  151.0402  141.6201  159.2738 H   0  0  0  0  0  0  0  0  0  0  0  0
  152.5644  141.8020  156.6425 H   0  0  0  0  0  0  0  0  0  0  0  0
  149.6681  141.3134  157.1637 H   0  0  0  0  0  0  0  0  0  0  0  0
  148.9910  139.1056  156.1867 H   0  0  0  0  0  0  0  0  0  0  0  0
  150.2613  137.8091  154.5084 H   0  0  0  0  0  0  0  0  0  0  0  0
  149.8987  138.9993  153.2628 H   0  0  0  0  0  0  0  0  0  0  0  0
  148.6029  138.0488  153.9799 H   0  0  0  0  0  0  0  0  0  0  0  0
  149.0681  141.4491  153.1092 H   0  0  0  0  0  0  0  0  0  0  0  0
  146.7480  142.8782  153.1957 H   0  0  0  0  0  0  0  0  0  0  0  0
  145.5245  141.9422  155.4999 H   0  0  0  0  0  0  0  0  0  0  0  0
  151.2757  143.8084  156.0736 H   0  0  0  0  0  0  0  0  0  0  0  0
  150.3592  143.7101  157.5578 H   0  0  0  0  0  0  0  0  0  0  0  0
  152.1535  145.4211  157.7359 H   0  0  0  0  0  0  0  0  0  0  0  0
  153.3668  144.2415  157.3592 H   0  0  0  0  0  0  0  0  0  0  0  0
  1  2  1  0  0  0  0
  1 20  1  0  0  0  0
  1 21  1  0  0  0  0
  1 22  1  0  0  0  0
  2  3  2  0  0  0  0
  2  4  1  0  0  0  0
  4 19  1  0  0  0  0
  4  5  1  0  0  0  0
  5  6  1  0  0  0  0
  5 23  1  0  0  0  0
  5 24  1  0  0  0  0
  6  7  1  0  0  0  0
  6 25  1  0  0  0  0
  6 26  1  0  0  0  0
  7  8  1  0  0  0  0
  7 18  1  0  0  0  0
  7 27  1  0  0  0  0
  8  9  1  0  0  0  0
  8 28  1  0  0  0  0
  9 10  2  0  0  0  0
  9 11  1  0  0  0  0
 11 12  1  0  0  0  0
 11 13  1  0  0  0  0
 11 29  1  0  0  0  0
 12 30  1  0  0  0  0
 12 31  1  0  0  0  0
 12 32  1  0  0  0  0
 13 17  1  0  0  0  0
 13 14  1  0  0  0  0
 14 15  2  0  0  0  0
 14 33  1  0  0  0  0
 15 16  1  0  0  0  0
 15 34  1  0  0  0  0
 16 17  2  0  0  0  0
 16 35  1  0  0  0  0
 18 19  1  0  0  0  0
 18 36  1  0  0  0  0
 18 37  1  0  0  0  0
 19 38  1  0  0  0  0
 19 39  1  0  0  0  0
M  END
> <s_m_source_file>
AV-unprocessed.smi

> <i_m_source_file_index>
3007

> <i_lp_mmshare_version>
43012

> <i_f3d_flags>
0

> <s_epik_input>
W0NIM11DKD1PKU4xW0NIMl1bQ0gyXVtDSF0oW0NIMl1bQ0gyXTEpW05IXUMoPU8pW0NASF0oW0NIM10pbjJbY0hdW2NIXVtjSF1uMg==

> <s_epik_cmdline>
J2VwaWtfcHl0aG9uJywgJy1waCcsICc3LjAnLCAnLXRuJywgJzgnLCAnLW1hJywgJzIwMCcsICctbWV0YWxfYmluZGluZycsICctaW1hZScsICc8aW5maWxlLm1hZT4nLCAnLW9tYWUnLCAnPG91dGZpbGUubWFlPic=

> <r_lp_tautomer_probability>
1

> <r_epik_Ionization_Penalty>
4.2887e-05

> <r_epik_Ionization_Penalty_Charging>
0

> <r_epik_Ionization_Penalty_Neutral>
4.2887e-05

> <r_epik_State_Penalty>
-0

> <r_epik_Charging_Adjusted_Penalty>
0

> <i_epik_Tot_Q>
0

> <i_epik_Tot_abs_Q>
0

> <r_epik_Metal_State_Penalty>
-0

> <b_epik_Metal_Only>
0

> <s_lp_Force_Field>
OPLS_2005

> <r_lp_Energy>
25.1722

> <b_lp_Chiralities_Consistent>
1

> <s_lp_Variant>
AV-unprocessed.smi:3007-1

> <Gold.Version>
5.8.1

> <Gold.Id.Protein>
6NUR|6NUR_protein|mol2

> <Gold.PLP.Fitness>
48.5533

> <Gold.PLP.PLP>
-42.7425

> <Gold.PLP.part.hbond>
-1.0000

> <Gold.PLP.part.metal>
0.0000

> <Gold.PLP.part.buried>
-4.6075

> <Gold.PLP.part.nonpolar>
-36.8796

> <Gold.PLP.part.repulsive>
0.3582

> <Gold.PLP.ligand.clash>
0.0000

> <Gold.PLP.ligand.torsion>
0.0906

> <Gold.PLP.Chemscore.Hbond>
0.9600

> <Gold.PLP.Chemscore.CHOScore>
1.0000

> <Gold.PLP.Chemscore.Metal>
0.0000

> <Gold.Chemscore.Hbonds>
donor molecule, donor type, donor heavy atom, donor atom, acceptor molecule, acceptor atom, score
      P1  H  7989  7998       L1    10  0.96
      L1  C    14    33       P1  7957  1.00

> <Gold.PLP.Chemscore.Internal.Correction>
0.1119

> <Gold.Rescore>
     Score         DG    S(hbond)    S(metal)    S(lipo)     H(rot)  DE(clash)    DE(int)     intcor
     15.25     -16.03       0.95        0.00      95.11       1.46       0.62       0.16       ----

> <Gold.Chemscore.Fitness>
15.2503

> <Gold.Chemscore.DG>
-16.0328

> <Gold.Chemscore.ZeroCoef>
-5.4800

> <Gold.Chemscore.Hbond>
0.9455

> <Gold.Chemscore.Metal>
0.0000

> <Gold.Chemscore.Lipo>
95.1112

> <Gold.Chemscore.Internal_Hbond>
0.0000

> <Gold.Chemscore.DEClash>
0.6221

> <Gold.Chemscore.DEInternal>
0.1605

> <Gold.Chemscore.Rot>
1.4583

> <Gold.Chemscore.Internal.Correction>
   9.000000E+99

> <Gold.Chemscore.Hbonds>
donor molecule, donor type, donor heavy atom, donor atom, acceptor molecule, acceptor atom, score
      P1  H  7989  7998       L1    10  0.76

> <Gold.Chemscore.Hbond.Weighted>
-3.1580

> <Gold.Chemscore.Metal.Weighted>
-0.0000

> <Gold.Chemscore.Lipo.Weighted>
-11.1280

> <Gold.Chemscore.Internal_Hbond.Weighted>
0.0000

> <Gold.Chemscore.DEClash.Weighted>
0.6221

> <Gold.Chemscore.DEInternal.Weighted>
0.1605

> <Gold.Chemscore.Rot.Weighted>
3.7332

> <Gold.Chemscore.Internal.Correction.Weighted>
   9.000000E+99

> <Gold.Protein.RotatedTorsions>
[ 6907 6896 6895 6894 ] final  151.00 input  -60.11 | X-H torsion
[ 7974 7965 7964 7962 ] final   83.92 input  175.53 | X-H torsion
[ 8008 7997 7996 7995 ] final  162.25 input   59.86 | X-H torsion
[ 10167 10162 10161 10158 ] final  100.26 input  -65.29 | X-H torsion
[ 10718 10713 10712 10709 ] final    2.18 input   66.30 | X-H torsion
[ 10763 10752 10751 10750 ] final  104.44 input  -60.55 | X-H torsion
[ 11005 11000 10999 10996 ] final -179.01 input  -57.11 | X-H torsion

> <Gold.Protein.ActiveResidues>
 VAL166  LYS551  ARG553  GLY616  TRP617  ASP618  TYR619  PRO620  LYS621  CYS622 
 ASP623  PHE694  ASN695  SER759  ASP760  ASP761  ALA762  ILE779  LEU786  VAL792 
 PHE793  MET794  SER795  GLU796  ALA797  LYS798  CYS799  TRP800  GLU811  SER814 

> <Gold.Protein.RotatedAtoms>
  152.1067  133.4278  159.4611 H   0  0  0  0  0  0  0  0  0  0  0  0  # atno 6907 bound_to 6896
  150.6866  134.2696  159.4592 H   0  0  0  0  0  0  0  0  0  0  0  0  # atno 6908 bound_to 6896
  152.0562  134.9623  160.0625 H   0  0  0  0  0  0  0  0  0  0  0  0  # atno 6909 bound_to 6896
  145.6055  139.2359  143.2222 H   0  0  0  0  0  0  0  0  0  0  0  0  # atno 7974 bound_to 7965
  156.2045  140.1755  156.7830 H   0  0  0  0  0  0  0  0  0  0  0  0  # atno 8008 bound_to 7997
  154.5636  140.0695  156.8887 H   0  0  0  0  0  0  0  0  0  0  0  0  # atno 8009 bound_to 7997
  155.2803  140.3348  155.4261 H   0  0  0  0  0  0  0  0  0  0  0  0  # atno 8010 bound_to 7997
  139.7543  144.6974  151.0385 H   0  0  0  0  0  0  0  0  0  0  0  0  # atno 10167 bound_to 10162
  156.8592  130.5581  149.5664 H   0  0  0  0  0  0  0  0  0  0  0  0  # atno 10718 bound_to 10713
  153.3660  135.3943  155.1753 H   0  0  0  0  0  0  0  0  0  0  0  0  # atno 10763 bound_to 10752
  154.8687  135.3691  154.5039 H   0  0  0  0  0  0  0  0  0  0  0  0  # atno 10764 bound_to 10752
  153.5502  135.7083  153.5655 H   0  0  0  0  0  0  0  0  0  0  0  0  # atno 10765 bound_to 10752
  140.4234  134.6584  157.4676 H   0  0  0  0  0  0  0  0  0  0  0  0  # atno 11005 bound_to 11000
  146.1544  140.6879  142.9307 LP  0  0  0  0  0  0  0  0  0  0  0  0  # atno 17320 bound_to 7965
  144.7292  140.4619  143.6950 LP  0  0  0  0  0  0  0  0  0  0  0  0  # atno 17321 bound_to 7965
  140.7801  143.4771  151.0067 LP  0  0  0  0  0  0  0  0  0  0  0  0  # atno 17342 bound_to 10162
  139.8458  143.7503  152.3179 LP  0  0  0  0  0  0  0  0  0  0  0  0  # atno 17343 bound_to 10162
  156.0786  130.5802  150.9520 LP  0  0  0  0  0  0  0  0  0  0  0  0  # atno 17370 bound_to 10713
  157.6260  131.0925  150.8533 LP  0  0  0  0  0  0  0  0  0  0  0  0  # atno 17371 bound_to 10713
  140.0184  134.6584  155.9276 LP  0  0  0  0  0  0  0  0  0  0  0  0  # atno 17394 bound_to 11000
  141.1775  133.6542  156.4885 LP  0  0  0  0  0  0  0  0  0  0  0  0  # atno 17395 bound_to 11000

$$$$
