AV-unprocessed.smi:2823|AV-procd|sdf|10884|dock6
  -GOLD-   2272015323D 1   1.00000     0.00000
 Structure written by MMmdl.
 42 43  0  0  0  0  0  0  0  0  1 V2000
  144.8967  132.1754  149.8639 C   0  0  0  0  0  0  0  0  0  0  0  0
  145.1101  133.1563  150.9653 C   0  0  0  0  0  0  0  0  0  0  0  0
  144.1638  133.3874  151.8683 N   0  0  0  0  0  0  0  0  0  0  0  0
  144.7448  134.3479  152.7096 O   0  0  0  0  0  0  0  0  0  0  0  0
  145.9806  134.5750  152.2003 C   0  0  0  0  0  0  0  0  0  0  0  0
  146.8991  135.4904  152.7681 N   0  0  0  0  0  0  0  0  0  0  0  0
  146.7248  136.2206  153.8809 C   0  0  0  0  0  0  0  0  0  0  0  0
  145.7162  136.2026  154.5867 O   0  0  0  0  0  0  0  0  0  0  0  0
  147.8003  136.9784  154.1395 N   0  0  0  0  0  0  0  0  0  0  0  0
  147.9625  137.8689  155.2899 C   0  0  0  0  0  0  0  0  0  0  0  0
  148.2459  139.3496  154.8892 C   0  0  0  0  0  0  0  0  0  0  0  0
  149.7644  139.7089  155.0384 C   0  0  0  0  0  0  0  0  0  0  0  0
  150.3516  140.1451  154.0451 O   0  0  0  0  0  0  0  0  0  0  0  0
  150.4433  139.5636  156.2092 N   0  0  0  0  0  0  0  0  0  0  0  0
  151.8783  139.8650  156.2520 C   0  0  0  0  0  0  0  0  0  0  0  0
  149.9210  139.1426  157.5124 C   0  0  0  0  0  0  0  0  0  0  0  0
  147.6742  139.7422  153.5023 C   0  0  0  0  0  0  0  0  0  0  0  0
  147.4139  141.2538  153.5393 C   0  0  0  0  0  0  0  0  0  0  0  0
  147.2241  141.6085  155.0157 C   0  0  0  0  0  0  0  0  0  0  0  0
  147.3682  140.2828  155.7701 C   0  0  0  0  0  0  0  0  0  0  0  0
  146.2648  133.8637  151.1140 N   0  0  0  0  0  0  0  0  0  0  0  0
  144.0585  132.4856  149.2394 H   0  0  0  0  0  0  0  0  0  0  0  0
  144.6791  131.1887  150.2738 H   0  0  0  0  0  0  0  0  0  0  0  0
  145.7849  132.0995  149.2357 H   0  0  0  0  0  0  0  0  0  0  0  0
  147.7771  135.5929  152.2815 H   0  0  0  0  0  0  0  0  0  0  0  0
  148.5794  136.9249  153.4997 H   0  0  0  0  0  0  0  0  0  0  0  0
  147.0614  137.7712  155.8880 H   0  0  0  0  0  0  0  0  0  0  0  0
  148.7567  137.4990  155.9405 H   0  0  0  0  0  0  0  0  0  0  0  0
  152.4182  139.3025  155.4885 H   0  0  0  0  0  0  0  0  0  0  0  0
  152.3289  139.6106  157.2125 H   0  0  0  0  0  0  0  0  0  0  0  0
  152.0508  140.9283  156.0800 H   0  0  0  0  0  0  0  0  0  0  0  0
  148.8411  139.1006  157.5924 H   0  0  0  0  0  0  0  0  0  0  0  0
  150.2570  139.8284  158.2909 H   0  0  0  0  0  0  0  0  0  0  0  0
  150.3035  138.1512  157.7575 H   0  0  0  0  0  0  0  0  0  0  0  0
  148.2962  139.4932  152.6472 H   0  0  0  0  0  0  0  0  0  0  0  0
  146.7261  139.2255  153.3459 H   0  0  0  0  0  0  0  0  0  0  0  0
  148.2714  141.7947  153.1370 H   0  0  0  0  0  0  0  0  0  0  0  0
  146.5453  141.5232  152.9377 H   0  0  0  0  0  0  0  0  0  0  0  0
  147.9943  142.3128  155.3325 H   0  0  0  0  0  0  0  0  0  0  0  0
  146.2561  142.0731  155.2065 H   0  0  0  0  0  0  0  0  0  0  0  0
  146.3733  139.8490  155.8828 H   0  0  0  0  0  0  0  0  0  0  0  0
  147.7410  140.4276  156.7849 H   0  0  0  0  0  0  0  0  0  0  0  0
  1  2  1  0  0  0  0
  1 22  1  0  0  0  0
  1 23  1  0  0  0  0
  1 24  1  0  0  0  0
  2 21  1  0  0  0  0
  2  3  2  0  0  0  0
  3  4  1  0  0  0  0
  4  5  1  0  0  0  0
  5  6  1  0  0  0  0
  5 21  2  0  0  0  0
  6  7  1  0  0  0  0
  6 25  1  0  0  0  0
  7  8  2  0  0  0  0
  7  9  1  0  0  0  0
  9 10  1  0  0  0  0
  9 26  1  0  0  0  0
 10 11  1  0  0  0  0
 10 27  1  0  0  0  0
 10 28  1  0  0  0  0
 11 20  1  0  0  0  0
 11 12  1  0  0  0  0
 11 17  1  0  0  0  0
 12 13  2  0  0  0  0
 12 14  1  0  0  0  0
 14 15  1  0  0  0  0
 14 16  1  0  0  0  0
 15 29  1  0  0  0  0
 15 30  1  0  0  0  0
 15 31  1  0  0  0  0
 16 32  1  0  0  0  0
 16 33  1  0  0  0  0
 16 34  1  0  0  0  0
 17 18  1  0  0  0  0
 17 35  1  0  0  0  0
 17 36  1  0  0  0  0
 18 19  1  0  0  0  0
 18 37  1  0  0  0  0
 18 38  1  0  0  0  0
 19 20  1  0  0  0  0
 19 39  1  0  0  0  0
 19 40  1  0  0  0  0
 20 41  1  0  0  0  0
 20 42  1  0  0  0  0
M  END
> <s_m_source_file>
AV-unprocessed.smi

> <i_m_source_file_index>
2823

> <i_lp_mmshare_version>
43012

> <i_f3d_flags>
0

> <s_epik_input>
W0NIM11jMW5vYyhuMSlbTkhdQyg9TylbTkhdW0NIMl1DMihDKD1PKU4oW0NIM10pW0NIM10pW0NIMl1bQ0gyXVtDSDJdW0NIMl0y

> <s_epik_cmdline>
J2VwaWtfcHl0aG9uJywgJy1waCcsICc3LjAnLCAnLXRuJywgJzgnLCAnLW1hJywgJzIwMCcsICctbWV0YWxfYmluZGluZycsICctaW1hZScsICc8aW5maWxlLm1hZT4nLCAnLW9tYWUnLCAnPG91dGZpbGUubWFlPic=

> <r_lp_tautomer_probability>
1

> <r_epik_Ionization_Penalty>
4.1201e-05

> <r_epik_Ionization_Penalty_Charging>
0

> <r_epik_Ionization_Penalty_Neutral>
4.1201e-05

> <r_epik_State_Penalty>
-0

> <r_epik_Charging_Adjusted_Penalty>
0

> <i_epik_Tot_Q>
0

> <i_epik_Tot_abs_Q>
0

> <r_epik_Metal_State_Penalty>
0.0212056

> <b_epik_Metal_Only>
0

> <s_lp_Force_Field>
OPLS_2005

> <r_lp_Energy>
33.0432

> <b_lp_Chiralities_Consistent>
1

> <s_lp_Variant>
AV-unprocessed.smi:2823-1

> <Gold.Version>
5.8.1

> <Gold.Id.Protein>
6NUR|6NUR_protein|mol2

> <Gold.PLP.Fitness>
31.6726

> <Gold.PLP.PLP>
-24.2909

> <Gold.PLP.part.hbond>
-3.0000

> <Gold.PLP.part.metal>
0.0000

> <Gold.PLP.part.buried>
-5.2264

> <Gold.PLP.part.nonpolar>
-17.2832

> <Gold.PLP.part.repulsive>
1.2862

> <Gold.PLP.ligand.clash>
0.0000

> <Gold.PLP.ligand.torsion>
0.9118

> <Gold.PLP.Chemscore.Hbond>
3.0000

> <Gold.PLP.Chemscore.CHOScore>
0.0000

> <Gold.PLP.Chemscore.Metal>
0.0000

> <Gold.Chemscore.Hbonds>
donor molecule, donor type, donor heavy atom, donor atom, acceptor molecule, acceptor atom, score
      L1  H     6    25       P1  7948  0.62
      L1  H     9    26       P1  7948  0.78
      P1  H  7989  7998       L1    13  1.00

> <Gold.PLP.Chemscore.Internal.Correction>
0.2052

> <Gold.Rescore>
     Score         DG    S(hbond)    S(metal)    S(lipo)     H(rot)  DE(clash)    DE(int)     intcor
     13.79     -16.01       2.96        0.00      43.57       1.74       0.01       2.22       ----

> <Gold.Chemscore.Fitness>
13.7894

> <Gold.Chemscore.DG>
-16.0140

> <Gold.Chemscore.ZeroCoef>
-5.4800

> <Gold.Chemscore.Hbond>
2.9582

> <Gold.Chemscore.Metal>
0.0000

> <Gold.Chemscore.Lipo>
43.5708

> <Gold.Chemscore.Internal_Hbond>
0.0000

> <Gold.Chemscore.DEClash>
0.0067

> <Gold.Chemscore.DEInternal>
2.2179

> <Gold.Chemscore.Rot>
1.7360

> <Gold.Chemscore.Internal.Correction>
   9.000000E+99

> <Gold.Chemscore.Hbonds>
donor molecule, donor type, donor heavy atom, donor atom, acceptor molecule, acceptor atom, score
      L1  H     6    25       P1  7948  0.62
      L1  H     9    26       P1  7948  0.80
      P1  H  7989  7998       L1    13  0.91

> <Gold.Chemscore.Hbond.Weighted>
-9.8804

> <Gold.Chemscore.Metal.Weighted>
-0.0000

> <Gold.Chemscore.Lipo.Weighted>
-5.0978

> <Gold.Chemscore.Internal_Hbond.Weighted>
0.0000

> <Gold.Chemscore.DEClash.Weighted>
0.0067

> <Gold.Chemscore.DEInternal.Weighted>
2.2179

> <Gold.Chemscore.Rot.Weighted>
4.4443

> <Gold.Chemscore.Internal.Correction.Weighted>
   9.000000E+99

> <Gold.Protein.RotatedTorsions>
[ 6907 6896 6895 6894 ] final  -69.63 input  -60.11 | X-H torsion
[ 7974 7965 7964 7962 ] final -102.80 input  175.53 | X-H torsion
[ 8008 7997 7996 7995 ] final  -27.47 input   59.86 | X-H torsion
[ 10167 10162 10161 10158 ] final  115.80 input  -65.29 | X-H torsion
[ 10718 10713 10712 10709 ] final  -32.44 input   66.30 | X-H torsion
[ 10763 10752 10751 10750 ] final  178.37 input  -60.55 | X-H torsion
[ 11005 11000 10999 10996 ] final   -7.87 input  -57.11 | X-H torsion

> <Gold.Protein.ActiveResidues>
 VAL166  LYS551  ARG553  GLY616  TRP617  ASP618  TYR619  PRO620  LYS621  CYS622 
 ASP623  PHE694  ASN695  SER759  ASP760  ASP761  ALA762  ILE779  LEU786  VAL792 
 PHE793  MET794  SER795  GLU796  ALA797  LYS798  CYS799  TRP800  GLU811  SER814 

> <Gold.Protein.RotatedAtoms>
  150.7296  134.5569  159.5822 H   0  0  0  0  0  0  0  0  0  0  0  0  # atno 6907 bound_to 6896
  152.3042  134.7571  160.0360 H   0  0  0  0  0  0  0  0  0  0  0  0  # atno 6908 bound_to 6896
  151.8141  133.3350  159.3601 H   0  0  0  0  0  0  0  0  0  0  0  0  # atno 6909 bound_to 6896
  145.2640  140.9278  143.3024 H   0  0  0  0  0  0  0  0  0  0  0  0  # atno 7974 bound_to 7965
  154.4376  140.1871  156.0938 H   0  0  0  0  0  0  0  0  0  0  0  0  # atno 8008 bound_to 7997
  156.0345  140.3327  155.7150 H   0  0  0  0  0  0  0  0  0  0  0  0  # atno 8009 bound_to 7997
  155.5790  140.0620  157.2778 H   0  0  0  0  0  0  0  0  0  0  0  0  # atno 8010 bound_to 7997
  139.6292  144.7112  151.2469 H   0  0  0  0  0  0  0  0  0  0  0  0  # atno 10167 bound_to 10162
  156.3749  130.4346  149.7515 H   0  0  0  0  0  0  0  0  0  0  0  0  # atno 10718 bound_to 10713
  154.5067  135.2786  155.1376 H   0  0  0  0  0  0  0  0  0  0  0  0  # atno 10763 bound_to 10752
  154.2987  135.6252  153.5419 H   0  0  0  0  0  0  0  0  0  0  0  0  # atno 10764 bound_to 10752
  152.9911  135.5691  154.5523 H   0  0  0  0  0  0  0  0  0  0  0  0  # atno 10765 bound_to 10752
  140.7174  133.8857  155.8795 H   0  0  0  0  0  0  0  0  0  0  0  0  # atno 11005 bound_to 11000
  144.9393  139.4207  143.6457 LP  0  0  0  0  0  0  0  0  0  0  0  0  # atno 17320 bound_to 7965
  146.3266  139.8345  142.8902 LP  0  0  0  0  0  0  0  0  0  0  0  0  # atno 17321 bound_to 7965
  140.7429  143.6512  150.8247 LP  0  0  0  0  0  0  0  0  0  0  0  0  # atno 17342 bound_to 10162
  140.0134  143.5618  152.2830 LP  0  0  0  0  0  0  0  0  0  0  0  0  # atno 17343 bound_to 10162
  156.4628  130.7960  151.2980 LP  0  0  0  0  0  0  0  0  0  0  0  0  # atno 17370 bound_to 10713
  157.7487  131.0060  150.3136 LP  0  0  0  0  0  0  0  0  0  0  0  0  # atno 17371 bound_to 10713
  141.0033  134.1121  157.4296 LP  0  0  0  0  0  0  0  0  0  0  0  0  # atno 17394 bound_to 11000
  139.8856  135.0074  156.6448 LP  0  0  0  0  0  0  0  0  0  0  0  0  # atno 17395 bound_to 11000

$$$$
