AV-unprocessed.smi:249|AV-procd|sdf|1915|dock5
  -GOLD-   2262021 13D 1   1.00000     0.00000
 Structure written by MMmdl.
 64 67  0  0  0  0  0  0  0  0  2 V2000
  143.8701  132.9364  151.1625 C   0  0  0  0  0  0  0  0  0  0  0  0
  144.1942  134.0506  152.1709 C   0  0  0  0  0  0  0  0  0  0  0  0
  144.7537  133.5396  153.4559 N   0  3  1  0  0  0  0  0  0  0  0  0
  146.0145  132.7732  153.2359 C   0  0  0  0  0  0  0  0  0  0  0  0
  146.5659  132.1699  154.5373 C   0  0  0  0  0  0  0  0  0  0  0  0
  146.8364  133.2578  155.5901 C   0  0  1  0  0  0  0  0  0  0  0  0
  147.9428  134.1490  155.2036 N   0  0  0  0  0  0  0  0  0  0  0  0
  149.0667  133.5519  154.4892 C   0  0  0  0  0  0  0  0  0  0  0  0
  148.3894  134.9766  156.1744 C   0  0  0  0  0  0  0  0  0  0  0  0
  147.8183  134.8637  157.3985 N   0  0  0  0  0  0  0  0  0  0  0  0
  148.2269  135.6500  158.3990 C   0  0  0  0  0  0  0  0  0  0  0  0
  149.1708  136.5942  158.3874 N   0  0  0  0  0  0  0  0  0  0  0  0
  149.7397  136.7133  157.1531 C   0  0  0  0  0  0  0  0  0  0  0  0
  149.4117  135.9505  155.9981 C   0  0  0  0  0  0  0  0  0  0  0  0
  150.1989  136.3490  154.9247 N   0  0  0  0  0  0  0  0  0  0  0  0
  150.9527  137.2937  155.4183 C   0  0  0  0  0  0  0  0  0  0  0  0
  150.7472  137.5721  156.7506 N   0  0  0  0  0  0  0  0  0  0  0  0
  151.4435  138.5711  157.5434 C   0  0  0  0  0  0  0  0  0  0  0  0
  150.9246  140.0122  157.3081 C   0  0  2  0  0  0  0  0  0  0  0  0
  150.6167  140.2567  155.8084 C   0  0  0  0  0  0  0  0  0  0  0  0
  151.7791  140.1587  155.0128 O   0  0  0  0  0  0  0  0  0  0  0  0
  151.9349  141.0444  157.8804 C   0  0  2  0  0  0  0  0  0  0  0  0
  152.2829  140.8429  159.3531 C   0  0  0  0  0  0  0  0  0  0  0  0
  152.5971  142.2476  159.8766 C   0  0  0  0  0  0  0  0  0  0  0  0
  152.3699  143.1292  158.7858 O   0  0  0  0  0  0  0  0  0  0  0  0
  151.4688  142.5013  157.8905 C   0  0  0  0  0  0  0  0  0  0  0  0
  145.4958  133.9914  155.8107 C   0  0  0  0  0  0  0  0  0  0  0  0
  144.9172  134.5952  154.5089 C   0  0  2  0  0  0  0  0  0  0  0  0
  143.5979  135.3183  154.8523 C   0  0  0  0  0  0  0  0  0  0  0  0
  143.3349  133.3450  150.3050 H   0  0  0  0  0  0  0  0  0  0  0  0
  143.2352  132.1710  151.6101 H   0  0  0  0  0  0  0  0  0  0  0  0
  144.7648  132.4528  150.7722 H   0  0  0  0  0  0  0  0  0  0  0  0
  144.8777  134.7777  151.7302 H   0  0  0  0  0  0  0  0  0  0  0  0
  143.2575  134.5752  152.3414 H   0  0  0  0  0  0  0  0  0  0  0  0
  145.8442  131.9536  152.5400 H   0  0  0  0  0  0  0  0  0  0  0  0
  146.7609  133.4229  152.7759 H   0  0  0  0  0  0  0  0  0  0  0  0
  145.8420  131.4565  154.9335 H   0  0  0  0  0  0  0  0  0  0  0  0
  147.4641  131.5870  154.3330 H   0  0  0  0  0  0  0  0  0  0  0  0
  147.1200  132.7643  156.5204 H   0  0  0  0  0  0  0  0  0  0  0  0
  149.9406  134.2060  154.4813 H   0  0  0  0  0  0  0  0  0  0  0  0
  148.7960  133.3632  153.4505 H   0  0  0  0  0  0  0  0  0  0  0  0
  149.3566  132.6049  154.9458 H   0  0  0  0  0  0  0  0  0  0  0  0
  147.7265  135.5015  159.3447 H   0  0  0  0  0  0  0  0  0  0  0  0
  151.6869  137.8158  154.8216 H   0  0  0  0  0  0  0  0  0  0  0  0
  151.3313  138.2819  158.5880 H   0  0  0  0  0  0  0  0  0  0  0  0
  152.5103  138.5156  157.3233 H   0  0  0  0  0  0  0  0  0  0  0  0
  149.9888  140.1104  157.8610 H   0  0  0  0  0  0  0  0  0  0  0  0
  149.8636  139.5554  155.4478 H   0  0  0  0  0  0  0  0  0  0  0  0
  150.2199  141.2562  155.6368 H   0  0  0  0  0  0  0  0  0  0  0  0
  152.2144  139.3444  155.2149 H   0  0  0  0  0  0  0  0  0  0  0  0
  152.8602  140.9956  157.3037 H   0  0  0  0  0  0  0  0  0  0  0  0
  151.4347  140.4319  159.9023 H   0  0  0  0  0  0  0  0  0  0  0  0
  153.1247  140.1618  159.4824 H   0  0  0  0  0  0  0  0  0  0  0  0
  151.9367  142.5082  160.7047 H   0  0  0  0  0  0  0  0  0  0  0  0
  153.6271  142.3376  160.2226 H   0  0  0  0  0  0  0  0  0  0  0  0
  151.5152  142.9696  156.9072 H   0  0  0  0  0  0  0  0  0  0  0  0
  150.4504  142.5911  158.2725 H   0  0  0  0  0  0  0  0  0  0  0  0
  144.7748  133.2832  156.2221 H   0  0  0  0  0  0  0  0  0  0  0  0
  145.5984  134.7629  156.5745 H   0  0  0  0  0  0  0  0  0  0  0  0
  145.6182  135.3405  154.1302 H   0  0  0  0  0  0  0  0  0  0  0  0
  143.7208  135.9545  155.7294 H   0  0  0  0  0  0  0  0  0  0  0  0
  142.7999  134.6085  155.0724 H   0  0  0  0  0  0  0  0  0  0  0  0
  143.2606  135.9772  154.0531 H   0  0  0  0  0  0  0  0  0  0  0  0
  144.0778  132.8847  153.8220 H   0  0  0  0  0  0  0  0  0  0  0  0
  1  2  1  0  0  0  0
  1 30  1  0  0  0  0
  1 31  1  0  0  0  0
  1 32  1  0  0  0  0
  2  3  1  0  0  0  0
  2 33  1  0  0  0  0
  2 34  1  0  0  0  0
  3 28  1  0  0  0  0
  3  4  1  0  0  0  0
  3 64  1  0  0  0  0
  4  5  1  0  0  0  0
  4 35  1  0  0  0  0
  4 36  1  0  0  0  0
  5  6  1  0  0  0  0
  5 37  1  0  0  0  0
  5 38  1  0  0  0  0
  6  7  1  0  0  0  0
  6 27  1  0  0  0  0
  6 39  1  0  0  0  0
  7  8  1  0  0  0  0
  7  9  1  0  0  0  0
  8 40  1  0  0  0  0
  8 41  1  0  0  0  0
  8 42  1  0  0  0  0
  9 14  1  0  0  0  0
  9 10  2  0  0  0  0
 10 11  1  0  0  0  0
 11 12  2  0  0  0  0
 11 43  1  0  0  0  0
 12 13  1  0  0  0  0
 13 17  1  0  0  0  0
 13 14  2  0  0  0  0
 14 15  1  0  0  0  0
 15 16  2  0  0  0  0
 16 17  1  0  0  0  0
 16 44  1  0  0  0  0
 17 18  1  0  0  0  0
 18 19  1  0  0  0  0
 18 45  1  0  0  0  0
 18 46  1  0  0  0  0
 19 20  1  0  0  0  0
 19 22  1  0  0  0  0
 19 47  1  0  0  0  0
 20 21  1  0  0  0  0
 20 48  1  0  0  0  0
 20 49  1  0  0  0  0
 21 50  1  0  0  0  0
 22 26  1  0  0  0  0
 22 23  1  0  0  0  0
 22 51  1  0  0  0  0
 23 24  1  0  0  0  0
 23 52  1  0  0  0  0
 23 53  1  0  0  0  0
 24 25  1  0  0  0  0
 24 54  1  0  0  0  0
 24 55  1  0  0  0  0
 25 26  1  0  0  0  0
 26 56  1  0  0  0  0
 26 57  1  0  0  0  0
 27 28  1  0  0  0  0
 27 58  1  0  0  0  0
 27 59  1  0  0  0  0
 28 29  1  0  0  0  0
 28 60  1  0  0  0  0
 29 61  1  0  0  0  0
 29 62  1  0  0  0  0
 29 63  1  0  0  0  0
M  CHG  1   3   1
M  END
> <s_m_source_file>
AV-unprocessed.smi

> <i_m_source_file_index>
249

> <i_lp_mmshare_version>
43012

> <i_f3d_flags>
0

> <s_epik_input>
W0NIM11bQ0gyXU4xW0NIMl1bQ0gyXVtDQEhdKFtDSDJdW0NASF0xW0NIM10pTihbQ0gzXSljKG5bY0hdbjIpYyhjMjMpbltjSF1uM1tDSDJdW0NASF0oW0NIMl1bT0hdKVtDQEBIXTRbQ0gyXVtDSDJdT1tDSDJdNA==

> <s_epik_cmdline>
J2VwaWtfcHl0aG9uJywgJy1waCcsICc3LjAnLCAnLXRuJywgJzgnLCAnLW1hJywgJzIwMCcsICctbWV0YWxfYmluZGluZycsICctaW1hZScsICc8aW5maWxlLm1hZT4nLCAnLW9tYWUnLCAnPG91dGZpbGUubWFlPic=

> <r_lp_tautomer_probability>
1

> <r_epik_Ionization_Penalty>
0.00294688

> <r_epik_Ionization_Penalty_Charging>
0.00169971

> <r_epik_Ionization_Penalty_Neutral>
0.00124717

> <r_epik_State_Penalty>
-0

> <r_epik_Charging_Adjusted_Penalty>
0.00169971

> <i_epik_Tot_Q>
1

> <i_epik_Tot_abs_Q>
1

> <r_epik_Metal_State_Penalty>
-0

> <b_epik_Metal_Only>
0

> <s_lp_Force_Field>
OPLS_2005

> <r_lp_Energy>
57.0606

> <b_lp_Chiralities_Consistent>
1

> <s_lp_Variant>
AV-unprocessed.smi:249-18

> <Gold.Version>
5.8.1

> <Gold.Id.Protein>
6NUR|6NUR_protein|mol2

> <Gold.PLP.Fitness>
40.2458

> <Gold.PLP.PLP>
-32.6162

> <Gold.PLP.part.hbond>
-2.0000

> <Gold.PLP.part.metal>
0.0000

> <Gold.PLP.part.buried>
-7.8373

> <Gold.PLP.part.nonpolar>
-23.4318

> <Gold.PLP.part.repulsive>
0.2220

> <Gold.PLP.ligand.clash>
0.0000

> <Gold.PLP.ligand.torsion>
0.9232

> <Gold.PLP.Chemscore.Hbond>
2.9600

> <Gold.PLP.Chemscore.CHOScore>
0.0000

> <Gold.PLP.Chemscore.Metal>
0.0000

> <Gold.Chemscore.Hbonds>
donor molecule, donor type, donor heavy atom, donor atom, acceptor molecule, acceptor atom, score
      L1  H     3    64       P1 10957  1.98
      P1  H  7989  7998       L1    21  0.91

> <Gold.PLP.Chemscore.Internal.Correction>
0.5960

> <Gold.Rescore>
     Score         DG    S(hbond)    S(metal)    S(lipo)     H(rot)  DE(clash)    DE(int)     intcor
     12.41     -13.45       1.85        0.00      78.79       2.90       0.00       1.05       ----

> <Gold.Chemscore.Fitness>
12.4054

> <Gold.Chemscore.DG>
-13.4541

> <Gold.Chemscore.ZeroCoef>
-5.4800

> <Gold.Chemscore.Hbond>
1.8509

> <Gold.Chemscore.Metal>
0.0000

> <Gold.Chemscore.Lipo>
78.7853

> <Gold.Chemscore.Internal_Hbond>
0.0000

> <Gold.Chemscore.DEClash>
0.0004

> <Gold.Chemscore.DEInternal>
1.0483

> <Gold.Chemscore.Rot>
2.9006

> <Gold.Chemscore.Internal.Correction>
   9.000000E+99

> <Gold.Chemscore.Hbonds>
donor molecule, donor type, donor heavy atom, donor atom, acceptor molecule, acceptor atom, score
      L1  H     3    64       P1 10957  0.81
      P1  H  7989  7998       L1    21  0.81

> <Gold.Chemscore.Hbond.Weighted>
-6.1819

> <Gold.Chemscore.Metal.Weighted>
-0.0000

> <Gold.Chemscore.Lipo.Weighted>
-9.2179

> <Gold.Chemscore.Internal_Hbond.Weighted>
0.0000

> <Gold.Chemscore.DEClash.Weighted>
0.0004

> <Gold.Chemscore.DEInternal.Weighted>
1.0483

> <Gold.Chemscore.Rot.Weighted>
7.4256

> <Gold.Chemscore.Internal.Correction.Weighted>
   9.000000E+99

> <Gold.Protein.RotatedTorsions>
[ 6907 6896 6895 6894 ] final -151.75 input  -60.11 | X-H torsion
[ 7974 7965 7964 7962 ] final   -2.66 input  175.53 | X-H torsion
[ 8008 7997 7996 7995 ] final  -96.63 input   59.86 | X-H torsion
[ 10167 10162 10161 10158 ] final  -18.28 input  -65.29 | X-H torsion
[ 10718 10713 10712 10709 ] final  -91.05 input   66.30 | X-H torsion
[ 10763 10752 10751 10750 ] final  178.18 input  -60.55 | X-H torsion
[ 11005 11000 10999 10996 ] final -122.75 input  -57.11 | X-H torsion

> <Gold.Protein.ActiveResidues>
 VAL166  LYS551  ARG553  GLY616  TRP617  ASP618  TYR619  PRO620  LYS621  CYS622 
 ASP623  PHE694  ASN695  SER759  ASP760  ASP761  ALA762  ILE779  LEU786  VAL792 
 PHE793  MET794  SER795  GLU796  ALA797  LYS798  CYS799  TRP800  GLU811  SER814 

> <Gold.Protein.RotatedAtoms>
  151.2177  133.4520  159.2599 H   0  0  0  0  0  0  0  0  0  0  0  0  # atno 6907 bound_to 6896
  151.0915  134.9919  159.8415 H   0  0  0  0  0  0  0  0  0  0  0  0  # atno 6908 bound_to 6896
  152.5435  134.2110  159.8803 H   0  0  0  0  0  0  0  0  0  0  0  0  # atno 6909 bound_to 6896
  146.2401  140.1605  142.8333 H   0  0  0  0  0  0  0  0  0  0  0  0  # atno 7974 bound_to 7965
  154.7770  140.0470  157.1097 H   0  0  0  0  0  0  0  0  0  0  0  0  # atno 8008 bound_to 7997
  154.9751  140.3094  155.4951 H   0  0  0  0  0  0  0  0  0  0  0  0  # atno 8009 bound_to 7997
  156.2930  140.2246  156.4846 H   0  0  0  0  0  0  0  0  0  0  0  0  # atno 8010 bound_to 7997
  140.7257  143.4932  150.9965 H   0  0  0  0  0  0  0  0  0  0  0  0  # atno 10167 bound_to 10162
  155.9991  130.4933  150.5416 H   0  0  0  0  0  0  0  0  0  0  0  0  # atno 10718 bound_to 10713
  154.5042  135.2785  155.1396 H   0  0  0  0  0  0  0  0  0  0  0  0  # atno 10763 bound_to 10752
  154.3017  135.6247  153.5431 H   0  0  0  0  0  0  0  0  0  0  0  0  # atno 10764 bound_to 10752
  152.9907  135.5698  154.5492 H   0  0  0  0  0  0  0  0  0  0  0  0  # atno 10765 bound_to 10752
  140.9972  134.0455  157.3583 H   0  0  0  0  0  0  0  0  0  0  0  0  # atno 11005 bound_to 11000
  145.0093  140.8700  143.5234 LP  0  0  0  0  0  0  0  0  0  0  0  0  # atno 17320 bound_to 7965
  145.1636  139.2444  143.5378 LP  0  0  0  0  0  0  0  0  0  0  0  0  # atno 17321 bound_to 7965
  139.8637  143.7281  152.3171 LP  0  0  0  0  0  0  0  0  0  0  0  0  # atno 17342 bound_to 10162
  139.7506  144.7535  151.0513 LP  0  0  0  0  0  0  0  0  0  0  0  0  # atno 17343 bound_to 10162
  157.3351  131.0706  151.1831 LP  0  0  0  0  0  0  0  0  0  0  0  0  # atno 17370 bound_to 10713
  157.2698  130.6699  149.6014 LP  0  0  0  0  0  0  0  0  0  0  0  0  # atno 17371 bound_to 10713
  139.9020  135.0168  156.7314 LP  0  0  0  0  0  0  0  0  0  0  0  0  # atno 17394 bound_to 11000
  140.6947  133.9359  155.7988 LP  0  0  0  0  0  0  0  0  0  0  0  0  # atno 17395 bound_to 11000

$$$$
