AV-unprocessed.smi:3303|AV-procd|sdf|12679|dock4
  -GOLD-   2272019 13D 1   1.00000     0.00000
 Structure written by MMmdl.
 44 45  0  0  0  0  0  0  0  0  2 V2000
  151.2563  139.5420  155.8681 C   0  0  0  0  0  0  0  0  0  0  0  0
  149.7350  139.7623  155.8237 C   0  0  2  0  0  0  0  0  0  0  0  0
  149.1864  139.7238  154.3833 C   0  0  0  0  0  0  0  0  0  0  0  0
  147.7254  139.8037  154.4014 N   0  0  0  0  0  0  0  0  0  0  0  0
  147.1805  139.5512  153.0730 C   0  0  0  0  0  0  0  0  0  0  0  0
  147.2130  141.0433  155.0049 C   0  0  2  0  0  0  0  0  0  0  0  0
  147.4422  142.3117  154.1501 C   0  0  0  0  0  0  0  0  0  0  0  0
  147.7489  141.1701  156.4508 C   0  0  0  0  0  0  0  0  0  0  0  0
  149.2847  141.0399  156.5642 C   0  0  2  0  0  0  0  0  0  0  0  0
  149.9969  142.2389  156.0607 N   0  3  0  0  0  0  0  0  0  0  0  0
  151.3067  142.5113  156.6873 C   0  0  0  0  0  0  0  0  0  0  0  0
  151.2376  143.7547  157.5836 C   0  0  0  0  0  0  0  0  0  0  0  0
  151.8006  143.4924  158.9672 C   0  0  0  0  0  0  0  0  0  0  0  0
  151.6492  144.4415  160.0005 C   0  0  0  0  0  0  0  0  0  0  0  0
  152.2022  144.1518  161.2632 C   0  0  0  0  0  0  0  0  0  0  0  0
  152.8826  142.9319  161.4417 C   0  0  0  0  0  0  0  0  0  0  0  0
  152.9794  142.0513  160.3459 C   0  0  0  0  0  0  0  0  0  0  0  0
  152.4534  142.3198  159.1310 N   0  0  0  0  0  0  0  0  0  0  0  0
  151.7939  140.3088  155.3096 H   0  0  0  0  0  0  0  0  0  0  0  0
  151.5215  138.5770  155.4352 H   0  0  0  0  0  0  0  0  0  0  0  0
  151.6253  139.5530  156.8941 H   0  0  0  0  0  0  0  0  0  0  0  0
  149.2916  138.9169  156.3535 H   0  0  0  0  0  0  0  0  0  0  0  0
  149.6137  140.5219  153.7761 H   0  0  0  0  0  0  0  0  0  0  0  0
  149.4817  138.7836  153.9154 H   0  0  0  0  0  0  0  0  0  0  0  0
  146.0914  139.6010  153.0880 H   0  0  0  0  0  0  0  0  0  0  0  0
  147.4608  138.5535  152.7333 H   0  0  0  0  0  0  0  0  0  0  0  0
  147.5506  140.2695  152.3409 H   0  0  0  0  0  0  0  0  0  0  0  0
  146.1319  140.9227  155.0869 H   0  0  0  0  0  0  0  0  0  0  0  0
  147.1138  143.2015  154.6881 H   0  0  0  0  0  0  0  0  0  0  0  0
  146.8670  142.2789  153.2248 H   0  0  0  0  0  0  0  0  0  0  0  0
  148.4859  142.4615  153.8789 H   0  0  0  0  0  0  0  0  0  0  0  0
  147.3896  142.0906  156.9095 H   0  0  0  0  0  0  0  0  0  0  0  0
  147.3019  140.3698  157.0426 H   0  0  0  0  0  0  0  0  0  0  0  0
  149.5476  140.9270  157.6171 H   0  0  0  0  0  0  0  0  0  0  0  0
  150.1580  142.1036  155.0729 H   0  0  0  0  0  0  0  0  0  0  0  0
  151.6187  141.6517  157.2802 H   0  0  0  0  0  0  0  0  0  0  0  0
  152.0564  142.6582  155.9087 H   0  0  0  0  0  0  0  0  0  0  0  0
  151.7838  144.5792  157.1233 H   0  0  0  0  0  0  0  0  0  0  0  0
  150.2033  144.0887  157.6818 H   0  0  0  0  0  0  0  0  0  0  0  0
  151.1238  145.3702  159.8335 H   0  0  0  0  0  0  0  0  0  0  0  0
  152.1067  144.8526  162.0795 H   0  0  0  0  0  0  0  0  0  0  0  0
  153.3198  142.6765  162.3955 H   0  0  0  0  0  0  0  0  0  0  0  0
  153.4942  141.1076  160.4477 H   0  0  0  0  0  0  0  0  0  0  0  0
  149.3983  143.0438  156.1795 H   0  0  0  0  0  0  0  0  0  0  0  0
  1  2  1  0  0  0  0
  1 19  1  0  0  0  0
  1 20  1  0  0  0  0
  1 21  1  0  0  0  0
  2  9  1  0  0  0  0
  2  3  1  0  0  0  0
  2 22  1  0  0  0  0
  3  4  1  0  0  0  0
  3 23  1  0  0  0  0
  3 24  1  0  0  0  0
  4  5  1  0  0  0  0
  4  6  1  0  0  0  0
  5 25  1  0  0  0  0
  5 26  1  0  0  0  0
  5 27  1  0  0  0  0
  6  7  1  0  0  0  0
  6  8  1  0  0  0  0
  6 28  1  0  0  0  0
  7 29  1  0  0  0  0
  7 30  1  0  0  0  0
  7 31  1  0  0  0  0
  8  9  1  0  0  0  0
  8 32  1  0  0  0  0
  8 33  1  0  0  0  0
  9 10  1  0  0  0  0
  9 34  1  0  0  0  0
 10 11  1  0  0  0  0
 10 35  1  0  0  0  0
 10 44  1  0  0  0  0
 11 12  1  0  0  0  0
 11 36  1  0  0  0  0
 11 37  1  0  0  0  0
 12 13  1  0  0  0  0
 12 38  1  0  0  0  0
 12 39  1  0  0  0  0
 13 18  1  0  0  0  0
 13 14  2  0  0  0  0
 14 15  1  0  0  0  0
 14 40  1  0  0  0  0
 15 16  2  0  0  0  0
 15 41  1  0  0  0  0
 16 17  1  0  0  0  0
 16 42  1  0  0  0  0
 17 18  2  0  0  0  0
 17 43  1  0  0  0  0
M  CHG  1  10   1
M  END
> <s_m_source_file>
AV-unprocessed.smi

> <i_m_source_file_index>
3303

> <i_lp_mmshare_version>
43012

> <i_f3d_flags>
0

> <s_epik_input>
W0NIM11bQ0BASF0xW0NIMl1OKFtDSDNdKVtDQEBIXShbQ0gzXSlbQ0gyXVtDQEhdMVtOSF1bQ0gyXVtDSDJdYzJbY0hdW2NIXVtjSF1bY0hdbjI=

> <s_epik_cmdline>
J2VwaWtfcHl0aG9uJywgJy1waCcsICc3LjAnLCAnLXRuJywgJzgnLCAnLW1hJywgJzIwMCcsICctbWV0YWxfYmluZGluZycsICctaW1hZScsICc8aW5maWxlLm1hZT4nLCAnLW9tYWUnLCAnPG91dGZpbGUubWFlPic=

> <r_epik_Ionization_Penalty>
1.37325

> <r_epik_Ionization_Penalty_Charging>
0.000251572

> <r_epik_Ionization_Penalty_Neutral>
1.373

> <r_epik_State_Penalty>
1.46343

> <r_epik_Charging_Adjusted_Penalty>
1.46368

> <i_epik_Tot_Q>
1

> <i_epik_Tot_abs_Q>
1

> <r_epik_Metal_State_Penalty>
1.46331

> <b_epik_Metal_Only>
0

> <s_lp_Force_Field>
OPLS_2005

> <r_lp_Energy>
24.8082

> <b_lp_Chiralities_Consistent>
1

> <s_lp_Variant>
AV-unprocessed.smi:3303-23

> <Gold.Version>
5.8.1

> <Gold.Id.Protein>
6NUR|6NUR_protein|mol2

> <Gold.PLP.Fitness>
41.7512

> <Gold.PLP.PLP>
-37.9653

> <Gold.PLP.part.hbond>
-1.0000

> <Gold.PLP.part.metal>
0.0000

> <Gold.PLP.part.buried>
-3.4671

> <Gold.PLP.part.nonpolar>
-33.3681

> <Gold.PLP.part.repulsive>
0.2242

> <Gold.PLP.ligand.clash>
0.0000

> <Gold.PLP.ligand.torsion>
1.1121

> <Gold.PLP.Chemscore.Hbond>
2.0000

> <Gold.PLP.Chemscore.CHOScore>
0.0000

> <Gold.PLP.Chemscore.Metal>
0.0000

> <Gold.Chemscore.Hbonds>
donor molecule, donor type, donor heavy atom, donor atom, acceptor molecule, acceptor atom, score
      L1  H    10    44       P1  8028  1.98

> <Gold.PLP.Chemscore.Internal.Correction>
0.0100

> <Gold.Rescore>
     Score         DG    S(hbond)    S(metal)    S(lipo)     H(rot)  DE(clash)    DE(int)     intcor
     17.99     -19.42       0.96        0.00     120.80       1.33       0.24       1.19       ----

> <Gold.Chemscore.Fitness>
17.9940

> <Gold.Chemscore.DG>
-19.4223

> <Gold.Chemscore.ZeroCoef>
-5.4800

> <Gold.Chemscore.Hbond>
0.9620

> <Gold.Chemscore.Metal>
0.0000

> <Gold.Chemscore.Lipo>
120.7986

> <Gold.Chemscore.Internal_Hbond>
0.0000

> <Gold.Chemscore.DEClash>
0.2374

> <Gold.Chemscore.DEInternal>
1.1910

> <Gold.Chemscore.Rot>
1.3298

> <Gold.Chemscore.Internal.Correction>
   9.000000E+99

> <Gold.Chemscore.Hbonds>
donor molecule, donor type, donor heavy atom, donor atom, acceptor molecule, acceptor atom, score
      L1  H    10    44       P1  8028  0.94

> <Gold.Chemscore.Hbond.Weighted>
-3.2132

> <Gold.Chemscore.Metal.Weighted>
-0.0000

> <Gold.Chemscore.Lipo.Weighted>
-14.1334

> <Gold.Chemscore.Internal_Hbond.Weighted>
0.0000

> <Gold.Chemscore.DEClash.Weighted>
0.2374

> <Gold.Chemscore.DEInternal.Weighted>
1.1910

> <Gold.Chemscore.Rot.Weighted>
3.4043

> <Gold.Chemscore.Internal.Correction.Weighted>
   9.000000E+99

> <Gold.Protein.RotatedTorsions>
[ 6907 6896 6895 6894 ] final   19.42 input  -60.11 | X-H torsion
[ 7974 7965 7964 7962 ] final  -58.67 input  175.53 | X-H torsion
[ 8008 7997 7996 7995 ] final  147.35 input   59.86 | X-H torsion
[ 10167 10162 10161 10158 ] final  -83.42 input  -65.29 | X-H torsion
[ 10718 10713 10712 10709 ] final  -87.49 input   66.30 | X-H torsion
[ 10763 10752 10751 10750 ] final -129.34 input  -60.55 | X-H torsion
[ 11005 11000 10999 10996 ] final   61.16 input  -57.11 | X-H torsion

> <Gold.Protein.ActiveResidues>
 VAL166  LYS551  ARG553  GLY616  TRP617  ASP618  TYR619  PRO620  LYS621  CYS622 
 ASP623  PHE694  ASN695  SER759  ASP760  ASP761  ALA762  ILE779  LEU786  VAL792 
 PHE793  MET794  SER795  GLU796  ALA797  LYS798  CYS799  TRP800  GLU811  SER814 

> <Gold.Protein.RotatedAtoms>
  151.8806  135.0455  160.0488 H   0  0  0  0  0  0  0  0  0  0  0  0  # atno 6907 bound_to 6896
  152.2516  133.5215  159.5337 H   0  0  0  0  0  0  0  0  0  0  0  0  # atno 6908 bound_to 6896
  150.7085  134.0869  159.3960 H   0  0  0  0  0  0  0  0  0  0  0  0  # atno 6909 bound_to 6896
  145.8366  140.8445  143.0056 H   0  0  0  0  0  0  0  0  0  0  0  0  # atno 7974 bound_to 7965
  156.2827  140.2158  156.5523 H   0  0  0  0  0  0  0  0  0  0  0  0  # atno 8008 bound_to 7997
  154.7281  140.0498  157.0724 H   0  0  0  0  0  0  0  0  0  0  0  0  # atno 8009 bound_to 7997
  155.0390  140.3143  155.4734 H   0  0  0  0  0  0  0  0  0  0  0  0  # atno 8010 bound_to 7997
  140.4228  143.2578  151.8866 H   0  0  0  0  0  0  0  0  0  0  0  0  # atno 10167 bound_to 10162
  155.9985  130.4802  150.4876 H   0  0  0  0  0  0  0  0  0  0  0  0  # atno 10718 bound_to 10713
  154.8757  135.3898  154.3904 H   0  0  0  0  0  0  0  0  0  0  0  0  # atno 10763 bound_to 10752
  153.4640  135.7029  153.6038 H   0  0  0  0  0  0  0  0  0  0  0  0  # atno 10764 bound_to 10752
  153.4524  135.3831  155.2260 H   0  0  0  0  0  0  0  0  0  0  0  0  # atno 10765 bound_to 10752
  140.0181  134.6195  155.9680 H   0  0  0  0  0  0  0  0  0  0  0  0  # atno 11005 bound_to 11000
  144.6736  140.0750  143.7471 LP  0  0  0  0  0  0  0  0  0  0  0  0  # atno 17320 bound_to 7965
  145.9512  139.2735  143.1211 LP  0  0  0  0  0  0  0  0  0  0  0  0  # atno 17321 bound_to 7965
  139.4783  144.5419  151.8516 LP  0  0  0  0  0  0  0  0  0  0  0  0  # atno 17342 bound_to 10162
  140.4514  144.1849  150.5898 LP  0  0  0  0  0  0  0  0  0  0  0  0  # atno 17343 bound_to 10162
  157.2874  131.0619  151.2157 LP  0  0  0  0  0  0  0  0  0  0  0  0  # atno 17370 bound_to 10713
  157.3181  130.6923  149.6253 LP  0  0  0  0  0  0  0  0  0  0  0  0  # atno 17371 bound_to 10713
  141.1756  133.6540  156.4815 LP  0  0  0  0  0  0  0  0  0  0  0  0  # atno 17394 bound_to 11000
  140.4436  134.6993  157.5004 LP  0  0  0  0  0  0  0  0  0  0  0  0  # atno 17395 bound_to 11000

$$$$
