AV-unprocessed.smi:157|AV-procd|sdf|1317|dock2
  -GOLD-   2262019 13D 1   1.00000     0.00000
 Structure written by MMmdl.
 36 38  0  0  0  0  0  0  0  0  2 V2000
  150.3630  135.9264  158.0390 O   0  0  0  0  0  0  0  0  0  0  0  0
  150.7395  136.0221  156.6819 C   0  0  0  0  0  0  0  0  0  0  0  0
  150.5951  137.4729  156.1898 C   0  0  1  0  0  0  0  0  0  0  0  0
  151.6011  138.3094  156.7545 O   0  0  0  0  0  0  0  0  0  0  0  0
  151.9202  139.3471  155.8736 C   0  0  2  0  0  0  0  0  0  0  0  0
  151.6085  140.6510  156.5345 N   0  0  0  0  0  0  0  0  0  0  0  0
  150.7734  141.6073  156.0750 C   0  0  0  0  0  0  0  0  0  0  0  0
  150.6862  142.6732  156.8529 N   0  3  0  0  0  0  0  0  0  0  0  0
  151.5198  142.4430  157.9264 C   0  0  0  0  0  0  0  0  0  0  0  0
  152.0936  141.1889  157.7040 C   0  0  0  0  0  0  0  0  0  0  0  0
  153.0277  140.4796  158.4741 N   0  0  0  0  0  0  0  0  0  0  0  0
  153.7413  141.0348  159.3991 C   0  0  0  0  0  0  0  0  0  0  0  0
  153.6941  142.3340  159.8776 N   0  0  0  0  0  0  0  0  0  0  0  0
  152.4529  143.0016  160.2287 C   0  0  0  0  0  0  0  0  0  0  0  0
  151.6353  143.4632  159.0148 C   0  0  1  0  0  0  0  0  0  0  0  0
  152.1604  144.6891  158.5509 O   0  0  0  0  0  0  0  0  0  0  0  0
  151.0595  139.1753  154.6180 C   0  0  0  0  0  0  0  0  0  0  0  0
  150.7018  137.7048  154.6758 C   0  0  1  0  0  0  0  0  0  0  0  0
  151.7157  136.9187  154.0787 O   0  0  0  0  0  0  0  0  0  0  0  0
  149.6375  137.8705  156.5312 H   0  0  0  0  0  0  0  0  0  0  0  0
  152.9930  139.3601  155.6781 H   0  0  0  0  0  0  0  0  0  0  0  0
  150.6257  143.6860  159.3618 H   0  0  0  0  0  0  0  0  0  0  0  0
  149.7598  137.4971  154.1673 H   0  0  0  0  0  0  0  0  0  0  0  0
  150.1389  136.7903  158.3505 H   0  0  0  0  0  0  0  0  0  0  0  0
  151.7775  135.7014  156.5912 H   0  0  0  0  0  0  0  0  0  0  0  0
  150.1423  135.3335  156.0837 H   0  0  0  0  0  0  0  0  0  0  0  0
  150.2270  141.5073  155.1542 H   0  0  0  0  0  0  0  0  0  0  0  0
  154.4970  140.4379  159.9118 H   0  0  0  0  0  0  0  0  0  0  0  0
  154.4615  142.6625  160.4468 H   0  0  0  0  0  0  0  0  0  0  0  0
  151.8561  142.2939  160.8062 H   0  0  0  0  0  0  0  0  0  0  0  0
  152.6599  143.8376  160.8980 H   0  0  0  0  0  0  0  0  0  0  0  0
  151.9472  145.3625  159.1790 H   0  0  0  0  0  0  0  0  0  0  0  0
  150.1552  139.7805  154.7034 H   0  0  0  0  0  0  0  0  0  0  0  0
  151.5998  139.4751  153.7192 H   0  0  0  0  0  0  0  0  0  0  0  0
  151.5106  136.8110  153.1622 H   0  0  0  0  0  0  0  0  0  0  0  0
  150.1173  143.4944  156.6896 H   0  0  0  0  0  0  0  0  0  0  0  0
  1  2  1  0  0  0  0
  1 24  1  0  0  0  0
  2  3  1  0  0  0  0
  2 25  1  0  0  0  0
  2 26  1  0  0  0  0
  3 20  1  0  0  0  0
  3 18  1  0  0  0  0
  3  4  1  0  0  0  0
  4  5  1  0  0  0  0
  5 21  1  0  0  0  0
  5  6  1  0  0  0  0
  5 17  1  0  0  0  0
  6 10  1  0  0  0  0
  6  7  1  0  0  0  0
  7  8  2  0  0  0  0
  7 27  1  0  0  0  0
  8  9  1  0  0  0  0
  8 36  1  0  0  0  0
  9 15  1  0  0  0  0
  9 10  2  0  0  0  0
 10 11  1  0  0  0  0
 11 12  2  0  0  0  0
 12 13  1  0  0  0  0
 12 28  1  0  0  0  0
 13 14  1  0  0  0  0
 13 29  1  0  0  0  0
 14 15  1  0  0  0  0
 14 30  1  0  0  0  0
 14 31  1  0  0  0  0
 15 22  1  0  0  0  0
 15 16  1  0  0  0  0
 16 32  1  0  0  0  0
 17 18  1  0  0  0  0
 17 33  1  0  0  0  0
 17 34  1  0  0  0  0
 18 23  1  0  0  0  0
 18 19  1  0  0  0  0
 19 35  1  0  0  0  0
M  CHG  1   8   1
M  END
> <s_m_source_file>
AV-unprocessed.smi

> <i_m_source_file_index>
157

> <i_lp_mmshare_version>
43012

> <i_f3d_flags>
0

> <s_epik_input>
W09IXVtDSDJdW0NASF0xT1tDQEhdKFtDSDJdW0NAQEhdMVtPSF0pbihbY0hdbjIpYyhjMjMpTj1bQ0hdW05IXVtDSDJdW0NASF0zW09IXQ==

> <s_epik_cmdline>
J2VwaWtfcHl0aG9uJywgJy1waCcsICc3LjAnLCAnLXRuJywgJzgnLCAnLW1hJywgJzIwMCcsICctbWV0YWxfYmluZGluZycsICctaW1hZScsICc8aW5maWxlLm1hZT4nLCAnLW9tYWUnLCAnPG91dGZpbGUubWFlPic=

> <r_epik_Ionization_Penalty>
1.68594

> <r_epik_Ionization_Penalty_Charging>
0

> <r_epik_Ionization_Penalty_Neutral>
1.68594

> <r_epik_State_Penalty>
1.79006

> <r_epik_Charging_Adjusted_Penalty>
1.79006

> <i_epik_Tot_Q>
1

> <i_epik_Tot_abs_Q>
1

> <r_epik_Metal_State_Penalty>
5.85324

> <b_epik_Metal_Only>
0

> <s_epik_Chemistry_Notes>
This compound has an imine and may undergo hydrolysis. This compound contains an acetal/aminal-like group ( X-CH(R)-Y where X, Y are N, S, or O) that may be acid/base labile, releasing an aldehyde.

> <s_lp_Force_Field>
OPLS_2005

> <r_lp_Energy>
54.1398

> <b_lp_Chiralities_Consistent>
1

> <s_lp_Variant>
AV-unprocessed.smi:157-27

> <Gold.Version>
5.8.1

> <Gold.Id.Protein>
6NUR|6NUR_protein|mol2

> <Gold.PLP.Fitness>
50.0230

> <Gold.PLP.PLP>
-34.2916

> <Gold.PLP.part.hbond>
-4.9640

> <Gold.PLP.part.metal>
0.0000

> <Gold.PLP.part.buried>
-5.8044

> <Gold.PLP.part.nonpolar>
-22.5470

> <Gold.PLP.part.repulsive>
0.0786

> <Gold.PLP.ligand.clash>
0.0000

> <Gold.PLP.ligand.torsion>
0.0846

> <Gold.PLP.Chemscore.Hbond>
5.2978

> <Gold.PLP.Chemscore.CHOScore>
0.0000

> <Gold.PLP.Chemscore.Metal>
0.0000

> <Gold.Chemscore.Hbonds>
donor molecule, donor type, donor heavy atom, donor atom, acceptor molecule, acceptor atom, score
      L1  H     8    36       P1  8028  2.00
      L1  H    19    35       P1  7949  1.00
      P1  H  6896  6907       L1     1  0.77
      P1  H  7997  8010       L1    11  0.51
      P1  H 10752 10765       L1    19  1.00

> <Gold.PLP.Chemscore.Internal.Correction>
0.0074

> <Gold.Rescore>
     Score         DG    S(hbond)    S(metal)    S(lipo)     H(rot)  DE(clash)    DE(int)     intcor
     12.82     -12.99       3.19        0.00      53.25       3.67       0.06       0.10       ----

> <Gold.Chemscore.Fitness>
12.8209

> <Gold.Chemscore.DG>
-12.9906

> <Gold.Chemscore.ZeroCoef>
-5.4800

> <Gold.Chemscore.Hbond>
3.1931

> <Gold.Chemscore.Metal>
0.0000

> <Gold.Chemscore.Lipo>
53.2525

> <Gold.Chemscore.Internal_Hbond>
0.0000

> <Gold.Chemscore.DEClash>
0.0648

> <Gold.Chemscore.DEInternal>
0.1049

> <Gold.Chemscore.Rot>
3.6659

> <Gold.Chemscore.Internal.Correction>
   9.000000E+99

> <Gold.Chemscore.Hbonds>
donor molecule, donor type, donor heavy atom, donor atom, acceptor molecule, acceptor atom, score
      L1  H     8    36       P1  8028  0.94
      L1  H    19    35       P1  7949  0.90
      P1  H  6896  6907       L1     1  0.48
      P1  H  7997  8010       L1    11  0.04
      P1  H 10752 10765       L1    19  0.48

> <Gold.Chemscore.Hbond.Weighted>
-10.6649

> <Gold.Chemscore.Metal.Weighted>
-0.0000

> <Gold.Chemscore.Lipo.Weighted>
-6.2305

> <Gold.Chemscore.Internal_Hbond.Weighted>
0.0000

> <Gold.Chemscore.DEClash.Weighted>
0.0648

> <Gold.Chemscore.DEInternal.Weighted>
0.1049

> <Gold.Chemscore.Rot.Weighted>
9.3848

> <Gold.Chemscore.Internal.Correction.Weighted>
   9.000000E+99

> <Gold.Protein.RotatedTorsions>
[ 6907 6896 6895 6894 ] final  -55.74 input  -60.11 | X-H torsion
[ 7974 7965 7964 7962 ] final -133.81 input  175.53 | X-H torsion
[ 8008 7997 7996 7995 ] final   35.11 input   59.86 | X-H torsion
[ 10167 10162 10161 10158 ] final -135.43 input  -65.29 | X-H torsion
[ 10718 10713 10712 10709 ] final -141.24 input   66.30 | X-H torsion
[ 10763 10752 10751 10750 ] final  172.21 input  -60.55 | X-H torsion
[ 11005 11000 10999 10996 ] final  -15.25 input  -57.11 | X-H torsion

> <Gold.Protein.ActiveResidues>
 VAL166  LYS551  ARG553  GLY616  TRP617  ASP618  TYR619  PRO620  LYS621  CYS622 
 ASP623  PHE694  ASN695  SER759  ASP760  ASP761  ALA762  ILE779  LEU786  VAL792 
 PHE793  MET794  SER795  GLU796  ALA797  LYS798  CYS799  TRP800  GLU811  SER814 

> <Gold.Protein.RotatedAtoms>
  150.8226  134.7441  159.6785 H   0  0  0  0  0  0  0  0  0  0  0  0  # atno 6907 bound_to 6896
  152.4340  134.5719  159.9933 H   0  0  0  0  0  0  0  0  0  0  0  0  # atno 6908 bound_to 6896
  151.5899  133.3330  159.3061 H   0  0  0  0  0  0  0  0  0  0  0  0  # atno 6909 bound_to 6896
  144.9159  140.6954  143.4995 H   0  0  0  0  0  0  0  0  0  0  0  0  # atno 7974 bound_to 7965
  155.1657  140.3287  155.4402 H   0  0  0  0  0  0  0  0  0  0  0  0  # atno 8008 bound_to 7997
  156.2527  140.1952  156.6713 H   0  0  0  0  0  0  0  0  0  0  0  0  # atno 8009 bound_to 7997
  154.6373  140.0575  156.9790 H   0  0  0  0  0  0  0  0  0  0  0  0  # atno 8010 bound_to 7997
  139.8779  143.6875  152.2631 H   0  0  0  0  0  0  0  0  0  0  0  0  # atno 10167 bound_to 10162
  156.3317  130.7589  151.1708 H   0  0  0  0  0  0  0  0  0  0  0  0  # atno 10718 bound_to 10713
  154.4229  135.2758  155.1964 H   0  0  0  0  0  0  0  0  0  0  0  0  # atno 10763 bound_to 10752
  154.3902  135.6068  153.5842 H   0  0  0  0  0  0  0  0  0  0  0  0  # atno 10764 bound_to 10752
  152.9833  135.5901  154.4528 H   0  0  0  0  0  0  0  0  0  0  0  0  # atno 10765 bound_to 10752
  140.7948  133.8260  155.9413 H   0  0  0  0  0  0  0  0  0  0  0  0  # atno 11005 bound_to 11000
  145.3376  139.1741  143.4503 LP  0  0  0  0  0  0  0  0  0  0  0  0  # atno 17320 bound_to 7965
  146.3182  140.3413  142.8648 LP  0  0  0  0  0  0  0  0  0  0  0  0  # atno 17321 bound_to 7965
  139.7223  144.7600  151.0935 LP  0  0  0  0  0  0  0  0  0  0  0  0  # atno 17342 bound_to 10162
  140.7749  143.5192  150.9557 LP  0  0  0  0  0  0  0  0  0  0  0  0  # atno 17343 bound_to 10162
  157.7431  131.0479  150.4970 LP  0  0  0  0  0  0  0  0  0  0  0  0  # atno 17370 bound_to 10713
  156.5137  130.4145  149.6287 LP  0  0  0  0  0  0  0  0  0  0  0  0  # atno 17371 bound_to 10713
  140.9354  134.1969  157.4835 LP  0  0  0  0  0  0  0  0  0  0  0  0  # atno 17394 bound_to 11000
  139.8727  134.9850  156.5263 LP  0  0  0  0  0  0  0  0  0  0  0  0  # atno 17395 bound_to 11000

$$$$
