AV-unprocessed.smi:102|AV-procd|sdf|952|dock7
  -GOLD-   2262017483D 1   1.00000     0.00000
 Structure written by MMmdl.
 44 45  0  0  0  0  0  0  0  0  1 V2000
  145.8580  136.5614  160.7486 C   0  0  0  0  0  0  0  0  0  0  0  0
  147.3504  136.5845  160.4441 C   0  0  0  0  0  0  0  0  0  0  0  0
  148.1486  137.1277  161.2072 O   0  0  0  0  0  0  0  0  0  0  0  0
  147.6505  135.9625  159.2896 O   0  0  0  0  0  0  0  0  0  0  0  0
  149.0027  135.7272  158.9192 C   0  0  0  0  0  0  0  0  0  0  0  0
  149.5314  136.8679  158.0327 C   0  0  1  0  0  0  0  0  0  0  0  0
  149.1287  138.1375  158.5293 O   0  0  0  0  0  0  0  0  0  0  0  0
  149.9633  139.1312  158.0090 C   0  0  2  0  0  0  0  0  0  0  0  0
  149.2152  139.9469  156.9710 N   0  0  0  0  0  0  0  0  0  0  0  0
  148.6337  139.3758  155.8451 C   0  0  0  0  0  0  0  0  0  0  0  0
  147.9762  140.1007  154.9091 C   0  0  0  0  0  0  0  0  0  0  0  0
  147.4396  139.4792  153.8453 F   0  0  0  0  0  0  0  0  0  0  0  0
  147.8441  141.5485  155.0431 C   0  0  0  0  0  0  0  0  0  0  0  0
  147.2687  142.2887  154.2478 O   0  0  0  0  0  0  0  0  0  0  0  0
  148.4424  142.0784  156.1896 N   0  0  0  0  0  0  0  0  0  0  0  0
  149.1233  141.3437  157.1611 C   0  0  0  0  0  0  0  0  0  0  0  0
  149.6231  141.9149  158.1294 O   0  0  0  0  0  0  0  0  0  0  0  0
  151.2201  138.4316  157.4352 C   0  0  2  0  0  0  0  0  0  0  0  0
  151.2607  138.4735  156.0108 O   0  0  0  0  0  0  0  0  0  0  0  0
  152.3047  137.9587  155.3420 C   0  0  0  0  0  0  0  0  0  0  0  0
  152.0499  137.8886  153.8425 C   0  0  0  0  0  0  0  0  0  0  0  0
  153.3662  137.5763  155.8334 O   0  0  0  0  0  0  0  0  0  0  0  0
  151.0499  136.9902  157.8989 C   0  0  1  0  0  0  0  0  0  0  0  0
  151.7033  136.7970  159.1484 O   0  0  0  0  0  0  0  0  0  0  0  0
  153.0065  137.0992  159.2877 C   0  0  0  0  0  0  0  0  0  0  0  0
  153.5585  136.6720  160.6408 C   0  0  0  0  0  0  0  0  0  0  0  0
  153.7163  137.6533  158.4488 O   0  0  0  0  0  0  0  0  0  0  0  0
  148.3787  143.0771  156.3246 H   0  0  0  0  0  0  0  0  0  0  0  0
  145.6458  135.8365  161.5343 H   0  0  0  0  0  0  0  0  0  0  0  0
  145.2833  136.2900  159.8626 H   0  0  0  0  0  0  0  0  0  0  0  0
  145.5262  137.5438  161.0854 H   0  0  0  0  0  0  0  0  0  0  0  0
  149.5797  135.7091  159.8438 H   0  0  0  0  0  0  0  0  0  0  0  0
  149.1469  134.7507  158.4549 H   0  0  0  0  0  0  0  0  0  0  0  0
  149.1029  136.7637  157.0348 H   0  0  0  0  0  0  0  0  0  0  0  0
  150.1913  139.8246  158.8206 H   0  0  0  0  0  0  0  0  0  0  0  0
  148.6933  138.3104  155.6851 H   0  0  0  0  0  0  0  0  0  0  0  0
  152.1065  138.9016  157.8642 H   0  0  0  0  0  0  0  0  0  0  0  0
  151.9045  138.8905  153.4377 H   0  0  0  0  0  0  0  0  0  0  0  0
  151.1571  137.2979  153.6366 H   0  0  0  0  0  0  0  0  0  0  0  0
  152.8953  137.4282  153.3309 H   0  0  0  0  0  0  0  0  0  0  0  0
  151.4262  136.2723  157.1681 H   0  0  0  0  0  0  0  0  0  0  0  0
  153.4418  135.5962  160.7734 H   0  0  0  0  0  0  0  0  0  0  0  0
  153.0276  137.1816  161.4450 H   0  0  0  0  0  0  0  0  0  0  0  0
  154.6183  136.9162  160.7167 H   0  0  0  0  0  0  0  0  0  0  0  0
  1  2  1  0  0  0  0
  1 29  1  0  0  0  0
  1 30  1  0  0  0  0
  1 31  1  0  0  0  0
  2  3  2  0  0  0  0
  2  4  1  0  0  0  0
  4  5  1  0  0  0  0
  5  6  1  0  0  0  0
  5 32  1  0  0  0  0
  5 33  1  0  0  0  0
  6 23  1  0  0  0  0
  6  7  1  0  0  0  0
  6 34  1  0  0  0  0
  7  8  1  0  0  0  0
  8  9  1  0  0  0  0
  8 18  1  0  0  0  0
  8 35  1  0  0  0  0
  9 16  1  0  0  0  0
  9 10  1  0  0  0  0
 10 11  2  0  0  0  0
 10 36  1  0  0  0  0
 11 12  1  0  0  0  0
 11 13  1  0  0  0  0
 13 14  2  0  0  0  0
 13 15  1  0  0  0  0
 15 28  1  0  0  0  0
 15 16  1  0  0  0  0
 16 17  2  0  0  0  0
 18 19  1  0  0  0  0
 18 23  1  0  0  0  0
 18 37  1  0  0  0  0
 19 20  1  0  0  0  0
 20 21  1  0  0  0  0
 20 22  2  0  0  0  0
 21 38  1  0  0  0  0
 21 39  1  0  0  0  0
 21 40  1  0  0  0  0
 23 24  1  0  0  0  0
 23 41  1  0  0  0  0
 24 25  1  0  0  0  0
 25 26  1  0  0  0  0
 25 27  2  0  0  0  0
 26 42  1  0  0  0  0
 26 43  1  0  0  0  0
 26 44  1  0  0  0  0
M  END
> <s_m_source_file>
AV-unprocessed.smi

> <i_m_source_file_index>
102

> <i_lp_mmshare_version>
43012

> <i_f3d_flags>
0

> <s_epik_input>
W0NIM11DKD1PKU9bQ0gyXVtDQEBIXTFPW0NASF0oW0NAQEhdKE9DKD1PKVtDSDNdKVtDQEhdMU9DKD1PKVtDSDNdKW4yW2NIXWMoRiljKD1PKVtuSF1jMj1P

> <s_epik_cmdline>
J2VwaWtfcHl0aG9uJywgJy1waCcsICc3LjAnLCAnLXRuJywgJzgnLCAnLW1hJywgJzIwMCcsICctbWV0YWxfYmluZGluZycsICctaW1hZScsICc8aW5maWxlLm1hZT4nLCAnLW9tYWUnLCAnPG91dGZpbGUubWFlPic=

> <r_lp_tautomer_probability>
0.999537

> <r_epik_Ionization_Penalty>
0.058267

> <r_epik_Ionization_Penalty_Charging>
0.058267

> <r_epik_Ionization_Penalty_Neutral>
6.57791e-16

> <r_epik_State_Penalty>
0.0503774

> <r_epik_Charging_Adjusted_Penalty>
0.108644

> <i_epik_Tot_Q>
0

> <i_epik_Tot_abs_Q>
0

> <r_epik_Metal_State_Penalty>
2.6644

> <b_epik_Metal_Only>
0

> <s_epik_Chemistry_Notes>
This compound has an ester and may undergo hydrolysis at high or low pH. This compound contains an acetal/aminal-like group ( X-CH(R)-Y where X, Y are N, S, or O) that may be acid/base labile, releasing an aldehyde.

> <s_lp_Force_Field>
OPLS_2005

> <r_lp_Energy>
12.8015

> <b_lp_Chiralities_Consistent>
1

> <s_lp_Variant>
AV-unprocessed.smi:102-8

> <Gold.Version>
5.8.1

> <Gold.Id.Protein>
6NUR|6NUR_protein|mol2

> <Gold.PLP.Fitness>
37.5691

> <Gold.PLP.PLP>
-29.3017

> <Gold.PLP.part.hbond>
-5.1737

> <Gold.PLP.part.metal>
0.0000

> <Gold.PLP.part.buried>
-5.5258

> <Gold.PLP.part.nonpolar>
-19.0234

> <Gold.PLP.part.repulsive>
0.2991

> <Gold.PLP.ligand.clash>
0.0000

> <Gold.PLP.ligand.torsion>
0.6444

> <Gold.PLP.Chemscore.Hbond>
3.1440

> <Gold.PLP.Chemscore.CHOScore>
0.0000

> <Gold.PLP.Chemscore.Metal>
0.0000

> <Gold.Chemscore.Hbonds>
donor molecule, donor type, donor heavy atom, donor atom, acceptor molecule, acceptor atom, score
      L1  H    15    28       P1  8028  0.91
      P1  H  6931  6943       L1     3  1.00
      P1  H  6934  6947       L1     3  0.29
      P1  H 10752 10765       L1    22  0.10

> <Gold.PLP.Chemscore.Internal.Correction>
0.1243

> <Gold.Rescore>
     Score         DG    S(hbond)    S(metal)    S(lipo)     H(rot)  DE(clash)    DE(int)     intcor
      5.09     -11.41       3.59        0.00      36.74       4.05       0.48       5.84       ----

> <Gold.Chemscore.Fitness>
5.0862

> <Gold.Chemscore.DG>
-11.4054

> <Gold.Chemscore.ZeroCoef>
-5.4800

> <Gold.Chemscore.Hbond>
3.5927

> <Gold.Chemscore.Metal>
0.0000

> <Gold.Chemscore.Lipo>
36.7432

> <Gold.Chemscore.Internal_Hbond>
0.0000

> <Gold.Chemscore.DEClash>
0.4804

> <Gold.Chemscore.DEInternal>
5.8389

> <Gold.Chemscore.Rot>
4.0520

> <Gold.Chemscore.Internal.Correction>
   9.000000E+99

> <Gold.Chemscore.Hbonds>
donor molecule, donor type, donor heavy atom, donor atom, acceptor molecule, acceptor atom, score
      L1  H    15    28       P1  8028  0.70
      P1  H  6931  6943       L1     3  0.96
      P1  H  6934  6947       L1     3  0.02
      P1  H 10752 10765       L1    22  0.01

> <Gold.Chemscore.Hbond.Weighted>
-11.9997

> <Gold.Chemscore.Metal.Weighted>
-0.0000

> <Gold.Chemscore.Lipo.Weighted>
-4.2990

> <Gold.Chemscore.Internal_Hbond.Weighted>
0.0000

> <Gold.Chemscore.DEClash.Weighted>
0.4804

> <Gold.Chemscore.DEInternal.Weighted>
5.8389

> <Gold.Chemscore.Rot.Weighted>
10.3732

> <Gold.Chemscore.Internal.Correction.Weighted>
   9.000000E+99

> <Gold.Protein.RotatedTorsions>
[ 6907 6896 6895 6894 ] final  -77.88 input  -60.11 | X-H torsion
[ 7974 7965 7964 7962 ] final   70.65 input  175.53 | X-H torsion
[ 8008 7997 7996 7995 ] final  -60.31 input   59.86 | X-H torsion
[ 10167 10162 10161 10158 ] final  -84.65 input  -65.29 | X-H torsion
[ 10718 10713 10712 10709 ] final  -21.09 input   66.30 | X-H torsion
[ 10763 10752 10751 10750 ] final -156.71 input  -60.55 | X-H torsion
[ 11005 11000 10999 10996 ] final  178.68 input  -57.11 | X-H torsion

> <Gold.Protein.ActiveResidues>
 VAL166  LYS551  ARG553  GLY616  TRP617  ASP618  TYR619  PRO620  LYS621  CYS622 
 ASP623  PHE694  ASN695  SER759  ASP760  ASP761  ALA762  ILE779  LEU786  VAL792 
 PHE793  MET794  SER795  GLU796  ALA797  LYS798  CYS799  TRP800  GLU811  SER814 

> <Gold.Protein.RotatedAtoms>
  150.6987  134.4357  159.5268 H   0  0  0  0  0  0  0  0  0  0  0  0  # atno 6907 bound_to 6896
  152.2075  134.8529  160.0510 H   0  0  0  0  0  0  0  0  0  0  0  0  # atno 6908 bound_to 6896
  151.9426  133.3607  159.4007 H   0  0  0  0  0  0  0  0  0  0  0  0  # atno 6909 bound_to 6896
  145.7756  139.2863  143.1296 H   0  0  0  0  0  0  0  0  0  0  0  0  # atno 7974 bound_to 7965
  154.4392  140.1042  156.6253 H   0  0  0  0  0  0  0  0  0  0  0  0  # atno 8008 bound_to 7997
  155.5664  140.3488  155.4485 H   0  0  0  0  0  0  0  0  0  0  0  0  # atno 8009 bound_to 7997
  156.0422  140.1284  157.0132 H   0  0  0  0  0  0  0  0  0  0  0  0  # atno 8010 bound_to 7997
  140.4113  143.2622  151.9014 H   0  0  0  0  0  0  0  0  0  0  0  0  # atno 10167 bound_to 10162
  156.5229  130.4636  149.6587 H   0  0  0  0  0  0  0  0  0  0  0  0  # atno 10718 bound_to 10713
  154.7692  135.3140  154.8224 H   0  0  0  0  0  0  0  0  0  0  0  0  # atno 10763 bound_to 10752
  153.8964  135.6820  153.4762 H   0  0  0  0  0  0  0  0  0  0  0  0  # atno 10764 bound_to 10752
  153.1303  135.4783  154.9272 H   0  0  0  0  0  0  0  0  0  0  0  0  # atno 10765 bound_to 10752
  140.3978  134.6804  157.4544 H   0  0  0  0  0  0  0  0  0  0  0  0  # atno 11005 bound_to 11000
  146.0126  140.8421  142.9963 LP  0  0  0  0  0  0  0  0  0  0  0  0  # atno 17320 bound_to 7965
  144.6805  140.2512  143.7331 LP  0  0  0  0  0  0  0  0  0  0  0  0  # atno 17321 bound_to 7965
  139.4782  144.5534  151.8350 LP  0  0  0  0  0  0  0  0  0  0  0  0  # atno 17342 bound_to 10162
  140.4635  144.1688  150.5909 LP  0  0  0  0  0  0  0  0  0  0  0  0  # atno 17343 bound_to 10162
  156.3133  130.7240  151.2138 LP  0  0  0  0  0  0  0  0  0  0  0  0  # atno 17370 bound_to 10713
  157.7434  131.0475  150.4949 LP  0  0  0  0  0  0  0  0  0  0  0  0  # atno 17371 bound_to 10713
  140.0359  134.6338  155.9045 LP  0  0  0  0  0  0  0  0  0  0  0  0  # atno 17394 bound_to 11000
  141.1868  133.6558  156.5253 LP  0  0  0  0  0  0  0  0  0  0  0  0  # atno 17395 bound_to 11000

$$$$
