AV-unprocessed.smi:1179|AV-procd|sdf|4959|dock7
  -GOLD-   22720 3553D 1   1.00000     0.00000
 Structure written by MMmdl.
 47 48  0  0  0  0  0  0  0  0  2 V2000
  144.1731  145.4928  153.9702 C   0  0  0  0  0  0  0  0  0  0  0  0
  144.9512  144.2435  154.2618 C   0  0  0  0  0  0  0  0  0  0  0  0
  146.0161  143.6720  153.5107 C   0  0  0  0  0  0  0  0  0  0  0  0
  146.3609  142.5509  154.2120 C   0  0  0  0  0  0  0  0  0  0  0  0
  147.4120  141.5266  153.9359 C   0  0  0  0  0  0  0  0  0  0  0  0
  145.5242  142.4931  155.3124 N   0  0  0  0  0  0  0  0  0  0  0  0
  145.4760  141.5043  156.3786 C   0  0  0  0  0  0  0  0  0  0  0  0
  146.5694  141.7518  157.4196 C   0  0  0  0  0  0  0  0  0  0  0  0
  146.2755  141.8527  158.6106 O   0  0  0  0  0  0  0  0  0  0  0  0
  147.8265  141.8507  156.9593 N   0  0  0  0  0  0  0  0  0  0  0  0
  149.0031  142.0892  157.7856 C   0  0  0  0  0  0  0  0  0  0  0  0
  150.3041  141.9712  156.9675 C   0  0  0  0  0  0  0  0  0  0  0  0
  151.5014  142.3724  157.7485 N   0  3  2  0  0  0  0  0  0  0  0  0
  151.6598  141.5686  158.9878 C   0  0  0  0  0  0  0  0  0  0  0  0
  152.9816  141.9010  159.7035 C   0  0  0  0  0  0  0  0  0  0  0  0
  153.1167  143.4029  160.0133 C   0  0  2  0  0  0  0  0  0  0  0  0
  152.2207  143.8541  161.1800 C   0  0  0  0  0  0  0  0  0  0  0  0
  152.8737  144.2147  158.7280 C   0  0  0  0  0  0  0  0  0  0  0  0
  151.5532  143.8307  158.0362 C   0  0  0  0  0  0  0  0  0  0  0  0
  144.6632  143.5344  155.3406 N   0  0  0  0  0  0  0  0  0  0  0  0
  144.4435  145.9083  152.9994 H   0  0  0  0  0  0  0  0  0  0  0  0
  144.3636  146.2579  154.7232 H   0  0  0  0  0  0  0  0  0  0  0  0
  143.1009  145.2954  153.9582 H   0  0  0  0  0  0  0  0  0  0  0  0
  146.4596  144.0311  152.5937 H   0  0  0  0  0  0  0  0  0  0  0  0
  147.9588  141.7655  153.0236 H   0  0  0  0  0  0  0  0  0  0  0  0
  146.9685  140.5385  153.8112 H   0  0  0  0  0  0  0  0  0  0  0  0
  148.1310  141.4761  154.7537 H   0  0  0  0  0  0  0  0  0  0  0  0
  144.4962  141.5326  156.8584 H   0  0  0  0  0  0  0  0  0  0  0  0
  145.5871  140.5093  155.9462 H   0  0  0  0  0  0  0  0  0  0  0  0
  147.9740  141.7527  155.9644 H   0  0  0  0  0  0  0  0  0  0  0  0
  148.9207  143.0903  158.2095 H   0  0  0  0  0  0  0  0  0  0  0  0
  148.9912  141.3945  158.6258 H   0  0  0  0  0  0  0  0  0  0  0  0
  150.4412  140.9582  156.5860 H   0  0  0  0  0  0  0  0  0  0  0  0
  150.2102  142.6176  156.0934 H   0  0  0  0  0  0  0  0  0  0  0  0
  150.8102  141.7417  159.6498 H   0  0  0  0  0  0  0  0  0  0  0  0
  151.6517  140.5065  158.7395 H   0  0  0  0  0  0  0  0  0  0  0  0
  153.0694  141.3166  160.6202 H   0  0  0  0  0  0  0  0  0  0  0  0
  153.8131  141.5919  159.0684 H   0  0  0  0  0  0  0  0  0  0  0  0
  154.1455  143.5840  160.3281 H   0  0  0  0  0  0  0  0  0  0  0  0
  151.1620  143.7113  160.9659 H   0  0  0  0  0  0  0  0  0  0  0  0
  152.3722  144.9110  161.4014 H   0  0  0  0  0  0  0  0  0  0  0  0
  152.4516  143.2954  162.0873 H   0  0  0  0  0  0  0  0  0  0  0  0
  152.8846  145.2830  158.9481 H   0  0  0  0  0  0  0  0  0  0  0  0
  153.6987  144.0419  158.0355 H   0  0  0  0  0  0  0  0  0  0  0  0
  151.4670  144.4028  157.1135 H   0  0  0  0  0  0  0  0  0  0  0  0
  150.7011  144.1134  158.6560 H   0  0  0  0  0  0  0  0  0  0  0  0
  152.3023  142.1569  157.1723 H   0  0  0  0  0  0  0  0  0  0  0  0
  1  2  1  0  0  0  0
  1 21  1  0  0  0  0
  1 22  1  0  0  0  0
  1 23  1  0  0  0  0
  2 20  2  0  0  0  0
  2  3  1  0  0  0  0
  3  4  2  0  0  0  0
  3 24  1  0  0  0  0
  4  5  1  0  0  0  0
  4  6  1  0  0  0  0
  5 25  1  0  0  0  0
  5 26  1  0  0  0  0
  5 27  1  0  0  0  0
  6  7  1  0  0  0  0
  6 20  1  0  0  0  0
  7  8  1  0  0  0  0
  7 28  1  0  0  0  0
  7 29  1  0  0  0  0
  8  9  2  0  0  0  0
  8 10  1  0  0  0  0
 10 11  1  0  0  0  0
 10 30  1  0  0  0  0
 11 12  1  0  0  0  0
 11 31  1  0  0  0  0
 11 32  1  0  0  0  0
 12 13  1  0  0  0  0
 12 33  1  0  0  0  0
 12 34  1  0  0  0  0
 13 19  1  0  0  0  0
 13 14  1  0  0  0  0
 13 47  1  0  0  0  0
 14 15  1  0  0  0  0
 14 35  1  0  0  0  0
 14 36  1  0  0  0  0
 15 16  1  0  0  0  0
 15 37  1  0  0  0  0
 15 38  1  0  0  0  0
 16 17  1  0  0  0  0
 16 18  1  0  0  0  0
 16 39  1  0  0  0  0
 17 40  1  0  0  0  0
 17 41  1  0  0  0  0
 17 42  1  0  0  0  0
 18 19  1  0  0  0  0
 18 43  1  0  0  0  0
 18 44  1  0  0  0  0
 19 45  1  0  0  0  0
 19 46  1  0  0  0  0
M  CHG  1  13   1
M  END
> <s_m_source_file>
AV-unprocessed.smi

> <i_m_source_file_index>
1179

> <i_lp_mmshare_version>
43012

> <i_f3d_flags>
0

> <s_epik_input>
W0NIM11jMVtjSF1jKFtDSDNdKW4objEpW0NIMl1DKD1PKVtOSF1bQ0gyXVtDSDJdTjJbQ0gyXVtDSDJdW0NIXShbQ0gzXSlbQ0gyXVtDSDJdMg==

> <s_epik_cmdline>
J2VwaWtfcHl0aG9uJywgJy1waCcsICc3LjAnLCAnLXRuJywgJzgnLCAnLW1hJywgJzIwMCcsICctbWV0YWxfYmluZGluZycsICctaW1hZScsICc8aW5maWxlLm1hZT4nLCAnLW9tYWUnLCAnPG91dGZpbGUubWFlPic=

> <r_lp_tautomer_probability>
1

> <r_epik_Ionization_Penalty>
0.00206343

> <r_epik_Ionization_Penalty_Charging>
0.00187095

> <r_epik_Ionization_Penalty_Neutral>
0.000192474

> <r_epik_State_Penalty>
-0

> <r_epik_Charging_Adjusted_Penalty>
0.00187095

> <i_epik_Tot_Q>
1

> <i_epik_Tot_abs_Q>
1

> <r_epik_Metal_State_Penalty>
-0

> <b_epik_Metal_Only>
0

> <s_lp_Force_Field>
OPLS_2005

> <r_lp_Energy>
16.047

> <b_lp_Chiralities_Consistent>
1

> <s_lp_Variant>
AV-unprocessed.smi:1179-2

> <Gold.Version>
5.8.1

> <Gold.Id.Protein>
6NUR|6NUR_protein|mol2

> <Gold.PLP.Fitness>
44.9363

> <Gold.PLP.PLP>
-44.7594

> <Gold.PLP.part.hbond>
-0.8700

> <Gold.PLP.part.metal>
0.0000

> <Gold.PLP.part.buried>
-6.9727

> <Gold.PLP.part.nonpolar>
-37.4429

> <Gold.PLP.part.repulsive>
0.2330

> <Gold.PLP.ligand.clash>
0.0000

> <Gold.PLP.ligand.torsion>
0.3850

> <Gold.PLP.Chemscore.Hbond>
0.3042

> <Gold.PLP.Chemscore.CHOScore>
0.0000

> <Gold.PLP.Chemscore.Metal>
0.0000

> <Gold.Chemscore.Hbonds>
donor molecule, donor type, donor heavy atom, donor atom, acceptor molecule, acceptor atom, score
      P1  H  6934  6946       L1     9  0.06

> <Gold.PLP.Chemscore.Internal.Correction>
0.0344

> <Gold.Rescore>
     Score         DG    S(hbond)    S(metal)    S(lipo)     H(rot)  DE(clash)    DE(int)     intcor
     16.23     -16.85       0.68        0.00     114.32       1.67       0.13       0.49       ----

> <Gold.Chemscore.Fitness>
16.2316

> <Gold.Chemscore.DG>
-16.8512

> <Gold.Chemscore.ZeroCoef>
-5.4800

> <Gold.Chemscore.Hbond>
0.6767

> <Gold.Chemscore.Metal>
0.0000

> <Gold.Chemscore.Lipo>
114.3167

> <Gold.Chemscore.Internal_Hbond>
0.0000

> <Gold.Chemscore.DEClash>
0.1292

> <Gold.Chemscore.DEInternal>
0.4904

> <Gold.Chemscore.Rot>
1.6657

> <Gold.Chemscore.Internal.Correction>
   9.000000E+99

> <Gold.Chemscore.Hbonds>
donor molecule, donor type, donor heavy atom, donor atom, acceptor molecule, acceptor atom, score
      P1  H  6934  6946       L1     9  0.09

> <Gold.Chemscore.Hbond.Weighted>
-2.2602

> <Gold.Chemscore.Metal.Weighted>
-0.0000

> <Gold.Chemscore.Lipo.Weighted>
-13.3751

> <Gold.Chemscore.Internal_Hbond.Weighted>
0.0000

> <Gold.Chemscore.DEClash.Weighted>
0.1292

> <Gold.Chemscore.DEInternal.Weighted>
0.4904

> <Gold.Chemscore.Rot.Weighted>
4.2641

> <Gold.Chemscore.Internal.Correction.Weighted>
   9.000000E+99

> <Gold.Protein.RotatedTorsions>
[ 6907 6896 6895 6894 ] final  113.39 input  -60.11 | X-H torsion
[ 7974 7965 7964 7962 ] final   79.27 input  175.53 | X-H torsion
[ 8008 7997 7996 7995 ] final -133.16 input   59.86 | X-H torsion
[ 10167 10162 10161 10158 ] final  -93.62 input  -65.29 | X-H torsion
[ 10718 10713 10712 10709 ] final  -73.06 input   66.30 | X-H torsion
[ 10763 10752 10751 10750 ] final -166.37 input  -60.55 | X-H torsion
[ 11005 11000 10999 10996 ] final -145.10 input  -57.11 | X-H torsion

> <Gold.Protein.ActiveResidues>
 VAL166  LYS551  ARG553  GLY616  TRP617  ASP618  TYR619  PRO620  LYS621  CYS622 
 ASP623  PHE694  ASN695  SER759  ASP760  ASP761  ALA762  ILE779  LEU786  VAL792 
 PHE793  MET794  SER795  GLU796  ALA797  LYS798  CYS799  TRP800  GLU811  SER814 

> <Gold.Protein.RotatedAtoms>
  152.4863  133.8382  159.7138 H   0  0  0  0  0  0  0  0  0  0  0  0  # atno 6907 bound_to 6896
  150.8953  133.7180  159.2900 H   0  0  0  0  0  0  0  0  0  0  0  0  # atno 6908 bound_to 6896
  151.4640  135.1044  159.9785 H   0  0  0  0  0  0  0  0  0  0  0  0  # atno 6909 bound_to 6896
  145.6664  139.2485  143.1893 H   0  0  0  0  0  0  0  0  0  0  0  0  # atno 7974 bound_to 7965
  155.3409  140.0472  157.3045 H   0  0  0  0  0  0  0  0  0  0  0  0  # atno 8008 bound_to 7997
  154.5278  140.2247  155.8824 H   0  0  0  0  0  0  0  0  0  0  0  0  # atno 8009 bound_to 7997
  156.1757  140.3085  155.9061 H   0  0  0  0  0  0  0  0  0  0  0  0  # atno 8010 bound_to 7997
  140.3228  143.3039  152.0027 H   0  0  0  0  0  0  0  0  0  0  0  0  # atno 10167 bound_to 10162
  156.0295  130.4386  150.2685 H   0  0  0  0  0  0  0  0  0  0  0  0  # atno 10718 bound_to 10713
  154.6839  135.2959  154.9574 H   0  0  0  0  0  0  0  0  0  0  0  0  # atno 10763 bound_to 10752
  154.0560  135.6638  153.4810 H   0  0  0  0  0  0  0  0  0  0  0  0  # atno 10764 bound_to 10752
  153.0566  135.5141  154.7897 H   0  0  0  0  0  0  0  0  0  0  0  0  # atno 10765 bound_to 10752
  140.7957  134.2916  157.4997 H   0  0  0  0  0  0  0  0  0  0  0  0  # atno 11005 bound_to 11000
  146.1082  140.7460  142.9516 LP  0  0  0  0  0  0  0  0  0  0  0  0  # atno 17320 bound_to 7965
  144.7071  140.3897  143.7109 LP  0  0  0  0  0  0  0  0  0  0  0  0  # atno 17321 bound_to 7965
  139.4871  144.6297  151.7094 LP  0  0  0  0  0  0  0  0  0  0  0  0  # atno 17342 bound_to 10162
  140.5468  144.0491  150.6110 LP  0  0  0  0  0  0  0  0  0  0  0  0  # atno 17343 bound_to 10162
  157.0788  131.0137  151.3164 LP  0  0  0  0  0  0  0  0  0  0  0  0  # atno 17370 bound_to 10713
  157.4943  130.7841  149.7539 LP  0  0  0  0  0  0  0  0  0  0  0  0  # atno 17371 bound_to 10713
  139.8726  134.9401  156.3759 LP  0  0  0  0  0  0  0  0  0  0  0  0  # atno 17394 bound_to 11000
  140.9345  133.7557  156.0066 LP  0  0  0  0  0  0  0  0  0  0  0  0  # atno 17395 bound_to 11000

$$$$
