AV-unprocessed.smi:1277|AV-procd|sdf|5346|dock3
  -GOLD-   22720 4483D 1   1.00000     0.00000
 Structure written by MMmdl.
 43 44  0  0  0  0  0  0  0  0  1 V2000
  145.1527  135.9799  151.3627 C   0  0  0  0  0  0  0  0  0  0  0  0
  145.6177  137.0866  152.1151 O   0  0  0  0  0  0  0  0  0  0  0  0
  146.4119  137.9718  151.3433 C   0  0  0  0  0  0  0  0  0  0  0  0
  146.8101  139.1699  152.2091 C   0  0  0  0  0  0  0  0  0  0  0  0
  147.6129  138.7051  153.2900 O   0  0  0  0  0  0  0  0  0  0  0  0
  148.3145  139.6304  154.0353 C   0  0  0  0  0  0  0  0  0  0  0  0
  147.9740  140.9922  153.9122 C   0  0  0  0  0  0  0  0  0  0  0  0
  148.6860  141.9438  154.6673 C   0  0  0  0  0  0  0  0  0  0  0  0
  149.7249  141.5006  155.5195 C   0  0  0  0  0  0  0  0  0  0  0  0
  150.4933  142.3606  156.3482 N   0  0  0  0  0  0  0  0  0  0  0  0
  151.2093  142.0421  157.4415 C   0  0  0  0  0  0  0  0  0  0  0  0
  151.2471  140.9193  157.9464 O   0  0  0  0  0  0  0  0  0  0  0  0
  151.9651  143.2107  158.1045 C   0  0  1  0  0  0  0  0  0  0  0  0
  151.0001  144.3772  158.3690 C   0  0  0  0  0  0  0  0  0  0  0  0
  151.5683  145.0803  159.5868 C   0  0  0  0  0  0  0  0  0  0  0  0
  152.2783  143.9808  160.3754 C   0  0  0  0  0  0  0  0  0  0  0  0
  152.5696  142.9100  159.4180 N   0  0  0  0  0  0  0  0  0  0  0  0
  153.3455  141.8383  159.7131 C   0  0  0  0  0  0  0  0  0  0  0  0
  153.8537  141.6753  161.1477 C   0  0  0  0  0  0  0  0  0  0  0  0
  153.6724  140.9951  158.8780 O   0  0  0  0  0  0  0  0  0  0  0  0
  149.9765  140.1149  155.5836 C   0  0  0  0  0  0  0  0  0  0  0  0
  149.2998  139.1979  154.8608 N   0  0  0  0  0  0  0  0  0  0  0  0
  152.7717  143.5464  157.4496 H   0  0  0  0  0  0  0  0  0  0  0  0
  144.5518  135.3308  151.9993 H   0  0  0  0  0  0  0  0  0  0  0  0
  145.9839  135.3915  150.9717 H   0  0  0  0  0  0  0  0  0  0  0  0
  144.5295  136.3041  150.5283 H   0  0  0  0  0  0  0  0  0  0  0  0
  147.3055  137.4573  150.9866 H   0  0  0  0  0  0  0  0  0  0  0  0
  145.8545  138.3119  150.4692 H   0  0  0  0  0  0  0  0  0  0  0  0
  147.3629  139.8918  151.6055 H   0  0  0  0  0  0  0  0  0  0  0  0
  145.9129  139.6617  152.5890 H   0  0  0  0  0  0  0  0  0  0  0  0
  147.1765  141.3022  153.2530 H   0  0  0  0  0  0  0  0  0  0  0  0
  148.4134  142.9853  154.5916 H   0  0  0  0  0  0  0  0  0  0  0  0
  150.4560  143.3414  156.1116 H   0  0  0  0  0  0  0  0  0  0  0  0
  150.9075  145.0442  157.5112 H   0  0  0  0  0  0  0  0  0  0  0  0
  149.9995  144.0138  158.6110 H   0  0  0  0  0  0  0  0  0  0  0  0
  152.3004  145.8209  159.2619 H   0  0  0  0  0  0  0  0  0  0  0  0
  150.8089  145.5998  160.1719 H   0  0  0  0  0  0  0  0  0  0  0  0
  153.1797  144.3680  160.8528 H   0  0  0  0  0  0  0  0  0  0  0  0
  151.6197  143.5929  161.1536 H   0  0  0  0  0  0  0  0  0  0  0  0
  153.0257  141.6804  161.8568 H   0  0  0  0  0  0  0  0  0  0  0  0
  154.5442  142.4780  161.4067 H   0  0  0  0  0  0  0  0  0  0  0  0
  154.3838  140.7293  161.2617 H   0  0  0  0  0  0  0  0  0  0  0  0
  150.7495  139.7276  156.2314 H   0  0  0  0  0  0  0  0  0  0  0  0
  1  2  1  0  0  0  0
  1 24  1  0  0  0  0
  1 25  1  0  0  0  0
  1 26  1  0  0  0  0
  2  3  1  0  0  0  0
  3  4  1  0  0  0  0
  3 27  1  0  0  0  0
  3 28  1  0  0  0  0
  4  5  1  0  0  0  0
  4 29  1  0  0  0  0
  4 30  1  0  0  0  0
  5  6  1  0  0  0  0
  6 22  1  0  0  0  0
  6  7  2  0  0  0  0
  7  8  1  0  0  0  0
  7 31  1  0  0  0  0
  8  9  2  0  0  0  0
  8 32  1  0  0  0  0
  9 10  1  0  0  0  0
  9 21  1  0  0  0  0
 10 11  1  0  0  0  0
 10 33  1  0  0  0  0
 11 12  2  0  0  0  0
 11 13  1  0  0  0  0
 13 23  1  0  0  0  0
 13 17  1  0  0  0  0
 13 14  1  0  0  0  0
 14 15  1  0  0  0  0
 14 34  1  0  0  0  0
 14 35  1  0  0  0  0
 15 16  1  0  0  0  0
 15 36  1  0  0  0  0
 15 37  1  0  0  0  0
 16 17  1  0  0  0  0
 16 38  1  0  0  0  0
 16 39  1  0  0  0  0
 17 18  1  0  0  0  0
 18 19  1  0  0  0  0
 18 20  2  0  0  0  0
 19 40  1  0  0  0  0
 19 41  1  0  0  0  0
 19 42  1  0  0  0  0
 21 22  2  0  0  0  0
 21 43  1  0  0  0  0
M  END
> <s_m_source_file>
AV-unprocessed.smi

> <i_m_source_file_index>
1277

> <i_lp_mmshare_version>
43012

> <i_f3d_flags>
0

> <s_epik_input>
W0NIM11PW0NIMl1bQ0gyXU9jMVtjSF1bY0hdYyhbY0hdbjEpW05IXUMoPU8pW0NAQEhdMltDSDJdW0NIMl1bQ0gyXU4yQyg9TylbQ0gzXQ==

> <s_epik_cmdline>
J2VwaWtfcHl0aG9uJywgJy1waCcsICc3LjAnLCAnLXRuJywgJzgnLCAnLW1hJywgJzIwMCcsICctbWV0YWxfYmluZGluZycsICctaW1hZScsICc8aW5maWxlLm1hZT4nLCAnLW9tYWUnLCAnPG91dGZpbGUubWFlPic=

> <r_lp_tautomer_probability>
1

> <r_epik_Ionization_Penalty>
1.62854e-05

> <r_epik_Ionization_Penalty_Charging>
0

> <r_epik_Ionization_Penalty_Neutral>
1.62854e-05

> <r_epik_State_Penalty>
-0

> <r_epik_Charging_Adjusted_Penalty>
0

> <i_epik_Tot_Q>
0

> <i_epik_Tot_abs_Q>
0

> <r_epik_Metal_State_Penalty>
-0

> <b_epik_Metal_Only>
0

> <s_lp_Force_Field>
OPLS_2005

> <r_lp_Energy>
20.2537

> <b_lp_Chiralities_Consistent>
1

> <s_lp_Variant>
AV-unprocessed.smi:1277-2

> <Gold.Version>
5.8.1

> <Gold.Id.Protein>
6NUR|6NUR_protein|mol2

> <Gold.PLP.Fitness>
47.6249

> <Gold.PLP.PLP>
-46.1147

> <Gold.PLP.part.hbond>
-2.0000

> <Gold.PLP.part.metal>
0.0000

> <Gold.PLP.part.buried>
2.3464

> <Gold.PLP.part.nonpolar>
-47.3354

> <Gold.PLP.part.repulsive>
0.6525

> <Gold.PLP.ligand.clash>
0.0000

> <Gold.PLP.ligand.torsion>
0.4353

> <Gold.PLP.Chemscore.Hbond>
0.7514

> <Gold.PLP.Chemscore.CHOScore>
0.0000

> <Gold.PLP.Chemscore.Metal>
0.0000

> <Gold.Chemscore.Hbonds>
donor molecule, donor type, donor heavy atom, donor atom, acceptor molecule, acceptor atom, score
      L1  H    10    33       P1  8028  0.53
      P1  H  7997  8008       L1    20  0.28

> <Gold.PLP.Chemscore.Internal.Correction>
0.1266

> <Gold.Rescore>
     Score         DG    S(hbond)    S(metal)    S(lipo)     H(rot)  DE(clash)    DE(int)     intcor
      9.06     -16.87       1.14        0.00     106.13       1.89       2.34       5.47       ----

> <Gold.Chemscore.Fitness>
9.0557

> <Gold.Chemscore.DG>
-16.8678

> <Gold.Chemscore.ZeroCoef>
-5.4800

> <Gold.Chemscore.Hbond>
1.1391

> <Gold.Chemscore.Metal>
0.0000

> <Gold.Chemscore.Lipo>
106.1328

> <Gold.Chemscore.Internal_Hbond>
0.0000

> <Gold.Chemscore.DEClash>
2.3442

> <Gold.Chemscore.DEInternal>
5.4680

> <Gold.Chemscore.Rot>
1.8884

> <Gold.Chemscore.Internal.Correction>
   9.000000E+99

> <Gold.Chemscore.Hbonds>
donor molecule, donor type, donor heavy atom, donor atom, acceptor molecule, acceptor atom, score
      L1  H    10    33       P1  8028  0.54
      P1  H  7997  8008       L1    20  0.28

> <Gold.Chemscore.Hbond.Weighted>
-3.8045

> <Gold.Chemscore.Metal.Weighted>
-0.0000

> <Gold.Chemscore.Lipo.Weighted>
-12.4175

> <Gold.Chemscore.Internal_Hbond.Weighted>
0.0000

> <Gold.Chemscore.DEClash.Weighted>
2.3442

> <Gold.Chemscore.DEInternal.Weighted>
5.4680

> <Gold.Chemscore.Rot.Weighted>
4.8342

> <Gold.Chemscore.Internal.Correction.Weighted>
   9.000000E+99

> <Gold.Protein.RotatedTorsions>
[ 6907 6896 6895 6894 ] final  -88.03 input  -60.11 | X-H torsion
[ 7974 7965 7964 7962 ] final  -71.87 input  175.53 | X-H torsion
[ 8008 7997 7996 7995 ] final  -98.62 input   59.86 | X-H torsion
[ 10167 10162 10161 10158 ] final  155.84 input  -65.29 | X-H torsion
[ 10718 10713 10712 10709 ] final   17.53 input   66.30 | X-H torsion
[ 10763 10752 10751 10750 ] final  -72.71 input  -60.55 | X-H torsion
[ 11005 11000 10999 10996 ] final   74.79 input  -57.11 | X-H torsion

> <Gold.Protein.ActiveResidues>
 VAL166  LYS551  ARG553  GLY616  TRP617  ASP618  TYR619  PRO620  LYS621  CYS622 
 ASP623  PHE694  ASN695  SER759  ASP760  ASP761  ALA762  ILE779  LEU786  VAL792 
 PHE793  MET794  SER795  GLU796  ALA797  LYS798  CYS799  TRP800  GLU811  SER814 

> <Gold.Protein.RotatedAtoms>
  150.6867  134.2805  159.4625 H   0  0  0  0  0  0  0  0  0  0  0  0  # atno 6907 bound_to 6896
  152.0720  134.9525  160.0583 H   0  0  0  0  0  0  0  0  0  0  0  0  # atno 6908 bound_to 6896
  152.0911  133.4166  159.4581 H   0  0  0  0  0  0  0  0  0  0  0  0  # atno 6909 bound_to 6896
  145.6725  140.9216  143.0875 H   0  0  0  0  0  0  0  0  0  0  0  0  # atno 7974 bound_to 7965
  154.8037  140.0454  157.1292 H   0  0  0  0  0  0  0  0  0  0  0  0  # atno 8008 bound_to 7997
  154.9449  140.3057  155.5083 H   0  0  0  0  0  0  0  0  0  0  0  0  # atno 8009 bound_to 7997
  156.2964  140.2299  156.4521 H   0  0  0  0  0  0  0  0  0  0  0  0  # atno 8010 bound_to 7997
  139.4821  144.5062  151.8093 H   0  0  0  0  0  0  0  0  0  0  0  0  # atno 10167 bound_to 10162
  157.0834  130.6397  149.5832 H   0  0  0  0  0  0  0  0  0  0  0  0  # atno 10718 bound_to 10713
  154.4494  135.5921  153.6181 H   0  0  0  0  0  0  0  0  0  0  0  0  # atno 10763 bound_to 10752
  152.9812  135.6017  154.3623 H   0  0  0  0  0  0  0  0  0  0  0  0  # atno 10764 bound_to 10752
  154.3483  135.2841  155.2365 H   0  0  0  0  0  0  0  0  0  0  0  0  # atno 10765 bound_to 10752
  139.9374  134.7463  156.1191 H   0  0  0  0  0  0  0  0  0  0  0  0  # atno 11005 bound_to 11000
  144.7052  139.8590  143.7432 LP  0  0  0  0  0  0  0  0  0  0  0  0  # atno 17320 bound_to 7965
  146.1034  139.4031  143.0333 LP  0  0  0  0  0  0  0  0  0  0  0  0  # atno 17321 bound_to 7965
  140.4561  144.1788  150.5901 LP  0  0  0  0  0  0  0  0  0  0  0  0  # atno 17342 bound_to 10162
  140.4534  143.2477  151.9317 LP  0  0  0  0  0  0  0  0  0  0  0  0  # atno 17343 bound_to 10162
  155.9917  130.4973  150.7311 LP  0  0  0  0  0  0  0  0  0  0  0  0  # atno 17370 bound_to 10713
  157.4781  131.0900  151.0567 LP  0  0  0  0  0  0  0  0  0  0  0  0  # atno 17371 bound_to 10713
  141.0994  133.6683  156.2720 LP  0  0  0  0  0  0  0  0  0  0  0  0  # atno 17394 bound_to 11000
  140.6040  134.5526  157.5522 LP  0  0  0  0  0  0  0  0  0  0  0  0  # atno 17395 bound_to 11000

$$$$
