AV-unprocessed.smi:844|AV-procd|sdf|3926|dock2
  -GOLD-   22720 1383D 1   1.00000     0.00000
 Structure written by MMmdl.
 33 35  0  0  0  0  0  0  0  0  2 V2000
  149.9659  139.9931  157.5340 O   0  0  0  0  0  0  0  0  0  0  0  0
  151.2887  140.4764  157.4221 C   0  0  1  0  0  0  0  0  0  0  0  0
  151.6440  140.5518  155.9233 C   0  0  0  0  0  0  0  0  0  0  0  0
  150.7239  139.7722  155.0856 N   0  0  0  0  0  0  0  0  0  0  0  0
  150.7914  138.4730  154.6865 C   0  0  0  0  0  0  0  0  0  0  0  0
  149.6845  138.2162  153.9357 N   0  3  0  0  0  0  0  0  0  0  0  0
  148.9011  139.3692  153.8501 C   0  0  0  0  0  0  0  0  0  0  0  0
  147.6915  139.6045  153.2039 C   0  0  0  0  0  0  0  0  0  0  0  0
  147.1564  140.9048  153.3165 C   0  0  0  0  0  0  0  0  0  0  0  0
  147.8188  141.9116  154.0490 C   0  0  0  0  0  0  0  0  0  0  0  0
  149.0444  141.6616  154.7009 C   0  0  0  0  0  0  0  0  0  0  0  0
  149.5655  140.3738  154.5844 C   0  0  0  0  0  0  0  0  0  0  0  0
  151.4799  141.8152  158.1264 C   0  0  0  0  0  0  0  0  0  0  0  0
  150.7786  142.9594  157.6845 C   0  0  0  0  0  0  0  0  0  0  0  0
  150.9679  144.2011  158.3209 C   0  0  0  0  0  0  0  0  0  0  0  0
  151.8625  144.3089  159.4024 C   0  0  0  0  0  0  0  0  0  0  0  0
  152.0476  145.5034  160.0123 F   0  0  0  0  0  0  0  0  0  0  0  0
  152.5680  143.1744  159.8459 C   0  0  0  0  0  0  0  0  0  0  0  0
  152.3802  141.9314  159.2108 C   0  0  0  0  0  0  0  0  0  0  0  0
  153.0787  140.8535  159.6423 F   0  0  0  0  0  0  0  0  0  0  0  0
  149.9982  139.0934  157.8218 H   0  0  0  0  0  0  0  0  0  0  0  0
  151.9201  139.7298  157.9036 H   0  0  0  0  0  0  0  0  0  0  0  0
  151.6326  141.5835  155.5689 H   0  0  0  0  0  0  0  0  0  0  0  0
  152.6526  140.1746  155.7476 H   0  0  0  0  0  0  0  0  0  0  0  0
  151.5753  137.7705  154.9308 H   0  0  0  0  0  0  0  0  0  0  0  0
  147.1814  138.8354  152.6427 H   0  0  0  0  0  0  0  0  0  0  0  0
  146.2188  141.1349  152.8314 H   0  0  0  0  0  0  0  0  0  0  0  0
  147.3782  142.8960  154.1127 H   0  0  0  0  0  0  0  0  0  0  0  0
  149.5443  142.4382  155.2611 H   0  0  0  0  0  0  0  0  0  0  0  0
  150.0948  142.8902  156.8509 H   0  0  0  0  0  0  0  0  0  0  0  0
  150.4282  145.0714  157.9778 H   0  0  0  0  0  0  0  0  0  0  0  0
  153.2570  143.2582  160.6735 H   0  0  0  0  0  0  0  0  0  0  0  0
  149.4812  137.3187  153.5144 H   0  0  0  0  0  0  0  0  0  0  0  0
  1  2  1  0  0  0  0
  1 21  1  0  0  0  0
  2  3  1  0  0  0  0
  2 13  1  0  0  0  0
  2 22  1  0  0  0  0
  3  4  1  0  0  0  0
  3 23  1  0  0  0  0
  3 24  1  0  0  0  0
  4 12  1  0  0  0  0
  4  5  1  0  0  0  0
  5  6  2  0  0  0  0
  5 25  1  0  0  0  0
  6  7  1  0  0  0  0
  6 33  1  0  0  0  0
  7 12  2  0  0  0  0
  7  8  1  0  0  0  0
  8  9  2  0  0  0  0
  8 26  1  0  0  0  0
  9 10  1  0  0  0  0
  9 27  1  0  0  0  0
 10 11  2  0  0  0  0
 10 28  1  0  0  0  0
 11 12  1  0  0  0  0
 11 29  1  0  0  0  0
 13 19  1  0  0  0  0
 13 14  2  0  0  0  0
 14 15  1  0  0  0  0
 14 30  1  0  0  0  0
 15 16  2  0  0  0  0
 15 31  1  0  0  0  0
 16 17  1  0  0  0  0
 16 18  1  0  0  0  0
 18 19  2  0  0  0  0
 18 32  1  0  0  0  0
 19 20  1  0  0  0  0
M  CHG  1   6   1
M  END
> <s_m_source_file>
AV-unprocessed.smi

> <i_m_source_file_index>
844

> <i_lp_mmshare_version>
43012

> <i_f3d_flags>
0

> <s_epik_input>
RmMxW2NIXWMoRilbY0hdW2NIXWMxW0NASF0oW09IXSlbQ0gyXW4oW2NIXW4yKWMoYzIzKVtjSF1bY0hdW2NIXVtjSF0z

> <s_epik_cmdline>
J2VwaWtfcHl0aG9uJywgJy1waCcsICc3LjAnLCAnLXRuJywgJzgnLCAnLW1hJywgJzIwMCcsICctbWV0YWxfYmluZGluZycsICctaW1hZScsICc8aW5maWxlLm1hZT4nLCAnLW9tYWUnLCAnPG91dGZpbGUubWFlPic=

> <r_epik_Ionization_Penalty>
1.3029

> <r_epik_Ionization_Penalty_Charging>
1.3029

> <r_epik_Ionization_Penalty_Neutral>
1.79538e-06

> <r_epik_State_Penalty>
1.377

> <r_epik_Charging_Adjusted_Penalty>
2.6799

> <i_epik_Tot_Q>
1

> <i_epik_Tot_abs_Q>
1

> <r_epik_Metal_State_Penalty>
5.40879

> <b_epik_Metal_Only>
0

> <s_lp_Force_Field>
OPLS_2005

> <r_lp_Energy>
17.7817

> <b_lp_Chiralities_Consistent>
1

> <s_lp_Variant>
AV-unprocessed.smi:844-4

> <Gold.Version>
5.8.1

> <Gold.Id.Protein>
6NUR|6NUR_protein|mol2

> <Gold.PLP.Fitness>
53.1235

> <Gold.PLP.PLP>
-49.0962

> <Gold.PLP.part.hbond>
-1.1221

> <Gold.PLP.part.metal>
0.0000

> <Gold.PLP.part.buried>
1.0478

> <Gold.PLP.part.nonpolar>
-48.1253

> <Gold.PLP.part.repulsive>
0.0428

> <Gold.PLP.ligand.clash>
0.0000

> <Gold.PLP.ligand.torsion>
0.9693

> <Gold.PLP.Chemscore.Hbond>
1.9840

> <Gold.PLP.Chemscore.CHOScore>
0.0000

> <Gold.PLP.Chemscore.Metal>
0.0000

> <Gold.Chemscore.Hbonds>
donor molecule, donor type, donor heavy atom, donor atom, acceptor molecule, acceptor atom, score
      L1  H     6    33       P1  7948  1.95

> <Gold.PLP.Chemscore.Internal.Correction>
0.0138

> <Gold.Rescore>
     Score         DG    S(hbond)    S(metal)    S(lipo)     H(rot)  DE(clash)    DE(int)     intcor
     14.22     -17.01       0.89        0.00     118.12       2.06       0.68       2.11       ----

> <Gold.Chemscore.Fitness>
14.2229

> <Gold.Chemscore.DG>
-17.0143

> <Gold.Chemscore.ZeroCoef>
-5.4800

> <Gold.Chemscore.Hbond>
0.8944

> <Gold.Chemscore.Metal>
0.0000

> <Gold.Chemscore.Lipo>
118.1170

> <Gold.Chemscore.Internal_Hbond>
0.0000

> <Gold.Chemscore.DEClash>
0.6768

> <Gold.Chemscore.DEInternal>
2.1146

> <Gold.Chemscore.Rot>
2.0597

> <Gold.Chemscore.Internal.Correction>
   9.000000E+99

> <Gold.Chemscore.Hbonds>
donor molecule, donor type, donor heavy atom, donor atom, acceptor molecule, acceptor atom, score
      L1  H     6    33       P1  7948  0.82

> <Gold.Chemscore.Hbond.Weighted>
-2.9874

> <Gold.Chemscore.Metal.Weighted>
-0.0000

> <Gold.Chemscore.Lipo.Weighted>
-13.8197

> <Gold.Chemscore.Internal_Hbond.Weighted>
0.0000

> <Gold.Chemscore.DEClash.Weighted>
0.6768

> <Gold.Chemscore.DEInternal.Weighted>
2.1146

> <Gold.Chemscore.Rot.Weighted>
5.2728

> <Gold.Chemscore.Internal.Correction.Weighted>
   9.000000E+99

> <Gold.Protein.RotatedTorsions>
[ 6907 6896 6895 6894 ] final -141.20 input  -60.11 | X-H torsion
[ 7974 7965 7964 7962 ] final  -58.20 input  175.53 | X-H torsion
[ 8008 7997 7996 7995 ] final  168.03 input   59.86 | X-H torsion
[ 10167 10162 10161 10158 ] final  130.20 input  -65.29 | X-H torsion
[ 10718 10713 10712 10709 ] final   59.51 input   66.30 | X-H torsion
[ 10763 10752 10751 10750 ] final   -7.36 input  -60.55 | X-H torsion
[ 11005 11000 10999 10996 ] final -167.56 input  -57.11 | X-H torsion

> <Gold.Protein.ActiveResidues>
 VAL166  LYS551  ARG553  GLY616  TRP617  ASP618  TYR619  PRO620  LYS621  CYS622 
 ASP623  PHE694  ASN695  SER759  ASP760  ASP761  ALA762  ILE779  LEU786  VAL792 
 PHE793  MET794  SER795  GLU796  ALA797  LYS798  CYS799  TRP800  GLU811  SER814 

> <Gold.Protein.RotatedAtoms>
  151.0707  133.5468  159.2627 H   0  0  0  0  0  0  0  0  0  0  0  0  # atno 6907 bound_to 6896
  151.2409  135.0587  159.9034 H   0  0  0  0  0  0  0  0  0  0  0  0  # atno 6908 bound_to 6896
  152.5411  134.0482  159.8152 H   0  0  0  0  0  0  0  0  0  0  0  0  # atno 6909 bound_to 6896
  145.8421  140.8410  143.0029 H   0  0  0  0  0  0  0  0  0  0  0  0  # atno 7974 bound_to 7965
  156.1582  140.1601  156.8656 H   0  0  0  0  0  0  0  0  0  0  0  0  # atno 8008 bound_to 7997
  154.5135  140.0795  156.8072 H   0  0  0  0  0  0  0  0  0  0  0  0  # atno 8009 bound_to 7997
  155.3760  140.3402  155.4247 H   0  0  0  0  0  0  0  0  0  0  0  0  # atno 8010 bound_to 7997
  139.5441  144.6757  151.4529 H   0  0  0  0  0  0  0  0  0  0  0  0  # atno 10167 bound_to 10162
  157.5681  130.8887  149.9222 H   0  0  0  0  0  0  0  0  0  0  0  0  # atno 10718 bound_to 10713
  153.4253  135.7011  153.6267 H   0  0  0  0  0  0  0  0  0  0  0  0  # atno 10763 bound_to 10752
  153.4704  135.3716  155.2388 H   0  0  0  0  0  0  0  0  0  0  0  0  # atno 10764 bound_to 10752
  154.8723  135.4041  154.3628 H   0  0  0  0  0  0  0  0  0  0  0  0  # atno 10765 bound_to 10752
  140.5518  134.5420  157.5124 H   0  0  0  0  0  0  0  0  0  0  0  0  # atno 11005 bound_to 11000
  144.6733  140.0827  143.7468 LP  0  0  0  0  0  0  0  0  0  0  0  0  # atno 17320 bound_to 7965
  145.9454  139.2697  143.1244 LP  0  0  0  0  0  0  0  0  0  0  0  0  # atno 17321 bound_to 7965
  140.6683  143.8350  150.6968 LP  0  0  0  0  0  0  0  0  0  0  0  0  # atno 17342 bound_to 10162
  140.1766  143.4149  152.1963 LP  0  0  0  0  0  0  0  0  0  0  0  0  # atno 17343 bound_to 10162
  156.0728  130.3683  150.0739 LP  0  0  0  0  0  0  0  0  0  0  0  0  # atno 17370 bound_to 10713
  156.8895  130.9584  151.3590 LP  0  0  0  0  0  0  0  0  0  0  0  0  # atno 17371 bound_to 10713
  139.9451  134.7716  156.0582 LP  0  0  0  0  0  0  0  0  0  0  0  0  # atno 17394 bound_to 11000
  141.1167  133.6625  156.3111 LP  0  0  0  0  0  0  0  0  0  0  0  0  # atno 17395 bound_to 11000

$$$$
