AV-unprocessed.smi:1254|AV-procd|sdf|5280|dock3
  -GOLD-   22720 4403D 1   1.00000     0.00000
 Structure written by MMmdl.
 44 45  0  0  0  0  0  0  0  0  2 V2000
  145.8652  134.3246  162.2987 C   0  0  0  0  0  0  0  0  0  0  0  0
  146.8403  135.1185  161.4990 C   0  0  0  0  0  0  0  0  0  0  0  0
  147.8854  134.7680  160.6923 C   0  0  0  0  0  0  0  0  0  0  0  0
  148.3825  136.0215  160.2416 C   0  0  0  0  0  0  0  0  0  0  0  0
  149.4306  136.2051  159.4240 N   0  5  0  0  0  0  0  0  0  0  0  0
  149.2674  136.8377  158.2389 C   0  0  0  0  0  0  0  0  0  0  0  0
  149.4453  136.3504  157.1202 O   0  0  0  0  0  0  0  0  0  0  0  0
  148.8763  138.1142  158.3602 N   0  0  0  0  0  0  0  0  0  0  0  0
  148.6104  139.0410  157.2644 C   0  0  0  0  0  0  0  0  0  0  0  0
  149.7541  140.0539  157.0891 C   0  0  1  0  0  0  0  0  0  0  0  0
  149.7523  141.1167  158.2054 C   0  0  0  0  0  0  0  0  0  0  0  0
  150.8636  142.0544  158.0787 N   0  0  0  0  0  0  0  0  0  0  0  0
  150.8242  143.0547  159.1468 C   0  0  0  0  0  0  0  0  0  0  0  0
  152.1016  143.9036  159.3231 C   0  0  0  0  0  0  0  0  0  0  0  0
  151.9339  144.8862  160.4914 C   0  0  0  0  0  0  0  0  0  0  0  0
  152.4668  144.6577  158.0341 C   0  0  0  0  0  0  0  0  0  0  0  0
  152.1164  141.3025  158.0536 C   0  0  0  0  0  0  0  0  0  0  0  0
  152.1187  140.2271  156.9542 C   0  0  0  0  0  0  0  0  0  0  0  0
  151.0013  139.3648  157.1320 O   0  0  0  0  0  0  0  0  0  0  0  0
  147.7095  137.0428  160.7453 N   0  0  0  0  0  0  0  0  0  0  0  0
  146.7144  136.4719  161.5477 O   0  0  0  0  0  0  0  0  0  0  0  0
  146.0899  134.3976  163.3627 H   0  0  0  0  0  0  0  0  0  0  0  0
  145.8975  133.2720  162.0171 H   0  0  0  0  0  0  0  0  0  0  0  0
  144.8489  134.6854  162.1403 H   0  0  0  0  0  0  0  0  0  0  0  0
  148.2374  133.7745  160.4574 H   0  0  0  0  0  0  0  0  0  0  0  0
  148.7416  138.4669  159.2962 H   0  0  0  0  0  0  0  0  0  0  0  0
  148.5091  138.4452  156.3571 H   0  0  0  0  0  0  0  0  0  0  0  0
  147.6567  139.5534  157.4014 H   0  0  0  0  0  0  0  0  0  0  0  0
  149.6485  140.5469  156.1207 H   0  0  0  0  0  0  0  0  0  0  0  0
  148.8082  141.6621  158.1786 H   0  0  0  0  0  0  0  0  0  0  0  0
  149.7975  140.6209  159.1766 H   0  0  0  0  0  0  0  0  0  0  0  0
  149.9958  143.7396  158.9594 H   0  0  0  0  0  0  0  0  0  0  0  0
  150.5884  142.5597  160.0902 H   0  0  0  0  0  0  0  0  0  0  0  0
  152.9355  143.2519  159.5820 H   0  0  0  0  0  0  0  0  0  0  0  0
  151.1203  145.5882  160.3058 H   0  0  0  0  0  0  0  0  0  0  0  0
  152.8435  145.4655  160.6521 H   0  0  0  0  0  0  0  0  0  0  0  0
  151.7129  144.3591  161.4199 H   0  0  0  0  0  0  0  0  0  0  0  0
  151.6652  145.3305  157.7277 H   0  0  0  0  0  0  0  0  0  0  0  0
  152.6554  143.9682  157.2108 H   0  0  0  0  0  0  0  0  0  0  0  0
  153.3687  145.2551  158.1708 H   0  0  0  0  0  0  0  0  0  0  0  0
  152.9589  141.9712  157.8835 H   0  0  0  0  0  0  0  0  0  0  0  0
  152.2825  140.8271  159.0216 H   0  0  0  0  0  0  0  0  0  0  0  0
  152.0813  140.6843  155.9642 H   0  0  0  0  0  0  0  0  0  0  0  0
  153.0343  139.6375  157.0008 H   0  0  0  0  0  0  0  0  0  0  0  0
  1  2  1  0  0  0  0
  1 22  1  0  0  0  0
  1 23  1  0  0  0  0
  1 24  1  0  0  0  0
  2 21  1  0  0  0  0
  2  3  2  0  0  0  0
  3  4  1  0  0  0  0
  3 25  1  0  0  0  0
  4  5  1  0  0  0  0
  4 20  2  0  0  0  0
  5  6  1  0  0  0  0
  6  7  2  0  0  0  0
  6  8  1  0  0  0  0
  8  9  1  0  0  0  0
  8 26  1  0  0  0  0
  9 10  1  0  0  0  0
  9 27  1  0  0  0  0
  9 28  1  0  0  0  0
 10 19  1  0  0  0  0
 10 11  1  0  0  0  0
 10 29  1  0  0  0  0
 11 12  1  0  0  0  0
 11 30  1  0  0  0  0
 11 31  1  0  0  0  0
 12 13  1  0  0  0  0
 12 17  1  0  0  0  0
 13 14  1  0  0  0  0
 13 32  1  0  0  0  0
 13 33  1  0  0  0  0
 14 15  1  0  0  0  0
 14 16  1  0  0  0  0
 14 34  1  0  0  0  0
 15 35  1  0  0  0  0
 15 36  1  0  0  0  0
 15 37  1  0  0  0  0
 16 38  1  0  0  0  0
 16 39  1  0  0  0  0
 16 40  1  0  0  0  0
 17 18  1  0  0  0  0
 17 41  1  0  0  0  0
 17 42  1  0  0  0  0
 18 19  1  0  0  0  0
 18 43  1  0  0  0  0
 18 44  1  0  0  0  0
 20 21  1  0  0  0  0
M  CHG  1   5  -1
M  END
> <s_m_source_file>
AV-unprocessed.smi

> <i_m_source_file_index>
1254

> <i_lp_mmshare_version>
43012

> <i_f3d_flags>
0

> <s_epik_input>
W0NIM11jMVtjSF1jKG5vMSlbTkhdQyg9TylbTkhdW0NIMl1bQ0BASF0yW0NIMl1OKFtDSDJdW0NIMl1PMilbQ0gyXVtDSF0oW0NIM10pW0NIM10=

> <s_epik_cmdline>
J2VwaWtfcHl0aG9uJywgJy1waCcsICc3LjAnLCAnLXRuJywgJzgnLCAnLW1hJywgJzIwMCcsICctbWV0YWxfYmluZGluZycsICctaW1hZScsICc8aW5maWxlLm1hZT4nLCAnLW9tYWUnLCAnPG91dGZpbGUubWFlPic=

> <r_epik_Ionization_Penalty>
7.56718

> <r_epik_Ionization_Penalty_Charging>
6.43435

> <r_epik_Ionization_Penalty_Neutral>
1.13283

> <r_epik_State_Penalty>
7.60314

> <r_epik_Charging_Adjusted_Penalty>
14.0375

> <i_epik_Tot_Q>
-1

> <i_epik_Tot_abs_Q>
1

> <r_epik_Metal_State_Penalty>
3.53636

> <b_epik_Metal_Only>
1

> <s_lp_Force_Field>
OPLS_2005

> <r_lp_Energy>
16.636

> <b_lp_Chiralities_Consistent>
1

> <s_lp_Variant>
AV-unprocessed.smi:1254-12

> <Gold.Version>
5.8.1

> <Gold.Id.Protein>
6NUR|6NUR_protein|mol2

> <Gold.PLP.Fitness>
44.0817

> <Gold.PLP.PLP>
-35.3785

> <Gold.PLP.part.hbond>
-3.0000

> <Gold.PLP.part.metal>
0.0000

> <Gold.PLP.part.buried>
-4.9120

> <Gold.PLP.part.nonpolar>
-26.5965

> <Gold.PLP.part.repulsive>
0.2145

> <Gold.PLP.ligand.clash>
0.0000

> <Gold.PLP.ligand.torsion>
1.4698

> <Gold.PLP.Chemscore.Hbond>
3.7760

> <Gold.PLP.Chemscore.CHOScore>
0.0000

> <Gold.PLP.Chemscore.Metal>
0.0000

> <Gold.Chemscore.Hbonds>
donor molecule, donor type, donor heavy atom, donor atom, acceptor molecule, acceptor atom, score
      P1  H  6896  6909       L1     5  2.00
      P1  H  6931  6943       L1    20  0.66
      P1  H  6934  6947       L1    20  0.87

> <Gold.PLP.Chemscore.Internal.Correction>
0.3147

> <Gold.Rescore>
     Score         DG    S(hbond)    S(metal)    S(lipo)     H(rot)  DE(clash)    DE(int)     intcor
     15.64     -18.48       1.94        0.00      91.83       1.65       0.07       2.77       ----

> <Gold.Chemscore.Fitness>
15.6439

> <Gold.Chemscore.DG>
-18.4782

> <Gold.Chemscore.ZeroCoef>
-5.4800

> <Gold.Chemscore.Hbond>
1.9415

> <Gold.Chemscore.Metal>
0.0000

> <Gold.Chemscore.Lipo>
91.8309

> <Gold.Chemscore.Internal_Hbond>
0.0000

> <Gold.Chemscore.DEClash>
0.0683

> <Gold.Chemscore.DEInternal>
2.7660

> <Gold.Chemscore.Rot>
1.6526

> <Gold.Chemscore.Internal.Correction>
   9.000000E+99

> <Gold.Chemscore.Hbonds>
donor molecule, donor type, donor heavy atom, donor atom, acceptor molecule, acceptor atom, score
      P1  H  6896  6909       L1     5  0.76
      P1  H  6931  6943       L1    20  0.36
      P1  H  6934  6947       L1    20  0.21

> <Gold.Chemscore.Hbond.Weighted>
-6.4847

> <Gold.Chemscore.Metal.Weighted>
-0.0000

> <Gold.Chemscore.Lipo.Weighted>
-10.7442

> <Gold.Chemscore.Internal_Hbond.Weighted>
0.0000

> <Gold.Chemscore.DEClash.Weighted>
0.0683

> <Gold.Chemscore.DEInternal.Weighted>
2.7660

> <Gold.Chemscore.Rot.Weighted>
4.2308

> <Gold.Chemscore.Internal.Correction.Weighted>
   9.000000E+99

> <Gold.Protein.RotatedTorsions>
[ 6907 6896 6895 6894 ] final   61.11 input  -60.11 | X-H torsion
[ 7974 7965 7964 7962 ] final -142.74 input  175.53 | X-H torsion
[ 8008 7997 7996 7995 ] final   81.46 input   59.86 | X-H torsion
[ 10167 10162 10161 10158 ] final  146.68 input  -65.29 | X-H torsion
[ 10718 10713 10712 10709 ] final  106.78 input   66.30 | X-H torsion
[ 10763 10752 10751 10750 ] final  127.63 input  -60.55 | X-H torsion
[ 11005 11000 10999 10996 ] final    1.54 input  -57.11 | X-H torsion

> <Gold.Protein.ActiveResidues>
 VAL166  LYS551  ARG553  GLY616  TRP617  ASP618  TYR619  PRO620  LYS621  CYS622 
 ASP623  PHE694  ASN695  SER759  ASP760  ASP761  ALA762  ILE779  LEU786  VAL792 
 PHE793  MET794  SER795  GLU796  ALA797  LYS798  CYS799  TRP800  GLU811  SER814 

> <Gold.Protein.RotatedAtoms>
  152.4061  134.6205  160.0049 H   0  0  0  0  0  0  0  0  0  0  0  0  # atno 6907 bound_to 6896
  151.6396  133.3321  159.3135 H   0  0  0  0  0  0  0  0  0  0  0  0  # atno 6908 bound_to 6896
  150.7955  134.7053  159.6618 H   0  0  0  0  0  0  0  0  0  0  0  0  # atno 6909 bound_to 6896
  144.8421  140.5921  143.5445 H   0  0  0  0  0  0  0  0  0  0  0  0  # atno 7974 bound_to 7965
  155.8974  140.3435  155.6001 H   0  0  0  0  0  0  0  0  0  0  0  0  # atno 8008 bound_to 7997
  155.7539  140.0823  157.2207 H   0  0  0  0  0  0  0  0  0  0  0  0  # atno 8009 bound_to 7997
  154.4040  140.1548  156.2743 H   0  0  0  0  0  0  0  0  0  0  0  0  # atno 8010 bound_to 7997
  139.4903  144.5811  151.6869 H   0  0  0  0  0  0  0  0  0  0  0  0  # atno 10167 bound_to 10162
  157.6655  131.0858  150.6057 H   0  0  0  0  0  0  0  0  0  0  0  0  # atno 10718 bound_to 10713
  153.7125  135.3266  155.3249 H   0  0  0  0  0  0  0  0  0  0  0  0  # atno 10763 bound_to 10752
  154.8380  135.4480  154.1299 H   0  0  0  0  0  0  0  0  0  0  0  0  # atno 10764 bound_to 10752
  153.2397  135.6969  153.7876 H   0  0  0  0  0  0  0  0  0  0  0  0  # atno 10765 bound_to 10752
  140.6143  133.9720  155.8192 H   0  0  0  0  0  0  0  0  0  0  0  0  # atno 11005 bound_to 11000
  145.4672  139.1507  143.3834 LP  0  0  0  0  0  0  0  0  0  0  0  0  # atno 17320 bound_to 7965
  146.2712  140.4804  142.8814 LP  0  0  0  0  0  0  0  0  0  0  0  0  # atno 17321 bound_to 7965
  140.5417  144.0568  150.6091 LP  0  0  0  0  0  0  0  0  0  0  0  0  # atno 17342 bound_to 10162
  140.3592  143.2918  152.0402 LP  0  0  0  0  0  0  0  0  0  0  0  0  # atno 17343 bound_to 10162
  156.6358  130.4444  149.5770 LP  0  0  0  0  0  0  0  0  0  0  0  0  # atno 17370 bound_to 10713
  156.2247  130.6758  151.1403 LP  0  0  0  0  0  0  0  0  0  0  0  0  # atno 17371 bound_to 10713
  141.0787  134.0096  157.3419 LP  0  0  0  0  0  0  0  0  0  0  0  0  # atno 17394 bound_to 11000
  139.9179  135.0198  156.7953 LP  0  0  0  0  0  0  0  0  0  0  0  0  # atno 17395 bound_to 11000

$$$$
