AV-unprocessed.smi:234|AV-procd|sdf|1799|dock3
  -GOLD-   2262020363D 1   1.00000     0.00000
 Structure written by MMmdl.
 59 62  0  0  0  0  0  0  0  0  1 V2000
  148.2166  137.1613  163.8109 C   0  0  0  0  0  0  0  0  0  0  0  0
  147.0830  137.2174  162.7779 C   0  0  0  0  0  0  0  0  0  0  0  0
  147.5671  137.0658  161.4504 O   0  0  0  0  0  0  0  0  0  0  0  0
  148.1891  135.8166  161.1781 C   0  0  2  0  0  0  0  0  0  0  0  0
  148.3529  135.5870  159.6775 C   0  0  0  0  0  0  0  0  0  0  0  0
  148.0626  134.1104  159.9786 C   0  0  2  0  0  0  0  0  0  0  0  0
  147.2681  133.4312  158.9507 N   0  0  0  0  0  0  0  0  0  0  0  0
  146.7123  132.1200  159.2643 C   0  0  0  0  0  0  0  0  0  0  0  0
  147.6975  133.4950  157.6668 C   0  0  0  0  0  0  0  0  0  0  0  0
  148.9273  134.0292  157.4566 N   0  0  0  0  0  0  0  0  0  0  0  0
  149.4132  134.1314  156.2165 C   0  0  0  0  0  0  0  0  0  0  0  0
  148.8434  133.7720  155.0651 N   0  0  0  0  0  0  0  0  0  0  0  0
  147.6022  133.2436  155.2680 C   0  0  0  0  0  0  0  0  0  0  0  0
  146.9533  133.0766  156.5245 C   0  0  0  0  0  0  0  0  0  0  0  0
  145.6879  132.5364  156.3283 N   0  0  0  0  0  0  0  0  0  0  0  0
  145.6024  132.3768  155.0364 C   0  0  0  0  0  0  0  0  0  0  0  0
  146.7133  132.7625  154.3204 N   0  0  0  0  0  0  0  0  0  0  0  0
  146.9038  132.7046  152.8758 C   0  0  0  0  0  0  0  0  0  0  0  0
  146.0758  133.7505  152.0809 C   0  0  2  0  0  0  0  0  0  0  0  0
  146.6175  135.0349  152.3408 O   0  0  0  0  0  0  0  0  0  0  0  0
  144.6039  133.7673  152.4566 C   0  0  0  0  0  0  0  0  0  0  0  0
  143.9444  134.4485  151.2585 C   0  0  0  0  0  0  0  0  0  0  0  0
  144.8412  134.2923  150.1602 O   0  0  0  0  0  0  0  0  0  0  0  0
  146.0127  133.5771  150.5491 C   0  0  2  0  0  0  0  0  0  0  0  0
  145.7963  132.1376  150.0451 C   0  0  0  0  0  0  0  0  0  0  0  0
  147.2597  134.5743  161.2289 C   0  0  0  0  0  0  0  0  0  0  0  0
  147.4020  133.7025  162.4788 C   0  0  0  0  0  0  0  0  0  0  0  0
  145.7587  134.8578  161.0382 C   0  0  0  0  0  0  0  0  0  0  0  0
  147.8375  137.3827  164.8088 H   0  0  0  0  0  0  0  0  0  0  0  0
  148.9919  137.8921  163.5802 H   0  0  0  0  0  0  0  0  0  0  0  0
  148.6824  136.1771  163.8515 H   0  0  0  0  0  0  0  0  0  0  0  0
  146.3121  136.4813  163.0036 H   0  0  0  0  0  0  0  0  0  0  0  0
  146.6018  138.1936  162.8384 H   0  0  0  0  0  0  0  0  0  0  0  0
  149.1365  135.6686  161.6998 H   0  0  0  0  0  0  0  0  0  0  0  0
  147.5845  136.0782  159.0778 H   0  0  0  0  0  0  0  0  0  0  0  0
  149.3535  135.7926  159.2971 H   0  0  0  0  0  0  0  0  0  0  0  0
  148.9678  133.5694  160.2608 H   0  0  0  0  0  0  0  0  0  0  0  0
  147.3615  131.3223  158.9004 H   0  0  0  0  0  0  0  0  0  0  0  0
  145.7318  132.0033  158.8016 H   0  0  0  0  0  0  0  0  0  0  0  0
  146.5901  131.9838  160.3373 H   0  0  0  0  0  0  0  0  0  0  0  0
  150.3994  134.5641  156.1351 H   0  0  0  0  0  0  0  0  0  0  0  0
  144.7114  131.9781  154.5782 H   0  0  0  0  0  0  0  0  0  0  0  0
  147.9682  132.7942  152.6590 H   0  0  0  0  0  0  0  0  0  0  0  0
  146.6234  131.7023  152.5488 H   0  0  0  0  0  0  0  0  0  0  0  0
  147.3538  135.1705  151.7643 H   0  0  0  0  0  0  0  0  0  0  0  0
  144.2290  132.7470  152.5477 H   0  0  0  0  0  0  0  0  0  0  0  0
  144.4012  134.2761  153.4000 H   0  0  0  0  0  0  0  0  0  0  0  0
  142.9682  134.0187  151.0327 H   0  0  0  0  0  0  0  0  0  0  0  0
  143.8081  135.5138  151.4466 H   0  0  0  0  0  0  0  0  0  0  0  0
  146.8930  133.9959  150.0596 H   0  0  0  0  0  0  0  0  0  0  0  0
  146.6429  131.4919  150.2623 H   0  0  0  0  0  0  0  0  0  0  0  0
  145.6591  132.1298  148.9637 H   0  0  0  0  0  0  0  0  0  0  0  0
  144.9109  131.6815  150.4880 H   0  0  0  0  0  0  0  0  0  0  0  0
  146.8373  132.7744  162.3947 H   0  0  0  0  0  0  0  0  0  0  0  0
  147.0430  134.2155  163.3707 H   0  0  0  0  0  0  0  0  0  0  0  0
  148.4423  133.4314  162.6610 H   0  0  0  0  0  0  0  0  0  0  0  0
  145.1862  133.9378  160.9198 H   0  0  0  0  0  0  0  0  0  0  0  0
  145.5647  135.4714  160.1583 H   0  0  0  0  0  0  0  0  0  0  0  0
  145.3407  135.3879  161.8942 H   0  0  0  0  0  0  0  0  0  0  0  0
  1  2  1  0  0  0  0
  1 29  1  0  0  0  0
  1 30  1  0  0  0  0
  1 31  1  0  0  0  0
  2  3  1  0  0  0  0
  2 32  1  0  0  0  0
  2 33  1  0  0  0  0
  3  4  1  0  0  0  0
  4 26  1  0  0  0  0
  4  5  1  0  0  0  0
  4 34  1  0  0  0  0
  5  6  1  0  0  0  0
  5 35  1  0  0  0  0
  5 36  1  0  0  0  0
  6  7  1  0  0  0  0
  6 26  1  0  0  0  0
  6 37  1  0  0  0  0
  7  8  1  0  0  0  0
  7  9  1  0  0  0  0
  8 38  1  0  0  0  0
  8 39  1  0  0  0  0
  8 40  1  0  0  0  0
  9 14  1  0  0  0  0
  9 10  2  0  0  0  0
 10 11  1  0  0  0  0
 11 12  2  0  0  0  0
 11 41  1  0  0  0  0
 12 13  1  0  0  0  0
 13 17  1  0  0  0  0
 13 14  2  0  0  0  0
 14 15  1  0  0  0  0
 15 16  2  0  0  0  0
 16 17  1  0  0  0  0
 16 42  1  0  0  0  0
 17 18  1  0  0  0  0
 18 19  1  0  0  0  0
 18 43  1  0  0  0  0
 18 44  1  0  0  0  0
 19 24  1  0  0  0  0
 19 20  1  0  0  0  0
 19 21  1  0  0  0  0
 20 45  1  0  0  0  0
 21 22  1  0  0  0  0
 21 46  1  0  0  0  0
 21 47  1  0  0  0  0
 22 23  1  0  0  0  0
 22 48  1  0  0  0  0
 22 49  1  0  0  0  0
 23 24  1  0  0  0  0
 24 25  1  0  0  0  0
 24 50  1  0  0  0  0
 25 51  1  0  0  0  0
 25 52  1  0  0  0  0
 25 53  1  0  0  0  0
 26 27  1  0  0  0  0
 26 28  1  0  0  0  0
 27 54  1  0  0  0  0
 27 55  1  0  0  0  0
 27 56  1  0  0  0  0
 28 57  1  0  0  0  0
 28 58  1  0  0  0  0
 28 59  1  0  0  0  0
M  END
> <s_m_source_file>
AV-unprocessed.smi

> <i_m_source_file_index>
234

> <i_lp_mmshare_version>
43012

> <i_f3d_flags>
0

> <s_epik_input>
W0NIM11bQ0gyXU9bQ0BASF0oQzEoW0NIM10pW0NIM10pW0NIMl1bQ0BIXTFOKFtDSDNdKWMobltjSF1uMiljKGMyMyluW2NIXW4zW0NIMl1bQ0BAXTQoW09IXSlbQ0gyXVtDSDJdT1tDQEhdNFtDSDNd

> <s_epik_cmdline>
J2VwaWtfcHl0aG9uJywgJy1waCcsICc3LjAnLCAnLXRuJywgJzgnLCAnLW1hJywgJzIwMCcsICctbWV0YWxfYmluZGluZycsICctaW1hZScsICc8aW5maWxlLm1hZT4nLCAnLW9tYWUnLCAnPG91dGZpbGUubWFlPic=

> <r_lp_tautomer_probability>
1

> <r_epik_Ionization_Penalty>
0.00349132

> <r_epik_Ionization_Penalty_Charging>
0

> <r_epik_Ionization_Penalty_Neutral>
0.00349132

> <r_epik_State_Penalty>
0.00242418

> <r_epik_Charging_Adjusted_Penalty>
0.00242418

> <i_epik_Tot_Q>
0

> <i_epik_Tot_abs_Q>
0

> <r_epik_Metal_State_Penalty>
-0

> <b_epik_Metal_Only>
0

> <s_lp_Force_Field>
OPLS_2005

> <r_lp_Energy>
51.2497

> <b_lp_Chiralities_Consistent>
1

> <s_lp_Variant>
AV-unprocessed.smi:234-15

> <Gold.Version>
5.8.1

> <Gold.Id.Protein>
6NUR|6NUR_protein|mol2

> <Gold.PLP.Fitness>
41.3448

> <Gold.PLP.PLP>
-32.5948

> <Gold.PLP.part.hbond>
-3.0000

> <Gold.PLP.part.metal>
0.0000

> <Gold.PLP.part.buried>
-1.2444

> <Gold.PLP.part.nonpolar>
-30.2982

> <Gold.PLP.part.repulsive>
1.5933

> <Gold.PLP.ligand.clash>
0.0000

> <Gold.PLP.ligand.torsion>
0.7277

> <Gold.PLP.Chemscore.Hbond>
2.1162

> <Gold.PLP.Chemscore.CHOScore>
0.9379

> <Gold.PLP.Chemscore.Metal>
0.0000

> <Gold.Chemscore.Hbonds>
donor molecule, donor type, donor heavy atom, donor atom, acceptor molecule, acceptor atom, score
      L1  H    20    45       P1  7948  0.72
      P1  H  6931  6943       L1     3  0.40
      P1  H  6934  6947       L1     3  0.57
      L1  C    16    42       P1 10957  0.93

> <Gold.PLP.Chemscore.Internal.Correction>
1.0432

> <Gold.Rescore>
     Score         DG    S(hbond)    S(metal)    S(lipo)     H(rot)  DE(clash)    DE(int)     intcor
     13.75     -16.15       1.64        0.00     101.69       2.62       0.35       2.05       ----

> <Gold.Chemscore.Fitness>
13.7486

> <Gold.Chemscore.DG>
-16.1467

> <Gold.Chemscore.ZeroCoef>
-5.4800

> <Gold.Chemscore.Hbond>
1.6410

> <Gold.Chemscore.Metal>
0.0000

> <Gold.Chemscore.Lipo>
101.6906

> <Gold.Chemscore.Internal_Hbond>
0.0000

> <Gold.Chemscore.DEClash>
0.3478

> <Gold.Chemscore.DEInternal>
2.0502

> <Gold.Chemscore.Rot>
2.6219

> <Gold.Chemscore.Internal.Correction>
   9.000000E+99

> <Gold.Chemscore.Hbonds>
donor molecule, donor type, donor heavy atom, donor atom, acceptor molecule, acceptor atom, score
      L1  H    20    45       P1  7948  0.67
      P1  H  6931  6943       L1     3  0.01
      P1  H  6934  6947       L1     3  0.06

> <Gold.Chemscore.Hbond.Weighted>
-5.4810

> <Gold.Chemscore.Metal.Weighted>
-0.0000

> <Gold.Chemscore.Lipo.Weighted>
-11.8978

> <Gold.Chemscore.Internal_Hbond.Weighted>
0.0000

> <Gold.Chemscore.DEClash.Weighted>
0.3478

> <Gold.Chemscore.DEInternal.Weighted>
2.0502

> <Gold.Chemscore.Rot.Weighted>
6.7121

> <Gold.Chemscore.Internal.Correction.Weighted>
   9.000000E+99

> <Gold.Protein.RotatedTorsions>
[ 6907 6896 6895 6894 ] final   13.88 input  -60.11 | X-H torsion
[ 7974 7965 7964 7962 ] final  152.29 input  175.53 | X-H torsion
[ 8008 7997 7996 7995 ] final   15.74 input   59.86 | X-H torsion
[ 10167 10162 10161 10158 ] final  -50.62 input  -65.29 | X-H torsion
[ 10718 10713 10712 10709 ] final   27.29 input   66.30 | X-H torsion
[ 10763 10752 10751 10750 ] final  -36.89 input  -60.55 | X-H torsion
[ 11005 11000 10999 10996 ] final -126.04 input  -57.11 | X-H torsion

> <Gold.Protein.ActiveResidues>
 VAL166  LYS551  ARG553  GLY616  TRP617  ASP618  TYR619  PRO620  LYS621  CYS622 
 ASP623  PHE694  ASN695  SER759  ASP760  ASP761  ALA762  ILE779  LEU786  VAL792 
 PHE793  MET794  SER795  GLU796  ALA797  LYS798  CYS799  TRP800  GLU811  SER814 

> <Gold.Protein.RotatedAtoms>
  151.7934  135.0729  160.0390 H   0  0  0  0  0  0  0  0  0  0  0  0  # atno 6907 bound_to 6896
  152.3140  133.5778  159.5708 H   0  0  0  0  0  0  0  0  0  0  0  0  # atno 6908 bound_to 6896
  150.7334  134.0026  159.3685 H   0  0  0  0  0  0  0  0  0  0  0  0  # atno 6909 bound_to 6896
  144.8233  139.6649  143.6091 H   0  0  0  0  0  0  0  0  0  0  0  0  # atno 7974 bound_to 7965
  154.8670  140.2953  155.5504 H   0  0  0  0  0  0  0  0  0  0  0  0  # atno 8008 bound_to 7997
  156.3021  140.2467  156.3586 H   0  0  0  0  0  0  0  0  0  0  0  0  # atno 8009 bound_to 7997
  154.8858  140.0396  157.1798 H   0  0  0  0  0  0  0  0  0  0  0  0  # atno 8010 bound_to 7997
  140.6629  143.2651  151.4385 H   0  0  0  0  0  0  0  0  0  0  0  0  # atno 10167 bound_to 10162
  157.2183  130.6966  149.6258 H   0  0  0  0  0  0  0  0  0  0  0  0  # atno 10718 bound_to 10713
  153.8872  135.6816  153.4763 H   0  0  0  0  0  0  0  0  0  0  0  0  # atno 10763 bound_to 10752
  153.1201  135.4744  154.9179 H   0  0  0  0  0  0  0  0  0  0  0  0  # atno 10764 bound_to 10752
  154.7640  135.3219  154.8275 H   0  0  0  0  0  0  0  0  0  0  0  0  # atno 10765 bound_to 10752
  140.9713  134.0801  157.3866 H   0  0  0  0  0  0  0  0  0  0  0  0  # atno 11005 bound_to 11000
  146.2538  139.6257  142.9409 LP  0  0  0  0  0  0  0  0  0  0  0  0  # atno 17320 bound_to 7965
  145.5057  141.0436  143.2515 LP  0  0  0  0  0  0  0  0  0  0  0  0  # atno 17321 bound_to 7965
  139.5868  144.1587  152.2039 LP  0  0  0  0  0  0  0  0  0  0  0  0  # atno 17342 bound_to 10162
  140.0929  144.5605  150.7042 LP  0  0  0  0  0  0  0  0  0  0  0  0  # atno 17343 bound_to 10162
  155.9684  130.4528  150.5789 LP  0  0  0  0  0  0  0  0  0  0  0  0  # atno 17370 bound_to 10713
  157.3602  131.0748  151.1642 LP  0  0  0  0  0  0  0  0  0  0  0  0  # atno 17371 bound_to 10713
  139.8913  135.0118  156.6786 LP  0  0  0  0  0  0  0  0  0  0  0  0  # atno 17394 bound_to 11000
  140.7324  133.9047  155.8220 LP  0  0  0  0  0  0  0  0  0  0  0  0  # atno 17395 bound_to 11000

$$$$
