AV-unprocessed.smi:213|AV-procd|sdf|1637|dock4
  -GOLD-   2262020 03D 1   1.00000     0.00000
 Structure written by MMmdl.
 59 62  0  0  0  0  0  0  0  0  2 V2000
  145.8172  136.2589  155.4507 C   0  0  0  0  0  0  0  0  0  0  0  0
  147.2255  136.1059  154.8535 C   0  0  2  0  0  0  0  0  0  0  0  0
  147.4308  134.6949  154.2500 C   0  0  0  0  0  0  0  0  0  0  0  0
  146.9321  134.5800  152.8559 N   0  3  0  0  0  0  0  0  0  0  0  0
  146.8532  133.1805  152.3792 C   0  0  0  0  0  0  0  0  0  0  0  0
  146.4325  133.1514  150.9003 C   0  0  0  0  0  0  0  0  0  0  0  0
  145.1856  133.8187  150.7455 O   0  0  0  0  0  0  0  0  0  0  0  0
  145.2598  135.1858  151.1311 C   0  0  0  0  0  0  0  0  0  0  0  0
  145.6482  135.2834  152.6158 C   0  0  0  0  0  0  0  0  0  0  0  0
  148.2660  136.4617  155.8307 N   0  0  0  0  0  0  0  0  0  0  0  0
  149.0719  135.4053  156.4419 C   0  0  0  0  0  0  0  0  0  0  0  0
  148.8660  137.6698  155.6619 C   0  0  0  0  0  0  0  0  0  0  0  0
  148.5211  138.4422  154.5965 N   0  0  0  0  0  0  0  0  0  0  0  0
  149.0577  139.6553  154.4390 C   0  0  0  0  0  0  0  0  0  0  0  0
  149.9389  140.2834  155.2180 N   0  0  0  0  0  0  0  0  0  0  0  0
  150.3050  139.5092  156.2786 C   0  0  0  0  0  0  0  0  0  0  0  0
  149.8202  138.2034  156.5743 C   0  0  0  0  0  0  0  0  0  0  0  0
  150.4150  137.7313  157.7381 N   0  0  0  0  0  0  0  0  0  0  0  0
  151.2018  138.7025  158.1117 C   0  0  0  0  0  0  0  0  0  0  0  0
  151.2061  139.8047  157.2869 N   0  0  0  0  0  0  0  0  0  0  0  0
  151.9902  141.0161  157.4689 C   0  0  0  0  0  0  0  0  0  0  0  0
  151.1495  142.3061  157.6114 C   0  0  2  0  0  0  0  0  0  0  0  0
  150.6702  142.6958  156.3401 O   0  0  0  0  0  0  0  0  0  0  0  0
  151.8819  143.4784  158.3106 C   0  0  1  0  0  0  0  0  0  0  0  0
  151.1337  144.8087  158.4900 C   0  0  0  0  0  0  0  0  0  0  0  0
  151.7831  145.4214  159.7233 C   0  0  0  0  0  0  0  0  0  0  0  0
  152.6724  144.3081  160.2838 C   0  0  0  0  0  0  0  0  0  0  0  0
  152.2311  143.1228  159.6385 O   0  0  0  0  0  0  0  0  0  0  0  0
  145.0541  136.1058  154.6873 H   0  0  0  0  0  0  0  0  0  0  0  0
  145.6732  137.2594  155.8600 H   0  0  0  0  0  0  0  0  0  0  0  0
  145.6277  135.5388  156.2465 H   0  0  0  0  0  0  0  0  0  0  0  0
  147.2610  136.8143  154.0287 H   0  0  0  0  0  0  0  0  0  0  0  0
  148.4958  134.4605  154.2692 H   0  0  0  0  0  0  0  0  0  0  0  0
  146.9452  133.9396  154.8697 H   0  0  0  0  0  0  0  0  0  0  0  0
  147.8225  132.6935  152.4929 H   0  0  0  0  0  0  0  0  0  0  0  0
  146.1381  132.6242  152.9872 H   0  0  0  0  0  0  0  0  0  0  0  0
  147.1906  133.6211  150.2710 H   0  0  0  0  0  0  0  0  0  0  0  0
  146.3273  132.1214  150.5592 H   0  0  0  0  0  0  0  0  0  0  0  0
  145.9787  135.7154  150.5042 H   0  0  0  0  0  0  0  0  0  0  0  0
  144.2891  135.6534  150.9655 H   0  0  0  0  0  0  0  0  0  0  0  0
  144.8663  134.8436  153.2368 H   0  0  0  0  0  0  0  0  0  0  0  0
  145.7260  136.3330  152.8964 H   0  0  0  0  0  0  0  0  0  0  0  0
  149.6397  135.7915  157.2894 H   0  0  0  0  0  0  0  0  0  0  0  0
  149.7747  134.9848  155.7221 H   0  0  0  0  0  0  0  0  0  0  0  0
  148.4453  134.5969  156.8166 H   0  0  0  0  0  0  0  0  0  0  0  0
  148.7287  140.2044  153.5690 H   0  0  0  0  0  0  0  0  0  0  0  0
  151.8141  138.6362  158.9994 H   0  0  0  0  0  0  0  0  0  0  0  0
  152.6383  140.8840  158.3365 H   0  0  0  0  0  0  0  0  0  0  0  0
  152.6545  141.1145  156.6095 H   0  0  0  0  0  0  0  0  0  0  0  0
  150.2747  142.0483  158.2097 H   0  0  0  0  0  0  0  0  0  0  0  0
  150.0572  143.4056  156.4580 H   0  0  0  0  0  0  0  0  0  0  0  0
  152.8214  143.6658  157.7865 H   0  0  0  0  0  0  0  0  0  0  0  0
  151.2148  145.4573  157.6185 H   0  0  0  0  0  0  0  0  0  0  0  0
  150.0729  144.6578  158.6886 H   0  0  0  0  0  0  0  0  0  0  0  0
  152.3728  146.3050  159.4765 H   0  0  0  0  0  0  0  0  0  0  0  0
  151.0226  145.7191  160.4462 H   0  0  0  0  0  0  0  0  0  0  0  0
  153.7174  144.4866  160.0258 H   0  0  0  0  0  0  0  0  0  0  0  0
  152.6007  144.2190  161.3680 H   0  0  0  0  0  0  0  0  0  0  0  0
  147.6247  135.0305  152.2740 H   0  0  0  0  0  0  0  0  0  0  0  0
  1  2  1  0  0  0  0
  1 29  1  0  0  0  0
  1 30  1  0  0  0  0
  1 31  1  0  0  0  0
  2  3  1  0  0  0  0
  2 10  1  0  0  0  0
  2 32  1  0  0  0  0
  3  4  1  0  0  0  0
  3 33  1  0  0  0  0
  3 34  1  0  0  0  0
  4  9  1  0  0  0  0
  4  5  1  0  0  0  0
  4 59  1  0  0  0  0
  5  6  1  0  0  0  0
  5 35  1  0  0  0  0
  5 36  1  0  0  0  0
  6  7  1  0  0  0  0
  6 37  1  0  0  0  0
  6 38  1  0  0  0  0
  7  8  1  0  0  0  0
  8  9  1  0  0  0  0
  8 39  1  0  0  0  0
  8 40  1  0  0  0  0
  9 41  1  0  0  0  0
  9 42  1  0  0  0  0
 10 11  1  0  0  0  0
 10 12  1  0  0  0  0
 11 43  1  0  0  0  0
 11 44  1  0  0  0  0
 11 45  1  0  0  0  0
 12 17  1  0  0  0  0
 12 13  2  0  0  0  0
 13 14  1  0  0  0  0
 14 15  2  0  0  0  0
 14 46  1  0  0  0  0
 15 16  1  0  0  0  0
 16 20  1  0  0  0  0
 16 17  2  0  0  0  0
 17 18  1  0  0  0  0
 18 19  2  0  0  0  0
 19 20  1  0  0  0  0
 19 47  1  0  0  0  0
 20 21  1  0  0  0  0
 21 22  1  0  0  0  0
 21 48  1  0  0  0  0
 21 49  1  0  0  0  0
 22 23  1  0  0  0  0
 22 24  1  0  0  0  0
 22 50  1  0  0  0  0
 23 51  1  0  0  0  0
 24 28  1  0  0  0  0
 24 25  1  0  0  0  0
 24 52  1  0  0  0  0
 25 26  1  0  0  0  0
 25 53  1  0  0  0  0
 25 54  1  0  0  0  0
 26 27  1  0  0  0  0
 26 55  1  0  0  0  0
 26 56  1  0  0  0  0
 27 28  1  0  0  0  0
 27 57  1  0  0  0  0
 27 58  1  0  0  0  0
M  CHG  1   4   1
M  END
> <s_m_source_file>
AV-unprocessed.smi

> <i_m_source_file_index>
213

> <i_lp_mmshare_version>
43012

> <i_f3d_flags>
0

> <s_epik_input>
W0NIMl0xW0NIMl1PW0NIMl1bQ0gyXU4xW0NIMl1bQ0BASF0oW0NIM10pTihbQ0gzXSljKG5bY0hdbjIpYyhjMjMpbltjSF1uM1tDSDJdW0NASF0oW09IXSlbQ0BASF00W0NIMl1bQ0gyXVtDSDJdTzQ=

> <s_epik_cmdline>
J2VwaWtfcHl0aG9uJywgJy1waCcsICc3LjAnLCAnLXRuJywgJzgnLCAnLW1hJywgJzIwMCcsICctbWV0YWxfYmluZGluZycsICctaW1hZScsICc8aW5maWxlLm1hZT4nLCAnLW9tYWUnLCAnPG91dGZpbGUubWFlPic=

> <r_lp_tautomer_probability>
1

> <r_epik_Ionization_Penalty>
0.399679

> <r_epik_Ionization_Penalty_Charging>
0.399433

> <r_epik_Ionization_Penalty_Neutral>
0.000246213

> <r_epik_State_Penalty>
0.286032

> <r_epik_Charging_Adjusted_Penalty>
0.685465

> <i_epik_Tot_Q>
1

> <i_epik_Tot_abs_Q>
1

> <r_epik_Metal_State_Penalty>
0.286072

> <b_epik_Metal_Only>
0

> <s_lp_Force_Field>
OPLS_2005

> <r_lp_Energy>
48.2471

> <b_lp_Chiralities_Consistent>
1

> <s_lp_Variant>
AV-unprocessed.smi:213-5

> <Gold.Version>
5.8.1

> <Gold.Id.Protein>
6NUR|6NUR_protein|mol2

> <Gold.PLP.Fitness>
49.2133

> <Gold.PLP.PLP>
-38.6391

> <Gold.PLP.part.hbond>
-2.0000

> <Gold.PLP.part.metal>
0.0000

> <Gold.PLP.part.buried>
-8.0269

> <Gold.PLP.part.nonpolar>
-29.5601

> <Gold.PLP.part.repulsive>
0.6262

> <Gold.PLP.ligand.clash>
0.0000

> <Gold.PLP.ligand.torsion>
1.2465

> <Gold.PLP.Chemscore.Hbond>
3.0000

> <Gold.PLP.Chemscore.CHOScore>
1.0000

> <Gold.PLP.Chemscore.Metal>
0.0000

> <Gold.Chemscore.Hbonds>
donor molecule, donor type, donor heavy atom, donor atom, acceptor molecule, acceptor atom, score
      L1  H     4    59       P1  7948  2.00
      L1  H    23    51       P1  8028  0.98
      L1  C    14    46       P1  7957  0.88

> <Gold.PLP.Chemscore.Internal.Correction>
1.0672

> <Gold.Rescore>
     Score         DG    S(hbond)    S(metal)    S(lipo)     H(rot)  DE(clash)    DE(int)     intcor
     13.35     -15.58       1.97        0.00      91.91       2.83       0.05       2.18       ----

> <Gold.Chemscore.Fitness>
13.3524

> <Gold.Chemscore.DG>
-15.5826

> <Gold.Chemscore.ZeroCoef>
-5.4800

> <Gold.Chemscore.Hbond>
1.9708

> <Gold.Chemscore.Metal>
0.0000

> <Gold.Chemscore.Lipo>
91.9054

> <Gold.Chemscore.Internal_Hbond>
0.0000

> <Gold.Chemscore.DEClash>
0.0524

> <Gold.Chemscore.DEInternal>
2.1777

> <Gold.Chemscore.Rot>
2.8254

> <Gold.Chemscore.Internal.Correction>
   9.000000E+99

> <Gold.Chemscore.Hbonds>
donor molecule, donor type, donor heavy atom, donor atom, acceptor molecule, acceptor atom, score
      L1  H     4    59       P1  7948  0.95
      L1  H    23    51       P1  8028  0.93
      P1  H  7989  7998       L1    15  0.01

> <Gold.Chemscore.Hbond.Weighted>
-6.5826

> <Gold.Chemscore.Metal.Weighted>
-0.0000

> <Gold.Chemscore.Lipo.Weighted>
-10.7529

> <Gold.Chemscore.Internal_Hbond.Weighted>
0.0000

> <Gold.Chemscore.DEClash.Weighted>
0.0524

> <Gold.Chemscore.DEInternal.Weighted>
2.1777

> <Gold.Chemscore.Rot.Weighted>
7.2330

> <Gold.Chemscore.Internal.Correction.Weighted>
   9.000000E+99

> <Gold.Protein.RotatedTorsions>
[ 6907 6896 6895 6894 ] final  170.69 input  -60.11 | X-H torsion
[ 7974 7965 7964 7962 ] final  -36.40 input  175.53 | X-H torsion
[ 8008 7997 7996 7995 ] final  -68.37 input   59.86 | X-H torsion
[ 10167 10162 10161 10158 ] final  110.86 input  -65.29 | X-H torsion
[ 10718 10713 10712 10709 ] final  132.51 input   66.30 | X-H torsion
[ 10763 10752 10751 10750 ] final  -48.00 input  -60.55 | X-H torsion
[ 11005 11000 10999 10996 ] final  -44.35 input  -57.11 | X-H torsion

> <Gold.Protein.ActiveResidues>
 VAL166  LYS551  ARG553  GLY616  TRP617  ASP618  TYR619  PRO620  LYS621  CYS622 
 ASP623  PHE694  ASN695  SER759  ASP760  ASP761  ALA762  ILE779  LEU786  VAL792 
 PHE793  MET794  SER795  GLU796  ALA797  LYS798  CYS799  TRP800  GLU811  SER814 

> <Gold.Protein.RotatedAtoms>
  151.8121  133.3383  159.3558 H   0  0  0  0  0  0  0  0  0  0  0  0  # atno 6907 bound_to 6896
  150.7323  134.5654  159.5873 H   0  0  0  0  0  0  0  0  0  0  0  0  # atno 6908 bound_to 6896
  152.3067  134.7547  160.0397 H   0  0  0  0  0  0  0  0  0  0  0  0  # atno 6909 bound_to 6896
  146.0664  140.6274  142.8973 H   0  0  0  0  0  0  0  0  0  0  0  0  # atno 7974 bound_to 7965
  154.4863  140.0874  156.7495 H   0  0  0  0  0  0  0  0  0  0  0  0  # atno 8008 bound_to 7997
  155.4341  140.3451  155.4265 H   0  0  0  0  0  0  0  0  0  0  0  0  # atno 8009 bound_to 7997
  156.1267  140.1489  156.9114 H   0  0  0  0  0  0  0  0  0  0  0  0  # atno 8010 bound_to 7997
  139.6655  144.7127  151.1784 H   0  0  0  0  0  0  0  0  0  0  0  0  # atno 10167 bound_to 10162
  157.4863  131.1088  150.9615 H   0  0  0  0  0  0  0  0  0  0  0  0  # atno 10718 bound_to 10713
  154.0707  135.6605  153.4824 H   0  0  0  0  0  0  0  0  0  0  0  0  # atno 10763 bound_to 10752
  153.0392  135.5156  154.7570 H   0  0  0  0  0  0  0  0  0  0  0  0  # atno 10764 bound_to 10752
  154.6635  135.3018  154.9804 H   0  0  0  0  0  0  0  0  0  0  0  0  # atno 10765 bound_to 10752
  141.0444  133.6767  156.2860 H   0  0  0  0  0  0  0  0  0  0  0  0  # atno 11005 bound_to 11000
  144.7205  140.4357  143.7012 LP  0  0  0  0  0  0  0  0  0  0  0  0  # atno 17320 bound_to 7965
  145.6469  139.1558  143.2884 LP  0  0  0  0  0  0  0  0  0  0  0  0  # atno 17321 bound_to 7965
  140.7597  143.5926  150.8781 LP  0  0  0  0  0  0  0  0  0  0  0  0  # atno 17342 bound_to 10162
  139.9587  143.6189  152.3008 LP  0  0  0  0  0  0  0  0  0  0  0  0  # atno 17343 bound_to 10162
  157.0331  130.5719  149.5346 LP  0  0  0  0  0  0  0  0  0  0  0  0  # atno 17370 bound_to 10713
  156.0149  130.5242  150.8103 LP  0  0  0  0  0  0  0  0  0  0  0  0  # atno 17371 bound_to 10713
  140.6173  134.5397  157.5542 LP  0  0  0  0  0  0  0  0  0  0  0  0  # atno 17394 bound_to 11000
  139.9301  134.7981  156.0956 LP  0  0  0  0  0  0  0  0  0  0  0  0  # atno 17395 bound_to 11000

$$$$
