AV-unprocessed.smi:557|AV-procd|sdf|2917|dock6
  -GOLD-   2262023413D 1   1.00000     0.00000
 Structure written by MMmdl.
 47 49  0  0  0  0  0  0  0  0  2 V2000
  151.2614  140.9271  156.3200 C   0  0  0  0  0  0  0  0  0  0  0  0
  150.2713  140.3027  155.4692 N   0  0  0  0  0  0  0  0  0  0  0  0
  148.8977  140.3445  155.5734 C   0  0  0  0  0  0  0  0  0  0  0  0
  148.3861  139.6057  154.5440 C   0  0  0  0  0  0  0  0  0  0  0  0
  146.9468  139.3388  154.2030 C   0  0  0  0  0  0  0  0  0  0  0  0
  146.7597  139.1155  152.6967 C   0  0  0  0  0  0  0  0  0  0  0  0
  146.8801  137.6979  152.3672 N   0  0  0  0  0  0  0  0  0  0  0  0
  145.8834  136.8048  152.2477 C   0  0  0  0  0  0  0  0  0  0  0  0
  144.7066  137.1157  152.4189 O   0  0  0  0  0  0  0  0  0  0  0  0
  146.2839  135.5609  151.9343 N   0  0  0  0  0  0  0  0  0  0  0  0
  145.4042  134.4104  151.7543 C   0  0  1  0  0  0  0  0  0  0  0  0
  144.5377  134.5111  150.5045 C   0  0  0  0  0  0  0  0  0  0  0  0
  144.1269  133.0555  150.2790 C   0  0  0  0  0  0  0  0  0  0  0  0
  145.2806  132.2372  150.7163 N   0  3  2  0  0  0  0  0  0  0  0  0
  144.9193  130.9303  151.3174 C   0  0  0  0  0  0  0  0  0  0  0  0
  146.1845  130.1571  151.7308 C   0  0  0  0  0  0  0  0  0  0  0  0
  147.1430  130.9924  152.6049 C   0  0  0  0  0  0  0  0  0  0  0  0
  146.6248  132.4182  152.8518 C   0  0  0  0  0  0  0  0  0  0  0  0
  146.1788  133.0986  151.5375 C   0  0  2  0  0  0  0  0  0  0  0  0
  149.5468  139.1439  153.8602 C   0  0  0  0  0  0  0  0  0  0  0  0
  150.6722  139.5634  154.4148 N   0  0  0  0  0  0  0  0  0  0  0  0
  150.7732  141.5706  157.0524 H   0  0  0  0  0  0  0  0  0  0  0  0
  151.9413  141.5298  155.7170 H   0  0  0  0  0  0  0  0  0  0  0  0
  151.8311  140.1600  156.8449 H   0  0  0  0  0  0  0  0  0  0  0  0
  148.4023  140.8921  156.3617 H   0  0  0  0  0  0  0  0  0  0  0  0
  146.5834  138.4648  154.7448 H   0  0  0  0  0  0  0  0  0  0  0  0
  146.3192  140.1701  154.5262 H   0  0  0  0  0  0  0  0  0  0  0  0
  145.7780  139.4775  152.3864 H   0  0  0  0  0  0  0  0  0  0  0  0
  147.5086  139.6841  152.1427 H   0  0  0  0  0  0  0  0  0  0  0  0
  147.8187  137.3553  152.2196 H   0  0  0  0  0  0  0  0  0  0  0  0
  147.2736  135.4029  151.8105 H   0  0  0  0  0  0  0  0  0  0  0  0
  144.7371  134.3086  152.6130 H   0  0  0  0  0  0  0  0  0  0  0  0
  143.6835  135.1771  150.6302 H   0  0  0  0  0  0  0  0  0  0  0  0
  145.1259  134.8682  149.6576 H   0  0  0  0  0  0  0  0  0  0  0  0
  143.2555  132.8294  150.8960 H   0  0  0  0  0  0  0  0  0  0  0  0
  143.8627  132.8508  149.2413 H   0  0  0  0  0  0  0  0  0  0  0  0
  144.2742  131.0861  152.1838 H   0  0  0  0  0  0  0  0  0  0  0  0
  144.3438  130.3470  150.5979 H   0  0  0  0  0  0  0  0  0  0  0  0
  145.8995  129.2456  152.2572 H   0  0  0  0  0  0  0  0  0  0  0  0
  146.7134  129.8316  150.8342 H   0  0  0  0  0  0  0  0  0  0  0  0
  147.3108  130.4932  153.5597 H   0  0  0  0  0  0  0  0  0  0  0  0
  148.1170  131.0442  152.1169 H   0  0  0  0  0  0  0  0  0  0  0  0
  145.7903  132.3794  153.5533 H   0  0  0  0  0  0  0  0  0  0  0  0
  147.3984  133.0114  153.3394 H   0  0  0  0  0  0  0  0  0  0  0  0
  147.0579  133.2924  150.9205 H   0  0  0  0  0  0  0  0  0  0  0  0
  149.6040  138.5208  152.9801 H   0  0  0  0  0  0  0  0  0  0  0  0
  145.8094  132.0243  149.8825 H   0  0  0  0  0  0  0  0  0  0  0  0
  1  2  1  0  0  0  0
  1 22  1  0  0  0  0
  1 23  1  0  0  0  0
  1 24  1  0  0  0  0
  2 21  1  0  0  0  0
  2  3  1  0  0  0  0
  3  4  2  0  0  0  0
  3 25  1  0  0  0  0
  4  5  1  0  0  0  0
  4 20  1  0  0  0  0
  5  6  1  0  0  0  0
  5 26  1  0  0  0  0
  5 27  1  0  0  0  0
  6  7  1  0  0  0  0
  6 28  1  0  0  0  0
  6 29  1  0  0  0  0
  7  8  1  0  0  0  0
  7 30  1  0  0  0  0
  8  9  2  0  0  0  0
  8 10  1  0  0  0  0
 10 11  1  0  0  0  0
 10 31  1  0  0  0  0
 11 19  1  0  0  0  0
 11 12  1  0  0  0  0
 11 32  1  0  0  0  0
 12 13  1  0  0  0  0
 12 33  1  0  0  0  0
 12 34  1  0  0  0  0
 13 14  1  0  0  0  0
 13 35  1  0  0  0  0
 13 36  1  0  0  0  0
 14 19  1  0  0  0  0
 14 15  1  0  0  0  0
 14 47  1  0  0  0  0
 15 16  1  0  0  0  0
 15 37  1  0  0  0  0
 15 38  1  0  0  0  0
 16 17  1  0  0  0  0
 16 39  1  0  0  0  0
 16 40  1  0  0  0  0
 17 18  1  0  0  0  0
 17 41  1  0  0  0  0
 17 42  1  0  0  0  0
 18 19  1  0  0  0  0
 18 43  1  0  0  0  0
 18 44  1  0  0  0  0
 19 45  1  0  0  0  0
 20 21  2  0  0  0  0
 20 46  1  0  0  0  0
M  CHG  1  14   1
M  END
> <s_m_source_file>
AV-unprocessed.smi

> <i_m_source_file_index>
557

> <i_lp_mmshare_version>
43012

> <i_f3d_flags>
0

> <s_epik_input>
W0NIM11uMVtjSF1jKFtjSF1uMSlbQ0gyXVtDSDJdW05IXUMoPU8pW05IXVtDQEhdKFtDSDJdW0NIMl0yKVtDQEhdKE4yMylbQ0gyXVtDSDJdW0NIMl1bQ0gyXTM=

> <s_epik_cmdline>
J2VwaWtfcHl0aG9uJywgJy1waCcsICc3LjAnLCAnLXRuJywgJzgnLCAnLW1hJywgJzIwMCcsICctbWV0YWxfYmluZGluZycsICctaW1hZScsICc8aW5maWxlLm1hZT4nLCAnLW9tYWUnLCAnPG91dGZpbGUubWFlPic=

> <r_lp_tautomer_probability>
1

> <r_epik_Ionization_Penalty>
0.000956547

> <r_epik_Ionization_Penalty_Charging>
0.000435796

> <r_epik_Ionization_Penalty_Neutral>
0.000520752

> <r_epik_State_Penalty>
-0

> <r_epik_Charging_Adjusted_Penalty>
0.000435796

> <i_epik_Tot_Q>
1

> <i_epik_Tot_abs_Q>
1

> <r_epik_Metal_State_Penalty>
-0

> <b_epik_Metal_Only>
0

> <s_lp_Force_Field>
OPLS_2005

> <r_lp_Energy>
44.9241

> <b_lp_Chiralities_Consistent>
1

> <s_lp_Variant>
AV-unprocessed.smi:557-4

> <Gold.Version>
5.8.1

> <Gold.Id.Protein>
6NUR|6NUR_protein|mol2

> <Gold.PLP.Fitness>
45.6254

> <Gold.PLP.PLP>
-34.6867

> <Gold.PLP.part.hbond>
-3.0000

> <Gold.PLP.part.metal>
0.0000

> <Gold.PLP.part.buried>
-2.5677

> <Gold.PLP.part.nonpolar>
-30.4188

> <Gold.PLP.part.repulsive>
1.3073

> <Gold.PLP.ligand.clash>
0.0000

> <Gold.PLP.ligand.torsion>
0.8032

> <Gold.PLP.Chemscore.Hbond>
2.8460

> <Gold.PLP.Chemscore.CHOScore>
1.3308

> <Gold.PLP.Chemscore.Metal>
0.0000

> <Gold.Chemscore.Hbonds>
donor molecule, donor type, donor heavy atom, donor atom, acceptor molecule, acceptor atom, score
      L1  H     7    30       P1  7948  1.00
      L1  H    10    31       P1  7948  0.90
      P1  H  7989  7998       L1    21  0.95
      L1  C    20    46       P1  7948  0.86
      L1  C    20    46       P1  7957  0.52

> <Gold.PLP.Chemscore.Internal.Correction>
0.0147

> <Gold.Rescore>
     Score         DG    S(hbond)    S(metal)    S(lipo)     H(rot)  DE(clash)    DE(int)     intcor
     19.13     -20.50       2.63        0.00      88.30       1.60       0.52       0.84       ----

> <Gold.Chemscore.Fitness>
19.1330

> <Gold.Chemscore.DG>
-20.4985

> <Gold.Chemscore.ZeroCoef>
-5.4800

> <Gold.Chemscore.Hbond>
2.6312

> <Gold.Chemscore.Metal>
0.0000

> <Gold.Chemscore.Lipo>
88.2969

> <Gold.Chemscore.Internal_Hbond>
0.0000

> <Gold.Chemscore.DEClash>
0.5249

> <Gold.Chemscore.DEInternal>
0.8406

> <Gold.Chemscore.Rot>
1.6018

> <Gold.Chemscore.Internal.Correction>
   9.000000E+99

> <Gold.Chemscore.Hbonds>
donor molecule, donor type, donor heavy atom, donor atom, acceptor molecule, acceptor atom, score
      L1  H     7    30       P1  7948  0.98
      L1  H    10    31       P1  7948  0.87
      P1  H  7989  7998       L1    21  0.20

> <Gold.Chemscore.Hbond.Weighted>
-8.7883

> <Gold.Chemscore.Metal.Weighted>
-0.0000

> <Gold.Chemscore.Lipo.Weighted>
-10.3307

> <Gold.Chemscore.Internal_Hbond.Weighted>
0.0000

> <Gold.Chemscore.DEClash.Weighted>
0.5249

> <Gold.Chemscore.DEInternal.Weighted>
0.8406

> <Gold.Chemscore.Rot.Weighted>
4.1006

> <Gold.Chemscore.Internal.Correction.Weighted>
   9.000000E+99

> <Gold.Protein.RotatedTorsions>
[ 6907 6896 6895 6894 ] final -144.78 input  -60.11 | X-H torsion
[ 7974 7965 7964 7962 ] final  120.54 input  175.53 | X-H torsion
[ 8008 7997 7996 7995 ] final  -54.29 input   59.86 | X-H torsion
[ 10167 10162 10161 10158 ] final    7.19 input  -65.29 | X-H torsion
[ 10718 10713 10712 10709 ] final   68.27 input   66.30 | X-H torsion
[ 10763 10752 10751 10750 ] final  117.40 input  -60.55 | X-H torsion
[ 11005 11000 10999 10996 ] final   37.80 input  -57.11 | X-H torsion

> <Gold.Protein.ActiveResidues>
 VAL166  LYS551  ARG553  GLY616  TRP617  ASP618  TYR619  PRO620  LYS621  CYS622 
 ASP623  PHE694  ASN695  SER759  ASP760  ASP761  ALA762  ILE779  LEU786  VAL792 
 PHE793  MET794  SER795  GLU796  ALA797  LYS798  CYS799  TRP800  GLU811  SER814 

> <Gold.Protein.RotatedAtoms>
  151.1187  133.5120  159.2602 H   0  0  0  0  0  0  0  0  0  0  0  0  # atno 6907 bound_to 6896
  151.1886  135.0392  159.8833 H   0  0  0  0  0  0  0  0  0  0  0  0  # atno 6908 bound_to 6896
  152.5454  134.1030  159.8379 H   0  0  0  0  0  0  0  0  0  0  0  0  # atno 6909 bound_to 6896
  145.1300  139.3334  143.4670 H   0  0  0  0  0  0  0  0  0  0  0  0  # atno 7974 bound_to 7965
  154.4158  140.1180  156.5292 H   0  0  0  0  0  0  0  0  0  0  0  0  # atno 8008 bound_to 7997
  155.6623  140.3496  155.4768 H   0  0  0  0  0  0  0  0  0  0  0  0  # atno 8009 bound_to 7997
  155.9703  140.1140  157.0808 H   0  0  0  0  0  0  0  0  0  0  0  0  # atno 8010 bound_to 7997
  140.6386  143.7828  150.7394 H   0  0  0  0  0  0  0  0  0  0  0  0  # atno 10167 bound_to 10162
  157.6279  130.9365  150.0355 H   0  0  0  0  0  0  0  0  0  0  0  0  # atno 10718 bound_to 10713
  153.5519  135.3538  155.2763 H   0  0  0  0  0  0  0  0  0  0  0  0  # atno 10763 bound_to 10752
  154.8706  135.4116  154.2928 H   0  0  0  0  0  0  0  0  0  0  0  0  # atno 10764 bound_to 10752
  153.3656  135.7062  153.6747 H   0  0  0  0  0  0  0  0  0  0  0  0  # atno 10765 bound_to 10752
  140.2189  134.3664  155.8014 H   0  0  0  0  0  0  0  0  0  0  0  0  # atno 11005 bound_to 11000
  146.3514  140.1295  142.8597 LP  0  0  0  0  0  0  0  0  0  0  0  0  # atno 17320 bound_to 7965
  145.0646  140.9112  143.4918 LP  0  0  0  0  0  0  0  0  0  0  0  0  # atno 17321 bound_to 7965
  140.1455  143.4403  152.2166 LP  0  0  0  0  0  0  0  0  0  0  0  0  # atno 17342 bound_to 10162
  139.5595  144.7396  151.4196 LP  0  0  0  0  0  0  0  0  0  0  0  0  # atno 17343 bound_to 10162
  156.1463  130.3642  149.9505 LP  0  0  0  0  0  0  0  0  0  0  0  0  # atno 17370 bound_to 10713
  156.7535  130.9124  151.3638 LP  0  0  0  0  0  0  0  0  0  0  0  0  # atno 17371 bound_to 10713
  141.2224  133.7183  156.8543 LP  0  0  0  0  0  0  0  0  0  0  0  0  # atno 17394 bound_to 11000
  140.1870  134.8992  157.3016 LP  0  0  0  0  0  0  0  0  0  0  0  0  # atno 17395 bound_to 11000

$$$$
