AV-unprocessed.smi:264|AV-procd|sdf|2008|dock5
  -GOLD-   2262021203D 1   1.00000     0.00000
 Structure written by MMmdl.
 52 56  0  0  0  0  0  0  0  0  1 V2000
  143.8947  136.5832  161.2501 C   0  0  0  0  0  0  0  0  0  0  0  0
  145.4215  136.6445  161.4184 C   0  0  1  0  0  0  0  0  0  0  0  0
  145.7718  137.4787  162.5130 O   0  0  0  0  0  0  0  0  0  0  0  0
  147.1157  137.1822  162.8459 C   0  0  0  0  0  0  0  0  0  0  0  0
  147.1471  135.6595  162.7956 C   0  0  0  0  0  0  0  0  0  0  0  0
  146.1588  135.3042  161.6802 C   0  0  1  0  0  0  0  0  0  0  0  0
  145.2784  134.3073  162.1729 O   0  0  0  0  0  0  0  0  0  0  0  0
  146.8730  134.7434  160.4255 C   0  0  0  0  0  0  0  0  0  0  0  0
  147.7870  135.6904  159.8037 N   0  0  0  0  0  0  0  0  0  0  0  0
  148.8398  136.3390  160.4090 C   0  0  0  0  0  0  0  0  0  0  0  0
  149.5214  137.1380  159.6350 N   0  0  0  0  0  0  0  0  0  0  0  0
  148.8824  137.0465  158.4042 C   0  0  0  0  0  0  0  0  0  0  0  0
  149.0993  137.6399  157.1282 C   0  0  0  0  0  0  0  0  0  0  0  0
  150.0991  138.5270  156.8929 N   0  0  0  0  0  0  0  0  0  0  0  0
  150.8312  138.3147  155.6506 C   0  0  0  0  0  0  0  0  0  0  0  0
  151.6686  139.5577  155.3201 C   0  0  0  0  0  0  0  0  0  0  0  0
  152.5209  139.8841  156.4172 O   0  0  0  0  0  0  0  0  0  0  0  0
  151.8341  140.1256  157.6493 C   0  0  1  0  0  0  0  0  0  0  0  0
  152.8846  140.3876  158.7242 C   0  0  0  0  0  0  0  0  0  0  0  0
  152.2276  141.4385  159.6060 C   0  0  0  0  0  0  0  0  0  0  0  0
  151.5951  142.2752  158.6561 O   0  0  0  0  0  0  0  0  0  0  0  0
  151.0326  141.4491  157.6433 C   0  0  0  0  0  0  0  0  0  0  0  0
  150.9687  138.8943  158.0070 C   0  0  0  0  0  0  0  0  0  0  0  0
  148.2557  137.2831  156.1227 N   0  0  0  0  0  0  0  0  0  0  0  0
  147.2622  136.4187  156.3484 C   0  0  0  0  0  0  0  0  0  0  0  0
  146.9392  135.7973  157.4838 N   0  0  0  0  0  0  0  0  0  0  0  0
  147.7885  136.1397  158.4943 C   0  0  0  0  0  0  0  0  0  0  0  0
  143.6154  135.9266  160.4258 H   0  0  0  0  0  0  0  0  0  0  0  0
  143.4916  137.5728  161.0345 H   0  0  0  0  0  0  0  0  0  0  0  0
  143.4057  136.2193  162.1539 H   0  0  0  0  0  0  0  0  0  0  0  0
  145.8463  137.1221  160.5350 H   0  0  0  0  0  0  0  0  0  0  0  0
  147.7855  137.6134  162.1001 H   0  0  0  0  0  0  0  0  0  0  0  0
  147.3860  137.5782  163.8250 H   0  0  0  0  0  0  0  0  0  0  0  0
  148.1531  135.2744  162.6253 H   0  0  0  0  0  0  0  0  0  0  0  0
  146.8093  135.2707  163.7580 H   0  0  0  0  0  0  0  0  0  0  0  0
  145.6249  133.4596  161.9407 H   0  0  0  0  0  0  0  0  0  0  0  0
  147.4354  133.8457  160.6861 H   0  0  0  0  0  0  0  0  0  0  0  0
  146.1414  134.4348  159.6773 H   0  0  0  0  0  0  0  0  0  0  0  0
  149.0940  136.1930  161.4489 H   0  0  0  0  0  0  0  0  0  0  0  0
  151.4821  137.4471  155.7675 H   0  0  0  0  0  0  0  0  0  0  0  0
  150.1612  138.0970  154.8197 H   0  0  0  0  0  0  0  0  0  0  0  0
  152.2860  139.3678  154.4423 H   0  0  0  0  0  0  0  0  0  0  0  0
  151.0209  140.3976  155.0683 H   0  0  0  0  0  0  0  0  0  0  0  0
  153.1827  139.4950  159.2751 H   0  0  0  0  0  0  0  0  0  0  0  0
  153.7835  140.8141  158.2761 H   0  0  0  0  0  0  0  0  0  0  0  0
  151.4807  140.9919  160.2643 H   0  0  0  0  0  0  0  0  0  0  0  0
  152.9449  141.9891  160.2148 H   0  0  0  0  0  0  0  0  0  0  0  0
  151.0874  141.9772  156.6918 H   0  0  0  0  0  0  0  0  0  0  0  0
  149.9787  141.2782  157.8657 H   0  0  0  0  0  0  0  0  0  0  0  0
  150.3756  139.1002  158.8994 H   0  0  0  0  0  0  0  0  0  0  0  0
  151.6124  138.0442  158.2390 H   0  0  0  0  0  0  0  0  0  0  0  0
  146.6368  136.1931  155.4974 H   0  0  0  0  0  0  0  0  0  0  0  0
  1  2  1  0  0  0  0
  1 28  1  0  0  0  0
  1 29  1  0  0  0  0
  1 30  1  0  0  0  0
  2  6  1  0  0  0  0
  2  3  1  0  0  0  0
  2 31  1  0  0  0  0
  3  4  1  0  0  0  0
  4  5  1  0  0  0  0
  4 32  1  0  0  0  0
  4 33  1  0  0  0  0
  5  6  1  0  0  0  0
  5 34  1  0  0  0  0
  5 35  1  0  0  0  0
  6  7  1  0  0  0  0
  6  8  1  0  0  0  0
  7 36  1  0  0  0  0
  8  9  1  0  0  0  0
  8 37  1  0  0  0  0
  8 38  1  0  0  0  0
  9 27  1  0  0  0  0
  9 10  1  0  0  0  0
 10 11  2  0  0  0  0
 10 39  1  0  0  0  0
 11 12  1  0  0  0  0
 12 27  2  0  0  0  0
 12 13  1  0  0  0  0
 13 14  1  0  0  0  0
 13 24  2  0  0  0  0
 14 23  1  0  0  0  0
 14 15  1  0  0  0  0
 15 16  1  0  0  0  0
 15 40  1  0  0  0  0
 15 41  1  0  0  0  0
 16 17  1  0  0  0  0
 16 42  1  0  0  0  0
 16 43  1  0  0  0  0
 17 18  1  0  0  0  0
 18 22  1  0  0  0  0
 18 19  1  0  0  0  0
 18 23  1  0  0  0  0
 19 20  1  0  0  0  0
 19 44  1  0  0  0  0
 19 45  1  0  0  0  0
 20 21  1  0  0  0  0
 20 46  1  0  0  0  0
 20 47  1  0  0  0  0
 21 22  1  0  0  0  0
 22 48  1  0  0  0  0
 22 49  1  0  0  0  0
 23 50  1  0  0  0  0
 23 51  1  0  0  0  0
 24 25  1  0  0  0  0
 25 26  2  0  0  0  0
 25 52  1  0  0  0  0
 26 27  1  0  0  0  0
M  END
> <s_m_source_file>
AV-unprocessed.smi

> <i_m_source_file_index>
264

> <i_lp_mmshare_version>
43012

> <i_f3d_flags>
0

> <s_epik_input>
W0NIMl0xW0NIMl1PW0NAQEhdKFtDSDNdKVtDQEBdMShbT0hdKVtDSDJdbihbY0hdbjIpYyhjMjMpbltjSF1uYzNOKFtDSDJdNClbQ0gyXVtDSDJdT1tDQF00NVtDSDJdW0NIMl1PW0NIMl01

> <s_epik_cmdline>
J2VwaWtfcHl0aG9uJywgJy1waCcsICc3LjAnLCAnLXRuJywgJzgnLCAnLW1hJywgJzIwMCcsICctbWV0YWxfYmluZGluZycsICctaW1hZScsICc8aW5maWxlLm1hZT4nLCAnLW9tYWUnLCAnPG91dGZpbGUubWFlPic=

> <r_lp_tautomer_probability>
1

> <r_epik_Ionization_Penalty>
0.00539389

> <r_epik_Ionization_Penalty_Charging>
0

> <r_epik_Ionization_Penalty_Neutral>
0.00539389

> <r_epik_State_Penalty>
0.00375441

> <r_epik_Charging_Adjusted_Penalty>
0.00375441

> <i_epik_Tot_Q>
0

> <i_epik_Tot_abs_Q>
0

> <r_epik_Metal_State_Penalty>
-0

> <b_epik_Metal_Only>
0

> <s_lp_Force_Field>
OPLS_2005

> <r_lp_Energy>
54.8303

> <b_lp_Chiralities_Consistent>
1

> <s_lp_Variant>
AV-unprocessed.smi:264-2

> <Gold.Version>
5.8.1

> <Gold.Id.Protein>
6NUR|6NUR_protein|mol2

> <Gold.PLP.Fitness>
37.1204

> <Gold.PLP.PLP>
-34.3064

> <Gold.PLP.part.hbond>
-1.7433

> <Gold.PLP.part.metal>
0.0000

> <Gold.PLP.part.buried>
-3.9213

> <Gold.PLP.part.nonpolar>
-27.1264

> <Gold.PLP.part.repulsive>
0.0436

> <Gold.PLP.ligand.clash>
0.0000

> <Gold.PLP.ligand.torsion>
0.2404

> <Gold.PLP.Chemscore.Hbond>
1.0000

> <Gold.PLP.Chemscore.CHOScore>
0.0000

> <Gold.PLP.Chemscore.Metal>
0.0000

> <Gold.Chemscore.Hbonds>
donor molecule, donor type, donor heavy atom, donor atom, acceptor molecule, acceptor atom, score
      P1  H  7997  8010       L1    17  1.00

> <Gold.PLP.Chemscore.Internal.Correction>
0.2948

> <Gold.Rescore>
     Score         DG    S(hbond)    S(metal)    S(lipo)     H(rot)  DE(clash)    DE(int)     intcor
     11.51     -13.21       0.98        0.00      84.11       2.11       0.03       1.67       ----

> <Gold.Chemscore.Fitness>
11.5105

> <Gold.Chemscore.DG>
-13.2102

> <Gold.Chemscore.ZeroCoef>
-5.4800

> <Gold.Chemscore.Hbond>
0.9825

> <Gold.Chemscore.Metal>
0.0000

> <Gold.Chemscore.Lipo>
84.1106

> <Gold.Chemscore.Internal_Hbond>
0.0000

> <Gold.Chemscore.DEClash>
0.0253

> <Gold.Chemscore.DEInternal>
1.6745

> <Gold.Chemscore.Rot>
2.1063

> <Gold.Chemscore.Internal.Correction>
   9.000000E+99

> <Gold.Chemscore.Hbonds>
donor molecule, donor type, donor heavy atom, donor atom, acceptor molecule, acceptor atom, score
      P1  H  7997  8010       L1    17  0.96

> <Gold.Chemscore.Hbond.Weighted>
-3.2814

> <Gold.Chemscore.Metal.Weighted>
-0.0000

> <Gold.Chemscore.Lipo.Weighted>
-9.8409

> <Gold.Chemscore.Internal_Hbond.Weighted>
0.0000

> <Gold.Chemscore.DEClash.Weighted>
0.0253

> <Gold.Chemscore.DEInternal.Weighted>
1.6745

> <Gold.Chemscore.Rot.Weighted>
5.3921

> <Gold.Chemscore.Internal.Correction.Weighted>
   9.000000E+99

> <Gold.Protein.RotatedTorsions>
[ 6907 6896 6895 6894 ] final -150.99 input  -60.11 | X-H torsion
[ 7974 7965 7964 7962 ] final   53.26 input  175.53 | X-H torsion
[ 8008 7997 7996 7995 ] final   74.65 input   59.86 | X-H torsion
[ 10167 10162 10161 10158 ] final  105.33 input  -65.29 | X-H torsion
[ 10718 10713 10712 10709 ] final   17.38 input   66.30 | X-H torsion
[ 10763 10752 10751 10750 ] final -116.28 input  -60.55 | X-H torsion
[ 11005 11000 10999 10996 ] final   97.40 input  -57.11 | X-H torsion

> <Gold.Protein.ActiveResidues>
 VAL166  LYS551  ARG553  GLY616  TRP617  ASP618  TYR619  PRO620  LYS621  CYS622 
 ASP623  PHE694  ASN695  SER759  ASP760  ASP761  ALA762  ILE779  LEU786  VAL792 
 PHE793  MET794  SER795  GLU796  ALA797  LYS798  CYS799  TRP800  GLU811  SER814 

> <Gold.Protein.RotatedAtoms>
  151.2066  133.4580  159.2597 H   0  0  0  0  0  0  0  0  0  0  0  0  # atno 6907 bound_to 6896
  151.1017  134.9976  159.8462 H   0  0  0  0  0  0  0  0  0  0  0  0  # atno 6908 bound_to 6896
  152.5444  134.1992  159.8758 H   0  0  0  0  0  0  0  0  0  0  0  0  # atno 6909 bound_to 6896
  145.9730  139.4167  143.0179 H   0  0  0  0  0  0  0  0  0  0  0  0  # atno 7974 bound_to 7965
  155.8014  140.3476  155.5405 H   0  0  0  0  0  0  0  0  0  0  0  0  # atno 8008 bound_to 7997
  155.8534  140.0960  157.1681 H   0  0  0  0  0  0  0  0  0  0  0  0  # atno 8009 bound_to 7997
  154.4008  140.1372  156.3859 H   0  0  0  0  0  0  0  0  0  0  0  0  # atno 8010 bound_to 7997
  139.7102  144.7079  151.1040 H   0  0  0  0  0  0  0  0  0  0  0  0  # atno 10167 bound_to 10162
  157.0813  130.6389  149.5827 H   0  0  0  0  0  0  0  0  0  0  0  0  # atno 10718 bound_to 10713
  154.8513  135.4351  154.1796 H   0  0  0  0  0  0  0  0  0  0  0  0  # atno 10763 bound_to 10752
  153.2890  135.6960  153.7317 H   0  0  0  0  0  0  0  0  0  0  0  0  # atno 10764 bound_to 10752
  153.6492  135.3454  155.3069 H   0  0  0  0  0  0  0  0  0  0  0  0  # atno 10765 bound_to 10752
  139.8776  134.8999  156.4302 H   0  0  0  0  0  0  0  0  0  0  0  0  # atno 11005 bound_to 11000
  145.7879  140.9827  143.1064 LP  0  0  0  0  0  0  0  0  0  0  0  0  # atno 17320 bound_to 7965
  144.6841  139.9646  143.7481 LP  0  0  0  0  0  0  0  0  0  0  0  0  # atno 17321 bound_to 7965
  140.7731  143.5304  150.9430 LP  0  0  0  0  0  0  0  0  0  0  0  0  # atno 17342 bound_to 10162
  139.8988  143.6861  152.3134 LP  0  0  0  0  0  0  0  0  0  0  0  0  # atno 17343 bound_to 10162
  155.9923  130.4980  150.7334 LP  0  0  0  0  0  0  0  0  0  0  0  0  # atno 17370 bound_to 10713
  157.4798  131.0901  151.0549 LP  0  0  0  0  0  0  0  0  0  0  0  0  # atno 17371 bound_to 10713
  140.9072  133.7737  155.9749 LP  0  0  0  0  0  0  0  0  0  0  0  0  # atno 17394 bound_to 11000
  140.8586  134.2868  157.5244 LP  0  0  0  0  0  0  0  0  0  0  0  0  # atno 17395 bound_to 11000

$$$$
