AV-unprocessed.smi:1843|AV-procd|sdf|7500|dock10
  -GOLD-   22720 9203D 1   1.00000     0.00000
 Structure written by MMmdl.
 37 39  0  0  0  0  0  0  0  0  1 V2000
  145.8720  136.3669  154.8484 O   0  0  0  0  0  0  0  0  0  0  0  0
  146.7149  136.4843  153.9584 C   0  0  0  0  0  0  0  0  0  0  0  0
  147.7427  137.3510  153.9697 N   0  0  0  0  0  0  0  0  0  0  0  0
  148.0941  138.2861  154.9789 C   0  0  0  0  0  0  0  0  0  0  0  0
  147.5076  138.3384  156.1827 N   0  0  0  0  0  0  0  0  0  0  0  0
  148.0447  139.3415  156.9772 N   0  0  0  0  0  0  0  0  0  0  0  0
  149.0174  140.0175  156.3542 C   0  0  0  0  0  0  0  0  0  0  0  0
  149.7509  141.1405  157.0088 C   0  0  0  0  0  0  0  0  0  0  0  0
  150.7183  141.9945  156.2224 C   0  0  0  0  0  0  0  0  0  0  0  0
  151.2358  141.0634  157.2890 C   0  0  0  0  0  0  0  0  0  0  0  0
  149.3588  139.4740  154.7146 S   0  0  0  0  0  0  0  0  0  0  0  0
  146.7183  135.7431  152.8413 N   0  0  0  0  0  0  0  0  0  0  0  0
  145.7422  134.7057  152.5145 C   0  0  2  0  0  0  0  0  0  0  0  0
  146.4759  133.3535  152.3724 C   0  0  0  0  0  0  0  0  0  0  0  0
  145.5459  132.2358  151.8785 C   0  0  0  0  0  0  0  0  0  0  0  0
  144.8746  132.6242  150.5548 C   0  0  0  0  0  0  0  0  0  0  0  0
  144.1017  133.9411  150.7059 C   0  0  0  0  0  0  0  0  0  0  0  0
  145.0102  135.0812  151.2047 C   0  0  1  0  0  0  0  0  0  0  0  0
  144.1919  136.2126  151.4254 O   0  0  0  0  0  0  0  0  0  0  0  0
  148.3545  137.3297  153.1675 H   0  0  0  0  0  0  0  0  0  0  0  0
  149.1194  141.6333  157.7455 H   0  0  0  0  0  0  0  0  0  0  0  0
  150.9055  141.7228  155.1854 H   0  0  0  0  0  0  0  0  0  0  0  0
  150.7313  143.0616  156.4347 H   0  0  0  0  0  0  0  0  0  0  0  0
  151.5947  141.5094  158.2142 H   0  0  0  0  0  0  0  0  0  0  0  0
  151.7792  140.1812  156.9563 H   0  0  0  0  0  0  0  0  0  0  0  0
  147.4440  135.9107  152.1599 H   0  0  0  0  0  0  0  0  0  0  0  0
  145.0048  134.6214  153.3159 H   0  0  0  0  0  0  0  0  0  0  0  0
  147.3058  133.4584  151.6718 H   0  0  0  0  0  0  0  0  0  0  0  0
  146.9167  133.0639  153.3270 H   0  0  0  0  0  0  0  0  0  0  0  0
  146.1108  131.3119  151.7517 H   0  0  0  0  0  0  0  0  0  0  0  0
  144.7839  132.0325  152.6320 H   0  0  0  0  0  0  0  0  0  0  0  0
  145.6288  132.7264  149.7733 H   0  0  0  0  0  0  0  0  0  0  0  0
  144.1991  131.8311  150.2335 H   0  0  0  0  0  0  0  0  0  0  0  0
  143.6493  134.2132  149.7514 H   0  0  0  0  0  0  0  0  0  0  0  0
  143.2781  133.7908  151.4058 H   0  0  0  0  0  0  0  0  0  0  0  0
  145.7375  135.3234  150.4283 H   0  0  0  0  0  0  0  0  0  0  0  0
  144.3434  136.8327  150.7283 H   0  0  0  0  0  0  0  0  0  0  0  0
  1  2  2  0  0  0  0
  2  3  1  0  0  0  0
  2 12  1  0  0  0  0
  3  4  1  0  0  0  0
  3 20  1  0  0  0  0
  4 11  1  0  0  0  0
  4  5  2  0  0  0  0
  5  6  1  0  0  0  0
  6  7  2  0  0  0  0
  7  8  1  0  0  0  0
  7 11  1  0  0  0  0
  8 10  1  0  0  0  0
  8  9  1  0  0  0  0
  8 21  1  0  0  0  0
  9 10  1  0  0  0  0
  9 22  1  0  0  0  0
  9 23  1  0  0  0  0
 10 24  1  0  0  0  0
 10 25  1  0  0  0  0
 12 13  1  0  0  0  0
 12 26  1  0  0  0  0
 13 18  1  0  0  0  0
 13 14  1  0  0  0  0
 13 27  1  0  0  0  0
 14 15  1  0  0  0  0
 14 28  1  0  0  0  0
 14 29  1  0  0  0  0
 15 16  1  0  0  0  0
 15 30  1  0  0  0  0
 15 31  1  0  0  0  0
 16 17  1  0  0  0  0
 16 32  1  0  0  0  0
 16 33  1  0  0  0  0
 17 18  1  0  0  0  0
 17 34  1  0  0  0  0
 17 35  1  0  0  0  0
 18 19  1  0  0  0  0
 18 36  1  0  0  0  0
 19 37  1  0  0  0  0
M  END
> <s_m_source_file>
AV-unprocessed.smi

> <i_m_source_file_index>
1843

> <i_lp_mmshare_version>
43012

> <i_f3d_flags>
0

> <s_epik_input>
W09IXVtDQEBIXTFbQ0gyXVtDSDJdW0NIMl1bQ0gyXVtDQEhdMVtOSF1DKD1PKVtOSF1jMm5uYyhzMilbQ0hdM1tDSDJdW0NIMl0z

> <s_epik_cmdline>
J2VwaWtfcHl0aG9uJywgJy1waCcsICc3LjAnLCAnLXRuJywgJzgnLCAnLW1hJywgJzIwMCcsICctbWV0YWxfYmluZGluZycsICctaW1hZScsICc8aW5maWxlLm1hZT4nLCAnLW9tYWUnLCAnPG91dGZpbGUubWFlPic=

> <r_lp_tautomer_probability>
1

> <r_epik_Ionization_Penalty>
0.000257313

> <r_epik_Ionization_Penalty_Charging>
0

> <r_epik_Ionization_Penalty_Neutral>
0.000257313

> <r_epik_State_Penalty>
-0

> <r_epik_Charging_Adjusted_Penalty>
0

> <i_epik_Tot_Q>
0

> <i_epik_Tot_abs_Q>
0

> <r_epik_Metal_State_Penalty>
0.147479

> <b_epik_Metal_Only>
0

> <s_lp_Force_Field>
OPLS_2005

> <r_lp_Energy>
7.85459

> <b_lp_Chiralities_Consistent>
1

> <s_lp_Variant>
AV-unprocessed.smi:1843-1

> <Gold.Version>
5.8.1

> <Gold.Id.Protein>
6NUR|6NUR_protein|mol2

> <Gold.PLP.Fitness>
33.2645

> <Gold.PLP.PLP>
-24.7398

> <Gold.PLP.part.hbond>
-2.8191

> <Gold.PLP.part.metal>
0.0000

> <Gold.PLP.part.buried>
-4.1409

> <Gold.PLP.part.nonpolar>
-18.4448

> <Gold.PLP.part.repulsive>
0.0424

> <Gold.PLP.ligand.clash>
0.0000

> <Gold.PLP.ligand.torsion>
0.0862

> <Gold.PLP.Chemscore.Hbond>
2.8560

> <Gold.PLP.Chemscore.CHOScore>
0.0000

> <Gold.PLP.Chemscore.Metal>
0.0000

> <Gold.Chemscore.Hbonds>
donor molecule, donor type, donor heavy atom, donor atom, acceptor molecule, acceptor atom, score
      L1  H     3    20       P1  7948  0.86
      L1  H    12    26       P1  7948  1.00
      L1  H    19    37       P1 10171  0.99

> <Gold.PLP.Chemscore.Internal.Correction>
0.1292

> <Gold.Rescore>
     Score         DG    S(hbond)    S(metal)    S(lipo)     H(rot)  DE(clash)    DE(int)     intcor
     16.06     -17.44       2.79        0.00      60.67       1.74       0.02       1.36       ----

> <Gold.Chemscore.Fitness>
16.0586

> <Gold.Chemscore.DG>
-17.4374

> <Gold.Chemscore.ZeroCoef>
-5.4800

> <Gold.Chemscore.Hbond>
2.7887

> <Gold.Chemscore.Metal>
0.0000

> <Gold.Chemscore.Lipo>
60.6718

> <Gold.Chemscore.Internal_Hbond>
0.0000

> <Gold.Chemscore.DEClash>
0.0174

> <Gold.Chemscore.DEInternal>
1.3614

> <Gold.Chemscore.Rot>
1.7404

> <Gold.Chemscore.Internal.Correction>
   9.000000E+99

> <Gold.Chemscore.Hbonds>
donor molecule, donor type, donor heavy atom, donor atom, acceptor molecule, acceptor atom, score
      L1  H     3    20       P1  7948  0.85
      L1  H    12    26       P1  7948  0.90
      L1  H    19    37       P1 10171  0.88

> <Gold.Chemscore.Hbond.Weighted>
-9.3143

> <Gold.Chemscore.Metal.Weighted>
-0.0000

> <Gold.Chemscore.Lipo.Weighted>
-7.0986

> <Gold.Chemscore.Internal_Hbond.Weighted>
0.0000

> <Gold.Chemscore.DEClash.Weighted>
0.0174

> <Gold.Chemscore.DEInternal.Weighted>
1.3614

> <Gold.Chemscore.Rot.Weighted>
4.4555

> <Gold.Chemscore.Internal.Correction.Weighted>
   9.000000E+99

> <Gold.Protein.RotatedTorsions>
[ 6907 6896 6895 6894 ] final  156.10 input  -60.11 | X-H torsion
[ 7974 7965 7964 7962 ] final   19.93 input  175.53 | X-H torsion
[ 8008 7997 7996 7995 ] final   74.10 input   59.86 | X-H torsion
[ 10167 10162 10161 10158 ] final  -60.96 input  -65.29 | X-H torsion
[ 10718 10713 10712 10709 ] final   65.93 input   66.30 | X-H torsion
[ 10763 10752 10751 10750 ] final  -68.18 input  -60.55 | X-H torsion
[ 11005 11000 10999 10996 ] final   15.21 input  -57.11 | X-H torsion

> <Gold.Protein.ActiveResidues>
 VAL166  LYS551  ARG553  GLY616  TRP617  ASP618  TYR619  PRO620  LYS621  CYS622 
 ASP623  PHE694  ASN695  SER759  ASP760  ASP761  ALA762  ILE779  LEU786  VAL792 
 PHE793  MET794  SER795  GLU796  ALA797  LYS798  CYS799  TRP800  GLU811  SER814 

> <Gold.Protein.RotatedAtoms>
  152.0345  133.3951  159.4310 H   0  0  0  0  0  0  0  0  0  0  0  0  # atno 6907 bound_to 6896
  150.6880  134.3483  159.4907 H   0  0  0  0  0  0  0  0  0  0  0  0  # atno 6908 bound_to 6896
  152.1274  134.9160  160.0611 H   0  0  0  0  0  0  0  0  0  0  0  0  # atno 6909 bound_to 6896
  146.2131  139.8243  142.8673 H   0  0  0  0  0  0  0  0  0  0  0  0  # atno 7974 bound_to 7965
  155.7933  140.3478  155.5362 H   0  0  0  0  0  0  0  0  0  0  0  0  # atno 8008 bound_to 7997
  155.8611  140.0971  157.1633 H   0  0  0  0  0  0  0  0  0  0  0  0  # atno 8009 bound_to 7997
  154.4012  140.1358  156.3950 H   0  0  0  0  0  0  0  0  0  0  0  0  # atno 8010 bound_to 7997
  140.6037  143.2368  151.5870 H   0  0  0  0  0  0  0  0  0  0  0  0  # atno 10167 bound_to 10162
  157.6137  130.9240  150.0041 H   0  0  0  0  0  0  0  0  0  0  0  0  # atno 10718 bound_to 10713
  154.3853  135.6065  153.5813 H   0  0  0  0  0  0  0  0  0  0  0  0  # atno 10763 bound_to 10752
  152.9788  135.5871  154.4361 H   0  0  0  0  0  0  0  0  0  0  0  0  # atno 10764 bound_to 10752
  154.4137  135.2844  155.1998 H   0  0  0  0  0  0  0  0  0  0  0  0  # atno 10765 bound_to 10752
  140.4608  134.1129  155.7716 H   0  0  0  0  0  0  0  0  0  0  0  0  # atno 11005 bound_to 11000
  145.3064  141.0208  143.3579 LP  0  0  0  0  0  0  0  0  0  0  0  0  # atno 17320 bound_to 7965
  144.8968  139.4702  143.6651 LP  0  0  0  0  0  0  0  0  0  0  0  0  # atno 17321 bound_to 7965
  139.5309  144.2918  152.1146 LP  0  0  0  0  0  0  0  0  0  0  0  0  # atno 17342 bound_to 10162
  140.2104  144.4569  150.6389 LP  0  0  0  0  0  0  0  0  0  0  0  0  # atno 17343 bound_to 10162
  156.1250  130.3645  149.9825 LP  0  0  0  0  0  0  0  0  0  0  0  0  # atno 17370 bound_to 10713
  156.7898  130.9252  151.3646 LP  0  0  0  0  0  0  0  0  0  0  0  0  # atno 17371 bound_to 10713
  141.1622  133.8771  157.1816 LP  0  0  0  0  0  0  0  0  0  0  0  0  # atno 17394 bound_to 11000
  139.9946  135.0051  157.0054 LP  0  0  0  0  0  0  0  0  0  0  0  0  # atno 17395 bound_to 11000

$$$$
