AV-unprocessed.smi:243|AV-procd|sdf|1850|dock10
  -GOLD-   2262020473D 1   1.00000     0.00000
 Structure written by MMmdl.
 58 61  0  0  0  0  0  0  0  0  2 V2000
  151.1165  142.1401  157.6528 C   0  0  0  0  0  0  0  0  0  0  0  0
  149.6811  141.5958  157.6559 C   0  0  0  0  0  0  0  0  0  0  0  0
  148.9613  141.8709  156.3834 N   0  3  2  0  0  0  0  0  0  0  0  0
  147.5071  141.5853  156.4530 C   0  0  0  0  0  0  0  0  0  0  0  0
  147.2287  140.0743  156.4486 C   0  0  0  0  0  0  0  0  0  0  0  0
  147.8449  139.3868  155.2083 C   0  0  2  0  0  0  0  0  0  0  0  0
  147.5535  137.9453  155.1667 N   0  0  0  0  0  0  0  0  0  0  0  0
  148.6342  137.0429  155.5471 C   0  0  0  0  0  0  0  0  0  0  0  0
  146.7864  137.4885  154.1450 C   0  0  0  0  0  0  0  0  0  0  0  0
  146.6878  138.2642  153.0366 N   0  0  0  0  0  0  0  0  0  0  0  0
  145.9422  137.8683  152.0010 C   0  0  0  0  0  0  0  0  0  0  0  0
  145.2214  136.7533  151.8706 N   0  0  0  0  0  0  0  0  0  0  0  0
  145.3075  135.9732  152.9859 C   0  0  0  0  0  0  0  0  0  0  0  0
  146.0623  136.2608  154.1584 C   0  0  0  0  0  0  0  0  0  0  0  0
  145.9203  135.2254  155.0750 N   0  0  0  0  0  0  0  0  0  0  0  0
  145.1233  134.3796  154.4821 C   0  0  0  0  0  0  0  0  0  0  0  0
  144.6973  134.7545  153.2278 N   0  0  0  0  0  0  0  0  0  0  0  0
  143.8067  134.0106  152.3496 C   0  0  0  0  0  0  0  0  0  0  0  0
  144.4464  133.6380  150.9907 C   0  0  1  0  0  0  0  0  0  0  0  0
  144.6204  134.8163  150.2227 O   0  0  0  0  0  0  0  0  0  0  0  0
  145.8006  132.9572  151.1390 C   0  0  0  0  0  0  0  0  0  0  0  0
  145.8834  132.0995  149.8832 C   0  0  0  0  0  0  0  0  0  0  0  0
  144.5595  131.6130  149.7388 O   0  0  0  0  0  0  0  0  0  0  0  0
  143.6428  132.6231  150.1520 C   0  0  0  0  0  0  0  0  0  0  0  0
  149.3541  139.7334  155.0863 C   0  0  1  0  0  0  0  0  0  0  0  0
  149.9619  139.2061  153.7737 C   0  0  0  0  0  0  0  0  0  0  0  0
  149.5704  141.2628  155.1707 C   0  0  0  0  0  0  0  0  0  0  0  0
  151.5709  142.0219  158.6366 H   0  0  0  0  0  0  0  0  0  0  0  0
  151.1361  143.2020  157.4061 H   0  0  0  0  0  0  0  0  0  0  0  0
  151.7525  141.6147  156.9410 H   0  0  0  0  0  0  0  0  0  0  0  0
  149.6807  140.5304  157.8858 H   0  0  0  0  0  0  0  0  0  0  0  0
  149.1462  142.0817  158.4726 H   0  0  0  0  0  0  0  0  0  0  0  0
  147.0719  142.0518  157.3376 H   0  0  0  0  0  0  0  0  0  0  0  0
  147.0193  142.0487  155.5944 H   0  0  0  0  0  0  0  0  0  0  0  0
  147.6252  139.6370  157.3649 H   0  0  0  0  0  0  0  0  0  0  0  0
  146.1511  139.9118  156.4752 H   0  0  0  0  0  0  0  0  0  0  0  0
  147.3538  139.8160  154.3335 H   0  0  0  0  0  0  0  0  0  0  0  0
  148.3232  135.9996  155.4728 H   0  0  0  0  0  0  0  0  0  0  0  0
  148.9248  137.2271  156.5816 H   0  0  0  0  0  0  0  0  0  0  0  0
  149.5146  137.1843  154.9207 H   0  0  0  0  0  0  0  0  0  0  0  0
  145.9177  138.5423  151.1573 H   0  0  0  0  0  0  0  0  0  0  0  0
  144.8213  133.4534  154.9489 H   0  0  0  0  0  0  0  0  0  0  0  0
  143.4815  133.1099  152.8721 H   0  0  0  0  0  0  0  0  0  0  0  0
  142.9102  134.6111  152.1903 H   0  0  0  0  0  0  0  0  0  0  0  0
  145.1360  134.6043  149.4597 H   0  0  0  0  0  0  0  0  0  0  0  0
  146.6342  133.6533  151.2402 H   0  0  0  0  0  0  0  0  0  0  0  0
  145.8028  132.3066  152.0148 H   0  0  0  0  0  0  0  0  0  0  0  0
  146.1491  132.7028  149.0136 H   0  0  0  0  0  0  0  0  0  0  0  0
  146.6034  131.2858  149.9727 H   0  0  0  0  0  0  0  0  0  0  0  0
  142.8606  132.1378  150.7347 H   0  0  0  0  0  0  0  0  0  0  0  0
  143.1663  133.0843  149.2856 H   0  0  0  0  0  0  0  0  0  0  0  0
  149.8980  139.2750  155.9116 H   0  0  0  0  0  0  0  0  0  0  0  0
  149.4639  139.6384  152.9053 H   0  0  0  0  0  0  0  0  0  0  0  0
  149.8797  138.1228  153.6926 H   0  0  0  0  0  0  0  0  0  0  0  0
  151.0214  139.4543  153.7058 H   0  0  0  0  0  0  0  0  0  0  0  0
  149.1189  141.7392  154.2992 H   0  0  0  0  0  0  0  0  0  0  0  0
  150.6318  141.5017  155.1175 H   0  0  0  0  0  0  0  0  0  0  0  0
  149.0312  142.8708  156.2582 H   0  0  0  0  0  0  0  0  0  0  0  0
  1  2  1  0  0  0  0
  1 28  1  0  0  0  0
  1 29  1  0  0  0  0
  1 30  1  0  0  0  0
  2  3  1  0  0  0  0
  2 31  1  0  0  0  0
  2 32  1  0  0  0  0
  3 27  1  0  0  0  0
  3  4  1  0  0  0  0
  3 58  1  0  0  0  0
  4  5  1  0  0  0  0
  4 33  1  0  0  0  0
  4 34  1  0  0  0  0
  5  6  1  0  0  0  0
  5 35  1  0  0  0  0
  5 36  1  0  0  0  0
  6  7  1  0  0  0  0
  6 25  1  0  0  0  0
  6 37  1  0  0  0  0
  7  8  1  0  0  0  0
  7  9  1  0  0  0  0
  8 38  1  0  0  0  0
  8 39  1  0  0  0  0
  8 40  1  0  0  0  0
  9 14  1  0  0  0  0
  9 10  2  0  0  0  0
 10 11  1  0  0  0  0
 11 12  2  0  0  0  0
 11 41  1  0  0  0  0
 12 13  1  0  0  0  0
 13 17  1  0  0  0  0
 13 14  2  0  0  0  0
 14 15  1  0  0  0  0
 15 16  2  0  0  0  0
 16 17  1  0  0  0  0
 16 42  1  0  0  0  0
 17 18  1  0  0  0  0
 18 19  1  0  0  0  0
 18 43  1  0  0  0  0
 18 44  1  0  0  0  0
 19 24  1  0  0  0  0
 19 20  1  0  0  0  0
 19 21  1  0  0  0  0
 20 45  1  0  0  0  0
 21 22  1  0  0  0  0
 21 46  1  0  0  0  0
 21 47  1  0  0  0  0
 22 23  1  0  0  0  0
 22 48  1  0  0  0  0
 22 49  1  0  0  0  0
 23 24  1  0  0  0  0
 24 50  1  0  0  0  0
 24 51  1  0  0  0  0
 25 26  1  0  0  0  0
 25 27  1  0  0  0  0
 25 52  1  0  0  0  0
 26 53  1  0  0  0  0
 26 54  1  0  0  0  0
 26 55  1  0  0  0  0
 27 56  1  0  0  0  0
 27 57  1  0  0  0  0
M  CHG  1   3   1
M  END
> <s_m_source_file>
AV-unprocessed.smi

> <i_m_source_file_index>
243

> <i_lp_mmshare_version>
43012

> <i_f3d_flags>
0

> <s_epik_input>
W0NIM11bQ0gyXU4xW0NIMl1bQ0gyXVtDQEhdKFtDQEBIXShbQ0gzXSlbQ0gyXTEpTihbQ0gzXSljKG5bY0hdbjIpYyhjMjMpbltjSF1uM1tDSDJdW0NAQF00KFtPSF0pW0NIMl1bQ0gyXU9bQ0gyXTQ=

> <s_epik_cmdline>
J2VwaWtfcHl0aG9uJywgJy1waCcsICc3LjAnLCAnLXRuJywgJzgnLCAnLW1hJywgJzIwMCcsICctbWV0YWxfYmluZGluZycsICctaW1hZScsICc8aW5maWxlLm1hZT4nLCAnLW9tYWUnLCAnPG91dGZpbGUubWFlPic=

> <r_lp_tautomer_probability>
1

> <r_epik_Ionization_Penalty>
0.00253099

> <r_epik_Ionization_Penalty_Charging>
0.00137877

> <r_epik_Ionization_Penalty_Neutral>
0.00115221

> <r_epik_State_Penalty>
-0

> <r_epik_Charging_Adjusted_Penalty>
0.00137877

> <i_epik_Tot_Q>
1

> <i_epik_Tot_abs_Q>
1

> <r_epik_Metal_State_Penalty>
-0

> <b_epik_Metal_Only>
0

> <s_lp_Force_Field>
OPLS_2005

> <r_lp_Energy>
49.0604

> <b_lp_Chiralities_Consistent>
1

> <s_lp_Variant>
AV-unprocessed.smi:243-3

> <Gold.Version>
5.8.1

> <Gold.Id.Protein>
6NUR|6NUR_protein|mol2

> <Gold.PLP.Fitness>
42.1712

> <Gold.PLP.PLP>
-30.3101

> <Gold.PLP.part.hbond>
-3.0000

> <Gold.PLP.part.metal>
0.0000

> <Gold.PLP.part.buried>
-3.8494

> <Gold.PLP.part.nonpolar>
-27.3147

> <Gold.PLP.part.repulsive>
1.7794

> <Gold.PLP.ligand.clash>
0.0000

> <Gold.PLP.ligand.torsion>
1.6999

> <Gold.PLP.Chemscore.Hbond>
3.3385

> <Gold.PLP.Chemscore.CHOScore>
1.4742

> <Gold.PLP.Chemscore.Metal>
0.0000

> <Gold.Chemscore.Hbonds>
donor molecule, donor type, donor heavy atom, donor atom, acceptor molecule, acceptor atom, score
      L1  H     3    58       P1  8028  2.00
      L1  H    20    45       P1  7921  0.84
      P1  H 10785 10796       L1    23  0.24
      L1  C    11    41       P1 10171  0.77
      L1  C    16    42       P1 10957  0.49

> <Gold.PLP.Chemscore.Internal.Correction>
0.8226

> <Gold.Rescore>
     Score         DG    S(hbond)    S(metal)    S(lipo)     H(rot)  DE(clash)    DE(int)     intcor
     11.61     -14.88       1.98        0.00      79.13       2.53       1.67       1.60       ----

> <Gold.Chemscore.Fitness>
11.6077

> <Gold.Chemscore.DG>
-14.8844

> <Gold.Chemscore.ZeroCoef>
-5.4800

> <Gold.Chemscore.Hbond>
1.9832

> <Gold.Chemscore.Metal>
0.0000

> <Gold.Chemscore.Lipo>
79.1323

> <Gold.Chemscore.Internal_Hbond>
0.0000

> <Gold.Chemscore.DEClash>
1.6725

> <Gold.Chemscore.DEInternal>
1.6042

> <Gold.Chemscore.Rot>
2.5305

> <Gold.Chemscore.Internal.Correction>
   9.000000E+99

> <Gold.Chemscore.Hbonds>
donor molecule, donor type, donor heavy atom, donor atom, acceptor molecule, acceptor atom, score
      L1  H     3    58       P1  8028  0.99
      L1  H    20    45       P1  7921  0.82
      P1  H 10785 10796       L1    23  0.09

> <Gold.Chemscore.Hbond.Weighted>
-6.6239

> <Gold.Chemscore.Metal.Weighted>
-0.0000

> <Gold.Chemscore.Lipo.Weighted>
-9.2585

> <Gold.Chemscore.Internal_Hbond.Weighted>
0.0000

> <Gold.Chemscore.DEClash.Weighted>
1.6725

> <Gold.Chemscore.DEInternal.Weighted>
1.6042

> <Gold.Chemscore.Rot.Weighted>
6.4780

> <Gold.Chemscore.Internal.Correction.Weighted>
   9.000000E+99

> <Gold.Protein.RotatedTorsions>
[ 6907 6896 6895 6894 ] final  139.12 input  -60.11 | X-H torsion
[ 7974 7965 7964 7962 ] final  -52.51 input  175.53 | X-H torsion
[ 8008 7997 7996 7995 ] final   81.65 input   59.86 | X-H torsion
[ 10167 10162 10161 10158 ] final   51.98 input  -65.29 | X-H torsion
[ 10718 10713 10712 10709 ] final   12.91 input   66.30 | X-H torsion
[ 10763 10752 10751 10750 ] final -103.04 input  -60.55 | X-H torsion
[ 11005 11000 10999 10996 ] final    0.46 input  -57.11 | X-H torsion

> <Gold.Protein.ActiveResidues>
 VAL166  LYS551  ARG553  GLY616  TRP617  ASP618  TYR619  PRO620  LYS621  CYS622 
 ASP623  PHE694  ASN695  SER759  ASP760  ASP761  ALA762  ILE779  LEU786  VAL792 
 PHE793  MET794  SER795  GLU796  ALA797  LYS798  CYS799  TRP800  GLU811  SER814 

> <Gold.Protein.RotatedAtoms>
  152.2586  133.5278  159.5368 H   0  0  0  0  0  0  0  0  0  0  0  0  # atno 6907 bound_to 6896
  150.7117  134.0860  159.3924 H   0  0  0  0  0  0  0  0  0  0  0  0  # atno 6908 bound_to 6896
  151.8779  135.0465  160.0536 H   0  0  0  0  0  0  0  0  0  0  0  0  # atno 6909 bound_to 6896
  145.9072  140.7945  142.9713 H   0  0  0  0  0  0  0  0  0  0  0  0  # atno 7974 bound_to 7965
  155.9000  140.3434  155.6019 H   0  0  0  0  0  0  0  0  0  0  0  0  # atno 8008 bound_to 7997
  155.7511  140.0820  157.2220 H   0  0  0  0  0  0  0  0  0  0  0  0  # atno 8009 bound_to 7997
  154.4042  140.1553  156.2712 H   0  0  0  0  0  0  0  0  0  0  0  0  # atno 8010 bound_to 7997
  140.2562  144.3424  150.6332 H   0  0  0  0  0  0  0  0  0  0  0  0  # atno 10167 bound_to 10162
  157.0171  130.6140  149.5716 H   0  0  0  0  0  0  0  0  0  0  0  0  # atno 10718 bound_to 10713
  154.7778  135.4838  153.9781 H   0  0  0  0  0  0  0  0  0  0  0  0  # atno 10763 bound_to 10752
  153.1452  135.6780  153.8972 H   0  0  0  0  0  0  0  0  0  0  0  0  # atno 10764 bound_to 10752
  153.8634  135.3152  155.3417 H   0  0  0  0  0  0  0  0  0  0  0  0  # atno 10765 bound_to 10752
  140.6264  133.9615  155.8251 H   0  0  0  0  0  0  0  0  0  0  0  0  # atno 11005 bound_to 11000
  144.6740  140.1769  143.7409 LP  0  0  0  0  0  0  0  0  0  0  0  0  # atno 17320 bound_to 7965
  145.8717  139.2275  143.1657 LP  0  0  0  0  0  0  0  0  0  0  0  0  # atno 17321 bound_to 7965
  140.6001  143.2167  151.7088 LP  0  0  0  0  0  0  0  0  0  0  0  0  # atno 17342 bound_to 10162
  139.5030  144.3805  152.0380 LP  0  0  0  0  0  0  0  0  0  0  0  0  # atno 17343 bound_to 10162
  156.0115  130.5207  150.8004 LP  0  0  0  0  0  0  0  0  0  0  0  0  # atno 17370 bound_to 10713
  157.5278  131.0935  150.9995 LP  0  0  0  0  0  0  0  0  0  0  0  0  # atno 17371 bound_to 10713
  141.0707  134.0210  157.3531 LP  0  0  0  0  0  0  0  0  0  0  0  0  # atno 17394 bound_to 11000
  139.9133  135.0193  156.7781 LP  0  0  0  0  0  0  0  0  0  0  0  0  # atno 17395 bound_to 11000

$$$$
