AV-unprocessed.smi:2030|AV-procd|sdf|8224|dock7
  -GOLD-   2272010493D 1   1.00000     0.00000
 Structure written by MMmdl.
 35 36  0  0  0  0  0  0  0  0  1 V2000
  147.3887  136.2256  162.7155 C   0  0  0  0  0  0  0  0  0  0  0  0
  147.5965  136.1473  161.2709 N   0  0  0  0  0  0  0  0  0  0  0  0
  148.7114  136.8166  160.8101 N   0  0  0  0  0  0  0  0  0  0  0  0
  149.1598  136.6577  159.6042 C   0  0  0  0  0  0  0  0  0  0  0  0
  150.3771  137.3874  159.1633 C   0  0  0  0  0  0  0  0  0  0  0  0
  151.4942  136.8784  159.2580 O   0  0  0  0  0  0  0  0  0  0  0  0
  150.1737  138.6244  158.6765 N   0  0  0  0  0  0  0  0  0  0  0  0
  151.2229  139.5549  158.2729 C   0  0  0  0  0  0  0  0  0  0  0  0
  150.6539  140.8531  157.6666 C   0  0  0  0  0  0  0  0  0  0  0  0
  151.2647  142.1129  158.2579 C   0  0  0  0  0  0  0  0  0  0  0  0
  151.3029  143.3127  157.5149 C   0  0  0  0  0  0  0  0  0  0  0  0
  151.9010  144.4455  158.0992 C   0  0  0  0  0  0  0  0  0  0  0  0
  152.4328  144.3368  159.3986 C   0  0  0  0  0  0  0  0  0  0  0  0
  152.3428  143.0945  160.0580 C   0  0  0  0  0  0  0  0  0  0  0  0
  151.7738  142.0013  159.5055 N   0  0  0  0  0  0  0  0  0  0  0  0
  148.4719  135.7083  158.6443 C   0  0  0  0  0  0  0  0  0  0  0  0
  146.9756  135.5352  158.9738 C   0  0  0  0  0  0  0  0  0  0  0  0
  146.7156  135.4824  160.4823 C   0  0  0  0  0  0  0  0  0  0  0  0
  145.7325  134.8793  160.9122 O   0  0  0  0  0  0  0  0  0  0  0  0
  147.3718  135.2282  163.1564 H   0  0  0  0  0  0  0  0  0  0  0  0
  146.4405  136.7152  162.9407 H   0  0  0  0  0  0  0  0  0  0  0  0
  148.1780  136.7916  163.2131 H   0  0  0  0  0  0  0  0  0  0  0  0
  149.2229  138.9622  158.6298 H   0  0  0  0  0  0  0  0  0  0  0  0
  151.8790  139.7807  159.1147 H   0  0  0  0  0  0  0  0  0  0  0  0
  151.8387  139.0476  157.5299 H   0  0  0  0  0  0  0  0  0  0  0  0
  150.8148  140.8556  156.5879 H   0  0  0  0  0  0  0  0  0  0  0  0
  149.5727  140.8809  157.8079 H   0  0  0  0  0  0  0  0  0  0  0  0
  150.8920  143.3617  156.5169 H   0  0  0  0  0  0  0  0  0  0  0  0
  151.9523  145.3796  157.5597 H   0  0  0  0  0  0  0  0  0  0  0  0
  152.8987  145.1845  159.8787 H   0  0  0  0  0  0  0  0  0  0  0  0
  152.7400  142.9755  161.0552 H   0  0  0  0  0  0  0  0  0  0  0  0
  148.5615  136.0691  157.6188 H   0  0  0  0  0  0  0  0  0  0  0  0
  148.9738  134.7407  158.6748 H   0  0  0  0  0  0  0  0  0  0  0  0
  146.4115  136.3790  158.5744 H   0  0  0  0  0  0  0  0  0  0  0  0
  146.5823  134.6389  158.4930 H   0  0  0  0  0  0  0  0  0  0  0  0
  1  2  1  0  0  0  0
  1 20  1  0  0  0  0
  1 21  1  0  0  0  0
  1 22  1  0  0  0  0
  2 18  1  0  0  0  0
  2  3  1  0  0  0  0
  3  4  2  0  0  0  0
  4  5  1  0  0  0  0
  4 16  1  0  0  0  0
  5  6  2  0  0  0  0
  5  7  1  0  0  0  0
  7  8  1  0  0  0  0
  7 23  1  0  0  0  0
  8  9  1  0  0  0  0
  8 24  1  0  0  0  0
  8 25  1  0  0  0  0
  9 10  1  0  0  0  0
  9 26  1  0  0  0  0
  9 27  1  0  0  0  0
 10 15  1  0  0  0  0
 10 11  2  0  0  0  0
 11 12  1  0  0  0  0
 11 28  1  0  0  0  0
 12 13  2  0  0  0  0
 12 29  1  0  0  0  0
 13 14  1  0  0  0  0
 13 30  1  0  0  0  0
 14 15  2  0  0  0  0
 14 31  1  0  0  0  0
 16 17  1  0  0  0  0
 16 32  1  0  0  0  0
 16 33  1  0  0  0  0
 17 18  1  0  0  0  0
 17 34  1  0  0  0  0
 17 35  1  0  0  0  0
 18 19  2  0  0  0  0
M  END
> <s_m_source_file>
AV-unprocessed.smi

> <i_m_source_file_index>
2030

> <i_lp_mmshare_version>
43012

> <i_f3d_flags>
0

> <s_epik_input>
Tz1DMVtDSDJdW0NIMl1DKD1OTjFbQ0gzXSlDKD1PKVtOSF1bQ0gyXVtDSDJdYzJbY0hdW2NIXVtjSF1bY0hdbjI=

> <s_epik_cmdline>
J2VwaWtfcHl0aG9uJywgJy1waCcsICc3LjAnLCAnLXRuJywgJzgnLCAnLW1hJywgJzIwMCcsICctbWV0YWxfYmluZGluZycsICctaW1hZScsICc8aW5maWxlLm1hZT4nLCAnLW9tYWUnLCAnPG91dGZpbGUubWFlPic=

> <r_epik_Ionization_Penalty>
0.0175455

> <r_epik_Ionization_Penalty_Charging>
0

> <r_epik_Ionization_Penalty_Neutral>
0.0175455

> <r_epik_State_Penalty>
0.0138544

> <r_epik_Charging_Adjusted_Penalty>
0.0138544

> <i_epik_Tot_Q>
0

> <i_epik_Tot_abs_Q>
0

> <r_epik_Metal_State_Penalty>
0.0690211

> <b_epik_Metal_Only>
0

> <s_epik_Chemistry_Notes>
This compound has an imine and may undergo hydrolysis.

> <s_lp_Force_Field>
OPLS_2005

> <r_lp_Energy>
15.1803

> <b_lp_Chiralities_Consistent>
1

> <s_lp_Variant>
AV-unprocessed.smi:2030-1

> <Gold.Version>
5.8.1

> <Gold.Id.Protein>
6NUR|6NUR_protein|mol2

> <Gold.PLP.Fitness>
39.8741

> <Gold.PLP.PLP>
-38.2921

> <Gold.PLP.part.hbond>
-2.0000

> <Gold.PLP.part.metal>
0.0000

> <Gold.PLP.part.buried>
-5.5880

> <Gold.PLP.part.nonpolar>
-32.4744

> <Gold.PLP.part.repulsive>
0.1922

> <Gold.PLP.ligand.clash>
0.0000

> <Gold.PLP.ligand.torsion>
2.1999

> <Gold.PLP.Chemscore.Hbond>
1.9920

> <Gold.PLP.Chemscore.CHOScore>
0.0000

> <Gold.PLP.Chemscore.Metal>
0.0000

> <Gold.Chemscore.Hbonds>
donor molecule, donor type, donor heavy atom, donor atom, acceptor molecule, acceptor atom, score
      P1  H  6896  6909       L1     6  1.00
      P1  H  6931  6943       L1     3  0.96

> <Gold.PLP.Chemscore.Internal.Correction>
0.0059

> <Gold.Rescore>
     Score         DG    S(hbond)    S(metal)    S(lipo)     H(rot)  DE(clash)    DE(int)     intcor
     16.26     -18.42       1.87        0.00      89.00       1.45       0.03       2.14       ----

> <Gold.Chemscore.Fitness>
16.2568

> <Gold.Chemscore.DG>
-18.4204

> <Gold.Chemscore.ZeroCoef>
-5.4800

> <Gold.Chemscore.Hbond>
1.8666

> <Gold.Chemscore.Metal>
0.0000

> <Gold.Chemscore.Lipo>
89.0002

> <Gold.Chemscore.Internal_Hbond>
0.0000

> <Gold.Chemscore.DEClash>
0.0282

> <Gold.Chemscore.DEInternal>
2.1354

> <Gold.Chemscore.Rot>
1.4480

> <Gold.Chemscore.Internal.Correction>
   9.000000E+99

> <Gold.Chemscore.Hbonds>
donor molecule, donor type, donor heavy atom, donor atom, acceptor molecule, acceptor atom, score
      P1  H  6896  6909       L1     6  0.68
      P1  H  6931  6943       L1     3  0.68

> <Gold.Chemscore.Hbond.Weighted>
-6.2344

> <Gold.Chemscore.Metal.Weighted>
-0.0000

> <Gold.Chemscore.Lipo.Weighted>
-10.4130

> <Gold.Chemscore.Internal_Hbond.Weighted>
0.0000

> <Gold.Chemscore.DEClash.Weighted>
0.0282

> <Gold.Chemscore.DEInternal.Weighted>
2.1354

> <Gold.Chemscore.Rot.Weighted>
3.7070

> <Gold.Chemscore.Internal.Correction.Weighted>
   9.000000E+99

> <Gold.Protein.RotatedTorsions>
[ 6907 6896 6895 6894 ] final  102.89 input  -60.11 | X-H torsion
[ 7974 7965 7964 7962 ] final -109.53 input  175.53 | X-H torsion
[ 8008 7997 7996 7995 ] final   64.18 input   59.86 | X-H torsion
[ 10167 10162 10161 10158 ] final  -96.93 input  -65.29 | X-H torsion
[ 10718 10713 10712 10709 ] final -108.33 input   66.30 | X-H torsion
[ 10763 10752 10751 10750 ] final    4.07 input  -60.55 | X-H torsion
[ 11005 11000 10999 10996 ] final   70.93 input  -57.11 | X-H torsion

> <Gold.Protein.ActiveResidues>
 VAL166  LYS551  ARG553  GLY616  TRP617  ASP618  TYR619  PRO620  LYS621  CYS622 
 ASP623  PHE694  ASN695  SER759  ASP760  ASP761  ALA762  ILE779  LEU786  VAL792 
 PHE793  MET794  SER795  GLU796  ALA797  LYS798  CYS799  TRP800  GLU811  SER814 

> <Gold.Protein.RotatedAtoms>
  152.5311  133.9908  159.7849 H   0  0  0  0  0  0  0  0  0  0  0  0  # atno 6907 bound_to 6896
  151.0145  133.5926  159.2686 H   0  0  0  0  0  0  0  0  0  0  0  0  # atno 6908 bound_to 6896
  151.2989  135.0770  159.9284 H   0  0  0  0  0  0  0  0  0  0  0  0  # atno 6909 bound_to 6896
  145.1794  140.8964  143.3489 H   0  0  0  0  0  0  0  0  0  0  0  0  # atno 7974 bound_to 7965
  155.6419  140.3497  155.4718 H   0  0  0  0  0  0  0  0  0  0  0  0  # atno 8008 bound_to 7997
  155.9919  140.1195  157.0654 H   0  0  0  0  0  0  0  0  0  0  0  0  # atno 8009 bound_to 7997
  154.4221  140.1118  156.5563 H   0  0  0  0  0  0  0  0  0  0  0  0  # atno 8010 bound_to 7997
  140.2887  143.3235  152.0368 H   0  0  0  0  0  0  0  0  0  0  0  0  # atno 10167 bound_to 10162
  156.0480  130.5708  150.7947 H   0  0  0  0  0  0  0  0  0  0  0  0  # atno 10718 bound_to 10713
  153.2757  135.6936  153.7436 H   0  0  0  0  0  0  0  0  0  0  0  0  # atno 10763 bound_to 10752
  153.6442  135.3388  155.3081 H   0  0  0  0  0  0  0  0  0  0  0  0  # atno 10764 bound_to 10752
  154.8478  135.4439  154.1794 H   0  0  0  0  0  0  0  0  0  0  0  0  # atno 10765 bound_to 10752
  139.9571  134.7126  156.0729 H   0  0  0  0  0  0  0  0  0  0  0  0  # atno 11005 bound_to 11000
  145.0151  139.3474  143.6100 LP  0  0  0  0  0  0  0  0  0  0  0  0  # atno 17320 bound_to 7965
  146.3455  139.9430  142.8738 LP  0  0  0  0  0  0  0  0  0  0  0  0  # atno 17321 bound_to 7965
  139.4943  144.6541  151.6612 LP  0  0  0  0  0  0  0  0  0  0  0  0  # atno 17342 bound_to 10162
  140.5751  144.0042  150.6237 LP  0  0  0  0  0  0  0  0  0  0  0  0  # atno 17343 bound_to 10162
  157.5377  131.0939  150.9870 LP  0  0  0  0  0  0  0  0  0  0  0  0  # atno 17370 bound_to 10713
  157.0160  130.5655  149.5326 LP  0  0  0  0  0  0  0  0  0  0  0  0  # atno 17371 bound_to 10713
  141.1243  133.6603  156.3297 LP  0  0  0  0  0  0  0  0  0  0  0  0  # atno 17394 bound_to 11000
  140.5585  134.5958  157.5427 LP  0  0  0  0  0  0  0  0  0  0  0  0  # atno 17395 bound_to 11000

$$$$
