AV-unprocessed.smi:1010|AV-procd|sdf|4415|dock9
  -GOLD-   22720 2363D 1   1.00000     0.00000
 Structure written by MMmdl.
 55 57  0  0  0  0  0  0  0  0  2 V2000
  147.0449  137.7556  154.5016 C   0  0  0  0  0  0  0  0  0  0  0  0
  148.3439  138.2765  154.0054 N   0  3  0  0  0  0  0  0  0  0  0  0
  148.1305  139.5221  153.2224 C   0  0  0  0  0  0  0  0  0  0  0  0
  149.4825  138.3263  154.9986 C   0  0  0  0  0  0  0  0  0  0  0  0
  149.9411  136.8598  155.2930 C   0  0  0  0  0  0  0  0  0  0  0  0
  149.3766  135.8723  154.3739 N   0  0  0  0  0  0  0  0  0  0  0  0
  149.1179  134.5879  154.6536 C   0  0  0  0  0  0  0  0  0  0  0  0
  149.3337  134.0727  155.7500 O   0  0  0  0  0  0  0  0  0  0  0  0
  148.6304  133.9500  153.5779 N   0  0  0  0  0  0  0  0  0  0  0  0
  148.3664  132.5601  153.4314 C   0  0  0  0  0  0  0  0  0  0  0  0
  149.1398  131.5836  154.1050 C   0  0  0  0  0  0  0  0  0  0  0  0
  148.7955  130.2266  153.9813 C   0  0  0  0  0  0  0  0  0  0  0  0
  147.6773  129.8932  153.1990 C   0  0  0  0  0  0  0  0  0  0  0  0
  146.9229  130.8120  152.5635 N   0  0  0  0  0  0  0  0  0  0  0  0
  147.2497  132.1238  152.6625 C   0  0  0  0  0  0  0  0  0  0  0  0
  146.4330  133.0419  151.9632 N   0  0  0  0  0  0  0  0  0  0  0  0
  145.1051  133.3811  152.4638 C   0  0  0  0  0  0  0  0  0  0  0  0
  144.4011  134.0540  151.2891 C   0  0  0  0  0  0  0  0  0  0  0  0
  144.9481  133.2775  150.0953 C   0  0  0  0  0  0  0  0  0  0  0  0
  146.3867  132.9454  150.5068 C   0  0  0  0  0  0  0  0  0  0  0  0
  150.6724  139.1562  154.4408 C   0  0  0  0  0  0  0  0  0  0  0  0
  151.7714  139.4231  155.4894 C   0  0  0  0  0  0  0  0  0  0  0  0
  151.2218  140.0424  156.6448 O   0  0  0  0  0  0  0  0  0  0  0  0
  150.2414  139.2425  157.2922 C   0  0  0  0  0  0  0  0  0  0  0  0
  149.0597  139.0173  156.3333 C   0  0  0  0  0  0  0  0  0  0  0  0
  146.6858  138.3301  155.3560 H   0  0  0  0  0  0  0  0  0  0  0  0
  147.1147  136.7048  154.7817 H   0  0  0  0  0  0  0  0  0  0  0  0
  146.2843  137.8099  153.7218 H   0  0  0  0  0  0  0  0  0  0  0  0
  147.6722  140.3021  153.8312 H   0  0  0  0  0  0  0  0  0  0  0  0
  147.4624  139.3267  152.3831 H   0  0  0  0  0  0  0  0  0  0  0  0
  149.0532  139.9165  152.8009 H   0  0  0  0  0  0  0  0  0  0  0  0
  151.0273  136.7730  155.3069 H   0  0  0  0  0  0  0  0  0  0  0  0
  149.6392  136.5450  156.2896 H   0  0  0  0  0  0  0  0  0  0  0  0
  149.1602  136.2000  153.4433 H   0  0  0  0  0  0  0  0  0  0  0  0
  148.5766  134.4892  152.7259 H   0  0  0  0  0  0  0  0  0  0  0  0
  149.9755  131.8553  154.7319 H   0  0  0  0  0  0  0  0  0  0  0  0
  149.3669  129.4613  154.4852 H   0  0  0  0  0  0  0  0  0  0  0  0
  147.3758  128.8626  153.0849 H   0  0  0  0  0  0  0  0  0  0  0  0
  144.5561  132.4824  152.7474 H   0  0  0  0  0  0  0  0  0  0  0  0
  145.1631  134.0370  153.3329 H   0  0  0  0  0  0  0  0  0  0  0  0
  143.3142  134.0140  151.3653 H   0  0  0  0  0  0  0  0  0  0  0  0
  144.7003  135.1009  151.2220 H   0  0  0  0  0  0  0  0  0  0  0  0
  144.3797  132.3548  149.9698 H   0  0  0  0  0  0  0  0  0  0  0  0
  144.8919  133.8361  149.1607 H   0  0  0  0  0  0  0  0  0  0  0  0
  147.0720  133.6805  150.0842 H   0  0  0  0  0  0  0  0  0  0  0  0
  146.6850  131.9584  150.1503 H   0  0  0  0  0  0  0  0  0  0  0  0
  151.1279  138.6596  153.5838 H   0  0  0  0  0  0  0  0  0  0  0  0
  150.3096  140.1190  154.0793 H   0  0  0  0  0  0  0  0  0  0  0  0
  152.2934  138.5076  155.7682 H   0  0  0  0  0  0  0  0  0  0  0  0
  152.5258  140.0881  155.0689 H   0  0  0  0  0  0  0  0  0  0  0  0
  150.6755  138.3059  157.6420 H   0  0  0  0  0  0  0  0  0  0  0  0
  149.8985  139.7733  158.1804 H   0  0  0  0  0  0  0  0  0  0  0  0
  148.6555  140.0113  156.1451 H   0  0  0  0  0  0  0  0  0  0  0  0
  148.2685  138.4602  156.8361 H   0  0  0  0  0  0  0  0  0  0  0  0
  148.6411  137.5937  153.3224 H   0  0  0  0  0  0  0  0  0  0  0  0
  1  2  1  0  0  0  0
  1 26  1  0  0  0  0
  1 27  1  0  0  0  0
  1 28  1  0  0  0  0
  2  3  1  0  0  0  0
  2  4  1  0  0  0  0
  2 55  1  0  0  0  0
  3 29  1  0  0  0  0
  3 30  1  0  0  0  0
  3 31  1  0  0  0  0
  4 25  1  0  0  0  0
  4  5  1  0  0  0  0
  4 21  1  0  0  0  0
  5  6  1  0  0  0  0
  5 32  1  0  0  0  0
  5 33  1  0  0  0  0
  6  7  1  0  0  0  0
  6 34  1  0  0  0  0
  7  8  2  0  0  0  0
  7  9  1  0  0  0  0
  9 10  1  0  0  0  0
  9 35  1  0  0  0  0
 10 15  1  0  0  0  0
 10 11  2  0  0  0  0
 11 12  1  0  0  0  0
 11 36  1  0  0  0  0
 12 13  2  0  0  0  0
 12 37  1  0  0  0  0
 13 14  1  0  0  0  0
 13 38  1  0  0  0  0
 14 15  2  0  0  0  0
 15 16  1  0  0  0  0
 16 20  1  0  0  0  0
 16 17  1  0  0  0  0
 17 18  1  0  0  0  0
 17 39  1  0  0  0  0
 17 40  1  0  0  0  0
 18 19  1  0  0  0  0
 18 41  1  0  0  0  0
 18 42  1  0  0  0  0
 19 20  1  0  0  0  0
 19 43  1  0  0  0  0
 19 44  1  0  0  0  0
 20 45  1  0  0  0  0
 20 46  1  0  0  0  0
 21 22  1  0  0  0  0
 21 47  1  0  0  0  0
 21 48  1  0  0  0  0
 22 23  1  0  0  0  0
 22 49  1  0  0  0  0
 22 50  1  0  0  0  0
 23 24  1  0  0  0  0
 24 25  1  0  0  0  0
 24 51  1  0  0  0  0
 24 52  1  0  0  0  0
 25 53  1  0  0  0  0
 25 54  1  0  0  0  0
M  CHG  1   2   1
M  END
> <s_m_source_file>
AV-unprocessed.smi

> <i_m_source_file_index>
1010

> <i_lp_mmshare_version>
43012

> <i_f3d_flags>
0

> <s_epik_input>
W0NIMl0xW0NIMl1PW0NIMl1bQ0gyXUMxKE4oW0NIM10pW0NIM10pW0NIMl1bTkhdQyg9TylbTkhdYzJbY0hdW2NIXVtjSF1uYzJOM1tDSDJdW0NIMl1bQ0gyXVtDSDJdMw==

> <s_epik_cmdline>
J2VwaWtfcHl0aG9uJywgJy1waCcsICc3LjAnLCAnLXRuJywgJzgnLCAnLW1hJywgJzIwMCcsICctbWV0YWxfYmluZGluZycsICctaW1hZScsICc8aW5maWxlLm1hZT4nLCAnLW9tYWUnLCAnPG91dGZpbGUubWFlPic=

> <r_lp_tautomer_probability>
1

> <r_epik_Ionization_Penalty>
0.0977718

> <r_epik_Ionization_Penalty_Charging>
0.0128317

> <r_epik_Ionization_Penalty_Neutral>
0.0849401

> <r_epik_State_Penalty>
0.0837778

> <r_epik_Charging_Adjusted_Penalty>
0.0966095

> <i_epik_Tot_Q>
1

> <i_epik_Tot_abs_Q>
1

> <r_epik_Metal_State_Penalty>
0.0755623

> <b_epik_Metal_Only>
0

> <s_lp_Force_Field>
OPLS_2005

> <r_lp_Energy>
58.4563

> <b_lp_Chiralities_Consistent>
1

> <s_lp_Variant>
AV-unprocessed.smi:1010-1

> <Gold.Version>
5.8.1

> <Gold.Id.Protein>
6NUR|6NUR_protein|mol2

> <Gold.PLP.Fitness>
41.4344

> <Gold.PLP.PLP>
-33.7427

> <Gold.PLP.part.hbond>
-2.9937

> <Gold.PLP.part.metal>
0.0000

> <Gold.PLP.part.buried>
-0.5009

> <Gold.PLP.part.nonpolar>
-30.2122

> <Gold.PLP.part.repulsive>
0.3187

> <Gold.PLP.ligand.clash>
0.0018

> <Gold.PLP.ligand.torsion>
2.0766

> <Gold.PLP.Chemscore.Hbond>
3.8024

> <Gold.PLP.Chemscore.CHOScore>
0.0000

> <Gold.PLP.Chemscore.Metal>
0.0000

> <Gold.Chemscore.Hbonds>
donor molecule, donor type, donor heavy atom, donor atom, acceptor molecule, acceptor atom, score
      L1  H     2    55       P1  7948  2.00
      L1  H     6    34       P1  7948  1.00
      L1  H     9    35       P1  7948  0.71

> <Gold.PLP.Chemscore.Internal.Correction>
0.4395

> <Gold.Rescore>
     Score         DG    S(hbond)    S(metal)    S(lipo)     H(rot)  DE(clash)    DE(int)     intcor
     13.36     -17.87       1.98        0.00      84.56       1.60       0.38       4.14       ----

> <Gold.Chemscore.Fitness>
13.3593

> <Gold.Chemscore.DG>
-17.8734

> <Gold.Chemscore.ZeroCoef>
-5.4800

> <Gold.Chemscore.Hbond>
1.9774

> <Gold.Chemscore.Metal>
0.0000

> <Gold.Chemscore.Lipo>
84.5592

> <Gold.Chemscore.Internal_Hbond>
0.0000

> <Gold.Chemscore.DEClash>
0.3783

> <Gold.Chemscore.DEInternal>
4.1357

> <Gold.Chemscore.Rot>
1.6033

> <Gold.Chemscore.Internal.Correction>
   9.000000E+99

> <Gold.Chemscore.Hbonds>
donor molecule, donor type, donor heavy atom, donor atom, acceptor molecule, acceptor atom, score
      L1  H     2    55       P1  7948  0.95
      L1  H     6    34       P1  7948  0.90
      L1  H     9    35       P1  7948  0.08

> <Gold.Chemscore.Hbond.Weighted>
-6.6045

> <Gold.Chemscore.Metal.Weighted>
-0.0000

> <Gold.Chemscore.Lipo.Weighted>
-9.8934

> <Gold.Chemscore.Internal_Hbond.Weighted>
0.0000

> <Gold.Chemscore.DEClash.Weighted>
0.3783

> <Gold.Chemscore.DEInternal.Weighted>
4.1357

> <Gold.Chemscore.Rot.Weighted>
4.1046

> <Gold.Chemscore.Internal.Correction.Weighted>
   9.000000E+99

> <Gold.Protein.RotatedTorsions>
[ 6907 6896 6895 6894 ] final  -31.76 input  -60.11 | X-H torsion
[ 7974 7965 7964 7962 ] final  -68.35 input  175.53 | X-H torsion
[ 8008 7997 7996 7995 ] final -154.36 input   59.86 | X-H torsion
[ 10167 10162 10161 10158 ] final  -60.66 input  -65.29 | X-H torsion
[ 10718 10713 10712 10709 ] final  113.67 input   66.30 | X-H torsion
[ 10763 10752 10751 10750 ] final  134.25 input  -60.55 | X-H torsion
[ 11005 11000 10999 10996 ] final -100.96 input  -57.11 | X-H torsion

> <Gold.Protein.ActiveResidues>
 VAL166  LYS551  ARG553  GLY616  TRP617  ASP618  TYR619  PRO620  LYS621  CYS622 
 ASP623  PHE694  ASN695  SER759  ASP760  ASP761  ALA762  ILE779  LEU786  VAL792 
 PHE793  MET794  SER795  GLU796  ALA797  LYS798  CYS799  TRP800  GLU811  SER814 

> <Gold.Protein.RotatedAtoms>
  151.0878  134.9898  159.8387 H   0  0  0  0  0  0  0  0  0  0  0  0  # atno 6907 bound_to 6896
  152.5426  134.2102  159.8757 H   0  0  0  0  0  0  0  0  0  0  0  0  # atno 6908 bound_to 6896
  151.2137  133.4498  159.2632 H   0  0  0  0  0  0  0  0  0  0  0  0  # atno 6909 bound_to 6896
  145.7176  140.9052  143.0647 H   0  0  0  0  0  0  0  0  0  0  0  0  # atno 7974 bound_to 7965
  155.6851  140.0749  157.2470 H   0  0  0  0  0  0  0  0  0  0  0  0  # atno 8008 bound_to 7997
  154.4098  140.1675  156.2077 H   0  0  0  0  0  0  0  0  0  0  0  0  # atno 8009 bound_to 7997
  155.9501  140.3378  155.6403 H   0  0  0  0  0  0  0  0  0  0  0  0  # atno 8010 bound_to 7997
  140.6056  143.2373  151.5828 H   0  0  0  0  0  0  0  0  0  0  0  0  # atno 10167 bound_to 10162
  157.6325  131.0987  150.7074 H   0  0  0  0  0  0  0  0  0  0  0  0  # atno 10718 bound_to 10713
  153.8205  135.3117  155.3410 H   0  0  0  0  0  0  0  0  0  0  0  0  # atno 10763 bound_to 10752
  154.8014  135.4724  154.0289 H   0  0  0  0  0  0  0  0  0  0  0  0  # atno 10764 bound_to 10752
  153.1696  135.6875  153.8716 H   0  0  0  0  0  0  0  0  0  0  0  0  # atno 10765 bound_to 10752
  141.1250  133.8440  157.1170 H   0  0  0  0  0  0  0  0  0  0  0  0  # atno 11005 bound_to 11000
  144.6925  139.9158  143.7465 LP  0  0  0  0  0  0  0  0  0  0  0  0  # atno 17320 bound_to 7965
  146.0655  139.3647  143.0555 LP  0  0  0  0  0  0  0  0  0  0  0  0  # atno 17321 bound_to 7965
  139.5323  144.2881  152.1174 LP  0  0  0  0  0  0  0  0  0  0  0  0  # atno 17342 bound_to 10162
  140.2070  144.4601  150.6404 LP  0  0  0  0  0  0  0  0  0  0  0  0  # atno 17343 bound_to 10162
  156.7411  130.4739  149.5477 LP  0  0  0  0  0  0  0  0  0  0  0  0  # atno 17370 bound_to 10713
  156.1539  130.6328  151.0632 LP  0  0  0  0  0  0  0  0  0  0  0  0  # atno 17371 bound_to 10713
  140.0240  134.9933  157.0649 LP  0  0  0  0  0  0  0  0  0  0  0  0  # atno 17394 bound_to 11000
  140.4393  134.1698  155.7173 LP  0  0  0  0  0  0  0  0  0  0  0  0  # atno 17395 bound_to 11000

$$$$
