AV-unprocessed.smi:3134|AV-procd|sdf|11941|dock4
  -GOLD-   2272017333D 1   1.00000     0.00000
 Structure written by MMmdl.
 37 37  0  0  0  0  0  0  0  0  2 V2000
  143.6146  136.0899  152.4099 C   0  0  0  0  0  0  0  0  0  0  0  0
  144.6741  136.8588  151.6050 C   0  0  0  0  0  0  0  0  0  0  0  0
  145.5142  135.9180  150.7308 C   0  0  0  0  0  0  0  0  0  0  0  0
  145.5542  137.6041  152.5005 N   0  0  0  0  0  0  0  0  0  0  0  0
  146.5347  138.4356  152.1137 C   0  0  0  0  0  0  0  0  0  0  0  0
  146.7972  138.6706  150.9336 O   0  0  0  0  0  0  0  0  0  0  0  0
  147.3316  139.1179  153.2346 C   0  0  2  0  0  0  0  0  0  0  0  0
  147.1686  140.6427  153.1408 C   0  0  0  0  0  0  0  0  0  0  0  0
  148.7692  138.7644  153.1841 N   0  3  0  0  0  0  0  0  0  0  0  0
  149.5151  138.9922  154.4399 C   0  0  0  0  0  0  0  0  0  0  0  0
  149.7861  140.4879  154.6545 C   0  0  0  0  0  0  0  0  0  0  0  0
  150.4713  140.7343  155.9084 N   0  0  0  0  0  0  0  0  0  0  0  0
  151.7211  140.3053  156.3034 C   0  0  0  0  0  0  0  0  0  0  0  0
  151.9366  140.7880  157.5624 C   0  0  0  0  0  0  0  0  0  0  0  0
  150.7475  141.5126  157.8551 C   0  0  0  0  0  0  0  0  0  0  0  0
  149.8728  141.4798  156.8623 N   0  0  0  0  0  0  0  0  0  0  0  0
  142.9476  135.5364  151.7486 H   0  0  0  0  0  0  0  0  0  0  0  0
  142.9983  136.7663  153.0030 H   0  0  0  0  0  0  0  0  0  0  0  0
  144.0750  135.3744  153.0920 H   0  0  0  0  0  0  0  0  0  0  0  0
  144.1644  137.5601  150.9417 H   0  0  0  0  0  0  0  0  0  0  0  0
  144.8848  135.3695  150.0294 H   0  0  0  0  0  0  0  0  0  0  0  0
  146.0531  135.1874  151.3351 H   0  0  0  0  0  0  0  0  0  0  0  0
  146.2482  136.4738  150.1465 H   0  0  0  0  0  0  0  0  0  0  0  0
  145.4033  137.4766  153.4910 H   0  0  0  0  0  0  0  0  0  0  0  0
  146.9353  138.7945  154.1989 H   0  0  0  0  0  0  0  0  0  0  0  0
  146.1193  140.9348  153.1998 H   0  0  0  0  0  0  0  0  0  0  0  0
  147.5698  141.0324  152.2041 H   0  0  0  0  0  0  0  0  0  0  0  0
  147.6907  141.1424  153.9574 H   0  0  0  0  0  0  0  0  0  0  0  0
  148.8494  137.7916  152.9235 H   0  0  0  0  0  0  0  0  0  0  0  0
  148.9371  138.5925  155.2743 H   0  0  0  0  0  0  0  0  0  0  0  0
  150.4600  138.4481  154.4131 H   0  0  0  0  0  0  0  0  0  0  0  0
  150.3971  140.8836  153.8419 H   0  0  0  0  0  0  0  0  0  0  0  0
  148.8521  141.0518  154.6537 H   0  0  0  0  0  0  0  0  0  0  0  0
  152.3462  139.6987  155.6645 H   0  0  0  0  0  0  0  0  0  0  0  0
  152.8111  140.6464  158.1800 H   0  0  0  0  0  0  0  0  0  0  0  0
  150.4958  142.0581  158.7528 H   0  0  0  0  0  0  0  0  0  0  0  0
  149.2025  139.3278  152.4668 H   0  0  0  0  0  0  0  0  0  0  0  0
  1  2  1  0  0  0  0
  1 17  1  0  0  0  0
  1 18  1  0  0  0  0
  1 19  1  0  0  0  0
  2  3  1  0  0  0  0
  2  4  1  0  0  0  0
  2 20  1  0  0  0  0
  3 21  1  0  0  0  0
  3 22  1  0  0  0  0
  3 23  1  0  0  0  0
  4  5  1  0  0  0  0
  4 24  1  0  0  0  0
  5  6  2  0  0  0  0
  5  7  1  0  0  0  0
  7  8  1  0  0  0  0
  7  9  1  0  0  0  0
  7 25  1  0  0  0  0
  8 26  1  0  0  0  0
  8 27  1  0  0  0  0
  8 28  1  0  0  0  0
  9 10  1  0  0  0  0
  9 29  1  0  0  0  0
  9 37  1  0  0  0  0
 10 11  1  0  0  0  0
 10 30  1  0  0  0  0
 10 31  1  0  0  0  0
 11 12  1  0  0  0  0
 11 32  1  0  0  0  0
 11 33  1  0  0  0  0
 12 16  1  0  0  0  0
 12 13  1  0  0  0  0
 13 14  2  0  0  0  0
 13 34  1  0  0  0  0
 14 15  1  0  0  0  0
 14 35  1  0  0  0  0
 15 16  2  0  0  0  0
 15 36  1  0  0  0  0
M  CHG  1   9   1
M  END
> <s_m_source_file>
AV-unprocessed.smi

> <i_m_source_file_index>
3134

> <i_lp_mmshare_version>
43012

> <i_f3d_flags>
0

> <s_epik_input>
W0NIM11bQ0hdKFtDSDNdKVtOSF1DKD1PKVtDQEhdKFtDSDNdKVtOSF1bQ0gyXVtDSDJdbjFbY0hdW2NIXVtjSF1uMQ==

> <s_epik_cmdline>
J2VwaWtfcHl0aG9uJywgJy1waCcsICc3LjAnLCAnLXRuJywgJzgnLCAnLW1hJywgJzIwMCcsICctbWV0YWxfYmluZGluZycsICctaW1hZScsICc8aW5maWxlLm1hZT4nLCAnLW9tYWUnLCAnPG91dGZpbGUubWFlPic=

> <r_lp_tautomer_probability>
1

> <r_epik_Ionization_Penalty>
0.20398

> <r_epik_Ionization_Penalty_Charging>
0.203977

> <r_epik_Ionization_Penalty_Neutral>
3.23345e-06

> <r_epik_State_Penalty>
0.193898

> <r_epik_Charging_Adjusted_Penalty>
0.397875

> <i_epik_Tot_Q>
1

> <i_epik_Tot_abs_Q>
1

> <r_epik_Metal_State_Penalty>
0.194184

> <b_epik_Metal_Only>
0

> <s_lp_Force_Field>
OPLS_2005

> <r_lp_Energy>
4.26542

> <b_lp_Chiralities_Consistent>
1

> <s_lp_Variant>
AV-unprocessed.smi:3134-1

> <Gold.Version>
5.8.1

> <Gold.Id.Protein>
6NUR|6NUR_protein|mol2

> <Gold.PLP.Fitness>
42.7174

> <Gold.PLP.PLP>
-31.0973

> <Gold.PLP.part.hbond>
-3.0000

> <Gold.PLP.part.metal>
0.0000

> <Gold.PLP.part.buried>
0.0435

> <Gold.PLP.part.nonpolar>
-27.9871

> <Gold.PLP.part.repulsive>
0.6612

> <Gold.PLP.ligand.clash>
0.0000

> <Gold.PLP.ligand.torsion>
0.2331

> <Gold.PLP.Chemscore.Hbond>
4.0000

> <Gold.PLP.Chemscore.CHOScore>
0.0000

> <Gold.PLP.Chemscore.Metal>
0.0000

> <Gold.Chemscore.Hbonds>
donor molecule, donor type, donor heavy atom, donor atom, acceptor molecule, acceptor atom, score
      L1  H     9    29       P1  7948  2.00
      L1  H     9    37       P1  7957  1.00
      P1  H  7954  7966       L1     6  0.93

> <Gold.PLP.Chemscore.Internal.Correction>
0.0862

> <Gold.Rescore>
     Score         DG    S(hbond)    S(metal)    S(lipo)     H(rot)  DE(clash)    DE(int)     intcor
     16.21     -17.09       2.96        0.00      61.57       2.13       0.48       0.41       ----

> <Gold.Chemscore.Fitness>
16.2074

> <Gold.Chemscore.DG>
-17.0944

> <Gold.Chemscore.ZeroCoef>
-5.4800

> <Gold.Chemscore.Hbond>
2.9557

> <Gold.Chemscore.Metal>
0.0000

> <Gold.Chemscore.Lipo>
61.5705

> <Gold.Chemscore.Internal_Hbond>
0.0000

> <Gold.Chemscore.DEClash>
0.4814

> <Gold.Chemscore.DEInternal>
0.4056

> <Gold.Chemscore.Rot>
2.1334

> <Gold.Chemscore.Internal.Correction>
   9.000000E+99

> <Gold.Chemscore.Hbonds>
donor molecule, donor type, donor heavy atom, donor atom, acceptor molecule, acceptor atom, score
      L1  H     9    29       P1  7948  1.00
      L1  H     9    37       P1  7957  0.93
      P1  H  7954  7966       L1     6  0.91

> <Gold.Chemscore.Hbond.Weighted>
-9.8722

> <Gold.Chemscore.Metal.Weighted>
-0.0000

> <Gold.Chemscore.Lipo.Weighted>
-7.2037

> <Gold.Chemscore.Internal_Hbond.Weighted>
0.0000

> <Gold.Chemscore.DEClash.Weighted>
0.4814

> <Gold.Chemscore.DEInternal.Weighted>
0.4056

> <Gold.Chemscore.Rot.Weighted>
5.4615

> <Gold.Chemscore.Internal.Correction.Weighted>
   9.000000E+99

> <Gold.Protein.RotatedTorsions>
[ 6907 6896 6895 6894 ] final   62.13 input  -60.11 | X-H torsion
[ 7974 7965 7964 7962 ] final -155.43 input  175.53 | X-H torsion
[ 8008 7997 7996 7995 ] final   26.12 input   59.86 | X-H torsion
[ 10167 10162 10161 10158 ] final  129.81 input  -65.29 | X-H torsion
[ 10718 10713 10712 10709 ] final  -38.46 input   66.30 | X-H torsion
[ 10763 10752 10751 10750 ] final  -54.30 input  -60.55 | X-H torsion
[ 11005 11000 10999 10996 ] final  119.55 input  -57.11 | X-H torsion

> <Gold.Protein.ActiveResidues>
 VAL166  LYS551  ARG553  GLY616  TRP617  ASP618  TYR619  PRO620  LYS621  CYS622 
 ASP623  PHE694  ASN695  SER759  ASP760  ASP761  ALA762  ILE779  LEU786  VAL792 
 PHE793  MET794  SER795  GLU796  ALA797  LYS798  CYS799  TRP800  GLU811  SER814 

> <Gold.Protein.RotatedAtoms>
  152.4147  134.6063  160.0013 H   0  0  0  0  0  0  0  0  0  0  0  0  # atno 6907 bound_to 6896
  151.6230  133.3332  159.3100 H   0  0  0  0  0  0  0  0  0  0  0  0  # atno 6908 bound_to 6896
  150.8036  134.7185  159.6689 H   0  0  0  0  0  0  0  0  0  0  0  0  # atno 6909 bound_to 6896
  144.7640  140.4250  143.5955 H   0  0  0  0  0  0  0  0  0  0  0  0  # atno 7974 bound_to 7965
  155.0223  140.3149  155.4789 H   0  0  0  0  0  0  0  0  0  0  0  0  # atno 8008 bound_to 7997
  156.2890  140.2195  156.5284 H   0  0  0  0  0  0  0  0  0  0  0  0  # atno 8009 bound_to 7997
  154.7441  140.0471  157.0824 H   0  0  0  0  0  0  0  0  0  0  0  0  # atno 8010 bound_to 7997
  139.5460  144.6773  151.4472 H   0  0  0  0  0  0  0  0  0  0  0  0  # atno 10167 bound_to 10162
  156.3036  130.4243  149.8119 H   0  0  0  0  0  0  0  0  0  0  0  0  # atno 10718 bound_to 10713
  154.1726  135.6456  153.5013 H   0  0  0  0  0  0  0  0  0  0  0  0  # atno 10763 bound_to 10752
  153.0080  135.5387  154.6597 H   0  0  0  0  0  0  0  0  0  0  0  0  # atno 10764 bound_to 10752
  154.5940  135.2937  155.0578 H   0  0  0  0  0  0  0  0  0  0  0  0  # atno 10765 bound_to 10752
  139.9151  134.9629  156.7672 H   0  0  0  0  0  0  0  0  0  0  0  0  # atno 11005 bound_to 11000
  145.6528  139.1568  143.2852 LP  0  0  0  0  0  0  0  0  0  0  0  0  # atno 17320 bound_to 7965
  146.1731  140.6615  142.9224 LP  0  0  0  0  0  0  0  0  0  0  0  0  # atno 17321 bound_to 7965
  140.6708  143.8298  150.6997 LP  0  0  0  0  0  0  0  0  0  0  0  0  # atno 17342 bound_to 10162
  140.1721  143.4185  152.1993 LP  0  0  0  0  0  0  0  0  0  0  0  0  # atno 17343 bound_to 10162
  156.5488  130.8333  151.3293 LP  0  0  0  0  0  0  0  0  0  0  0  0  # atno 17370 bound_to 10713
  157.7374  130.9795  150.2191 LP  0  0  0  0  0  0  0  0  0  0  0  0  # atno 17371 bound_to 10713
  140.6650  133.9611  155.7825 LP  0  0  0  0  0  0  0  0  0  0  0  0  # atno 17394 bound_to 11000
  141.0617  134.0336  157.3649 LP  0  0  0  0  0  0  0  0  0  0  0  0  # atno 17395 bound_to 11000

$$$$
