AV-unprocessed.smi:3160|AV-procd|sdf|12051|dock3
  -GOLD-   2272017483D 1   1.00000     0.00000
 Structure written by MMmdl.
 40 41  0  0  0  0  0  0  0  0  2 V2000
  150.6477  135.9805  154.6685 C   0  0  0  0  0  0  0  0  0  0  0  0
  150.6954  137.4768  154.7836 C   0  0  0  0  0  0  0  0  0  0  0  0
  151.6655  138.3654  154.2399 C   0  0  0  0  0  0  0  0  0  0  0  0
  151.4172  139.6336  154.5236 N   0  0  0  0  0  0  0  0  0  0  0  0
  150.2843  139.6026  155.2576 N   0  0  0  0  0  0  0  0  0  0  0  0
  149.7051  140.8472  155.7467 C   0  0  2  0  0  0  0  0  0  0  0  0
  149.1284  141.6498  154.5660 C   0  0  0  0  0  0  0  0  0  0  0  0
  150.7182  141.6602  156.5952 C   0  0  2  0  0  0  0  0  0  0  0  0
  151.5286  140.7898  157.5731 C   0  0  0  0  0  0  0  0  0  0  0  0
  150.0161  142.7122  157.3657 N   0  3  0  0  0  0  0  0  0  0  0  0
  150.8044  143.3406  158.4480 C   0  0  0  0  0  0  0  0  0  0  0  0
  149.9588  144.2054  159.3866 C   0  0  0  0  0  0  0  0  0  0  0  0
  150.9614  145.1618  160.0430 C   0  0  0  0  0  0  0  0  0  0  0  0
  152.1746  145.2286  159.1008 C   0  0  0  0  0  0  0  0  0  0  0  0
  151.8414  144.3253  157.9084 C   0  0  0  0  0  0  0  0  0  0  0  0
  149.8265  138.3111  155.4273 C   0  0  0  0  0  0  0  0  0  0  0  0
  151.6222  135.5630  154.4140 H   0  0  0  0  0  0  0  0  0  0  0  0
  149.9482  135.6590  153.8968 H   0  0  0  0  0  0  0  0  0  0  0  0
  150.3340  135.5142  155.6027 H   0  0  0  0  0  0  0  0  0  0  0  0
  152.5381  138.1268  153.6499 H   0  0  0  0  0  0  0  0  0  0  0  0
  148.8682  140.5806  156.3956 H   0  0  0  0  0  0  0  0  0  0  0  0
  148.5737  142.5234  154.9078 H   0  0  0  0  0  0  0  0  0  0  0  0
  148.4383  141.0409  153.9807 H   0  0  0  0  0  0  0  0  0  0  0  0
  149.9149  141.9964  153.8952 H   0  0  0  0  0  0  0  0  0  0  0  0
  151.4354  142.1262  155.9177 H   0  0  0  0  0  0  0  0  0  0  0  0
  152.1525  140.0643  157.0508 H   0  0  0  0  0  0  0  0  0  0  0  0
  150.8740  140.2398  158.2501 H   0  0  0  0  0  0  0  0  0  0  0  0
  152.1953  141.4024  158.1809 H   0  0  0  0  0  0  0  0  0  0  0  0
  149.7353  143.4326  156.7158 H   0  0  0  0  0  0  0  0  0  0  0  0
  151.3214  142.5716  159.0246 H   0  0  0  0  0  0  0  0  0  0  0  0
  149.2327  144.7814  158.8106 H   0  0  0  0  0  0  0  0  0  0  0  0
  149.4054  143.6181  160.1198 H   0  0  0  0  0  0  0  0  0  0  0  0
  150.5204  146.1453  160.2101 H   0  0  0  0  0  0  0  0  0  0  0  0
  151.2709  144.7751  161.0146 H   0  0  0  0  0  0  0  0  0  0  0  0
  152.3880  146.2487  158.7799 H   0  0  0  0  0  0  0  0  0  0  0  0
  153.0615  144.8577  159.6164 H   0  0  0  0  0  0  0  0  0  0  0  0
  152.7225  143.8266  157.5031 H   0  0  0  0  0  0  0  0  0  0  0  0
  151.4056  144.9287  157.1104 H   0  0  0  0  0  0  0  0  0  0  0  0
  148.9282  138.0935  155.9859 H   0  0  0  0  0  0  0  0  0  0  0  0
  149.1839  142.3119  157.7746 H   0  0  0  0  0  0  0  0  0  0  0  0
  1  2  1  0  0  0  0
  1 17  1  0  0  0  0
  1 18  1  0  0  0  0
  1 19  1  0  0  0  0
  2 16  2  0  0  0  0
  2  3  1  0  0  0  0
  3  4  2  0  0  0  0
  3 20  1  0  0  0  0
  4  5  1  0  0  0  0
  5  6  1  0  0  0  0
  5 16  1  0  0  0  0
  6  7  1  0  0  0  0
  6  8  1  0  0  0  0
  6 21  1  0  0  0  0
  7 22  1  0  0  0  0
  7 23  1  0  0  0  0
  7 24  1  0  0  0  0
  8  9  1  0  0  0  0
  8 10  1  0  0  0  0
  8 25  1  0  0  0  0
  9 26  1  0  0  0  0
  9 27  1  0  0  0  0
  9 28  1  0  0  0  0
 10 11  1  0  0  0  0
 10 29  1  0  0  0  0
 10 40  1  0  0  0  0
 11 15  1  0  0  0  0
 11 12  1  0  0  0  0
 11 30  1  0  0  0  0
 12 13  1  0  0  0  0
 12 31  1  0  0  0  0
 12 32  1  0  0  0  0
 13 14  1  0  0  0  0
 13 33  1  0  0  0  0
 13 34  1  0  0  0  0
 14 15  1  0  0  0  0
 14 35  1  0  0  0  0
 14 36  1  0  0  0  0
 15 37  1  0  0  0  0
 15 38  1  0  0  0  0
 16 39  1  0  0  0  0
M  CHG  1  10   1
M  END
> <s_m_source_file>
AV-unprocessed.smi

> <i_m_source_file_index>
3160

> <i_lp_mmshare_version>
43012

> <i_f3d_flags>
0

> <s_epik_input>
W0NIM11jMVtjSF1ubihbY0hdMSlbQ0BIXShbQ0gzXSlbQ0BIXShbQ0gzXSlbTkhdW0NIXTJbQ0gyXVtDSDJdW0NIMl1bQ0gyXTI=

> <s_epik_cmdline>
J2VwaWtfcHl0aG9uJywgJy1waCcsICc3LjAnLCAnLXRuJywgJzgnLCAnLW1hJywgJzIwMCcsICctbWV0YWxfYmluZGluZycsICctaW1hZScsICc8aW5maWxlLm1hZT4nLCAnLW9tYWUnLCAnPG91dGZpbGUubWFlPic=

> <r_lp_tautomer_probability>
1

> <r_epik_Ionization_Penalty>
0.00117636

> <r_epik_Ionization_Penalty_Charging>
0.00115264

> <r_epik_Ionization_Penalty_Neutral>
2.37123e-05

> <r_epik_State_Penalty>
-0

> <r_epik_Charging_Adjusted_Penalty>
0.00115264

> <i_epik_Tot_Q>
1

> <i_epik_Tot_abs_Q>
1

> <r_epik_Metal_State_Penalty>
-0

> <b_epik_Metal_Only>
0

> <s_lp_Force_Field>
OPLS_2005

> <r_lp_Energy>
32.1139

> <b_lp_Chiralities_Consistent>
1

> <s_lp_Variant>
AV-unprocessed.smi:3160-1

> <Gold.Version>
5.8.1

> <Gold.Id.Protein>
6NUR|6NUR_protein|mol2

> <Gold.PLP.Fitness>
46.9697

> <Gold.PLP.PLP>
-38.9439

> <Gold.PLP.part.hbond>
-2.0000

> <Gold.PLP.part.metal>
0.0000

> <Gold.PLP.part.buried>
-4.8053

> <Gold.PLP.part.nonpolar>
-32.4285

> <Gold.PLP.part.repulsive>
0.0951

> <Gold.PLP.ligand.clash>
0.0000

> <Gold.PLP.ligand.torsion>
0.5302

> <Gold.PLP.Chemscore.Hbond>
3.0000

> <Gold.PLP.Chemscore.CHOScore>
0.0000

> <Gold.PLP.Chemscore.Metal>
0.0000

> <Gold.Chemscore.Hbonds>
donor molecule, donor type, donor heavy atom, donor atom, acceptor molecule, acceptor atom, score
      L1  H    10    29       P1  8028  2.00
      P1  H  7989  7998       L1     4  1.00

> <Gold.PLP.Chemscore.Internal.Correction>
0.0861

> <Gold.Rescore>
     Score         DG    S(hbond)    S(metal)    S(lipo)     H(rot)  DE(clash)    DE(int)     intcor
     20.82     -21.14       2.00        0.00     106.83       1.37       0.03       0.29       ----

> <Gold.Chemscore.Fitness>
20.8244

> <Gold.Chemscore.DG>
-21.1446

> <Gold.Chemscore.ZeroCoef>
-5.4800

> <Gold.Chemscore.Hbond>
1.9983

> <Gold.Chemscore.Metal>
0.0000

> <Gold.Chemscore.Lipo>
106.8348

> <Gold.Chemscore.Internal_Hbond>
0.0000

> <Gold.Chemscore.DEClash>
0.0343

> <Gold.Chemscore.DEInternal>
0.2860

> <Gold.Chemscore.Rot>
1.3709

> <Gold.Chemscore.Internal.Correction>
   9.000000E+99

> <Gold.Chemscore.Hbonds>
donor molecule, donor type, donor heavy atom, donor atom, acceptor molecule, acceptor atom, score
      L1  H    10    29       P1  8028  1.00
      P1  H  7989  7998       L1     4  0.95

> <Gold.Chemscore.Hbond.Weighted>
-6.6744

> <Gold.Chemscore.Metal.Weighted>
-0.0000

> <Gold.Chemscore.Lipo.Weighted>
-12.4997

> <Gold.Chemscore.Internal_Hbond.Weighted>
0.0000

> <Gold.Chemscore.DEClash.Weighted>
0.0343

> <Gold.Chemscore.DEInternal.Weighted>
0.2860

> <Gold.Chemscore.Rot.Weighted>
3.5095

> <Gold.Chemscore.Internal.Correction.Weighted>
   9.000000E+99

> <Gold.Protein.RotatedTorsions>
[ 6907 6896 6895 6894 ] final  -55.74 input  -60.11 | X-H torsion
[ 7974 7965 7964 7962 ] final  -31.24 input  175.53 | X-H torsion
[ 8008 7997 7996 7995 ] final   15.18 input   59.86 | X-H torsion
[ 10167 10162 10161 10158 ] final -161.93 input  -65.29 | X-H torsion
[ 10718 10713 10712 10709 ] final  -29.58 input   66.30 | X-H torsion
[ 10763 10752 10751 10750 ] final -125.40 input  -60.55 | X-H torsion
[ 11005 11000 10999 10996 ] final   13.42 input  -57.11 | X-H torsion

> <Gold.Protein.ActiveResidues>
 VAL166  LYS551  ARG553  GLY616  TRP617  ASP618  TYR619  PRO620  LYS621  CYS622 
 ASP623  PHE694  ASN695  SER759  ASP760  ASP761  ALA762  ILE779  LEU786  VAL792 
 PHE793  MET794  SER795  GLU796  ALA797  LYS798  CYS799  TRP800  GLU811  SER814 

> <Gold.Protein.RotatedAtoms>
  150.8226  134.7441  159.6785 H   0  0  0  0  0  0  0  0  0  0  0  0  # atno 6907 bound_to 6896
  152.4340  134.5719  159.9933 H   0  0  0  0  0  0  0  0  0  0  0  0  # atno 6908 bound_to 6896
  151.5899  133.3330  159.3061 H   0  0  0  0  0  0  0  0  0  0  0  0  # atno 6909 bound_to 6896
  146.1082  140.5642  142.8790 H   0  0  0  0  0  0  0  0  0  0  0  0  # atno 7974 bound_to 7965
  154.8590  140.2941  155.5550 H   0  0  0  0  0  0  0  0  0  0  0  0  # atno 8008 bound_to 7997
  156.3019  140.2481  156.3494 H   0  0  0  0  0  0  0  0  0  0  0  0  # atno 8009 bound_to 7997
  154.8938  140.0393  157.1843 H   0  0  0  0  0  0  0  0  0  0  0  0  # atno 8010 bound_to 7997
  139.6429  144.0225  152.2106 H   0  0  0  0  0  0  0  0  0  0  0  0  # atno 10167 bound_to 10162
  156.4106  130.4407  149.7255 H   0  0  0  0  0  0  0  0  0  0  0  0  # atno 10718 bound_to 10713
  154.8735  135.4031  154.3262 H   0  0  0  0  0  0  0  0  0  0  0  0  # atno 10763 bound_to 10752
  153.4082  135.7020  153.6383 H   0  0  0  0  0  0  0  0  0  0  0  0  # atno 10764 bound_to 10752
  153.5096  135.3710  155.2551 H   0  0  0  0  0  0  0  0  0  0  0  0  # atno 10765 bound_to 10752
  140.4809  134.0936  155.7751 H   0  0  0  0  0  0  0  0  0  0  0  0  # atno 11005 bound_to 11000
  144.7489  140.5140  143.6816 LP  0  0  0  0  0  0  0  0  0  0  0  0  # atno 17320 bound_to 7965
  145.5717  139.1484  143.3285 LP  0  0  0  0  0  0  0  0  0  0  0  0  # atno 17321 bound_to 7965
  139.9920  144.6355  150.7806 LP  0  0  0  0  0  0  0  0  0  0  0  0  # atno 17342 bound_to 10162
  140.7500  143.2948  151.3234 LP  0  0  0  0  0  0  0  0  0  0  0  0  # atno 17343 bound_to 10162
  156.4235  130.7780  151.2798 LP  0  0  0  0  0  0  0  0  0  0  0  0  # atno 17370 bound_to 10713
  157.7507  131.0175  150.3590 LP  0  0  0  0  0  0  0  0  0  0  0  0  # atno 17371 bound_to 10713
  141.1532  133.8931  157.2046 LP  0  0  0  0  0  0  0  0  0  0  0  0  # atno 17394 bound_to 11000
  139.9827  135.0092  156.9788 LP  0  0  0  0  0  0  0  0  0  0  0  0  # atno 17395 bound_to 11000

$$$$
