AV-unprocessed.smi:18|AV-procd|sdf|107|dock1
  -GOLD-   2262015263D 1   1.00000     0.00000
 Structure written by MMmdl.
 47 50  0  0  0  0  0  0  0  0  1 V2000
  143.8567  132.6257  148.1423 O   0  0  0  0  0  0  0  0  0  0  0  0
  143.4628  132.7315  149.4955 C   0  0  0  0  0  0  0  0  0  0  0  0
  144.5749  133.3523  150.3591 C   0  0  0  0  0  0  0  0  0  0  0  0
  145.8088  132.4273  150.4152 C   0  0  0  0  0  0  0  0  0  0  0  0
  146.7721  132.7834  151.4459 N   0  0  0  0  0  0  0  0  0  0  0  0
  147.5743  133.9033  151.4704 C   0  0  0  0  0  0  0  0  0  0  0  0
  148.3563  134.0076  152.5102 N   0  0  0  0  0  0  0  0  0  0  0  0
  148.0837  132.8647  153.2501 C   0  0  0  0  0  0  0  0  0  0  0  0
  148.5687  132.3495  154.4814 C   0  0  0  0  0  0  0  0  0  0  0  0
  149.5145  132.9969  155.2035 N   0  0  0  0  0  0  0  0  0  0  0  0
  148.9180  134.1382  155.8903 C   0  0  0  0  0  0  0  0  0  0  0  0
  149.9295  134.7776  156.8495 C   0  0  0  0  0  0  0  0  0  0  0  0
  151.0873  135.1462  156.1139 O   0  0  0  0  0  0  0  0  0  0  0  0
  151.7292  134.0149  155.5382 C   0  0  0  0  0  0  0  0  0  0  0  0
  150.7911  133.2982  154.5382 C   0  0  1  0  0  0  0  0  0  0  0  0
  151.4691  132.0238  153.9701 C   0  0  0  0  0  0  0  0  0  0  0  0
  151.8870  131.0001  155.0369 C   0  0  0  0  0  0  0  0  0  0  0  0
  150.8245  130.2945  155.4228 F   0  0  0  0  0  0  0  0  0  0  0  0
  152.8079  130.1672  154.5530 F   0  0  0  0  0  0  0  0  0  0  0  0
  148.0758  131.1556  154.9070 N   0  0  0  0  0  0  0  0  0  0  0  0
  147.1524  130.5170  154.1820 C   0  0  0  0  0  0  0  0  0  0  0  0
  146.5986  130.8851  153.0246 N   0  0  0  0  0  0  0  0  0  0  0  0
  147.0978  132.0781  152.5915 C   0  0  0  0  0  0  0  0  0  0  0  0
  144.8552  134.8316  150.0568 C   0  0  0  0  0  0  0  0  0  0  0  0
  144.0773  135.2669  151.1916 O   0  0  0  0  0  0  0  0  0  0  0  0
  144.1026  133.9185  151.7052 C   0  0  0  0  0  0  0  0  0  0  0  0
  144.5980  133.1943  147.9998 H   0  0  0  0  0  0  0  0  0  0  0  0
  142.5369  133.3033  149.5567 H   0  0  0  0  0  0  0  0  0  0  0  0
  143.2191  131.7292  149.8493 H   0  0  0  0  0  0  0  0  0  0  0  0
  145.5038  131.3943  150.5872 H   0  0  0  0  0  0  0  0  0  0  0  0
  146.3254  132.4199  149.4548 H   0  0  0  0  0  0  0  0  0  0  0  0
  147.5528  134.6517  150.6915 H   0  0  0  0  0  0  0  0  0  0  0  0
  148.5893  134.8741  155.1549 H   0  0  0  0  0  0  0  0  0  0  0  0
  148.0344  133.8252  156.4486 H   0  0  0  0  0  0  0  0  0  0  0  0
  149.5011  135.6681  157.3097 H   0  0  0  0  0  0  0  0  0  0  0  0
  150.1928  134.0933  157.6577 H   0  0  0  0  0  0  0  0  0  0  0  0
  152.6282  134.3696  155.0361 H   0  0  0  0  0  0  0  0  0  0  0  0
  152.0539  133.3345  156.3273 H   0  0  0  0  0  0  0  0  0  0  0  0
  150.5868  133.9857  153.7160 H   0  0  0  0  0  0  0  0  0  0  0  0
  150.7976  131.5457  153.2556 H   0  0  0  0  0  0  0  0  0  0  0  0
  152.3640  132.2838  153.4055 H   0  0  0  0  0  0  0  0  0  0  0  0
  152.2947  131.4667  155.9328 H   0  0  0  0  0  0  0  0  0  0  0  0
  146.8080  129.5771  154.5873 H   0  0  0  0  0  0  0  0  0  0  0  0
  145.9018  135.1204  150.1595 H   0  0  0  0  0  0  0  0  0  0  0  0
  144.4472  135.1779  149.1066 H   0  0  0  0  0  0  0  0  0  0  0  0
  143.1178  133.5686  152.0167 H   0  0  0  0  0  0  0  0  0  0  0  0
  144.8286  133.8068  152.5122 H   0  0  0  0  0  0  0  0  0  0  0  0
  1  2  1  0  0  0  0
  1 27  1  0  0  0  0
  2  3  1  0  0  0  0
  2 28  1  0  0  0  0
  2 29  1  0  0  0  0
  3 26  1  0  0  0  0
  3  4  1  0  0  0  0
  3 24  1  0  0  0  0
  4  5  1  0  0  0  0
  4 30  1  0  0  0  0
  4 31  1  0  0  0  0
  5 23  1  0  0  0  0
  5  6  1  0  0  0  0
  6  7  2  0  0  0  0
  6 32  1  0  0  0  0
  7  8  1  0  0  0  0
  8 23  2  0  0  0  0
  8  9  1  0  0  0  0
  9 10  1  0  0  0  0
  9 20  2  0  0  0  0
 10 15  1  0  0  0  0
 10 11  1  0  0  0  0
 11 12  1  0  0  0  0
 11 33  1  0  0  0  0
 11 34  1  0  0  0  0
 12 13  1  0  0  0  0
 12 35  1  0  0  0  0
 12 36  1  0  0  0  0
 13 14  1  0  0  0  0
 14 15  1  0  0  0  0
 14 37  1  0  0  0  0
 14 38  1  0  0  0  0
 15 16  1  0  0  0  0
 15 39  1  0  0  0  0
 16 17  1  0  0  0  0
 16 40  1  0  0  0  0
 16 41  1  0  0  0  0
 17 18  1  0  0  0  0
 17 19  1  0  0  0  0
 17 42  1  0  0  0  0
 20 21  1  0  0  0  0
 21 22  2  0  0  0  0
 21 43  1  0  0  0  0
 22 23  1  0  0  0  0
 24 25  1  0  0  0  0
 24 44  1  0  0  0  0
 24 45  1  0  0  0  0
 25 26  1  0  0  0  0
 26 46  1  0  0  0  0
 26 47  1  0  0  0  0
M  END
> <s_m_source_file>
AV-unprocessed.smi

> <i_m_source_file_index>
18

> <i_lp_mmshare_version>
43012

> <i_f3d_flags>
0

> <s_epik_input>
W0NIMl0xT1tDSDJdQzEoW0NIMl1bT0hdKVtDSDJdbihbY0hdbjIpYyhjMjMpbltjSF1uYzNONFtDSDJdW0NIMl1PW0NIMl1bQ0BIXTRbQ0gyXVtDSF0oRilG

> <s_epik_cmdline>
J2VwaWtfcHl0aG9uJywgJy1waCcsICc3LjAnLCAnLXRuJywgJzgnLCAnLW1hJywgJzIwMCcsICctbWV0YWxfYmluZGluZycsICctaW1hZScsICc8aW5maWxlLm1hZT4nLCAnLW9tYWUnLCAnPG91dGZpbGUubWFlPic=

> <r_lp_tautomer_probability>
1

> <r_epik_Ionization_Penalty>
6.63711e-05

> <r_epik_Ionization_Penalty_Charging>
0

> <r_epik_Ionization_Penalty_Neutral>
6.63711e-05

> <r_epik_State_Penalty>
-0

> <r_epik_Charging_Adjusted_Penalty>
0

> <i_epik_Tot_Q>
0

> <i_epik_Tot_abs_Q>
0

> <r_epik_Metal_State_Penalty>
-0

> <b_epik_Metal_Only>
0

> <s_lp_Force_Field>
OPLS_2005

> <r_lp_Energy>
38.6486

> <b_lp_Chiralities_Consistent>
1

> <s_lp_Variant>
AV-unprocessed.smi:18-1

> <Gold.Version>
5.8.1

> <Gold.Id.Protein>
6NUR|6NUR_protein|mol2

> <Gold.PLP.Fitness>
44.6056

> <Gold.PLP.PLP>
-36.8660

> <Gold.PLP.part.hbond>
-3.0000

> <Gold.PLP.part.metal>
0.0000

> <Gold.PLP.part.buried>
-3.2915

> <Gold.PLP.part.nonpolar>
-29.3916

> <Gold.PLP.part.repulsive>
0.5545

> <Gold.PLP.ligand.clash>
0.0000

> <Gold.PLP.ligand.torsion>
0.7514

> <Gold.PLP.Chemscore.Hbond>
2.0000

> <Gold.PLP.Chemscore.CHOScore>
0.8981

> <Gold.PLP.Chemscore.Metal>
0.0000

> <Gold.Chemscore.Hbonds>
donor molecule, donor type, donor heavy atom, donor atom, acceptor molecule, acceptor atom, score
      L1  H     1    27       P1  7921  0.49
      L1  C     6    32       P1  7948  0.15

> <Gold.PLP.Chemscore.Internal.Correction>
0.5480

> <Gold.Rescore>
     Score         DG    S(hbond)    S(metal)    S(lipo)     H(rot)  DE(clash)    DE(int)     intcor
     10.52     -11.53       1.79        0.00      65.53       2.96       0.03       0.98       ----

> <Gold.Chemscore.Fitness>
10.5217

> <Gold.Chemscore.DG>
-11.5307

> <Gold.Chemscore.ZeroCoef>
-5.4800

> <Gold.Chemscore.Hbond>
1.7881

> <Gold.Chemscore.Metal>
0.0000

> <Gold.Chemscore.Lipo>
65.5305

> <Gold.Chemscore.Internal_Hbond>
0.0000

> <Gold.Chemscore.DEClash>
0.0284

> <Gold.Chemscore.DEInternal>
0.9805

> <Gold.Chemscore.Rot>
2.9643

> <Gold.Chemscore.Internal.Correction>
   9.000000E+99

> <Gold.Chemscore.Hbonds>
donor molecule, donor type, donor heavy atom, donor atom, acceptor molecule, acceptor atom, score
      L1  H     1    27       P1  7921  0.37

> <Gold.Chemscore.Hbond.Weighted>
-5.9722

> <Gold.Chemscore.Metal.Weighted>
-0.0000

> <Gold.Chemscore.Lipo.Weighted>
-7.6671

> <Gold.Chemscore.Internal_Hbond.Weighted>
0.0000

> <Gold.Chemscore.DEClash.Weighted>
0.0284

> <Gold.Chemscore.DEInternal.Weighted>
0.9805

> <Gold.Chemscore.Rot.Weighted>
7.5886

> <Gold.Chemscore.Internal.Correction.Weighted>
   9.000000E+99

> <Gold.Protein.RotatedTorsions>
[ 6907 6896 6895 6894 ] final  125.19 input  -60.11 | X-H torsion
[ 7974 7965 7964 7962 ] final    7.41 input  175.53 | X-H torsion
[ 8008 7997 7996 7995 ] final  177.91 input   59.86 | X-H torsion
[ 10167 10162 10161 10158 ] final -123.43 input  -65.29 | X-H torsion
[ 10718 10713 10712 10709 ] final   98.67 input   66.30 | X-H torsion
[ 10763 10752 10751 10750 ] final  -14.21 input  -60.55 | X-H torsion
[ 11005 11000 10999 10996 ] final  138.03 input  -57.11 | X-H torsion

> <Gold.Protein.ActiveResidues>
 VAL166  LYS551  ARG553  GLY616  TRP617  ASP618  TYR619  PRO620  LYS621  CYS622 
 ASP623  PHE694  ASN695  SER759  ASP760  ASP761  ALA762  ILE779  LEU786  VAL792 
 PHE793  MET794  SER795  GLU796  ALA797  LYS798  CYS799  TRP800  GLU811  SER814 

> <Gold.Protein.RotatedAtoms>
  152.4013  133.6823  159.6318 H   0  0  0  0  0  0  0  0  0  0  0  0  # atno 6907 bound_to 6896
  150.7904  133.8785  159.3288 H   0  0  0  0  0  0  0  0  0  0  0  0  # atno 6908 bound_to 6896
  151.6550  135.0998  160.0219 H   0  0  0  0  0  0  0  0  0  0  0  0  # atno 6909 bound_to 6896
  146.2427  140.0087  142.8409 H   0  0  0  0  0  0  0  0  0  0  0  0  # atno 7974 bound_to 7965
  156.0605  140.1346  156.9947 H   0  0  0  0  0  0  0  0  0  0  0  0  # atno 8008 bound_to 7997
  154.4479  140.0992  156.6580 H   0  0  0  0  0  0  0  0  0  0  0  0  # atno 8009 bound_to 7997
  155.5385  140.3460  155.4444 H   0  0  0  0  0  0  0  0  0  0  0  0  # atno 8010 bound_to 7997
  140.0036  143.5515  152.2293 H   0  0  0  0  0  0  0  0  0  0  0  0  # atno 10167 bound_to 10162
  157.6891  131.0647  150.4831 H   0  0  0  0  0  0  0  0  0  0  0  0  # atno 10718 bound_to 10713
  153.5249  135.7015  153.5712 H   0  0  0  0  0  0  0  0  0  0  0  0  # atno 10763 bound_to 10752
  153.3745  135.3936  155.1812 H   0  0  0  0  0  0  0  0  0  0  0  0  # atno 10764 bound_to 10752
  154.8691  135.3820  154.4741 H   0  0  0  0  0  0  0  0  0  0  0  0  # atno 10765 bound_to 10752
  140.0155  134.9420  157.0367 H   0  0  0  0  0  0  0  0  0  0  0  0  # atno 11005 bound_to 11000
  145.1348  140.9538  143.4523 LP  0  0  0  0  0  0  0  0  0  0  0  0  # atno 17320 bound_to 7965
  145.0353  139.3306  143.6004 LP  0  0  0  0  0  0  0  0  0  0  0  0  # atno 17321 bound_to 7965
  139.6254  144.7636  151.2649 LP  0  0  0  0  0  0  0  0  0  0  0  0  # atno 17342 bound_to 10162
  140.7409  143.6573  150.8195 LP  0  0  0  0  0  0  0  0  0  0  0  0  # atno 17343 bound_to 10162
  156.5162  130.4151  149.6275 LP  0  0  0  0  0  0  0  0  0  0  0  0  # atno 17370 bound_to 10713
  156.3196  130.7273  151.2182 LP  0  0  0  0  0  0  0  0  0  0  0  0  # atno 17371 bound_to 10713
  140.4478  134.1613  155.7179 LP  0  0  0  0  0  0  0  0  0  0  0  0  # atno 17394 bound_to 11000
  141.1740  133.8552  157.1481 LP  0  0  0  0  0  0  0  0  0  0  0  0  # atno 17395 bound_to 11000

$$$$
