AV-unprocessed.smi:2710|AV-procd|sdf|10470|dock6
  -GOLD-   2272014513D 1   1.00000     0.00000
 Structure written by MMmdl.
 53 54  0  0  0  0  0  0  0  0  2 V2000
  143.9584  132.1083  150.5645 C   0  0  0  0  0  0  0  0  0  0  0  0
  143.7968  133.1179  151.7109 C   0  0  0  0  0  0  0  0  0  0  0  0
  143.2844  134.4425  151.2521 N   0  3  2  0  0  0  0  0  0  0  0  0
  144.0771  135.0501  150.1459 C   0  0  0  0  0  0  0  0  0  0  0  0
  145.4337  135.5945  150.6363 C   0  0  0  0  0  0  0  0  0  0  0  0
  145.2553  136.5878  151.7987 C   0  0  2  0  0  0  0  0  0  0  0  0
  146.5588  136.9604  152.3427 N   0  0  0  0  0  0  0  0  0  0  0  0
  146.7799  137.8976  153.2760 C   0  0  0  0  0  0  0  0  0  0  0  0
  145.8879  138.5674  153.7959 O   0  0  0  0  0  0  0  0  0  0  0  0
  148.0915  138.0157  153.5429 N   0  0  0  0  0  0  0  0  0  0  0  0
  148.7191  138.8848  154.4743 C   0  0  0  0  0  0  0  0  0  0  0  0
  150.0295  139.3367  154.2196 C   0  0  0  0  0  0  0  0  0  0  0  0
  150.6816  140.1554  155.0715 N   0  0  0  0  0  0  0  0  0  0  0  0
  150.0396  140.5277  156.1864 C   0  0  0  0  0  0  0  0  0  0  0  0
  150.8183  141.4394  157.1522 C   0  0  0  0  0  0  0  0  0  0  0  0
  149.9669  141.8552  158.3771 C   0  0  0  0  0  0  0  0  0  0  0  0
  151.2298  142.7398  156.4301 C   0  0  0  0  0  0  0  0  0  0  0  0
  152.0635  140.6977  157.6778 C   0  0  0  0  0  0  0  0  0  0  0  0
  148.8093  140.1323  156.5395 N   0  0  0  0  0  0  0  0  0  0  0  0
  148.1439  139.3185  155.6923 C   0  0  0  0  0  0  0  0  0  0  0  0
  144.3818  135.9735  152.9072 C   0  0  0  0  0  0  0  0  0  0  0  0
  143.0499  135.4458  152.3350 C   0  0  2  0  0  0  0  0  0  0  0  0
  142.0860  134.9584  153.4316 C   0  0  0  0  0  0  0  0  0  0  0  0
  144.2028  131.1217  150.9587 H   0  0  0  0  0  0  0  0  0  0  0  0
  144.7602  132.3832  149.8802 H   0  0  0  0  0  0  0  0  0  0  0  0
  143.0368  132.0123  149.9900 H   0  0  0  0  0  0  0  0  0  0  0  0
  143.0959  132.6715  152.4132 H   0  0  0  0  0  0  0  0  0  0  0  0
  144.7367  133.2274  152.2511 H   0  0  0  0  0  0  0  0  0  0  0  0
  144.2228  134.3457  149.3286 H   0  0  0  0  0  0  0  0  0  0  0  0
  143.4969  135.8697  149.7199 H   0  0  0  0  0  0  0  0  0  0  0  0
  146.0762  134.7687  150.9435 H   0  0  0  0  0  0  0  0  0  0  0  0
  145.9499  136.0845  149.8096 H   0  0  0  0  0  0  0  0  0  0  0  0
  144.7361  137.4678  151.4145 H   0  0  0  0  0  0  0  0  0  0  0  0
  147.3596  136.4676  151.9751 H   0  0  0  0  0  0  0  0  0  0  0  0
  148.7167  137.4618  152.9759 H   0  0  0  0  0  0  0  0  0  0  0  0
  150.5597  139.0450  153.3246 H   0  0  0  0  0  0  0  0  0  0  0  0
  150.5262  142.5122  159.0443 H   0  0  0  0  0  0  0  0  0  0  0  0
  149.6583  140.9912  158.9673 H   0  0  0  0  0  0  0  0  0  0  0  0
  149.0660  142.3925  158.0774 H   0  0  0  0  0  0  0  0  0  0  0  0
  150.3581  143.2713  156.0464 H   0  0  0  0  0  0  0  0  0  0  0  0
  151.8922  142.5430  155.5866 H   0  0  0  0  0  0  0  0  0  0  0  0
  151.7591  143.4169  157.1012 H   0  0  0  0  0  0  0  0  0  0  0  0
  152.6276  141.3147  158.3781 H   0  0  0  0  0  0  0  0  0  0  0  0
  152.7416  140.4274  156.8676 H   0  0  0  0  0  0  0  0  0  0  0  0
  151.7873  139.7787  158.1959 H   0  0  0  0  0  0  0  0  0  0  0  0
  147.1627  139.0079  156.0159 H   0  0  0  0  0  0  0  0  0  0  0  0
  144.9190  135.1677  153.4095 H   0  0  0  0  0  0  0  0  0  0  0  0
  144.1821  136.7277  153.6698 H   0  0  0  0  0  0  0  0  0  0  0  0
  142.5461  136.2877  151.8571 H   0  0  0  0  0  0  0  0  0  0  0  0
  141.7754  135.7910  154.0637 H   0  0  0  0  0  0  0  0  0  0  0  0
  142.5452  134.2197  154.0884 H   0  0  0  0  0  0  0  0  0  0  0  0
  141.1843  134.5216  153.0017 H   0  0  0  0  0  0  0  0  0  0  0  0
  142.3721  134.2497  150.8640 H   0  0  0  0  0  0  0  0  0  0  0  0
  1  2  1  0  0  0  0
  1 24  1  0  0  0  0
  1 25  1  0  0  0  0
  1 26  1  0  0  0  0
  2  3  1  0  0  0  0
  2 27  1  0  0  0  0
  2 28  1  0  0  0  0
  3 22  1  0  0  0  0
  3  4  1  0  0  0  0
  3 53  1  0  0  0  0
  4  5  1  0  0  0  0
  4 29  1  0  0  0  0
  4 30  1  0  0  0  0
  5  6  1  0  0  0  0
  5 31  1  0  0  0  0
  5 32  1  0  0  0  0
  6  7  1  0  0  0  0
  6 21  1  0  0  0  0
  6 33  1  0  0  0  0
  7  8  1  0  0  0  0
  7 34  1  0  0  0  0
  8  9  2  0  0  0  0
  8 10  1  0  0  0  0
 10 11  1  0  0  0  0
 10 35  1  0  0  0  0
 11 20  1  0  0  0  0
 11 12  2  0  0  0  0
 12 13  1  0  0  0  0
 12 36  1  0  0  0  0
 13 14  2  0  0  0  0
 14 15  1  0  0  0  0
 14 19  1  0  0  0  0
 15 16  1  0  0  0  0
 15 17  1  0  0  0  0
 15 18  1  0  0  0  0
 16 37  1  0  0  0  0
 16 38  1  0  0  0  0
 16 39  1  0  0  0  0
 17 40  1  0  0  0  0
 17 41  1  0  0  0  0
 17 42  1  0  0  0  0
 18 43  1  0  0  0  0
 18 44  1  0  0  0  0
 18 45  1  0  0  0  0
 19 20  2  0  0  0  0
 20 46  1  0  0  0  0
 21 22  1  0  0  0  0
 21 47  1  0  0  0  0
 21 48  1  0  0  0  0
 22 23  1  0  0  0  0
 22 49  1  0  0  0  0
 23 50  1  0  0  0  0
 23 51  1  0  0  0  0
 23 52  1  0  0  0  0
M  CHG  1   3   1
M  END
> <s_m_source_file>
AV-unprocessed.smi

> <i_m_source_file_index>
2710

> <i_lp_mmshare_version>
43012

> <i_f3d_flags>
0

> <s_epik_input>
W0NIM11bQ0gyXU4xW0NIMl1bQ0gyXVtDQEhdKFtDSDJdW0NASF0xW0NIM10pW05IXUMoPU8pW05IXWMyW2NIXW5jKEMoW0NIM10pKFtDSDNdKVtDSDNdKW5bY0hdMg==

> <s_epik_cmdline>
J2VwaWtfcHl0aG9uJywgJy1waCcsICc3LjAnLCAnLXRuJywgJzgnLCAnLW1hJywgJzIwMCcsICctbWV0YWxfYmluZGluZycsICctaW1hZScsICc8aW5maWxlLm1hZT4nLCAnLW9tYWUnLCAnPG91dGZpbGUubWFlPic=

> <r_lp_tautomer_probability>
1

> <r_epik_Ionization_Penalty>
0.00396003

> <r_epik_Ionization_Penalty_Charging>
0.0039379

> <r_epik_Ionization_Penalty_Neutral>
2.21316e-05

> <r_epik_State_Penalty>
0.00281651

> <r_epik_Charging_Adjusted_Penalty>
0.00675441

> <i_epik_Tot_Q>
1

> <i_epik_Tot_abs_Q>
1

> <r_epik_Metal_State_Penalty>
-0

> <b_epik_Metal_Only>
0

> <s_lp_Force_Field>
OPLS_2005

> <r_lp_Energy>
21.9784

> <b_lp_Chiralities_Consistent>
1

> <s_lp_Variant>
AV-unprocessed.smi:2710-7

> <Gold.Version>
5.8.1

> <Gold.Id.Protein>
6NUR|6NUR_protein|mol2

> <Gold.PLP.Fitness>
47.4104

> <Gold.PLP.PLP>
-32.5605

> <Gold.PLP.part.hbond>
-3.9390

> <Gold.PLP.part.metal>
0.0000

> <Gold.PLP.part.buried>
-1.2721

> <Gold.PLP.part.nonpolar>
-27.8793

> <Gold.PLP.part.repulsive>
0.3035

> <Gold.PLP.ligand.clash>
0.0000

> <Gold.PLP.ligand.torsion>
0.2737

> <Gold.PLP.Chemscore.Hbond>
4.4000

> <Gold.PLP.Chemscore.CHOScore>
0.7181

> <Gold.PLP.Chemscore.Metal>
0.0000

> <Gold.Chemscore.Hbonds>
donor molecule, donor type, donor heavy atom, donor atom, acceptor molecule, acceptor atom, score
      L1  H     3    53       P1 10186  2.00
      L1  H     7    34       P1  7948  1.00
      L1  H    10    35       P1  7948  1.00
      P1  H  7989  7998       L1    13  0.35
      L1  C    12    36       P1  7957  0.68

> <Gold.PLP.Chemscore.Internal.Correction>
0.0429

> <Gold.Rescore>
     Score         DG    S(hbond)    S(metal)    S(lipo)     H(rot)  DE(clash)    DE(int)     intcor
     18.66     -20.67       2.37        0.00      90.78       1.31       0.74       1.26       ----

> <Gold.Chemscore.Fitness>
18.6623

> <Gold.Chemscore.DG>
-20.6698

> <Gold.Chemscore.ZeroCoef>
-5.4800

> <Gold.Chemscore.Hbond>
2.3703

> <Gold.Chemscore.Metal>
0.0000

> <Gold.Chemscore.Lipo>
90.7848

> <Gold.Chemscore.Internal_Hbond>
0.0000

> <Gold.Chemscore.DEClash>
0.7436

> <Gold.Chemscore.DEInternal>
1.2639

> <Gold.Chemscore.Rot>
1.3081

> <Gold.Chemscore.Internal.Correction>
   9.000000E+99

> <Gold.Chemscore.Hbonds>
donor molecule, donor type, donor heavy atom, donor atom, acceptor molecule, acceptor atom, score
      L1  H     3    53       P1 10186  0.25
      L1  H     7    34       P1  7948  0.95
      L1  H    10    35       P1  7948  0.95
      P1  H  7989  7998       L1    13  0.01

> <Gold.Chemscore.Hbond.Weighted>
-7.9168

> <Gold.Chemscore.Metal.Weighted>
-0.0000

> <Gold.Chemscore.Lipo.Weighted>
-10.6218

> <Gold.Chemscore.Internal_Hbond.Weighted>
0.0000

> <Gold.Chemscore.DEClash.Weighted>
0.7436

> <Gold.Chemscore.DEInternal.Weighted>
1.2639

> <Gold.Chemscore.Rot.Weighted>
3.3488

> <Gold.Chemscore.Internal.Correction.Weighted>
   9.000000E+99

> <Gold.Protein.RotatedTorsions>
[ 6907 6896 6895 6894 ] final  -10.64 input  -60.11 | X-H torsion
[ 7974 7965 7964 7962 ] final  -51.63 input  175.53 | X-H torsion
[ 8008 7997 7996 7995 ] final  115.05 input   59.86 | X-H torsion
[ 10167 10162 10161 10158 ] final -176.70 input  -65.29 | X-H torsion
[ 10718 10713 10712 10709 ] final   38.09 input   66.30 | X-H torsion
[ 10763 10752 10751 10750 ] final   88.70 input  -60.55 | X-H torsion
[ 11005 11000 10999 10996 ] final   69.87 input  -57.11 | X-H torsion

> <Gold.Protein.ActiveResidues>
 VAL166  LYS551  ARG553  GLY616  TRP617  ASP618  TYR619  PRO620  LYS621  CYS622 
 ASP623  PHE694  ASN695  SER759  ASP760  ASP761  ALA762  ILE779  LEU786  VAL792 
 PHE793  MET794  SER795  GLU796  ALA797  LYS798  CYS799  TRP800  GLU811  SER814 

> <Gold.Protein.RotatedAtoms>
  151.3987  135.0967  159.9548 H   0  0  0  0  0  0  0  0  0  0  0  0  # atno 6907 bound_to 6896
  152.5057  133.8909  159.7404 H   0  0  0  0  0  0  0  0  0  0  0  0  # atno 6908 bound_to 6896
  150.9378  133.6635  159.2825 H   0  0  0  0  0  0  0  0  0  0  0  0  # atno 6909 bound_to 6896
  145.9168  140.7868  142.9667 H   0  0  0  0  0  0  0  0  0  0  0  0  # atno 7974 bound_to 7965
  156.2358  140.2946  156.0309 H   0  0  0  0  0  0  0  0  0  0  0  0  # atno 8008 bound_to 7997
  155.2096  140.0412  157.2948 H   0  0  0  0  0  0  0  0  0  0  0  0  # atno 8009 bound_to 7997
  154.6076  140.2443  155.7718 H   0  0  0  0  0  0  0  0  0  0  0  0  # atno 8010 bound_to 7997
  139.5516  144.2094  152.1087 H   0  0  0  0  0  0  0  0  0  0  0  0  # atno 10167 bound_to 10162
  157.3547  130.7617  149.7004 H   0  0  0  0  0  0  0  0  0  0  0  0  # atno 10718 bound_to 10713
  153.1795  135.4497  155.0010 H   0  0  0  0  0  0  0  0  0  0  0  0  # atno 10763 bound_to 10752
  154.8021  135.3259  154.7527 H   0  0  0  0  0  0  0  0  0  0  0  0  # atno 10764 bound_to 10752
  153.7993  135.6964  153.4913 H   0  0  0  0  0  0  0  0  0  0  0  0  # atno 10765 bound_to 10752
  139.9629  134.7030  156.0607 H   0  0  0  0  0  0  0  0  0  0  0  0  # atno 11005 bound_to 11000
  144.6748  140.1912  143.7396 LP  0  0  0  0  0  0  0  0  0  0  0  0  # atno 17320 bound_to 7965
  145.8601  139.2218  143.1721 LP  0  0  0  0  0  0  0  0  0  0  0  0  # atno 17321 bound_to 7965
  140.1590  144.5043  150.6643 LP  0  0  0  0  0  0  0  0  0  0  0  0  # atno 17342 bound_to 10162
  140.6780  143.2314  151.5457 LP  0  0  0  0  0  0  0  0  0  0  0  0  # atno 17343 bound_to 10162
  155.9727  130.4130  150.4063 LP  0  0  0  0  0  0  0  0  0  0  0  0  # atno 17370 bound_to 10713
  157.2131  131.0465  151.2588 LP  0  0  0  0  0  0  0  0  0  0  0  0  # atno 17371 bound_to 10713
  141.1307  133.6587  156.3458 LP  0  0  0  0  0  0  0  0  0  0  0  0  # atno 17394 bound_to 11000
  140.5460  134.6074  157.5394 LP  0  0  0  0  0  0  0  0  0  0  0  0  # atno 17395 bound_to 11000

$$$$
