AV-unprocessed.smi:2591|AV-procd|sdf|10156|dock8
  -GOLD-   2272014163D 1   1.00000     0.00000
 Structure written by MMmdl.
 35 36  0  0  0  0  0  0  0  0  2 V2000
  147.2779  141.9944  153.3934 C   0  0  0  0  0  0  0  0  0  0  0  0
  148.3266  140.9859  153.6563 N   0  3  2  0  0  0  0  0  0  0  0  0
  147.7717  139.6402  153.9242 C   0  0  0  0  0  0  0  0  0  0  0  0
  148.9097  138.6305  154.1430 C   0  0  0  0  0  0  0  0  0  0  0  0
  149.7420  139.0723  155.2086 O   0  0  0  0  0  0  0  0  0  0  0  0
  150.3571  140.3300  154.9380 C   0  0  2  0  0  0  0  0  0  0  0  0
  151.3083  140.6574  156.0978 C   0  0  0  0  0  0  0  0  0  0  0  0
  152.3665  140.0400  156.2254 O   0  0  0  0  0  0  0  0  0  0  0  0
  150.8858  141.6243  156.9348 N   0  0  0  0  0  0  0  0  0  0  0  0
  151.5402  142.1435  158.0833 C   0  0  0  0  0  0  0  0  0  0  0  0
  152.4367  141.2526  158.7145 C   0  0  0  0  0  0  0  0  0  0  0  0
  153.1399  141.6670  159.8665 C   0  0  0  0  0  0  0  0  0  0  0  0
  154.1239  140.7362  160.5585 C   0  0  0  0  0  0  0  0  0  0  0  0
  154.2878  141.0840  161.8353 F   0  0  0  0  0  0  0  0  0  0  0  0
  153.6927  139.4749  160.5202 F   0  0  0  0  0  0  0  0  0  0  0  0
  155.3015  140.8060  159.9392 F   0  0  0  0  0  0  0  0  0  0  0  0
  152.9229  142.9742  160.3468 C   0  0  0  0  0  0  0  0  0  0  0  0
  152.0115  143.7962  159.6599 C   0  0  0  0  0  0  0  0  0  0  0  0
  151.3383  143.3958  158.5616 N   0  0  0  0  0  0  0  0  0  0  0  0
  149.2560  141.3971  154.7333 C   0  0  0  0  0  0  0  0  0  0  0  0
  146.6435  142.1379  154.2691 H   0  0  0  0  0  0  0  0  0  0  0  0
  146.6465  141.6848  152.5601 H   0  0  0  0  0  0  0  0  0  0  0  0
  147.7250  142.9546  153.1338 H   0  0  0  0  0  0  0  0  0  0  0  0
  147.1299  139.6766  154.8060 H   0  0  0  0  0  0  0  0  0  0  0  0
  147.1495  139.3231  153.0863 H   0  0  0  0  0  0  0  0  0  0  0  0
  148.5005  137.6529  154.3979 H   0  0  0  0  0  0  0  0  0  0  0  0
  149.4989  138.5021  153.2337 H   0  0  0  0  0  0  0  0  0  0  0  0
  150.9604  140.2471  154.0318 H   0  0  0  0  0  0  0  0  0  0  0  0
  149.9898  142.0379  156.7227 H   0  0  0  0  0  0  0  0  0  0  0  0
  152.5886  140.2599  158.3159 H   0  0  0  0  0  0  0  0  0  0  0  0
  153.4420  143.3437  161.2188 H   0  0  0  0  0  0  0  0  0  0  0  0
  151.8189  144.8032  159.9993 H   0  0  0  0  0  0  0  0  0  0  0  0
  149.7056  142.3562  154.4716 H   0  0  0  0  0  0  0  0  0  0  0  0
  148.6918  141.5463  155.6563 H   0  0  0  0  0  0  0  0  0  0  0  0
  148.8749  140.9110  152.8112 H   0  0  0  0  0  0  0  0  0  0  0  0
  1  2  1  0  0  0  0
  1 21  1  0  0  0  0
  1 22  1  0  0  0  0
  1 23  1  0  0  0  0
  2 20  1  0  0  0  0
  2  3  1  0  0  0  0
  2 35  1  0  0  0  0
  3  4  1  0  0  0  0
  3 24  1  0  0  0  0
  3 25  1  0  0  0  0
  4  5  1  0  0  0  0
  4 26  1  0  0  0  0
  4 27  1  0  0  0  0
  5  6  1  0  0  0  0
  6  7  1  0  0  0  0
  6 20  1  0  0  0  0
  6 28  1  0  0  0  0
  7  8  2  0  0  0  0
  7  9  1  0  0  0  0
  9 10  1  0  0  0  0
  9 29  1  0  0  0  0
 10 19  1  0  0  0  0
 10 11  2  0  0  0  0
 11 12  1  0  0  0  0
 11 30  1  0  0  0  0
 12 13  1  0  0  0  0
 12 17  2  0  0  0  0
 13 14  1  0  0  0  0
 13 15  1  0  0  0  0
 13 16  1  0  0  0  0
 17 18  1  0  0  0  0
 17 31  1  0  0  0  0
 18 19  2  0  0  0  0
 18 32  1  0  0  0  0
 20 33  1  0  0  0  0
 20 34  1  0  0  0  0
M  CHG  1   2   1
M  END
> <s_m_source_file>
AV-unprocessed.smi

> <i_m_source_file_index>
2591

> <i_lp_mmshare_version>
43012

> <i_f3d_flags>
0

> <s_epik_input>
W0NIM11OMVtDSDJdW0NIMl1PW0NASF0oW0NIMl0xKUMoPU8pW05IXWMyW2NIXWMoQyhGKShGKUYpW2NIXVtjSF1uMg==

> <s_epik_cmdline>
J2VwaWtfcHl0aG9uJywgJy1waCcsICc3LjAnLCAnLXRuJywgJzgnLCAnLW1hJywgJzIwMCcsICctbWV0YWxfYmluZGluZycsICctaW1hZScsICc8aW5maWxlLm1hZT4nLCAnLW9tYWUnLCAnPG91dGZpbGUubWFlPic=

> <r_epik_Ionization_Penalty>
0.314028

> <r_epik_Ionization_Penalty_Charging>
0.314023

> <r_epik_Ionization_Penalty_Neutral>
5.2303e-06

> <r_epik_State_Penalty>
0.308208

> <r_epik_Charging_Adjusted_Penalty>
0.62223

> <i_epik_Tot_Q>
1

> <i_epik_Tot_abs_Q>
1

> <r_epik_Metal_State_Penalty>
0.308209

> <b_epik_Metal_Only>
0

> <s_lp_Force_Field>
OPLS_2005

> <r_lp_Energy>
17.9232

> <b_lp_Chiralities_Consistent>
1

> <s_lp_Variant>
AV-unprocessed.smi:2591-4

> <Gold.Version>
5.8.1

> <Gold.Id.Protein>
6NUR|6NUR_protein|mol2

> <Gold.PLP.Fitness>
43.8406

> <Gold.PLP.PLP>
-39.8176

> <Gold.PLP.part.hbond>
-2.0000

> <Gold.PLP.part.metal>
0.0000

> <Gold.PLP.part.buried>
-2.7062

> <Gold.PLP.part.nonpolar>
-35.2297

> <Gold.PLP.part.repulsive>
0.3782

> <Gold.PLP.ligand.clash>
0.0510

> <Gold.PLP.ligand.torsion>
1.4674

> <Gold.PLP.Chemscore.Hbond>
2.0000

> <Gold.PLP.Chemscore.CHOScore>
0.0000

> <Gold.PLP.Chemscore.Metal>
0.0000

> <Gold.Chemscore.Hbonds>
donor molecule, donor type, donor heavy atom, donor atom, acceptor molecule, acceptor atom, score
      L1  H     2    35       P1  7957  1.00
      P1  H  7997  8009       L1     8  1.00

> <Gold.PLP.Chemscore.Internal.Correction>
1.0088

> <Gold.Rescore>
     Score         DG    S(hbond)    S(metal)    S(lipo)     H(rot)  DE(clash)    DE(int)     intcor
     16.47     -19.82       1.99        0.00      87.57       1.00       0.77       2.58       ----

> <Gold.Chemscore.Fitness>
16.4746

> <Gold.Chemscore.DG>
-19.8228

> <Gold.Chemscore.ZeroCoef>
-5.4800

> <Gold.Chemscore.Hbond>
1.9932

> <Gold.Chemscore.Metal>
0.0000

> <Gold.Chemscore.Lipo>
87.5689

> <Gold.Chemscore.Internal_Hbond>
0.0000

> <Gold.Chemscore.DEClash>
0.7710

> <Gold.Chemscore.DEInternal>
2.5772

> <Gold.Chemscore.Rot>
1.0000

> <Gold.Chemscore.Internal.Correction>
   9.000000E+99

> <Gold.Chemscore.Hbonds>
donor molecule, donor type, donor heavy atom, donor atom, acceptor molecule, acceptor atom, score
      L1  H     2    35       P1  7957  0.95
      P1  H  7997  8009       L1     8  0.97

> <Gold.Chemscore.Hbond.Weighted>
-6.6572

> <Gold.Chemscore.Metal.Weighted>
-0.0000

> <Gold.Chemscore.Lipo.Weighted>
-10.2456

> <Gold.Chemscore.Internal_Hbond.Weighted>
0.0000

> <Gold.Chemscore.DEClash.Weighted>
0.7710

> <Gold.Chemscore.DEInternal.Weighted>
2.5772

> <Gold.Chemscore.Rot.Weighted>
2.5600

> <Gold.Chemscore.Internal.Correction.Weighted>
   9.000000E+99

> <Gold.Protein.RotatedTorsions>
[ 6907 6896 6895 6894 ] final -139.40 input  -60.11 | X-H torsion
[ 7974 7965 7964 7962 ] final  111.98 input  175.53 | X-H torsion
[ 8008 7997 7996 7995 ] final -168.01 input   59.86 | X-H torsion
[ 10167 10162 10161 10158 ] final  -96.31 input  -65.29 | X-H torsion
[ 10718 10713 10712 10709 ] final  -95.40 input   66.30 | X-H torsion
[ 10763 10752 10751 10750 ] final -150.94 input  -60.55 | X-H torsion
[ 11005 11000 10999 10996 ] final  -93.18 input  -57.11 | X-H torsion

> <Gold.Protein.ActiveResidues>
 VAL166  LYS551  ARG553  GLY616  TRP617  ASP618  TYR619  PRO620  LYS621  CYS622 
 ASP623  PHE694  ASN695  SER759  ASP760  ASP761  ALA762  ILE779  LEU786  VAL792 
 PHE793  MET794  SER795  GLU796  ALA797  LYS798  CYS799  TRP800  GLU811  SER814 

> <Gold.Protein.RotatedAtoms>
  151.0473  133.5654  159.2645 H   0  0  0  0  0  0  0  0  0  0  0  0  # atno 6907 bound_to 6896
  151.2678  135.0674  159.9132 H   0  0  0  0  0  0  0  0  0  0  0  0  # atno 6908 bound_to 6896
  152.5375  134.0208  159.8035 H   0  0  0  0  0  0  0  0  0  0  0  0  # atno 6909 bound_to 6896
  145.2354  139.2801  143.4146 H   0  0  0  0  0  0  0  0  0  0  0  0  # atno 7974 bound_to 7965
  155.8855  140.1016  157.1455 H   0  0  0  0  0  0  0  0  0  0  0  0  # atno 8008 bound_to 7997
  154.4009  140.1321  156.4313 H   0  0  0  0  0  0  0  0  0  0  0  0  # atno 8009 bound_to 7997
  155.7594  140.3463  155.5192 H   0  0  0  0  0  0  0  0  0  0  0  0  # atno 8010 bound_to 7997
  140.2951  143.3197  152.0306 H   0  0  0  0  0  0  0  0  0  0  0  0  # atno 10167 bound_to 10162
  156.0043  130.5107  150.6070 H   0  0  0  0  0  0  0  0  0  0  0  0  # atno 10718 bound_to 10713
  154.8088  135.3272  154.7360 H   0  0  0  0  0  0  0  0  0  0  0  0  # atno 10763 bound_to 10752
  153.8013  135.6903  153.4859 H   0  0  0  0  0  0  0  0  0  0  0  0  # atno 10764 bound_to 10752
  153.1852  135.4571  155.0025 H   0  0  0  0  0  0  0  0  0  0  0  0  # atno 10765 bound_to 10752
  141.1504  133.7870  157.0123 H   0  0  0  0  0  0  0  0  0  0  0  0  # atno 11005 bound_to 11000
  146.3342  140.2701  142.8605 LP  0  0  0  0  0  0  0  0  0  0  0  0  # atno 17320 bound_to 7965
  144.9638  140.8301  143.5497 LP  0  0  0  0  0  0  0  0  0  0  0  0  # atno 17321 bound_to 7965
  139.4928  144.6496  151.6703 LP  0  0  0  0  0  0  0  0  0  0  0  0  # atno 17342 bound_to 10162
  140.5699  144.0127  150.6211 LP  0  0  0  0  0  0  0  0  0  0  0  0  # atno 17343 bound_to 10162
  157.3909  131.0795  151.1394 LP  0  0  0  0  0  0  0  0  0  0  0  0  # atno 17370 bound_to 10713
  157.2086  130.6427  149.5765 LP  0  0  0  0  0  0  0  0  0  0  0  0  # atno 17371 bound_to 10713
  140.0869  134.9615  157.1715 LP  0  0  0  0  0  0  0  0  0  0  0  0  # atno 17394 bound_to 11000
  140.3499  134.2611  155.7200 LP  0  0  0  0  0  0  0  0  0  0  0  0  # atno 17395 bound_to 11000

$$$$
