AV-unprocessed.smi:2001|AV-procd|sdf|8105|dock6
  -GOLD-   2272010333D 1   1.00000     0.00000
 Structure written by MMmdl.
 51 52  0  0  0  0  0  0  0  0  2 V2000
  151.2391  137.5751  159.0654 C   0  0  0  0  0  0  0  0  0  0  0  0
  152.4066  138.2513  158.6328 O   0  0  0  0  0  0  0  0  0  0  0  0
  153.3567  137.3761  158.0494 C   0  0  0  0  0  0  0  0  0  0  0  0
  153.5563  137.7702  156.5782 C   0  0  0  0  0  0  0  0  0  0  0  0
  152.2872  137.7753  155.8437 N   0  0  0  0  0  0  0  0  0  0  0  0
  151.6458  136.5479  155.8159 N   0  0  0  0  0  0  0  0  0  0  0  0
  150.5174  136.4180  155.1958 C   0  0  0  0  0  0  0  0  0  0  0  0
  149.8001  135.1137  155.1360 C   0  0  0  0  0  0  0  0  0  0  0  0
  150.1152  134.1624  155.8527 O   0  0  0  0  0  0  0  0  0  0  0  0
  148.7886  135.0516  154.2525 N   0  0  0  0  0  0  0  0  0  0  0  0
  147.9416  133.8850  154.0459 C   0  0  0  0  0  0  0  0  0  0  0  0
  148.6722  132.8349  153.1931 C   0  0  0  0  0  0  0  0  0  0  0  0
  147.7562  132.0801  152.3011 N   0  3  1  0  0  0  0  0  0  0  0  0
  147.3733  130.7682  152.8750 C   0  0  0  0  0  0  0  0  0  0  0  0
  146.4743  129.9873  151.8978 C   0  0  1  0  0  0  0  0  0  0  0  0
  145.9896  128.6613  152.4940 C   0  0  0  0  0  0  0  0  0  0  0  0
  145.3318  130.7766  151.5867 O   0  0  0  0  0  0  0  0  0  0  0  0
  145.6708  132.0035  150.9500 C   0  0  1  0  0  0  0  0  0  0  0  0
  144.3698  132.7222  150.5753 C   0  0  0  0  0  0  0  0  0  0  0  0
  146.5452  132.8404  151.9035 C   0  0  0  0  0  0  0  0  0  0  0  0
  149.9022  137.5507  154.5250 C   0  0  0  0  0  0  0  0  0  0  0  0
  150.5364  138.7429  154.5666 C   0  0  0  0  0  0  0  0  0  0  0  0
  151.8129  138.9177  155.2611 C   0  0  0  0  0  0  0  0  0  0  0  0
  152.4058  139.9943  155.3191 O   0  0  0  0  0  0  0  0  0  0  0  0
  150.5446  138.2896  159.5070 H   0  0  0  0  0  0  0  0  0  0  0  0
  151.4745  136.8239  159.8201 H   0  0  0  0  0  0  0  0  0  0  0  0
  150.7341  137.0867  158.2310 H   0  0  0  0  0  0  0  0  0  0  0  0
  154.3036  137.4443  158.5879 H   0  0  0  0  0  0  0  0  0  0  0  0
  153.0075  136.3449  158.1238 H   0  0  0  0  0  0  0  0  0  0  0  0
  154.0374  138.7479  156.5146 H   0  0  0  0  0  0  0  0  0  0  0  0
  154.2540  137.0741  156.1089 H   0  0  0  0  0  0  0  0  0  0  0  0
  148.5907  135.8733  153.6990 H   0  0  0  0  0  0  0  0  0  0  0  0
  147.6672  133.4726  155.0172 H   0  0  0  0  0  0  0  0  0  0  0  0
  147.0197  134.1979  153.5535 H   0  0  0  0  0  0  0  0  0  0  0  0
  149.4137  133.3510  152.5813 H   0  0  0  0  0  0  0  0  0  0  0  0
  149.2246  132.1394  153.8272 H   0  0  0  0  0  0  0  0  0  0  0  0
  148.2698  130.1859  153.0923 H   0  0  0  0  0  0  0  0  0  0  0  0
  146.8548  130.9239  153.8226 H   0  0  0  0  0  0  0  0  0  0  0  0
  147.0250  129.7743  150.9799 H   0  0  0  0  0  0  0  0  0  0  0  0
  146.8298  128.0151  152.7493 H   0  0  0  0  0  0  0  0  0  0  0  0
  145.3596  128.1228  151.7854 H   0  0  0  0  0  0  0  0  0  0  0  0
  145.4057  128.8253  153.4002 H   0  0  0  0  0  0  0  0  0  0  0  0
  146.2250  131.7916  150.0338 H   0  0  0  0  0  0  0  0  0  0  0  0
  144.5737  133.6692  150.0749 H   0  0  0  0  0  0  0  0  0  0  0  0
  143.7658  132.9331  151.4583 H   0  0  0  0  0  0  0  0  0  0  0  0
  143.7691  132.1131  149.8996 H   0  0  0  0  0  0  0  0  0  0  0  0
  145.9769  133.1126  152.7946 H   0  0  0  0  0  0  0  0  0  0  0  0
  146.8249  133.7686  151.4067 H   0  0  0  0  0  0  0  0  0  0  0  0
  148.9604  137.4511  154.0051 H   0  0  0  0  0  0  0  0  0  0  0  0
  150.0899  139.5937  154.0731 H   0  0  0  0  0  0  0  0  0  0  0  0
  148.2717  131.8808  151.4555 H   0  0  0  0  0  0  0  0  0  0  0  0
  1  2  1  0  0  0  0
  1 25  1  0  0  0  0
  1 26  1  0  0  0  0
  1 27  1  0  0  0  0
  2  3  1  0  0  0  0
  3  4  1  0  0  0  0
  3 28  1  0  0  0  0
  3 29  1  0  0  0  0
  4  5  1  0  0  0  0
  4 30  1  0  0  0  0
  4 31  1  0  0  0  0
  5 23  1  0  0  0  0
  5  6  1  0  0  0  0
  6  7  2  0  0  0  0
  7  8  1  0  0  0  0
  7 21  1  0  0  0  0
  8  9  2  0  0  0  0
  8 10  1  0  0  0  0
 10 11  1  0  0  0  0
 10 32  1  0  0  0  0
 11 12  1  0  0  0  0
 11 33  1  0  0  0  0
 11 34  1  0  0  0  0
 12 13  1  0  0  0  0
 12 35  1  0  0  0  0
 12 36  1  0  0  0  0
 13 20  1  0  0  0  0
 13 14  1  0  0  0  0
 13 51  1  0  0  0  0
 14 15  1  0  0  0  0
 14 37  1  0  0  0  0
 14 38  1  0  0  0  0
 15 16  1  0  0  0  0
 15 17  1  0  0  0  0
 15 39  1  0  0  0  0
 16 40  1  0  0  0  0
 16 41  1  0  0  0  0
 16 42  1  0  0  0  0
 17 18  1  0  0  0  0
 18 19  1  0  0  0  0
 18 20  1  0  0  0  0
 18 43  1  0  0  0  0
 19 44  1  0  0  0  0
 19 45  1  0  0  0  0
 19 46  1  0  0  0  0
 20 47  1  0  0  0  0
 20 48  1  0  0  0  0
 21 22  2  0  0  0  0
 21 49  1  0  0  0  0
 22 23  1  0  0  0  0
 22 50  1  0  0  0  0
 23 24  2  0  0  0  0
M  CHG  1  13   1
M  END
> <s_m_source_file>
AV-unprocessed.smi

> <i_m_source_file_index>
2001

> <i_lp_mmshare_version>
43012

> <i_f3d_flags>
0

> <s_epik_input>
W0NIM11PW0NIMl1bQ0gyXW4xbmMoW2NIXVtjSF1jMT1PKUMoPU8pW05IXVtDSDJdW0NIMl1OMltDSDJdW0NAQEhdKFtDSDNdKU9bQ0BASF0oW0NIM10pW0NIMl0y

> <s_epik_cmdline>
J2VwaWtfcHl0aG9uJywgJy1waCcsICc3LjAnLCAnLXRuJywgJzgnLCAnLW1hJywgJzIwMCcsICctbWV0YWxfYmluZGluZycsICctaW1hZScsICc8aW5maWxlLm1hZT4nLCAnLW9tYWUnLCAnPG91dGZpbGUubWFlPic=

> <r_lp_tautomer_probability>
1

> <r_epik_Ionization_Penalty>
0.724354

> <r_epik_Ionization_Penalty_Charging>
0.724348

> <r_epik_Ionization_Penalty_Neutral>
6.1656e-06

> <r_epik_State_Penalty>
0.749058

> <r_epik_Charging_Adjusted_Penalty>
1.47341

> <i_epik_Tot_Q>
1

> <i_epik_Tot_abs_Q>
1

> <r_epik_Metal_State_Penalty>
0.750779

> <b_epik_Metal_Only>
0

> <s_lp_Force_Field>
OPLS_2005

> <r_lp_Energy>
35.6345

> <b_lp_Chiralities_Consistent>
1

> <s_lp_Variant>
AV-unprocessed.smi:2001-4

> <Gold.Version>
5.8.1

> <Gold.Id.Protein>
6NUR|6NUR_protein|mol2

> <Gold.PLP.Fitness>
49.3392

> <Gold.PLP.PLP>
-39.4767

> <Gold.PLP.part.hbond>
-4.9816

> <Gold.PLP.part.metal>
0.0000

> <Gold.PLP.part.buried>
-1.3105

> <Gold.PLP.part.nonpolar>
-32.1711

> <Gold.PLP.part.repulsive>
0.2314

> <Gold.PLP.ligand.clash>
0.0189

> <Gold.PLP.ligand.torsion>
1.2743

> <Gold.PLP.Chemscore.Hbond>
4.0270

> <Gold.PLP.Chemscore.CHOScore>
0.0000

> <Gold.PLP.Chemscore.Metal>
0.0000

> <Gold.Chemscore.Hbonds>
donor molecule, donor type, donor heavy atom, donor atom, acceptor molecule, acceptor atom, score
      L1  H    10    32       P1  7948  0.58
      L1  H    13    51       P1 10747  1.00
      P1  H  7989  7998       L1    24  0.44
      P1  H  7997  8009       L1    24  0.80
      P1  H 10752 10763       L1     6  0.90

> <Gold.PLP.Chemscore.Internal.Correction>
0.3491

> <Gold.Rescore>
     Score         DG    S(hbond)    S(metal)    S(lipo)     H(rot)  DE(clash)    DE(int)     intcor
     18.96     -20.72       2.89        0.00      93.14       2.07       0.55       1.22       ----

> <Gold.Chemscore.Fitness>
18.9552

> <Gold.Chemscore.DG>
-20.7193

> <Gold.Chemscore.ZeroCoef>
-5.4800

> <Gold.Chemscore.Hbond>
2.8882

> <Gold.Chemscore.Metal>
0.0000

> <Gold.Chemscore.Lipo>
93.1386

> <Gold.Chemscore.Internal_Hbond>
0.0000

> <Gold.Chemscore.DEClash>
0.5465

> <Gold.Chemscore.DEInternal>
1.2176

> <Gold.Chemscore.Rot>
2.0721

> <Gold.Chemscore.Internal.Correction>
   9.000000E+99

> <Gold.Chemscore.Hbonds>
donor molecule, donor type, donor heavy atom, donor atom, acceptor molecule, acceptor atom, score
      L1  H    10    32       P1  7948  0.58
      L1  H    13    51       P1 10747  0.98
      P1  H  7989  7998       L1    24  0.10
      P1  H  7997  8009       L1    24  0.78
      P1  H 10752 10763       L1     6  0.09

> <Gold.Chemscore.Hbond.Weighted>
-9.6468

> <Gold.Chemscore.Metal.Weighted>
-0.0000

> <Gold.Chemscore.Lipo.Weighted>
-10.8972

> <Gold.Chemscore.Internal_Hbond.Weighted>
0.0000

> <Gold.Chemscore.DEClash.Weighted>
0.5465

> <Gold.Chemscore.DEInternal.Weighted>
1.2176

> <Gold.Chemscore.Rot.Weighted>
5.3047

> <Gold.Chemscore.Internal.Correction.Weighted>
   9.000000E+99

> <Gold.Protein.RotatedTorsions>
[ 6907 6896 6895 6894 ] final    8.65 input  -60.11 | X-H torsion
[ 7974 7965 7964 7962 ] final   39.21 input  175.53 | X-H torsion
[ 8008 7997 7996 7995 ] final -142.65 input   59.86 | X-H torsion
[ 10167 10162 10161 10158 ] final   46.87 input  -65.29 | X-H torsion
[ 10718 10713 10712 10709 ] final    0.81 input   66.30 | X-H torsion
[ 10763 10752 10751 10750 ] final   64.85 input  -60.55 | X-H torsion
[ 11005 11000 10999 10996 ] final   38.97 input  -57.11 | X-H torsion

> <Gold.Protein.ActiveResidues>
 VAL166  LYS551  ARG553  GLY616  TRP617  ASP618  TYR619  PRO620  LYS621  CYS622 
 ASP623  PHE694  ASN695  SER759  ASP760  ASP761  ALA762  ILE779  LEU786  VAL792 
 PHE793  MET794  SER795  GLU796  ALA797  LYS798  CYS799  TRP800  GLU811  SER814 

> <Gold.Protein.RotatedAtoms>
  151.7095  135.0915  160.0264 H   0  0  0  0  0  0  0  0  0  0  0  0  # atno 6907 bound_to 6896
  152.3670  133.6366  159.6067 H   0  0  0  0  0  0  0  0  0  0  0  0  # atno 6908 bound_to 6896
  150.7645  133.9248  159.3450 H   0  0  0  0  0  0  0  0  0  0  0  0  # atno 6909 bound_to 6896
  146.1002  139.5678  142.9419 H   0  0  0  0  0  0  0  0  0  0  0  0  # atno 7974 bound_to 7965
  155.4977  140.0573  157.2944 H   0  0  0  0  0  0  0  0  0  0  0  0  # atno 8008 bound_to 7997
  154.4599  140.1991  156.0225 H   0  0  0  0  0  0  0  0  0  0  0  0  # atno 8009 bound_to 7997
  156.0870  140.3239  155.7770 H   0  0  0  0  0  0  0  0  0  0  0  0  # atno 8010 bound_to 7997
  140.3095  144.2838  150.6202 H   0  0  0  0  0  0  0  0  0  0  0  0  # atno 10167 bound_to 10162
  156.8389  130.5514  149.5679 H   0  0  0  0  0  0  0  0  0  0  0  0  # atno 10718 bound_to 10713
  153.0072  135.5378  154.6575 H   0  0  0  0  0  0  0  0  0  0  0  0  # atno 10763 bound_to 10752
  154.5792  135.2848  155.0752 H   0  0  0  0  0  0  0  0  0  0  0  0  # atno 10764 bound_to 10752
  154.1888  135.6503  153.5107 H   0  0  0  0  0  0  0  0  0  0  0  0  # atno 10765 bound_to 10752
  140.2073  134.3797  155.8066 H   0  0  0  0  0  0  0  0  0  0  0  0  # atno 11005 bound_to 11000
  145.5870  141.0375  143.2091 LP  0  0  0  0  0  0  0  0  0  0  0  0  # atno 17320 bound_to 7965
  144.7426  139.7406  143.7304 LP  0  0  0  0  0  0  0  0  0  0  0  0  # atno 17321 bound_to 7965
  140.5581  143.2196  151.7813 LP  0  0  0  0  0  0  0  0  0  0  0  0  # atno 17342 bound_to 10162
  139.4897  144.4386  151.9790 LP  0  0  0  0  0  0  0  0  0  0  0  0  # atno 17343 bound_to 10162
  156.0891  130.5882  150.9702 LP  0  0  0  0  0  0  0  0  0  0  0  0  # atno 17370 bound_to 10713
  157.6366  131.0915  150.8336 LP  0  0  0  0  0  0  0  0  0  0  0  0  # atno 17371 bound_to 10713
  141.2227  133.7125  156.8359 LP  0  0  0  0  0  0  0  0  0  0  0  0  # atno 17394 bound_to 11000
  140.1988  134.8912  157.3146 LP  0  0  0  0  0  0  0  0  0  0  0  0  # atno 17395 bound_to 11000

$$$$
