AV-unprocessed.smi:21|AV-procd|sdf|163|dock1
  -GOLD-   2262015403D 1   1.00000     0.00000
 Structure written by MMmdl.
 61 64  0  0  0  0  0  0  0  0  1 V2000
  144.5369  132.8850  152.0606 C   0  0  0  0  0  0  0  0  0  0  0  0
  145.3594  133.4030  153.0939 O   0  0  0  0  0  0  0  0  0  0  0  0
  146.7484  133.3209  152.8065 C   0  0  1  0  0  0  0  0  0  0  0  0
  147.5670  133.9925  153.9207 C   0  0  0  0  0  0  0  0  0  0  0  0
  148.4206  132.8598  154.5135 C   0  0  2  0  0  0  0  0  0  0  0  0
  149.7513  133.3444  155.1287 C   0  0  0  0  0  0  0  0  0  0  0  0
  149.5566  134.4108  156.1155 N   0  0  0  0  0  0  0  0  0  0  0  0
  148.4539  134.2656  157.0578 C   0  0  0  0  0  0  0  0  0  0  0  0
  150.2097  135.6046  156.0004 C   0  0  0  0  0  0  0  0  0  0  0  0
  150.5674  136.0269  154.7577 N   0  0  0  0  0  0  0  0  0  0  0  0
  151.2075  137.1842  154.5785 C   0  0  0  0  0  0  0  0  0  0  0  0
  151.5915  138.0725  155.4939 N   0  0  0  0  0  0  0  0  0  0  0  0
  151.2452  137.6656  156.7474 C   0  0  0  0  0  0  0  0  0  0  0  0
  150.5609  136.4616  157.0914 C   0  0  0  0  0  0  0  0  0  0  0  0
  150.3862  136.4162  158.4723 N   0  0  0  0  0  0  0  0  0  0  0  0
  150.9330  137.5154  158.9123 C   0  0  0  0  0  0  0  0  0  0  0  0
  151.4692  138.3272  157.9421 N   0  0  0  0  0  0  0  0  0  0  0  0
  152.1359  139.6014  158.1510 C   0  0  0  0  0  0  0  0  0  0  0  0
  151.1776  140.8174  158.0825 C   0  0  2  0  0  0  0  0  0  0  0  0
  150.3938  140.8387  156.7446 C   0  0  0  0  0  0  0  0  0  0  0  0
  151.2275  140.5429  155.6437 O   0  0  0  0  0  0  0  0  0  0  0  0
  151.9662  142.1341  158.3262 C   0  0  1  0  0  0  0  0  0  0  0  0
  151.1476  143.4136  158.2887 C   0  0  0  0  0  0  0  0  0  0  0  0
  152.0599  144.4062  158.9986 C   0  0  0  0  0  0  0  0  0  0  0  0
  152.7557  143.6470  159.9789 O   0  0  0  0  0  0  0  0  0  0  0  0
  152.5928  142.2558  159.7215 C   0  0  0  0  0  0  0  0  0  0  0  0
  148.5674  131.9063  153.4253 N   0  0  0  0  0  0  0  0  0  0  0  0
  149.0080  130.5852  153.8540 C   0  0  0  0  0  0  0  0  0  0  0  0
  147.2524  131.8713  152.8167 C   0  0  0  0  0  0  0  0  0  0  0  0
  146.9765  133.8052  151.8550 H   0  0  0  0  0  0  0  0  0  0  0  0
  147.8303  132.3853  155.2999 H   0  0  0  0  0  0  0  0  0  0  0  0
  143.4891  132.9904  152.3419 H   0  0  0  0  0  0  0  0  0  0  0  0
  144.7298  131.8262  151.8857 H   0  0  0  0  0  0  0  0  0  0  0  0
  144.6886  133.4272  151.1265 H   0  0  0  0  0  0  0  0  0  0  0  0
  148.1991  134.7665  153.4845 H   0  0  0  0  0  0  0  0  0  0  0  0
  146.9424  134.4663  154.6790 H   0  0  0  0  0  0  0  0  0  0  0  0
  150.2348  132.5179  155.6487 H   0  0  0  0  0  0  0  0  0  0  0  0
  150.4509  133.6237  154.3413 H   0  0  0  0  0  0  0  0  0  0  0  0
  148.7586  134.5637  158.0614 H   0  0  0  0  0  0  0  0  0  0  0  0
  148.1207  133.2289  157.1110 H   0  0  0  0  0  0  0  0  0  0  0  0
  147.6015  134.8716  156.7494 H   0  0  0  0  0  0  0  0  0  0  0  0
  151.4453  137.4330  153.5549 H   0  0  0  0  0  0  0  0  0  0  0  0
  150.9571  137.7677  159.9626 H   0  0  0  0  0  0  0  0  0  0  0  0
  152.6256  139.5473  159.1232 H   0  0  0  0  0  0  0  0  0  0  0  0
  152.9318  139.7078  157.4131 H   0  0  0  0  0  0  0  0  0  0  0  0
  150.4542  140.6996  158.8909 H   0  0  0  0  0  0  0  0  0  0  0  0
  149.5591  140.1374  156.7728 H   0  0  0  0  0  0  0  0  0  0  0  0
  149.9694  141.8208  156.5419 H   0  0  0  0  0  0  0  0  0  0  0  0
  151.8582  139.8914  155.9105 H   0  0  0  0  0  0  0  0  0  0  0  0
  152.7625  142.2176  157.5844 H   0  0  0  0  0  0  0  0  0  0  0  0
  150.8976  143.7376  157.2784 H   0  0  0  0  0  0  0  0  0  0  0  0
  150.2203  143.2908  158.8501 H   0  0  0  0  0  0  0  0  0  0  0  0
  152.7869  144.8216  158.2997 H   0  0  0  0  0  0  0  0  0  0  0  0
  151.5098  145.2331  159.4480 H   0  0  0  0  0  0  0  0  0  0  0  0
  151.9264  141.8462  160.4820 H   0  0  0  0  0  0  0  0  0  0  0  0
  153.5482  141.7360  159.7957 H   0  0  0  0  0  0  0  0  0  0  0  0
  149.0391  129.8988  153.0073 H   0  0  0  0  0  0  0  0  0  0  0  0
  148.3357  130.1669  154.6042 H   0  0  0  0  0  0  0  0  0  0  0  0
  150.0104  130.6251  154.2796 H   0  0  0  0  0  0  0  0  0  0  0  0
  146.5822  131.2604  153.4243 H   0  0  0  0  0  0  0  0  0  0  0  0
  147.2831  131.4345  151.8178 H   0  0  0  0  0  0  0  0  0  0  0  0
  1  2  1  0  0  0  0
  1 32  1  0  0  0  0
  1 33  1  0  0  0  0
  1 34  1  0  0  0  0
  2  3  1  0  0  0  0
  3 30  1  0  0  0  0
  3 29  1  0  0  0  0
  3  4  1  0  0  0  0
  4  5  1  0  0  0  0
  4 35  1  0  0  0  0
  4 36  1  0  0  0  0
  5 31  1  0  0  0  0
  5  6  1  0  0  0  0
  5 27  1  0  0  0  0
  6  7  1  0  0  0  0
  6 37  1  0  0  0  0
  6 38  1  0  0  0  0
  7  8  1  0  0  0  0
  7  9  1  0  0  0  0
  8 39  1  0  0  0  0
  8 40  1  0  0  0  0
  8 41  1  0  0  0  0
  9 14  1  0  0  0  0
  9 10  2  0  0  0  0
 10 11  1  0  0  0  0
 11 12  2  0  0  0  0
 11 42  1  0  0  0  0
 12 13  1  0  0  0  0
 13 17  1  0  0  0  0
 13 14  2  0  0  0  0
 14 15  1  0  0  0  0
 15 16  2  0  0  0  0
 16 17  1  0  0  0  0
 16 43  1  0  0  0  0
 17 18  1  0  0  0  0
 18 19  1  0  0  0  0
 18 44  1  0  0  0  0
 18 45  1  0  0  0  0
 19 20  1  0  0  0  0
 19 22  1  0  0  0  0
 19 46  1  0  0  0  0
 20 21  1  0  0  0  0
 20 47  1  0  0  0  0
 20 48  1  0  0  0  0
 21 49  1  0  0  0  0
 22 26  1  0  0  0  0
 22 23  1  0  0  0  0
 22 50  1  0  0  0  0
 23 24  1  0  0  0  0
 23 51  1  0  0  0  0
 23 52  1  0  0  0  0
 24 25  1  0  0  0  0
 24 53  1  0  0  0  0
 24 54  1  0  0  0  0
 25 26  1  0  0  0  0
 26 55  1  0  0  0  0
 26 56  1  0  0  0  0
 27 28  1  0  0  0  0
 27 29  1  0  0  0  0
 28 57  1  0  0  0  0
 28 58  1  0  0  0  0
 28 59  1  0  0  0  0
 29 60  1  0  0  0  0
 29 61  1  0  0  0  0
M  END
> <s_m_source_file>
AV-unprocessed.smi

> <i_m_source_file_index>
21

> <i_lp_mmshare_version>
43012

> <i_f3d_flags>
0

> <s_epik_input>
W0NIM11PW0NASF0xW0NIMl1bQ0BIXShOKFtDSDNdKVtDSDJdMSlbQ0gyXU4oW0NIM10pYyhuW2NIXW4yKWMoYzIzKW5bY0hdbjNbQ0gyXVtDQEhdKFtDSDJdW09IXSlbQ0BASF00W0NIMl1bQ0gyXU9bQ0gyXTQ=

> <s_epik_cmdline>
J2VwaWtfcHl0aG9uJywgJy1waCcsICc3LjAnLCAnLXRuJywgJzgnLCAnLW1hJywgJzIwMCcsICctbWV0YWxfYmluZGluZycsICctaW1hZScsICc8aW5maWxlLm1hZT4nLCAnLW9tYWUnLCAnPG91dGZpbGUubWFlPic=

> <r_lp_tautomer_probability>
1

> <r_epik_Ionization_Penalty>
2.17574

> <r_epik_Ionization_Penalty_Charging>
0

> <r_epik_Ionization_Penalty_Neutral>
2.17574

> <r_epik_State_Penalty>
2.31336

> <r_epik_Charging_Adjusted_Penalty>
2.31336

> <i_epik_Tot_Q>
0

> <i_epik_Tot_abs_Q>
0

> <r_epik_Metal_State_Penalty>
2.31025

> <b_epik_Metal_Only>
0

> <s_lp_Force_Field>
OPLS_2005

> <r_lp_Energy>
69.6605

> <b_lp_Chiralities_Consistent>
1

> <s_lp_Variant>
AV-unprocessed.smi:21-43

> <Gold.Version>
5.8.1

> <Gold.Id.Protein>
6NUR|6NUR_protein|mol2

> <Gold.PLP.Fitness>
48.5415

> <Gold.PLP.PLP>
-41.9824

> <Gold.PLP.part.hbond>
-2.7373

> <Gold.PLP.part.metal>
0.0000

> <Gold.PLP.part.buried>
-5.2336

> <Gold.PLP.part.nonpolar>
-35.3509

> <Gold.PLP.part.repulsive>
0.4006

> <Gold.PLP.ligand.clash>
0.0000

> <Gold.PLP.ligand.torsion>
1.2255

> <Gold.PLP.Chemscore.Hbond>
1.7257

> <Gold.PLP.Chemscore.CHOScore>
0.9512

> <Gold.PLP.Chemscore.Metal>
0.0000

> <Gold.Chemscore.Hbonds>
donor molecule, donor type, donor heavy atom, donor atom, acceptor molecule, acceptor atom, score
      P1  H  6896  6909       L1    15  0.98
      P1  H  7989  7998       L1    21  0.50
      L1  C    11    42       P1  7949  0.96

> <Gold.PLP.Chemscore.Internal.Correction>
0.9795

> <Gold.Rescore>
     Score         DG    S(hbond)    S(metal)    S(lipo)     H(rot)  DE(clash)    DE(int)     intcor
     10.67     -11.98       0.80        0.00      98.46       3.00       0.02       1.29       ----

> <Gold.Chemscore.Fitness>
10.6738

> <Gold.Chemscore.DG>
-11.9803

> <Gold.Chemscore.ZeroCoef>
-5.4800

> <Gold.Chemscore.Hbond>
0.7991

> <Gold.Chemscore.Metal>
0.0000

> <Gold.Chemscore.Lipo>
98.4570

> <Gold.Chemscore.Internal_Hbond>
0.0000

> <Gold.Chemscore.DEClash>
0.0186

> <Gold.Chemscore.DEInternal>
1.2880

> <Gold.Chemscore.Rot>
3.0031

> <Gold.Chemscore.Internal.Correction>
   9.000000E+99

> <Gold.Chemscore.Hbonds>
donor molecule, donor type, donor heavy atom, donor atom, acceptor molecule, acceptor atom, score
      P1  H  6896  6909       L1    15  0.49
      P1  H  7989  7998       L1    21  0.25

> <Gold.Chemscore.Hbond.Weighted>
-2.6689

> <Gold.Chemscore.Metal.Weighted>
-0.0000

> <Gold.Chemscore.Lipo.Weighted>
-11.5195

> <Gold.Chemscore.Internal_Hbond.Weighted>
0.0000

> <Gold.Chemscore.DEClash.Weighted>
0.0186

> <Gold.Chemscore.DEInternal.Weighted>
1.2880

> <Gold.Chemscore.Rot.Weighted>
7.6880

> <Gold.Chemscore.Internal.Correction.Weighted>
   9.000000E+99

> <Gold.Protein.RotatedTorsions>
[ 6907 6896 6895 6894 ] final   79.37 input  -60.11 | X-H torsion
[ 7974 7965 7964 7962 ] final   43.26 input  175.53 | X-H torsion
[ 8008 7997 7996 7995 ] final  -35.35 input   59.86 | X-H torsion
[ 10167 10162 10161 10158 ] final  122.33 input  -65.29 | X-H torsion
[ 10718 10713 10712 10709 ] final   40.71 input   66.30 | X-H torsion
[ 10763 10752 10751 10750 ] final  155.76 input  -60.55 | X-H torsion
[ 11005 11000 10999 10996 ] final  152.59 input  -57.11 | X-H torsion

> <Gold.Protein.ActiveResidues>
 VAL166  LYS551  ARG553  GLY616  TRP617  ASP618  TYR619  PRO620  LYS621  CYS622 
 ASP623  PHE694  ASN695  SER759  ASP760  ASP761  ALA762  ILE779  LEU786  VAL792 
 PHE793  MET794  SER795  GLU796  ALA797  LYS798  CYS799  TRP800  GLU811  SER814 

> <Gold.Protein.RotatedAtoms>
  152.5196  134.3522  159.9254 H   0  0  0  0  0  0  0  0  0  0  0  0  # atno 6907 bound_to 6896
  151.3473  133.3933  159.2684 H   0  0  0  0  0  0  0  0  0  0  0  0  # atno 6908 bound_to 6896
  150.9755  134.9139  159.7871 H   0  0  0  0  0  0  0  0  0  0  0  0  # atno 6909 bound_to 6896
  146.0671  139.5207  142.9621 H   0  0  0  0  0  0  0  0  0  0  0  0  # atno 7974 bound_to 7965
  154.4098  140.1659  156.2197 H   0  0  0  0  0  0  0  0  0  0  0  0  # atno 8008 bound_to 7997
  155.9374  140.3410  155.6276 H   0  0  0  0  0  0  0  0  0  0  0  0  # atno 8009 bound_to 7997
  155.7031  140.0747  157.2392 H   0  0  0  0  0  0  0  0  0  0  0  0  # atno 8010 bound_to 7997
  139.5865  144.7008  151.3396 H   0  0  0  0  0  0  0  0  0  0  0  0  # atno 10167 bound_to 10162
  157.3852  130.7776  149.7225 H   0  0  0  0  0  0  0  0  0  0  0  0  # atno 10718 bound_to 10713
  154.1735  135.2803  155.3074 H   0  0  0  0  0  0  0  0  0  0  0  0  # atno 10763 bound_to 10752
  154.6057  135.5515  153.7424 H   0  0  0  0  0  0  0  0  0  0  0  0  # atno 10764 bound_to 10752
  153.0158  135.6403  154.1874 H   0  0  0  0  0  0  0  0  0  0  0  0  # atno 10765 bound_to 10752
  140.1321  134.8795  157.2218 H   0  0  0  0  0  0  0  0  0  0  0  0  # atno 11005 bound_to 11000
  145.6458  141.0274  143.1787 LP  0  0  0  0  0  0  0  0  0  0  0  0  # atno 17320 bound_to 7965
  144.7209  139.8035  143.7382 LP  0  0  0  0  0  0  0  0  0  0  0  0  # atno 17321 bound_to 7965
  140.7136  143.7326  150.7612 LP  0  0  0  0  0  0  0  0  0  0  0  0  # atno 17342 bound_to 10162
  140.0871  143.4913  152.2499 LP  0  0  0  0  0  0  0  0  0  0  0  0  # atno 17343 bound_to 10162
  155.9785  130.4050  150.3645 LP  0  0  0  0  0  0  0  0  0  0  0  0  # atno 17370 bound_to 10713
  157.1754  131.0379  151.2775 LP  0  0  0  0  0  0  0  0  0  0  0  0  # atno 17371 bound_to 10713
  140.2829  134.3329  155.7338 LP  0  0  0  0  0  0  0  0  0  0  0  0  # atno 17394 bound_to 11000
  141.2172  133.7489  156.9390 LP  0  0  0  0  0  0  0  0  0  0  0  0  # atno 17395 bound_to 11000

$$$$
