AV-unprocessed.smi:356|AV-procd|sdf|2410|dock5
  -GOLD-   2262022343D 1   1.00000     0.00000
 Structure written by MMmdl.
 42 44  0  0  0  0  0  0  0  0  2 V2000
  151.7553  138.9490  156.3235 C   0  0  0  0  0  0  0  0  0  0  0  0
  151.7550  140.1492  157.2163 C   0  0  0  0  0  0  0  0  0  0  0  0
  152.7943  140.4569  157.9917 N   0  0  0  0  0  0  0  0  0  0  0  0
  152.3739  141.6144  158.6177 C   0  0  0  0  0  0  0  0  0  0  0  0
  153.0258  142.4350  159.5657 C   0  0  0  0  0  0  0  0  0  0  0  0
  152.3870  143.5855  160.0730 C   0  0  0  0  0  0  0  0  0  0  0  0
  151.0905  143.9317  159.6409 C   0  0  0  0  0  0  0  0  0  0  0  0
  150.4224  143.1276  158.6976 C   0  0  0  0  0  0  0  0  0  0  0  0
  151.0642  141.9797  158.1944 C   0  0  0  0  0  0  0  0  0  0  0  0
  150.6944  140.9913  157.2865 N   0  0  0  0  0  0  0  0  0  0  0  0
  149.4297  140.9016  156.5700 C   0  0  0  0  0  0  0  0  0  0  0  0
  149.5430  141.3294  155.0921 C   0  0  2  0  0  0  0  0  0  0  0  0
  149.9781  142.6740  155.0680 O   0  0  0  0  0  0  0  0  0  0  0  0
  148.2133  141.2238  154.3124 C   0  0  0  0  0  0  0  0  0  0  0  0
  147.1964  142.2020  154.7749 N   0  3  0  0  0  0  0  0  0  0  0  0
  146.1170  142.4535  153.7874 C   0  0  0  0  0  0  0  0  0  0  0  0
  145.1292  143.5024  154.3262 C   0  0  0  0  0  0  0  0  0  0  0  0
  144.6004  143.0676  155.5728 O   0  0  0  0  0  0  0  0  0  0  0  0
  145.6167  142.9068  156.5544 C   0  0  0  0  0  0  0  0  0  0  0  0
  146.6175  141.8358  156.0895 C   0  0  0  0  0  0  0  0  0  0  0  0
  152.7152  138.4342  156.3766 H   0  0  0  0  0  0  0  0  0  0  0  0
  151.5858  139.2455  155.2884 H   0  0  0  0  0  0  0  0  0  0  0  0
  150.9769  138.2495  156.6260 H   0  0  0  0  0  0  0  0  0  0  0  0
  154.0194  142.1790  159.9029 H   0  0  0  0  0  0  0  0  0  0  0  0
  152.8951  144.2061  160.7967 H   0  0  0  0  0  0  0  0  0  0  0  0
  150.6097  144.8158  160.0341 H   0  0  0  0  0  0  0  0  0  0  0  0
  149.4291  143.3911  158.3665 H   0  0  0  0  0  0  0  0  0  0  0  0
  149.0699  139.8740  156.6364 H   0  0  0  0  0  0  0  0  0  0  0  0
  148.6892  141.5117  157.0881 H   0  0  0  0  0  0  0  0  0  0  0  0
  150.3099  140.7227  154.6137 H   0  0  0  0  0  0  0  0  0  0  0  0
  149.3168  143.2127  155.4763 H   0  0  0  0  0  0  0  0  0  0  0  0
  148.3705  141.3685  153.2432 H   0  0  0  0  0  0  0  0  0  0  0  0
  147.8259  140.2103  154.4287 H   0  0  0  0  0  0  0  0  0  0  0  0
  146.5333  142.8054  152.8441 H   0  0  0  0  0  0  0  0  0  0  0  0
  145.5898  141.5218  153.5756 H   0  0  0  0  0  0  0  0  0  0  0  0
  145.6151  144.4727  154.4416 H   0  0  0  0  0  0  0  0  0  0  0  0
  144.3073  143.6398  153.6233 H   0  0  0  0  0  0  0  0  0  0  0  0
  146.1193  143.8583  156.7357 H   0  0  0  0  0  0  0  0  0  0  0  0
  145.1548  142.6061  157.4949 H   0  0  0  0  0  0  0  0  0  0  0  0
  146.1208  140.8670  156.0138 H   0  0  0  0  0  0  0  0  0  0  0  0
  147.4122  141.7326  156.8293 H   0  0  0  0  0  0  0  0  0  0  0  0
  147.6852  143.0756  154.9137 H   0  0  0  0  0  0  0  0  0  0  0  0
  1  2  1  0  0  0  0
  1 21  1  0  0  0  0
  1 22  1  0  0  0  0
  1 23  1  0  0  0  0
  2 10  1  0  0  0  0
  2  3  2  0  0  0  0
  3  4  1  0  0  0  0
  4  9  2  0  0  0  0
  4  5  1  0  0  0  0
  5  6  2  0  0  0  0
  5 24  1  0  0  0  0
  6  7  1  0  0  0  0
  6 25  1  0  0  0  0
  7  8  2  0  0  0  0
  7 26  1  0  0  0  0
  8  9  1  0  0  0  0
  8 27  1  0  0  0  0
  9 10  1  0  0  0  0
 10 11  1  0  0  0  0
 11 12  1  0  0  0  0
 11 28  1  0  0  0  0
 11 29  1  0  0  0  0
 12 13  1  0  0  0  0
 12 14  1  0  0  0  0
 12 30  1  0  0  0  0
 13 31  1  0  0  0  0
 14 15  1  0  0  0  0
 14 32  1  0  0  0  0
 14 33  1  0  0  0  0
 15 20  1  0  0  0  0
 15 16  1  0  0  0  0
 15 42  1  0  0  0  0
 16 17  1  0  0  0  0
 16 34  1  0  0  0  0
 16 35  1  0  0  0  0
 17 18  1  0  0  0  0
 17 36  1  0  0  0  0
 17 37  1  0  0  0  0
 18 19  1  0  0  0  0
 19 20  1  0  0  0  0
 19 38  1  0  0  0  0
 19 39  1  0  0  0  0
 20 40  1  0  0  0  0
 20 41  1  0  0  0  0
M  CHG  1  15   1
M  END
> <s_m_source_file>
AV-unprocessed.smi

> <i_m_source_file_index>
356

> <i_lp_mmshare_version>
43012

> <i_f3d_flags>
0

> <s_epik_input>
W2NIXTFbY0hdW2NIXVtjSF1jKGMxMiluKGMobjIpW0NIM10pW0NIMl1bQ0BIXShbT0hdKVtDSDJdTjNbQ0gyXVtDSDJdT1tDSDJdW0NIMl0z

> <s_epik_cmdline>
J2VwaWtfcHl0aG9uJywgJy1waCcsICc3LjAnLCAnLXRuJywgJzgnLCAnLW1hJywgJzIwMCcsICctbWV0YWxfYmluZGluZycsICctaW1hZScsICc8aW5maWxlLm1hZT4nLCAnLW9tYWUnLCAnPG91dGZpbGUubWFlPic=

> <r_epik_Ionization_Penalty>
0.706388

> <r_epik_Ionization_Penalty_Charging>
0.608065

> <r_epik_Ionization_Penalty_Neutral>
0.0983237

> <r_epik_State_Penalty>
0.742533

> <r_epik_Charging_Adjusted_Penalty>
1.3506

> <i_epik_Tot_Q>
1

> <i_epik_Tot_abs_Q>
1

> <r_epik_Metal_State_Penalty>
0.651809

> <b_epik_Metal_Only>
0

> <s_lp_Force_Field>
OPLS_2005

> <r_lp_Energy>
21.62

> <b_lp_Chiralities_Consistent>
1

> <s_lp_Variant>
AV-unprocessed.smi:356-3

> <Gold.Version>
5.8.1

> <Gold.Id.Protein>
6NUR|6NUR_protein|mol2

> <Gold.PLP.Fitness>
48.1030

> <Gold.PLP.PLP>
-36.8327

> <Gold.PLP.part.hbond>
-4.9184

> <Gold.PLP.part.metal>
0.0000

> <Gold.PLP.part.buried>
-1.5873

> <Gold.PLP.part.nonpolar>
-30.1886

> <Gold.PLP.part.repulsive>
0.2626

> <Gold.PLP.ligand.clash>
0.0000

> <Gold.PLP.ligand.torsion>
0.3759

> <Gold.PLP.Chemscore.Hbond>
4.0000

> <Gold.PLP.Chemscore.CHOScore>
0.0000

> <Gold.PLP.Chemscore.Metal>
0.0000

> <Gold.Chemscore.Hbonds>
donor molecule, donor type, donor heavy atom, donor atom, acceptor molecule, acceptor atom, score
      L1  H    13    31       P1  8028  0.83
      L1  H    15    42       P1  8028  1.50
      P1  H  7997  8008       L1     3  0.80

> <Gold.PLP.Chemscore.Internal.Correction>
0.0221

> <Gold.Rescore>
     Score         DG    S(hbond)    S(metal)    S(lipo)     H(rot)  DE(clash)    DE(int)     intcor
     18.50     -20.52       2.62        0.00      98.92       2.07       1.58       0.44       ----

> <Gold.Chemscore.Fitness>
18.5041

> <Gold.Chemscore.DG>
-20.5232

> <Gold.Chemscore.ZeroCoef>
-5.4800

> <Gold.Chemscore.Hbond>
2.6221

> <Gold.Chemscore.Metal>
0.0000

> <Gold.Chemscore.Lipo>
98.9162

> <Gold.Chemscore.Internal_Hbond>
0.0000

> <Gold.Chemscore.DEClash>
1.5761

> <Gold.Chemscore.DEInternal>
0.4430

> <Gold.Chemscore.Rot>
2.0656

> <Gold.Chemscore.Internal.Correction>
   9.000000E+99

> <Gold.Chemscore.Hbonds>
donor molecule, donor type, donor heavy atom, donor atom, acceptor molecule, acceptor atom, score
      L1  H    13    31       P1  8028  0.79
      L1  H    15    42       P1  8028  0.49
      P1  H  7997  8008       L1     3  0.46

> <Gold.Chemscore.Hbond.Weighted>
-8.7579

> <Gold.Chemscore.Metal.Weighted>
-0.0000

> <Gold.Chemscore.Lipo.Weighted>
-11.5732

> <Gold.Chemscore.Internal_Hbond.Weighted>
0.0000

> <Gold.Chemscore.DEClash.Weighted>
1.5761

> <Gold.Chemscore.DEInternal.Weighted>
0.4430

> <Gold.Chemscore.Rot.Weighted>
5.2879

> <Gold.Chemscore.Internal.Correction.Weighted>
   9.000000E+99

> <Gold.Protein.RotatedTorsions>
[ 6907 6896 6895 6894 ] final   65.70 input  -60.11 | X-H torsion
[ 7974 7965 7964 7962 ] final   18.52 input  175.53 | X-H torsion
[ 8008 7997 7996 7995 ] final  -77.19 input   59.86 | X-H torsion
[ 10167 10162 10161 10158 ] final  -25.09 input  -65.29 | X-H torsion
[ 10718 10713 10712 10709 ] final  -70.00 input   66.30 | X-H torsion
[ 10763 10752 10751 10750 ] final   26.46 input  -60.55 | X-H torsion
[ 11005 11000 10999 10996 ] final   62.71 input  -57.11 | X-H torsion

> <Gold.Protein.ActiveResidues>
 VAL166  LYS551  ARG553  GLY616  TRP617  ASP618  TYR619  PRO620  LYS621  CYS622 
 ASP623  PHE694  ASN695  SER759  ASP760  ASP761  ALA762  ILE779  LEU786  VAL792 
 PHE793  MET794  SER795  GLU796  ALA797  LYS798  CYS799  TRP800  GLU811  SER814 

> <Gold.Protein.RotatedAtoms>
  152.4427  134.5559  159.9879 H   0  0  0  0  0  0  0  0  0  0  0  0  # atno 6907 bound_to 6896
  151.5652  133.3392  159.2986 H   0  0  0  0  0  0  0  0  0  0  0  0  # atno 6908 bound_to 6896
  150.8336  134.7633  159.6938 H   0  0  0  0  0  0  0  0  0  0  0  0  # atno 6909 bound_to 6896
  146.2182  139.8446  142.8634 H   0  0  0  0  0  0  0  0  0  0  0  0  # atno 7974 bound_to 7965
  154.5573  140.0714  156.8764 H   0  0  0  0  0  0  0  0  0  0  0  0  # atno 8008 bound_to 7997
  155.2878  140.3376  155.4236 H   0  0  0  0  0  0  0  0  0  0  0  0  # atno 8009 bound_to 7997
  156.2013  140.1723  156.7879 H   0  0  0  0  0  0  0  0  0  0  0  0  # atno 8010 bound_to 7997
  140.7287  143.4296  151.0823 H   0  0  0  0  0  0  0  0  0  0  0  0  # atno 10167 bound_to 10162
  156.0428  130.4323  150.2230 H   0  0  0  0  0  0  0  0  0  0  0  0  # atno 10718 bound_to 10713
  153.0621  135.6560  154.0438 H   0  0  0  0  0  0  0  0  0  0  0  0  # atno 10763 bound_to 10752
  154.0103  135.2929  155.3394 H   0  0  0  0  0  0  0  0  0  0  0  0  # atno 10764 bound_to 10752
  154.6964  135.5262  153.8533 H   0  0  0  0  0  0  0  0  0  0  0  0  # atno 10765 bound_to 10752
  140.0074  134.6349  155.9834 H   0  0  0  0  0  0  0  0  0  0  0  0  # atno 11005 bound_to 11000
  145.2864  141.0154  143.3688 LP  0  0  0  0  0  0  0  0  0  0  0  0  # atno 17320 bound_to 7965
  144.9110  139.4528  143.6587 LP  0  0  0  0  0  0  0  0  0  0  0  0  # atno 17321 bound_to 7965
  139.7951  143.8163  152.3156 LP  0  0  0  0  0  0  0  0  0  0  0  0  # atno 17342 bound_to 10162
  139.8160  144.7316  150.9634 LP  0  0  0  0  0  0  0  0  0  0  0  0  # atno 17343 bound_to 10162
  157.0324  131.0011  151.3308 LP  0  0  0  0  0  0  0  0  0  0  0  0  # atno 17370 bound_to 10713
  157.5268  130.8033  149.7871 LP  0  0  0  0  0  0  0  0  0  0  0  0  # atno 17371 bound_to 10713
  141.1686  133.6537  156.4570 LP  0  0  0  0  0  0  0  0  0  0  0  0  # atno 17394 bound_to 11000
  140.4617  134.6835  157.5088 LP  0  0  0  0  0  0  0  0  0  0  0  0  # atno 17395 bound_to 11000

$$$$
