AV-unprocessed.smi:1484|AV-procd|sdf|5997|dock4
  -GOLD-   22720 6 93D 1   1.00000     0.00000
 Structure written by MMmdl.
 38 39  0  0  0  0  0  0  0  0  1 V2000
  152.7895  143.1643  162.1877 C   0  0  0  0  0  0  0  0  0  0  0  0
  152.4131  143.4706  160.7314 C   0  0  2  0  0  0  0  0  0  0  0  0
  152.4808  144.9815  160.4380 C   0  0  0  0  0  0  0  0  0  0  0  0
  152.1009  145.2924  158.9817 C   0  0  0  0  0  0  0  0  0  0  0  0
  150.7109  144.7323  158.6327 C   0  0  0  0  0  0  0  0  0  0  0  0
  150.6016  143.2239  158.9271 C   0  0  1  0  0  0  0  0  0  0  0  0
  151.4026  142.4632  157.9695 N   0  0  0  0  0  0  0  0  0  0  0  0
  150.9184  141.7129  156.9684 C   0  0  0  0  0  0  0  0  0  0  0  0
  149.7140  141.5777  156.7479 O   0  0  0  0  0  0  0  0  0  0  0  0
  151.9658  140.9939  156.1055 C   0  0  0  0  0  0  0  0  0  0  0  0
  151.5439  139.6574  155.6628 N   0  0  0  0  0  0  0  0  0  0  0  0
  150.4699  139.6644  154.7857 N   0  0  0  0  0  0  0  0  0  0  0  0
  150.0154  138.5530  154.3139 C   0  0  0  0  0  0  0  0  0  0  0  0
  148.9525  138.6056  153.4458 O   0  0  0  0  0  0  0  0  0  0  0  0
  150.6040  137.2853  154.6865 C   0  0  0  0  0  0  0  0  0  0  0  0
  151.6469  137.2884  155.5452 C   0  0  0  0  0  0  0  0  0  0  0  0
  152.1882  138.5313  156.0982 C   0  0  0  0  0  0  0  0  0  0  0  0
  153.1369  138.5634  156.8816 O   0  0  0  0  0  0  0  0  0  0  0  0
  151.0160  142.9159  160.3829 C   0  0  0  0  0  0  0  0  0  0  0  0
  149.0141  137.8202  152.9245 H   0  0  0  0  0  0  0  0  0  0  0  0
  152.0981  143.6390  162.8847 H   0  0  0  0  0  0  0  0  0  0  0  0
  153.7934  143.5227  162.4177 H   0  0  0  0  0  0  0  0  0  0  0  0
  152.7716  142.0910  162.3797 H   0  0  0  0  0  0  0  0  0  0  0  0
  153.1456  142.9706  160.0961 H   0  0  0  0  0  0  0  0  0  0  0  0
  151.8095  145.5184  161.1099 H   0  0  0  0  0  0  0  0  0  0  0  0
  153.4844  145.3568  160.6408 H   0  0  0  0  0  0  0  0  0  0  0  0
  152.1167  146.3702  158.8177 H   0  0  0  0  0  0  0  0  0  0  0  0
  152.8496  144.8696  158.3107 H   0  0  0  0  0  0  0  0  0  0  0  0
  149.9583  145.2646  159.2160 H   0  0  0  0  0  0  0  0  0  0  0  0
  150.4782  144.9312  157.5859 H   0  0  0  0  0  0  0  0  0  0  0  0
  149.5571  142.9354  158.7953 H   0  0  0  0  0  0  0  0  0  0  0  0
  152.4052  142.5116  158.0798 H   0  0  0  0  0  0  0  0  0  0  0  0
  152.2099  141.6132  155.2402 H   0  0  0  0  0  0  0  0  0  0  0  0
  152.8889  140.9244  156.6839 H   0  0  0  0  0  0  0  0  0  0  0  0
  150.2127  136.3629  154.2834 H   0  0  0  0  0  0  0  0  0  0  0  0
  152.0964  136.3495  155.8322 H   0  0  0  0  0  0  0  0  0  0  0  0
  150.9834  141.8408  160.5642 H   0  0  0  0  0  0  0  0  0  0  0  0
  150.2791  143.3539  161.0578 H   0  0  0  0  0  0  0  0  0  0  0  0
  1  2  1  0  0  0  0
  1 21  1  0  0  0  0
  1 22  1  0  0  0  0
  1 23  1  0  0  0  0
  2 19  1  0  0  0  0
  2  3  1  0  0  0  0
  2 24  1  0  0  0  0
  3  4  1  0  0  0  0
  3 25  1  0  0  0  0
  3 26  1  0  0  0  0
  4  5  1  0  0  0  0
  4 27  1  0  0  0  0
  4 28  1  0  0  0  0
  5  6  1  0  0  0  0
  5 29  1  0  0  0  0
  5 30  1  0  0  0  0
  6  7  1  0  0  0  0
  6 19  1  0  0  0  0
  6 31  1  0  0  0  0
  7  8  1  0  0  0  0
  7 32  1  0  0  0  0
  8  9  2  0  0  0  0
  8 10  1  0  0  0  0
 10 33  1  0  0  0  0
 10 34  1  0  0  0  0
 10 11  1  0  0  0  0
 11 12  1  0  0  0  0
 11 17  1  0  0  0  0
 12 13  2  0  0  0  0
 13 14  1  0  0  0  0
 13 15  1  0  0  0  0
 14 20  1  0  0  0  0
 15 35  1  0  0  0  0
 15 16  2  0  0  0  0
 16 36  1  0  0  0  0
 16 17  1  0  0  0  0
 17 18  2  0  0  0  0
 19 37  1  0  0  0  0
 19 38  1  0  0  0  0
M  END
> <s_m_source_file>
AV-unprocessed.smi

> <i_m_source_file_index>
1484

> <i_lp_mmshare_version>
43012

> <i_f3d_flags>
0

> <s_epik_input>
W0NIM11bQ0BASF0xW0NIMl1bQ0gyXVtDSDJdW0NASF0oW0NIMl0xKVtOSF1DKD1PKVtDSDJdbjJbbkhdYyg9TylbY0hdW2NIXWMyPU8=

> <s_epik_cmdline>
J2VwaWtfcHl0aG9uJywgJy1waCcsICc3LjAnLCAnLXRuJywgJzgnLCAnLW1hJywgJzIwMCcsICctbWV0YWxfYmluZGluZycsICctaW1hZScsICc8aW5maWxlLm1hZT4nLCAnLW9tYWUnLCAnPG91dGZpbGUubWFlPic=

> <r_lp_tautomer_probability>
0.9996

> <r_epik_Ionization_Penalty>
2.10343

> <r_epik_Ionization_Penalty_Charging>
3.97871e-08

> <r_epik_Ionization_Penalty_Neutral>
2.10343

> <r_epik_State_Penalty>
1.67966

> <r_epik_Charging_Adjusted_Penalty>
1.67966

> <i_epik_Tot_Q>
0

> <i_epik_Tot_abs_Q>
0

> <r_epik_Metal_State_Penalty>
1.67966

> <b_epik_Metal_Only>
0

> <s_lp_Force_Field>
OPLS_2005

> <r_lp_Energy>
17.3635

> <b_lp_Chiralities_Consistent>
1

> <s_lp_Variant>
AV-unprocessed.smi:1484-5

> <Gold.Version>
5.8.1

> <Gold.Id.Protein>
6NUR|6NUR_protein|mol2

> <Gold.PLP.Fitness>
39.4653

> <Gold.PLP.PLP>
-33.6694

> <Gold.PLP.part.hbond>
-3.8904

> <Gold.PLP.part.metal>
0.0000

> <Gold.PLP.part.buried>
-0.8661

> <Gold.PLP.part.nonpolar>
-27.6823

> <Gold.PLP.part.repulsive>
0.2347

> <Gold.PLP.ligand.clash>
0.0000

> <Gold.PLP.ligand.torsion>
0.4808

> <Gold.PLP.Chemscore.Hbond>
2.2500

> <Gold.PLP.Chemscore.CHOScore>
0.0000

> <Gold.PLP.Chemscore.Metal>
0.0000

> <Gold.Chemscore.Hbonds>
donor molecule, donor type, donor heavy atom, donor atom, acceptor molecule, acceptor atom, score
      L1  H    14    20       P1  7948  1.00
      P1  H  7989  7998       L1    12  0.32
      P1  H  7997  8009       L1    18  0.94

> <Gold.PLP.Chemscore.Internal.Correction>
0.0075

> <Gold.Rescore>
     Score         DG    S(hbond)    S(metal)    S(lipo)     H(rot)  DE(clash)    DE(int)     intcor
     13.24     -17.29       1.99        0.00      93.03       2.24       2.34       1.71       ----

> <Gold.Chemscore.Fitness>
13.2354

> <Gold.Chemscore.DG>
-17.2866

> <Gold.Chemscore.ZeroCoef>
-5.4800

> <Gold.Chemscore.Hbond>
1.9947

> <Gold.Chemscore.Metal>
0.0000

> <Gold.Chemscore.Lipo>
93.0269

> <Gold.Chemscore.Internal_Hbond>
0.0000

> <Gold.Chemscore.DEClash>
2.3389

> <Gold.Chemscore.DEInternal>
1.7123

> <Gold.Chemscore.Rot>
2.2421

> <Gold.Chemscore.Internal.Correction>
   9.000000E+99

> <Gold.Chemscore.Hbonds>
donor molecule, donor type, donor heavy atom, donor atom, acceptor molecule, acceptor atom, score
      L1  H    14    20       P1  7948  1.00
      P1  H  7989  7998       L1    12  0.01
      P1  H  7997  8009       L1    18  0.61

> <Gold.Chemscore.Hbond.Weighted>
-6.6622

> <Gold.Chemscore.Metal.Weighted>
-0.0000

> <Gold.Chemscore.Lipo.Weighted>
-10.8842

> <Gold.Chemscore.Internal_Hbond.Weighted>
0.0000

> <Gold.Chemscore.DEClash.Weighted>
2.3389

> <Gold.Chemscore.DEInternal.Weighted>
1.7123

> <Gold.Chemscore.Rot.Weighted>
5.7398

> <Gold.Chemscore.Internal.Correction.Weighted>
   9.000000E+99

> <Gold.Protein.RotatedTorsions>
[ 6907 6896 6895 6894 ] final  -92.02 input  -60.11 | X-H torsion
[ 7974 7965 7964 7962 ] final  154.86 input  175.53 | X-H torsion
[ 8008 7997 7996 7995 ] final -164.86 input   59.86 | X-H torsion
[ 10167 10162 10161 10158 ] final   90.04 input  -65.29 | X-H torsion
[ 10718 10713 10712 10709 ] final -109.98 input   66.30 | X-H torsion
[ 10763 10752 10751 10750 ] final -117.98 input  -60.55 | X-H torsion
[ 11005 11000 10999 10996 ] final -142.25 input  -57.11 | X-H torsion

> <Gold.Protein.ActiveResidues>
 VAL166  LYS551  ARG553  GLY616  TRP617  ASP618  TYR619  PRO620  LYS621  CYS622 
 ASP623  PHE694  ASN695  SER759  ASP760  ASP761  ALA762  ILE779  LEU786  VAL792 
 PHE793  MET794  SER795  GLU796  ALA797  LYS798  CYS799  TRP800  GLU811  SER814 

> <Gold.Protein.RotatedAtoms>
  150.6900  134.2187  159.4387 H   0  0  0  0  0  0  0  0  0  0  0  0  # atno 6907 bound_to 6896
  152.0144  134.9855  160.0578 H   0  0  0  0  0  0  0  0  0  0  0  0  # atno 6908 bound_to 6896
  152.1457  133.4456  159.4826 H   0  0  0  0  0  0  0  0  0  0  0  0  # atno 6909 bound_to 6896
  144.8061  139.6990  143.6161 H   0  0  0  0  0  0  0  0  0  0  0  0  # atno 7974 bound_to 7965
  155.8417  140.0949  157.1730 H   0  0  0  0  0  0  0  0  0  0  0  0  # atno 8008 bound_to 7997
  154.3982  140.1400  156.3797 H   0  0  0  0  0  0  0  0  0  0  0  0  # atno 8009 bound_to 7997
  155.8057  140.3451  155.5431 H   0  0  0  0  0  0  0  0  0  0  0  0  # atno 8010 bound_to 7997
  139.8512  144.6592  150.9167 H   0  0  0  0  0  0  0  0  0  0  0  0  # atno 10167 bound_to 10162
  156.0566  130.5792  150.8174 H   0  0  0  0  0  0  0  0  0  0  0  0  # atno 10718 bound_to 10713
  154.8573  135.4290  154.2066 H   0  0  0  0  0  0  0  0  0  0  0  0  # atno 10763 bound_to 10752
  153.3101  135.6975  153.7129 H   0  0  0  0  0  0  0  0  0  0  0  0  # atno 10764 bound_to 10752
  153.6225  135.3499  155.2989 H   0  0  0  0  0  0  0  0  0  0  0  0  # atno 10765 bound_to 10752
  140.8244  134.2592  157.4886 H   0  0  0  0  0  0  0  0  0  0  0  0  # atno 11005 bound_to 11000
  146.2353  139.5893  142.9528 LP  0  0  0  0  0  0  0  0  0  0  0  0  # atno 17320 bound_to 7965
  145.5434  141.0419  143.2318 LP  0  0  0  0  0  0  0  0  0  0  0  0  # atno 17321 bound_to 7965
  140.7787  143.3825  151.1451 LP  0  0  0  0  0  0  0  0  0  0  0  0  # atno 17342 bound_to 10162
  139.7463  143.8846  152.3064 LP  0  0  0  0  0  0  0  0  0  0  0  0  # atno 17343 bound_to 10162
  157.5540  131.0944  150.9654 LP  0  0  0  0  0  0  0  0  0  0  0  0  # atno 17370 bound_to 10713
  156.9907  130.5562  149.5303 LP  0  0  0  0  0  0  0  0  0  0  0  0  # atno 17371 bound_to 10713
  139.8707  134.9552  156.4201 LP  0  0  0  0  0  0  0  0  0  0  0  0  # atno 17394 bound_to 11000
  140.9065  133.7742  155.9741 LP  0  0  0  0  0  0  0  0  0  0  0  0  # atno 17395 bound_to 11000

$$$$
