AV-unprocessed.smi:929|AV-procd|sdf|4195|dock2
  -GOLD-   22720 2103D 1   1.00000     0.00000
 Structure written by MMmdl.
 34 35  0  0  0  0  0  0  0  0  1 V2000
  151.5328  141.6733  157.0141 C   0  0  0  0  0  0  0  0  0  0  0  0
  151.3119  140.5115  156.0963 C   0  0  0  0  0  0  0  0  0  0  0  0
  150.0733  140.2130  155.4445 C   0  0  0  0  0  0  0  0  0  0  0  0
  150.1518  139.0908  154.6578 C   0  0  0  0  0  0  0  0  0  0  0  0
  149.2354  138.4669  153.8760 N   0  0  0  0  0  0  0  0  0  0  0  0
  147.9594  138.8243  153.6531 C   0  0  0  0  0  0  0  0  0  0  0  0
  147.3911  139.7910  154.1618 O   0  0  0  0  0  0  0  0  0  0  0  0
  147.3649  137.9863  152.7908 N   0  0  0  0  0  0  0  0  0  0  0  0
  145.9905  138.1092  152.3083 C   0  0  0  0  0  0  0  0  0  0  0  0
  145.0366  137.0575  152.9061 C   0  0  0  0  0  0  0  0  0  0  0  0
  144.6093  137.1957  154.0539 O   0  0  0  0  0  0  0  0  0  0  0  0
  144.6854  136.0077  152.1353 N   0  0  0  0  0  0  0  0  0  0  0  0
  143.8115  134.9061  152.5382 C   0  0  0  0  0  0  0  0  0  0  0  0
  143.9295  133.8595  151.4295 C   0  0  0  0  0  0  0  0  0  0  0  0
  144.3262  134.6636  150.1993 C   0  0  0  0  0  0  0  0  0  0  0  0
  145.1490  135.8230  150.7615 C   0  0  0  0  0  0  0  0  0  0  0  0
  151.7711  138.4882  154.7926 S   0  0  0  0  0  0  0  0  0  0  0  0
  152.3020  139.6808  155.8469 N   0  0  0  0  0  0  0  0  0  0  0  0
  150.7185  142.3952  156.9464 H   0  0  0  0  0  0  0  0  0  0  0  0
  152.4566  142.1996  156.7730 H   0  0  0  0  0  0  0  0  0  0  0  0
  151.5978  141.3467  158.0521 H   0  0  0  0  0  0  0  0  0  0  0  0
  149.1978  140.8294  155.5812 H   0  0  0  0  0  0  0  0  0  0  0  0
  149.5629  137.6414  153.3961 H   0  0  0  0  0  0  0  0  0  0  0  0
  147.9091  137.2224  152.4180 H   0  0  0  0  0  0  0  0  0  0  0  0
  145.6295  139.1024  152.5757 H   0  0  0  0  0  0  0  0  0  0  0  0
  145.9785  138.0509  151.2187 H   0  0  0  0  0  0  0  0  0  0  0  0
  144.0922  134.4853  153.5045 H   0  0  0  0  0  0  0  0  0  0  0  0
  142.7859  135.2708  152.6083 H   0  0  0  0  0  0  0  0  0  0  0  0
  144.7253  133.1550  151.6754 H   0  0  0  0  0  0  0  0  0  0  0  0
  143.0111  133.2897  151.2859 H   0  0  0  0  0  0  0  0  0  0  0  0
  144.8738  134.0727  149.4645 H   0  0  0  0  0  0  0  0  0  0  0  0
  143.4300  135.0528  149.7143 H   0  0  0  0  0  0  0  0  0  0  0  0
  145.0245  136.7252  150.1604 H   0  0  0  0  0  0  0  0  0  0  0  0
  146.2100  135.5690  150.7769 H   0  0  0  0  0  0  0  0  0  0  0  0
  1  2  1  0  0  0  0
  1 19  1  0  0  0  0
  1 20  1  0  0  0  0
  1 21  1  0  0  0  0
  2 18  2  0  0  0  0
  2  3  1  0  0  0  0
  3  4  2  0  0  0  0
  3 22  1  0  0  0  0
  4  5  1  0  0  0  0
  4 17  1  0  0  0  0
  5  6  1  0  0  0  0
  5 23  1  0  0  0  0
  6  7  2  0  0  0  0
  6  8  1  0  0  0  0
  8  9  1  0  0  0  0
  8 24  1  0  0  0  0
  9 10  1  0  0  0  0
  9 25  1  0  0  0  0
  9 26  1  0  0  0  0
 10 11  2  0  0  0  0
 10 12  1  0  0  0  0
 12 16  1  0  0  0  0
 12 13  1  0  0  0  0
 13 14  1  0  0  0  0
 13 27  1  0  0  0  0
 13 28  1  0  0  0  0
 14 15  1  0  0  0  0
 14 29  1  0  0  0  0
 14 30  1  0  0  0  0
 15 16  1  0  0  0  0
 15 31  1  0  0  0  0
 15 32  1  0  0  0  0
 16 33  1  0  0  0  0
 16 34  1  0  0  0  0
 17 18  1  0  0  0  0
M  END
> <s_m_source_file>
AV-unprocessed.smi

> <i_m_source_file_index>
929

> <i_lp_mmshare_version>
43012

> <i_f3d_flags>
0

> <s_epik_input>
W0NIM11jMVtjSF1jKHNuMSlbTkhdQyg9TylbTkhdW0NIMl1DKD1PKU4yW0NIMl1bQ0gyXVtDSDJdW0NIMl0y

> <s_epik_cmdline>
J2VwaWtfcHl0aG9uJywgJy1waCcsICc3LjAnLCAnLXRuJywgJzgnLCAnLW1hJywgJzIwMCcsICctbWV0YWxfYmluZGluZycsICctaW1hZScsICc8aW5maWxlLm1hZT4nLCAnLW9tYWUnLCAnPG91dGZpbGUubWFlPic=

> <r_lp_tautomer_probability>
1

> <r_epik_Ionization_Penalty>
3.14678e-05

> <r_epik_Ionization_Penalty_Charging>
0

> <r_epik_Ionization_Penalty_Neutral>
3.14678e-05

> <r_epik_State_Penalty>
-0

> <r_epik_Charging_Adjusted_Penalty>
0

> <i_epik_Tot_Q>
0

> <i_epik_Tot_abs_Q>
0

> <r_epik_Metal_State_Penalty>
-0

> <b_epik_Metal_Only>
0

> <s_lp_Force_Field>
OPLS_2005

> <r_lp_Energy>
23.5851

> <b_lp_Chiralities_Consistent>
1

> <s_lp_Variant>
AV-unprocessed.smi:929-1

> <Gold.Version>
5.8.1

> <Gold.Id.Protein>
6NUR|6NUR_protein|mol2

> <Gold.PLP.Fitness>
38.4426

> <Gold.PLP.PLP>
-31.9637

> <Gold.PLP.part.hbond>
-3.9495

> <Gold.PLP.part.metal>
0.0000

> <Gold.PLP.part.buried>
-3.4156

> <Gold.PLP.part.nonpolar>
-25.7887

> <Gold.PLP.part.repulsive>
0.3306

> <Gold.PLP.ligand.clash>
0.0000

> <Gold.PLP.ligand.torsion>
0.3043

> <Gold.PLP.Chemscore.Hbond>
2.3608

> <Gold.PLP.Chemscore.CHOScore>
0.0000

> <Gold.PLP.Chemscore.Metal>
0.0000

> <Gold.Chemscore.Hbonds>
donor molecule, donor type, donor heavy atom, donor atom, acceptor molecule, acceptor atom, score
      L1  H     5    23       P1  7948  0.61
      L1  H     8    24       P1  7948  1.00
      P1  H  7997  8008       L1    18  0.76

> <Gold.PLP.Chemscore.Internal.Correction>
0.0051

> <Gold.Rescore>
     Score         DG    S(hbond)    S(metal)    S(lipo)     H(rot)  DE(clash)    DE(int)     intcor
     15.92     -18.04       2.42        0.00      66.64       1.29       0.82       1.30       ----

> <Gold.Chemscore.Fitness>
15.9235

> <Gold.Chemscore.DG>
-18.0431

> <Gold.Chemscore.ZeroCoef>
-5.4800

> <Gold.Chemscore.Hbond>
2.4180

> <Gold.Chemscore.Metal>
0.0000

> <Gold.Chemscore.Lipo>
66.6446

> <Gold.Chemscore.Internal_Hbond>
0.0000

> <Gold.Chemscore.DEClash>
0.8169

> <Gold.Chemscore.DEInternal>
1.3027

> <Gold.Chemscore.Rot>
1.2931

> <Gold.Chemscore.Internal.Correction>
   9.000000E+99

> <Gold.Chemscore.Hbonds>
donor molecule, donor type, donor heavy atom, donor atom, acceptor molecule, acceptor atom, score
      L1  H     5    23       P1  7948  0.53
      L1  H     8    24       P1  7948  0.93
      P1  H  7997  8008       L1    18  0.74

> <Gold.Chemscore.Hbond.Weighted>
-8.0761

> <Gold.Chemscore.Metal.Weighted>
-0.0000

> <Gold.Chemscore.Lipo.Weighted>
-7.7974

> <Gold.Chemscore.Internal_Hbond.Weighted>
0.0000

> <Gold.Chemscore.DEClash.Weighted>
0.8169

> <Gold.Chemscore.DEInternal.Weighted>
1.3027

> <Gold.Chemscore.Rot.Weighted>
3.3105

> <Gold.Chemscore.Internal.Correction.Weighted>
   9.000000E+99

> <Gold.Protein.RotatedTorsions>
[ 6907 6896 6895 6894 ] final  -14.86 input  -60.11 | X-H torsion
[ 7974 7965 7964 7962 ] final   10.24 input  175.53 | X-H torsion
[ 8008 7997 7996 7995 ] final  -33.29 input   59.86 | X-H torsion
[ 10167 10162 10161 10158 ] final -102.23 input  -65.29 | X-H torsion
[ 10718 10713 10712 10709 ] final  -67.25 input   66.30 | X-H torsion
[ 10763 10752 10751 10750 ] final -125.73 input  -60.55 | X-H torsion
[ 11005 11000 10999 10996 ] final -123.54 input  -57.11 | X-H torsion

> <Gold.Protein.ActiveResidues>
 VAL166  LYS551  ARG553  GLY616  TRP617  ASP618  TYR619  PRO620  LYS621  CYS622 
 ASP623  PHE694  ASN695  SER759  ASP760  ASP761  ALA762  ILE779  LEU786  VAL792 
 PHE793  MET794  SER795  GLU796  ALA797  LYS798  CYS799  TRP800  GLU811  SER814 

> <Gold.Protein.RotatedAtoms>
  151.3329  135.0846  159.9344 H   0  0  0  0  0  0  0  0  0  0  0  0  # atno 6907 bound_to 6896
  152.5230  133.9525  159.7689 H   0  0  0  0  0  0  0  0  0  0  0  0  # atno 6908 bound_to 6896
  150.9867  133.6138  159.2744 H   0  0  0  0  0  0  0  0  0  0  0  0  # atno 6909 bound_to 6896
  146.2391  139.9664  142.8452 H   0  0  0  0  0  0  0  0  0  0  0  0  # atno 7974 bound_to 7965
  154.4153  140.1714  156.1864 H   0  0  0  0  0  0  0  0  0  0  0  0  # atno 8008 bound_to 7997
  155.9640  140.3391  155.6492 H   0  0  0  0  0  0  0  0  0  0  0  0  # atno 8009 bound_to 7997
  155.6712  140.0712  157.2510 H   0  0  0  0  0  0  0  0  0  0  0  0  # atno 8010 bound_to 7997
  140.2329  143.3593  152.0870 H   0  0  0  0  0  0  0  0  0  0  0  0  # atno 10167 bound_to 10162
  156.0568  130.4275  150.1826 H   0  0  0  0  0  0  0  0  0  0  0  0  # atno 10718 bound_to 10713
  154.8739  135.4019  154.3315 H   0  0  0  0  0  0  0  0  0  0  0  0  # atno 10763 bound_to 10752
  153.4128  135.7021  153.6353 H   0  0  0  0  0  0  0  0  0  0  0  0  # atno 10764 bound_to 10752
  153.5048  135.3720  155.2528 H   0  0  0  0  0  0  0  0  0  0  0  0  # atno 10765 bound_to 10752
  140.9911  134.0538  157.3654 H   0  0  0  0  0  0  0  0  0  0  0  0  # atno 11005 bound_to 11000
  145.1722  140.9726  143.4315 LP  0  0  0  0  0  0  0  0  0  0  0  0  # atno 17320 bound_to 7965
  145.0018  139.3591  143.6164 LP  0  0  0  0  0  0  0  0  0  0  0  0  # atno 17321 bound_to 7965
  139.5104  144.6883  151.5829 LP  0  0  0  0  0  0  0  0  0  0  0  0  # atno 17342 bound_to 10162
  140.6171  143.9327  150.6497 LP  0  0  0  0  0  0  0  0  0  0  0  0  # atno 17343 bound_to 10162
  156.9901  130.9891  151.3417 LP  0  0  0  0  0  0  0  0  0  0  0  0  # atno 17370 bound_to 10713
  157.5544  130.8204  149.8186 LP  0  0  0  0  0  0  0  0  0  0  0  0  # atno 17371 bound_to 10713
  139.8992  135.0158  156.7187 LP  0  0  0  0  0  0  0  0  0  0  0  0  # atno 17394 bound_to 11000
  140.7039  133.9282  155.8041 LP  0  0  0  0  0  0  0  0  0  0  0  0  # atno 17395 bound_to 11000

$$$$
