AV-unprocessed.smi:823|AV-procd|sdf|3847|dock1
  -GOLD-   22720 1293D 1   1.00000     0.00000
 Structure written by MMmdl.
 46 47  0  0  0  0  0  0  0  0  1 V2000
  152.7612  142.2619  161.6824 C   0  0  0  0  0  0  0  0  0  0  0  0
  152.5658  142.6622  160.2163 C   0  0  1  0  0  0  0  0  0  0  0  0
  152.1717  141.4603  159.3369 C   0  0  0  0  0  0  0  0  0  0  0  0
  151.8860  141.8958  157.9711 N   0  0  0  0  0  0  0  0  0  0  0  0
  151.7661  140.9056  156.9714 C   0  0  0  0  0  0  0  0  0  0  0  0
  150.7206  140.9756  156.0199 C   0  0  0  0  0  0  0  0  0  0  0  0
  150.6236  139.9786  155.0307 C   0  0  0  0  0  0  0  0  0  0  0  0
  151.5732  138.9386  155.0086 C   0  0  0  0  0  0  0  0  0  0  0  0
  151.4866  137.8490  153.9476 C   0  0  0  0  0  0  0  0  0  0  0  0
  150.4797  136.8263  154.2120 N   0  0  0  0  0  0  0  0  0  0  0  0
  150.5820  135.8728  155.1503 C   0  0  0  0  0  0  0  0  0  0  0  0
  151.5711  135.7398  155.8728 O   0  0  0  0  0  0  0  0  0  0  0  0
  149.3781  134.9290  155.2927 C   0  0  1  0  0  0  0  0  0  0  0  0
  148.1740  135.7452  155.7917 C   0  0  0  0  0  0  0  0  0  0  0  0
  149.0321  134.3536  153.9943 N   0  0  0  0  0  0  0  0  0  0  0  0
  148.8208  133.0491  153.7637 C   0  0  0  0  0  0  0  0  0  0  0  0
  148.5395  132.7992  152.4846 N   0  0  0  0  0  0  0  0  0  0  0  0
  148.8771  132.1710  154.6227 O   0  0  0  0  0  0  0  0  0  0  0  0
  152.5795  138.9480  155.9993 C   0  0  0  0  0  0  0  0  0  0  0  0
  152.6772  139.9015  156.9490 N   0  0  0  0  0  0  0  0  0  0  0  0
  150.9185  142.9879  157.9037 C   0  0  0  0  0  0  0  0  0  0  0  0
  151.3458  144.1378  158.8311 C   0  0  0  0  0  0  0  0  0  0  0  0
  151.5368  143.6459  160.1535 O   0  0  0  0  0  0  0  0  0  0  0  0
  153.5480  141.5137  161.7829 H   0  0  0  0  0  0  0  0  0  0  0  0
  151.8459  141.8439  162.1025 H   0  0  0  0  0  0  0  0  0  0  0  0
  153.0425  143.1237  162.2878 H   0  0  0  0  0  0  0  0  0  0  0  0
  153.4976  143.0959  159.8481 H   0  0  0  0  0  0  0  0  0  0  0  0
  152.9843  140.7325  159.3365 H   0  0  0  0  0  0  0  0  0  0  0  0
  151.2903  140.9655  159.7477 H   0  0  0  0  0  0  0  0  0  0  0  0
  150.0066  141.7854  156.0258 H   0  0  0  0  0  0  0  0  0  0  0  0
  149.8334  140.0188  154.2955 H   0  0  0  0  0  0  0  0  0  0  0  0
  151.2489  138.3203  152.9939 H   0  0  0  0  0  0  0  0  0  0  0  0
  152.4624  137.3761  153.8240 H   0  0  0  0  0  0  0  0  0  0  0  0
  149.6336  136.8631  153.6620 H   0  0  0  0  0  0  0  0  0  0  0  0
  149.5994  134.1317  156.0055 H   0  0  0  0  0  0  0  0  0  0  0  0
  148.3783  136.1982  156.7628 H   0  0  0  0  0  0  0  0  0  0  0  0
  147.2960  135.1092  155.9099 H   0  0  0  0  0  0  0  0  0  0  0  0
  147.9086  136.5463  155.0998 H   0  0  0  0  0  0  0  0  0  0  0  0
  148.9702  134.9930  153.2160 H   0  0  0  0  0  0  0  0  0  0  0  0
  148.3549  131.8551  152.1797 H   0  0  0  0  0  0  0  0  0  0  0  0
  148.5081  133.5623  151.8242 H   0  0  0  0  0  0  0  0  0  0  0  0
  153.3302  138.1724  156.0389 H   0  0  0  0  0  0  0  0  0  0  0  0
  150.8096  143.3726  156.8907 H   0  0  0  0  0  0  0  0  0  0  0  0
  149.9410  142.6094  158.2055 H   0  0  0  0  0  0  0  0  0  0  0  0
  152.2620  144.6082  158.4702 H   0  0  0  0  0  0  0  0  0  0  0  0
  150.5775  144.9108  158.8484 H   0  0  0  0  0  0  0  0  0  0  0  0
  1  2  1  0  0  0  0
  1 24  1  0  0  0  0
  1 25  1  0  0  0  0
  1 26  1  0  0  0  0
  2 23  1  0  0  0  0
  2  3  1  0  0  0  0
  2 27  1  0  0  0  0
  3  4  1  0  0  0  0
  3 28  1  0  0  0  0
  3 29  1  0  0  0  0
  4  5  1  0  0  0  0
  4 21  1  0  0  0  0
  5 20  1  0  0  0  0
  5  6  2  0  0  0  0
  6  7  1  0  0  0  0
  6 30  1  0  0  0  0
  7  8  2  0  0  0  0
  7 31  1  0  0  0  0
  8  9  1  0  0  0  0
  8 19  1  0  0  0  0
  9 10  1  0  0  0  0
  9 32  1  0  0  0  0
  9 33  1  0  0  0  0
 10 11  1  0  0  0  0
 10 34  1  0  0  0  0
 11 12  2  0  0  0  0
 11 13  1  0  0  0  0
 13 14  1  0  0  0  0
 13 15  1  0  0  0  0
 13 35  1  0  0  0  0
 14 36  1  0  0  0  0
 14 37  1  0  0  0  0
 14 38  1  0  0  0  0
 15 16  1  0  0  0  0
 15 39  1  0  0  0  0
 16 17  1  0  0  0  0
 16 18  2  0  0  0  0
 17 40  1  0  0  0  0
 17 41  1  0  0  0  0
 19 20  2  0  0  0  0
 19 42  1  0  0  0  0
 21 22  1  0  0  0  0
 21 43  1  0  0  0  0
 21 44  1  0  0  0  0
 22 23  1  0  0  0  0
 22 45  1  0  0  0  0
 22 46  1  0  0  0  0
M  END
> <s_m_source_file>
AV-unprocessed.smi

> <i_m_source_file_index>
823

> <i_lp_mmshare_version>
43012

> <i_f3d_flags>
0

> <s_epik_input>
W0NIM11bQ0BASF0xW0NIMl1OKFtDSDJdW0NIMl1PMSljMltjSF1bY0hdYyhbY0hdbjIpW0NIMl1bTkhdQyg9TylbQ0BIXShbQ0gzXSlbTkhdQyg9TylbTkgyXQ==

> <s_epik_cmdline>
J2VwaWtfcHl0aG9uJywgJy1waCcsICc3LjAnLCAnLXRuJywgJzgnLCAnLW1hJywgJzIwMCcsICctbWV0YWxfYmluZGluZycsICctaW1hZScsICc8aW5maWxlLm1hZT4nLCAnLW9tYWUnLCAnPG91dGZpbGUubWFlPic=

> <r_lp_tautomer_probability>
1

> <r_epik_Ionization_Penalty>
0.00555043

> <r_epik_Ionization_Penalty_Charging>
0

> <r_epik_Ionization_Penalty_Neutral>
0.00555043

> <r_epik_State_Penalty>
0.00402575

> <r_epik_Charging_Adjusted_Penalty>
0.00402575

> <i_epik_Tot_Q>
0

> <i_epik_Tot_abs_Q>
0

> <r_epik_Metal_State_Penalty>
-0

> <b_epik_Metal_Only>
0

> <s_lp_Force_Field>
OPLS_2005

> <r_lp_Energy>
10.1678

> <b_lp_Chiralities_Consistent>
1

> <s_lp_Variant>
AV-unprocessed.smi:823-4

> <Gold.Version>
5.8.1

> <Gold.Id.Protein>
6NUR|6NUR_protein|mol2

> <Gold.PLP.Fitness>
53.8229

> <Gold.PLP.PLP>
-43.8185

> <Gold.PLP.part.hbond>
-6.0000

> <Gold.PLP.part.metal>
0.0000

> <Gold.PLP.part.buried>
-2.4745

> <Gold.PLP.part.nonpolar>
-34.3683

> <Gold.PLP.part.repulsive>
0.1919

> <Gold.PLP.ligand.clash>
0.0000

> <Gold.PLP.ligand.torsion>
0.7405

> <Gold.PLP.Chemscore.Hbond>
3.7046

> <Gold.PLP.Chemscore.CHOScore>
0.0000

> <Gold.PLP.Chemscore.Metal>
0.0000

> <Gold.Chemscore.Hbonds>
donor molecule, donor type, donor heavy atom, donor atom, acceptor molecule, acceptor atom, score
      L1  H    10    34       P1  7948  0.75
      L1  H    15    39       P1  7948  0.95
      L1  H    17    40       P1 10747  0.28
      P1  H  7997  8008       L1    20  0.73
      P1  H 10752 10765       L1    12  1.00

> <Gold.PLP.Chemscore.Internal.Correction>
0.3717

> <Gold.Rescore>
     Score         DG    S(hbond)    S(metal)    S(lipo)     H(rot)  DE(clash)    DE(int)     intcor
     18.13     -19.07       2.76        0.00      94.55       2.62       0.24       0.71       ----

> <Gold.Chemscore.Fitness>
18.1255

> <Gold.Chemscore.DG>
-19.0737

> <Gold.Chemscore.ZeroCoef>
-5.4800

> <Gold.Chemscore.Hbond>
2.7633

> <Gold.Chemscore.Metal>
0.0000

> <Gold.Chemscore.Lipo>
94.5474

> <Gold.Chemscore.Internal_Hbond>
0.0000

> <Gold.Chemscore.DEClash>
0.2363

> <Gold.Chemscore.DEInternal>
0.7119

> <Gold.Chemscore.Rot>
2.6163

> <Gold.Chemscore.Internal.Correction>
   9.000000E+99

> <Gold.Chemscore.Hbonds>
donor molecule, donor type, donor heavy atom, donor atom, acceptor molecule, acceptor atom, score
      L1  H    10    34       P1  7948  0.53
      L1  H    15    39       P1  7948  0.22
      L1  H    17    40       P1 10747  0.29
      P1  H  7997  8008       L1    20  0.09
      P1  H 10752 10765       L1    12  0.55

> <Gold.Chemscore.Hbond.Weighted>
-9.2294

> <Gold.Chemscore.Metal.Weighted>
-0.0000

> <Gold.Chemscore.Lipo.Weighted>
-11.0620

> <Gold.Chemscore.Internal_Hbond.Weighted>
0.0000

> <Gold.Chemscore.DEClash.Weighted>
0.2363

> <Gold.Chemscore.DEInternal.Weighted>
0.7119

> <Gold.Chemscore.Rot.Weighted>
6.6978

> <Gold.Chemscore.Internal.Correction.Weighted>
   9.000000E+99

> <Gold.Protein.RotatedTorsions>
[ 6907 6896 6895 6894 ] final -114.58 input  -60.11 | X-H torsion
[ 7974 7965 7964 7962 ] final  143.10 input  175.53 | X-H torsion
[ 8008 7997 7996 7995 ] final  -74.13 input   59.86 | X-H torsion
[ 10167 10162 10161 10158 ] final  -84.84 input  -65.29 | X-H torsion
[ 10718 10713 10712 10709 ] final  -91.23 input   66.30 | X-H torsion
[ 10763 10752 10751 10750 ] final -170.52 input  -60.55 | X-H torsion
[ 11005 11000 10999 10996 ] final  -32.59 input  -57.11 | X-H torsion

> <Gold.Protein.ActiveResidues>
 VAL166  LYS551  ARG553  GLY616  TRP617  ASP618  TYR619  PRO620  LYS621  CYS622 
 ASP623  PHE694  ASN695  SER759  ASP760  ASP761  ALA762  ILE779  LEU786  VAL792 
 PHE793  MET794  SER795  GLU796  ALA797  LYS798  CYS799  TRP800  GLU811  SER814 

> <Gold.Protein.RotatedAtoms>
  150.7913  133.8781  159.3277 H   0  0  0  0  0  0  0  0  0  0  0  0  # atno 6907 bound_to 6896
  151.6618  135.0986  160.0190 H   0  0  0  0  0  0  0  0  0  0  0  0  # atno 6908 bound_to 6896
  152.3987  133.6746  159.6333 H   0  0  0  0  0  0  0  0  0  0  0  0  # atno 6909 bound_to 6896
  144.8950  139.5504  143.5780 H   0  0  0  0  0  0  0  0  0  0  0  0  # atno 7974 bound_to 7965
  154.5304  140.0767  156.8335 H   0  0  0  0  0  0  0  0  0  0  0  0  # atno 8008 bound_to 7997
  155.3386  140.3406  155.4221 H   0  0  0  0  0  0  0  0  0  0  0  0  # atno 8009 bound_to 7997
  156.1776  140.1641  156.8321 H   0  0  0  0  0  0  0  0  0  0  0  0  # atno 8010 bound_to 7997
  140.4094  143.2629  151.9038 H   0  0  0  0  0  0  0  0  0  0  0  0  # atno 10167 bound_to 10162
  155.9992  130.4940  150.5443 H   0  0  0  0  0  0  0  0  0  0  0  0  # atno 10718 bound_to 10713
  154.6406  135.2898  155.0108 H   0  0  0  0  0  0  0  0  0  0  0  0  # atno 10763 bound_to 10752
  154.1236  135.6544  153.4912 H   0  0  0  0  0  0  0  0  0  0  0  0  # atno 10764 bound_to 10752
  153.0324  135.5293  154.7271 H   0  0  0  0  0  0  0  0  0  0  0  0  # atno 10765 bound_to 10752
  140.9565  133.7190  156.1301 H   0  0  0  0  0  0  0  0  0  0  0  0  # atno 11005 bound_to 11000
  146.3076  139.7633  142.9044 LP  0  0  0  0  0  0  0  0  0  0  0  0  # atno 17320 bound_to 7965
  145.3716  141.0343  143.3228 LP  0  0  0  0  0  0  0  0  0  0  0  0  # atno 17321 bound_to 7965
  139.4783  144.5552  151.8324 LP  0  0  0  0  0  0  0  0  0  0  0  0  # atno 17342 bound_to 10162
  140.4654  144.1662  150.5911 LP  0  0  0  0  0  0  0  0  0  0  0  0  # atno 17343 bound_to 10162
  157.3375  131.0711  151.1814 LP  0  0  0  0  0  0  0  0  0  0  0  0  # atno 17370 bound_to 10713
  157.2673  130.6687  149.6003 LP  0  0  0  0  0  0  0  0  0  0  0  0  # atno 17371 bound_to 10713
  140.7529  134.4025  157.5538 LP  0  0  0  0  0  0  0  0  0  0  0  0  # atno 17394 bound_to 11000
  139.8864  134.8911  156.2589 LP  0  0  0  0  0  0  0  0  0  0  0  0  # atno 17395 bound_to 11000

$$$$
