AV-unprocessed.smi:37|AV-procd|sdf|316|dock1
  -GOLD-   2262016133D 1   1.00000     0.00000
 Structure written by MMmdl.
 44 45  0  0  0  0  0  0  0  0  1 V2000
  147.5589  134.1684  162.1695 C   0  0  0  0  0  0  0  0  0  0  0  0
  147.6135  135.6399  162.6036 C   0  0  0  0  0  0  0  0  0  0  0  0
  147.5428  136.6277  161.4377 C   0  0  0  0  0  0  0  0  0  0  0  0
  146.6291  137.4459  161.3187 O   0  0  0  0  0  0  0  0  0  0  0  0
  148.5782  136.4860  160.5987 O   0  0  0  0  0  0  0  0  0  0  0  0
  148.6528  137.2864  159.4295 C   0  0  0  0  0  0  0  0  0  0  0  0
  150.0582  137.8839  159.2702 C   0  0  1  0  0  0  0  0  0  0  0  0
  151.0465  136.8604  159.1537 O   0  0  0  0  0  0  0  0  0  0  0  0
  151.7549  136.9947  157.9562 C   0  0  1  0  0  0  0  0  0  0  0  0
  151.1363  136.0464  156.9355 N   0  0  0  0  0  0  0  0  0  0  0  0
  150.2801  134.9945  157.2558 C   0  0  0  0  0  0  0  0  0  0  0  0
  149.7702  134.1470  156.3306 C   0  0  0  0  0  0  0  0  0  0  0  0
  148.9518  133.1553  156.7206 F   0  0  0  0  0  0  0  0  0  0  0  0
  150.1045  134.2932  154.9184 C   0  0  0  0  0  0  0  0  0  0  0  0
  149.6966  133.5722  154.0102 O   0  0  0  0  0  0  0  0  0  0  0  0
  150.9685  135.3539  154.6400 N   0  0  0  0  0  0  0  0  0  0  0  0
  151.5006  136.2350  155.5820 C   0  0  0  0  0  0  0  0  0  0  0  0
  152.2570  137.1341  155.2172 O   0  0  0  0  0  0  0  0  0  0  0  0
  151.6563  138.4832  157.6049 C   0  0  2  0  0  0  0  0  0  0  0  0
  152.9996  139.4712  158.7031 Br  0  0  0  0  0  0  0  0  0  0  0  0
  150.2402  138.8181  158.0672 C   0  0  2  0  0  0  0  0  0  0  0  0
  150.0804  140.1852  158.4235 O   0  0  0  0  0  0  0  0  0  0  0  0
  150.4525  141.1533  157.5683 C   0  0  0  0  0  0  0  0  0  0  0  0
  151.1387  140.9928  156.5573 O   0  0  0  0  0  0  0  0  0  0  0  0
  149.9300  142.5259  157.9973 C   0  0  0  0  0  0  0  0  0  0  0  0
  151.0428  143.5435  158.2894 C   0  0  0  0  0  0  0  0  0  0  0  0
  151.2320  135.4940  153.6754 H   0  0  0  0  0  0  0  0  0  0  0  0
  147.6192  133.5111  163.0371 H   0  0  0  0  0  0  0  0  0  0  0  0
  148.3890  133.9181  161.5081 H   0  0  0  0  0  0  0  0  0  0  0  0
  146.6288  133.9405  161.6479 H   0  0  0  0  0  0  0  0  0  0  0  0
  146.7856  135.8504  163.2803 H   0  0  0  0  0  0  0  0  0  0  0  0
  148.5326  135.8244  163.1601 H   0  0  0  0  0  0  0  0  0  0  0  0
  148.4134  136.6769  158.5569 H   0  0  0  0  0  0  0  0  0  0  0  0
  147.9119  138.0853  159.4822 H   0  0  0  0  0  0  0  0  0  0  0  0
  150.3055  138.4276  160.1831 H   0  0  0  0  0  0  0  0  0  0  0  0
  152.7887  136.6567  158.0508 H   0  0  0  0  0  0  0  0  0  0  0  0
  149.9801  134.8081  158.2733 H   0  0  0  0  0  0  0  0  0  0  0  0
  151.8750  138.6967  156.5593 H   0  0  0  0  0  0  0  0  0  0  0  0
  149.5195  138.5427  157.2977 H   0  0  0  0  0  0  0  0  0  0  0  0
  149.2796  142.9098  157.2110 H   0  0  0  0  0  0  0  0  0  0  0  0
  149.3095  142.3962  158.8841 H   0  0  0  0  0  0  0  0  0  0  0  0
  150.6171  144.5035  158.5815 H   0  0  0  0  0  0  0  0  0  0  0  0
  151.6665  143.7139  157.4110 H   0  0  0  0  0  0  0  0  0  0  0  0
  151.6872  143.2079  159.1028 H   0  0  0  0  0  0  0  0  0  0  0  0
  1  2  1  0  0  0  0
  1 28  1  0  0  0  0
  1 29  1  0  0  0  0
  1 30  1  0  0  0  0
  2  3  1  0  0  0  0
  2 31  1  0  0  0  0
  2 32  1  0  0  0  0
  3  4  2  0  0  0  0
  3  5  1  0  0  0  0
  5  6  1  0  0  0  0
  6  7  1  0  0  0  0
  6 33  1  0  0  0  0
  6 34  1  0  0  0  0
  7 21  1  0  0  0  0
  7  8  1  0  0  0  0
  7 35  1  0  0  0  0
  8  9  1  0  0  0  0
  9 10  1  0  0  0  0
  9 19  1  0  0  0  0
  9 36  1  0  0  0  0
 10 17  1  0  0  0  0
 10 11  1  0  0  0  0
 11 12  2  0  0  0  0
 11 37  1  0  0  0  0
 12 13  1  0  0  0  0
 12 14  1  0  0  0  0
 14 15  2  0  0  0  0
 14 16  1  0  0  0  0
 16 27  1  0  0  0  0
 16 17  1  0  0  0  0
 17 18  2  0  0  0  0
 19 20  1  0  0  0  0
 19 21  1  0  0  0  0
 19 38  1  0  0  0  0
 21 22  1  0  0  0  0
 21 39  1  0  0  0  0
 22 23  1  0  0  0  0
 23 24  2  0  0  0  0
 23 25  1  0  0  0  0
 25 26  1  0  0  0  0
 25 40  1  0  0  0  0
 25 41  1  0  0  0  0
 26 42  1  0  0  0  0
 26 43  1  0  0  0  0
 26 44  1  0  0  0  0
M  END
> <s_m_source_file>
AV-unprocessed.smi

> <i_m_source_file_index>
37

> <i_lp_mmshare_version>
43012

> <i_f3d_flags>
0

> <s_epik_input>
W0NIM11bQ0gyXUMoPU8pT1tDSDJdW0NAQEhdMU9bQ0BASF0objJbY0hdYyhGKWMoPU8pW25IXWMyPU8pW0NAQEhdKEJyKVtDQEhdMU9DKD1PKVtDSDJdW0NIM10=

> <s_epik_cmdline>
J2VwaWtfcHl0aG9uJywgJy1waCcsICc3LjAnLCAnLXRuJywgJzgnLCAnLW1hJywgJzIwMCcsICctbWV0YWxfYmluZGluZycsICctaW1hZScsICc8aW5maWxlLm1hZT4nLCAnLW9tYWUnLCAnPG91dGZpbGUubWFlPic=

> <r_lp_tautomer_probability>
0.999537

> <r_epik_Ionization_Penalty>
0.104106

> <r_epik_Ionization_Penalty_Charging>
0.104106

> <r_epik_Ionization_Penalty_Neutral>
3.94675e-16

> <r_epik_State_Penalty>
0.0940182

> <r_epik_Charging_Adjusted_Penalty>
0.198124

> <i_epik_Tot_Q>
0

> <i_epik_Tot_abs_Q>
0

> <r_epik_Metal_State_Penalty>
3.05314

> <b_epik_Metal_Only>
0

> <s_epik_Chemistry_Notes>
This compound has an ester and may undergo hydrolysis at high or low pH. This compound contains an acetal/aminal-like group ( X-CH(R)-Y where X, Y are N, S, or O) that may be acid/base labile, releasing an aldehyde.

> <s_lp_Force_Field>
OPLS_2005

> <r_lp_Energy>
20.7256

> <b_lp_Chiralities_Consistent>
1

> <s_lp_Variant>
AV-unprocessed.smi:37-14

> <Gold.Version>
5.8.1

> <Gold.Id.Protein>
6NUR|6NUR_protein|mol2

> <Gold.PLP.Fitness>
42.1917

> <Gold.PLP.PLP>
-34.5880

> <Gold.PLP.part.hbond>
-4.4725

> <Gold.PLP.part.metal>
0.0000

> <Gold.PLP.part.buried>
-6.7664

> <Gold.PLP.part.nonpolar>
-24.5670

> <Gold.PLP.part.repulsive>
0.3670

> <Gold.PLP.ligand.clash>
0.0000

> <Gold.PLP.ligand.torsion>
0.8500

> <Gold.PLP.Chemscore.Hbond>
2.9680

> <Gold.PLP.Chemscore.CHOScore>
0.0000

> <Gold.PLP.Chemscore.Metal>
0.0000

> <Gold.Chemscore.Hbonds>
donor molecule, donor type, donor heavy atom, donor atom, acceptor molecule, acceptor atom, score
      L1  H    16    27       P1  7949  0.52
      P1  H  6896  6909       L1     8  0.93
      P1  H  6934  6947       L1     4  1.00

> <Gold.PLP.Chemscore.Internal.Correction>
0.3997

> <Gold.Rescore>
     Score         DG    S(hbond)    S(metal)    S(lipo)     H(rot)  DE(clash)    DE(int)     intcor
      9.37     -13.31       2.95        0.00      55.52       3.33       0.23       3.71       ----

> <Gold.Chemscore.Fitness>
9.3670

> <Gold.Chemscore.DG>
-13.3072

> <Gold.Chemscore.ZeroCoef>
-5.4800

> <Gold.Chemscore.Hbond>
2.9512

> <Gold.Chemscore.Metal>
0.0000

> <Gold.Chemscore.Lipo>
55.5200

> <Gold.Chemscore.Internal_Hbond>
0.0000

> <Gold.Chemscore.DEClash>
0.2345

> <Gold.Chemscore.DEInternal>
3.7057

> <Gold.Chemscore.Rot>
3.3303

> <Gold.Chemscore.Internal.Correction>
   9.000000E+99

> <Gold.Chemscore.Hbonds>
donor molecule, donor type, donor heavy atom, donor atom, acceptor molecule, acceptor atom, score
      L1  H    16    27       P1  7949  0.18
      P1  H  6896  6909       L1     8  0.74
      P1  H  6934  6947       L1     4  0.88

> <Gold.Chemscore.Hbond.Weighted>
-9.8570

> <Gold.Chemscore.Metal.Weighted>
-0.0000

> <Gold.Chemscore.Lipo.Weighted>
-6.4958

> <Gold.Chemscore.Internal_Hbond.Weighted>
0.0000

> <Gold.Chemscore.DEClash.Weighted>
0.2345

> <Gold.Chemscore.DEInternal.Weighted>
3.7057

> <Gold.Chemscore.Rot.Weighted>
8.5256

> <Gold.Chemscore.Internal.Correction.Weighted>
   9.000000E+99

> <Gold.Protein.RotatedTorsions>
[ 6907 6896 6895 6894 ] final   82.68 input  -60.11 | X-H torsion
[ 7974 7965 7964 7962 ] final -107.57 input  175.53 | X-H torsion
[ 8008 7997 7996 7995 ] final  161.12 input   59.86 | X-H torsion
[ 10167 10162 10161 10158 ] final -133.56 input  -65.29 | X-H torsion
[ 10718 10713 10712 10709 ] final  142.70 input   66.30 | X-H torsion
[ 10763 10752 10751 10750 ] final   65.90 input  -60.55 | X-H torsion
[ 11005 11000 10999 10996 ] final -147.02 input  -57.11 | X-H torsion

> <Gold.Protein.ActiveResidues>
 VAL166  LYS551  ARG553  GLY616  TRP617  ASP618  TYR619  PRO620  LYS621  CYS622 
 ASP623  PHE694  ASN695  SER759  ASP760  ASP761  ALA762  ILE779  LEU786  VAL792 
 PHE793  MET794  SER795  GLU796  ALA797  LYS798  CYS799  TRP800  GLU811  SER814 

> <Gold.Protein.RotatedAtoms>
  152.5306  134.3012  159.9079 H   0  0  0  0  0  0  0  0  0  0  0  0  # atno 6907 bound_to 6896
  151.2963  133.4136  159.2644 H   0  0  0  0  0  0  0  0  0  0  0  0  # atno 6908 bound_to 6896
  151.0157  134.9447  159.8089 H   0  0  0  0  0  0  0  0  0  0  0  0  # atno 6909 bound_to 6896
  145.2036  140.9067  143.3355 H   0  0  0  0  0  0  0  0  0  0  0  0  # atno 7974 bound_to 7965
  156.2125  140.1786  156.7662 H   0  0  0  0  0  0  0  0  0  0  0  0  # atno 8008 bound_to 7997
  154.5744  140.0677  156.9041 H   0  0  0  0  0  0  0  0  0  0  0  0  # atno 8009 bound_to 7997
  155.2615  140.3336  155.4275 H   0  0  0  0  0  0  0  0  0  0  0  0  # atno 8010 bound_to 7997
  139.8970  143.6653  152.2602 H   0  0  0  0  0  0  0  0  0  0  0  0  # atno 10167 bound_to 10162
  157.3775  131.0987  151.0770 H   0  0  0  0  0  0  0  0  0  0  0  0  # atno 10718 bound_to 10713
  153.0116  135.5340  154.6740 H   0  0  0  0  0  0  0  0  0  0  0  0  # atno 10763 bound_to 10752
  154.5917  135.2859  155.0630 H   0  0  0  0  0  0  0  0  0  0  0  0  # atno 10764 bound_to 10752
  154.1721  135.6530  153.5064 H   0  0  0  0  0  0  0  0  0  0  0  0  # atno 10765 bound_to 10752
  140.7760  134.3134  157.5060 H   0  0  0  0  0  0  0  0  0  0  0  0  # atno 11005 bound_to 11000
  144.9924  139.3677  143.6208 LP  0  0  0  0  0  0  0  0  0  0  0  0  # atno 17320 bound_to 7965
  146.3412  139.9112  142.8780 LP  0  0  0  0  0  0  0  0  0  0  0  0  # atno 17321 bound_to 7965
  139.7059  144.7628  151.1194 LP  0  0  0  0  0  0  0  0  0  0  0  0  # atno 17342 bound_to 10162
  140.7715  143.5396  150.9328 LP  0  0  0  0  0  0  0  0  0  0  0  0  # atno 17343 bound_to 10162
  157.1852  130.6327  149.5685 LP  0  0  0  0  0  0  0  0  0  0  0  0  # atno 17370 bound_to 10713
  155.9768  130.4740  150.6554 LP  0  0  0  0  0  0  0  0  0  0  0  0  # atno 17371 bound_to 10713
  139.8749  134.9290  156.3464 LP  0  0  0  0  0  0  0  0  0  0  0  0  # atno 17394 bound_to 11000
  140.9528  133.7439  156.0295 LP  0  0  0  0  0  0  0  0  0  0  0  0  # atno 17395 bound_to 11000

$$$$
