AV-unprocessed.smi:1801|AV-procd|sdf|7267|dock8
  -GOLD-   22720 8523D 1   1.00000     0.00000
 Structure written by MMmdl.
 38 39  0  0  0  0  0  0  0  0  2 V2000
  143.9948  137.1216  152.4959 C   0  0  0  0  0  0  0  0  0  0  0  0
  144.5852  135.7300  152.2119 C   0  0  2  0  0  0  0  0  0  0  0  0
  145.6544  135.3848  153.2750 C   0  0  0  0  0  0  0  0  0  0  0  0
  146.8497  136.2216  153.1978 N   0  0  0  0  0  0  0  0  0  0  0  0
  147.0167  137.3997  153.8164 C   0  0  0  0  0  0  0  0  0  0  0  0
  146.1640  137.9120  154.5416 O   0  0  0  0  0  0  0  0  0  0  0  0
  148.2216  137.9280  153.5390 N   0  0  0  0  0  0  0  0  0  0  0  0
  148.7921  139.1279  154.0402 C   0  0  0  0  0  0  0  0  0  0  0  0
  150.0235  139.2017  154.5695 N   0  0  0  0  0  0  0  0  0  0  0  0
  150.3379  140.4924  154.9750 N   0  0  0  0  0  0  0  0  0  0  0  0
  149.3338  141.3402  154.7346 C   0  0  0  0  0  0  0  0  0  0  0  0
  147.9066  140.6455  153.9850 S   0  0  0  0  0  0  0  0  0  0  0  0
  145.1355  135.6361  150.7691 C   0  0  0  0  0  0  0  0  0  0  0  0
  145.2140  134.2384  150.2816 N   0  3  0  0  0  0  0  0  0  0  0  0
  146.3019  133.4465  150.8887 C   0  0  0  0  0  0  0  0  0  0  0  0
  145.8771  131.9934  150.7071 C   0  0  0  0  0  0  0  0  0  0  0  0
  144.3661  132.0536  150.9075 C   0  0  0  0  0  0  0  0  0  0  0  0
  143.9638  133.4503  150.4143 C   0  0  0  0  0  0  0  0  0  0  0  0
  144.7505  137.9015  152.3975 H   0  0  0  0  0  0  0  0  0  0  0  0
  143.5921  137.1767  153.5078 H   0  0  0  0  0  0  0  0  0  0  0  0
  143.1801  137.3588  151.8114 H   0  0  0  0  0  0  0  0  0  0  0  0
  143.7730  135.0114  152.3217 H   0  0  0  0  0  0  0  0  0  0  0  0
  145.2330  135.4996  154.2742 H   0  0  0  0  0  0  0  0  0  0  0  0
  145.9508  134.3383  153.1863 H   0  0  0  0  0  0  0  0  0  0  0  0
  147.6012  135.8831  152.6148 H   0  0  0  0  0  0  0  0  0  0  0  0
  148.8041  137.4072  152.9000 H   0  0  0  0  0  0  0  0  0  0  0  0
  149.4348  142.3825  154.9984 H   0  0  0  0  0  0  0  0  0  0  0  0
  144.4931  136.2126  150.1017 H   0  0  0  0  0  0  0  0  0  0  0  0
  146.1296  136.0780  150.6947 H   0  0  0  0  0  0  0  0  0  0  0  0
  147.2651  133.6642  150.4267 H   0  0  0  0  0  0  0  0  0  0  0  0
  146.3763  133.6759  151.9532 H   0  0  0  0  0  0  0  0  0  0  0  0
  146.1055  131.6631  149.6926 H   0  0  0  0  0  0  0  0  0  0  0  0
  146.3718  131.3153  151.4033 H   0  0  0  0  0  0  0  0  0  0  0  0
  143.8420  131.2546  150.3817 H   0  0  0  0  0  0  0  0  0  0  0  0
  144.1339  131.9591  151.9695 H   0  0  0  0  0  0  0  0  0  0  0  0
  143.2602  133.9100  151.1105 H   0  0  0  0  0  0  0  0  0  0  0  0
  143.4769  133.3991  149.4399 H   0  0  0  0  0  0  0  0  0  0  0  0
  145.4194  134.2773  149.2932 H   0  0  0  0  0  0  0  0  0  0  0  0
  1  2  1  0  0  0  0
  1 19  1  0  0  0  0
  1 20  1  0  0  0  0
  1 21  1  0  0  0  0
  2  3  1  0  0  0  0
  2 13  1  0  0  0  0
  2 22  1  0  0  0  0
  3  4  1  0  0  0  0
  3 23  1  0  0  0  0
  3 24  1  0  0  0  0
  4  5  1  0  0  0  0
  4 25  1  0  0  0  0
  5  6  2  0  0  0  0
  5  7  1  0  0  0  0
  7  8  1  0  0  0  0
  7 26  1  0  0  0  0
  8 12  1  0  0  0  0
  8  9  2  0  0  0  0
  9 10  1  0  0  0  0
 10 11  2  0  0  0  0
 11 12  1  0  0  0  0
 11 27  1  0  0  0  0
 13 14  1  0  0  0  0
 13 28  1  0  0  0  0
 13 29  1  0  0  0  0
 14 18  1  0  0  0  0
 14 15  1  0  0  0  0
 14 38  1  0  0  0  0
 15 16  1  0  0  0  0
 15 30  1  0  0  0  0
 15 31  1  0  0  0  0
 16 17  1  0  0  0  0
 16 32  1  0  0  0  0
 16 33  1  0  0  0  0
 17 18  1  0  0  0  0
 17 34  1  0  0  0  0
 17 35  1  0  0  0  0
 18 36  1  0  0  0  0
 18 37  1  0  0  0  0
M  CHG  1  14   1
M  END
> <s_m_source_file>
AV-unprocessed.smi

> <i_m_source_file_index>
1801

> <i_lp_mmshare_version>
43012

> <i_f3d_flags>
0

> <s_epik_input>
W0NIMl0xW0NIMl1bQ0gyXVtDSDJdTjFbQ0gyXVtDQEhdKFtDSDNdKVtDSDJdW05IXUMoPU8pW05IXWMybm5bY0hdczI=

> <s_epik_cmdline>
J2VwaWtfcHl0aG9uJywgJy1waCcsICc3LjAnLCAnLXRuJywgJzgnLCAnLW1hJywgJzIwMCcsICctbWV0YWxfYmluZGluZycsICctaW1hZScsICc8aW5maWxlLm1hZT4nLCAnLW9tYWUnLCAnPG91dGZpbGUubWFlPic=

> <r_lp_tautomer_probability>
1

> <r_epik_Ionization_Penalty>
0.00281598

> <r_epik_Ionization_Penalty_Charging>
0.000371708

> <r_epik_Ionization_Penalty_Neutral>
0.00244427

> <r_epik_State_Penalty>
-0

> <r_epik_Charging_Adjusted_Penalty>
0.000371708

> <i_epik_Tot_Q>
1

> <i_epik_Tot_abs_Q>
1

> <r_epik_Metal_State_Penalty>
0.350595

> <b_epik_Metal_Only>
0

> <s_lp_Force_Field>
OPLS_2005

> <r_lp_Energy>
28.9171

> <b_lp_Chiralities_Consistent>
1

> <s_lp_Variant>
AV-unprocessed.smi:1801-1

> <Gold.Version>
5.8.1

> <Gold.Id.Protein>
6NUR|6NUR_protein|mol2

> <Gold.PLP.Fitness>
42.1074

> <Gold.PLP.PLP>
-29.4488

> <Gold.PLP.part.hbond>
-3.5756

> <Gold.PLP.part.metal>
0.0000

> <Gold.PLP.part.buried>
-2.3662

> <Gold.PLP.part.nonpolar>
-24.0639

> <Gold.PLP.part.repulsive>
0.3942

> <Gold.PLP.ligand.clash>
0.0000

> <Gold.PLP.ligand.torsion>
0.9050

> <Gold.PLP.Chemscore.Hbond>
3.8100

> <Gold.PLP.Chemscore.CHOScore>
1.0000

> <Gold.PLP.Chemscore.Metal>
0.0000

> <Gold.Chemscore.Hbonds>
donor molecule, donor type, donor heavy atom, donor atom, acceptor molecule, acceptor atom, score
      L1  H     4    25       P1  7948  0.96
      L1  H     7    26       P1  7948  1.00
      L1  H    14    38       P1  7921  1.00
      P1  H  7989  7998       L1    10  0.84
      L1  C    11    27       P1  8028  1.00

> <Gold.PLP.Chemscore.Internal.Correction>
0.0387

> <Gold.Rescore>
     Score         DG    S(hbond)    S(metal)    S(lipo)     H(rot)  DE(clash)    DE(int)     intcor
     16.76     -17.70       2.91        0.00      64.45       1.97       0.02       0.92       ----

> <Gold.Chemscore.Fitness>
16.7626

> <Gold.Chemscore.DG>
-17.7029

> <Gold.Chemscore.ZeroCoef>
-5.4800

> <Gold.Chemscore.Hbond>
2.9094

> <Gold.Chemscore.Metal>
0.0000

> <Gold.Chemscore.Lipo>
64.4482

> <Gold.Chemscore.Internal_Hbond>
0.0000

> <Gold.Chemscore.DEClash>
0.0216

> <Gold.Chemscore.DEInternal>
0.9187

> <Gold.Chemscore.Rot>
1.9667

> <Gold.Chemscore.Internal.Correction>
   9.000000E+99

> <Gold.Chemscore.Hbonds>
donor molecule, donor type, donor heavy atom, donor atom, acceptor molecule, acceptor atom, score
      L1  H     4    25       P1  7948  0.90
      L1  H     7    26       P1  7948  0.92
      L1  H    14    38       P1  7921  0.92
      P1  H  7989  7998       L1    10  0.05

> <Gold.Chemscore.Hbond.Weighted>
-9.7173

> <Gold.Chemscore.Metal.Weighted>
-0.0000

> <Gold.Chemscore.Lipo.Weighted>
-7.5404

> <Gold.Chemscore.Internal_Hbond.Weighted>
0.0000

> <Gold.Chemscore.DEClash.Weighted>
0.0216

> <Gold.Chemscore.DEInternal.Weighted>
0.9187

> <Gold.Chemscore.Rot.Weighted>
5.0348

> <Gold.Chemscore.Internal.Correction.Weighted>
   9.000000E+99

> <Gold.Protein.RotatedTorsions>
[ 6907 6896 6895 6894 ] final   42.21 input  -60.11 | X-H torsion
[ 7974 7965 7964 7962 ] final   48.97 input  175.53 | X-H torsion
[ 8008 7997 7996 7995 ] final   57.18 input   59.86 | X-H torsion
[ 10167 10162 10161 10158 ] final  136.75 input  -65.29 | X-H torsion
[ 10718 10713 10712 10709 ] final -133.71 input   66.30 | X-H torsion
[ 10763 10752 10751 10750 ] final  179.28 input  -60.55 | X-H torsion
[ 11005 11000 10999 10996 ] final -169.90 input  -57.11 | X-H torsion

> <Gold.Protein.ActiveResidues>
 VAL166  LYS551  ARG553  GLY616  TRP617  ASP618  TYR619  PRO620  LYS621  CYS622 
 ASP623  PHE694  ASN695  SER759  ASP760  ASP761  ALA762  ILE779  LEU786  VAL792 
 PHE793  MET794  SER795  GLU796  ALA797  LYS798  CYS799  TRP800  GLU811  SER814 

> <Gold.Protein.RotatedAtoms>
  152.2050  134.8554  160.0503 H   0  0  0  0  0  0  0  0  0  0  0  0  # atno 6907 bound_to 6896
  151.9393  133.3628  159.3967 H   0  0  0  0  0  0  0  0  0  0  0  0  # atno 6908 bound_to 6896
  150.6963  134.4380  159.5323 H   0  0  0  0  0  0  0  0  0  0  0  0  # atno 6909 bound_to 6896
  146.0153  139.4590  142.9930 H   0  0  0  0  0  0  0  0  0  0  0  0  # atno 7974 bound_to 7965
  155.5296  140.3482  155.4423 H   0  0  0  0  0  0  0  0  0  0  0  0  # atno 8008 bound_to 7997
  156.0728  140.1367  156.9835 H   0  0  0  0  0  0  0  0  0  0  0  0  # atno 8009 bound_to 7997
  154.4537  140.0962  156.6669 H   0  0  0  0  0  0  0  0  0  0  0  0  # atno 8010 bound_to 7997
  139.5168  144.6447  151.5472 H   0  0  0  0  0  0  0  0  0  0  0  0  # atno 10167 bound_to 10162
  156.2478  130.7135  151.1022 H   0  0  0  0  0  0  0  0  0  0  0  0  # atno 10718 bound_to 10713
  154.5186  135.2792  155.1282 H   0  0  0  0  0  0  0  0  0  0  0  0  # atno 10763 bound_to 10752
  154.2848  135.6278  153.5365 H   0  0  0  0  0  0  0  0  0  0  0  0  # atno 10764 bound_to 10752
  152.9932  135.5660  154.5669 H   0  0  0  0  0  0  0  0  0  0  0  0  # atno 10765 bound_to 10752
  140.5255  134.5667  157.5060 H   0  0  0  0  0  0  0  0  0  0  0  0  # atno 11005 bound_to 11000
  145.7277  141.0053  143.1368 LP  0  0  0  0  0  0  0  0  0  0  0  0  # atno 17320 bound_to 7965
  144.6969  139.8947  143.7455 LP  0  0  0  0  0  0  0  0  0  0  0  0  # atno 17321 bound_to 7965
  140.6228  143.9227  150.6540 LP  0  0  0  0  0  0  0  0  0  0  0  0  # atno 17342 bound_to 10162
  140.2505  143.3596  152.1409 LP  0  0  0  0  0  0  0  0  0  0  0  0  # atno 17343 bound_to 10162
  157.7202  131.0686  150.6166 LP  0  0  0  0  0  0  0  0  0  0  0  0  # atno 17370 bound_to 10713
  156.6244  130.4414  149.5810 LP  0  0  0  0  0  0  0  0  0  0  0  0  # atno 17371 bound_to 10713
  139.9582  134.7498  156.0294 LP  0  0  0  0  0  0  0  0  0  0  0  0  # atno 17394 bound_to 11000
  141.1310  133.6586  156.3465 LP  0  0  0  0  0  0  0  0  0  0  0  0  # atno 17395 bound_to 11000

$$$$
