AV-unprocessed.smi:2822|AV-procd|sdf|10878|dock3
  -GOLD-   2272015323D 1   1.00000     0.00000
 Structure written by MMmdl.
 40 42  0  0  0  0  0  0  0  0  2 V2000
  153.1451  141.1995  161.1375 Cl  0  0  0  0  0  0  0  0  0  0  0  0
  152.3488  142.3749  160.1505 C   0  0  0  0  0  0  0  0  0  0  0  0
  152.2765  143.7115  160.5943 C   0  0  0  0  0  0  0  0  0  0  0  0
  151.6586  144.6426  159.8373 N   0  3  0  0  0  0  0  0  0  0  0  0
  151.0926  144.3550  158.6463 C   0  0  0  0  0  0  0  0  0  0  0  0
  151.1329  143.0370  158.1487 C   0  0  0  0  0  0  0  0  0  0  0  0
  151.7678  142.0219  158.9075 C   0  0  0  0  0  0  0  0  0  0  0  0
  151.8400  140.6915  158.4677 N   0  0  0  0  0  0  0  0  0  0  0  0
  150.9379  140.1893  157.4426 C   0  0  0  0  0  0  0  0  0  0  0  0
  151.2080  140.8551  156.0804 C   0  0  2  0  0  0  0  0  0  0  0  0
  150.0103  141.6774  155.5686 C   0  0  0  0  0  0  0  0  0  0  0  0
  148.8980  140.8422  155.1315 N   0  0  0  0  0  0  0  0  0  0  0  0
  147.7920  141.6603  154.6344 C   0  0  0  0  0  0  0  0  0  0  0  0
  146.5885  140.8163  154.1869 C   0  0  0  0  0  0  0  0  0  0  0  0
  147.0187  139.7991  153.1209 C   0  0  0  0  0  0  0  0  0  0  0  0
  148.2104  138.9755  153.6315 C   0  0  0  0  0  0  0  0  0  0  0  0
  149.3536  139.8947  154.1101 C   0  0  2  0  0  0  0  0  0  0  0  0
  150.5395  139.0549  154.6245 C   0  0  0  0  0  0  0  0  0  0  0  0
  151.5890  139.9021  155.0862 O   0  0  0  0  0  0  0  0  0  0  0  0
  152.6926  144.0615  161.5278 H   0  0  0  0  0  0  0  0  0  0  0  0
  150.6279  145.1822  158.1294 H   0  0  0  0  0  0  0  0  0  0  0  0
  150.6776  142.8266  157.1923 H   0  0  0  0  0  0  0  0  0  0  0  0
  152.3647  140.0204  159.0115 H   0  0  0  0  0  0  0  0  0  0  0  0
  151.0221  139.1052  157.3681 H   0  0  0  0  0  0  0  0  0  0  0  0
  149.9146  140.4061  157.7515 H   0  0  0  0  0  0  0  0  0  0  0  0
  152.0490  141.5384  156.2051 H   0  0  0  0  0  0  0  0  0  0  0  0
  149.6765  142.3627  156.3486 H   0  0  0  0  0  0  0  0  0  0  0  0
  150.3437  142.2998  154.7366 H   0  0  0  0  0  0  0  0  0  0  0  0
  147.4695  142.3517  155.4141 H   0  0  0  0  0  0  0  0  0  0  0  0
  148.1322  142.2750  153.7996 H   0  0  0  0  0  0  0  0  0  0  0  0
  146.1661  140.2943  155.0465 H   0  0  0  0  0  0  0  0  0  0  0  0
  145.8015  141.4613  153.7950 H   0  0  0  0  0  0  0  0  0  0  0  0
  146.1863  139.1442  152.8628 H   0  0  0  0  0  0  0  0  0  0  0  0
  147.3012  140.3230  152.2070 H   0  0  0  0  0  0  0  0  0  0  0  0
  147.8830  138.3355  154.4521 H   0  0  0  0  0  0  0  0  0  0  0  0
  148.5643  138.3112  152.8423 H   0  0  0  0  0  0  0  0  0  0  0  0
  149.7058  140.4624  153.2469 H   0  0  0  0  0  0  0  0  0  0  0  0
  150.2248  138.3783  155.4193 H   0  0  0  0  0  0  0  0  0  0  0  0
  150.9327  138.4285  153.8235 H   0  0  0  0  0  0  0  0  0  0  0  0
  151.6185  145.6032  160.1795 H   0  0  0  0  0  0  0  0  0  0  0  0
  1  2  1  0  0  0  0
  2  7  1  0  0  0  0
  2  3  2  0  0  0  0
  3  4  1  0  0  0  0
  3 20  1  0  0  0  0
  4  5  2  0  0  0  0
  4 40  1  0  0  0  0
  5  6  1  0  0  0  0
  5 21  1  0  0  0  0
  6  7  2  0  0  0  0
  6 22  1  0  0  0  0
  7  8  1  0  0  0  0
  8  9  1  0  0  0  0
  8 23  1  0  0  0  0
  9 10  1  0  0  0  0
  9 24  1  0  0  0  0
  9 25  1  0  0  0  0
 10 19  1  0  0  0  0
 10 11  1  0  0  0  0
 10 26  1  0  0  0  0
 11 12  1  0  0  0  0
 11 27  1  0  0  0  0
 11 28  1  0  0  0  0
 12 17  1  0  0  0  0
 12 13  1  0  0  0  0
 13 14  1  0  0  0  0
 13 29  1  0  0  0  0
 13 30  1  0  0  0  0
 14 15  1  0  0  0  0
 14 31  1  0  0  0  0
 14 32  1  0  0  0  0
 15 16  1  0  0  0  0
 15 33  1  0  0  0  0
 15 34  1  0  0  0  0
 16 17  1  0  0  0  0
 16 35  1  0  0  0  0
 16 36  1  0  0  0  0
 17 18  1  0  0  0  0
 17 37  1  0  0  0  0
 18 19  1  0  0  0  0
 18 38  1  0  0  0  0
 18 39  1  0  0  0  0
M  CHG  1   4   1
M  END
> <s_m_source_file>
AV-unprocessed.smi

> <i_m_source_file_index>
2822

> <i_lp_mmshare_version>
43012

> <i_f3d_flags>
0

> <s_epik_input>
Q2xjMVtjSF1uW2NIXVtjSF1jMVtOSF1bQ0gyXVtDQEhdKFtDSDJdMilPW0NIMl1bQ0BASF0oTjIzKVtDSDJdW0NIMl1bQ0gyXVtDSDJdMw==

> <s_epik_cmdline>
J2VwaWtfcHl0aG9uJywgJy1waCcsICc3LjAnLCAnLXRuJywgJzgnLCAnLW1hJywgJzIwMCcsICctbWV0YWxfYmluZGluZycsICctaW1hZScsICc8aW5maWxlLm1hZT4nLCAnLW9tYWUnLCAnPG91dGZpbGUubWFlPic=

> <r_epik_Ionization_Penalty>
1.37653

> <r_epik_Ionization_Penalty_Charging>
0.152973

> <r_epik_Ionization_Penalty_Neutral>
1.22356

> <r_epik_State_Penalty>
1.42693

> <r_epik_Charging_Adjusted_Penalty>
1.5799

> <i_epik_Tot_Q>
1

> <i_epik_Tot_abs_Q>
1

> <r_epik_Metal_State_Penalty>
4.59822

> <b_epik_Metal_Only>
0

> <s_lp_Force_Field>
OPLS_2005

> <r_lp_Energy>
45.685

> <b_lp_Chiralities_Consistent>
1

> <s_lp_Variant>
AV-unprocessed.smi:2822-19

> <Gold.Version>
5.8.1

> <Gold.Id.Protein>
6NUR|6NUR_protein|mol2

> <Gold.PLP.Fitness>
42.5479

> <Gold.PLP.PLP>
-41.3973

> <Gold.PLP.part.hbond>
-1.0000

> <Gold.PLP.part.metal>
0.0000

> <Gold.PLP.part.buried>
-4.7340

> <Gold.PLP.part.nonpolar>
-35.5669

> <Gold.PLP.part.repulsive>
0.3156

> <Gold.PLP.ligand.clash>
0.0000

> <Gold.PLP.ligand.torsion>
0.8520

> <Gold.PLP.Chemscore.Hbond>
0.9500

> <Gold.PLP.Chemscore.CHOScore>
0.0000

> <Gold.PLP.Chemscore.Metal>
0.0000

> <Gold.Chemscore.Hbonds>
donor molecule, donor type, donor heavy atom, donor atom, acceptor molecule, acceptor atom, score
      P1  H  7989  7998       L1    19  0.70

> <Gold.PLP.Chemscore.Internal.Correction>
0.0045

> <Gold.Rescore>
     Score         DG    S(hbond)    S(metal)    S(lipo)     H(rot)  DE(clash)    DE(int)     intcor
     15.94     -16.89       0.04        0.00     122.19       1.18       0.06       0.89       ----

> <Gold.Chemscore.Fitness>
15.9426

> <Gold.Chemscore.DG>
-16.8937

> <Gold.Chemscore.ZeroCoef>
-5.4800

> <Gold.Chemscore.Hbond>
0.0404

> <Gold.Chemscore.Metal>
0.0000

> <Gold.Chemscore.Lipo>
122.1924

> <Gold.Chemscore.Internal_Hbond>
0.0000

> <Gold.Chemscore.DEClash>
0.0578

> <Gold.Chemscore.DEInternal>
0.8933

> <Gold.Chemscore.Rot>
1.1788

> <Gold.Chemscore.Internal.Correction>
   9.000000E+99

> <Gold.Chemscore.Hbonds>
donor molecule, donor type, donor heavy atom, donor atom, acceptor molecule, acceptor atom, score
      P1  H  7989  7998       L1    19  0.04

> <Gold.Chemscore.Hbond.Weighted>
-0.1348

> <Gold.Chemscore.Metal.Weighted>
-0.0000

> <Gold.Chemscore.Lipo.Weighted>
-14.2965

> <Gold.Chemscore.Internal_Hbond.Weighted>
0.0000

> <Gold.Chemscore.DEClash.Weighted>
0.0578

> <Gold.Chemscore.DEInternal.Weighted>
0.8933

> <Gold.Chemscore.Rot.Weighted>
3.0177

> <Gold.Chemscore.Internal.Correction.Weighted>
   9.000000E+99

> <Gold.Protein.RotatedTorsions>
[ 6907 6896 6895 6894 ] final -179.81 input  -60.11 | X-H torsion
[ 7974 7965 7964 7962 ] final -152.80 input  175.53 | X-H torsion
[ 8008 7997 7996 7995 ] final -122.62 input   59.86 | X-H torsion
[ 10167 10162 10161 10158 ] final -111.19 input  -65.29 | X-H torsion
[ 10718 10713 10712 10709 ] final   69.55 input   66.30 | X-H torsion
[ 10763 10752 10751 10750 ] final -100.91 input  -60.55 | X-H torsion
[ 11005 11000 10999 10996 ] final   98.92 input  -57.11 | X-H torsion

> <Gold.Protein.ActiveResidues>
 VAL166  LYS551  ARG553  GLY616  TRP617  ASP618  TYR619  PRO620  LYS621  CYS622 
 ASP623  PHE694  ASN695  SER759  ASP760  ASP761  ALA762  ILE779  LEU786  VAL792 
 PHE793  MET794  SER795  GLU796  ALA797  LYS798  CYS799  TRP800  GLU811  SER814 

> <Gold.Protein.RotatedAtoms>
  151.6594  133.3317  159.3170 H   0  0  0  0  0  0  0  0  0  0  0  0  # atno 6907 bound_to 6896
  150.7921  134.6956  159.6531 H   0  0  0  0  0  0  0  0  0  0  0  0  # atno 6908 bound_to 6896
  152.4002  134.6302  160.0125 H   0  0  0  0  0  0  0  0  0  0  0  0  # atno 6909 bound_to 6896
  144.7775  140.4613  143.5863 H   0  0  0  0  0  0  0  0  0  0  0  0  # atno 7974 bound_to 7965
  155.1671  140.0407  157.2855 H   0  0  0  0  0  0  0  0  0  0  0  0  # atno 8008 bound_to 7997
  154.6295  140.2520  155.7424 H   0  0  0  0  0  0  0  0  0  0  0  0  # atno 8009 bound_to 7997
  156.2477  140.2878  156.0640 H   0  0  0  0  0  0  0  0  0  0  0  0  # atno 8010 bound_to 7997
  140.1363  143.4318  152.1593 H   0  0  0  0  0  0  0  0  0  0  0  0  # atno 10167 bound_to 10162
  157.6352  130.9431  150.0529 H   0  0  0  0  0  0  0  0  0  0  0  0  # atno 10718 bound_to 10713
  154.7616  135.4917  153.9475 H   0  0  0  0  0  0  0  0  0  0  0  0  # atno 10763 bound_to 10752
  153.1258  135.6742  153.9267 H   0  0  0  0  0  0  0  0  0  0  0  0  # atno 10764 bound_to 10752
  153.8985  135.3112  155.3427 H   0  0  0  0  0  0  0  0  0  0  0  0  # atno 10765 bound_to 10752
  139.8771  134.9071  156.4528 H   0  0  0  0  0  0  0  0  0  0  0  0  # atno 11005 bound_to 11000
  145.6145  139.1517  143.3057 LP  0  0  0  0  0  0  0  0  0  0  0  0  # atno 17320 bound_to 7965
  146.1963  140.6259  142.9123 LP  0  0  0  0  0  0  0  0  0  0  0  0  # atno 17321 bound_to 7965
  139.5494  144.7325  151.4481 LP  0  0  0  0  0  0  0  0  0  0  0  0  # atno 17342 bound_to 10162
  140.6787  143.8130  150.7093 LP  0  0  0  0  0  0  0  0  0  0  0  0  # atno 17343 bound_to 10162
  156.1585  130.3643  149.9333 LP  0  0  0  0  0  0  0  0  0  0  0  0  # atno 17370 bound_to 10713
  156.7337  130.9053  151.3627 LP  0  0  0  0  0  0  0  0  0  0  0  0  # atno 17371 bound_to 10713
  140.8920  133.7841  155.9582 LP  0  0  0  0  0  0  0  0  0  0  0  0  # atno 17394 bound_to 11000
  140.8744  134.2688  157.5175 LP  0  0  0  0  0  0  0  0  0  0  0  0  # atno 17395 bound_to 11000

$$$$
