AV-unprocessed.smi:351|AV-procd|sdf|2400|dock10
  -GOLD-   2262022333D 1   1.00000     0.00000
 Structure written by MMmdl.
 39 40  0  0  0  0  0  0  0  0  1 V2000
  152.1161  141.2102  158.5110 C   0  0  0  0  0  0  0  0  0  0  0  0
  152.4638  141.9543  159.7867 C   0  0  0  0  0  0  0  0  0  0  0  0
  151.7960  143.1583  160.0944 C   0  0  0  0  0  0  0  0  0  0  0  0
  152.1077  143.8608  161.2724 C   0  0  0  0  0  0  0  0  0  0  0  0
  153.0899  143.3610  162.1456 C   0  0  0  0  0  0  0  0  0  0  0  0
  153.7599  142.1605  161.8427 C   0  0  0  0  0  0  0  0  0  0  0  0
  153.4539  141.4426  160.6580 C   0  0  0  0  0  0  0  0  0  0  0  0
  154.0695  140.2617  160.2968 O   0  0  0  0  0  0  0  0  0  0  0  0
  155.0019  139.6799  161.1962 C   0  0  0  0  0  0  0  0  0  0  0  0
  154.3010  138.5289  161.9409 C   0  0  0  0  0  0  0  0  0  0  0  0
  154.8437  137.2047  161.5578 N   0  0  0  0  0  0  0  0  0  0  0  0
  155.4976  136.3868  162.5323 C   0  0  0  0  0  0  0  0  0  0  0  0
  155.6579  136.9038  163.9693 C   0  0  0  0  0  0  0  0  0  0  0  0
  156.3340  136.0342  164.7217 F   0  0  0  0  0  0  0  0  0  0  0  0
  156.3345  138.0509  164.0158 F   0  0  0  0  0  0  0  0  0  0  0  0
  154.4679  137.0717  164.5471 F   0  0  0  0  0  0  0  0  0  0  0  0
  155.9852  135.1839  162.1767 C   0  0  0  0  0  0  0  0  0  0  0  0
  155.8435  134.7167  160.8256 C   0  0  0  0  0  0  0  0  0  0  0  0
  155.2261  135.4768  159.8930 C   0  0  0  0  0  0  0  0  0  0  0  0
  155.0604  135.0402  158.4875 C   0  0  0  0  0  0  0  0  0  0  0  0
  155.4397  133.7772  158.2550 N   0  0  0  0  0  0  0  0  0  0  0  0
  154.6221  135.7074  157.5505 O   0  0  0  0  0  0  0  0  0  0  0  0
  154.6799  136.8122  160.2486 C   0  0  0  0  0  0  0  0  0  0  0  0
  154.1061  137.5556  159.4465 O   0  0  0  0  0  0  0  0  0  0  0  0
  151.2764  141.6749  157.9933 H   0  0  0  0  0  0  0  0  0  0  0  0
  151.8455  140.1778  158.7338 H   0  0  0  0  0  0  0  0  0  0  0  0
  152.9710  141.2031  157.8345 H   0  0  0  0  0  0  0  0  0  0  0  0
  151.0422  143.5489  159.4270 H   0  0  0  0  0  0  0  0  0  0  0  0
  151.5949  144.7824  161.5049 H   0  0  0  0  0  0  0  0  0  0  0  0
  153.3315  143.8995  163.0501 H   0  0  0  0  0  0  0  0  0  0  0  0
  154.5074  141.8117  162.5384 H   0  0  0  0  0  0  0  0  0  0  0  0
  155.8639  139.3036  160.6440 H   0  0  0  0  0  0  0  0  0  0  0  0
  155.3577  140.4287  161.9043 H   0  0  0  0  0  0  0  0  0  0  0  0
  154.3473  138.7110  163.0100 H   0  0  0  0  0  0  0  0  0  0  0  0
  153.2288  138.5729  161.7403 H   0  0  0  0  0  0  0  0  0  0  0  0
  156.4873  134.5519  162.8941 H   0  0  0  0  0  0  0  0  0  0  0  0
  156.2516  133.7435  160.5962 H   0  0  0  0  0  0  0  0  0  0  0  0
  155.3657  133.3893  157.3260 H   0  0  0  0  0  0  0  0  0  0  0  0
  155.8010  133.2167  159.0134 H   0  0  0  0  0  0  0  0  0  0  0  0
  1  2  1  0  0  0  0
  1 25  1  0  0  0  0
  1 26  1  0  0  0  0
  1 27  1  0  0  0  0
  2  7  1  0  0  0  0
  2  3  2  0  0  0  0
  3  4  1  0  0  0  0
  3 28  1  0  0  0  0
  4  5  2  0  0  0  0
  4 29  1  0  0  0  0
  5  6  1  0  0  0  0
  5 30  1  0  0  0  0
  6  7  2  0  0  0  0
  6 31  1  0  0  0  0
  7  8  1  0  0  0  0
  8  9  1  0  0  0  0
  9 10  1  0  0  0  0
  9 32  1  0  0  0  0
  9 33  1  0  0  0  0
 10 11  1  0  0  0  0
 10 34  1  0  0  0  0
 10 35  1  0  0  0  0
 11 23  1  0  0  0  0
 11 12  1  0  0  0  0
 12 13  1  0  0  0  0
 12 17  2  0  0  0  0
 13 14  1  0  0  0  0
 13 15  1  0  0  0  0
 13 16  1  0  0  0  0
 17 18  1  0  0  0  0
 17 36  1  0  0  0  0
 18 19  2  0  0  0  0
 18 37  1  0  0  0  0
 19 20  1  0  0  0  0
 19 23  1  0  0  0  0
 20 21  1  0  0  0  0
 20 22  2  0  0  0  0
 21 38  1  0  0  0  0
 21 39  1  0  0  0  0
 23 24  2  0  0  0  0
M  END
> <s_m_source_file>
AV-unprocessed.smi

> <i_m_source_file_index>
351

> <i_lp_mmshare_version>
43012

> <i_f3d_flags>
0

> <s_epik_input>
W0NIM11jMVtjSF1bY0hdW2NIXVtjSF1jMU9bQ0gyXVtDSDJdbjJjKEMoRikoRilGKVtjSF1bY0hdYyhjMj1PKUMoPU8pW05IMl0=

> <s_epik_cmdline>
J2VwaWtfcHl0aG9uJywgJy1waCcsICc3LjAnLCAnLXRuJywgJzgnLCAnLW1hJywgJzIwMCcsICctbWV0YWxfYmluZGluZycsICctaW1hZScsICc8aW5maWxlLm1hZT4nLCAnLW9tYWUnLCAnPG91dGZpbGUubWFlPic=

> <r_lp_tautomer_probability>
1

> <r_epik_Ionization_Penalty>
1.75286e-06

> <r_epik_Ionization_Penalty_Charging>
1.15608e-09

> <r_epik_Ionization_Penalty_Neutral>
1.7517e-06

> <r_epik_State_Penalty>
-0

> <r_epik_Charging_Adjusted_Penalty>
1.15608e-09

> <i_epik_Tot_Q>
0

> <i_epik_Tot_abs_Q>
0

> <r_epik_Metal_State_Penalty>
-0

> <b_epik_Metal_Only>
0

> <s_lp_Force_Field>
OPLS_2005

> <r_lp_Energy>
33.8975

> <b_lp_Chiralities_Consistent>
1

> <s_lp_Variant>
AV-unprocessed.smi:351-1

> <Gold.Version>
5.8.1

> <Gold.Id.Protein>
6NUR|6NUR_protein|mol2

> <Gold.PLP.Fitness>
48.1187

> <Gold.PLP.PLP>
-46.5037

> <Gold.PLP.part.hbond>
-1.0000

> <Gold.PLP.part.metal>
0.0000

> <Gold.PLP.part.buried>
-5.0622

> <Gold.PLP.part.nonpolar>
-38.7016

> <Gold.PLP.part.repulsive>
0.1104

> <Gold.PLP.ligand.clash>
3.7443

> <Gold.PLP.ligand.torsion>
0.7171

> <Gold.PLP.Chemscore.Hbond>
1.0000

> <Gold.PLP.Chemscore.CHOScore>
0.0000

> <Gold.PLP.Chemscore.Metal>
0.0000

> <Gold.Chemscore.Hbonds>
donor molecule, donor type, donor heavy atom, donor atom, acceptor molecule, acceptor atom, score
      P1  H 10752 10765       L1    22  0.32

> <Gold.PLP.Chemscore.Internal.Correction>
3.7934

> <Gold.Rescore>
     Score         DG    S(hbond)    S(metal)    S(lipo)     H(rot)  DE(clash)    DE(int)     intcor
     13.27     -17.41       1.00        0.00     113.80       1.84       0.15       3.99       ----

> <Gold.Chemscore.Fitness>
13.2707

> <Gold.Chemscore.DG>
-17.4142

> <Gold.Chemscore.ZeroCoef>
-5.4800

> <Gold.Chemscore.Hbond>
0.9979

> <Gold.Chemscore.Metal>
0.0000

> <Gold.Chemscore.Lipo>
113.7994

> <Gold.Chemscore.Internal_Hbond>
0.0000

> <Gold.Chemscore.DEClash>
0.1521

> <Gold.Chemscore.DEInternal>
3.9914

> <Gold.Chemscore.Rot>
1.8412

> <Gold.Chemscore.Internal.Correction>
   9.000000E+99

> <Gold.Chemscore.Hbonds>
donor molecule, donor type, donor heavy atom, donor atom, acceptor molecule, acceptor atom, score
      P1  H 10752 10765       L1    22  0.33

> <Gold.Chemscore.Hbond.Weighted>
-3.3330

> <Gold.Chemscore.Metal.Weighted>
-0.0000

> <Gold.Chemscore.Lipo.Weighted>
-13.3145

> <Gold.Chemscore.Internal_Hbond.Weighted>
0.0000

> <Gold.Chemscore.DEClash.Weighted>
0.1521

> <Gold.Chemscore.DEInternal.Weighted>
3.9914

> <Gold.Chemscore.Rot.Weighted>
4.7134

> <Gold.Chemscore.Internal.Correction.Weighted>
   9.000000E+99

> <Gold.Protein.RotatedTorsions>
[ 6907 6896 6895 6894 ] final  177.05 input  -60.11 | X-H torsion
[ 7974 7965 7964 7962 ] final -141.92 input  175.53 | X-H torsion
[ 8008 7997 7996 7995 ] final   89.70 input   59.86 | X-H torsion
[ 10167 10162 10161 10158 ] final    9.83 input  -65.29 | X-H torsion
[ 10718 10713 10712 10709 ] final  108.50 input   66.30 | X-H torsion
[ 10763 10752 10751 10750 ] final  -71.98 input  -60.55 | X-H torsion
[ 11005 11000 10999 10996 ] final  125.09 input  -57.11 | X-H torsion

> <Gold.Protein.ActiveResidues>
 VAL166  LYS551  ARG553  GLY616  TRP617  ASP618  TYR619  PRO620  LYS621  CYS622 
 ASP623  PHE694  ASN695  SER759  ASP760  ASP761  ALA762  ILE779  LEU786  VAL792 
 PHE793  MET794  SER795  GLU796  ALA797  LYS798  CYS799  TRP800  GLU811  SER814 

> <Gold.Protein.RotatedAtoms>
  151.7102  133.3312  159.3288 H   0  0  0  0  0  0  0  0  0  0  0  0  # atno 6907 bound_to 6896
  150.7697  134.6539  159.6312 H   0  0  0  0  0  0  0  0  0  0  0  0  # atno 6908 bound_to 6896
  152.3716  134.6728  160.0226 H   0  0  0  0  0  0  0  0  0  0  0  0  # atno 6909 bound_to 6896
  144.8483  140.6022  143.5407 H   0  0  0  0  0  0  0  0  0  0  0  0  # atno 7974 bound_to 7965
  156.0031  140.3358  155.6865 H   0  0  0  0  0  0  0  0  0  0  0  0  # atno 8008 bound_to 7997
  155.6263  140.0680  157.2680 H   0  0  0  0  0  0  0  0  0  0  0  0  # atno 8009 bound_to 7997
  154.4256  140.1767  156.1412 H   0  0  0  0  0  0  0  0  0  0  0  0  # atno 8010 bound_to 7997
  140.6231  143.8161  150.7199 H   0  0  0  0  0  0  0  0  0  0  0  0  # atno 10167 bound_to 10162
  157.6583  131.0895  150.6314 H   0  0  0  0  0  0  0  0  0  0  0  0  # atno 10718 bound_to 10713
  154.4393  135.5945  153.6118 H   0  0  0  0  0  0  0  0  0  0  0  0  # atno 10763 bound_to 10752
  152.9804  135.5994  154.3743 H   0  0  0  0  0  0  0  0  0  0  0  0  # atno 10764 bound_to 10752
  154.3590  135.2841  155.2309 H   0  0  0  0  0  0  0  0  0  0  0  0  # atno 10765 bound_to 10752
  139.9389  134.9637  156.8506 H   0  0  0  0  0  0  0  0  0  0  0  0  # atno 11005 bound_to 11000
  145.4552  139.1519  143.3896 LP  0  0  0  0  0  0  0  0  0  0  0  0  # atno 17320 bound_to 7965
  146.2763  140.4680  142.8794 LP  0  0  0  0  0  0  0  0  0  0  0  0  # atno 17321 bound_to 7965
  140.1755  143.4158  152.1970 LP  0  0  0  0  0  0  0  0  0  0  0  0  # atno 17342 bound_to 10162
  139.5456  144.7295  151.4595 LP  0  0  0  0  0  0  0  0  0  0  0  0  # atno 17343 bound_to 10162
  156.6619  130.4514  149.5685 LP  0  0  0  0  0  0  0  0  0  0  0  0  # atno 17370 bound_to 10713
  156.2061  130.6650  151.1219 LP  0  0  0  0  0  0  0  0  0  0  0  0  # atno 17371 bound_to 10713
  140.6002  134.0179  155.7534 LP  0  0  0  0  0  0  0  0  0  0  0  0  # atno 17394 bound_to 11000
  141.1016  133.9760  157.3069 LP  0  0  0  0  0  0  0  0  0  0  0  0  # atno 17395 bound_to 11000

$$$$
