AV-unprocessed.smi:2403|AV-procd|sdf|9510|dock5
  -GOLD-   2272013143D 1   1.00000     0.00000
 Structure written by MMmdl.
 48 50  0  0  0  0  0  0  0  0  2 V2000
  147.4109  133.0840  152.2080 C   0  0  0  0  0  0  0  0  0  0  0  0
  146.0327  133.4976  151.7211 C   0  0  0  0  0  0  0  0  0  0  0  0
  145.1610  132.5233  151.1856 C   0  0  0  0  0  0  0  0  0  0  0  0
  143.8840  132.9101  150.7344 C   0  0  0  0  0  0  0  0  0  0  0  0
  143.5091  134.2037  150.8130 N   0  3  0  0  0  0  0  0  0  0  0  0
  144.3068  135.1690  151.3173 C   0  0  0  0  0  0  0  0  0  0  0  0
  145.5991  134.8457  151.8017 C   0  0  0  0  0  0  0  0  0  0  0  0
  146.4882  135.8259  152.3252 N   0  0  0  0  0  0  0  0  0  0  0  0
  146.1921  136.8779  153.1070 C   0  0  0  0  0  0  0  0  0  0  0  0
  145.0641  137.1648  153.5071 O   0  0  0  0  0  0  0  0  0  0  0  0
  147.2990  137.5680  153.4341 N   0  0  0  0  0  0  0  0  0  0  0  0
  147.4003  138.7559  154.3029 C   0  0  0  0  0  0  0  0  0  0  0  0
  146.8672  138.5024  155.7429 C   0  0  0  0  0  0  0  0  0  0  0  0
  145.9736  139.2146  156.2030 O   0  0  0  0  0  0  0  0  0  0  0  0
  147.4215  137.5085  156.4567 N   0  0  0  0  0  0  0  0  0  0  0  0
  147.0380  137.1322  157.8082 C   0  0  0  0  0  0  0  0  0  0  0  0
  148.1701  137.2290  158.8092 C   0  0  0  0  0  0  0  0  0  0  0  0
  148.9776  136.0073  159.1795 C   0  0  0  0  0  0  0  0  0  0  0  0
  148.0415  136.6277  160.1890 C   0  0  0  0  0  0  0  0  0  0  0  0
  148.8907  139.1635  154.3927 C   0  0  0  0  0  0  0  0  0  0  0  0
  148.9176  140.6898  154.4344 C   0  0  0  0  0  0  0  0  0  0  0  0
  147.7795  141.0998  153.5097 C   0  0  0  0  0  0  0  0  0  0  0  0
  146.7207  139.9977  153.6433 C   0  0  0  0  0  0  0  0  0  0  0  0
  147.5597  132.0079  152.1147 H   0  0  0  0  0  0  0  0  0  0  0  0
  147.5405  133.3507  153.2574 H   0  0  0  0  0  0  0  0  0  0  0  0
  148.1858  133.5835  151.6260 H   0  0  0  0  0  0  0  0  0  0  0  0
  145.4647  131.4887  151.1182 H   0  0  0  0  0  0  0  0  0  0  0  0
  143.1590  132.2300  150.3113 H   0  0  0  0  0  0  0  0  0  0  0  0
  143.8820  136.1616  151.3004 H   0  0  0  0  0  0  0  0  0  0  0  0
  147.4694  135.6604  152.1537 H   0  0  0  0  0  0  0  0  0  0  0  0
  148.1733  137.2374  153.0526 H   0  0  0  0  0  0  0  0  0  0  0  0
  148.1540  136.9668  156.0225 H   0  0  0  0  0  0  0  0  0  0  0  0
  146.2087  137.7616  158.1347 H   0  0  0  0  0  0  0  0  0  0  0  0
  146.6744  136.1035  157.8051 H   0  0  0  0  0  0  0  0  0  0  0  0
  148.7345  138.1573  158.7408 H   0  0  0  0  0  0  0  0  0  0  0  0
  148.6852  135.0534  158.7450 H   0  0  0  0  0  0  0  0  0  0  0  0
  150.0462  136.1403  159.3369 H   0  0  0  0  0  0  0  0  0  0  0  0
  148.4851  137.1756  161.0177 H   0  0  0  0  0  0  0  0  0  0  0  0
  147.1271  136.0864  160.4243 H   0  0  0  0  0  0  0  0  0  0  0  0
  149.4087  138.7305  155.2502 H   0  0  0  0  0  0  0  0  0  0  0  0
  149.4308  138.8308  153.5044 H   0  0  0  0  0  0  0  0  0  0  0  0
  148.7172  141.0390  155.4480 H   0  0  0  0  0  0  0  0  0  0  0  0
  149.8784  141.1018  154.1246 H   0  0  0  0  0  0  0  0  0  0  0  0
  147.3861  142.0882  153.7490 H   0  0  0  0  0  0  0  0  0  0  0  0
  148.1432  141.1312  152.4818 H   0  0  0  0  0  0  0  0  0  0  0  0
  146.3102  139.7813  152.6565 H   0  0  0  0  0  0  0  0  0  0  0  0
  145.8804  140.3639  154.2350 H   0  0  0  0  0  0  0  0  0  0  0  0
  142.5833  134.4658  150.4733 H   0  0  0  0  0  0  0  0  0  0  0  0
  1  2  1  0  0  0  0
  1 24  1  0  0  0  0
  1 25  1  0  0  0  0
  1 26  1  0  0  0  0
  2  7  1  0  0  0  0
  2  3  2  0  0  0  0
  3  4  1  0  0  0  0
  3 27  1  0  0  0  0
  4  5  2  0  0  0  0
  4 28  1  0  0  0  0
  5  6  1  0  0  0  0
  5 48  1  0  0  0  0
  6  7  2  0  0  0  0
  6 29  1  0  0  0  0
  7  8  1  0  0  0  0
  8  9  1  0  0  0  0
  8 30  1  0  0  0  0
  9 10  2  0  0  0  0
  9 11  1  0  0  0  0
 11 12  1  0  0  0  0
 11 31  1  0  0  0  0
 12 23  1  0  0  0  0
 12 13  1  0  0  0  0
 12 20  1  0  0  0  0
 13 14  2  0  0  0  0
 13 15  1  0  0  0  0
 15 16  1  0  0  0  0
 15 32  1  0  0  0  0
 16 17  1  0  0  0  0
 16 33  1  0  0  0  0
 16 34  1  0  0  0  0
 17 19  1  0  0  0  0
 17 18  1  0  0  0  0
 17 35  1  0  0  0  0
 18 19  1  0  0  0  0
 18 36  1  0  0  0  0
 18 37  1  0  0  0  0
 19 38  1  0  0  0  0
 19 39  1  0  0  0  0
 20 21  1  0  0  0  0
 20 40  1  0  0  0  0
 20 41  1  0  0  0  0
 21 22  1  0  0  0  0
 21 42  1  0  0  0  0
 21 43  1  0  0  0  0
 22 23  1  0  0  0  0
 22 44  1  0  0  0  0
 22 45  1  0  0  0  0
 23 46  1  0  0  0  0
 23 47  1  0  0  0  0
M  CHG  1   5   1
M  END
> <s_m_source_file>
AV-unprocessed.smi

> <i_m_source_file_index>
2403

> <i_lp_mmshare_version>
43012

> <i_f3d_flags>
0

> <s_epik_input>
W0NIM11jMVtjSF1bY0hdbltjSF1jMVtOSF1DKD1PKVtOSF1DMihbQ0gyXVtDSDJdW0NIMl1bQ0gyXTIpQyg9TylbTkhdW0NIMl1bQ0hdM1tDSDJdW0NIMl0z

> <s_epik_cmdline>
J2VwaWtfcHl0aG9uJywgJy1waCcsICc3LjAnLCAnLXRuJywgJzgnLCAnLW1hJywgJzIwMCcsICctbWV0YWxfYmluZGluZycsICctaW1hZScsICc8aW5maWxlLm1hZT4nLCAnLW9tYWUnLCAnPG91dGZpbGUubWFlPic=

> <r_epik_Ionization_Penalty>
2.03963

> <r_epik_Ionization_Penalty_Charging>
2.03961

> <r_epik_Ionization_Penalty_Neutral>
1.99712e-05

> <r_epik_State_Penalty>
2.17125

> <r_epik_Charging_Adjusted_Penalty>
4.21085

> <i_epik_Tot_Q>
1

> <i_epik_Tot_abs_Q>
1

> <r_epik_Metal_State_Penalty>
2.19001

> <b_epik_Metal_Only>
0

> <s_lp_Force_Field>
OPLS_2005

> <r_lp_Energy>
38.2062

> <b_lp_Chiralities_Consistent>
1

> <s_lp_Variant>
AV-unprocessed.smi:2403-2

> <Gold.Version>
5.8.1

> <Gold.Id.Protein>
6NUR|6NUR_protein|mol2

> <Gold.PLP.Fitness>
42.6753

> <Gold.PLP.PLP>
-31.4786

> <Gold.PLP.part.hbond>
-2.9775

> <Gold.PLP.part.metal>
0.0000

> <Gold.PLP.part.buried>
-3.8789

> <Gold.PLP.part.nonpolar>
-25.6232

> <Gold.PLP.part.repulsive>
0.2169

> <Gold.PLP.ligand.clash>
0.0000

> <Gold.PLP.ligand.torsion>
0.6459

> <Gold.PLP.Chemscore.Hbond>
3.9440

> <Gold.PLP.Chemscore.CHOScore>
0.0000

> <Gold.PLP.Chemscore.Metal>
0.0000

> <Gold.Chemscore.Hbonds>
donor molecule, donor type, donor heavy atom, donor atom, acceptor molecule, acceptor atom, score
      L1  H     5    48       P1 10186  2.00
      L1  H     8    30       P1  7948  1.00
      L1  H    11    31       P1  7948  0.94

> <Gold.PLP.Chemscore.Internal.Correction>
0.6565

> <Gold.Rescore>
     Score         DG    S(hbond)    S(metal)    S(lipo)     H(rot)  DE(clash)    DE(int)     intcor
     18.45     -19.99       2.79        0.00      79.99       1.63       0.11       1.43       ----

> <Gold.Chemscore.Fitness>
18.4463

> <Gold.Chemscore.DG>
-19.9887

> <Gold.Chemscore.ZeroCoef>
-5.4800

> <Gold.Chemscore.Hbond>
2.7903

> <Gold.Chemscore.Metal>
0.0000

> <Gold.Chemscore.Lipo>
79.9855

> <Gold.Chemscore.Internal_Hbond>
0.0000

> <Gold.Chemscore.DEClash>
0.1144

> <Gold.Chemscore.DEInternal>
1.4279

> <Gold.Chemscore.Rot>
1.6286

> <Gold.Chemscore.Internal.Correction>
   9.000000E+99

> <Gold.Chemscore.Hbonds>
donor molecule, donor type, donor heavy atom, donor atom, acceptor molecule, acceptor atom, score
      L1  H     5    48       P1 10186  0.45
      L1  H     8    30       P1  7948  0.94
      L1  H    11    31       P1  7948  0.91

> <Gold.Chemscore.Hbond.Weighted>
-9.3196

> <Gold.Chemscore.Metal.Weighted>
-0.0000

> <Gold.Chemscore.Lipo.Weighted>
-9.3583

> <Gold.Chemscore.Internal_Hbond.Weighted>
0.0000

> <Gold.Chemscore.DEClash.Weighted>
0.1144

> <Gold.Chemscore.DEInternal.Weighted>
1.4279

> <Gold.Chemscore.Rot.Weighted>
4.1692

> <Gold.Chemscore.Internal.Correction.Weighted>
   9.000000E+99

> <Gold.Protein.RotatedTorsions>
[ 6907 6896 6895 6894 ] final   82.37 input  -60.11 | X-H torsion
[ 7974 7965 7964 7962 ] final -151.30 input  175.53 | X-H torsion
[ 8008 7997 7996 7995 ] final  136.15 input   59.86 | X-H torsion
[ 10167 10162 10161 10158 ] final  -51.09 input  -65.29 | X-H torsion
[ 10718 10713 10712 10709 ] final  118.08 input   66.30 | X-H torsion
[ 10763 10752 10751 10750 ] final    3.44 input  -60.55 | X-H torsion
[ 11005 11000 10999 10996 ] final  154.67 input  -57.11 | X-H torsion

> <Gold.Protein.ActiveResidues>
 VAL166  LYS551  ARG553  GLY616  TRP617  ASP618  TYR619  PRO620  LYS621  CYS622 
 ASP623  PHE694  ASN695  SER759  ASP760  ASP761  ALA762  ILE779  LEU786  VAL792 
 PHE793  MET794  SER795  GLU796  ALA797  LYS798  CYS799  TRP800  GLU811  SER814 

> <Gold.Protein.RotatedAtoms>
  152.5297  134.3061  159.9096 H   0  0  0  0  0  0  0  0  0  0  0  0  # atno 6907 bound_to 6896
  151.3011  133.4115  159.2647 H   0  0  0  0  0  0  0  0  0  0  0  0  # atno 6908 bound_to 6896
  151.0118  134.9419  159.8068 H   0  0  0  0  0  0  0  0  0  0  0  0  # atno 6909 bound_to 6896
  144.7858  140.4816  143.5807 H   0  0  0  0  0  0  0  0  0  0  0  0  # atno 7974 bound_to 7965
  156.3004  140.2452  156.3699 H   0  0  0  0  0  0  0  0  0  0  0  0  # atno 8008 bound_to 7997
  154.8798  140.0413  157.1795 H   0  0  0  0  0  0  0  0  0  0  0  0  # atno 8009 bound_to 7997
  154.8707  140.2934  155.5487 H   0  0  0  0  0  0  0  0  0  0  0  0  # atno 8010 bound_to 7997
  140.6605  143.2633  151.4453 H   0  0  0  0  0  0  0  0  0  0  0  0  # atno 10167 bound_to 10162
  157.6054  131.1044  150.7706 H   0  0  0  0  0  0  0  0  0  0  0  0  # atno 10718 bound_to 10713
  153.2833  135.6942  153.7364 H   0  0  0  0  0  0  0  0  0  0  0  0  # atno 10763 bound_to 10752
  153.6343  135.3404  155.3052 H   0  0  0  0  0  0  0  0  0  0  0  0  # atno 10764 bound_to 10752
  154.8502  135.4416  154.1893 H   0  0  0  0  0  0  0  0  0  0  0  0  # atno 10765 bound_to 10752
  140.1511  134.8674  157.2455 H   0  0  0  0  0  0  0  0  0  0  0  0  # atno 11005 bound_to 11000
  145.5926  139.1497  143.3173 LP  0  0  0  0  0  0  0  0  0  0  0  0  # atno 17320 bound_to 7965
  146.2089  140.6051  142.9069 LP  0  0  0  0  0  0  0  0  0  0  0  0  # atno 17321 bound_to 7965
  139.5838  144.1649  152.2003 LP  0  0  0  0  0  0  0  0  0  0  0  0  # atno 17342 bound_to 10162
  140.0983  144.5562  150.7007 LP  0  0  0  0  0  0  0  0  0  0  0  0  # atno 17343 bound_to 10162
  156.8096  130.4948  149.5358 LP  0  0  0  0  0  0  0  0  0  0  0  0  # atno 17370 bound_to 10713
  156.1138  130.6060  151.0089 LP  0  0  0  0  0  0  0  0  0  0  0  0  # atno 17371 bound_to 10713
  140.2604  134.3578  155.7409 LP  0  0  0  0  0  0  0  0  0  0  0  0  # atno 17394 bound_to 11000
  141.2199  133.7366  156.9071 LP  0  0  0  0  0  0  0  0  0  0  0  0  # atno 17395 bound_to 11000

$$$$
