AV-unprocessed.smi:1254|AV-procd|sdf|5273|dock1
  -GOLD-   22720 4393D 1   1.00000     0.00000
 Structure written by MMmdl.
 45 46  0  0  0  0  0  0  0  0  1 V2000
  144.6235  135.1463  150.6216 C   0  0  0  0  0  0  0  0  0  0  0  0
  145.2512  136.2750  151.3651 C   0  0  0  0  0  0  0  0  0  0  0  0
  146.2114  137.1879  151.0316 C   0  0  0  0  0  0  0  0  0  0  0  0
  146.3277  137.9756  152.2141 C   0  0  0  0  0  0  0  0  0  0  0  0
  147.1936  139.0833  152.4054 N   0  0  0  0  0  0  0  0  0  0  0  0
  147.5202  139.6991  153.5539 C   0  0  0  0  0  0  0  0  0  0  0  0
  147.0839  139.4080  154.6675 O   0  0  0  0  0  0  0  0  0  0  0  0
  148.3946  140.6925  153.3383 N   0  0  0  0  0  0  0  0  0  0  0  0
  148.9398  141.5711  154.3681 C   0  0  0  0  0  0  0  0  0  0  0  0
  149.7364  140.7818  155.4201 C   0  0  2  0  0  0  0  0  0  0  0  0
  150.6271  141.7057  156.2738 C   0  0  0  0  0  0  0  0  0  0  0  0
  151.4304  140.9626  157.2393 N   0  0  0  0  0  0  0  0  0  0  0  0
  152.2527  141.8704  158.0409 C   0  0  0  0  0  0  0  0  0  0  0  0
  151.4755  142.9128  158.8789 C   0  0  0  0  0  0  0  0  0  0  0  0
  151.2504  144.2058  158.0794 C   0  0  0  0  0  0  0  0  0  0  0  0
  152.1950  143.2342  160.2001 C   0  0  0  0  0  0  0  0  0  0  0  0
  152.2197  139.9604  156.5280 C   0  0  0  0  0  0  0  0  0  0  0  0
  151.3395  139.0457  155.6601 C   0  0  0  0  0  0  0  0  0  0  0  0
  150.5738  139.8366  154.7583 O   0  0  0  0  0  0  0  0  0  0  0  0
  145.5125  137.5763  153.1730 N   0  0  0  0  0  0  0  0  0  0  0  0
  144.8189  136.4848  152.6375 O   0  0  0  0  0  0  0  0  0  0  0  0
  144.9137  135.1633  149.5710 H   0  0  0  0  0  0  0  0  0  0  0  0
  143.5362  135.2062  150.6719 H   0  0  0  0  0  0  0  0  0  0  0  0
  144.9305  134.1890  151.0426 H   0  0  0  0  0  0  0  0  0  0  0  0
  146.7332  137.2654  150.0899 H   0  0  0  0  0  0  0  0  0  0  0  0
  147.6206  139.4456  151.5659 H   0  0  0  0  0  0  0  0  0  0  0  0
  148.6971  140.8629  152.3904 H   0  0  0  0  0  0  0  0  0  0  0  0
  149.5555  142.3585  153.9298 H   0  0  0  0  0  0  0  0  0  0  0  0
  148.0988  142.0724  154.8477 H   0  0  0  0  0  0  0  0  0  0  0  0
  149.0393  140.2499  156.0706 H   0  0  0  0  0  0  0  0  0  0  0  0
  151.2811  142.2832  155.6182 H   0  0  0  0  0  0  0  0  0  0  0  0
  149.9980  142.4262  156.7976 H   0  0  0  0  0  0  0  0  0  0  0  0
  152.9252  141.2985  158.6824 H   0  0  0  0  0  0  0  0  0  0  0  0
  152.9082  142.4119  157.3574 H   0  0  0  0  0  0  0  0  0  0  0  0
  150.4880  142.5128  159.1137 H   0  0  0  0  0  0  0  0  0  0  0  0
  152.1970  144.6692  157.7993 H   0  0  0  0  0  0  0  0  0  0  0  0
  150.6822  144.9339  158.6591 H   0  0  0  0  0  0  0  0  0  0  0  0
  150.6907  144.0096  157.1643 H   0  0  0  0  0  0  0  0  0  0  0  0
  153.1762  143.6742  160.0187 H   0  0  0  0  0  0  0  0  0  0  0  0
  152.3434  142.3433  160.8090 H   0  0  0  0  0  0  0  0  0  0  0  0
  151.6204  143.9433  160.7967 H   0  0  0  0  0  0  0  0  0  0  0  0
  152.9619  140.4521  155.8974 H   0  0  0  0  0  0  0  0  0  0  0  0
  152.7677  139.3406  157.2367 H   0  0  0  0  0  0  0  0  0  0  0  0
  151.9587  138.3533  155.0898 H   0  0  0  0  0  0  0  0  0  0  0  0
  150.6750  138.4443  156.2824 H   0  0  0  0  0  0  0  0  0  0  0  0
  1  2  1  0  0  0  0
  1 22  1  0  0  0  0
  1 23  1  0  0  0  0
  1 24  1  0  0  0  0
  2 21  1  0  0  0  0
  2  3  2  0  0  0  0
  3  4  1  0  0  0  0
  3 25  1  0  0  0  0
  4  5  1  0  0  0  0
  4 20  2  0  0  0  0
  5  6  1  0  0  0  0
  5 26  1  0  0  0  0
  6  7  2  0  0  0  0
  6  8  1  0  0  0  0
  8  9  1  0  0  0  0
  8 27  1  0  0  0  0
  9 10  1  0  0  0  0
  9 28  1  0  0  0  0
  9 29  1  0  0  0  0
 10 19  1  0  0  0  0
 10 11  1  0  0  0  0
 10 30  1  0  0  0  0
 11 12  1  0  0  0  0
 11 31  1  0  0  0  0
 11 32  1  0  0  0  0
 12 13  1  0  0  0  0
 12 17  1  0  0  0  0
 13 14  1  0  0  0  0
 13 33  1  0  0  0  0
 13 34  1  0  0  0  0
 14 15  1  0  0  0  0
 14 16  1  0  0  0  0
 14 35  1  0  0  0  0
 15 36  1  0  0  0  0
 15 37  1  0  0  0  0
 15 38  1  0  0  0  0
 16 39  1  0  0  0  0
 16 40  1  0  0  0  0
 16 41  1  0  0  0  0
 17 18  1  0  0  0  0
 17 42  1  0  0  0  0
 17 43  1  0  0  0  0
 18 19  1  0  0  0  0
 18 44  1  0  0  0  0
 18 45  1  0  0  0  0
 20 21  1  0  0  0  0
M  END
> <s_m_source_file>
AV-unprocessed.smi

> <i_m_source_file_index>
1254

> <i_lp_mmshare_version>
43012

> <i_f3d_flags>
0

> <s_epik_input>
W0NIM11jMVtjSF1jKG5vMSlbTkhdQyg9TylbTkhdW0NIMl1bQ0BASF0yW0NIMl1OKFtDSDJdW0NIMl1PMilbQ0gyXVtDSF0oW0NIM10pW0NIM10=

> <s_epik_cmdline>
J2VwaWtfcHl0aG9uJywgJy1waCcsICc3LjAnLCAnLXRuJywgJzgnLCAnLW1hJywgJzIwMCcsICctbWV0YWxfYmluZGluZycsICctaW1hZScsICc8aW5maWxlLm1hZT4nLCAnLW9tYWUnLCAnPG91dGZpbGUubWFlPic=

> <r_epik_Ionization_Penalty>
1.11086

> <r_epik_Ionization_Penalty_Charging>
0

> <r_epik_Ionization_Penalty_Neutral>
1.11086

> <r_epik_State_Penalty>
1.16881

> <r_epik_Charging_Adjusted_Penalty>
1.16881

> <i_epik_Tot_Q>
0

> <i_epik_Tot_abs_Q>
0

> <r_epik_Metal_State_Penalty>
1.1835

> <b_epik_Metal_Only>
0

> <s_lp_Force_Field>
OPLS_2005

> <r_lp_Energy>
24.7903

> <b_lp_Chiralities_Consistent>
1

> <s_lp_Variant>
AV-unprocessed.smi:1254-5

> <Gold.Version>
5.8.1

> <Gold.Id.Protein>
6NUR|6NUR_protein|mol2

> <Gold.PLP.Fitness>
42.0389

> <Gold.PLP.PLP>
-35.6564

> <Gold.PLP.part.hbond>
-3.0000

> <Gold.PLP.part.metal>
0.0000

> <Gold.PLP.part.buried>
2.2152

> <Gold.PLP.part.nonpolar>
-35.4242

> <Gold.PLP.part.repulsive>
0.7704

> <Gold.PLP.ligand.clash>
0.0000

> <Gold.PLP.ligand.torsion>
0.5676

> <Gold.PLP.Chemscore.Hbond>
2.4720

> <Gold.PLP.Chemscore.CHOScore>
0.0000

> <Gold.PLP.Chemscore.Metal>
0.0000

> <Gold.Chemscore.Hbonds>
donor molecule, donor type, donor heavy atom, donor atom, acceptor molecule, acceptor atom, score
      L1  H     5    26       P1  7957  0.59
      L1  H     8    27       P1  7957  0.78
      P1  H  7989  7998       L1    19  1.00

> <Gold.PLP.Chemscore.Internal.Correction>
0.1017

> <Gold.Rescore>
     Score         DG    S(hbond)    S(metal)    S(lipo)     H(rot)  DE(clash)    DE(int)     intcor
     17.10     -20.45       2.39        0.00      96.64       1.69       1.44       1.91       ----

> <Gold.Chemscore.Fitness>
17.0954

> <Gold.Chemscore.DG>
-20.4479

> <Gold.Chemscore.ZeroCoef>
-5.4800

> <Gold.Chemscore.Hbond>
2.3915

> <Gold.Chemscore.Metal>
0.0000

> <Gold.Chemscore.Lipo>
96.6399

> <Gold.Chemscore.Internal_Hbond>
0.0000

> <Gold.Chemscore.DEClash>
1.4434

> <Gold.Chemscore.DEInternal>
1.9091

> <Gold.Chemscore.Rot>
1.6900

> <Gold.Chemscore.Internal.Correction>
   9.000000E+99

> <Gold.Chemscore.Hbonds>
donor molecule, donor type, donor heavy atom, donor atom, acceptor molecule, acceptor atom, score
      L1  H     5    26       P1  7957  0.57
      L1  H     8    27       P1  7957  0.78
      P1  H  7989  7998       L1    19  0.50

> <Gold.Chemscore.Hbond.Weighted>
-7.9875

> <Gold.Chemscore.Metal.Weighted>
-0.0000

> <Gold.Chemscore.Lipo.Weighted>
-11.3069

> <Gold.Chemscore.Internal_Hbond.Weighted>
0.0000

> <Gold.Chemscore.DEClash.Weighted>
1.4434

> <Gold.Chemscore.DEInternal.Weighted>
1.9091

> <Gold.Chemscore.Rot.Weighted>
4.3265

> <Gold.Chemscore.Internal.Correction.Weighted>
   9.000000E+99

> <Gold.Protein.RotatedTorsions>
[ 6907 6896 6895 6894 ] final  171.35 input  -60.11 | X-H torsion
[ 7974 7965 7964 7962 ] final -163.71 input  175.53 | X-H torsion
[ 8008 7997 7996 7995 ] final   69.25 input   59.86 | X-H torsion
[ 10167 10162 10161 10158 ] final  145.58 input  -65.29 | X-H torsion
[ 10718 10713 10712 10709 ] final  131.61 input   66.30 | X-H torsion
[ 10763 10752 10751 10750 ] final    7.31 input  -60.55 | X-H torsion
[ 11005 11000 10999 10996 ] final  165.06 input  -57.11 | X-H torsion

> <Gold.Protein.ActiveResidues>
 VAL166  LYS551  ARG553  GLY616  TRP617  ASP618  TYR619  PRO620  LYS621  CYS622 
 ASP623  PHE694  ASN695  SER759  ASP760  ASP761  ALA762  ILE779  LEU786  VAL792 
 PHE793  MET794  SER795  GLU796  ALA797  LYS798  CYS799  TRP800  GLU811  SER814 

> <Gold.Protein.RotatedAtoms>
  151.8016  133.3370  159.3528 H   0  0  0  0  0  0  0  0  0  0  0  0  # atno 6907 bound_to 6896
  150.7356  134.5748  159.5918 H   0  0  0  0  0  0  0  0  0  0  0  0  # atno 6908 bound_to 6896
  152.3139  134.7465  160.0381 H   0  0  0  0  0  0  0  0  0  0  0  0  # atno 6909 bound_to 6896
  144.7318  140.3068  143.6195 H   0  0  0  0  0  0  0  0  0  0  0  0  # atno 7974 bound_to 7965
  155.7208  140.3493  155.5015 H   0  0  0  0  0  0  0  0  0  0  0  0  # atno 8008 bound_to 7997
  155.9271  140.1077  157.1183 H   0  0  0  0  0  0  0  0  0  0  0  0  # atno 8009 bound_to 7997
  154.4079  140.1238  156.4741 H   0  0  0  0  0  0  0  0  0  0  0  0  # atno 8010 bound_to 7997
  139.4923  144.5891  151.6717 H   0  0  0  0  0  0  0  0  0  0  0  0  # atno 10167 bound_to 10162
  157.4951  131.1092  150.9504 H   0  0  0  0  0  0  0  0  0  0  0  0  # atno 10718 bound_to 10713
  153.2377  135.6900  153.7817 H   0  0  0  0  0  0  0  0  0  0  0  0  # atno 10763 bound_to 10752
  153.6958  135.3305  155.3214 H   0  0  0  0  0  0  0  0  0  0  0  0  # atno 10764 bound_to 10752
  154.8342  135.4556  154.1287 H   0  0  0  0  0  0  0  0  0  0  0  0  # atno 10765 bound_to 10752
  140.2523  134.7967  157.3513 H   0  0  0  0  0  0  0  0  0  0  0  0  # atno 11005 bound_to 11000
  145.7705  139.1855  143.2215 LP  0  0  0  0  0  0  0  0  0  0  0  0  # atno 17320 bound_to 7965
  146.0914  140.7651  142.9593 LP  0  0  0  0  0  0  0  0  0  0  0  0  # atno 17321 bound_to 7965
  140.5514  144.0419  150.6128 LP  0  0  0  0  0  0  0  0  0  0  0  0  # atno 17342 bound_to 10162
  140.3474  143.2983  152.0523 LP  0  0  0  0  0  0  0  0  0  0  0  0  # atno 17343 bound_to 10162
  157.0193  130.5667  149.5329 LP  0  0  0  0  0  0  0  0  0  0  0  0  # atno 17370 bound_to 10713
  156.0196  130.5290  150.8236 LP  0  0  0  0  0  0  0  0  0  0  0  0  # atno 17371 bound_to 10713
  140.1546  134.4806  155.7937 LP  0  0  0  0  0  0  0  0  0  0  0  0  # atno 17394 bound_to 11000
  141.2200  133.6876  156.7438 LP  0  0  0  0  0  0  0  0  0  0  0  0  # atno 17395 bound_to 11000

$$$$
