AV-unprocessed.smi:234|AV-procd|sdf|1794|dock9
  -GOLD-   2262020353D 1   1.00000     0.00000
 Structure written by MMmdl.
 59 62  0  0  0  0  0  0  0  0  1 V2000
  152.0451  145.0734  159.0597 C   0  0  0  0  0  0  0  0  0  0  0  0
  151.5754  143.7924  159.7521 C   0  0  0  0  0  0  0  0  0  0  0  0
  152.7046  143.1216  160.2855 O   0  0  0  0  0  0  0  0  0  0  0  0
  152.5216  141.7182  160.3919 C   0  0  1  0  0  0  0  0  0  0  0  0
  152.2154  141.0781  159.0394 C   0  0  0  0  0  0  0  0  0  0  0  0
  153.0483  139.8902  159.5376 C   0  0  1  0  0  0  0  0  0  0  0  0
  153.8566  139.2417  158.5019 N   0  0  0  0  0  0  0  0  0  0  0  0
  154.8071  138.2285  158.9404 C   0  0  0  0  0  0  0  0  0  0  0  0
  153.2003  138.8444  157.3874 C   0  0  0  0  0  0  0  0  0  0  0  0
  153.6777  139.2902  156.1985 N   0  0  0  0  0  0  0  0  0  0  0  0
  153.0686  138.9451  155.0602 C   0  0  0  0  0  0  0  0  0  0  0  0
  151.9914  138.1760  154.8896 N   0  0  0  0  0  0  0  0  0  0  0  0
  151.5169  137.7147  156.0823 C   0  0  0  0  0  0  0  0  0  0  0  0
  152.0597  137.9907  157.3689 C   0  0  0  0  0  0  0  0  0  0  0  0
  151.3200  137.3316  158.3439 N   0  0  0  0  0  0  0  0  0  0  0  0
  150.3840  136.7168  157.6744 C   0  0  0  0  0  0  0  0  0  0  0  0
  150.4213  136.9010  156.3109 N   0  0  0  0  0  0  0  0  0  0  0  0
  149.4970  136.3480  155.3339 C   0  0  0  0  0  0  0  0  0  0  0  0
  149.8209  134.8847  154.9504 C   0  0  1  0  0  0  0  0  0  0  0  0
  149.1276  134.5695  153.7530 O   0  0  0  0  0  0  0  0  0  0  0  0
  151.3027  134.6115  154.7387 C   0  0  0  0  0  0  0  0  0  0  0  0
  151.3985  133.1093  154.9727 C   0  0  0  0  0  0  0  0  0  0  0  0
  150.4587  132.8405  156.0055 O   0  0  0  0  0  0  0  0  0  0  0  0
  149.4747  133.8728  156.0643 C   0  0  2  0  0  0  0  0  0  0  0  0
  148.0562  133.2810  156.0396 C   0  0  0  0  0  0  0  0  0  0  0  0
  153.8251  140.8771  160.4538 C   0  0  0  0  0  0  0  0  0  0  0  0
  155.0787  141.5493  159.8648 C   0  0  0  0  0  0  0  0  0  0  0  0
  154.2002  140.3456  161.8381 C   0  0  0  0  0  0  0  0  0  0  0  0
  151.2022  145.6161  158.6315 H   0  0  0  0  0  0  0  0  0  0  0  0
  152.7440  144.8489  158.2536 H   0  0  0  0  0  0  0  0  0  0  0  0
  152.5472  145.7361  159.7648 H   0  0  0  0  0  0  0  0  0  0  0  0
  150.8678  144.0397  160.5434 H   0  0  0  0  0  0  0  0  0  0  0  0
  151.0602  143.1489  159.0374 H   0  0  0  0  0  0  0  0  0  0  0  0
  151.7802  141.4315  161.1420 H   0  0  0  0  0  0  0  0  0  0  0  0
  151.1614  140.8574  158.8682 H   0  0  0  0  0  0  0  0  0  0  0  0
  152.6596  141.6114  158.1970 H   0  0  0  0  0  0  0  0  0  0  0  0
  152.4469  139.1932  160.1243 H   0  0  0  0  0  0  0  0  0  0  0  0
  155.4675  137.9298  158.1250 H   0  0  0  0  0  0  0  0  0  0  0  0
  154.2829  137.3423  159.3006 H   0  0  0  0  0  0  0  0  0  0  0  0
  155.4330  138.6033  159.7487 H   0  0  0  0  0  0  0  0  0  0  0  0
  153.5048  139.3456  154.1570 H   0  0  0  0  0  0  0  0  0  0  0  0
  149.6301  136.1143  158.1600 H   0  0  0  0  0  0  0  0  0  0  0  0
  148.4884  136.4183  155.7434 H   0  0  0  0  0  0  0  0  0  0  0  0
  149.5115  136.9836  154.4474 H   0  0  0  0  0  0  0  0  0  0  0  0
  149.6755  134.8072  153.0205 H   0  0  0  0  0  0  0  0  0  0  0  0
  151.6732  134.9194  153.7598 H   0  0  0  0  0  0  0  0  0  0  0  0
  151.8919  135.1277  155.4975 H   0  0  0  0  0  0  0  0  0  0  0  0
  151.1051  132.5623  154.0758 H   0  0  0  0  0  0  0  0  0  0  0  0
  152.4028  132.7901  155.2514 H   0  0  0  0  0  0  0  0  0  0  0  0
  149.6233  134.3574  157.0305 H   0  0  0  0  0  0  0  0  0  0  0  0
  147.3022  134.0679  156.0707 H   0  0  0  0  0  0  0  0  0  0  0  0
  147.8947  132.6329  156.9011 H   0  0  0  0  0  0  0  0  0  0  0  0
  147.8840  132.6826  155.1446 H   0  0  0  0  0  0  0  0  0  0  0  0
  155.9187  140.8575  159.8045 H   0  0  0  0  0  0  0  0  0  0  0  0
  155.4028  142.3930  160.4743 H   0  0  0  0  0  0  0  0  0  0  0  0
  154.9061  141.9321  158.8591 H   0  0  0  0  0  0  0  0  0  0  0  0
  154.9992  139.6064  161.7837 H   0  0  0  0  0  0  0  0  0  0  0  0
  153.3508  139.8651  162.3244 H   0  0  0  0  0  0  0  0  0  0  0  0
  154.5400  141.1434  162.4983 H   0  0  0  0  0  0  0  0  0  0  0  0
  1  2  1  0  0  0  0
  1 29  1  0  0  0  0
  1 30  1  0  0  0  0
  1 31  1  0  0  0  0
  2  3  1  0  0  0  0
  2 32  1  0  0  0  0
  2 33  1  0  0  0  0
  3  4  1  0  0  0  0
  4 26  1  0  0  0  0
  4  5  1  0  0  0  0
  4 34  1  0  0  0  0
  5  6  1  0  0  0  0
  5 35  1  0  0  0  0
  5 36  1  0  0  0  0
  6  7  1  0  0  0  0
  6 26  1  0  0  0  0
  6 37  1  0  0  0  0
  7  8  1  0  0  0  0
  7  9  1  0  0  0  0
  8 38  1  0  0  0  0
  8 39  1  0  0  0  0
  8 40  1  0  0  0  0
  9 14  1  0  0  0  0
  9 10  2  0  0  0  0
 10 11  1  0  0  0  0
 11 12  2  0  0  0  0
 11 41  1  0  0  0  0
 12 13  1  0  0  0  0
 13 17  1  0  0  0  0
 13 14  2  0  0  0  0
 14 15  1  0  0  0  0
 15 16  2  0  0  0  0
 16 17  1  0  0  0  0
 16 42  1  0  0  0  0
 17 18  1  0  0  0  0
 18 19  1  0  0  0  0
 18 43  1  0  0  0  0
 18 44  1  0  0  0  0
 19 24  1  0  0  0  0
 19 20  1  0  0  0  0
 19 21  1  0  0  0  0
 20 45  1  0  0  0  0
 21 22  1  0  0  0  0
 21 46  1  0  0  0  0
 21 47  1  0  0  0  0
 22 23  1  0  0  0  0
 22 48  1  0  0  0  0
 22 49  1  0  0  0  0
 23 24  1  0  0  0  0
 24 25  1  0  0  0  0
 24 50  1  0  0  0  0
 25 51  1  0  0  0  0
 25 52  1  0  0  0  0
 25 53  1  0  0  0  0
 26 27  1  0  0  0  0
 26 28  1  0  0  0  0
 27 54  1  0  0  0  0
 27 55  1  0  0  0  0
 27 56  1  0  0  0  0
 28 57  1  0  0  0  0
 28 58  1  0  0  0  0
 28 59  1  0  0  0  0
M  END
> <s_m_source_file>
AV-unprocessed.smi

> <i_m_source_file_index>
234

> <i_lp_mmshare_version>
43012

> <i_f3d_flags>
0

> <s_epik_input>
W0NIM11bQ0gyXU9bQ0BASF0oQzEoW0NIM10pW0NIM10pW0NIMl1bQ0BIXTFOKFtDSDNdKWMobltjSF1uMiljKGMyMyluW2NIXW4zW0NIMl1bQ0BAXTQoW09IXSlbQ0gyXVtDSDJdT1tDQEhdNFtDSDNd

> <s_epik_cmdline>
J2VwaWtfcHl0aG9uJywgJy1waCcsICc3LjAnLCAnLXRuJywgJzgnLCAnLW1hJywgJzIwMCcsICctbWV0YWxfYmluZGluZycsICctaW1hZScsICc8aW5maWxlLm1hZT4nLCAnLW9tYWUnLCAnPG91dGZpbGUubWFlPic=

> <r_lp_tautomer_probability>
1

> <r_epik_Ionization_Penalty>
0.00349132

> <r_epik_Ionization_Penalty_Charging>
0

> <r_epik_Ionization_Penalty_Neutral>
0.00349132

> <r_epik_State_Penalty>
0.00242418

> <r_epik_Charging_Adjusted_Penalty>
0.00242418

> <i_epik_Tot_Q>
0

> <i_epik_Tot_abs_Q>
0

> <r_epik_Metal_State_Penalty>
-0

> <b_epik_Metal_Only>
0

> <s_lp_Force_Field>
OPLS_2005

> <r_lp_Energy>
47.8711

> <b_lp_Chiralities_Consistent>
1

> <s_lp_Variant>
AV-unprocessed.smi:234-10

> <Gold.Version>
5.8.1

> <Gold.Id.Protein>
6NUR|6NUR_protein|mol2

> <Gold.PLP.Fitness>
41.4246

> <Gold.PLP.PLP>
-38.3197

> <Gold.PLP.part.hbond>
-3.0000

> <Gold.PLP.part.metal>
0.0000

> <Gold.PLP.part.buried>
-6.7780

> <Gold.PLP.part.nonpolar>
-28.1974

> <Gold.PLP.part.repulsive>
0.1144

> <Gold.PLP.ligand.clash>
0.0000

> <Gold.PLP.ligand.torsion>
1.3218

> <Gold.PLP.Chemscore.Hbond>
1.6462

> <Gold.PLP.Chemscore.CHOScore>
0.0000

> <Gold.PLP.Chemscore.Metal>
0.0000

> <Gold.PLP.Chemscore.Internal.Correction>
0.8100

> <Gold.Rescore>
     Score         DG    S(hbond)    S(metal)    S(lipo)     H(rot)  DE(clash)    DE(int)     intcor
     13.17     -14.57       1.13        0.00     102.79       2.62       0.06       1.33       ----

> <Gold.Chemscore.Fitness>
13.1708

> <Gold.Chemscore.DG>
-14.5669

> <Gold.Chemscore.ZeroCoef>
-5.4800

> <Gold.Chemscore.Hbond>
1.1294

> <Gold.Chemscore.Metal>
0.0000

> <Gold.Chemscore.Lipo>
102.7939

> <Gold.Chemscore.Internal_Hbond>
0.0000

> <Gold.Chemscore.DEClash>
0.0620

> <Gold.Chemscore.DEInternal>
1.3341

> <Gold.Chemscore.Rot>
2.6219

> <Gold.Chemscore.Internal.Correction>
   9.000000E+99

> <Gold.Chemscore.Hbonds>
donor molecule, donor type, donor heavy atom, donor atom, acceptor molecule, acceptor atom, score
      P1  H  7997  8008       L1    10  0.01

> <Gold.Chemscore.Hbond.Weighted>
-3.7721

> <Gold.Chemscore.Metal.Weighted>
-0.0000

> <Gold.Chemscore.Lipo.Weighted>
-12.0269

> <Gold.Chemscore.Internal_Hbond.Weighted>
0.0000

> <Gold.Chemscore.DEClash.Weighted>
0.0620

> <Gold.Chemscore.DEInternal.Weighted>
1.3341

> <Gold.Chemscore.Rot.Weighted>
6.7121

> <Gold.Chemscore.Internal.Correction.Weighted>
   9.000000E+99

> <Gold.Protein.RotatedTorsions>
[ 6907 6896 6895 6894 ] final  130.36 input  -60.11 | X-H torsion
[ 7974 7965 7964 7962 ] final  -84.14 input  175.53 | X-H torsion
[ 8008 7997 7996 7995 ] final   13.46 input   59.86 | X-H torsion
[ 10167 10162 10161 10158 ] final  114.22 input  -65.29 | X-H torsion
[ 10718 10713 10712 10709 ] final -106.02 input   66.30 | X-H torsion
[ 10763 10752 10751 10750 ] final  -81.98 input  -60.55 | X-H torsion
[ 11005 11000 10999 10996 ] final   84.27 input  -57.11 | X-H torsion

> <Gold.Protein.ActiveResidues>
 VAL166  LYS551  ARG553  GLY616  TRP617  ASP618  TYR619  PRO620  LYS621  CYS622 
 ASP623  PHE694  ASN695  SER759  ASP760  ASP761  ALA762  ILE779  LEU786  VAL792 
 PHE793  MET794  SER795  GLU796  ALA797  LYS798  CYS799  TRP800  GLU811  SER814 

> <Gold.Protein.RotatedAtoms>
  152.3534  133.6207  159.5961 H   0  0  0  0  0  0  0  0  0  0  0  0  # atno 6907 bound_to 6896
  150.7553  133.9538  159.3503 H   0  0  0  0  0  0  0  0  0  0  0  0  # atno 6908 bound_to 6896
  151.7387  135.0860  160.0363 H   0  0  0  0  0  0  0  0  0  0  0  0  # atno 6909 bound_to 6896
  145.5106  140.9540  143.1709 H   0  0  0  0  0  0  0  0  0  0  0  0  # atno 7974 bound_to 7965
  154.8348  140.2905  155.5698 H   0  0  0  0  0  0  0  0  0  0  0  0  # atno 8008 bound_to 7997
  156.3008  140.2525  156.3211 H   0  0  0  0  0  0  0  0  0  0  0  0  # atno 8009 bound_to 7997
  154.9191  140.0386  157.1977 H   0  0  0  0  0  0  0  0  0  0  0  0  # atno 8010 bound_to 7997
  139.6404  144.7123  151.2248 H   0  0  0  0  0  0  0  0  0  0  0  0  # atno 10167 bound_to 10162
  156.0371  130.5592  150.7621 H   0  0  0  0  0  0  0  0  0  0  0  0  # atno 10718 bound_to 10713
  154.5702  135.5607  153.7088 H   0  0  0  0  0  0  0  0  0  0  0  0  # atno 10763 bound_to 10752
  153.0046  135.6295  154.2124 H   0  0  0  0  0  0  0  0  0  0  0  0  # atno 10764 bound_to 10752
  154.2064  135.2875  155.2953 H   0  0  0  0  0  0  0  0  0  0  0  0  # atno 10765 bound_to 10752
  139.9005  134.8205  156.2423 H   0  0  0  0  0  0  0  0  0  0  0  0  # atno 11005 bound_to 11000
  144.7729  139.6694  143.7187 LP  0  0  0  0  0  0  0  0  0  0  0  0  # atno 17320 bound_to 7965
  146.2169  139.5565  142.9644 LP  0  0  0  0  0  0  0  0  0  0  0  0  # atno 17321 bound_to 7965
  140.7488  143.6321  150.8413 LP  0  0  0  0  0  0  0  0  0  0  0  0  # atno 17342 bound_to 10162
  139.9958  143.5797  152.2894 LP  0  0  0  0  0  0  0  0  0  0  0  0  # atno 17343 bound_to 10162
  157.5138  131.0927  151.0165 LP  0  0  0  0  0  0  0  0  0  0  0  0  # atno 17370 bound_to 10713
  157.0514  130.5788  149.5371 LP  0  0  0  0  0  0  0  0  0  0  0  0  # atno 17371 bound_to 10713
  141.0277  133.7006  156.1376 LP  0  0  0  0  0  0  0  0  0  0  0  0  # atno 17394 bound_to 11000
  140.7142  134.4428  157.5579 LP  0  0  0  0  0  0  0  0  0  0  0  0  # atno 17395 bound_to 11000

$$$$
