AV-unprocessed.smi:1560|AV-procd|sdf|6279|dock4
  -GOLD-   22720 6473D 1   1.00000     0.00000
 Structure written by MMmdl.
 46 47  0  0  0  0  0  0  0  0  2 V2000
  150.7834  139.2709  155.3200 C   0  0  0  0  0  0  0  0  0  0  0  0
  151.3563  140.2906  156.3216 C   0  0  0  0  0  0  0  0  0  0  0  0
  150.4068  140.6934  157.4945 C   0  0  1  0  0  0  0  0  0  0  0  0
  149.0037  140.9103  156.8660 C   0  0  0  0  0  0  0  0  0  0  0  0
  150.3125  139.4974  158.4967 C   0  0  0  0  0  0  0  0  0  0  0  0
  149.3447  138.4713  158.1088 N   0  0  0  0  0  0  0  0  0  0  0  0
  149.2617  137.2346  158.6229 C   0  0  0  0  0  0  0  0  0  0  0  0
  150.0355  136.8026  159.4784 O   0  0  0  0  0  0  0  0  0  0  0  0
  148.1529  136.3408  158.0521 C   0  0  0  0  0  0  0  0  0  0  0  0
  147.4112  135.6160  159.0965 N   0  0  0  0  0  0  0  0  0  0  0  0
  147.3322  134.2158  158.9936 C   0  0  0  0  0  0  0  0  0  0  0  0
  146.6749  133.4727  159.9044 C   0  0  0  0  0  0  0  0  0  0  0  0
  146.0337  134.1566  161.0208 C   0  0  0  0  0  0  0  0  0  0  0  0
  145.4242  133.4948  161.8589 O   0  0  0  0  0  0  0  0  0  0  0  0
  146.1437  135.5163  161.0796 N   0  5  0  0  0  0  0  0  0  0  0  0
  146.8169  136.2590  160.1470 C   0  0  0  0  0  0  0  0  0  0  0  0
  146.9046  137.4855  160.2197 O   0  0  0  0  0  0  0  0  0  0  0  0
  150.8816  141.9410  158.1580 N   0  0  0  0  0  0  0  0  0  0  0  0
  151.2994  143.0128  157.2453 C   0  0  0  0  0  0  0  0  0  0  0  0
  151.6322  144.3124  157.9973 C   0  0  0  0  0  0  0  0  0  0  0  0
  152.6424  144.0597  158.9665 O   0  0  0  0  0  0  0  0  0  0  0  0
  152.2561  143.0648  159.9067 C   0  0  0  0  0  0  0  0  0  0  0  0
  151.9284  141.7547  159.1701 C   0  0  0  0  0  0  0  0  0  0  0  0
  151.5122  139.0549  154.5389 H   0  0  0  0  0  0  0  0  0  0  0  0
  149.8843  139.6434  154.8296 H   0  0  0  0  0  0  0  0  0  0  0  0
  150.5361  138.3252  155.8014 H   0  0  0  0  0  0  0  0  0  0  0  0
  152.2787  139.8667  156.7192 H   0  0  0  0  0  0  0  0  0  0  0  0
  151.6796  141.1770  155.7756 H   0  0  0  0  0  0  0  0  0  0  0  0
  148.7333  140.1073  156.1794 H   0  0  0  0  0  0  0  0  0  0  0  0
  148.9542  141.8431  156.3035 H   0  0  0  0  0  0  0  0  0  0  0  0
  148.2189  140.9445  157.6218 H   0  0  0  0  0  0  0  0  0  0  0  0
  151.2898  139.0395  158.6508 H   0  0  0  0  0  0  0  0  0  0  0  0
  149.9954  139.8472  159.4784 H   0  0  0  0  0  0  0  0  0  0  0  0
  148.6687  138.7314  157.4055 H   0  0  0  0  0  0  0  0  0  0  0  0
  147.4637  136.9374  157.4513 H   0  0  0  0  0  0  0  0  0  0  0  0
  148.6110  135.6409  157.3520 H   0  0  0  0  0  0  0  0  0  0  0  0
  147.8388  133.7875  158.1411 H   0  0  0  0  0  0  0  0  0  0  0  0
  146.6256  132.3976  159.8126 H   0  0  0  0  0  0  0  0  0  0  0  0
  152.1781  142.7063  156.6782 H   0  0  0  0  0  0  0  0  0  0  0  0
  150.5190  143.2374  156.5207 H   0  0  0  0  0  0  0  0  0  0  0  0
  151.9891  145.0716  157.3011 H   0  0  0  0  0  0  0  0  0  0  0  0
  150.7423  144.7156  158.4832 H   0  0  0  0  0  0  0  0  0  0  0  0
  153.0703  142.9084  160.6144 H   0  0  0  0  0  0  0  0  0  0  0  0
  151.3949  143.4103  160.4806 H   0  0  0  0  0  0  0  0  0  0  0  0
  151.6240  141.0231  159.9165 H   0  0  0  0  0  0  0  0  0  0  0  0
  152.8404  141.3767  158.7084 H   0  0  0  0  0  0  0  0  0  0  0  0
  1  2  1  0  0  0  0
  1 24  1  0  0  0  0
  1 25  1  0  0  0  0
  1 26  1  0  0  0  0
  2  3  1  0  0  0  0
  2 27  1  0  0  0  0
  2 28  1  0  0  0  0
  3  4  1  0  0  0  0
  3  5  1  0  0  0  0
  3 18  1  0  0  0  0
  4 29  1  0  0  0  0
  4 30  1  0  0  0  0
  4 31  1  0  0  0  0
  5  6  1  0  0  0  0
  5 32  1  0  0  0  0
  5 33  1  0  0  0  0
  6  7  1  0  0  0  0
  6 34  1  0  0  0  0
  7  8  2  0  0  0  0
  7  9  1  0  0  0  0
  9 10  1  0  0  0  0
  9 35  1  0  0  0  0
  9 36  1  0  0  0  0
 10 16  1  0  0  0  0
 10 11  1  0  0  0  0
 11 12  2  0  0  0  0
 11 37  1  0  0  0  0
 12 13  1  0  0  0  0
 12 38  1  0  0  0  0
 13 14  2  0  0  0  0
 13 15  1  0  0  0  0
 15 16  1  0  0  0  0
 16 17  2  0  0  0  0
 18 23  1  0  0  0  0
 18 19  1  0  0  0  0
 19 20  1  0  0  0  0
 19 39  1  0  0  0  0
 19 40  1  0  0  0  0
 20 21  1  0  0  0  0
 20 41  1  0  0  0  0
 20 42  1  0  0  0  0
 21 22  1  0  0  0  0
 22 23  1  0  0  0  0
 22 43  1  0  0  0  0
 22 44  1  0  0  0  0
 23 45  1  0  0  0  0
 23 46  1  0  0  0  0
M  CHG  1  15  -1
M  END
> <s_m_source_file>
AV-unprocessed.smi

> <i_m_source_file_index>
1560

> <i_lp_mmshare_version>
43012

> <i_f3d_flags>
0

> <s_epik_input>
W0NIMl0xW0NIMl1PW0NIMl1bQ0gyXU4xW0NAQF0oW0NIM10pKFtDSDJdW0NIM10pW0NIMl1bTkhdQyg9TylbQ0gyXW4yW2NIXVtjSF1jKD1PKVtuSF1jMj1P

> <s_epik_cmdline>
J2VwaWtfcHl0aG9uJywgJy1waCcsICc3LjAnLCAnLXRuJywgJzgnLCAnLW1hJywgJzIwMCcsICctbWV0YWxfYmluZGluZycsICctaW1hZScsICc8aW5maWxlLm1hZT4nLCAnLW9tYWUnLCAnPG91dGZpbGUubWFlPic=

> <r_lp_tautomer_probability>
0.999537

> <r_epik_Ionization_Penalty>
3.35108

> <r_epik_Ionization_Penalty_Charging>
2.65778e-08

> <r_epik_Ionization_Penalty_Neutral>
3.35108

> <r_epik_State_Penalty>
3.36199

> <r_epik_Charging_Adjusted_Penalty>
3.36199

> <i_epik_Tot_Q>
-1

> <i_epik_Tot_abs_Q>
1

> <r_epik_Metal_State_Penalty>
0.748914

> <b_epik_Metal_Only>
1

> <s_lp_Force_Field>
OPLS_2005

> <r_lp_Energy>
51.7621

> <b_lp_Chiralities_Consistent>
1

> <s_lp_Variant>
AV-unprocessed.smi:1560-5

> <Gold.Version>
5.8.1

> <Gold.Id.Protein>
6NUR|6NUR_protein|mol2

> <Gold.PLP.Fitness>
42.6266

> <Gold.PLP.PLP>
-37.2803

> <Gold.PLP.part.hbond>
-3.3468

> <Gold.PLP.part.metal>
0.0000

> <Gold.PLP.part.buried>
-5.5231

> <Gold.PLP.part.nonpolar>
-29.2421

> <Gold.PLP.part.repulsive>
0.2281

> <Gold.PLP.ligand.clash>
0.0000

> <Gold.PLP.ligand.torsion>
1.3741

> <Gold.PLP.Chemscore.Hbond>
2.6400

> <Gold.PLP.Chemscore.CHOScore>
0.0000

> <Gold.PLP.Chemscore.Metal>
0.0000

> <Gold.Chemscore.Hbonds>
donor molecule, donor type, donor heavy atom, donor atom, acceptor molecule, acceptor atom, score
      P1  H  6896  6908       L1     8  0.86
      P1  H  6934  6947       L1    17  1.00

> <Gold.PLP.Chemscore.Internal.Correction>
0.1745

> <Gold.Rescore>
     Score         DG    S(hbond)    S(metal)    S(lipo)     H(rot)  DE(clash)    DE(int)     intcor
     14.47     -17.22       2.71        0.00      75.95       2.42       0.00       2.74       ----

> <Gold.Chemscore.Fitness>
14.4716

> <Gold.Chemscore.DG>
-17.2162

> <Gold.Chemscore.ZeroCoef>
-5.4800

> <Gold.Chemscore.Hbond>
2.7078

> <Gold.Chemscore.Metal>
0.0000

> <Gold.Chemscore.Lipo>
75.9541

> <Gold.Chemscore.Internal_Hbond>
0.0000

> <Gold.Chemscore.DEClash>
0.0048

> <Gold.Chemscore.DEInternal>
2.7397

> <Gold.Chemscore.Rot>
2.4197

> <Gold.Chemscore.Internal.Correction>
   9.000000E+99

> <Gold.Chemscore.Hbonds>
donor molecule, donor type, donor heavy atom, donor atom, acceptor molecule, acceptor atom, score
      P1  H  6896  6908       L1     8  0.84
      P1  H  6934  6947       L1    17  1.00

> <Gold.Chemscore.Hbond.Weighted>
-9.0439

> <Gold.Chemscore.Metal.Weighted>
-0.0000

> <Gold.Chemscore.Lipo.Weighted>
-8.8866

> <Gold.Chemscore.Internal_Hbond.Weighted>
0.0000

> <Gold.Chemscore.DEClash.Weighted>
0.0048

> <Gold.Chemscore.DEInternal.Weighted>
2.7397

> <Gold.Chemscore.Rot.Weighted>
6.1943

> <Gold.Chemscore.Internal.Correction.Weighted>
   9.000000E+99

> <Gold.Protein.RotatedTorsions>
[ 6907 6896 6895 6894 ] final -166.68 input  -60.11 | X-H torsion
[ 7974 7965 7964 7962 ] final  179.44 input  175.53 | X-H torsion
[ 8008 7997 7996 7995 ] final  -17.38 input   59.86 | X-H torsion
[ 10167 10162 10161 10158 ] final  -76.00 input  -65.29 | X-H torsion
[ 10718 10713 10712 10709 ] final  -54.53 input   66.30 | X-H torsion
[ 10763 10752 10751 10750 ] final -147.61 input  -60.55 | X-H torsion
[ 11005 11000 10999 10996 ] final  -82.75 input  -57.11 | X-H torsion

> <Gold.Protein.ActiveResidues>
 VAL166  LYS551  ARG553  GLY616  TRP617  ASP618  TYR619  PRO620  LYS621  CYS622 
 ASP623  PHE694  ASN695  SER759  ASP760  ASP761  ALA762  ILE779  LEU786  VAL792 
 PHE793  MET794  SER795  GLU796  ALA797  LYS798  CYS799  TRP800  GLU811  SER814 

> <Gold.Protein.RotatedAtoms>
  151.4474  133.3626  159.2790 H   0  0  0  0  0  0  0  0  0  0  0  0  # atno 6907 bound_to 6896
  150.9114  134.8533  159.7439 H   0  0  0  0  0  0  0  0  0  0  0  0  # atno 6908 bound_to 6896
  152.4934  134.4404  159.9594 H   0  0  0  0  0  0  0  0  0  0  0  0  # atno 6909 bound_to 6896
  144.7145  140.0549  143.6434 H   0  0  0  0  0  0  0  0  0  0  0  0  # atno 7974 bound_to 7965
  154.4982  140.2144  155.9402 H   0  0  0  0  0  0  0  0  0  0  0  0  # atno 8008 bound_to 7997
  156.1399  140.3181  155.8446 H   0  0  0  0  0  0  0  0  0  0  0  0  # atno 8009 bound_to 7997
  155.4140  140.0492  157.3020 H   0  0  0  0  0  0  0  0  0  0  0  0  # atno 8010 bound_to 7997
  140.4894  143.2384  151.7931 H   0  0  0  0  0  0  0  0  0  0  0  0  # atno 10167 bound_to 10162
  156.1443  130.4153  150.0050 H   0  0  0  0  0  0  0  0  0  0  0  0  # atno 10718 bound_to 10713
  154.8276  135.3355  154.6845 H   0  0  0  0  0  0  0  0  0  0  0  0  # atno 10763 bound_to 10752
  153.7469  135.6942  153.4959 H   0  0  0  0  0  0  0  0  0  0  0  0  # atno 10764 bound_to 10752
  153.2204  135.4451  155.0433 H   0  0  0  0  0  0  0  0  0  0  0  0  # atno 10765 bound_to 10752
  141.1661  133.7260  156.8618 H   0  0  0  0  0  0  0  0  0  0  0  0  # atno 11005 bound_to 11000
  145.9913  139.3017  143.0983 LP  0  0  0  0  0  0  0  0  0  0  0  0  # atno 17320 bound_to 7965
  145.8900  140.9310  143.0557 LP  0  0  0  0  0  0  0  0  0  0  0  0  # atno 17321 bound_to 7965
  139.4848  144.4669  151.9473 LP  0  0  0  0  0  0  0  0  0  0  0  0  # atno 17342 bound_to 10162
  140.3755  144.2801  150.5914 LP  0  0  0  0  0  0  0  0  0  0  0  0  # atno 17343 bound_to 10162
  156.7926  130.9262  151.3646 LP  0  0  0  0  0  0  0  0  0  0  0  0  # atno 17370 bound_to 10713
  157.6603  130.8960  149.9816 LP  0  0  0  0  0  0  0  0  0  0  0  0  # atno 17371 bound_to 10713
  140.1843  134.9011  157.2985 LP  0  0  0  0  0  0  0  0  0  0  0  0  # atno 17394 bound_to 11000
  140.2360  134.3852  155.7501 LP  0  0  0  0  0  0  0  0  0  0  0  0  # atno 17395 bound_to 11000

$$$$
