AV-unprocessed.smi:3303|AV-procd|sdf|12668|dock4
  -GOLD-   2272019 03D 1   1.00000     0.00000
 Structure written by MMmdl.
 45 46  0  0  0  0  0  0  0  0  3 V2000
  150.5140  139.2123  155.8510 C   0  0  0  0  0  0  0  0  0  0  0  0
  149.7763  139.9539  154.7218 C   0  0  1  0  0  0  0  0  0  0  0  0
  148.5870  139.1049  154.2232 C   0  0  0  0  0  0  0  0  0  0  0  0
  147.8430  139.7870  153.1348 N   0  3  1  0  0  0  0  0  0  0  0  0
  146.8288  138.9154  152.4982 C   0  0  0  0  0  0  0  0  0  0  0  0
  147.3348  141.1333  153.5227 C   0  0  1  0  0  0  0  0  0  0  0  0
  146.1698  141.0903  154.5353 C   0  0  0  0  0  0  0  0  0  0  0  0
  148.5016  142.0152  154.0101 C   0  0  0  0  0  0  0  0  0  0  0  0
  149.3043  141.3615  155.1564 C   0  0  2  0  0  0  0  0  0  0  0  0
  150.4636  142.2050  155.5321 N   0  3  0  0  0  0  0  0  0  0  0  0
  150.9011  142.0855  156.9385 C   0  0  0  0  0  0  0  0  0  0  0  0
  151.9471  143.1548  157.2815 C   0  0  0  0  0  0  0  0  0  0  0  0
  152.2503  143.1989  158.7668 C   0  0  0  0  0  0  0  0  0  0  0  0
  152.0922  144.3935  159.5011 C   0  0  0  0  0  0  0  0  0  0  0  0
  152.3985  144.3806  160.8759 C   0  0  0  0  0  0  0  0  0  0  0  0
  152.8496  143.1808  161.4587 C   0  0  0  0  0  0  0  0  0  0  0  0
  152.9756  142.0423  160.6383 C   0  0  0  0  0  0  0  0  0  0  0  0
  152.6858  142.0442  159.3189 N   0  0  0  0  0  0  0  0  0  0  0  0
  149.8754  139.0846  156.7258 H   0  0  0  0  0  0  0  0  0  0  0  0
  151.4100  139.7462  156.1685 H   0  0  0  0  0  0  0  0  0  0  0  0
  150.8309  138.2208  155.5262 H   0  0  0  0  0  0  0  0  0  0  0  0
  150.4734  140.0684  153.8897 H   0  0  0  0  0  0  0  0  0  0  0  0
  148.9599  138.1505  153.8484 H   0  0  0  0  0  0  0  0  0  0  0  0
  147.9111  138.8683  155.0460 H   0  0  0  0  0  0  0  0  0  0  0  0
  146.0811  138.5775  153.2163 H   0  0  0  0  0  0  0  0  0  0  0  0
  147.3039  138.0316  152.0714 H   0  0  0  0  0  0  0  0  0  0  0  0
  146.3193  139.4394  151.6887 H   0  0  0  0  0  0  0  0  0  0  0  0
  146.9463  141.5967  152.6145 H   0  0  0  0  0  0  0  0  0  0  0  0
  145.8456  142.0997  154.7896 H   0  0  0  0  0  0  0  0  0  0  0  0
  146.4431  140.5955  155.4667 H   0  0  0  0  0  0  0  0  0  0  0  0
  145.2996  140.5754  154.1290 H   0  0  0  0  0  0  0  0  0  0  0  0
  149.1710  142.2096  153.1704 H   0  0  0  0  0  0  0  0  0  0  0  0
  148.1134  142.9874  154.3140 H   0  0  0  0  0  0  0  0  0  0  0  0
  148.6646  141.2530  156.0337 H   0  0  0  0  0  0  0  0  0  0  0  0
  151.2441  141.9252  154.9550 H   0  0  0  0  0  0  0  0  0  0  0  0
  150.0423  142.1861  157.6021 H   0  0  0  0  0  0  0  0  0  0  0  0
  151.3223  141.0927  157.1028 H   0  0  0  0  0  0  0  0  0  0  0  0
  152.8703  142.9657  156.7320 H   0  0  0  0  0  0  0  0  0  0  0  0
  151.5966  144.1383  156.9642 H   0  0  0  0  0  0  0  0  0  0  0  0
  151.7453  145.2999  159.0266 H   0  0  0  0  0  0  0  0  0  0  0  0
  152.2896  145.2745  161.4722 H   0  0  0  0  0  0  0  0  0  0  0  0
  153.0937  143.1339  162.5099 H   0  0  0  0  0  0  0  0  0  0  0  0
  153.3195  141.1057  161.0522 H   0  0  0  0  0  0  0  0  0  0  0  0
  150.2497  143.1717  155.3311 H   0  0  0  0  0  0  0  0  0  0  0  0
  148.5263  139.9614  152.4117 H   0  0  0  0  0  0  0  0  0  0  0  0
  1  2  1  0  0  0  0
  1 19  1  0  0  0  0
  1 20  1  0  0  0  0
  1 21  1  0  0  0  0
  2  9  1  0  0  0  0
  2  3  1  0  0  0  0
  2 22  1  0  0  0  0
  3  4  1  0  0  0  0
  3 23  1  0  0  0  0
  3 24  1  0  0  0  0
  4  5  1  0  0  0  0
  4  6  1  0  0  0  0
  4 45  1  0  0  0  0
  5 25  1  0  0  0  0
  5 26  1  0  0  0  0
  5 27  1  0  0  0  0
  6  7  1  0  0  0  0
  6  8  1  0  0  0  0
  6 28  1  0  0  0  0
  7 29  1  0  0  0  0
  7 30  1  0  0  0  0
  7 31  1  0  0  0  0
  8  9  1  0  0  0  0
  8 32  1  0  0  0  0
  8 33  1  0  0  0  0
  9 10  1  0  0  0  0
  9 34  1  0  0  0  0
 10 11  1  0  0  0  0
 10 35  1  0  0  0  0
 10 44  1  0  0  0  0
 11 12  1  0  0  0  0
 11 36  1  0  0  0  0
 11 37  1  0  0  0  0
 12 13  1  0  0  0  0
 12 38  1  0  0  0  0
 12 39  1  0  0  0  0
 13 18  1  0  0  0  0
 13 14  2  0  0  0  0
 14 15  1  0  0  0  0
 14 40  1  0  0  0  0
 15 16  2  0  0  0  0
 15 41  1  0  0  0  0
 16 17  1  0  0  0  0
 16 42  1  0  0  0  0
 17 18  2  0  0  0  0
 17 43  1  0  0  0  0
M  CHG  1   4   1
M  CHG  1  10   1
M  END
> <s_m_source_file>
AV-unprocessed.smi

> <i_m_source_file_index>
3303

> <i_lp_mmshare_version>
43012

> <i_f3d_flags>
0

> <s_epik_input>
W0NIM11bQ0BASF0xW0NIMl1OKFtDSDNdKVtDQEBIXShbQ0gzXSlbQ0gyXVtDQEhdMVtOSF1bQ0gyXVtDSDJdYzJbY0hdW2NIXVtjSF1bY0hdbjI=

> <s_epik_cmdline>
J2VwaWtfcHl0aG9uJywgJy1waCcsICc3LjAnLCAnLXRuJywgJzgnLCAnLW1hJywgJzIwMCcsICctbWV0YWxfYmluZGluZycsICctaW1hZScsICc8aW5maWxlLm1hZT4nLCAnLW9tYWUnLCAnPG91dGZpbGUubWFlPic=

> <r_epik_Ionization_Penalty>
0.0769462

> <r_epik_Ionization_Penalty_Charging>
0.0759813

> <r_epik_Ionization_Penalty_Neutral>
0.000964829

> <r_epik_State_Penalty>
0.0654373

> <r_epik_Charging_Adjusted_Penalty>
0.141419

> <i_epik_Tot_Q>
2

> <i_epik_Tot_abs_Q>
2

> <r_epik_Metal_State_Penalty>
0.0656439

> <b_epik_Metal_Only>
0

> <s_lp_Force_Field>
OPLS_2005

> <r_lp_Energy>
28.3662

> <b_lp_Chiralities_Consistent>
1

> <s_lp_Variant>
AV-unprocessed.smi:3303-12

> <Gold.Version>
5.8.1

> <Gold.Id.Protein>
6NUR|6NUR_protein|mol2

> <Gold.PLP.Fitness>
52.0684

> <Gold.PLP.PLP>
-43.8817

> <Gold.PLP.part.hbond>
-2.0000

> <Gold.PLP.part.metal>
0.0000

> <Gold.PLP.part.buried>
-2.9502

> <Gold.PLP.part.nonpolar>
-39.1493

> <Gold.PLP.part.repulsive>
0.2372

> <Gold.PLP.ligand.clash>
0.0000

> <Gold.PLP.ligand.torsion>
0.3819

> <Gold.PLP.Chemscore.Hbond>
2.9760

> <Gold.PLP.Chemscore.CHOScore>
0.0000

> <Gold.PLP.Chemscore.Metal>
0.0000

> <Gold.Chemscore.Hbonds>
donor molecule, donor type, donor heavy atom, donor atom, acceptor molecule, acceptor atom, score
      L1  H     4    45       P1  7957  1.00
      L1  H    10    44       P1  8028  1.60

> <Gold.PLP.Chemscore.Internal.Correction>
0.0224

> <Gold.Rescore>
     Score         DG    S(hbond)    S(metal)    S(lipo)     H(rot)  DE(clash)    DE(int)     intcor
     22.98     -23.71       1.99        0.00     129.13       1.37       0.27       0.46       ----

> <Gold.Chemscore.Fitness>
22.9750

> <Gold.Chemscore.DG>
-23.7081

> <Gold.Chemscore.ZeroCoef>
-5.4800

> <Gold.Chemscore.Hbond>
1.9874

> <Gold.Chemscore.Metal>
0.0000

> <Gold.Chemscore.Lipo>
129.1337

> <Gold.Chemscore.Internal_Hbond>
0.0000

> <Gold.Chemscore.DEClash>
0.2733

> <Gold.Chemscore.DEInternal>
0.4598

> <Gold.Chemscore.Rot>
1.3744

> <Gold.Chemscore.Internal.Correction>
   9.000000E+99

> <Gold.Chemscore.Hbonds>
donor molecule, donor type, donor heavy atom, donor atom, acceptor molecule, acceptor atom, score
      L1  H     4    45       P1  7957  1.00
      L1  H    10    44       P1  8028  0.77

> <Gold.Chemscore.Hbond.Weighted>
-6.6379

> <Gold.Chemscore.Metal.Weighted>
-0.0000

> <Gold.Chemscore.Lipo.Weighted>
-15.1086

> <Gold.Chemscore.Internal_Hbond.Weighted>
0.0000

> <Gold.Chemscore.DEClash.Weighted>
0.2733

> <Gold.Chemscore.DEInternal.Weighted>
0.4598

> <Gold.Chemscore.Rot.Weighted>
3.5185

> <Gold.Chemscore.Internal.Correction.Weighted>
   9.000000E+99

> <Gold.Protein.RotatedTorsions>
[ 6907 6896 6895 6894 ] final -167.13 input  -60.11 | X-H torsion
[ 7974 7965 7964 7962 ] final  -90.36 input  175.53 | X-H torsion
[ 8008 7997 7996 7995 ] final -167.11 input   59.86 | X-H torsion
[ 10167 10162 10161 10158 ] final   65.85 input  -65.29 | X-H torsion
[ 10718 10713 10712 10709 ] final -136.76 input   66.30 | X-H torsion
[ 10763 10752 10751 10750 ] final   15.34 input  -60.55 | X-H torsion
[ 11005 11000 10999 10996 ] final   16.24 input  -57.11 | X-H torsion

> <Gold.Protein.ActiveResidues>
 VAL166  LYS551  ARG553  GLY616  TRP617  ASP618  TYR619  PRO620  LYS621  CYS622 
 ASP623  PHE694  ASN695  SER759  ASP760  ASP761  ALA762  ILE779  LEU786  VAL792 
 PHE793  MET794  SER795  GLU796  ALA797  LYS798  CYS799  TRP800  GLU811  SER814 

> <Gold.Protein.RotatedAtoms>
  151.4547  133.3608  159.2800 H   0  0  0  0  0  0  0  0  0  0  0  0  # atno 6907 bound_to 6896
  150.9067  134.8483  159.7408 H   0  0  0  0  0  0  0  0  0  0  0  0  # atno 6908 bound_to 6896
  152.4909  134.4473  159.9615 H   0  0  0  0  0  0  0  0  0  0  0  0  # atno 6909 bound_to 6896
  145.4275  140.9554  143.2146 H   0  0  0  0  0  0  0  0  0  0  0  0  # atno 7974 bound_to 7965
  155.8732  140.0997  157.1536 H   0  0  0  0  0  0  0  0  0  0  0  0  # atno 8008 bound_to 7997
  154.3999  140.1343  156.4167 H   0  0  0  0  0  0  0  0  0  0  0  0  # atno 8009 bound_to 7997
  155.7727  140.3460  155.5258 H   0  0  0  0  0  0  0  0  0  0  0  0  # atno 8010 bound_to 7997
  140.1068  144.4854  150.7003 H   0  0  0  0  0  0  0  0  0  0  0  0  # atno 10167 bound_to 10162
  156.2806  130.7318  151.1314 H   0  0  0  0  0  0  0  0  0  0  0  0  # atno 10718 bound_to 10713
  153.1534  135.6783  153.8848 H   0  0  0  0  0  0  0  0  0  0  0  0  # atno 10763 bound_to 10752
  153.8266  135.3123  155.3416 H   0  0  0  0  0  0  0  0  0  0  0  0  # atno 10764 bound_to 10752
  154.7880  135.4851  154.0075 H   0  0  0  0  0  0  0  0  0  0  0  0  # atno 10765 bound_to 10752
  140.4493  134.1240  155.7700 H   0  0  0  0  0  0  0  0  0  0  0  0  # atno 11005 bound_to 11000
  144.8205  139.5801  143.6989 LP  0  0  0  0  0  0  0  0  0  0  0  0  # atno 17320 bound_to 7965
  146.2624  139.6442  142.9352 LP  0  0  0  0  0  0  0  0  0  0  0  0  # atno 17321 bound_to 7965
  140.6948  143.2397  151.5032 LP  0  0  0  0  0  0  0  0  0  0  0  0  # atno 17342 bound_to 10162
  139.5641  144.2085  152.1737 LP  0  0  0  0  0  0  0  0  0  0  0  0  # atno 17343 bound_to 10162
  157.7313  131.0609  150.5684 LP  0  0  0  0  0  0  0  0  0  0  0  0  # atno 17370 bound_to 10713
  156.5790  130.4299  149.5986 LP  0  0  0  0  0  0  0  0  0  0  0  0  # atno 17371 bound_to 10713
  141.1671  133.8682  157.1682 LP  0  0  0  0  0  0  0  0  0  0  0  0  # atno 17394 bound_to 11000
  140.0017  135.0025  157.0205 LP  0  0  0  0  0  0  0  0  0  0  0  0  # atno 17395 bound_to 11000

$$$$
