AV-unprocessed.smi:686|AV-procd|sdf|3337|dock2
  -GOLD-   22720 0313D 1   1.00000     0.00000
 Structure written by MMmdl.
 41 42  0  0  0  0  0  0  0  0  2 V2000
  145.1171  143.5614  154.5558 C   0  0  0  0  0  0  0  0  0  0  0  0
  145.9605  142.5100  155.2936 C   0  0  2  0  0  0  0  0  0  0  0  0
  146.6713  141.5546  154.3280 C   0  0  0  0  0  0  0  0  0  0  0  0
  145.8349  140.3395  154.2623 N   0  3  1  0  0  0  0  0  0  0  0  0
  146.5128  139.1278  153.7197 C   0  0  0  0  0  0  0  0  0  0  0  0
  146.8105  139.2755  152.2158 C   0  0  0  0  0  0  0  0  0  0  0  0
  145.6731  137.8584  153.9569 C   0  0  0  0  0  0  0  0  0  0  0  0
  145.2418  140.1842  155.6079 C   0  0  0  0  0  0  0  0  0  0  0  0
  145.1007  141.5980  156.1923 C   0  0  1  0  0  0  0  0  0  0  0  0
  145.5672  141.6357  157.5827 N   0  0  0  0  0  0  0  0  0  0  0  0
  144.6839  140.7490  158.7733 S   0  0  0  0  0  0  0  0  0  0  0  0
  143.5025  140.1734  158.1127 O   0  0  0  0  0  0  0  0  0  0  0  0
  145.6332  139.8710  159.4750 O   0  0  0  0  0  0  0  0  0  0  0  0
  144.1393  142.0700  159.9362 C   0  0  0  0  0  0  0  0  0  0  0  0
  145.3442  142.7633  160.5045 C   0  0  0  0  0  0  0  0  0  0  0  0
  145.3939  143.7599  161.5182 C   0  0  0  0  0  0  0  0  0  0  0  0
  146.7276  144.0246  161.6392 C   0  0  0  0  0  0  0  0  0  0  0  0
  147.4435  143.2629  160.7739 O   0  0  0  0  0  0  0  0  0  0  0  0
  146.5511  142.4620  160.0522 N   0  0  0  0  0  0  0  0  0  0  0  0
  144.3546  143.0949  153.9310 H   0  0  0  0  0  0  0  0  0  0  0  0
  145.7400  144.1841  153.9131 H   0  0  0  0  0  0  0  0  0  0  0  0
  144.6126  144.2208  155.2631 H   0  0  0  0  0  0  0  0  0  0  0  0
  146.7166  143.0430  155.8720 H   0  0  0  0  0  0  0  0  0  0  0  0
  146.8285  141.9970  153.3437 H   0  0  0  0  0  0  0  0  0  0  0  0
  147.6499  141.2927  154.7341 H   0  0  0  0  0  0  0  0  0  0  0  0
  147.4632  139.0062  154.2418 H   0  0  0  0  0  0  0  0  0  0  0  0
  147.2587  138.3659  151.8149 H   0  0  0  0  0  0  0  0  0  0  0  0
  147.5121  140.0853  152.0151 H   0  0  0  0  0  0  0  0  0  0  0  0
  145.8996  139.4713  151.6487 H   0  0  0  0  0  0  0  0  0  0  0  0
  146.1551  136.9844  153.5181 H   0  0  0  0  0  0  0  0  0  0  0  0
  144.6829  137.9482  153.5086 H   0  0  0  0  0  0  0  0  0  0  0  0
  145.5435  137.6458  155.0181 H   0  0  0  0  0  0  0  0  0  0  0  0
  144.2809  139.6709  155.5600 H   0  0  0  0  0  0  0  0  0  0  0  0
  145.9100  139.5794  156.2242 H   0  0  0  0  0  0  0  0  0  0  0  0
  144.0515  141.8951  156.1567 H   0  0  0  0  0  0  0  0  0  0  0  0
  145.7299  142.5942  157.8909 H   0  0  0  0  0  0  0  0  0  0  0  0
  143.4976  142.7649  159.3935 H   0  0  0  0  0  0  0  0  0  0  0  0
  143.5436  141.6128  160.7260 H   0  0  0  0  0  0  0  0  0  0  0  0
  144.5810  144.2053  162.0722 H   0  0  0  0  0  0  0  0  0  0  0  0
  147.2976  144.6952  162.2652 H   0  0  0  0  0  0  0  0  0  0  0  0
  145.0687  140.5601  153.6421 H   0  0  0  0  0  0  0  0  0  0  0  0
  1  2  1  0  0  0  0
  1 20  1  0  0  0  0
  1 21  1  0  0  0  0
  1 22  1  0  0  0  0
  2  9  1  0  0  0  0
  2  3  1  0  0  0  0
  2 23  1  0  0  0  0
  3  4  1  0  0  0  0
  3 24  1  0  0  0  0
  3 25  1  0  0  0  0
  4  5  1  0  0  0  0
  4  8  1  0  0  0  0
  4 41  1  0  0  0  0
  5  6  1  0  0  0  0
  5  7  1  0  0  0  0
  5 26  1  0  0  0  0
  6 27  1  0  0  0  0
  6 28  1  0  0  0  0
  6 29  1  0  0  0  0
  7 30  1  0  0  0  0
  7 31  1  0  0  0  0
  7 32  1  0  0  0  0
  8  9  1  0  0  0  0
  8 33  1  0  0  0  0
  8 34  1  0  0  0  0
  9 10  1  0  0  0  0
  9 35  1  0  0  0  0
 10 11  1  0  0  0  0
 10 36  1  0  0  0  0
 11 12  2  0  0  0  0
 11 13  2  0  0  0  0
 11 14  1  0  0  0  0
 14 15  1  0  0  0  0
 14 37  1  0  0  0  0
 14 38  1  0  0  0  0
 15 19  2  0  0  0  0
 15 16  1  0  0  0  0
 16 17  2  0  0  0  0
 16 39  1  0  0  0  0
 17 18  1  0  0  0  0
 17 40  1  0  0  0  0
 18 19  1  0  0  0  0
M  CHG  1   4   1
M  END
> <s_m_source_file>
AV-unprocessed.smi

> <i_m_source_file_index>
686

> <i_lp_mmshare_version>
43012

> <i_f3d_flags>
0

> <s_epik_input>
W0NIM11bQ0BASF0xW0NIMl1OKFtDSF0oW0NIM10pW0NIM10pW0NIMl1bQ0BIXTFbTkhdUyg9TykoPU8pW0NIMl1jMltjSF1bY0hdb24y

> <s_epik_cmdline>
J2VwaWtfcHl0aG9uJywgJy1waCcsICc3LjAnLCAnLXRuJywgJzgnLCAnLW1hJywgJzIwMCcsICctbWV0YWxfYmluZGluZycsICctaW1hZScsICc8aW5maWxlLm1hZT4nLCAnLW9tYWUnLCAnPG91dGZpbGUubWFlPic=

> <r_epik_Ionization_Penalty>
0.00200818

> <r_epik_Ionization_Penalty_Charging>
0.000701289

> <r_epik_Ionization_Penalty_Neutral>
0.00130689

> <r_epik_State_Penalty>
0.00131314

> <r_epik_Charging_Adjusted_Penalty>
0.00201443

> <i_epik_Tot_Q>
1

> <i_epik_Tot_abs_Q>
1

> <r_epik_Metal_State_Penalty>
0.310831

> <b_epik_Metal_Only>
0

> <s_lp_Force_Field>
OPLS_2005

> <r_lp_Energy>
22.7484

> <b_lp_Chiralities_Consistent>
1

> <s_lp_Variant>
AV-unprocessed.smi:686-1

> <Gold.Version>
5.8.1

> <Gold.Id.Protein>
6NUR|6NUR_protein|mol2

> <Gold.PLP.Fitness>
38.7801

> <Gold.PLP.PLP>
-27.1146

> <Gold.PLP.part.hbond>
-4.1473

> <Gold.PLP.part.metal>
0.0000

> <Gold.PLP.part.buried>
-4.5139

> <Gold.PLP.part.nonpolar>
-19.5604

> <Gold.PLP.part.repulsive>
0.0753

> <Gold.PLP.ligand.clash>
0.0000

> <Gold.PLP.ligand.torsion>
0.2713

> <Gold.PLP.Chemscore.Hbond>
4.0000

> <Gold.PLP.Chemscore.CHOScore>
0.0000

> <Gold.PLP.Chemscore.Metal>
0.0000

> <Gold.Chemscore.Hbonds>
donor molecule, donor type, donor heavy atom, donor atom, acceptor molecule, acceptor atom, score
      L1  H     4    41       P1 10175  2.00
      P1  H  6933  6944       L1    18  1.00
      P1  H  6934  6946       L1    19  1.00

> <Gold.PLP.Chemscore.Internal.Correction>
0.2080

> <Gold.Rescore>
     Score         DG    S(hbond)    S(metal)    S(lipo)     H(rot)  DE(clash)    DE(int)     intcor
     10.12     -13.08       1.97        0.00      50.62       1.91       0.04       2.93       ----

> <Gold.Chemscore.Fitness>
10.1161

> <Gold.Chemscore.DG>
-13.0767

> <Gold.Chemscore.ZeroCoef>
-5.4800

> <Gold.Chemscore.Hbond>
1.9665

> <Gold.Chemscore.Metal>
0.0000

> <Gold.Chemscore.Lipo>
50.6162

> <Gold.Chemscore.Internal_Hbond>
0.0000

> <Gold.Chemscore.DEClash>
0.0354

> <Gold.Chemscore.DEInternal>
2.9252

> <Gold.Chemscore.Rot>
1.9115

> <Gold.Chemscore.Internal.Correction>
   9.000000E+99

> <Gold.Chemscore.Hbonds>
donor molecule, donor type, donor heavy atom, donor atom, acceptor molecule, acceptor atom, score
      L1  H     4    41       P1 10175  0.99
      P1  H  6933  6944       L1    18  0.58
      P1  H  6934  6946       L1    19  0.16

> <Gold.Chemscore.Hbond.Weighted>
-6.5680

> <Gold.Chemscore.Metal.Weighted>
-0.0000

> <Gold.Chemscore.Lipo.Weighted>
-5.9221

> <Gold.Chemscore.Internal_Hbond.Weighted>
0.0000

> <Gold.Chemscore.DEClash.Weighted>
0.0354

> <Gold.Chemscore.DEInternal.Weighted>
2.9252

> <Gold.Chemscore.Rot.Weighted>
4.8935

> <Gold.Chemscore.Internal.Correction.Weighted>
   9.000000E+99

> <Gold.Protein.RotatedTorsions>
[ 6907 6896 6895 6894 ] final  -16.55 input  -60.11 | X-H torsion
[ 7974 7965 7964 7962 ] final -155.41 input  175.53 | X-H torsion
[ 8008 7997 7996 7995 ] final  -47.56 input   59.86 | X-H torsion
[ 10167 10162 10161 10158 ] final   28.59 input  -65.29 | X-H torsion
[ 10718 10713 10712 10709 ] final -103.66 input   66.30 | X-H torsion
[ 10763 10752 10751 10750 ] final    7.97 input  -60.55 | X-H torsion
[ 11005 11000 10999 10996 ] final -112.33 input  -57.11 | X-H torsion

> <Gold.Protein.ActiveResidues>
 VAL166  LYS551  ARG553  GLY616  TRP617  ASP618  TYR619  PRO620  LYS621  CYS622 
 ASP623  PHE694  ASN695  SER759  ASP760  ASP761  ALA762  ILE779  LEU786  VAL792 
 PHE793  MET794  SER795  GLU796  ALA797  LYS798  CYS799  TRP800  GLU811  SER814 

> <Gold.Protein.RotatedAtoms>
  151.3069  135.0784  159.9258 H   0  0  0  0  0  0  0  0  0  0  0  0  # atno 6907 bound_to 6896
  152.5286  133.9775  159.7801 H   0  0  0  0  0  0  0  0  0  0  0  0  # atno 6908 bound_to 6896
  151.0072  133.5948  159.2717 H   0  0  0  0  0  0  0  0  0  0  0  0  # atno 6909 bound_to 6896
  144.7641  140.4253  143.5954 H   0  0  0  0  0  0  0  0  0  0  0  0  # atno 7974 bound_to 7965
  154.4018  140.1343  156.4195 H   0  0  0  0  0  0  0  0  0  0  0  0  # atno 8008 bound_to 7997
  155.7656  140.3485  155.5200 H   0  0  0  0  0  0  0  0  0  0  0  0  # atno 8009 bound_to 7997
  155.8817  140.0988  157.1471 H   0  0  0  0  0  0  0  0  0  0  0  0  # atno 8010 bound_to 7997
  140.4839  144.0572  150.6274 H   0  0  0  0  0  0  0  0  0  0  0  0  # atno 10167 bound_to 10162
  156.0274  130.5478  150.7285 H   0  0  0  0  0  0  0  0  0  0  0  0  # atno 10718 bound_to 10713
  153.2303  135.6892  153.7898 H   0  0  0  0  0  0  0  0  0  0  0  0  # atno 10763 bound_to 10752
  153.7064  135.3289  155.3237 H   0  0  0  0  0  0  0  0  0  0  0  0  # atno 10764 bound_to 10752
  154.8311  135.4580  154.1186 H   0  0  0  0  0  0  0  0  0  0  0  0  # atno 10765 bound_to 10752
  141.0682  133.9424  157.2538 H   0  0  0  0  0  0  0  0  0  0  0  0  # atno 11005 bound_to 11000
  145.6524  139.1567  143.2854 LP  0  0  0  0  0  0  0  0  0  0  0  0  # atno 17320 bound_to 7965
  146.1733  140.6612  142.9223 LP  0  0  0  0  0  0  0  0  0  0  0  0  # atno 17321 bound_to 7965
  140.3822  143.2796  152.0157 LP  0  0  0  0  0  0  0  0  0  0  0  0  # atno 17342 bound_to 10162
  139.4838  144.6145  151.7371 LP  0  0  0  0  0  0  0  0  0  0  0  0  # atno 17343 bound_to 10162
  157.4883  131.0908  151.0456 LP  0  0  0  0  0  0  0  0  0  0  0  0  # atno 17370 bound_to 10713
  157.0870  130.5926  149.5432 LP  0  0  0  0  0  0  0  0  0  0  0  0  # atno 17371 bound_to 10713
  139.9497  135.0178  156.8956 LP  0  0  0  0  0  0  0  0  0  0  0  0  # atno 17394 bound_to 11000
  140.5730  134.0425  155.7437 LP  0  0  0  0  0  0  0  0  0  0  0  0  # atno 17395 bound_to 11000

$$$$
