AV-unprocessed.smi:2157|AV-procd|sdf|8785|dock1
  -GOLD-   2272011563D 1   1.00000     0.00000
 Structure written by MMmdl.
 41 42  0  0  0  0  0  0  0  0  1 V2000
  153.5364  141.7206  160.9328 C   0  0  0  0  0  0  0  0  0  0  0  0
  153.1420  142.2939  159.5643 C   0  0  2  0  0  0  0  0  0  0  0  0
  152.8269  143.7993  159.6547 C   0  0  0  0  0  0  0  0  0  0  0  0
  152.4244  144.3747  158.2876 C   0  0  0  0  0  0  0  0  0  0  0  0
  151.2383  143.6053  157.6863 C   0  0  0  0  0  0  0  0  0  0  0  0
  151.5443  142.1004  157.5811 C   0  0  2  0  0  0  0  0  0  0  0  0
  150.3769  141.3974  157.0579 N   0  0  0  0  0  0  0  0  0  0  0  0
  150.3442  140.6901  155.9183 C   0  0  0  0  0  0  0  0  0  0  0  0
  151.3214  140.5520  155.1810 O   0  0  0  0  0  0  0  0  0  0  0  0
  149.0060  140.0177  155.5830 C   0  0  0  0  0  0  0  0  0  0  0  0
  147.9296  140.9801  155.3155 N   0  0  0  0  0  0  0  0  0  0  0  0
  147.8361  141.5739  154.0701 C   0  0  0  0  0  0  0  0  0  0  0  0
  146.8897  142.4824  153.7474 C   0  0  0  0  0  0  0  0  0  0  0  0
  145.8847  142.8949  154.7197 C   0  0  0  0  0  0  0  0  0  0  0  0
  145.0156  143.7314  154.4714 O   0  0  0  0  0  0  0  0  0  0  0  0
  145.9952  142.2619  155.9814 N   0  0  0  0  0  0  0  0  0  0  0  0
  145.0508  142.6122  157.0220 C   0  0  0  0  0  0  0  0  0  0  0  0
  146.9983  141.3258  156.3179 C   0  0  0  0  0  0  0  0  0  0  0  0
  147.0719  140.8266  157.4436 O   0  0  0  0  0  0  0  0  0  0  0  0
  151.9512  141.5285  158.9551 C   0  0  0  0  0  0  0  0  0  0  0  0
  152.7241  141.8190  161.6533 H   0  0  0  0  0  0  0  0  0  0  0  0
  154.4064  142.2373  161.3393 H   0  0  0  0  0  0  0  0  0  0  0  0
  153.7884  140.6624  160.8573 H   0  0  0  0  0  0  0  0  0  0  0  0
  153.9964  142.1684  158.8977 H   0  0  0  0  0  0  0  0  0  0  0  0
  152.0199  143.9651  160.3698 H   0  0  0  0  0  0  0  0  0  0  0  0
  153.6938  144.3393  160.0371 H   0  0  0  0  0  0  0  0  0  0  0  0
  152.1694  145.4300  158.3895 H   0  0  0  0  0  0  0  0  0  0  0  0
  153.2744  144.3265  157.6059 H   0  0  0  0  0  0  0  0  0  0  0  0
  150.3547  143.7624  158.3069 H   0  0  0  0  0  0  0  0  0  0  0  0
  151.0007  144.0093  156.7014 H   0  0  0  0  0  0  0  0  0  0  0  0
  152.3766  141.9731  156.8858 H   0  0  0  0  0  0  0  0  0  0  0  0
  149.5297  141.4539  157.6041 H   0  0  0  0  0  0  0  0  0  0  0  0
  149.1564  139.3802  154.7107 H   0  0  0  0  0  0  0  0  0  0  0  0
  148.7180  139.3445  156.3926 H   0  0  0  0  0  0  0  0  0  0  0  0
  148.5613  141.3046  153.3159 H   0  0  0  0  0  0  0  0  0  0  0  0
  146.8778  142.9123  152.7565 H   0  0  0  0  0  0  0  0  0  0  0  0
  144.7307  141.6932  157.5164 H   0  0  0  0  0  0  0  0  0  0  0  0
  144.1716  143.0981  156.5992 H   0  0  0  0  0  0  0  0  0  0  0  0
  145.5719  143.2770  157.7126 H   0  0  0  0  0  0  0  0  0  0  0  0
  152.2086  140.4731  158.8552 H   0  0  0  0  0  0  0  0  0  0  0  0
  151.1009  141.5745  159.6373 H   0  0  0  0  0  0  0  0  0  0  0  0
  1  2  1  0  0  0  0
  1 21  1  0  0  0  0
  1 22  1  0  0  0  0
  1 23  1  0  0  0  0
  2 20  1  0  0  0  0
  2  3  1  0  0  0  0
  2 24  1  0  0  0  0
  3  4  1  0  0  0  0
  3 25  1  0  0  0  0
  3 26  1  0  0  0  0
  4  5  1  0  0  0  0
  4 27  1  0  0  0  0
  4 28  1  0  0  0  0
  5  6  1  0  0  0  0
  5 29  1  0  0  0  0
  5 30  1  0  0  0  0
  6  7  1  0  0  0  0
  6 20  1  0  0  0  0
  6 31  1  0  0  0  0
  7  8  1  0  0  0  0
  7 32  1  0  0  0  0
  8  9  2  0  0  0  0
  8 10  1  0  0  0  0
 10 11  1  0  0  0  0
 10 33  1  0  0  0  0
 10 34  1  0  0  0  0
 11 18  1  0  0  0  0
 11 12  1  0  0  0  0
 12 13  2  0  0  0  0
 12 35  1  0  0  0  0
 13 14  1  0  0  0  0
 13 36  1  0  0  0  0
 14 15  2  0  0  0  0
 14 16  1  0  0  0  0
 16 17  1  0  0  0  0
 16 18  1  0  0  0  0
 17 37  1  0  0  0  0
 17 38  1  0  0  0  0
 17 39  1  0  0  0  0
 18 19  2  0  0  0  0
 20 40  1  0  0  0  0
 20 41  1  0  0  0  0
M  END
> <s_m_source_file>
AV-unprocessed.smi

> <i_m_source_file_index>
2157

> <i_lp_mmshare_version>
43012

> <i_f3d_flags>
0

> <s_epik_input>
W0NIM11bQ0BASF0xW0NIMl1bQ0gyXVtDSDJdW0NASF0oW0NIMl0xKVtOSF1DKD1PKVtDSDJdbjJbY0hdW2NIXWMoPU8pbihbQ0gzXSljMj1P

> <s_epik_cmdline>
J2VwaWtfcHl0aG9uJywgJy1waCcsICc3LjAnLCAnLXRuJywgJzgnLCAnLW1hJywgJzIwMCcsICctbWV0YWxfYmluZGluZycsICctaW1hZScsICc8aW5maWxlLm1hZT4nLCAnLW9tYWUnLCAnPG91dGZpbGUubWFlPic=

> <r_lp_tautomer_probability>
1

> <r_epik_Ionization_Penalty>
3.1838e-08

> <r_epik_Ionization_Penalty_Charging>
1.27911e-08

> <r_epik_Ionization_Penalty_Neutral>
1.90469e-08

> <r_epik_State_Penalty>
-0

> <r_epik_Charging_Adjusted_Penalty>
1.27911e-08

> <i_epik_Tot_Q>
0

> <i_epik_Tot_abs_Q>
0

> <r_epik_Metal_State_Penalty>
-0

> <b_epik_Metal_Only>
0

> <s_lp_Force_Field>
OPLS_2005

> <r_lp_Energy>
16.5079

> <b_lp_Chiralities_Consistent>
1

> <s_lp_Variant>
AV-unprocessed.smi:2157-3

> <Gold.Version>
5.8.1

> <Gold.Id.Protein>
6NUR|6NUR_protein|mol2

> <Gold.PLP.Fitness>
46.3369

> <Gold.PLP.PLP>
-41.1925

> <Gold.PLP.part.hbond>
-1.0000

> <Gold.PLP.part.metal>
0.0000

> <Gold.PLP.part.buried>
-6.5811

> <Gold.PLP.part.nonpolar>
-33.8215

> <Gold.PLP.part.repulsive>
0.2887

> <Gold.PLP.ligand.clash>
0.0000

> <Gold.PLP.ligand.torsion>
0.3261

> <Gold.PLP.Chemscore.Hbond>
0.9280

> <Gold.PLP.Chemscore.CHOScore>
1.0000

> <Gold.PLP.Chemscore.Metal>
0.0000

> <Gold.Chemscore.Hbonds>
donor molecule, donor type, donor heavy atom, donor atom, acceptor molecule, acceptor atom, score
      P1  H  7989  7998       L1     9  0.90
      L1  C    12    35       P1  7957  0.58

> <Gold.PLP.Chemscore.Internal.Correction>
0.0126

> <Gold.Rescore>
     Score         DG    S(hbond)    S(metal)    S(lipo)     H(rot)  DE(clash)    DE(int)     intcor
     15.38     -15.84       0.98        0.00      93.83       1.52       0.08       0.37       ----

> <Gold.Chemscore.Fitness>
15.3810

> <Gold.Chemscore.DG>
-15.8380

> <Gold.Chemscore.ZeroCoef>
-5.4800

> <Gold.Chemscore.Hbond>
0.9826

> <Gold.Chemscore.Metal>
0.0000

> <Gold.Chemscore.Lipo>
93.8284

> <Gold.Chemscore.Internal_Hbond>
0.0000

> <Gold.Chemscore.DEClash>
0.0823

> <Gold.Chemscore.DEInternal>
0.3746

> <Gold.Chemscore.Rot>
1.5242

> <Gold.Chemscore.Internal.Correction>
   9.000000E+99

> <Gold.Chemscore.Hbonds>
donor molecule, donor type, donor heavy atom, donor atom, acceptor molecule, acceptor atom, score
      P1  H  7989  7998       L1     9  0.88

> <Gold.Chemscore.Hbond.Weighted>
-3.2820

> <Gold.Chemscore.Metal.Weighted>
-0.0000

> <Gold.Chemscore.Lipo.Weighted>
-10.9779

> <Gold.Chemscore.Internal_Hbond.Weighted>
0.0000

> <Gold.Chemscore.DEClash.Weighted>
0.0823

> <Gold.Chemscore.DEInternal.Weighted>
0.3746

> <Gold.Chemscore.Rot.Weighted>
3.9019

> <Gold.Chemscore.Internal.Correction.Weighted>
   9.000000E+99

> <Gold.Protein.RotatedTorsions>
[ 6907 6896 6895 6894 ] final  146.01 input  -60.11 | X-H torsion
[ 7974 7965 7964 7962 ] final  -55.25 input  175.53 | X-H torsion
[ 8008 7997 7996 7995 ] final  -63.52 input   59.86 | X-H torsion
[ 10167 10162 10161 10158 ] final  153.29 input  -65.29 | X-H torsion
[ 10718 10713 10712 10709 ] final   84.60 input   66.30 | X-H torsion
[ 10763 10752 10751 10750 ] final  -55.08 input  -60.55 | X-H torsion
[ 11005 11000 10999 10996 ] final  -76.25 input  -57.11 | X-H torsion

> <Gold.Protein.ActiveResidues>
 VAL166  LYS551  ARG553  GLY616  TRP617  ASP618  TYR619  PRO620  LYS621  CYS622 
 ASP623  PHE694  ASN695  SER759  ASP760  ASP761  ALA762  ILE779  LEU786  VAL792 
 PHE793  MET794  SER795  GLU796  ALA797  LYS798  CYS799  TRP800  GLU811  SER814 

> <Gold.Protein.RotatedAtoms>
  152.1735  133.4659  159.4921 H   0  0  0  0  0  0  0  0  0  0  0  0  # atno 6907 bound_to 6896
  150.6923  134.1923  159.4299 H   0  0  0  0  0  0  0  0  0  0  0  0  # atno 6908 bound_to 6896
  151.9831  135.0018  160.0609 H   0  0  0  0  0  0  0  0  0  0  0  0  # atno 6909 bound_to 6896
  145.8763  140.8178  142.9862 H   0  0  0  0  0  0  0  0  0  0  0  0  # atno 7974 bound_to 7965
  154.4559  140.0973  156.6756 H   0  0  0  0  0  0  0  0  0  0  0  0  # atno 8008 bound_to 7997
  155.5139  140.3477  155.4375 H   0  0  0  0  0  0  0  0  0  0  0  0  # atno 8009 bound_to 7997
  156.0777  140.1365  156.9740 H   0  0  0  0  0  0  0  0  0  0  0  0  # atno 8010 bound_to 7997
  139.4828  144.5286  151.7760 H   0  0  0  0  0  0  0  0  0  0  0  0  # atno 10167 bound_to 10162
  157.6901  131.0140  150.2697 H   0  0  0  0  0  0  0  0  0  0  0  0  # atno 10718 bound_to 10713
  154.1850  135.6437  153.5044 H   0  0  0  0  0  0  0  0  0  0  0  0  # atno 10763 bound_to 10752
  153.0049  135.5415  154.6474 H   0  0  0  0  0  0  0  0  0  0  0  0  # atno 10764 bound_to 10752
  154.5848  135.2928  155.0668 H   0  0  0  0  0  0  0  0  0  0  0  0  # atno 10765 bound_to 10752
  141.1652  133.6976  156.7640 H   0  0  0  0  0  0  0  0  0  0  0  0  # atno 11005 bound_to 11000
  144.6726  140.1316  143.7443 LP  0  0  0  0  0  0  0  0  0  0  0  0  # atno 17320 bound_to 7965
  145.9077  139.2468  143.1456 LP  0  0  0  0  0  0  0  0  0  0  0  0  # atno 17321 bound_to 7965
  140.4809  144.1451  150.5932 LP  0  0  0  0  0  0  0  0  0  0  0  0  # atno 17342 bound_to 10162
  140.4279  143.2581  151.9633 LP  0  0  0  0  0  0  0  0  0  0  0  0  # atno 17343 bound_to 10162
  156.3262  130.3793  149.7531 LP  0  0  0  0  0  0  0  0  0  0  0  0  # atno 17370 bound_to 10713
  156.5085  130.8161  151.3160 LP  0  0  0  0  0  0  0  0  0  0  0  0  # atno 17371 bound_to 10713
  140.2513  134.8538  157.3670 LP  0  0  0  0  0  0  0  0  0  0  0  0  # atno 17394 bound_to 11000
  140.1700  134.4621  155.7838 LP  0  0  0  0  0  0  0  0  0  0  0  0  # atno 17395 bound_to 11000

$$$$
