AV-unprocessed.smi:3284|AV-procd|sdf|12579|dock3
  -GOLD-   2272018503D 1   1.00000     0.00000
 Structure written by MMmdl.
 45 46  0  0  0  0  0  0  0  0  3 V2000
  153.9102  140.5388  160.0812 C   0  0  0  0  0  0  0  0  0  0  0  0
  153.2143  141.8369  160.4578 C   0  0  0  0  0  0  0  0  0  0  0  0
  153.1603  142.2425  161.7421 C   0  0  0  0  0  0  0  0  0  0  0  0
  152.5479  143.5496  162.2140 C   0  0  0  0  0  0  0  0  0  0  0  0
  151.8191  144.3146  161.0971 C   0  0  0  0  0  0  0  0  0  0  0  0
  152.5464  144.1741  159.7483 C   0  0  2  0  0  0  0  0  0  0  0  0
  151.9620  145.1134  158.6794 C   0  0  0  0  0  0  0  0  0  0  0  0
  152.6355  142.6829  159.3156 C   0  0  2  0  0  0  0  0  0  0  0  0
  151.2846  142.1266  158.7920 C   0  0  0  0  0  0  0  0  0  0  0  0
  151.2530  141.9648  157.3249 N   0  3  0  0  0  0  0  0  0  0  0  0
  150.1366  141.1337  156.8326 C   0  0  0  0  0  0  0  0  0  0  0  0
  150.0519  141.1750  155.2991 C   0  0  0  0  0  0  0  0  0  0  0  0
  148.6621  141.3874  154.7705 C   0  0  0  0  0  0  0  0  0  0  0  0
  147.9736  142.5363  154.8061 N   0  3  0  0  0  0  0  0  0  0  0  0
  146.7524  142.3827  154.2083 C   0  0  0  0  0  0  0  0  0  0  0  0
  146.6963  141.0853  153.7725 C   0  0  0  0  0  0  0  0  0  0  0  0
  147.8856  140.5001  154.1244 N   0  0  0  0  0  0  0  0  0  0  0  0
  148.2865  139.1180  153.8540 C   0  0  0  0  0  0  0  0  0  0  0  0
  154.6104  140.7032  159.2618 H   0  0  0  0  0  0  0  0  0  0  0  0
  153.1974  139.7718  159.7839 H   0  0  0  0  0  0  0  0  0  0  0  0
  154.4775  140.1412  160.9236 H   0  0  0  0  0  0  0  0  0  0  0  0
  153.6049  141.6315  162.5143 H   0  0  0  0  0  0  0  0  0  0  0  0
  151.8666  143.3552  163.0430 H   0  0  0  0  0  0  0  0  0  0  0  0
  153.3572  144.1637  162.6104 H   0  0  0  0  0  0  0  0  0  0  0  0
  150.7975  143.9451  161.0062 H   0  0  0  0  0  0  0  0  0  0  0  0
  151.7332  145.3650  161.3780 H   0  0  0  0  0  0  0  0  0  0  0  0
  153.5717  144.5136  159.9076 H   0  0  0  0  0  0  0  0  0  0  0  0
  150.8906  144.9638  158.5467 H   0  0  0  0  0  0  0  0  0  0  0  0
  152.4486  144.9665  157.7150 H   0  0  0  0  0  0  0  0  0  0  0  0
  152.1064  146.1565  158.9629 H   0  0  0  0  0  0  0  0  0  0  0  0
  153.3523  142.6417  158.4939 H   0  0  0  0  0  0  0  0  0  0  0  0
  151.0658  141.1649  159.2570 H   0  0  0  0  0  0  0  0  0  0  0  0
  150.4687  142.7995  159.0525 H   0  0  0  0  0  0  0  0  0  0  0  0
  151.1872  142.8804  156.9030 H   0  0  0  0  0  0  0  0  0  0  0  0
  150.2792  140.1054  157.1683 H   0  0  0  0  0  0  0  0  0  0  0  0
  149.2072  141.4947  157.2746 H   0  0  0  0  0  0  0  0  0  0  0  0
  150.6634  141.9830  154.8959 H   0  0  0  0  0  0  0  0  0  0  0  0
  150.4252  140.2393  154.8826 H   0  0  0  0  0  0  0  0  0  0  0  0
  146.0363  143.1883  154.1346 H   0  0  0  0  0  0  0  0  0  0  0  0
  145.9181  140.5504  153.2464 H   0  0  0  0  0  0  0  0  0  0  0  0
  147.5283  138.6311  153.2397 H   0  0  0  0  0  0  0  0  0  0  0  0
  148.3851  138.5802  154.7974 H   0  0  0  0  0  0  0  0  0  0  0  0
  149.2381  139.1131  153.3217 H   0  0  0  0  0  0  0  0  0  0  0  0
  152.1235  141.5395  157.0379 H   0  0  0  0  0  0  0  0  0  0  0  0
  148.3095  143.3988  155.2159 H   0  0  0  0  0  0  0  0  0  0  0  0
  1  2  1  0  0  0  0
  1 19  1  0  0  0  0
  1 20  1  0  0  0  0
  1 21  1  0  0  0  0
  2  8  1  0  0  0  0
  2  3  2  0  0  0  0
  3  4  1  0  0  0  0
  3 22  1  0  0  0  0
  4  5  1  0  0  0  0
  4 23  1  0  0  0  0
  4 24  1  0  0  0  0
  5  6  1  0  0  0  0
  5 25  1  0  0  0  0
  5 26  1  0  0  0  0
  6  7  1  0  0  0  0
  6  8  1  0  0  0  0
  6 27  1  0  0  0  0
  7 28  1  0  0  0  0
  7 29  1  0  0  0  0
  7 30  1  0  0  0  0
  8  9  1  0  0  0  0
  8 31  1  0  0  0  0
  9 10  1  0  0  0  0
  9 32  1  0  0  0  0
  9 33  1  0  0  0  0
 10 11  1  0  0  0  0
 10 34  1  0  0  0  0
 10 44  1  0  0  0  0
 11 12  1  0  0  0  0
 11 35  1  0  0  0  0
 11 36  1  0  0  0  0
 12 13  1  0  0  0  0
 12 37  1  0  0  0  0
 12 38  1  0  0  0  0
 13 17  1  0  0  0  0
 13 14  2  0  0  0  0
 14 15  1  0  0  0  0
 14 45  1  0  0  0  0
 15 16  2  0  0  0  0
 15 39  1  0  0  0  0
 16 17  1  0  0  0  0
 16 40  1  0  0  0  0
 17 18  1  0  0  0  0
 18 41  1  0  0  0  0
 18 42  1  0  0  0  0
 18 43  1  0  0  0  0
M  CHG  1  10   1
M  CHG  1  14   1
M  END
> <s_m_source_file>
AV-unprocessed.smi

> <i_m_source_file_index>
3284

> <i_lp_mmshare_version>
43012

> <i_f3d_flags>
0

> <s_epik_input>
W0NIM11DMT1bQ0hdW0NIMl1bQ0gyXVtDQEBIXShbQ0gzXSlbQ0BIXTFbQ0gyXVtOSF1bQ0gyXVtDSDJdYzJuW2NIXVtjSF1uMltDSDNd

> <s_epik_cmdline>
J2VwaWtfcHl0aG9uJywgJy1waCcsICc3LjAnLCAnLXRuJywgJzgnLCAnLW1hJywgJzIwMCcsICctbWV0YWxfYmluZGluZycsICctaW1hZScsICc8aW5maWxlLm1hZT4nLCAnLW9tYWUnLCAnPG91dGZpbGUubWFlPic=

> <r_lp_tautomer_probability>
1

> <r_epik_Ionization_Penalty>
0.892846

> <r_epik_Ionization_Penalty_Charging>
0.00275802

> <r_epik_Ionization_Penalty_Neutral>
0.890088

> <r_epik_State_Penalty>
0.485211

> <r_epik_Charging_Adjusted_Penalty>
0.487969

> <i_epik_Tot_Q>
2

> <i_epik_Tot_abs_Q>
2

> <r_epik_Metal_State_Penalty>
4.22898

> <b_epik_Metal_Only>
0

> <s_lp_Force_Field>
OPLS_2005

> <r_lp_Energy>
23.7341

> <b_lp_Chiralities_Consistent>
1

> <s_lp_Variant>
AV-unprocessed.smi:3284-8

> <Gold.Version>
5.8.1

> <Gold.Id.Protein>
6NUR|6NUR_protein|mol2

> <Gold.PLP.Fitness>
57.0108

> <Gold.PLP.PLP>
-50.3441

> <Gold.PLP.part.hbond>
-1.0000

> <Gold.PLP.part.metal>
0.0000

> <Gold.PLP.part.buried>
-4.9279

> <Gold.PLP.part.nonpolar>
-45.2789

> <Gold.PLP.part.repulsive>
0.2502

> <Gold.PLP.ligand.clash>
0.0000

> <Gold.PLP.ligand.torsion>
1.1983

> <Gold.PLP.Chemscore.Hbond>
2.0000

> <Gold.PLP.Chemscore.CHOScore>
1.0000

> <Gold.PLP.Chemscore.Metal>
0.0000

> <Gold.Chemscore.Hbonds>
donor molecule, donor type, donor heavy atom, donor atom, acceptor molecule, acceptor atom, score
      L1  H    14    45       P1  8028  1.76
      L1  C    16    40       P1 10175  1.00

> <Gold.PLP.Chemscore.Internal.Correction>
0.0632

> <Gold.Rescore>
     Score         DG    S(hbond)    S(metal)    S(lipo)     H(rot)  DE(clash)    DE(int)     intcor
     18.71     -20.03       0.99        0.00     133.34       1.70       0.07       1.25       ----

> <Gold.Chemscore.Fitness>
18.7056

> <Gold.Chemscore.DG>
-20.0300

> <Gold.Chemscore.ZeroCoef>
-5.4800

> <Gold.Chemscore.Hbond>
0.9882

> <Gold.Chemscore.Metal>
0.0000

> <Gold.Chemscore.Lipo>
133.3398

> <Gold.Chemscore.Internal_Hbond>
0.0000

> <Gold.Chemscore.DEClash>
0.0726

> <Gold.Chemscore.DEInternal>
1.2517

> <Gold.Chemscore.Rot>
1.6997

> <Gold.Chemscore.Internal.Correction>
   9.000000E+99

> <Gold.Chemscore.Hbonds>
donor molecule, donor type, donor heavy atom, donor atom, acceptor molecule, acceptor atom, score
      L1  H    14    45       P1  8028  0.83

> <Gold.Chemscore.Hbond.Weighted>
-3.3004

> <Gold.Chemscore.Metal.Weighted>
-0.0000

> <Gold.Chemscore.Lipo.Weighted>
-15.6008

> <Gold.Chemscore.Internal_Hbond.Weighted>
0.0000

> <Gold.Chemscore.DEClash.Weighted>
0.0726

> <Gold.Chemscore.DEInternal.Weighted>
1.2517

> <Gold.Chemscore.Rot.Weighted>
4.3512

> <Gold.Chemscore.Internal.Correction.Weighted>
   9.000000E+99

> <Gold.Protein.RotatedTorsions>
[ 6907 6896 6895 6894 ] final  -40.86 input  -60.11 | X-H torsion
[ 7974 7965 7964 7962 ] final  110.80 input  175.53 | X-H torsion
[ 8008 7997 7996 7995 ] final   34.34 input   59.86 | X-H torsion
[ 10167 10162 10161 10158 ] final  168.05 input  -65.29 | X-H torsion
[ 10718 10713 10712 10709 ] final   24.78 input   66.30 | X-H torsion
[ 10763 10752 10751 10750 ] final  -84.36 input  -60.55 | X-H torsion
[ 11005 11000 10999 10996 ] final  101.03 input  -57.11 | X-H torsion

> <Gold.Protein.ActiveResidues>
 VAL166  LYS551  ARG553  GLY616  TRP617  ASP618  TYR619  PRO620  LYS621  CYS622 
 ASP623  PHE694  ASN695  SER759  ASP760  ASP761  ALA762  ILE779  LEU786  VAL792 
 PHE793  MET794  SER795  GLU796  ALA797  LYS798  CYS799  TRP800  GLU811  SER814 

> <Gold.Protein.RotatedAtoms>
  150.9735  134.9103  159.7801 H   0  0  0  0  0  0  0  0  0  0  0  0  # atno 6907 bound_to 6896
  152.5198  134.3508  159.9260 H   0  0  0  0  0  0  0  0  0  0  0  0  # atno 6908 bound_to 6896
  151.3517  133.3882  159.2715 H   0  0  0  0  0  0  0  0  0  0  0  0  # atno 6909 bound_to 6896
  145.2504  139.2742  143.4070 H   0  0  0  0  0  0  0  0  0  0  0  0  # atno 7974 bound_to 7965
  155.1533  140.3277  155.4426 H   0  0  0  0  0  0  0  0  0  0  0  0  # atno 8008 bound_to 7997
  156.2567  140.1973  156.6594 H   0  0  0  0  0  0  0  0  0  0  0  0  # atno 8009 bound_to 7997
  154.6458  140.0564  156.9885 H   0  0  0  0  0  0  0  0  0  0  0  0  # atno 8010 bound_to 7997
  139.4959  144.3856  151.9574 H   0  0  0  0  0  0  0  0  0  0  0  0  # atno 10167 bound_to 10162
  157.1844  130.6817  149.6125 H   0  0  0  0  0  0  0  0  0  0  0  0  # atno 10718 bound_to 10713
  154.5986  135.5523  153.7351 H   0  0  0  0  0  0  0  0  0  0  0  0  # atno 10763 bound_to 10752
  153.0145  135.6361  154.1747 H   0  0  0  0  0  0  0  0  0  0  0  0  # atno 10764 bound_to 10752
  154.1687  135.2893  155.3067 H   0  0  0  0  0  0  0  0  0  0  0  0  # atno 10765 bound_to 10752
  139.8772  134.9165  156.4845 H   0  0  0  0  0  0  0  0  0  0  0  0  # atno 11005 bound_to 11000
  146.3304  140.2893  142.8614 LP  0  0  0  0  0  0  0  0  0  0  0  0  # atno 17320 bound_to 7965
  144.9508  140.8176  143.5573 LP  0  0  0  0  0  0  0  0  0  0  0  0  # atno 17321 bound_to 7965
  140.3293  144.3335  150.5991 LP  0  0  0  0  0  0  0  0  0  0  0  0  # atno 17342 bound_to 10162
  140.5658  143.2186  151.7686 LP  0  0  0  0  0  0  0  0  0  0  0  0  # atno 17343 bound_to 10162
  155.9720  130.4636  150.6187 LP  0  0  0  0  0  0  0  0  0  0  0  0  # atno 17370 bound_to 10713
  157.3922  131.0797  151.1384 LP  0  0  0  0  0  0  0  0  0  0  0  0  # atno 17371 bound_to 10713
  140.8703  133.7993  155.9358 LP  0  0  0  0  0  0  0  0  0  0  0  0  # atno 17394 bound_to 11000
  140.8959  134.2438  157.5069 LP  0  0  0  0  0  0  0  0  0  0  0  0  # atno 17395 bound_to 11000

$$$$
