AV-unprocessed.smi:29|AV-procd|sdf|192|dock7
  -GOLD-   2262015463D 1   1.00000     0.00000
 Structure written by MMmdl.
 56 59  0  0  0  0  0  0  0  0  1 V2000
  150.6892  136.9888  159.5369 O   0  0  0  0  0  0  0  0  0  0  0  0
  149.7690  137.4185  158.8442 C   0  0  0  0  0  0  0  0  0  0  0  0
  148.6186  136.4607  158.4831 C   0  0  0  0  0  0  0  0  0  0  0  0
  148.2316  135.5089  159.5518 N   0  0  0  0  0  0  0  0  0  0  0  0
  147.9833  136.0166  160.8505 C   0  0  0  0  0  0  0  0  0  0  0  0
  148.1202  137.2138  161.1057 O   0  0  0  0  0  0  0  0  0  0  0  0
  147.5616  135.0330  161.8396 C   0  0  0  0  0  0  0  0  0  0  0  0
  147.2478  135.4326  163.0836 F   0  0  0  0  0  0  0  0  0  0  0  0
  147.4703  133.7252  161.5241 C   0  0  0  0  0  0  0  0  0  0  0  0
  147.7846  133.2285  160.2696 N   0  0  0  0  0  0  0  0  0  0  0  0
  147.6288  131.7595  159.9040 C   0  0  1  0  0  0  0  0  0  0  0  0
  148.8798  131.1241  159.2815 C   0  0  0  0  0  0  0  0  0  0  0  0
  149.5562  130.4445  160.4687 C   0  0  0  0  0  0  0  0  0  0  0  0
  148.6347  130.7283  161.6597 C   0  0  0  0  0  0  0  0  0  0  0  0
  147.3803  131.0397  161.0691 O   0  0  0  0  0  0  0  0  0  0  0  0
  148.1329  134.1315  159.2399 C   0  0  0  0  0  0  0  0  0  0  0  0
  148.3594  133.7272  158.0975 O   0  0  0  0  0  0  0  0  0  0  0  0
  149.7003  138.6726  158.3568 N   0  0  0  0  0  0  0  0  0  0  0  0
  150.6017  139.7693  158.4821 C   0  0  0  0  0  0  0  0  0  0  0  0
  151.7870  139.7197  159.2571 C   0  0  0  0  0  0  0  0  0  0  0  0
  152.6409  140.8385  159.3477 C   0  0  0  0  0  0  0  0  0  0  0  0
  153.9054  140.7580  160.1906 C   0  0  0  0  0  0  0  0  0  0  0  0
  154.1345  139.5140  160.6130 F   0  0  0  0  0  0  0  0  0  0  0  0
  154.9451  141.1597  159.4605 F   0  0  0  0  0  0  0  0  0  0  0  0
  153.7995  141.5483  161.2592 F   0  0  0  0  0  0  0  0  0  0  0  0
  152.2988  142.0266  158.6708 C   0  0  0  0  0  0  0  0  0  0  0  0
  151.1176  142.0926  157.9110 C   0  0  0  0  0  0  0  0  0  0  0  0
  150.2618  140.9723  157.8130 C   0  0  0  0  0  0  0  0  0  0  0  0
  149.0745  141.0484  157.0640 N   0  0  0  0  0  0  0  0  0  0  0  0
  148.0353  141.8504  157.6960 C   0  0  0  0  0  0  0  0  0  0  0  0
  146.7323  141.7486  156.8866 C   0  0  0  0  0  0  0  0  0  0  0  0
  146.9742  142.1328  155.5361 O   0  0  0  0  0  0  0  0  0  0  0  0
  147.9391  141.2955  154.9045 C   0  0  0  0  0  0  0  0  0  0  0  0
  149.2762  141.3829  155.6603 C   0  0  0  0  0  0  0  0  0  0  0  0
  147.7620  137.0620  158.1742 H   0  0  0  0  0  0  0  0  0  0  0  0
  148.8994  135.9284  157.5732 H   0  0  0  0  0  0  0  0  0  0  0  0
  147.1285  133.0591  162.3001 H   0  0  0  0  0  0  0  0  0  0  0  0
  146.7815  131.7207  159.2173 H   0  0  0  0  0  0  0  0  0  0  0  0
  148.5556  130.3689  158.5645 H   0  0  0  0  0  0  0  0  0  0  0  0
  149.4994  131.8409  158.7434 H   0  0  0  0  0  0  0  0  0  0  0  0
  149.6311  129.3713  160.2899 H   0  0  0  0  0  0  0  0  0  0  0  0
  150.5634  130.8233  160.6442 H   0  0  0  0  0  0  0  0  0  0  0  0
  148.5540  129.8784  162.3377 H   0  0  0  0  0  0  0  0  0  0  0  0
  148.9928  131.5827  162.2357 H   0  0  0  0  0  0  0  0  0  0  0  0
  148.9046  138.8557  157.7625 H   0  0  0  0  0  0  0  0  0  0  0  0
  152.0634  138.8355  159.8078 H   0  0  0  0  0  0  0  0  0  0  0  0
  152.9332  142.8978  158.7359 H   0  0  0  0  0  0  0  0  0  0  0  0
  150.8695  143.0146  157.4060 H   0  0  0  0  0  0  0  0  0  0  0  0
  147.8694  141.5034  158.7169 H   0  0  0  0  0  0  0  0  0  0  0  0
  148.3539  142.8919  157.7547 H   0  0  0  0  0  0  0  0  0  0  0  0
  146.3389  140.7334  156.9194 H   0  0  0  0  0  0  0  0  0  0  0  0
  145.9697  142.4001  157.3133 H   0  0  0  0  0  0  0  0  0  0  0  0
  147.5772  140.2674  154.8734 H   0  0  0  0  0  0  0  0  0  0  0  0
  148.0692  141.6180  153.8715 H   0  0  0  0  0  0  0  0  0  0  0  0
  149.6839  142.3906  155.5722 H   0  0  0  0  0  0  0  0  0  0  0  0
  150.0020  140.6995  155.2176 H   0  0  0  0  0  0  0  0  0  0  0  0
  1  2  2  0  0  0  0
  2  3  1  0  0  0  0
  2 18  1  0  0  0  0
  3  4  1  0  0  0  0
  3 35  1  0  0  0  0
  3 36  1  0  0  0  0
  4 16  1  0  0  0  0
  4  5  1  0  0  0  0
  5  6  2  0  0  0  0
  5  7  1  0  0  0  0
  7  8  1  0  0  0  0
  7  9  2  0  0  0  0
  9 10  1  0  0  0  0
  9 37  1  0  0  0  0
 10 11  1  0  0  0  0
 10 16  1  0  0  0  0
 11 15  1  0  0  0  0
 11 12  1  0  0  0  0
 11 38  1  0  0  0  0
 12 13  1  0  0  0  0
 12 39  1  0  0  0  0
 12 40  1  0  0  0  0
 13 14  1  0  0  0  0
 13 41  1  0  0  0  0
 13 42  1  0  0  0  0
 14 15  1  0  0  0  0
 14 43  1  0  0  0  0
 14 44  1  0  0  0  0
 16 17  2  0  0  0  0
 18 19  1  0  0  0  0
 18 45  1  0  0  0  0
 19 28  1  0  0  0  0
 19 20  2  0  0  0  0
 20 21  1  0  0  0  0
 20 46  1  0  0  0  0
 21 22  1  0  0  0  0
 21 26  2  0  0  0  0
 22 23  1  0  0  0  0
 22 24  1  0  0  0  0
 22 25  1  0  0  0  0
 26 27  1  0  0  0  0
 26 47  1  0  0  0  0
 27 28  2  0  0  0  0
 27 48  1  0  0  0  0
 28 29  1  0  0  0  0
 29 34  1  0  0  0  0
 29 30  1  0  0  0  0
 30 31  1  0  0  0  0
 30 49  1  0  0  0  0
 30 50  1  0  0  0  0
 31 32  1  0  0  0  0
 31 51  1  0  0  0  0
 31 52  1  0  0  0  0
 32 33  1  0  0  0  0
 33 34  1  0  0  0  0
 33 53  1  0  0  0  0
 33 54  1  0  0  0  0
 34 55  1  0  0  0  0
 34 56  1  0  0  0  0
M  END
> <s_m_source_file>
AV-unprocessed.smi

> <i_m_source_file_index>
29

> <i_lp_mmshare_version>
43012

> <i_f3d_flags>
0

> <s_epik_input>
TzFbQ0gyXVtDSDJdW0NIMl1bQ0BIXTFuKGMyPU8pW2NIXWMoRiljKD1PKW4yW0NIMl1DKD1PKVtOSF1jM1tjSF1jKEMoRikoRilGKVtjSF1bY0hdYzNONFtDSDJdW0NIMl1PW0NIMl1bQ0gyXTQ=

> <s_epik_cmdline>
J2VwaWtfcHl0aG9uJywgJy1waCcsICc3LjAnLCAnLXRuJywgJzgnLCAnLW1hJywgJzIwMCcsICctbWV0YWxfYmluZGluZycsICctaW1hZScsICc8aW5maWxlLm1hZT4nLCAnLW9tYWUnLCAnPG91dGZpbGUubWFlPic=

> <r_lp_tautomer_probability>
1

> <r_epik_Ionization_Penalty>
3.5967e-06

> <r_epik_Ionization_Penalty_Charging>
3.88729e-08

> <r_epik_Ionization_Penalty_Neutral>
3.55783e-06

> <r_epik_State_Penalty>
-0

> <r_epik_Charging_Adjusted_Penalty>
3.88729e-08

> <i_epik_Tot_Q>
0

> <i_epik_Tot_abs_Q>
0

> <r_epik_Metal_State_Penalty>
-0

> <b_epik_Metal_Only>
0

> <s_epik_Chemistry_Notes>
This compound contains an acetal/aminal-like group ( X-CH(R)-Y where X, Y are N, S, or O) that may be acid/base labile, releasing an aldehyde.

> <s_lp_Force_Field>
OPLS_2005

> <r_lp_Energy>
46.7793

> <b_lp_Chiralities_Consistent>
1

> <s_lp_Variant>
AV-unprocessed.smi:29-2

> <Gold.Version>
5.8.1

> <Gold.Id.Protein>
6NUR|6NUR_protein|mol2

> <Gold.PLP.Fitness>
59.8386

> <Gold.PLP.PLP>
-54.0965

> <Gold.PLP.part.hbond>
-3.1653

> <Gold.PLP.part.metal>
0.0000

> <Gold.PLP.part.buried>
-7.2649

> <Gold.PLP.part.nonpolar>
-44.3758

> <Gold.PLP.part.repulsive>
0.3129

> <Gold.PLP.ligand.clash>
1.1310

> <Gold.PLP.ligand.torsion>
0.8575

> <Gold.PLP.Chemscore.Hbond>
2.5680

> <Gold.PLP.Chemscore.CHOScore>
0.0000

> <Gold.PLP.Chemscore.Metal>
0.0000

> <Gold.Chemscore.Hbonds>
donor molecule, donor type, donor heavy atom, donor atom, acceptor molecule, acceptor atom, score
      P1  H  6896  6908       L1     1  1.00
      P1  H  6931  6943       L1     6  0.99
      P1  H  6934  6947       L1     6  0.65

> <Gold.PLP.Chemscore.Internal.Correction>
0.8841

> <Gold.Rescore>
     Score         DG    S(hbond)    S(metal)    S(lipo)     H(rot)  DE(clash)    DE(int)     intcor
     16.40     -20.51       2.66        0.00      95.50       1.96       0.00       4.11       ----

> <Gold.Chemscore.Fitness>
16.3978

> <Gold.Chemscore.DG>
-20.5060

> <Gold.Chemscore.ZeroCoef>
-5.4800

> <Gold.Chemscore.Hbond>
2.6588

> <Gold.Chemscore.Metal>
0.0000

> <Gold.Chemscore.Lipo>
95.5008

> <Gold.Chemscore.Internal_Hbond>
0.0000

> <Gold.Chemscore.DEClash>
0.0009

> <Gold.Chemscore.DEInternal>
4.1074

> <Gold.Chemscore.Rot>
1.9641

> <Gold.Chemscore.Internal.Correction>
   9.000000E+99

> <Gold.Chemscore.Hbonds>
donor molecule, donor type, donor heavy atom, donor atom, acceptor molecule, acceptor atom, score
      P1  H  6896  6908       L1     1  0.97
      P1  H  6931  6943       L1     6  0.93
      P1  H  6934  6947       L1     6  0.61

> <Gold.Chemscore.Hbond.Weighted>
-8.8805

> <Gold.Chemscore.Metal.Weighted>
-0.0000

> <Gold.Chemscore.Lipo.Weighted>
-11.1736

> <Gold.Chemscore.Internal_Hbond.Weighted>
0.0000

> <Gold.Chemscore.DEClash.Weighted>
0.0009

> <Gold.Chemscore.DEInternal.Weighted>
4.1074

> <Gold.Chemscore.Rot.Weighted>
5.0280

> <Gold.Chemscore.Internal.Correction.Weighted>
   9.000000E+99

> <Gold.Protein.RotatedTorsions>
[ 6907 6896 6895 6894 ] final -150.54 input  -60.11 | X-H torsion
[ 7974 7965 7964 7962 ] final -144.03 input  175.53 | X-H torsion
[ 8008 7997 7996 7995 ] final  -91.74 input   59.86 | X-H torsion
[ 10167 10162 10161 10158 ] final  125.09 input  -65.29 | X-H torsion
[ 10718 10713 10712 10709 ] final -145.50 input   66.30 | X-H torsion
[ 10763 10752 10751 10750 ] final -105.49 input  -60.55 | X-H torsion
[ 11005 11000 10999 10996 ] final -158.98 input  -57.11 | X-H torsion

> <Gold.Protein.ActiveResidues>
 VAL166  LYS551  ARG553  GLY616  TRP617  ASP618  TYR619  PRO620  LYS621  CYS622 
 ASP623  PHE694  ASN695  SER759  ASP760  ASP761  ALA762  ILE779  LEU786  VAL792 
 PHE793  MET794  SER795  GLU796  ALA797  LYS798  CYS799  TRP800  GLU811  SER814 

> <Gold.Protein.RotatedAtoms>
  151.2001  133.4616  159.2595 H   0  0  0  0  0  0  0  0  0  0  0  0  # atno 6907 bound_to 6896
  151.1078  135.0009  159.8490 H   0  0  0  0  0  0  0  0  0  0  0  0  # atno 6908 bound_to 6896
  152.5448  134.1922  159.8731 H   0  0  0  0  0  0  0  0  0  0  0  0  # atno 6909 bound_to 6896
  144.8326  140.5760  143.5505 H   0  0  0  0  0  0  0  0  0  0  0  0  # atno 7974 bound_to 7965
  154.7145  140.0516  157.0581 H   0  0  0  0  0  0  0  0  0  0  0  0  # atno 8008 bound_to 7997
  155.0511  140.3179  155.4673 H   0  0  0  0  0  0  0  0  0  0  0  0  # atno 8009 bound_to 7997
  156.2799  140.2115  156.5636 H   0  0  0  0  0  0  0  0  0  0  0  0  # atno 8010 bound_to 7997
  139.5705  144.6936  151.3793 H   0  0  0  0  0  0  0  0  0  0  0  0  # atno 10167 bound_to 10162
  156.3833  130.7848  151.2042 H   0  0  0  0  0  0  0  0  0  0  0  0  # atno 10718 bound_to 10713
  154.7950  135.4747  154.0139 H   0  0  0  0  0  0  0  0  0  0  0  0  # atno 10763 bound_to 10752
  153.1689  135.6821  153.8643 H   0  0  0  0  0  0  0  0  0  0  0  0  # atno 10764 bound_to 10752
  153.8232  135.3201  155.3390 H   0  0  0  0  0  0  0  0  0  0  0  0  # atno 10765 bound_to 10752
  140.6476  134.4484  157.5234 H   0  0  0  0  0  0  0  0  0  0  0  0  # atno 11005 bound_to 11000
  145.4862  139.1492  143.3734 LP  0  0  0  0  0  0  0  0  0  0  0  0  # atno 17320 bound_to 7965
  146.2628  140.4999  142.8846 LP  0  0  0  0  0  0  0  0  0  0  0  0  # atno 17321 bound_to 7965
  140.6989  143.7681  150.7371 LP  0  0  0  0  0  0  0  0  0  0  0  0  # atno 17342 bound_to 10162
  140.1185  143.4633  152.2327 LP  0  0  0  0  0  0  0  0  0  0  0  0  # atno 17343 bound_to 10162
  157.7494  131.0337  150.4286 LP  0  0  0  0  0  0  0  0  0  0  0  0  # atno 17370 bound_to 10713
  156.4534  130.4016  149.6621 LP  0  0  0  0  0  0  0  0  0  0  0  0  # atno 17371 bound_to 10713
  139.9057  134.8454  156.1716 LP  0  0  0  0  0  0  0  0  0  0  0  0  # atno 17394 bound_to 11000
  141.0560  133.6865  156.1862 LP  0  0  0  0  0  0  0  0  0  0  0  0  # atno 17395 bound_to 11000

$$$$
