AV-unprocessed.smi:1032|AV-procd|sdf|4489|dock1
  -GOLD-   22720 2473D 1   1.00000     0.00000
 Structure written by MMmdl.
 47 48  0  0  0  0  0  0  0  0  3 V2000
  142.5462  141.7727  157.9819 C   0  0  0  0  0  0  0  0  0  0  0  0
  142.3469  141.2787  156.5385 C   0  0  2  0  0  0  0  0  0  0  0  0
  143.1883  140.0310  156.2129 C   0  0  0  0  0  0  0  0  0  0  0  0
  144.6806  140.3632  156.0328 C   0  0  0  0  0  0  0  0  0  0  0  0
  144.8762  141.4129  154.9982 N   0  3  2  0  0  0  0  0  0  0  0  0
  146.3060  141.6760  154.6912 C   0  0  0  0  0  0  0  0  0  0  0  0
  147.0916  140.3853  154.3794 C   0  0  1  0  0  0  0  0  0  0  0  0
  146.5578  139.8576  153.1807 O   0  0  0  0  0  0  0  0  0  0  0  0
  148.5907  140.6756  154.1599 C   0  0  0  0  0  0  0  0  0  0  0  0
  149.1017  141.6663  155.1027 N   0  0  0  0  0  0  0  0  0  0  0  0
  150.0165  141.4247  156.0521 C   0  0  0  0  0  0  0  0  0  0  0  0
  150.5100  140.3150  156.2502 O   0  0  0  0  0  0  0  0  0  0  0  0
  150.2949  142.5348  156.7575 N   0  0  0  0  0  0  0  0  0  0  0  0
  151.2285  142.6978  157.8171 C   0  0  0  0  0  0  0  0  0  0  0  0
  151.6714  144.0083  158.1042 C   0  0  0  0  0  0  0  0  0  0  0  0
  152.6113  144.2148  159.1345 C   0  0  0  0  0  0  0  0  0  0  0  0
  153.0886  143.1610  159.8306 N   0  3  0  0  0  0  0  0  0  0  0  0
  152.7067  141.8896  159.5836 C   0  0  0  0  0  0  0  0  0  0  0  0
  151.7688  141.6210  158.5659 C   0  0  0  0  0  0  0  0  0  0  0  0
  144.1306  142.6539  155.3297 C   0  0  0  0  0  0  0  0  0  0  0  0
  142.6259  142.3725  155.4919 C   0  0  0  0  0  0  0  0  0  0  0  0
  143.5736  142.0798  158.1747 H   0  0  0  0  0  0  0  0  0  0  0  0
  142.2958  140.9909  158.6996 H   0  0  0  0  0  0  0  0  0  0  0  0
  141.9021  142.6266  158.1937 H   0  0  0  0  0  0  0  0  0  0  0  0
  141.2960  140.9990  156.4514 H   0  0  0  0  0  0  0  0  0  0  0  0
  143.0637  139.2774  156.9915 H   0  0  0  0  0  0  0  0  0  0  0  0
  142.8149  139.5784  155.2931 H   0  0  0  0  0  0  0  0  0  0  0  0
  145.1136  140.6937  156.9779 H   0  0  0  0  0  0  0  0  0  0  0  0
  145.2100  139.4537  155.7510 H   0  0  0  0  0  0  0  0  0  0  0  0
  146.3848  142.3427  153.8304 H   0  0  0  0  0  0  0  0  0  0  0  0
  146.7584  142.2114  155.5274 H   0  0  0  0  0  0  0  0  0  0  0  0
  146.9717  139.6592  155.1833 H   0  0  0  0  0  0  0  0  0  0  0  0
  145.6300  140.0401  153.1578 H   0  0  0  0  0  0  0  0  0  0  0  0
  149.1864  139.7606  154.1758 H   0  0  0  0  0  0  0  0  0  0  0  0
  148.7344  141.1081  153.1694 H   0  0  0  0  0  0  0  0  0  0  0  0
  148.7443  142.6063  155.0122 H   0  0  0  0  0  0  0  0  0  0  0  0
  149.7406  143.3499  156.5389 H   0  0  0  0  0  0  0  0  0  0  0  0
  151.2927  144.8520  157.5456 H   0  0  0  0  0  0  0  0  0  0  0  0
  152.9943  145.1841  159.4189 H   0  0  0  0  0  0  0  0  0  0  0  0
  153.1647  141.1287  160.1988 H   0  0  0  0  0  0  0  0  0  0  0  0
  151.4937  140.5955  158.3718 H   0  0  0  0  0  0  0  0  0  0  0  0
  144.5405  143.0984  156.2374 H   0  0  0  0  0  0  0  0  0  0  0  0
  144.2669  143.3860  154.5330 H   0  0  0  0  0  0  0  0  0  0  0  0
  142.2212  142.0562  154.5293 H   0  0  0  0  0  0  0  0  0  0  0  0
  142.0986  143.2905  155.7536 H   0  0  0  0  0  0  0  0  0  0  0  0
  144.4680  141.0649  154.1420 H   0  0  0  0  0  0  0  0  0  0  0  0
  153.7695  143.3318  160.5710 H   0  0  0  0  0  0  0  0  0  0  0  0
  1  2  1  0  0  0  0
  1 22  1  0  0  0  0
  1 23  1  0  0  0  0
  1 24  1  0  0  0  0
  2 21  1  0  0  0  0
  2  3  1  0  0  0  0
  2 25  1  0  0  0  0
  3  4  1  0  0  0  0
  3 26  1  0  0  0  0
  3 27  1  0  0  0  0
  4  5  1  0  0  0  0
  4 28  1  0  0  0  0
  4 29  1  0  0  0  0
  5  6  1  0  0  0  0
  5 20  1  0  0  0  0
  5 46  1  0  0  0  0
  6  7  1  0  0  0  0
  6 30  1  0  0  0  0
  6 31  1  0  0  0  0
  7  8  1  0  0  0  0
  7  9  1  0  0  0  0
  7 32  1  0  0  0  0
  8 33  1  0  0  0  0
  9 10  1  0  0  0  0
  9 34  1  0  0  0  0
  9 35  1  0  0  0  0
 10 11  1  0  0  0  0
 10 36  1  0  0  0  0
 11 12  2  0  0  0  0
 11 13  1  0  0  0  0
 13 14  1  0  0  0  0
 13 37  1  0  0  0  0
 14 19  1  0  0  0  0
 14 15  2  0  0  0  0
 15 16  1  0  0  0  0
 15 38  1  0  0  0  0
 16 17  2  0  0  0  0
 16 39  1  0  0  0  0
 17 18  1  0  0  0  0
 17 47  1  0  0  0  0
 18 19  2  0  0  0  0
 18 40  1  0  0  0  0
 19 41  1  0  0  0  0
 20 21  1  0  0  0  0
 20 42  1  0  0  0  0
 20 43  1  0  0  0  0
 21 44  1  0  0  0  0
 21 45  1  0  0  0  0
M  CHG  1   5   1
M  CHG  1  17   1
M  END
> <s_m_source_file>
AV-unprocessed.smi

> <i_m_source_file_index>
1032

> <i_lp_mmshare_version>
43012

> <i_f3d_flags>
0

> <s_epik_input>
W0NIM11bQ0hdMVtDSDJdW0NIMl1OKFtDSDJdW0NIMl0xKVtDSDJdW0NASF0oW09IXSlbQ0gyXVtOSF1DKD1PKVtOSF1jMltjSF1bY0hdbltjSF1bY0hdMg==

> <s_epik_cmdline>
J2VwaWtfcHl0aG9uJywgJy1waCcsICc3LjAnLCAnLXRuJywgJzgnLCAnLW1hJywgJzIwMCcsICctbWV0YWxfYmluZGluZycsICctaW1hZScsICc8aW5maWxlLm1hZT4nLCAnLW9tYWUnLCAnPG91dGZpbGUubWFlPic=

> <r_epik_Ionization_Penalty>
1.02509

> <r_epik_Ionization_Penalty_Charging>
1.02507

> <r_epik_Ionization_Penalty_Neutral>
1.85474e-05

> <r_epik_State_Penalty>
1.07411

> <r_epik_Charging_Adjusted_Penalty>
2.09917

> <i_epik_Tot_Q>
2

> <i_epik_Tot_abs_Q>
2

> <r_epik_Metal_State_Penalty>
1.1725

> <b_epik_Metal_Only>
0

> <s_lp_Force_Field>
OPLS_2005

> <r_lp_Energy>
32.8821

> <b_lp_Chiralities_Consistent>
1

> <s_lp_Variant>
AV-unprocessed.smi:1032-8

> <Gold.Version>
5.8.1

> <Gold.Id.Protein>
6NUR|6NUR_protein|mol2

> <Gold.PLP.Fitness>
50.5677

> <Gold.PLP.PLP>
-36.3321

> <Gold.PLP.part.hbond>
-4.0000

> <Gold.PLP.part.metal>
0.0000

> <Gold.PLP.part.buried>
-6.2138

> <Gold.PLP.part.nonpolar>
-27.2256

> <Gold.PLP.part.repulsive>
0.3202

> <Gold.PLP.ligand.clash>
0.0000

> <Gold.PLP.ligand.torsion>
0.3398

> <Gold.PLP.Chemscore.Hbond>
4.9440

> <Gold.PLP.Chemscore.CHOScore>
0.0000

> <Gold.PLP.Chemscore.Metal>
0.0000

> <Gold.Chemscore.Hbonds>
donor molecule, donor type, donor heavy atom, donor atom, acceptor molecule, acceptor atom, score
      L1  H     5    46       P1 10175  2.00
      L1  H     8    33       P1 10175  0.81
      L1  H    10    36       P1  8028  0.55
      L1  H    13    37       P1  8028  1.00

> <Gold.PLP.Chemscore.Internal.Correction>
0.0831

> <Gold.Rescore>
     Score         DG    S(hbond)    S(metal)    S(lipo)     H(rot)  DE(clash)    DE(int)     intcor
     19.86     -21.37       3.72        0.00      80.88       2.34       0.04       1.47       ----

> <Gold.Chemscore.Fitness>
19.8617

> <Gold.Chemscore.DG>
-21.3711

> <Gold.Chemscore.ZeroCoef>
-5.4800

> <Gold.Chemscore.Hbond>
3.7177

> <Gold.Chemscore.Metal>
0.0000

> <Gold.Chemscore.Lipo>
80.8767

> <Gold.Chemscore.Internal_Hbond>
0.0000

> <Gold.Chemscore.DEClash>
0.0398

> <Gold.Chemscore.DEInternal>
1.4695

> <Gold.Chemscore.Rot>
2.3393

> <Gold.Chemscore.Internal.Correction>
   9.000000E+99

> <Gold.Chemscore.Hbonds>
donor molecule, donor type, donor heavy atom, donor atom, acceptor molecule, acceptor atom, score
      L1  H     5    46       P1 10175  0.82
      L1  H     8    33       P1 10175  0.78
      L1  H    10    36       P1  8028  0.54
      L1  H    13    37       P1  8028  1.00

> <Gold.Chemscore.Hbond.Weighted>
-12.4171

> <Gold.Chemscore.Metal.Weighted>
-0.0000

> <Gold.Chemscore.Lipo.Weighted>
-9.4626

> <Gold.Chemscore.Internal_Hbond.Weighted>
0.0000

> <Gold.Chemscore.DEClash.Weighted>
0.0398

> <Gold.Chemscore.DEInternal.Weighted>
1.4695

> <Gold.Chemscore.Rot.Weighted>
5.9886

> <Gold.Chemscore.Internal.Correction.Weighted>
   9.000000E+99

> <Gold.Protein.RotatedTorsions>
[ 6907 6896 6895 6894 ] final  -96.53 input  -60.11 | X-H torsion
[ 7974 7965 7964 7962 ] final  -54.24 input  175.53 | X-H torsion
[ 8008 7997 7996 7995 ] final   -2.16 input   59.86 | X-H torsion
[ 10167 10162 10161 10158 ] final  144.87 input  -65.29 | X-H torsion
[ 10718 10713 10712 10709 ] final -126.87 input   66.30 | X-H torsion
[ 10763 10752 10751 10750 ] final -139.65 input  -60.55 | X-H torsion
[ 11005 11000 10999 10996 ] final    0.39 input  -57.11 | X-H torsion

> <Gold.Protein.ActiveResidues>
 VAL166  LYS551  ARG553  GLY616  TRP617  ASP618  TYR619  PRO620  LYS621  CYS622 
 ASP623  PHE694  ASN695  SER759  ASP760  ASP761  ALA762  ILE779  LEU786  VAL792 
 PHE793  MET794  SER795  GLU796  ALA797  LYS798  CYS799  TRP800  GLU811  SER814 

> <Gold.Protein.RotatedAtoms>
  150.6991  134.1488  159.4132 H   0  0  0  0  0  0  0  0  0  0  0  0  # atno 6907 bound_to 6896
  151.9471  135.0184  160.0549 H   0  0  0  0  0  0  0  0  0  0  0  0  # atno 6908 bound_to 6896
  152.2043  133.4829  159.5112 H   0  0  0  0  0  0  0  0  0  0  0  0  # atno 6909 bound_to 6896
  145.8878  140.8094  142.9807 H   0  0  0  0  0  0  0  0  0  0  0  0  # atno 7974 bound_to 7965
  154.6388  140.2541  155.7346 H   0  0  0  0  0  0  0  0  0  0  0  0  # atno 8008 bound_to 7997
  156.2518  140.2891  156.0693 H   0  0  0  0  0  0  0  0  0  0  0  0  # atno 8009 bound_to 7997
  155.1629  140.0384  157.2837 H   0  0  0  0  0  0  0  0  0  0  0  0  # atno 8010 bound_to 7997
  139.4938  144.5942  151.6618 H   0  0  0  0  0  0  0  0  0  0  0  0  # atno 10167 bound_to 10162
  156.1804  130.6728  151.0297 H   0  0  0  0  0  0  0  0  0  0  0  0  # atno 10718 bound_to 10713
  154.8603  135.3576  154.5580 H   0  0  0  0  0  0  0  0  0  0  0  0  # atno 10763 bound_to 10752
  153.6196  135.7006  153.5320 H   0  0  0  0  0  0  0  0  0  0  0  0  # atno 10764 bound_to 10752
  153.3140  135.4170  155.1320 H   0  0  0  0  0  0  0  0  0  0  0  0  # atno 10765 bound_to 10752
  140.6271  133.9608  155.8255 H   0  0  0  0  0  0  0  0  0  0  0  0  # atno 11005 bound_to 11000
  144.6729  140.1483  143.7432 LP  0  0  0  0  0  0  0  0  0  0  0  0  # atno 17320 bound_to 7965
  145.8945  139.2395  143.1530 LP  0  0  0  0  0  0  0  0  0  0  0  0  # atno 17321 bound_to 7965
  140.5575  144.0323  150.6154 LP  0  0  0  0  0  0  0  0  0  0  0  0  # atno 17342 bound_to 10162
  140.3398  143.3027  152.0600 LP  0  0  0  0  0  0  0  0  0  0  0  0  # atno 17343 bound_to 10162
  157.6864  131.0823  150.7230 LP  0  0  0  0  0  0  0  0  0  0  0  0  # atno 17370 bound_to 10713
  156.7287  130.4703  149.5505 LP  0  0  0  0  0  0  0  0  0  0  0  0  # atno 17371 bound_to 10713
  141.0701  134.0217  157.3538 LP  0  0  0  0  0  0  0  0  0  0  0  0  # atno 17394 bound_to 11000
  139.9130  135.0193  156.7770 LP  0  0  0  0  0  0  0  0  0  0  0  0  # atno 17395 bound_to 11000

$$$$
