AV-unprocessed.smi:625|AV-procd|sdf|3107|dock2
  -GOLD-   22720 0 33D 1   1.00000     0.00000
 Structure written by MMmdl.
 49 51  0  0  0  0  0  0  0  0  1 V2000
  151.5658  144.5280  158.5265 C   0  0  0  0  0  0  0  0  0  0  0  0
  151.7594  143.1027  158.7466 N   0  0  0  0  0  0  0  0  0  0  0  0
  150.9683  142.1401  158.2445 C   0  0  0  0  0  0  0  0  0  0  0  0
  149.9917  142.4069  157.5421 O   0  0  0  0  0  0  0  0  0  0  0  0
  151.3808  140.7832  158.6120 C   0  0  0  0  0  0  0  0  0  0  0  0
  152.6028  140.4946  159.3482 C   0  0  0  0  0  0  0  0  0  0  0  0
  152.9374  139.2248  159.6506 C   0  0  0  0  0  0  0  0  0  0  0  0
  152.0959  138.0906  159.2594 C   0  0  0  0  0  0  0  0  0  0  0  0
  152.3993  136.9280  159.5300 O   0  0  0  0  0  0  0  0  0  0  0  0
  150.9540  138.4059  158.5748 N   0  0  0  0  0  0  0  0  0  0  0  0
  150.0339  137.3479  158.1255 C   0  0  0  0  0  0  0  0  0  0  0  0
  148.7342  137.3180  158.9397 C   0  0  0  0  0  0  0  0  0  0  0  0
  148.4164  138.2796  159.6404 O   0  0  0  0  0  0  0  0  0  0  0  0
  147.9994  136.2001  158.8350 N   0  0  0  0  0  0  0  0  0  0  0  0
  146.6897  135.9753  159.4425 C   0  0  2  0  0  0  0  0  0  0  0  0
  145.6760  136.9508  158.8248 C   0  0  0  0  0  0  0  0  0  0  0  0
  146.7947  136.1351  160.9778 C   0  0  1  0  0  0  0  0  0  0  0  0
  145.4768  135.8974  161.7488 C   0  0  0  0  0  0  0  0  0  0  0  0
  145.8981  134.9199  162.8624 C   0  0  1  0  0  0  0  0  0  0  0  0
  146.1190  133.5246  162.2502 C   0  0  0  0  0  0  0  0  0  0  0  0
  147.4334  133.7033  161.4694 C   0  0  0  0  0  0  0  0  0  0  0  0
  147.7775  135.1874  161.7125 C   0  0  2  0  0  0  0  0  0  0  0  0
  147.3266  135.3618  163.1591 C   0  0  0  0  0  0  0  0  0  0  0  0
  150.6111  139.7351  158.2583 C   0  0  0  0  0  0  0  0  0  0  0  0
  152.3358  145.0924  159.0522 H   0  0  0  0  0  0  0  0  0  0  0  0
  150.5927  144.8505  158.8987 H   0  0  0  0  0  0  0  0  0  0  0  0
  151.6310  144.7690  157.4647 H   0  0  0  0  0  0  0  0  0  0  0  0
  152.5465  142.8268  159.3154 H   0  0  0  0  0  0  0  0  0  0  0  0
  153.2671  141.2842  159.6672 H   0  0  0  0  0  0  0  0  0  0  0  0
  153.8498  139.0352  160.1966 H   0  0  0  0  0  0  0  0  0  0  0  0
  149.8078  137.4800  157.0653 H   0  0  0  0  0  0  0  0  0  0  0  0
  150.5019  136.3653  158.1977 H   0  0  0  0  0  0  0  0  0  0  0  0
  148.3528  135.4623  158.2432 H   0  0  0  0  0  0  0  0  0  0  0  0
  146.3418  134.9651  159.2230 H   0  0  0  0  0  0  0  0  0  0  0  0
  144.6772  136.7970  159.2336 H   0  0  0  0  0  0  0  0  0  0  0  0
  145.6101  136.8145  157.7449 H   0  0  0  0  0  0  0  0  0  0  0  0
  145.9557  137.9881  159.0124 H   0  0  0  0  0  0  0  0  0  0  0  0
  147.1242  137.1561  161.1804 H   0  0  0  0  0  0  0  0  0  0  0  0
  145.1062  136.8334  162.1681 H   0  0  0  0  0  0  0  0  0  0  0  0
  144.6854  135.4795  161.1254 H   0  0  0  0  0  0  0  0  0  0  0  0
  145.2260  134.9186  163.7210 H   0  0  0  0  0  0  0  0  0  0  0  0
  146.2362  132.7707  163.0298 H   0  0  0  0  0  0  0  0  0  0  0  0
  145.2923  133.2171  161.6088 H   0  0  0  0  0  0  0  0  0  0  0  0
  148.2106  133.0610  161.8854 H   0  0  0  0  0  0  0  0  0  0  0  0
  147.3348  133.4469  160.4156 H   0  0  0  0  0  0  0  0  0  0  0  0
  148.8275  135.4240  161.5369 H   0  0  0  0  0  0  0  0  0  0  0  0
  147.3964  136.3905  163.5168 H   0  0  0  0  0  0  0  0  0  0  0  0
  147.8471  134.7047  163.8584 H   0  0  0  0  0  0  0  0  0  0  0  0
  149.6886  139.8373  157.7039 H   0  0  0  0  0  0  0  0  0  0  0  0
  1  2  1  0  0  0  0
  1 25  1  0  0  0  0
  1 26  1  0  0  0  0
  1 27  1  0  0  0  0
  2  3  1  0  0  0  0
  2 28  1  0  0  0  0
  3  4  2  0  0  0  0
  3  5  1  0  0  0  0
  5 24  2  0  0  0  0
  5  6  1  0  0  0  0
  6  7  2  0  0  0  0
  6 29  1  0  0  0  0
  7  8  1  0  0  0  0
  7 30  1  0  0  0  0
  8  9  2  0  0  0  0
  8 10  1  0  0  0  0
 10 11  1  0  0  0  0
 10 24  1  0  0  0  0
 11 12  1  0  0  0  0
 11 31  1  0  0  0  0
 11 32  1  0  0  0  0
 12 13  2  0  0  0  0
 12 14  1  0  0  0  0
 14 15  1  0  0  0  0
 14 33  1  0  0  0  0
 15 16  1  0  0  0  0
 15 17  1  0  0  0  0
 15 34  1  0  0  0  0
 16 35  1  0  0  0  0
 16 36  1  0  0  0  0
 16 37  1  0  0  0  0
 17 22  1  0  0  0  0
 17 18  1  0  0  0  0
 17 38  1  0  0  0  0
 18 19  1  0  0  0  0
 18 39  1  0  0  0  0
 18 40  1  0  0  0  0
 19 23  1  0  0  0  0
 19 20  1  0  0  0  0
 19 41  1  0  0  0  0
 20 21  1  0  0  0  0
 20 42  1  0  0  0  0
 20 43  1  0  0  0  0
 21 22  1  0  0  0  0
 21 44  1  0  0  0  0
 21 45  1  0  0  0  0
 22 23  1  0  0  0  0
 22 46  1  0  0  0  0
 23 47  1  0  0  0  0
 23 48  1  0  0  0  0
 24 49  1  0  0  0  0
M  END
> <s_m_source_file>
AV-unprocessed.smi

> <i_m_source_file_index>
625

> <i_lp_mmshare_version>
43012

> <i_f3d_flags>
0

> <s_epik_input>
W0NIM11bTkhdQyg9TyljMVtjSF1bY0hdYyg9TyluKFtjSF0xKVtDSDJdQyg9TylbTkhdW0NASF0oW0NIM10pW0NASF0oW0NIMl1bQ0BIXTIzKVtDQEhdKFtDSDJdMylbQ0gyXVtDSDJdMg==

> <s_epik_cmdline>
J2VwaWtfcHl0aG9uJywgJy1waCcsICc3LjAnLCAnLXRuJywgJzgnLCAnLW1hJywgJzIwMCcsICctbWV0YWxfYmluZGluZycsICctaW1hZScsICc8aW5maWxlLm1hZT4nLCAnLW9tYWUnLCAnPG91dGZpbGUubWFlPic=

> <r_lp_tautomer_probability>
1

> <r_epik_Ionization_Penalty>
3.7129e-07

> <r_epik_Ionization_Penalty_Charging>
5.04114e-08

> <r_epik_Ionization_Penalty_Neutral>
3.20879e-07

> <r_epik_State_Penalty>
-0

> <r_epik_Charging_Adjusted_Penalty>
5.04114e-08

> <i_epik_Tot_Q>
0

> <i_epik_Tot_abs_Q>
0

> <r_epik_Metal_State_Penalty>
-0

> <b_epik_Metal_Only>
0

> <s_lp_Force_Field>
OPLS_2005

> <r_lp_Energy>
63.4891

> <b_lp_Chiralities_Consistent>
1

> <s_lp_Variant>
AV-unprocessed.smi:625-7

> <Gold.Version>
5.8.1

> <Gold.Id.Protein>
6NUR|6NUR_protein|mol2

> <Gold.PLP.Fitness>
43.1885

> <Gold.PLP.PLP>
-40.8032

> <Gold.PLP.part.hbond>
-3.0000

> <Gold.PLP.part.metal>
0.0000

> <Gold.PLP.part.buried>
-5.1989

> <Gold.PLP.part.nonpolar>
-32.8236

> <Gold.PLP.part.repulsive>
0.2435

> <Gold.PLP.ligand.clash>
0.0000

> <Gold.PLP.ligand.torsion>
0.3758

> <Gold.PLP.Chemscore.Hbond>
1.0146

> <Gold.PLP.Chemscore.CHOScore>
0.0000

> <Gold.PLP.Chemscore.Metal>
0.0000

> <Gold.Chemscore.Hbonds>
donor molecule, donor type, donor heavy atom, donor atom, acceptor molecule, acceptor atom, score
      P1  H  6896  6909       L1     9  1.00
      P1  H  6931  6943       L1    13  0.01
      P1  H  6934  6947       L1    13  0.11

> <Gold.PLP.Chemscore.Internal.Correction>
0.0931

> <Gold.Rescore>
     Score         DG    S(hbond)    S(metal)    S(lipo)     H(rot)  DE(clash)    DE(int)     intcor
     13.49     -16.08       1.04        0.00      97.52       1.67       0.11       2.48       ----

> <Gold.Chemscore.Fitness>
13.4870

> <Gold.Chemscore.DG>
-16.0819

> <Gold.Chemscore.ZeroCoef>
-5.4800

> <Gold.Chemscore.Hbond>
1.0388

> <Gold.Chemscore.Metal>
0.0000

> <Gold.Chemscore.Lipo>
97.5185

> <Gold.Chemscore.Internal_Hbond>
0.0000

> <Gold.Chemscore.DEClash>
0.1124

> <Gold.Chemscore.DEInternal>
2.4826

> <Gold.Chemscore.Rot>
1.6709

> <Gold.Chemscore.Internal.Correction>
   9.000000E+99

> <Gold.Chemscore.Hbonds>
donor molecule, donor type, donor heavy atom, donor atom, acceptor molecule, acceptor atom, score
      P1  H  6896  6909       L1     9  0.98
      P1  H  6931  6943       L1    13  0.02
      P1  H  6934  6947       L1    13  0.13

> <Gold.Chemscore.Hbond.Weighted>
-3.4697

> <Gold.Chemscore.Metal.Weighted>
-0.0000

> <Gold.Chemscore.Lipo.Weighted>
-11.4097

> <Gold.Chemscore.Internal_Hbond.Weighted>
0.0000

> <Gold.Chemscore.DEClash.Weighted>
0.1124

> <Gold.Chemscore.DEInternal.Weighted>
2.4826

> <Gold.Chemscore.Rot.Weighted>
4.2774

> <Gold.Chemscore.Internal.Correction.Weighted>
   9.000000E+99

> <Gold.Protein.RotatedTorsions>
[ 6907 6896 6895 6894 ] final  134.14 input  -60.11 | X-H torsion
[ 7974 7965 7964 7962 ] final -149.41 input  175.53 | X-H torsion
[ 8008 7997 7996 7995 ] final   98.79 input   59.86 | X-H torsion
[ 10167 10162 10161 10158 ] final   34.72 input  -65.29 | X-H torsion
[ 10718 10713 10712 10709 ] final   80.93 input   66.30 | X-H torsion
[ 10763 10752 10751 10750 ] final  -74.35 input  -60.55 | X-H torsion
[ 11005 11000 10999 10996 ] final    6.38 input  -57.11 | X-H torsion

> <Gold.Protein.ActiveResidues>
 VAL166  LYS551  ARG553  GLY616  TRP617  ASP618  TYR619  PRO620  LYS621  CYS622 
 ASP623  PHE694  ASN695  SER759  ASP760  ASP761  ALA762  ILE779  LEU786  VAL792 
 PHE793  MET794  SER795  GLU796  ALA797  LYS798  CYS799  TRP800  GLU811  SER814 

> <Gold.Protein.RotatedAtoms>
  152.3145  133.5788  159.5702 H   0  0  0  0  0  0  0  0  0  0  0  0  # atno 6907 bound_to 6896
  150.7339  134.0103  159.3676 H   0  0  0  0  0  0  0  0  0  0  0  0  # atno 6908 bound_to 6896
  151.7993  135.0714  160.0449 H   0  0  0  0  0  0  0  0  0  0  0  0  # atno 6909 bound_to 6896
  144.7969  140.5068  143.5734 H   0  0  0  0  0  0  0  0  0  0  0  0  # atno 7974 bound_to 7965
  156.1040  140.3238  155.7981 H   0  0  0  0  0  0  0  0  0  0  0  0  # atno 8008 bound_to 7997
  155.4788  140.0552  157.2987 H   0  0  0  0  0  0  0  0  0  0  0  0  # atno 8009 bound_to 7997
  154.4715  140.2013  155.9997 H   0  0  0  0  0  0  0  0  0  0  0  0  # atno 8010 bound_to 7997
  140.4289  144.1353  150.6157 H   0  0  0  0  0  0  0  0  0  0  0  0  # atno 10167 bound_to 10162
  157.6819  130.9981  150.2152 H   0  0  0  0  0  0  0  0  0  0  0  0  # atno 10718 bound_to 10713
  154.4719  135.5867  153.6327 H   0  0  0  0  0  0  0  0  0  0  0  0  # atno 10763 bound_to 10752
  152.9835  135.6069  154.3356 H   0  0  0  0  0  0  0  0  0  0  0  0  # atno 10764 bound_to 10752
  154.3239  135.2843  155.2485 H   0  0  0  0  0  0  0  0  0  0  0  0  # atno 10765 bound_to 10752
  140.5601  134.0200  155.7968 H   0  0  0  0  0  0  0  0  0  0  0  0  # atno 11005 bound_to 11000
  145.5650  139.1481  143.3320 LP  0  0  0  0  0  0  0  0  0  0  0  0  # atno 17320 bound_to 7965
  146.2240  140.5785  142.9004 LP  0  0  0  0  0  0  0  0  0  0  0  0  # atno 17321 bound_to 7965
  140.4450  143.2510  151.9423 LP  0  0  0  0  0  0  0  0  0  0  0  0  # atno 17342 bound_to 10162
  139.4784  144.5618  151.8227 LP  0  0  0  0  0  0  0  0  0  0  0  0  # atno 17343 bound_to 10162
  156.2815  130.3734  149.7931 LP  0  0  0  0  0  0  0  0  0  0  0  0  # atno 17370 bound_to 10713
  156.5618  130.8386  151.3331 LP  0  0  0  0  0  0  0  0  0  0  0  0  # atno 17371 bound_to 10713
  141.1119  133.9602  157.2893 LP  0  0  0  0  0  0  0  0  0  0  0  0  # atno 17394 bound_to 11000
  139.9412  135.0191  156.8713 LP  0  0  0  0  0  0  0  0  0  0  0  0  # atno 17395 bound_to 11000

$$$$
