AV-unprocessed.smi:3161|AV-procd|sdf|12059|dock4
  -GOLD-   2272017483D 1   1.00000     0.00000
 Structure written by MMmdl.
 40 41  0  0  0  0  0  0  0  0  1 V2000
  151.9224  145.6862  160.1541 C   0  0  0  0  0  0  0  0  0  0  0  0
  151.8885  144.4878  159.2501 C   0  0  0  0  0  0  0  0  0  0  0  0
  152.6079  143.2666  159.3876 C   0  0  0  0  0  0  0  0  0  0  0  0
  152.3503  142.4055  158.4170 N   0  0  0  0  0  0  0  0  0  0  0  0
  151.4649  143.0461  157.6240 N   0  0  0  0  0  0  0  0  0  0  0  0
  150.9522  142.3920  156.4325 C   0  0  0  0  0  0  0  0  0  0  0  0
  149.6001  141.6932  156.6793 C   0  0  2  0  0  0  0  0  0  0  0  0
  148.9670  141.2685  155.3417 C   0  0  0  0  0  0  0  0  0  0  0  0
  148.7090  142.5716  157.4457 N   0  0  0  0  0  0  0  0  0  0  0  0
  148.8048  142.4605  158.8998 C   0  0  0  0  0  0  0  0  0  0  0  0
  147.5455  143.0241  159.5732 C   0  0  2  0  0  0  0  0  0  0  0  0
  147.8960  143.9867  160.7241 C   0  0  0  0  0  0  0  0  0  0  0  0
  146.6233  144.4645  161.4329 C   0  0  0  0  0  0  0  0  0  0  0  0
  145.7858  143.2556  161.8625 C   0  0  0  0  0  0  0  0  0  0  0  0
  145.5503  142.3178  160.6682 C   0  0  0  0  0  0  0  0  0  0  0  0
  146.7987  141.9298  160.1028 O   0  0  0  0  0  0  0  0  0  0  0  0
  151.1668  144.3033  158.1048 C   0  0  0  0  0  0  0  0  0  0  0  0
  152.7001  145.5995  160.9134 H   0  0  0  0  0  0  0  0  0  0  0  0
  150.9757  145.8204  160.6775 H   0  0  0  0  0  0  0  0  0  0  0  0
  152.1171  146.6039  159.5991 H   0  0  0  0  0  0  0  0  0  0  0  0
  153.3052  142.9817  160.1616 H   0  0  0  0  0  0  0  0  0  0  0  0
  150.8689  143.1230  155.6259 H   0  0  0  0  0  0  0  0  0  0  0  0
  151.6975  141.6625  156.1129 H   0  0  0  0  0  0  0  0  0  0  0  0
  149.7916  140.7891  157.2587 H   0  0  0  0  0  0  0  0  0  0  0  0
  149.6666  140.6764  154.7511 H   0  0  0  0  0  0  0  0  0  0  0  0
  148.6826  142.1350  154.7436 H   0  0  0  0  0  0  0  0  0  0  0  0
  148.0797  140.6527  155.4863 H   0  0  0  0  0  0  0  0  0  0  0  0
  147.7467  142.4252  157.1568 H   0  0  0  0  0  0  0  0  0  0  0  0
  148.9454  141.4251  159.2092 H   0  0  0  0  0  0  0  0  0  0  0  0
  149.6786  143.0147  159.2442 H   0  0  0  0  0  0  0  0  0  0  0  0
  146.9461  143.5561  158.8315 H   0  0  0  0  0  0  0  0  0  0  0  0
  148.5458  143.4828  161.4409 H   0  0  0  0  0  0  0  0  0  0  0  0
  148.4536  144.8435  160.3447 H   0  0  0  0  0  0  0  0  0  0  0  0
  146.8758  145.0803  162.2966 H   0  0  0  0  0  0  0  0  0  0  0  0
  146.0414  145.0934  160.7579 H   0  0  0  0  0  0  0  0  0  0  0  0
  146.3043  142.7129  162.6538 H   0  0  0  0  0  0  0  0  0  0  0  0
  144.8332  143.5838  162.2794 H   0  0  0  0  0  0  0  0  0  0  0  0
  145.0177  141.4241  160.9935 H   0  0  0  0  0  0  0  0  0  0  0  0
  144.9298  142.7994  159.9109 H   0  0  0  0  0  0  0  0  0  0  0  0
  150.4737  144.9565  157.5955 H   0  0  0  0  0  0  0  0  0  0  0  0
  1  2  1  0  0  0  0
  1 18  1  0  0  0  0
  1 19  1  0  0  0  0
  1 20  1  0  0  0  0
  2 17  2  0  0  0  0
  2  3  1  0  0  0  0
  3  4  2  0  0  0  0
  3 21  1  0  0  0  0
  4  5  1  0  0  0  0
  5  6  1  0  0  0  0
  5 17  1  0  0  0  0
  6  7  1  0  0  0  0
  6 22  1  0  0  0  0
  6 23  1  0  0  0  0
  7  8  1  0  0  0  0
  7  9  1  0  0  0  0
  7 24  1  0  0  0  0
  8 25  1  0  0  0  0
  8 26  1  0  0  0  0
  8 27  1  0  0  0  0
  9 10  1  0  0  0  0
  9 28  1  0  0  0  0
 10 11  1  0  0  0  0
 10 29  1  0  0  0  0
 10 30  1  0  0  0  0
 11 16  1  0  0  0  0
 11 12  1  0  0  0  0
 11 31  1  0  0  0  0
 12 13  1  0  0  0  0
 12 32  1  0  0  0  0
 12 33  1  0  0  0  0
 13 14  1  0  0  0  0
 13 34  1  0  0  0  0
 13 35  1  0  0  0  0
 14 15  1  0  0  0  0
 14 36  1  0  0  0  0
 14 37  1  0  0  0  0
 15 16  1  0  0  0  0
 15 38  1  0  0  0  0
 15 39  1  0  0  0  0
 17 40  1  0  0  0  0
M  END
> <s_m_source_file>
AV-unprocessed.smi

> <i_m_source_file_index>
3161

> <i_lp_mmshare_version>
43012

> <i_f3d_flags>
0

> <s_epik_input>
W0NIM11jMVtjSF1ubihbY0hdMSlbQ0gyXVtDQEhdKFtDSDNdKVtOSF1bQ0gyXVtDQEBIXTJbQ0gyXVtDSDJdW0NIMl1bQ0gyXU8y

> <s_epik_cmdline>
J2VwaWtfcHl0aG9uJywgJy1waCcsICc3LjAnLCAnLXRuJywgJzgnLCAnLW1hJywgJzIwMCcsICctbWV0YWxfYmluZGluZycsICctaW1hZScsICc8aW5maWxlLm1hZT4nLCAnLW9tYWUnLCAnPG91dGZpbGUubWFlPic=

> <r_lp_tautomer_probability>
1

> <r_epik_Ionization_Penalty>
2.51986

> <r_epik_Ionization_Penalty_Charging>
0

> <r_epik_Ionization_Penalty_Neutral>
2.51986

> <r_epik_State_Penalty>
2.68614

> <r_epik_Charging_Adjusted_Penalty>
2.68614

> <i_epik_Tot_Q>
0

> <i_epik_Tot_abs_Q>
0

> <r_epik_Metal_State_Penalty>
2.68606

> <b_epik_Metal_Only>
0

> <s_lp_Force_Field>
OPLS_2005

> <r_lp_Energy>
14.7371

> <b_lp_Chiralities_Consistent>
1

> <s_lp_Variant>
AV-unprocessed.smi:3161-5

> <Gold.Version>
5.8.1

> <Gold.Id.Protein>
6NUR|6NUR_protein|mol2

> <Gold.PLP.Fitness>
40.7924

> <Gold.PLP.PLP>
-37.8827

> <Gold.PLP.part.hbond>
-2.1315

> <Gold.PLP.part.metal>
0.0000

> <Gold.PLP.part.buried>
-4.4181

> <Gold.PLP.part.nonpolar>
-30.8570

> <Gold.PLP.part.repulsive>
0.0209

> <Gold.PLP.ligand.clash>
0.0000

> <Gold.PLP.ligand.torsion>
1.5900

> <Gold.PLP.Chemscore.Hbond>
1.0000

> <Gold.PLP.Chemscore.CHOScore>
1.0065

> <Gold.PLP.Chemscore.Metal>
0.0000

> <Gold.Chemscore.Hbonds>
donor molecule, donor type, donor heavy atom, donor atom, acceptor molecule, acceptor atom, score
      P1  H  6934  6946       L1    16  0.23
      L1  C    17    40       P1  8028  0.85
      L1  C    17    40       P1  8029  0.09

> <Gold.PLP.Chemscore.Internal.Correction>
0.0704

> <Gold.Rescore>
     Score         DG    S(hbond)    S(metal)    S(lipo)     H(rot)  DE(clash)    DE(int)     intcor
     14.05     -15.71       0.93        0.00      93.78       1.50       0.10       1.57       ----

> <Gold.Chemscore.Fitness>
14.0505

> <Gold.Chemscore.DG>
-15.7118

> <Gold.Chemscore.ZeroCoef>
-5.4800

> <Gold.Chemscore.Hbond>
0.9303

> <Gold.Chemscore.Metal>
0.0000

> <Gold.Chemscore.Lipo>
93.7800

> <Gold.Chemscore.Internal_Hbond>
0.0000

> <Gold.Chemscore.DEClash>
0.0954

> <Gold.Chemscore.DEInternal>
1.5659

> <Gold.Chemscore.Rot>
1.5030

> <Gold.Chemscore.Internal.Correction>
   9.000000E+99

> <Gold.Chemscore.Hbonds>
donor molecule, donor type, donor heavy atom, donor atom, acceptor molecule, acceptor atom, score
      P1  H  6934  6946       L1    16  0.05

> <Gold.Chemscore.Hbond.Weighted>
-3.1072

> <Gold.Chemscore.Metal.Weighted>
-0.0000

> <Gold.Chemscore.Lipo.Weighted>
-10.9723

> <Gold.Chemscore.Internal_Hbond.Weighted>
0.0000

> <Gold.Chemscore.DEClash.Weighted>
0.0954

> <Gold.Chemscore.DEInternal.Weighted>
1.5659

> <Gold.Chemscore.Rot.Weighted>
3.8477

> <Gold.Chemscore.Internal.Correction.Weighted>
   9.000000E+99

> <Gold.Protein.RotatedTorsions>
[ 6907 6896 6895 6894 ] final   17.09 input  -60.11 | X-H torsion
[ 7974 7965 7964 7962 ] final -134.46 input  175.53 | X-H torsion
[ 8008 7997 7996 7995 ] final  -54.92 input   59.86 | X-H torsion
[ 10167 10162 10161 10158 ] final -130.34 input  -65.29 | X-H torsion
[ 10718 10713 10712 10709 ] final -139.56 input   66.30 | X-H torsion
[ 10763 10752 10751 10750 ] final  -80.17 input  -60.55 | X-H torsion
[ 11005 11000 10999 10996 ] final  -85.04 input  -57.11 | X-H torsion

> <Gold.Protein.ActiveResidues>
 VAL166  LYS551  ARG553  GLY616  TRP617  ASP618  TYR619  PRO620  LYS621  CYS622 
 ASP623  PHE694  ASN695  SER759  ASP760  ASP761  ALA762  ILE779  LEU786  VAL792 
 PHE793  MET794  SER795  GLU796  ALA797  LYS798  CYS799  TRP800  GLU811  SER814 

> <Gold.Protein.RotatedAtoms>
  151.8441  135.0580  160.0451 H   0  0  0  0  0  0  0  0  0  0  0  0  # atno 6907 bound_to 6896
  152.2787  133.5445  159.5492 H   0  0  0  0  0  0  0  0  0  0  0  0  # atno 6908 bound_to 6896
  150.7180  134.0512  159.3841 H   0  0  0  0  0  0  0  0  0  0  0  0  # atno 6909 bound_to 6896
  144.9101  140.6884  143.5030 H   0  0  0  0  0  0  0  0  0  0  0  0  # atno 7974 bound_to 7965
  154.4178  140.1165  156.5394 H   0  0  0  0  0  0  0  0  0  0  0  0  # atno 8008 bound_to 7997
  155.6524  140.3496  155.4734 H   0  0  0  0  0  0  0  0  0  0  0  0  # atno 8009 bound_to 7997
  155.9782  140.1155  157.0741 H   0  0  0  0  0  0  0  0  0  0  0  0  # atno 8010 bound_to 7997
  139.9304  143.6279  152.2531 H   0  0  0  0  0  0  0  0  0  0  0  0  # atno 10167 bound_to 10162
  156.3121  130.7488  151.1566 H   0  0  0  0  0  0  0  0  0  0  0  0  # atno 10718 bound_to 10713
  154.5478  135.5670  153.6896 H   0  0  0  0  0  0  0  0  0  0  0  0  # atno 10763 bound_to 10752
  152.9981  135.6243  154.2414 H   0  0  0  0  0  0  0  0  0  0  0  0  # atno 10764 bound_to 10752
  154.2348  135.2864  155.2856 H   0  0  0  0  0  0  0  0  0  0  0  0  # atno 10765 bound_to 10752
  141.1645  133.7378  156.8957 H   0  0  0  0  0  0  0  0  0  0  0  0  # atno 11005 bound_to 11000
  145.3469  139.1717  143.4455 LP  0  0  0  0  0  0  0  0  0  0  0  0  # atno 17320 bound_to 7965
  146.3154  140.3517  142.8657 LP  0  0  0  0  0  0  0  0  0  0  0  0  # atno 17321 bound_to 7965
  139.6787  144.7657  151.1648 LP  0  0  0  0  0  0  0  0  0  0  0  0  # atno 17342 bound_to 10162
  140.7639  143.5756  150.8949 LP  0  0  0  0  0  0  0  0  0  0  0  0  # atno 17343 bound_to 10162
  157.7393  131.0530  150.5238 LP  0  0  0  0  0  0  0  0  0  0  0  0  # atno 17370 bound_to 10713
  156.5379  130.4201  149.6168 LP  0  0  0  0  0  0  0  0  0  0  0  0  # atno 17371 bound_to 10713
  140.1617  134.9161  157.2723 LP  0  0  0  0  0  0  0  0  0  0  0  0  # atno 17394 bound_to 11000
  140.2603  134.3579  155.7409 LP  0  0  0  0  0  0  0  0  0  0  0  0  # atno 17395 bound_to 11000

$$$$
