AV-unprocessed.smi:2807|AV-procd|sdf|10817|dock9
  -GOLD-   2272015253D 1   1.00000     0.00000
 Structure written by MMmdl.
 32 33  0  0  0  0  0  0  0  0  1 V2000
  151.7463  139.9149  155.2235 O   0  0  0  0  0  0  0  0  0  0  0  0
  151.0209  140.4383  156.0702 C   0  0  0  0  0  0  0  0  0  0  0  0
  149.8469  141.0191  155.7726 N   0  0  0  0  0  0  0  0  0  0  0  0
  149.3031  141.1905  154.4257 C   0  0  1  0  0  0  0  0  0  0  0  0
  148.9741  139.8189  153.8098 C   0  0  0  0  0  0  0  0  0  0  0  0
  147.4508  139.7057  153.8337 C   0  0  0  0  0  0  0  0  0  0  0  0
  146.9719  141.1391  153.6242 C   0  0  0  0  0  0  0  0  0  0  0  0
  147.9802  142.0068  154.3882 C   0  0  1  0  0  0  0  0  0  0  0  0
  147.4547  142.2891  155.6746 O   0  0  0  0  0  0  0  0  0  0  0  0
  151.4512  140.4879  157.5433 C   0  0  0  0  0  0  0  0  0  0  0  0
  150.4646  139.9872  158.2903 F   0  0  0  0  0  0  0  0  0  0  0  0
  152.5295  139.7196  157.7177 F   0  0  0  0  0  0  0  0  0  0  0  0
  151.7650  141.9266  157.9479 C   0  0  0  0  0  0  0  0  0  0  0  0
  152.4435  142.2149  159.1545 C   0  0  0  0  0  0  0  0  0  0  0  0
  152.6759  143.5618  159.4934 C   0  0  0  0  0  0  0  0  0  0  0  0
  152.2253  144.5693  158.6197 C   0  0  0  0  0  0  0  0  0  0  0  0
  151.5586  144.1836  157.4408 C   0  0  0  0  0  0  0  0  0  0  0  0
  151.3288  142.8956  157.1078 N   0  0  0  0  0  0  0  0  0  0  0  0
  149.3176  141.4276  156.5293 H   0  0  0  0  0  0  0  0  0  0  0  0
  150.0509  141.6734  153.7939 H   0  0  0  0  0  0  0  0  0  0  0  0
  149.3158  139.7997  152.7740 H   0  0  0  0  0  0  0  0  0  0  0  0
  149.4579  138.9849  154.3205 H   0  0  0  0  0  0  0  0  0  0  0  0
  147.0685  139.0193  153.0777 H   0  0  0  0  0  0  0  0  0  0  0  0
  147.1221  139.3461  154.8099 H   0  0  0  0  0  0  0  0  0  0  0  0
  147.0229  141.3786  152.5613 H   0  0  0  0  0  0  0  0  0  0  0  0
  145.9389  141.2906  153.9406 H   0  0  0  0  0  0  0  0  0  0  0  0
  148.1277  142.9592  153.8782 H   0  0  0  0  0  0  0  0  0  0  0  0
  147.8816  143.0636  156.0082 H   0  0  0  0  0  0  0  0  0  0  0  0
  152.7718  141.4260  159.8148 H   0  0  0  0  0  0  0  0  0  0  0  0
  153.1878  143.8175  160.4093 H   0  0  0  0  0  0  0  0  0  0  0  0
  152.3851  145.6126  158.8478 H   0  0  0  0  0  0  0  0  0  0  0  0
  151.1977  144.9294  156.7481 H   0  0  0  0  0  0  0  0  0  0  0  0
  1  2  2  0  0  0  0
  2  3  1  0  0  0  0
  2 10  1  0  0  0  0
  3  4  1  0  0  0  0
  3 19  1  0  0  0  0
  4  8  1  0  0  0  0
  4  5  1  0  0  0  0
  4 20  1  0  0  0  0
  5  6  1  0  0  0  0
  5 21  1  0  0  0  0
  5 22  1  0  0  0  0
  6  7  1  0  0  0  0
  6 23  1  0  0  0  0
  6 24  1  0  0  0  0
  7  8  1  0  0  0  0
  7 25  1  0  0  0  0
  7 26  1  0  0  0  0
  8  9  1  0  0  0  0
  8 27  1  0  0  0  0
  9 28  1  0  0  0  0
 10 11  1  0  0  0  0
 10 12  1  0  0  0  0
 10 13  1  0  0  0  0
 13 18  1  0  0  0  0
 13 14  2  0  0  0  0
 14 15  1  0  0  0  0
 14 29  1  0  0  0  0
 15 16  2  0  0  0  0
 15 30  1  0  0  0  0
 16 17  1  0  0  0  0
 16 31  1  0  0  0  0
 17 18  2  0  0  0  0
 17 32  1  0  0  0  0
M  END
> <s_m_source_file>
AV-unprocessed.smi

> <i_m_source_file_index>
2807

> <i_lp_mmshare_version>
43012

> <i_f3d_flags>
0

> <s_epik_input>
bjFbY0hdW2NIXVtjSF1bY0hdYzFDKEYpKEYpQyg9TylbTkhdW0NAQEhdMltDSDJdW0NIMl1bQ0gyXVtDQEhdMltPSF0=

> <s_epik_cmdline>
J2VwaWtfcHl0aG9uJywgJy1waCcsICc3LjAnLCAnLXRuJywgJzgnLCAnLW1hJywgJzIwMCcsICctbWV0YWxfYmluZGluZycsICctaW1hZScsICc8aW5maWxlLm1hZT4nLCAnLW9tYWUnLCAnPG91dGZpbGUubWFlPic=

> <r_lp_tautomer_probability>
1

> <r_epik_Ionization_Penalty>
4.08325e-05

> <r_epik_Ionization_Penalty_Charging>
0

> <r_epik_Ionization_Penalty_Neutral>
4.08325e-05

> <r_epik_State_Penalty>
-0

> <r_epik_Charging_Adjusted_Penalty>
0

> <i_epik_Tot_Q>
0

> <i_epik_Tot_abs_Q>
0

> <r_epik_Metal_State_Penalty>
0.034564

> <b_epik_Metal_Only>
0

> <s_lp_Force_Field>
OPLS_2005

> <r_lp_Energy>
28.4248

> <b_lp_Chiralities_Consistent>
1

> <s_lp_Variant>
AV-unprocessed.smi:2807-2

> <Gold.Version>
5.8.1

> <Gold.Id.Protein>
6NUR|6NUR_protein|mol2

> <Gold.PLP.Fitness>
44.3904

> <Gold.PLP.PLP>
-37.3768

> <Gold.PLP.part.hbond>
-2.0000

> <Gold.PLP.part.metal>
0.0000

> <Gold.PLP.part.buried>
1.7573

> <Gold.PLP.part.nonpolar>
-36.5197

> <Gold.PLP.part.repulsive>
0.2258

> <Gold.PLP.ligand.clash>
0.0000

> <Gold.PLP.ligand.torsion>
0.7470

> <Gold.PLP.Chemscore.Hbond>
1.9920

> <Gold.PLP.Chemscore.CHOScore>
0.8383

> <Gold.PLP.Chemscore.Metal>
0.0000

> <Gold.Chemscore.Hbonds>
donor molecule, donor type, donor heavy atom, donor atom, acceptor molecule, acceptor atom, score
      L1  H     9    28       P1  8028  0.98
      P1  H  7989  7998       L1     1  0.98
      L1  C    17    32       P1  8028  0.85

> <Gold.PLP.Chemscore.Internal.Correction>
0.0165

> <Gold.Rescore>
     Score         DG    S(hbond)    S(metal)    S(lipo)     H(rot)  DE(clash)    DE(int)     intcor
     12.47     -15.37       1.09        0.00      98.22       2.05       0.03       2.87       ----

> <Gold.Chemscore.Fitness>
12.4738

> <Gold.Chemscore.DG>
-15.3679

> <Gold.Chemscore.ZeroCoef>
-5.4800

> <Gold.Chemscore.Hbond>
1.0877

> <Gold.Chemscore.Metal>
0.0000

> <Gold.Chemscore.Lipo>
98.2227

> <Gold.Chemscore.Internal_Hbond>
0.0000

> <Gold.Chemscore.DEClash>
0.0275

> <Gold.Chemscore.DEInternal>
2.8666

> <Gold.Chemscore.Rot>
2.0457

> <Gold.Chemscore.Internal.Correction>
   9.000000E+99

> <Gold.Chemscore.Hbonds>
donor molecule, donor type, donor heavy atom, donor atom, acceptor molecule, acceptor atom, score
      L1  H     9    28       P1  8028  0.37
      P1  H  7989  7998       L1     1  0.75

> <Gold.Chemscore.Hbond.Weighted>
-3.6329

> <Gold.Chemscore.Metal.Weighted>
-0.0000

> <Gold.Chemscore.Lipo.Weighted>
-11.4921

> <Gold.Chemscore.Internal_Hbond.Weighted>
0.0000

> <Gold.Chemscore.DEClash.Weighted>
0.0275

> <Gold.Chemscore.DEInternal.Weighted>
2.8666

> <Gold.Chemscore.Rot.Weighted>
5.2371

> <Gold.Chemscore.Internal.Correction.Weighted>
   9.000000E+99

> <Gold.Protein.RotatedTorsions>
[ 6907 6896 6895 6894 ] final -140.61 input  -60.11 | X-H torsion
[ 7974 7965 7964 7962 ] final -141.84 input  175.53 | X-H torsion
[ 8008 7997 7996 7995 ] final -170.05 input   59.86 | X-H torsion
[ 10167 10162 10161 10158 ] final -173.33 input  -65.29 | X-H torsion
[ 10718 10713 10712 10709 ] final  -12.66 input   66.30 | X-H torsion
[ 10763 10752 10751 10750 ] final  -86.28 input  -60.55 | X-H torsion
[ 11005 11000 10999 10996 ] final  160.04 input  -57.11 | X-H torsion

> <Gold.Protein.ActiveResidues>
 VAL166  LYS551  ARG553  GLY616  TRP617  ASP618  TYR619  PRO620  LYS621  CYS622 
 ASP623  PHE694  ASN695  SER759  ASP760  ASP761  ALA762  ILE779  LEU786  VAL792 
 PHE793  MET794  SER795  GLU796  ALA797  LYS798  CYS799  TRP800  GLU811  SER814 

> <Gold.Protein.RotatedAtoms>
  151.0629  133.5529  159.2632 H   0  0  0  0  0  0  0  0  0  0  0  0  # atno 6907 bound_to 6896
  151.2497  135.0617  159.9067 H   0  0  0  0  0  0  0  0  0  0  0  0  # atno 6908 bound_to 6896
  152.5400  134.0392  159.8113 H   0  0  0  0  0  0  0  0  0  0  0  0  # atno 6909 bound_to 6896
  144.8488  140.6031  143.5403 H   0  0  0  0  0  0  0  0  0  0  0  0  # atno 7974 bound_to 7965
  155.9132  140.1061  157.1263 H   0  0  0  0  0  0  0  0  0  0  0  0  # atno 8008 bound_to 7997
  154.4042  140.1270  156.4649 H   0  0  0  0  0  0  0  0  0  0  0  0  # atno 8009 bound_to 7997
  155.7285  140.3469  155.5051 H   0  0  0  0  0  0  0  0  0  0  0  0  # atno 8010 bound_to 7997
  139.5694  144.1677  152.1361 H   0  0  0  0  0  0  0  0  0  0  0  0  # atno 10167 bound_to 10162
  156.6414  130.4929  149.6093 H   0  0  0  0  0  0  0  0  0  0  0  0  # atno 10718 bound_to 10713
  154.6207  135.5455  153.7572 H   0  0  0  0  0  0  0  0  0  0  0  0  # atno 10763 bound_to 10752
  153.0237  135.6412  154.1445 H   0  0  0  0  0  0  0  0  0  0  0  0  # atno 10764 bound_to 10752
  154.1379  135.2910  155.3148 H   0  0  0  0  0  0  0  0  0  0  0  0  # atno 10765 bound_to 10752
  140.2020  134.8331  157.3028 H   0  0  0  0  0  0  0  0  0  0  0  0  # atno 11005 bound_to 11000
  145.4541  139.1520  143.3902 LP  0  0  0  0  0  0  0  0  0  0  0  0  # atno 17320 bound_to 7965
  146.2767  140.4669  142.8792 LP  0  0  0  0  0  0  0  0  0  0  0  0  # atno 17321 bound_to 7965
  140.1207  144.5376  150.6864 LP  0  0  0  0  0  0  0  0  0  0  0  0  # atno 17342 bound_to 10162
  140.6978  143.2415  151.4950 LP  0  0  0  0  0  0  0  0  0  0  0  0  # atno 17343 bound_to 10162
  156.2156  130.6706  151.1315 LP  0  0  0  0  0  0  0  0  0  0  0  0  # atno 17370 bound_to 10713
  157.7170  131.0704  150.6289 LP  0  0  0  0  0  0  0  0  0  0  0  0  # atno 17371 bound_to 10713
  140.2044  134.4215  155.7645 LP  0  0  0  0  0  0  0  0  0  0  0  0  # atno 17394 bound_to 11000
  141.2227  133.7087  156.8236 LP  0  0  0  0  0  0  0  0  0  0  0  0  # atno 17395 bound_to 11000

$$$$
