AV-unprocessed.smi:2923|AV-procd|sdf|11212|dock3
  -GOLD-   2272016103D 1   1.00000     0.00000
 Structure written by MMmdl.
 46 48  0  0  0  0  0  0  0  0  1 V2000
  154.1733  132.1568  156.7514 C   0  0  0  0  0  0  0  0  0  0  0  0
  153.3442  133.3059  157.0806 N   0  0  0  0  0  0  0  0  0  0  0  0
  154.0463  134.5547  157.3320 C   0  0  0  0  0  0  0  0  0  0  0  0
  152.2515  133.4583  156.2170 C   0  0  0  0  0  0  0  0  0  0  0  0
  151.4913  132.3461  155.7893 C   0  0  0  0  0  0  0  0  0  0  0  0
  150.4013  132.5614  154.9244 C   0  0  0  0  0  0  0  0  0  0  0  0
  150.1008  133.8837  154.5198 C   0  0  0  0  0  0  0  0  0  0  0  0
  149.0400  134.2301  153.6403 N   0  0  0  0  0  0  0  0  0  0  0  0
  147.8617  133.6074  153.4667 C   0  0  0  0  0  0  0  0  0  0  0  0
  147.4951  132.5948  154.0625 O   0  0  0  0  0  0  0  0  0  0  0  0
  147.1042  134.2474  152.5659 N   0  0  0  0  0  0  0  0  0  0  0  0
  145.7570  133.8369  152.1828 C   0  0  2  0  0  0  0  0  0  0  0  0
  145.7164  133.1566  150.8054 C   0  0  1  0  0  0  0  0  0  0  0  0
  145.3294  131.7066  150.6962 C   0  0  0  0  0  0  0  0  0  0  0  0
  143.8320  131.7752  150.3822 C   0  0  0  0  0  0  0  0  0  0  0  0
  143.4249  133.0595  150.8485 O   0  0  0  0  0  0  0  0  0  0  0  0
  144.4666  133.9797  150.5325 C   0  0  1  0  0  0  0  0  0  0  0  0
  144.8645  134.9812  151.6374 C   0  0  0  0  0  0  0  0  0  0  0  0
  143.7357  135.4515  152.5559 C   0  0  0  0  0  0  0  0  0  0  0  0
  145.5678  136.2440  151.1182 C   0  0  0  0  0  0  0  0  0  0  0  0
  150.9337  134.9196  154.9917 C   0  0  0  0  0  0  0  0  0  0  0  0
  151.9792  134.7205  155.8217 N   0  0  0  0  0  0  0  0  0  0  0  0
  153.5600  131.2711  156.5808 H   0  0  0  0  0  0  0  0  0  0  0  0
  154.8568  131.9389  157.5726 H   0  0  0  0  0  0  0  0  0  0  0  0
  154.7658  132.3454  155.8554 H   0  0  0  0  0  0  0  0  0  0  0  0
  153.3444  135.3501  157.5860 H   0  0  0  0  0  0  0  0  0  0  0  0
  154.6189  134.8646  156.4570 H   0  0  0  0  0  0  0  0  0  0  0  0
  154.7370  134.4363  158.1672 H   0  0  0  0  0  0  0  0  0  0  0  0
  151.7380  131.3453  156.1120 H   0  0  0  0  0  0  0  0  0  0  0  0
  149.8311  131.7120  154.5817 H   0  0  0  0  0  0  0  0  0  0  0  0
  149.1632  135.0951  153.1347 H   0  0  0  0  0  0  0  0  0  0  0  0
  147.4764  135.0750  152.1237 H   0  0  0  0  0  0  0  0  0  0  0  0
  145.2460  133.2405  152.9423 H   0  0  0  0  0  0  0  0  0  0  0  0
  146.5437  133.4586  150.1605 H   0  0  0  0  0  0  0  0  0  0  0  0
  145.8791  131.1828  149.9138 H   0  0  0  0  0  0  0  0  0  0  0  0
  145.5056  131.1848  151.6375 H   0  0  0  0  0  0  0  0  0  0  0  0
  143.6632  131.7197  149.3058 H   0  0  0  0  0  0  0  0  0  0  0  0
  143.2639  130.9760  150.8587 H   0  0  0  0  0  0  0  0  0  0  0  0
  144.4067  134.3773  149.5182 H   0  0  0  0  0  0  0  0  0  0  0  0
  143.0040  136.0526  152.0155 H   0  0  0  0  0  0  0  0  0  0  0  0
  144.1168  136.0549  153.3803 H   0  0  0  0  0  0  0  0  0  0  0  0
  143.1998  134.6112  152.9978 H   0  0  0  0  0  0  0  0  0  0  0  0
  144.8828  136.8764  150.5528 H   0  0  0  0  0  0  0  0  0  0  0  0
  146.3982  136.0014  150.4546 H   0  0  0  0  0  0  0  0  0  0  0  0
  145.9696  136.8463  151.9337 H   0  0  0  0  0  0  0  0  0  0  0  0
  150.7534  135.9438  154.6995 H   0  0  0  0  0  0  0  0  0  0  0  0
  1  2  1  0  0  0  0
  1 23  1  0  0  0  0
  1 24  1  0  0  0  0
  1 25  1  0  0  0  0
  2  3  1  0  0  0  0
  2  4  1  0  0  0  0
  3 26  1  0  0  0  0
  3 27  1  0  0  0  0
  3 28  1  0  0  0  0
  4 22  1  0  0  0  0
  4  5  2  0  0  0  0
  5  6  1  0  0  0  0
  5 29  1  0  0  0  0
  6  7  2  0  0  0  0
  6 30  1  0  0  0  0
  7  8  1  0  0  0  0
  7 21  1  0  0  0  0
  8  9  1  0  0  0  0
  8 31  1  0  0  0  0
  9 10  2  0  0  0  0
  9 11  1  0  0  0  0
 11 12  1  0  0  0  0
 11 32  1  0  0  0  0
 12 18  1  0  0  0  0
 12 13  1  0  0  0  0
 12 33  1  0  0  0  0
 13 17  1  0  0  0  0
 13 14  1  0  0  0  0
 13 34  1  0  0  0  0
 14 15  1  0  0  0  0
 14 35  1  0  0  0  0
 14 36  1  0  0  0  0
 15 16  1  0  0  0  0
 15 37  1  0  0  0  0
 15 38  1  0  0  0  0
 16 17  1  0  0  0  0
 17 18  1  0  0  0  0
 17 39  1  0  0  0  0
 18 19  1  0  0  0  0
 18 20  1  0  0  0  0
 19 40  1  0  0  0  0
 19 41  1  0  0  0  0
 19 42  1  0  0  0  0
 20 43  1  0  0  0  0
 20 44  1  0  0  0  0
 20 45  1  0  0  0  0
 21 22  2  0  0  0  0
 21 46  1  0  0  0  0
M  END
> <s_m_source_file>
AV-unprocessed.smi

> <i_m_source_file_index>
2923

> <i_lp_mmshare_version>
43012

> <i_f3d_flags>
0

> <s_epik_input>
W0NIM11OKFtDSDNdKWMxW2NIXVtjSF1jKFtjSF1uMSlbTkhdQyg9TylbTkhdW0NASF0yQyhbQ0gzXSkoW0NIM10pW0NAQEhdKFtDQEhdMjMpT1tDSDJdW0NIMl0z

> <s_epik_cmdline>
J2VwaWtfcHl0aG9uJywgJy1waCcsICc3LjAnLCAnLXRuJywgJzgnLCAnLW1hJywgJzIwMCcsICctbWV0YWxfYmluZGluZycsICctaW1hZScsICc8aW5maWxlLm1hZT4nLCAnLW9tYWUnLCAnPG91dGZpbGUubWFlPic=

> <r_lp_tautomer_probability>
1

> <r_epik_Ionization_Penalty>
0.628785

> <r_epik_Ionization_Penalty_Charging>
0

> <r_epik_Ionization_Penalty_Neutral>
0.628785

> <r_epik_State_Penalty>
0.644286

> <r_epik_Charging_Adjusted_Penalty>
0.644286

> <i_epik_Tot_Q>
0

> <i_epik_Tot_abs_Q>
0

> <r_epik_Metal_State_Penalty>
0.308404

> <b_epik_Metal_Only>
0

> <s_lp_Force_Field>
OPLS_2005

> <r_lp_Energy>
42.6723

> <b_lp_Chiralities_Consistent>
1

> <s_lp_Variant>
AV-unprocessed.smi:2923-11

> <Gold.Version>
5.8.1

> <Gold.Id.Protein>
6NUR|6NUR_protein|mol2

> <Gold.PLP.Fitness>
41.2753

> <Gold.PLP.PLP>
-31.9271

> <Gold.PLP.part.hbond>
-4.0000

> <Gold.PLP.part.metal>
0.0000

> <Gold.PLP.part.buried>
-0.4817

> <Gold.PLP.part.nonpolar>
-27.5738

> <Gold.PLP.part.repulsive>
0.5948

> <Gold.PLP.ligand.clash>
0.0000

> <Gold.PLP.ligand.torsion>
0.7144

> <Gold.PLP.Chemscore.Hbond>
3.4640

> <Gold.PLP.Chemscore.CHOScore>
0.0000

> <Gold.PLP.Chemscore.Metal>
0.0000

> <Gold.Chemscore.Hbonds>
donor molecule, donor type, donor heavy atom, donor atom, acceptor molecule, acceptor atom, score
      L1  H     8    31       P1  7948  0.75
      L1  H    11    32       P1  7948  0.96
      P1  H 10752 10765       L1    22  0.70

> <Gold.PLP.Chemscore.Internal.Correction>
0.3851

> <Gold.Rescore>
     Score         DG    S(hbond)    S(metal)    S(lipo)     H(rot)  DE(clash)    DE(int)     intcor
     15.63     -17.25       1.57        0.00      81.92       1.19       0.07       1.55       ----

> <Gold.Chemscore.Fitness>
15.6263

> <Gold.Chemscore.DG>
-17.2457

> <Gold.Chemscore.ZeroCoef>
-5.4800

> <Gold.Chemscore.Hbond>
1.5679

> <Gold.Chemscore.Metal>
0.0000

> <Gold.Chemscore.Lipo>
81.9227

> <Gold.Chemscore.Internal_Hbond>
0.0000

> <Gold.Chemscore.DEClash>
0.0712

> <Gold.Chemscore.DEInternal>
1.5483

> <Gold.Chemscore.Rot>
1.1937

> <Gold.Chemscore.Internal.Correction>
   9.000000E+99

> <Gold.Chemscore.Hbonds>
donor molecule, donor type, donor heavy atom, donor atom, acceptor molecule, acceptor atom, score
      L1  H     8    31       P1  7948  0.09
      L1  H    11    32       P1  7948  0.89
      P1  H 10752 10765       L1    22  0.26

> <Gold.Chemscore.Hbond.Weighted>
-5.2366

> <Gold.Chemscore.Metal.Weighted>
-0.0000

> <Gold.Chemscore.Lipo.Weighted>
-9.5850

> <Gold.Chemscore.Internal_Hbond.Weighted>
0.0000

> <Gold.Chemscore.DEClash.Weighted>
0.0712

> <Gold.Chemscore.DEInternal.Weighted>
1.5483

> <Gold.Chemscore.Rot.Weighted>
3.0559

> <Gold.Chemscore.Internal.Correction.Weighted>
   9.000000E+99

> <Gold.Protein.RotatedTorsions>
[ 6907 6896 6895 6894 ] final  155.12 input  -60.11 | X-H torsion
[ 7974 7965 7964 7962 ] final  -35.22 input  175.53 | X-H torsion
[ 8008 7997 7996 7995 ] final  148.31 input   59.86 | X-H torsion
[ 10167 10162 10161 10158 ] final   63.90 input  -65.29 | X-H torsion
[ 10718 10713 10712 10709 ] final   44.42 input   66.30 | X-H torsion
[ 10763 10752 10751 10750 ] final -146.07 input  -60.55 | X-H torsion
[ 11005 11000 10999 10996 ] final   72.12 input  -57.11 | X-H torsion

> <Gold.Protein.ActiveResidues>
 VAL166  LYS551  ARG553  GLY616  TRP617  ASP618  TYR619  PRO620  LYS621  CYS622 
 ASP623  PHE694  ASN695  SER759  ASP760  ASP761  ALA762  ILE779  LEU786  VAL792 
 PHE793  MET794  SER795  GLU796  ALA797  LYS798  CYS799  TRP800  GLU811  SER814 

> <Gold.Protein.RotatedAtoms>
  152.0488  133.4009  159.4367 H   0  0  0  0  0  0  0  0  0  0  0  0  # atno 6907 bound_to 6896
  150.6871  134.3332  159.4845 H   0  0  0  0  0  0  0  0  0  0  0  0  # atno 6908 bound_to 6896
  152.1139  134.9254  160.0616 H   0  0  0  0  0  0  0  0  0  0  0  0  # atno 6909 bound_to 6896
  146.0764  140.6133  142.8928 H   0  0  0  0  0  0  0  0  0  0  0  0  # atno 7974 bound_to 7965
  156.2795  140.2132  156.5678 H   0  0  0  0  0  0  0  0  0  0  0  0  # atno 8008 bound_to 7997
  154.7160  140.0508  157.0618 H   0  0  0  0  0  0  0  0  0  0  0  0  # atno 8009 bound_to 7997
  155.0542  140.3159  155.4685 H   0  0  0  0  0  0  0  0  0  0  0  0  # atno 8010 bound_to 7997
  140.1280  144.4669  150.6881 H   0  0  0  0  0  0  0  0  0  0  0  0  # atno 10167 bound_to 10162
  157.4266  130.8000  149.7564 H   0  0  0  0  0  0  0  0  0  0  0  0  # atno 10718 bound_to 10713
  154.8353  135.3396  154.6604 H   0  0  0  0  0  0  0  0  0  0  0  0  # atno 10763 bound_to 10752
  153.7220  135.6957  153.5015 H   0  0  0  0  0  0  0  0  0  0  0  0  # atno 10764 bound_to 10752
  153.2375  135.4396  155.0614 H   0  0  0  0  0  0  0  0  0  0  0  0  # atno 10765 bound_to 10752
  139.9507  134.7232  156.0869 H   0  0  0  0  0  0  0  0  0  0  0  0  # atno 11005 bound_to 11000
  144.7265  140.4539  143.6969 LP  0  0  0  0  0  0  0  0  0  0  0  0  # atno 17320 bound_to 7965
  145.6297  139.1535  143.2976 LP  0  0  0  0  0  0  0  0  0  0  0  0  # atno 17321 bound_to 7965
  140.6833  143.2337  151.5326 LP  0  0  0  0  0  0  0  0  0  0  0  0  # atno 17342 bound_to 10162
  139.5534  144.2337  152.1570 LP  0  0  0  0  0  0  0  0  0  0  0  0  # atno 17343 bound_to 10162
  155.9899  130.3949  150.3054 LP  0  0  0  0  0  0  0  0  0  0  0  0  # atno 17370 bound_to 10713
  157.1207  131.0246  151.3010 LP  0  0  0  0  0  0  0  0  0  0  0  0  # atno 17371 bound_to 10713
  141.1169  133.6625  156.3117 LP  0  0  0  0  0  0  0  0  0  0  0  0  # atno 17394 bound_to 11000
  140.5725  134.5826  157.5461 LP  0  0  0  0  0  0  0  0  0  0  0  0  # atno 17395 bound_to 11000

$$$$
