AV-unprocessed.smi:1396|AV-procd|sdf|5675|dock3
  -GOLD-   22720 5303D 1   1.00000     0.00000
 Structure written by MMmdl.
 47 48  0  0  0  0  0  0  0  0  2 V2000
  149.0627  126.2329  150.4409 C   0  0  0  0  0  0  0  0  0  0  0  0
  148.1049  127.2828  150.7530 N   0  0  0  0  0  0  0  0  0  0  0  0
  147.9966  127.8715  151.9524 C   0  0  0  0  0  0  0  0  0  0  0  0
  148.7140  127.5859  152.9118 O   0  0  0  0  0  0  0  0  0  0  0  0
  146.9228  128.9572  152.0814 C   0  0  0  0  0  0  0  0  0  0  0  0
  147.4894  130.3112  152.3127 N   0  3  2  0  0  0  0  0  0  0  0  0
  148.2469  130.4167  153.5889 C   0  0  0  0  0  0  0  0  0  0  0  0
  148.9277  131.7893  153.7175 C   0  0  0  0  0  0  0  0  0  0  0  0
  147.9014  132.9280  153.6101 C   0  0  1  0  0  0  0  0  0  0  0  0
  148.5826  134.2187  153.6603 N   0  0  0  0  0  0  0  0  0  0  0  0
  149.3489  134.6473  154.6739 C   0  0  0  0  0  0  0  0  0  0  0  0
  149.5557  133.9851  155.6901 O   0  0  0  0  0  0  0  0  0  0  0  0
  149.8561  135.8658  154.4175 N   0  0  0  0  0  0  0  0  0  0  0  0
  150.7091  136.6661  155.2266 C   0  0  0  0  0  0  0  0  0  0  0  0
  151.2659  137.8246  154.6478 C   0  0  0  0  0  0  0  0  0  0  0  0
  152.1038  138.6477  155.4235 C   0  0  0  0  0  0  0  0  0  0  0  0
  152.3564  138.2891  156.7622 C   0  0  0  0  0  0  0  0  0  0  0  0
  153.1834  139.0955  157.5171 O   0  0  0  0  0  0  0  0  0  0  0  0
  153.3399  138.7971  158.9000 C   0  0  0  0  0  0  0  0  0  0  0  0
  151.8157  137.1850  157.3339 N   0  0  0  0  0  0  0  0  0  0  0  0
  151.0128  136.3995  156.5846 C   0  0  0  0  0  0  0  0  0  0  0  0
  147.1021  132.7775  152.3029 C   0  0  0  0  0  0  0  0  0  0  0  0
  146.4654  131.3811  152.1966 C   0  0  0  0  0  0  0  0  0  0  0  0
  148.9371  125.9100  149.4074 H   0  0  0  0  0  0  0  0  0  0  0  0
  148.9154  125.3669  151.0877 H   0  0  0  0  0  0  0  0  0  0  0  0
  150.0858  126.5903  150.5646 H   0  0  0  0  0  0  0  0  0  0  0  0
  147.4866  127.5773  150.0107 H   0  0  0  0  0  0  0  0  0  0  0  0
  146.3591  128.9497  151.1475 H   0  0  0  0  0  0  0  0  0  0  0  0
  146.2170  128.7072  152.8755 H   0  0  0  0  0  0  0  0  0  0  0  0
  147.5701  130.2545  154.4293 H   0  0  0  0  0  0  0  0  0  0  0  0
  149.0069  129.6368  153.6430 H   0  0  0  0  0  0  0  0  0  0  0  0
  149.4552  131.8499  154.6702 H   0  0  0  0  0  0  0  0  0  0  0  0
  149.6836  131.8926  152.9373 H   0  0  0  0  0  0  0  0  0  0  0  0
  147.2167  132.8505  154.4572 H   0  0  0  0  0  0  0  0  0  0  0  0
  148.4695  134.8259  152.8614 H   0  0  0  0  0  0  0  0  0  0  0  0
  149.6440  136.2498  153.5084 H   0  0  0  0  0  0  0  0  0  0  0  0
  151.0586  138.0808  153.6191 H   0  0  0  0  0  0  0  0  0  0  0  0
  152.5453  139.5377  154.9998 H   0  0  0  0  0  0  0  0  0  0  0  0
  154.0264  139.5151  159.3483 H   0  0  0  0  0  0  0  0  0  0  0  0
  153.7599  137.8012  159.0491 H   0  0  0  0  0  0  0  0  0  0  0  0
  152.3910  138.8693  159.4333 H   0  0  0  0  0  0  0  0  0  0  0  0
  150.6014  135.5534  157.1114 H   0  0  0  0  0  0  0  0  0  0  0  0
  146.3234  133.5390  152.2472 H   0  0  0  0  0  0  0  0  0  0  0  0
  147.7574  132.9429  151.4461 H   0  0  0  0  0  0  0  0  0  0  0  0
  145.9507  131.2958  151.2389 H   0  0  0  0  0  0  0  0  0  0  0  0
  145.7117  131.2510  152.9751 H   0  0  0  0  0  0  0  0  0  0  0  0
  148.1501  130.4672  151.5642 H   0  0  0  0  0  0  0  0  0  0  0  0
  1  2  1  0  0  0  0
  1 24  1  0  0  0  0
  1 25  1  0  0  0  0
  1 26  1  0  0  0  0
  2  3  1  0  0  0  0
  2 27  1  0  0  0  0
  3  4  2  0  0  0  0
  3  5  1  0  0  0  0
  5  6  1  0  0  0  0
  5 28  1  0  0  0  0
  5 29  1  0  0  0  0
  6 23  1  0  0  0  0
  6  7  1  0  0  0  0
  6 47  1  0  0  0  0
  7  8  1  0  0  0  0
  7 30  1  0  0  0  0
  7 31  1  0  0  0  0
  8  9  1  0  0  0  0
  8 32  1  0  0  0  0
  8 33  1  0  0  0  0
  9 10  1  0  0  0  0
  9 22  1  0  0  0  0
  9 34  1  0  0  0  0
 10 11  1  0  0  0  0
 10 35  1  0  0  0  0
 11 12  2  0  0  0  0
 11 13  1  0  0  0  0
 13 14  1  0  0  0  0
 13 36  1  0  0  0  0
 14 21  1  0  0  0  0
 14 15  2  0  0  0  0
 15 16  1  0  0  0  0
 15 37  1  0  0  0  0
 16 17  2  0  0  0  0
 16 38  1  0  0  0  0
 17 18  1  0  0  0  0
 17 20  1  0  0  0  0
 18 19  1  0  0  0  0
 19 39  1  0  0  0  0
 19 40  1  0  0  0  0
 19 41  1  0  0  0  0
 20 21  2  0  0  0  0
 21 42  1  0  0  0  0
 22 23  1  0  0  0  0
 22 43  1  0  0  0  0
 22 44  1  0  0  0  0
 23 45  1  0  0  0  0
 23 46  1  0  0  0  0
M  CHG  1   6   1
M  END
> <s_m_source_file>
AV-unprocessed.smi

> <i_m_source_file_index>
1396

> <i_lp_mmshare_version>
43012

> <i_f3d_flags>
0

> <s_epik_input>
W0NIM11bTkhdQyg9TylbQ0gyXU4xW0NIMl1bQ0gyXVtDSF0oW0NIMl1bQ0gyXTEpW05IXUMoPU8pW05IXWMyW2NIXVtjSF1jKE9bQ0gzXSluW2NIXTI=

> <s_epik_cmdline>
J2VwaWtfcHl0aG9uJywgJy1waCcsICc3LjAnLCAnLXRuJywgJzgnLCAnLW1hJywgJzIwMCcsICctbWV0YWxfYmluZGluZycsICctaW1hZScsICc8aW5maWxlLm1hZT4nLCAnLW9tYWUnLCAnPG91dGZpbGUubWFlPic=

> <r_lp_tautomer_probability>
1

> <r_epik_Ionization_Penalty>
0.838943

> <r_epik_Ionization_Penalty_Charging>
0.838844

> <r_epik_Ionization_Penalty_Neutral>
9.87511e-05

> <r_epik_State_Penalty>
0.8734

> <r_epik_Charging_Adjusted_Penalty>
1.71224

> <i_epik_Tot_Q>
1

> <i_epik_Tot_abs_Q>
1

> <r_epik_Metal_State_Penalty>
0.877926

> <b_epik_Metal_Only>
0

> <s_lp_Force_Field>
OPLS_2005

> <r_lp_Energy>
18.1916

> <b_lp_Chiralities_Consistent>
1

> <s_lp_Variant>
AV-unprocessed.smi:1396-2

> <Gold.Version>
5.8.1

> <Gold.Id.Protein>
6NUR|6NUR_protein|mol2

> <Gold.PLP.Fitness>
51.0344

> <Gold.PLP.PLP>
-39.2384

> <Gold.PLP.part.hbond>
-4.5482

> <Gold.PLP.part.metal>
0.0000

> <Gold.PLP.part.buried>
-3.6610

> <Gold.PLP.part.nonpolar>
-30.7846

> <Gold.PLP.part.repulsive>
0.4213

> <Gold.PLP.ligand.clash>
0.0000

> <Gold.PLP.ligand.torsion>
0.1153

> <Gold.PLP.Chemscore.Hbond>
4.0000

> <Gold.PLP.Chemscore.CHOScore>
0.0000

> <Gold.PLP.Chemscore.Metal>
0.0000

> <Gold.Chemscore.Hbonds>
donor molecule, donor type, donor heavy atom, donor atom, acceptor molecule, acceptor atom, score
      L1  H     6    47       P1 10747  1.00
      L1  H    10    35       P1  7948  1.00
      L1  H    13    36       P1  7948  1.00
      P1  H  7997  8010       L1    18  1.00

> <Gold.PLP.Chemscore.Internal.Correction>
0.0266

> <Gold.Rescore>
     Score         DG    S(hbond)    S(metal)    S(lipo)     H(rot)  DE(clash)    DE(int)     intcor
     18.45     -20.63       3.51        0.00      72.96       2.00       0.03       2.16       ----

> <Gold.Chemscore.Fitness>
18.4473

> <Gold.Chemscore.DG>
-20.6290

> <Gold.Chemscore.ZeroCoef>
-5.4800

> <Gold.Chemscore.Hbond>
3.5099

> <Gold.Chemscore.Metal>
0.0000

> <Gold.Chemscore.Lipo>
72.9620

> <Gold.Chemscore.Internal_Hbond>
0.0000

> <Gold.Chemscore.DEClash>
0.0264

> <Gold.Chemscore.DEInternal>
2.1554

> <Gold.Chemscore.Rot>
1.9963

> <Gold.Chemscore.Internal.Correction>
   9.000000E+99

> <Gold.Chemscore.Hbonds>
donor molecule, donor type, donor heavy atom, donor atom, acceptor molecule, acceptor atom, score
      L1  H     6    47       P1 10747  0.96
      L1  H    10    35       P1  7948  0.43
      L1  H    13    36       P1  7948  0.34
      P1  H  7997  8010       L1    18  0.89

> <Gold.Chemscore.Hbond.Weighted>
-11.7230

> <Gold.Chemscore.Metal.Weighted>
-0.0000

> <Gold.Chemscore.Lipo.Weighted>
-8.5366

> <Gold.Chemscore.Internal_Hbond.Weighted>
0.0000

> <Gold.Chemscore.DEClash.Weighted>
0.0264

> <Gold.Chemscore.DEInternal.Weighted>
2.1554

> <Gold.Chemscore.Rot.Weighted>
5.1105

> <Gold.Chemscore.Internal.Correction.Weighted>
   9.000000E+99

> <Gold.Protein.RotatedTorsions>
[ 6907 6896 6895 6894 ] final   20.01 input  -60.11 | X-H torsion
[ 7974 7965 7964 7962 ] final    0.48 input  175.53 | X-H torsion
[ 8008 7997 7996 7995 ] final   63.47 input   59.86 | X-H torsion
[ 10167 10162 10161 10158 ] final   87.89 input  -65.29 | X-H torsion
[ 10718 10713 10712 10709 ] final  176.99 input   66.30 | X-H torsion
[ 10763 10752 10751 10750 ] final  113.95 input  -60.55 | X-H torsion
[ 11005 11000 10999 10996 ] final  -14.47 input  -57.11 | X-H torsion

> <Gold.Protein.ActiveResidues>
 VAL166  LYS551  ARG553  GLY616  TRP617  ASP618  TYR619  PRO620  LYS621  CYS622 
 ASP623  PHE694  ASN695  SER759  ASP760  ASP761  ALA762  ILE779  LEU786  VAL792 
 PHE793  MET794  SER795  GLU796  ALA797  LYS798  CYS799  TRP800  GLU811  SER814 

> <Gold.Protein.RotatedAtoms>
  151.8898  135.0421  160.0496 H   0  0  0  0  0  0  0  0  0  0  0  0  # atno 6907 bound_to 6896
  152.2445  133.5159  159.5298 H   0  0  0  0  0  0  0  0  0  0  0  0  # atno 6908 bound_to 6896
  150.7064  134.0960  159.3991 H   0  0  0  0  0  0  0  0  0  0  0  0  # atno 6909 bound_to 6896
  146.2434  140.1131  142.8343 H   0  0  0  0  0  0  0  0  0  0  0  0  # atno 7974 bound_to 7965
  155.6308  140.3496  155.4682 H   0  0  0  0  0  0  0  0  0  0  0  0  # atno 8008 bound_to 7997
  156.0005  140.1212  157.0576 H   0  0  0  0  0  0  0  0  0  0  0  0  # atno 8009 bound_to 7997
  154.4247  140.1101  156.5676 H   0  0  0  0  0  0  0  0  0  0  0  0  # atno 8010 bound_to 7997
  139.8728  144.6483  150.8930 H   0  0  0  0  0  0  0  0  0  0  0  0  # atno 10167 bound_to 10162
  156.9120  130.9913  151.3019 H   0  0  0  0  0  0  0  0  0  0  0  0  # atno 10718 bound_to 10713
  153.5001  135.3640  155.2535 H   0  0  0  0  0  0  0  0  0  0  0  0  # atno 10763 bound_to 10752
  154.8748  135.3998  154.3488 H   0  0  0  0  0  0  0  0  0  0  0  0  # atno 10764 bound_to 10752
  153.4123  135.7078  153.6417 H   0  0  0  0  0  0  0  0  0  0  0  0  # atno 10765 bound_to 10752
  140.7867  133.8320  155.9342 H   0  0  0  0  0  0  0  0  0  0  0  0  # atno 11005 bound_to 11000
  145.0470  140.8989  143.5018 LP  0  0  0  0  0  0  0  0  0  0  0  0  # atno 17320 bound_to 7965
  145.1222  139.2686  143.5582 LP  0  0  0  0  0  0  0  0  0  0  0  0  # atno 17321 bound_to 7965
  140.7758  143.3650  151.1757 LP  0  0  0  0  0  0  0  0  0  0  0  0  # atno 17342 bound_to 10162
  139.7268  143.9136  152.3005 LP  0  0  0  0  0  0  0  0  0  0  0  0  # atno 17343 bound_to 10162
  157.5962  130.8479  149.8732 LP  0  0  0  0  0  0  0  0  0  0  0  0  # atno 17370 bound_to 10713
  156.0531  130.3713  150.1153 LP  0  0  0  0  0  0  0  0  0  0  0  0  # atno 17371 bound_to 10713
  140.9429  134.1877  157.4784 LP  0  0  0  0  0  0  0  0  0  0  0  0  # atno 17394 bound_to 11000
  139.8736  134.9879  156.5388 LP  0  0  0  0  0  0  0  0  0  0  0  0  # atno 17395 bound_to 11000

$$$$
