AV-unprocessed.smi:1718|AV-procd|sdf|6922|dock3
  -GOLD-   22720 8123D 1   1.00000     0.00000
 Structure written by MMmdl.
 40 41  0  0  0  0  0  0  0  0  1 V2000
  152.8714  138.7147  154.7209 C   0  0  0  0  0  0  0  0  0  0  0  0
  151.5023  139.0370  155.3385 C   0  0  2  0  0  0  0  0  0  0  0  0
  150.5873  139.2411  154.2660 O   0  0  0  0  0  0  0  0  0  0  0  0
  149.2128  139.0498  154.5862 C   0  0  0  0  0  0  0  0  0  0  0  0
  148.3749  140.1444  153.9112 C   0  0  2  0  0  0  0  0  0  0  0  0
  148.5816  141.5545  154.4852 C   0  0  0  0  0  0  0  0  0  0  0  0
  147.2452  141.8757  155.1255 C   0  0  0  0  0  0  0  0  0  0  0  0
  146.2801  141.0507  154.2853 C   0  0  0  0  0  0  0  0  0  0  0  0
  146.9906  139.8425  154.0655 O   0  0  0  0  0  0  0  0  0  0  0  0
  151.5650  140.2889  156.2289 C   0  0  0  0  0  0  0  0  0  0  0  0
  150.9249  141.2908  155.9108 O   0  0  0  0  0  0  0  0  0  0  0  0
  152.3449  140.1801  157.3229 N   0  0  0  0  0  0  0  0  0  0  0  0
  152.5718  141.1049  158.3561 C   0  0  0  0  0  0  0  0  0  0  0  0
  151.8353  142.2261  158.5731 C   0  0  0  0  0  0  0  0  0  0  0  0
  152.1149  143.1321  159.6741 C   0  0  0  0  0  0  0  0  0  0  0  0
  151.3280  144.4207  159.8560 C   0  0  0  0  0  0  0  0  0  0  0  0
  152.1070  145.4934  159.7093 F   0  0  0  0  0  0  0  0  0  0  0  0
  150.3360  144.4989  158.9690 F   0  0  0  0  0  0  0  0  0  0  0  0
  150.7951  144.4568  161.0764 F   0  0  0  0  0  0  0  0  0  0  0  0
  153.1500  142.8078  160.4707 C   0  0  0  0  0  0  0  0  0  0  0  0
  153.8988  141.6464  160.2676 N   0  0  0  0  0  0  0  0  0  0  0  0
  153.6805  140.7670  159.2642 C   0  0  0  0  0  0  0  0  0  0  0  0
  154.3847  139.7640  159.1535 O   0  0  0  0  0  0  0  0  0  0  0  0
  154.6494  141.4647  160.9183 H   0  0  0  0  0  0  0  0  0  0  0  0
  153.6286  138.5632  155.4910 H   0  0  0  0  0  0  0  0  0  0  0  0
  153.2151  139.5151  154.0641 H   0  0  0  0  0  0  0  0  0  0  0  0
  152.8202  137.8028  154.1258 H   0  0  0  0  0  0  0  0  0  0  0  0
  151.1838  138.1752  155.9285 H   0  0  0  0  0  0  0  0  0  0  0  0
  148.8891  138.0700  154.2323 H   0  0  0  0  0  0  0  0  0  0  0  0
  149.0464  139.0784  155.6635 H   0  0  0  0  0  0  0  0  0  0  0  0
  148.5976  140.1575  152.8434 H   0  0  0  0  0  0  0  0  0  0  0  0
  149.4080  141.6197  155.1941 H   0  0  0  0  0  0  0  0  0  0  0  0
  148.7838  142.2567  153.6756 H   0  0  0  0  0  0  0  0  0  0  0  0
  147.2324  141.5246  156.1580 H   0  0  0  0  0  0  0  0  0  0  0  0
  147.0128  142.9409  155.1219 H   0  0  0  0  0  0  0  0  0  0  0  0
  145.3286  140.8723  154.7862 H   0  0  0  0  0  0  0  0  0  0  0  0
  146.0828  141.5369  153.3287 H   0  0  0  0  0  0  0  0  0  0  0  0
  152.8626  139.3175  157.4137 H   0  0  0  0  0  0  0  0  0  0  0  0
  150.9962  142.4732  157.9439 H   0  0  0  0  0  0  0  0  0  0  0  0
  153.4846  143.4023  161.3081 H   0  0  0  0  0  0  0  0  0  0  0  0
  1  2  1  0  0  0  0
  1 25  1  0  0  0  0
  1 26  1  0  0  0  0
  1 27  1  0  0  0  0
  2  3  1  0  0  0  0
  2 10  1  0  0  0  0
  2 28  1  0  0  0  0
  3  4  1  0  0  0  0
  4  5  1  0  0  0  0
  4 29  1  0  0  0  0
  4 30  1  0  0  0  0
  5  9  1  0  0  0  0
  5  6  1  0  0  0  0
  5 31  1  0  0  0  0
  6  7  1  0  0  0  0
  6 32  1  0  0  0  0
  6 33  1  0  0  0  0
  7  8  1  0  0  0  0
  7 34  1  0  0  0  0
  7 35  1  0  0  0  0
  8  9  1  0  0  0  0
  8 36  1  0  0  0  0
  8 37  1  0  0  0  0
 10 11  2  0  0  0  0
 10 12  1  0  0  0  0
 12 13  1  0  0  0  0
 12 38  1  0  0  0  0
 13 22  1  0  0  0  0
 13 14  2  0  0  0  0
 14 15  1  0  0  0  0
 14 39  1  0  0  0  0
 15 16  1  0  0  0  0
 15 20  2  0  0  0  0
 16 17  1  0  0  0  0
 16 18  1  0  0  0  0
 16 19  1  0  0  0  0
 20 21  1  0  0  0  0
 20 40  1  0  0  0  0
 21 24  1  0  0  0  0
 21 22  1  0  0  0  0
 22 23  2  0  0  0  0
M  END
> <s_m_source_file>
AV-unprocessed.smi

> <i_m_source_file_index>
1718

> <i_lp_mmshare_version>
43012

> <i_f3d_flags>
0

> <s_epik_input>
TzFbQ0gyXVtDSDJdW0NIMl1bQ0BIXTFbQ0gyXU9bQ0BASF0oW0NIM10pQyg9TylbTkhdYzJbY0hdYyhDKEYpKEYpRilbY0hdW25IXWMyPU8=

> <s_epik_cmdline>
J2VwaWtfcHl0aG9uJywgJy1waCcsICc3LjAnLCAnLXRuJywgJzgnLCAnLW1hJywgJzIwMCcsICctbWV0YWxfYmluZGluZycsICctaW1hZScsICc8aW5maWxlLm1hZT4nLCAnLW9tYWUnLCAnPG91dGZpbGUubWFlPic=

> <r_lp_tautomer_probability>
0.999

> <r_epik_Ionization_Penalty>
0.00894336

> <r_epik_Ionization_Penalty_Charging>
0.00894326

> <r_epik_Ionization_Penalty_Neutral>
1.00145e-07

> <r_epik_State_Penalty>
0.00676626

> <r_epik_Charging_Adjusted_Penalty>
0.0157095

> <i_epik_Tot_Q>
0

> <i_epik_Tot_abs_Q>
0

> <r_epik_Metal_State_Penalty>
0.321145

> <b_epik_Metal_Only>
0

> <s_lp_Force_Field>
OPLS_2005

> <r_lp_Energy>
34.6519

> <b_lp_Chiralities_Consistent>
1

> <s_lp_Variant>
AV-unprocessed.smi:1718-1

> <Gold.Version>
5.8.1

> <Gold.Id.Protein>
6NUR|6NUR_protein|mol2

> <Gold.PLP.Fitness>
48.2538

> <Gold.PLP.PLP>
-43.9472

> <Gold.PLP.part.hbond>
-2.5479

> <Gold.PLP.part.metal>
0.0000

> <Gold.PLP.part.buried>
0.1018

> <Gold.PLP.part.nonpolar>
-40.7735

> <Gold.PLP.part.repulsive>
0.9253

> <Gold.PLP.ligand.clash>
0.0000

> <Gold.PLP.ligand.torsion>
0.6586

> <Gold.PLP.Chemscore.Hbond>
1.8000

> <Gold.PLP.Chemscore.CHOScore>
0.0000

> <Gold.PLP.Chemscore.Metal>
0.0000

> <Gold.Chemscore.Hbonds>
donor molecule, donor type, donor heavy atom, donor atom, acceptor molecule, acceptor atom, score
      P1  H  7989  7998       L1     3  0.63
      P1  H  7997  8008       L1    23  1.00

> <Gold.PLP.Chemscore.Internal.Correction>
0.2237

> <Gold.Rescore>
     Score         DG    S(hbond)    S(metal)    S(lipo)     H(rot)  DE(clash)    DE(int)     intcor
     10.76     -14.81       0.82        0.00      97.57       1.88       0.77       3.28       ----

> <Gold.Chemscore.Fitness>
10.7633

> <Gold.Chemscore.DG>
-14.8097

> <Gold.Chemscore.ZeroCoef>
-5.4800

> <Gold.Chemscore.Hbond>
0.8155

> <Gold.Chemscore.Metal>
0.0000

> <Gold.Chemscore.Lipo>
97.5746

> <Gold.Chemscore.Internal_Hbond>
0.0000

> <Gold.Chemscore.DEClash>
0.7668

> <Gold.Chemscore.DEInternal>
3.2797

> <Gold.Chemscore.Rot>
1.8790

> <Gold.Chemscore.Internal.Correction>
   9.000000E+99

> <Gold.Chemscore.Hbonds>
donor molecule, donor type, donor heavy atom, donor atom, acceptor molecule, acceptor atom, score
      P1  H  7989  7998       L1     3  0.06
      P1  H  7997  8008       L1    23  0.29

> <Gold.Chemscore.Hbond.Weighted>
-2.7237

> <Gold.Chemscore.Metal.Weighted>
-0.0000

> <Gold.Chemscore.Lipo.Weighted>
-11.4162

> <Gold.Chemscore.Internal_Hbond.Weighted>
0.0000

> <Gold.Chemscore.DEClash.Weighted>
0.7668

> <Gold.Chemscore.DEInternal.Weighted>
3.2797

> <Gold.Chemscore.Rot.Weighted>
4.8102

> <Gold.Chemscore.Internal.Correction.Weighted>
   9.000000E+99

> <Gold.Protein.RotatedTorsions>
[ 6907 6896 6895 6894 ] final -123.75 input  -60.11 | X-H torsion
[ 7974 7965 7964 7962 ] final   20.13 input  175.53 | X-H torsion
[ 8008 7997 7996 7995 ] final -122.07 input   59.86 | X-H torsion
[ 10167 10162 10161 10158 ] final  119.43 input  -65.29 | X-H torsion
[ 10718 10713 10712 10709 ] final    9.06 input   66.30 | X-H torsion
[ 10763 10752 10751 10750 ] final   19.94 input  -60.55 | X-H torsion
[ 11005 11000 10999 10996 ] final  -21.03 input  -57.11 | X-H torsion

> <Gold.Protein.ActiveResidues>
 VAL166  LYS551  ARG553  GLY616  TRP617  ASP618  TYR619  PRO620  LYS621  CYS622 
 ASP623  PHE694  ASN695  SER759  ASP760  ASP761  ALA762  ILE779  LEU786  VAL792 
 PHE793  MET794  SER795  GLU796  ALA797  LYS798  CYS799  TRP800  GLU811  SER814 

> <Gold.Protein.RotatedAtoms>
  150.8701  133.7518  159.2963 H   0  0  0  0  0  0  0  0  0  0  0  0  # atno 6907 bound_to 6896
  151.5133  135.1064  159.9869 H   0  0  0  0  0  0  0  0  0  0  0  0  # atno 6908 bound_to 6896
  152.4689  133.7939  159.6972 H   0  0  0  0  0  0  0  0  0  0  0  0  # atno 6909 bound_to 6896
  146.2123  139.8213  142.8679 H   0  0  0  0  0  0  0  0  0  0  0  0  # atno 7974 bound_to 7965
  155.1583  140.0405  157.2837 H   0  0  0  0  0  0  0  0  0  0  0  0  # atno 8008 bound_to 7997
  154.6354  140.2534  155.7357 H   0  0  0  0  0  0  0  0  0  0  0  0  # atno 8009 bound_to 7997
  156.2506  140.2866  156.0725 H   0  0  0  0  0  0  0  0  0  0  0  0  # atno 8010 bound_to 7997
  139.6047  144.7066  151.2982 H   0  0  0  0  0  0  0  0  0  0  0  0  # atno 10167 bound_to 10162
  156.9608  130.5932  149.5662 H   0  0  0  0  0  0  0  0  0  0  0  0  # atno 10718 bound_to 10713
  153.1119  135.6698  153.9485 H   0  0  0  0  0  0  0  0  0  0  0  0  # atno 10763 bound_to 10752
  153.9026  135.3034  155.3450 H   0  0  0  0  0  0  0  0  0  0  0  0  # atno 10764 bound_to 10752
  154.7538  135.5022  153.9414 H   0  0  0  0  0  0  0  0  0  0  0  0  # atno 10765 bound_to 10752
  140.8521  133.7849  155.9978 H   0  0  0  0  0  0  0  0  0  0  0  0  # atno 11005 bound_to 11000
  145.3093  141.0215  143.3564 LP  0  0  0  0  0  0  0  0  0  0  0  0  # atno 17320 bound_to 7965
  144.8948  139.4727  143.6661 LP  0  0  0  0  0  0  0  0  0  0  0  0  # atno 17321 bound_to 7965
  140.7276  143.6960  150.7884 LP  0  0  0  0  0  0  0  0  0  0  0  0  # atno 17342 bound_to 10162
  140.0543  143.5218  152.2659 LP  0  0  0  0  0  0  0  0  0  0  0  0  # atno 17343 bound_to 10162
  156.0323  130.5413  150.8565 LP  0  0  0  0  0  0  0  0  0  0  0  0  # atno 17370 bound_to 10713
  157.5659  131.0946  150.9490 LP  0  0  0  0  0  0  0  0  0  0  0  0  # atno 17371 bound_to 10713
  140.8778  134.2648  157.5159 LP  0  0  0  0  0  0  0  0  0  0  0  0  # atno 17394 bound_to 11000
  139.8704  134.9600  156.4349 LP  0  0  0  0  0  0  0  0  0  0  0  0  # atno 17395 bound_to 11000

$$$$
