AV-unprocessed.smi:629|AV-procd|sdf|3115|dock4
  -GOLD-   22720 0 43D 1   1.00000     0.00000
 Structure written by MMmdl.
 31 32  0  0  0  0  0  0  0  0  1 V2000
  147.0402  138.9063  153.0846 C   0  0  0  0  0  0  0  0  0  0  0  0
  148.0577  139.9021  153.3826 N   0  0  0  0  0  0  0  0  0  0  0  0
  148.3390  140.3489  154.6158 C   0  0  0  0  0  0  0  0  0  0  0  0
  147.7647  139.9461  155.6272 O   0  0  0  0  0  0  0  0  0  0  0  0
  149.4412  141.4043  154.7301 C   0  0  0  0  0  0  0  0  0  0  0  0
  150.5079  140.9587  155.6794 C   0  0  0  0  0  0  0  0  0  0  0  0
  151.5520  140.2519  155.2611 N   0  0  0  0  0  0  0  0  0  0  0  0
  152.2925  140.0422  156.4330 O   0  0  0  0  0  0  0  0  0  0  0  0
  151.6042  140.6624  157.4213 C   0  0  0  0  0  0  0  0  0  0  0  0
  152.1176  140.5802  158.8207 C   0  0  0  0  0  0  0  0  0  0  0  0
  152.9478  141.8114  159.2274 C   0  0  2  0  0  0  0  0  0  0  0  0
  153.1056  141.9433  160.7211 C   0  0  0  0  0  0  0  0  0  0  0  0
  152.7488  143.1426  161.1751 C   0  0  0  0  0  0  0  0  0  0  0  0
  152.2770  144.0544  160.0777 C   0  0  0  0  0  0  0  0  0  0  0  0
  152.2832  143.1534  158.8230 C   0  0  0  0  0  0  0  0  0  0  0  0
  150.4727  141.2317  157.0135 N   0  0  0  0  0  0  0  0  0  0  0  0
  147.0011  138.7249  152.0106 H   0  0  0  0  0  0  0  0  0  0  0  0
  146.0561  139.2474  153.4087 H   0  0  0  0  0  0  0  0  0  0  0  0
  147.2633  137.9619  153.5825 H   0  0  0  0  0  0  0  0  0  0  0  0
  148.5731  140.2842  152.6025 H   0  0  0  0  0  0  0  0  0  0  0  0
  149.8806  141.5872  153.7486 H   0  0  0  0  0  0  0  0  0  0  0  0
  149.0139  142.3502  155.0662 H   0  0  0  0  0  0  0  0  0  0  0  0
  151.2514  140.4899  159.4774 H   0  0  0  0  0  0  0  0  0  0  0  0
  152.6935  139.6621  158.9449 H   0  0  0  0  0  0  0  0  0  0  0  0
  153.9399  141.7605  158.7761 H   0  0  0  0  0  0  0  0  0  0  0  0
  153.4874  141.1378  161.3313 H   0  0  0  0  0  0  0  0  0  0  0  0
  152.7956  143.4581  162.2072 H   0  0  0  0  0  0  0  0  0  0  0  0
  151.2810  144.4411  160.2957 H   0  0  0  0  0  0  0  0  0  0  0  0
  152.9642  144.8948  159.9745 H   0  0  0  0  0  0  0  0  0  0  0  0
  152.8119  143.6263  157.9945 H   0  0  0  0  0  0  0  0  0  0  0  0
  151.2559  142.9917  158.4930 H   0  0  0  0  0  0  0  0  0  0  0  0
  1  2  1  0  0  0  0
  1 17  1  0  0  0  0
  1 18  1  0  0  0  0
  1 19  1  0  0  0  0
  2  3  1  0  0  0  0
  2 20  1  0  0  0  0
  3  4  2  0  0  0  0
  3  5  1  0  0  0  0
  5  6  1  0  0  0  0
  5 21  1  0  0  0  0
  5 22  1  0  0  0  0
  6 16  1  0  0  0  0
  6  7  2  0  0  0  0
  7  8  1  0  0  0  0
  8  9  1  0  0  0  0
  9 10  1  0  0  0  0
  9 16  2  0  0  0  0
 10 11  1  0  0  0  0
 10 23  1  0  0  0  0
 10 24  1  0  0  0  0
 11 15  1  0  0  0  0
 11 12  1  0  0  0  0
 11 25  1  0  0  0  0
 12 13  2  0  0  0  0
 12 26  1  0  0  0  0
 13 14  1  0  0  0  0
 13 27  1  0  0  0  0
 14 15  1  0  0  0  0
 14 28  1  0  0  0  0
 14 29  1  0  0  0  0
 15 30  1  0  0  0  0
 15 31  1  0  0  0  0
M  END
> <s_m_source_file>
AV-unprocessed.smi

> <i_m_source_file_index>
629

> <i_lp_mmshare_version>
43012

> <i_f3d_flags>
0

> <s_epik_input>
W0NIM11bTkhdQyg9TylbQ0gyXWMxbm9jKG4xKVtDSDJdW0NAQEhdMltDSF09W0NIXVtDSDJdW0NIMl0y

> <s_epik_cmdline>
J2VwaWtfcHl0aG9uJywgJy1waCcsICc3LjAnLCAnLXRuJywgJzgnLCAnLW1hJywgJzIwMCcsICctbWV0YWxfYmluZGluZycsICctaW1hZScsICc8aW5maWxlLm1hZT4nLCAnLW9tYWUnLCAnPG91dGZpbGUubWFlPic=

> <r_lp_tautomer_probability>
1

> <r_epik_Ionization_Penalty>
1.02915e-07

> <r_epik_Ionization_Penalty_Charging>
0

> <r_epik_Ionization_Penalty_Neutral>
1.02915e-07

> <r_epik_State_Penalty>
-0

> <r_epik_Charging_Adjusted_Penalty>
0

> <i_epik_Tot_Q>
0

> <i_epik_Tot_abs_Q>
0

> <r_epik_Metal_State_Penalty>
-0

> <b_epik_Metal_Only>
0

> <s_lp_Force_Field>
OPLS_2005

> <r_lp_Energy>
15.6926

> <b_lp_Chiralities_Consistent>
1

> <s_lp_Variant>
AV-unprocessed.smi:629-1

> <Gold.Version>
5.8.1

> <Gold.Id.Protein>
6NUR|6NUR_protein|mol2

> <Gold.PLP.Fitness>
43.0925

> <Gold.PLP.PLP>
-36.1249

> <Gold.PLP.part.hbond>
-3.0000

> <Gold.PLP.part.metal>
0.0000

> <Gold.PLP.part.buried>
-3.8669

> <Gold.PLP.part.nonpolar>
-29.5208

> <Gold.PLP.part.repulsive>
0.1733

> <Gold.PLP.ligand.clash>
0.0000

> <Gold.PLP.ligand.torsion>
0.8719

> <Gold.PLP.Chemscore.Hbond>
2.8968

> <Gold.PLP.Chemscore.CHOScore>
0.0000

> <Gold.PLP.Chemscore.Metal>
0.0000

> <Gold.Chemscore.Hbonds>
donor molecule, donor type, donor heavy atom, donor atom, acceptor molecule, acceptor atom, score
      L1  H     2    20       P1  7957  1.00
      P1  H  7989  7998       L1     7  0.90
      P1  H  7997  8008       L1     8  0.98

> <Gold.PLP.Chemscore.Internal.Correction>
0.0209

> <Gold.Rescore>
     Score         DG    S(hbond)    S(metal)    S(lipo)     H(rot)  DE(clash)    DE(int)     intcor
     17.02     -17.80       2.45        0.00      76.73       1.89       0.04       0.74       ----

> <Gold.Chemscore.Fitness>
17.0224

> <Gold.Chemscore.DG>
-17.8038

> <Gold.Chemscore.ZeroCoef>
-5.4800

> <Gold.Chemscore.Hbond>
2.4488

> <Gold.Chemscore.Metal>
0.0000

> <Gold.Chemscore.Lipo>
76.7293

> <Gold.Chemscore.Internal_Hbond>
0.0000

> <Gold.Chemscore.DEClash>
0.0424

> <Gold.Chemscore.DEInternal>
0.7391

> <Gold.Chemscore.Rot>
1.8877

> <Gold.Chemscore.Internal.Correction>
   9.000000E+99

> <Gold.Chemscore.Hbonds>
donor molecule, donor type, donor heavy atom, donor atom, acceptor molecule, acceptor atom, score
      L1  H     2    20       P1  7957  0.94
      P1  H  7989  7998       L1     7  0.20
      P1  H  7997  8008       L1     8  0.87

> <Gold.Chemscore.Hbond.Weighted>
-8.1790

> <Gold.Chemscore.Metal.Weighted>
-0.0000

> <Gold.Chemscore.Lipo.Weighted>
-8.9773

> <Gold.Chemscore.Internal_Hbond.Weighted>
0.0000

> <Gold.Chemscore.DEClash.Weighted>
0.0424

> <Gold.Chemscore.DEInternal.Weighted>
0.7391

> <Gold.Chemscore.Rot.Weighted>
4.8325

> <Gold.Chemscore.Internal.Correction.Weighted>
   9.000000E+99

> <Gold.Protein.RotatedTorsions>
[ 6907 6896 6895 6894 ] final -147.99 input  -60.11 | X-H torsion
[ 7974 7965 7964 7962 ] final  -15.52 input  175.53 | X-H torsion
[ 8008 7997 7996 7995 ] final  -47.70 input   59.86 | X-H torsion
[ 10167 10162 10161 10158 ] final  -57.05 input  -65.29 | X-H torsion
[ 10718 10713 10712 10709 ] final   86.43 input   66.30 | X-H torsion
[ 10763 10752 10751 10750 ] final  -55.99 input  -60.55 | X-H torsion
[ 11005 11000 10999 10996 ] final -120.40 input  -57.11 | X-H torsion

> <Gold.Protein.ActiveResidues>
 VAL166  LYS551  ARG553  GLY616  TRP617  ASP618  TYR619  PRO620  LYS621  CYS622 
 ASP623  PHE694  ASN695  SER759  ASP760  ASP761  ALA762  ILE779  LEU786  VAL792 
 PHE793  MET794  SER795  GLU796  ALA797  LYS798  CYS799  TRP800  GLU811  SER814 

> <Gold.Protein.RotatedAtoms>
  151.1635  133.4830  159.2593 H   0  0  0  0  0  0  0  0  0  0  0  0  # atno 6907 bound_to 6896
  151.1430  135.0189  159.8644 H   0  0  0  0  0  0  0  0  0  0  0  0  # atno 6908 bound_to 6896
  152.5462  134.1527  159.8578 H   0  0  0  0  0  0  0  0  0  0  0  0  # atno 6909 bound_to 6896
  146.2028  140.3504  142.8417 H   0  0  0  0  0  0  0  0  0  0  0  0  # atno 7974 bound_to 7965
  154.4020  140.1340  156.4219 H   0  0  0  0  0  0  0  0  0  0  0  0  # atno 8008 bound_to 7997
  155.7635  140.3485  155.5190 H   0  0  0  0  0  0  0  0  0  0  0  0  # atno 8009 bound_to 7997
  155.8836  140.0991  157.1458 H   0  0  0  0  0  0  0  0  0  0  0  0  # atno 8010 bound_to 7997
  140.6281  143.2447  151.5312 H   0  0  0  0  0  0  0  0  0  0  0  0  # atno 10167 bound_to 10162
  157.6928  131.0215  150.2971 H   0  0  0  0  0  0  0  0  0  0  0  0  # atno 10718 bound_to 10713
  154.1995  135.6413  153.5083 H   0  0  0  0  0  0  0  0  0  0  0  0  # atno 10763 bound_to 10752
  153.0015  135.5448  154.6330 H   0  0  0  0  0  0  0  0  0  0  0  0  # atno 10764 bound_to 10752
  154.5740  135.2919  155.0772 H   0  0  0  0  0  0  0  0  0  0  0  0  # atno 10765 bound_to 10752
  141.0146  134.0214  157.3367 H   0  0  0  0  0  0  0  0  0  0  0  0  # atno 11005 bound_to 11000
  144.8723  140.7289  143.6039 LP  0  0  0  0  0  0  0  0  0  0  0  0  # atno 17320 bound_to 7965
  145.3423  139.1728  143.4479 LP  0  0  0  0  0  0  0  0  0  0  0  0  # atno 17321 bound_to 7965
  139.5498  144.2425  152.1510 LP  0  0  0  0  0  0  0  0  0  0  0  0  # atno 17342 bound_to 10162
  140.1661  144.4980  150.6605 LP  0  0  0  0  0  0  0  0  0  0  0  0  # atno 17343 bound_to 10162
  156.3493  130.3828  149.7343 LP  0  0  0  0  0  0  0  0  0  0  0  0  # atno 17370 bound_to 10713
  156.4826  130.8048  151.3061 LP  0  0  0  0  0  0  0  0  0  0  0  0  # atno 17371 bound_to 10713
  139.9109  135.0190  156.7689 LP  0  0  0  0  0  0  0  0  0  0  0  0  # atno 17394 bound_to 11000
  140.6676  133.9588  155.7839 LP  0  0  0  0  0  0  0  0  0  0  0  0  # atno 17395 bound_to 11000

$$$$
