AV-unprocessed.smi:637|AV-procd|sdf|3141|dock3
  -GOLD-   22720 0 63D 1   1.00000     0.00000
 Structure written by MMmdl.
 38 40  0  0  0  0  0  0  0  0  1 V2000
  142.5026  143.6410  155.8225 C   0  0  0  0  0  0  0  0  0  0  0  0
  143.8796  143.3483  155.3314 C   0  0  0  0  0  0  0  0  0  0  0  0
  144.6103  144.0577  154.4094 C   0  0  0  0  0  0  0  0  0  0  0  0
  145.9002  143.5018  154.1590 C   0  0  0  0  0  0  0  0  0  0  0  0
  146.1224  142.3686  154.9047 C   0  0  0  0  0  0  0  0  0  0  0  0
  147.3707  141.6293  154.8067 C   0  0  0  0  0  0  0  0  0  0  0  0
  147.4914  140.4584  153.9548 C   0  0  0  0  0  0  0  0  0  0  0  0
  148.6741  139.8097  153.8892 C   0  0  0  0  0  0  0  0  0  0  0  0
  149.8384  140.2521  154.6536 C   0  0  0  0  0  0  0  0  0  0  0  0
  150.9288  139.6826  154.6132 O   0  0  0  0  0  0  0  0  0  0  0  0
  149.6047  141.3573  155.4206 N   0  0  0  0  0  0  0  0  0  0  0  0
  150.6594  141.9461  156.2543 C   0  0  0  0  0  0  0  0  0  0  0  0
  151.2668  140.9286  157.2444 C   0  0  2  0  0  0  0  0  0  0  0  0
  150.2411  140.0671  157.6995 O   0  0  0  0  0  0  0  0  0  0  0  0
  151.9470  141.6421  158.4029 C   0  0  0  0  0  0  0  0  0  0  0  0
  151.8109  143.0397  158.5463 C   0  0  0  0  0  0  0  0  0  0  0  0
  152.4278  143.7066  159.6229 C   0  0  0  0  0  0  0  0  0  0  0  0
  153.1816  142.9794  160.5638 C   0  0  0  0  0  0  0  0  0  0  0  0
  153.3181  141.5845  160.4284 C   0  0  0  0  0  0  0  0  0  0  0  0
  154.0406  140.8837  161.3339 F   0  0  0  0  0  0  0  0  0  0  0  0
  152.7016  140.9175  159.3523 C   0  0  0  0  0  0  0  0  0  0  0  0
  148.3965  142.0272  155.4893 N   0  0  0  0  0  0  0  0  0  0  0  0
  144.7687  141.9674  155.9260 S   0  0  0  0  0  0  0  0  0  0  0  0
  142.0714  144.4949  155.2995 H   0  0  0  0  0  0  0  0  0  0  0  0
  142.5128  143.8686  156.8885 H   0  0  0  0  0  0  0  0  0  0  0  0
  141.8462  142.7849  155.6654 H   0  0  0  0  0  0  0  0  0  0  0  0
  144.2654  144.9499  153.9077 H   0  0  0  0  0  0  0  0  0  0  0  0
  146.5859  143.9529  153.4558 H   0  0  0  0  0  0  0  0  0  0  0  0
  146.6471  140.1091  153.3798 H   0  0  0  0  0  0  0  0  0  0  0  0
  148.7635  138.9398  153.2552 H   0  0  0  0  0  0  0  0  0  0  0  0
  151.4429  142.3233  155.5940 H   0  0  0  0  0  0  0  0  0  0  0  0
  150.2945  142.8261  156.7883 H   0  0  0  0  0  0  0  0  0  0  0  0
  152.0118  140.3113  156.7407 H   0  0  0  0  0  0  0  0  0  0  0  0
  149.4379  140.5617  157.7549 H   0  0  0  0  0  0  0  0  0  0  0  0
  151.2302  143.6056  157.8325 H   0  0  0  0  0  0  0  0  0  0  0  0
  152.3214  144.7764  159.7276 H   0  0  0  0  0  0  0  0  0  0  0  0
  153.6531  143.4907  161.3901 H   0  0  0  0  0  0  0  0  0  0  0  0
  152.8073  139.8464  159.2598 H   0  0  0  0  0  0  0  0  0  0  0  0
  1  2  1  0  0  0  0
  1 24  1  0  0  0  0
  1 25  1  0  0  0  0
  1 26  1  0  0  0  0
  2 23  1  0  0  0  0
  2  3  2  0  0  0  0
  3  4  1  0  0  0  0
  3 27  1  0  0  0  0
  4  5  2  0  0  0  0
  4 28  1  0  0  0  0
  5  6  1  0  0  0  0
  5 23  1  0  0  0  0
  6 22  2  0  0  0  0
  6  7  1  0  0  0  0
  7  8  2  0  0  0  0
  7 29  1  0  0  0  0
  8  9  1  0  0  0  0
  8 30  1  0  0  0  0
  9 10  2  0  0  0  0
  9 11  1  0  0  0  0
 11 12  1  0  0  0  0
 11 22  1  0  0  0  0
 12 13  1  0  0  0  0
 12 31  1  0  0  0  0
 12 32  1  0  0  0  0
 13 14  1  0  0  0  0
 13 15  1  0  0  0  0
 13 33  1  0  0  0  0
 14 34  1  0  0  0  0
 15 21  1  0  0  0  0
 15 16  2  0  0  0  0
 16 17  1  0  0  0  0
 16 35  1  0  0  0  0
 17 18  2  0  0  0  0
 17 36  1  0  0  0  0
 18 19  1  0  0  0  0
 18 37  1  0  0  0  0
 19 20  1  0  0  0  0
 19 21  2  0  0  0  0
 21 38  1  0  0  0  0
M  END
> <s_m_source_file>
AV-unprocessed.smi

> <i_m_source_file_index>
637

> <i_lp_mmshare_version>
43012

> <i_f3d_flags>
0

> <s_epik_input>
W0NIM11jMVtjSF1bY0hdYyhzMSktYzJbY0hdW2NIXWMoPU8pbihuMilbQ0gyXVtDQEhdKFtPSF0pYzNbY0hdW2NIXVtjSF1jKEYpW2NIXTM=

> <s_epik_cmdline>
J2VwaWtfcHl0aG9uJywgJy1waCcsICc3LjAnLCAnLXRuJywgJzgnLCAnLW1hJywgJzIwMCcsICctbWV0YWxfYmluZGluZycsICctaW1hZScsICc8aW5maWxlLm1hZT4nLCAnLW9tYWUnLCAnPG91dGZpbGUubWFlPic=

> <r_lp_tautomer_probability>
1

> <r_epik_Ionization_Penalty>
2.26963e-07

> <r_epik_Ionization_Penalty_Charging>
5.89185e-08

> <r_epik_Ionization_Penalty_Neutral>
1.68044e-07

> <r_epik_State_Penalty>
-0

> <r_epik_Charging_Adjusted_Penalty>
5.89185e-08

> <i_epik_Tot_Q>
0

> <i_epik_Tot_abs_Q>
0

> <r_epik_Metal_State_Penalty>
-0

> <b_epik_Metal_Only>
0

> <s_lp_Force_Field>
OPLS_2005

> <r_lp_Energy>
28.2523

> <b_lp_Chiralities_Consistent>
1

> <s_lp_Variant>
AV-unprocessed.smi:637-1

> <Gold.Version>
5.8.1

> <Gold.Id.Protein>
6NUR|6NUR_protein|mol2

> <Gold.PLP.Fitness>
45.6792

> <Gold.PLP.PLP>
-47.1713

> <Gold.PLP.part.hbond>
-1.0000

> <Gold.PLP.part.metal>
0.0000

> <Gold.PLP.part.buried>
-5.1759

> <Gold.PLP.part.nonpolar>
-44.4433

> <Gold.PLP.part.repulsive>
2.7561

> <Gold.PLP.ligand.clash>
0.0000

> <Gold.PLP.ligand.torsion>
1.8177

> <Gold.PLP.Chemscore.Hbond>
0.7000

> <Gold.PLP.Chemscore.CHOScore>
0.0000

> <Gold.PLP.Chemscore.Metal>
0.0000

> <Gold.Chemscore.Hbonds>
donor molecule, donor type, donor heavy atom, donor atom, acceptor molecule, acceptor atom, score
      P1  H  7989  7998       L1    10  0.70

> <Gold.PLP.Chemscore.Internal.Correction>
0.0433

> <Gold.Rescore>
     Score         DG    S(hbond)    S(metal)    S(lipo)     H(rot)  DE(clash)    DE(int)     intcor
     14.11     -17.04       0.82        0.00     115.28       1.82       1.43       1.50       ----

> <Gold.Chemscore.Fitness>
14.1130

> <Gold.Chemscore.DG>
-17.0440

> <Gold.Chemscore.ZeroCoef>
-5.4800

> <Gold.Chemscore.Hbond>
0.8207

> <Gold.Chemscore.Metal>
0.0000

> <Gold.Chemscore.Lipo>
115.2801

> <Gold.Chemscore.Internal_Hbond>
0.0000

> <Gold.Chemscore.DEClash>
1.4266

> <Gold.Chemscore.DEInternal>
1.5043

> <Gold.Chemscore.Rot>
1.8222

> <Gold.Chemscore.Internal.Correction>
   9.000000E+99

> <Gold.Chemscore.Hbonds>
donor molecule, donor type, donor heavy atom, donor atom, acceptor molecule, acceptor atom, score
      P1  H  7989  7998       L1    10  0.07

> <Gold.Chemscore.Hbond.Weighted>
-2.7411

> <Gold.Chemscore.Metal.Weighted>
-0.0000

> <Gold.Chemscore.Lipo.Weighted>
-13.4878

> <Gold.Chemscore.Internal_Hbond.Weighted>
0.0000

> <Gold.Chemscore.DEClash.Weighted>
1.4266

> <Gold.Chemscore.DEInternal.Weighted>
1.5043

> <Gold.Chemscore.Rot.Weighted>
4.6649

> <Gold.Chemscore.Internal.Correction.Weighted>
   9.000000E+99

> <Gold.Protein.RotatedTorsions>
[ 6907 6896 6895 6894 ] final  -80.36 input  -60.11 | X-H torsion
[ 7974 7965 7964 7962 ] final   84.14 input  175.53 | X-H torsion
[ 8008 7997 7996 7995 ] final  -97.97 input   59.86 | X-H torsion
[ 10167 10162 10161 10158 ] final -146.51 input  -65.29 | X-H torsion
[ 10718 10713 10712 10709 ] final   44.29 input   66.30 | X-H torsion
[ 10763 10752 10751 10750 ] final   25.62 input  -60.55 | X-H torsion
[ 11005 11000 10999 10996 ] final  166.81 input  -57.11 | X-H torsion

> <Gold.Protein.ActiveResidues>
 VAL166  LYS551  ARG553  GLY616  TRP617  ASP618  TYR619  PRO620  LYS621  CYS622 
 ASP623  PHE694  ASN695  SER759  ASP760  ASP761  ALA762  ILE779  LEU786  VAL792 
 PHE793  MET794  SER795  GLU796  ALA797  LYS798  CYS799  TRP800  GLU811  SER814 

> <Gold.Protein.RotatedAtoms>
  150.6931  134.3981  159.5106 H   0  0  0  0  0  0  0  0  0  0  0  0  # atno 6907 bound_to 6896
  152.1759  134.8792  160.0539 H   0  0  0  0  0  0  0  0  0  0  0  0  # atno 6908 bound_to 6896
  151.9801  133.3720  159.4141 H   0  0  0  0  0  0  0  0  0  0  0  0  # atno 6909 bound_to 6896
  145.6027  139.2355  143.2237 H   0  0  0  0  0  0  0  0  0  0  0  0  # atno 7974 bound_to 7965
  154.7949  140.0459  157.1229 H   0  0  0  0  0  0  0  0  0  0  0  0  # atno 8008 bound_to 7997
  154.9547  140.3069  155.5039 H   0  0  0  0  0  0  0  0  0  0  0  0  # atno 8009 bound_to 7997
  156.2954  140.2281  156.4627 H   0  0  0  0  0  0  0  0  0  0  0  0  # atno 8010 bound_to 7997
  139.7707  143.8242  152.2624 H   0  0  0  0  0  0  0  0  0  0  0  0  # atno 10167 bound_to 10162
  157.4252  130.7992  149.7552 H   0  0  0  0  0  0  0  0  0  0  0  0  # atno 10718 bound_to 10713
  153.0679  135.6579  154.0313 H   0  0  0  0  0  0  0  0  0  0  0  0  # atno 10763 bound_to 10752
  153.9965  135.2941  155.3408 H   0  0  0  0  0  0  0  0  0  0  0  0  # atno 10764 bound_to 10752
  154.7043  135.5231  153.8642 H   0  0  0  0  0  0  0  0  0  0  0  0  # atno 10765 bound_to 10752
  140.2703  134.7832  157.3669 H   0  0  0  0  0  0  0  0  0  0  0  0  # atno 11005 bound_to 11000
  146.1564  140.6851  142.9298 LP  0  0  0  0  0  0  0  0  0  0  0  0  # atno 17320 bound_to 7965
  144.7303  140.4651  143.6943 LP  0  0  0  0  0  0  0  0  0  0  0  0  # atno 17321 bound_to 7965
  139.8276  144.7268  150.9492 LP  0  0  0  0  0  0  0  0  0  0  0  0  # atno 17342 bound_to 10162
  140.7813  143.4100  151.1008 LP  0  0  0  0  0  0  0  0  0  0  0  0  # atno 17343 bound_to 10162
  155.9894  130.3952  150.3074 LP  0  0  0  0  0  0  0  0  0  0  0  0  # atno 17370 bound_to 10713
  157.1226  131.0250  151.3003 LP  0  0  0  0  0  0  0  0  0  0  0  0  # atno 17371 bound_to 10713
  140.1380  134.5009  155.8054 LP  0  0  0  0  0  0  0  0  0  0  0  0  # atno 17394 bound_to 11000
  141.2178  133.6814  156.7158 LP  0  0  0  0  0  0  0  0  0  0  0  0  # atno 17395 bound_to 11000

$$$$
