AV-unprocessed.smi:2348|AV-procd|sdf|9370|dock2
  -GOLD-   2272012593D 1   1.00000     0.00000
 Structure written by MMmdl.
 28 29  0  0  0  0  0  0  0  0  1 V2000
  151.2950  137.5152  154.9079 C   0  0  0  0  0  0  0  0  0  0  0  0
  152.2177  138.5649  155.1853 O   0  0  0  0  0  0  0  0  0  0  0  0
  151.7544  139.7188  155.7222 C   0  0  0  0  0  0  0  0  0  0  0  0
  150.7633  140.2825  155.0211 N   0  0  0  0  0  0  0  0  0  0  0  0
  150.3211  141.4182  155.5702 C   0  0  0  0  0  0  0  0  0  0  0  0
  149.3020  142.0560  154.9058 N   0  0  0  0  0  0  0  0  0  0  0  0
  150.7545  142.0056  156.6904 N   0  0  0  0  0  0  0  0  0  0  0  0
  151.7465  141.3269  157.2786 C   0  0  0  0  0  0  0  0  0  0  0  0
  152.2408  141.8797  158.4459 N   0  0  0  0  0  0  0  0  0  0  0  0
  151.7591  143.2100  158.7953 C   0  0  0  0  0  0  0  0  0  0  0  0
  152.6196  143.8108  159.9201 C   0  0  0  0  0  0  0  0  0  0  0  0
  152.6285  142.9281  161.0380 O   0  0  0  0  0  0  0  0  0  0  0  0
  153.1800  141.6573  160.7071 C   0  0  0  0  0  0  0  0  0  0  0  0
  152.3333  140.9996  159.6039 C   0  0  0  0  0  0  0  0  0  0  0  0
  152.3014  140.1801  156.8604 N   0  0  0  0  0  0  0  0  0  0  0  0
  151.8312  136.6678  154.4809 H   0  0  0  0  0  0  0  0  0  0  0  0
  150.5403  137.8271  154.1844 H   0  0  0  0  0  0  0  0  0  0  0  0
  150.7989  137.1689  155.8159 H   0  0  0  0  0  0  0  0  0  0  0  0
  148.9263  141.6677  154.0529 H   0  0  0  0  0  0  0  0  0  0  0  0
  148.9137  142.9143  155.2692 H   0  0  0  0  0  0  0  0  0  0  0  0
  151.7873  143.8559  157.9170 H   0  0  0  0  0  0  0  0  0  0  0  0
  150.7180  143.1449  159.1145 H   0  0  0  0  0  0  0  0  0  0  0  0
  153.6395  143.9896  159.5756 H   0  0  0  0  0  0  0  0  0  0  0  0
  152.2145  144.7740  160.2306 H   0  0  0  0  0  0  0  0  0  0  0  0
  154.2166  141.7708  160.3856 H   0  0  0  0  0  0  0  0  0  0  0  0
  153.1895  141.0304  161.5988 H   0  0  0  0  0  0  0  0  0  0  0  0
  151.3309  140.7869  159.9780 H   0  0  0  0  0  0  0  0  0  0  0  0
  152.7765  140.0474  159.3097 H   0  0  0  0  0  0  0  0  0  0  0  0
  1  2  1  0  0  0  0
  1 16  1  0  0  0  0
  1 17  1  0  0  0  0
  1 18  1  0  0  0  0
  2  3  1  0  0  0  0
  3 15  1  0  0  0  0
  3  4  2  0  0  0  0
  4  5  1  0  0  0  0
  5  6  1  0  0  0  0
  5  7  2  0  0  0  0
  6 19  1  0  0  0  0
  6 20  1  0  0  0  0
  7  8  1  0  0  0  0
  8  9  1  0  0  0  0
  8 15  2  0  0  0  0
  9 14  1  0  0  0  0
  9 10  1  0  0  0  0
 10 11  1  0  0  0  0
 10 21  1  0  0  0  0
 10 22  1  0  0  0  0
 11 12  1  0  0  0  0
 11 23  1  0  0  0  0
 11 24  1  0  0  0  0
 12 13  1  0  0  0  0
 13 14  1  0  0  0  0
 13 25  1  0  0  0  0
 13 26  1  0  0  0  0
 14 27  1  0  0  0  0
 14 28  1  0  0  0  0
M  END
> <s_m_source_file>
AV-unprocessed.smi

> <i_m_source_file_index>
2348

> <i_lp_mmshare_version>
43012

> <i_f3d_flags>
0

> <s_epik_input>
W0NIM11PYzFuYyhbTkgyXSluYyhuMSlOMltDSDJdW0NIMl1PW0NIMl1bQ0gyXTI=

> <s_epik_cmdline>
J2VwaWtfcHl0aG9uJywgJy1waCcsICc3LjAnLCAnLXRuJywgJzgnLCAnLW1hJywgJzIwMCcsICctbWV0YWxfYmluZGluZycsICctaW1hZScsICc8aW5maWxlLm1hZT4nLCAnLW9tYWUnLCAnPG91dGZpbGUubWFlPic=

> <r_lp_tautomer_probability>
1

> <r_epik_Ionization_Penalty>
1.97915e-06

> <r_epik_Ionization_Penalty_Charging>
0

> <r_epik_Ionization_Penalty_Neutral>
1.97915e-06

> <r_epik_State_Penalty>
-0

> <r_epik_Charging_Adjusted_Penalty>
0

> <i_epik_Tot_Q>
0

> <i_epik_Tot_abs_Q>
0

> <r_epik_Metal_State_Penalty>
-0

> <b_epik_Metal_Only>
0

> <s_lp_Force_Field>
OPLS_2005

> <r_lp_Energy>
10.0664

> <b_lp_Chiralities_Consistent>
1

> <s_lp_Variant>
AV-unprocessed.smi:2348-1

> <Gold.Version>
5.8.1

> <Gold.Id.Protein>
6NUR|6NUR_protein|mol2

> <Gold.PLP.Fitness>
37.1056

> <Gold.PLP.PLP>
-28.1703

> <Gold.PLP.part.hbond>
-3.0000

> <Gold.PLP.part.metal>
0.0000

> <Gold.PLP.part.buried>
-5.6857

> <Gold.PLP.part.nonpolar>
-19.4560

> <Gold.PLP.part.repulsive>
0.4229

> <Gold.PLP.ligand.clash>
0.0000

> <Gold.PLP.ligand.torsion>
0.1743

> <Gold.PLP.Chemscore.Hbond>
3.0000

> <Gold.PLP.Chemscore.CHOScore>
0.0000

> <Gold.PLP.Chemscore.Metal>
0.0000

> <Gold.Chemscore.Hbonds>
donor molecule, donor type, donor heavy atom, donor atom, acceptor molecule, acceptor atom, score
      L1  H     6    20       P1  8028  1.00
      P1  H  7989  7998       L1     4  1.00
      P1  H  7997  8009       L1    15  0.91

> <Gold.PLP.Chemscore.Internal.Correction>
0.2839

> <Gold.Rescore>
     Score         DG    S(hbond)    S(metal)    S(lipo)     H(rot)  DE(clash)    DE(int)     intcor
     13.43     -13.92       1.83        0.00      50.21       1.38       0.31       0.18       ----

> <Gold.Chemscore.Fitness>
13.4327

> <Gold.Chemscore.DG>
-13.9212

> <Gold.Chemscore.ZeroCoef>
-5.4800

> <Gold.Chemscore.Hbond>
1.8290

> <Gold.Chemscore.Metal>
0.0000

> <Gold.Chemscore.Lipo>
50.2127

> <Gold.Chemscore.Internal_Hbond>
0.0000

> <Gold.Chemscore.DEClash>
0.3059

> <Gold.Chemscore.DEInternal>
0.1826

> <Gold.Chemscore.Rot>
1.3839

> <Gold.Chemscore.Internal.Correction>
   9.000000E+99

> <Gold.Chemscore.Hbonds>
donor molecule, donor type, donor heavy atom, donor atom, acceptor molecule, acceptor atom, score
      L1  H     6    20       P1  8028  0.99
      P1  H  7989  7998       L1     4  0.16
      P1  H  7997  8009       L1    15  0.41

> <Gold.Chemscore.Hbond.Weighted>
-6.1090

> <Gold.Chemscore.Metal.Weighted>
-0.0000

> <Gold.Chemscore.Lipo.Weighted>
-5.8749

> <Gold.Chemscore.Internal_Hbond.Weighted>
0.0000

> <Gold.Chemscore.DEClash.Weighted>
0.3059

> <Gold.Chemscore.DEInternal.Weighted>
0.1826

> <Gold.Chemscore.Rot.Weighted>
3.5427

> <Gold.Chemscore.Internal.Correction.Weighted>
   9.000000E+99

> <Gold.Protein.RotatedTorsions>
[ 6907 6896 6895 6894 ] final -148.15 input  -60.11 | X-H torsion
[ 7974 7965 7964 7962 ] final  123.84 input  175.53 | X-H torsion
[ 8008 7997 7996 7995 ] final -173.07 input   59.86 | X-H torsion
[ 10167 10162 10161 10158 ] final  -77.24 input  -65.29 | X-H torsion
[ 10718 10713 10712 10709 ] final -147.15 input   66.30 | X-H torsion
[ 10763 10752 10751 10750 ] final  -39.40 input  -60.55 | X-H torsion
[ 11005 11000 10999 10996 ] final -144.02 input  -57.11 | X-H torsion

> <Gold.Protein.ActiveResidues>
 VAL166  LYS551  ARG553  GLY616  TRP617  ASP618  TYR619  PRO620  LYS621  CYS622 
 ASP623  PHE694  ASN695  SER759  ASP760  ASP761  ALA762  ILE779  LEU786  VAL792 
 PHE793  MET794  SER795  GLU796  ALA797  LYS798  CYS799  TRP800  GLU811  SER814 

> <Gold.Protein.RotatedAtoms>
  151.1657  133.4816  159.2593 H   0  0  0  0  0  0  0  0  0  0  0  0  # atno 6907 bound_to 6896
  151.1407  135.0178  159.8634 H   0  0  0  0  0  0  0  0  0  0  0  0  # atno 6908 bound_to 6896
  152.5462  134.1551  159.8588 H   0  0  0  0  0  0  0  0  0  0  0  0  # atno 6909 bound_to 6896
  145.0913  139.3584  143.4859 H   0  0  0  0  0  0  0  0  0  0  0  0  # atno 7974 bound_to 7965
  155.9527  140.1129  157.0963 H   0  0  0  0  0  0  0  0  0  0  0  0  # atno 8008 bound_to 7997
  154.4113  140.1197  156.5140 H   0  0  0  0  0  0  0  0  0  0  0  0  # atno 8009 bound_to 7997
  155.6822  140.3473  155.4862 H   0  0  0  0  0  0  0  0  0  0  0  0  # atno 8010 bound_to 7997
  140.4787  143.2408  151.8092 H   0  0  0  0  0  0  0  0  0  0  0  0  # atno 10167 bound_to 10162
  156.4039  130.7948  151.2160 H   0  0  0  0  0  0  0  0  0  0  0  0  # atno 10718 bound_to 10713
  153.9288  135.6774  153.4746 H   0  0  0  0  0  0  0  0  0  0  0  0  # atno 10763 bound_to 10752
  153.0990  135.4837  154.8830 H   0  0  0  0  0  0  0  0  0  0  0  0  # atno 10764 bound_to 10752
  154.7439  135.3167  154.8636 H   0  0  0  0  0  0  0  0  0  0  0  0  # atno 10765 bound_to 10752
  140.8066  134.2793  157.4957 H   0  0  0  0  0  0  0  0  0  0  0  0  # atno 11005 bound_to 11000
  146.3531  140.0749  142.8621 LP  0  0  0  0  0  0  0  0  0  0  0  0  # atno 17320 bound_to 7965
  145.1062  140.9377  143.4683 LP  0  0  0  0  0  0  0  0  0  0  0  0  # atno 17321 bound_to 7965
  139.4830  144.4800  151.9318 LP  0  0  0  0  0  0  0  0  0  0  0  0  # atno 17342 bound_to 10162
  140.3886  144.2645  150.5902 LP  0  0  0  0  0  0  0  0  0  0  0  0  # atno 17343 bound_to 10162
  157.7505  131.0278  150.4022 LP  0  0  0  0  0  0  0  0  0  0  0  0  # atno 17370 bound_to 10713
  156.4307  130.3971  149.6762 LP  0  0  0  0  0  0  0  0  0  0  0  0  # atno 17371 bound_to 10713
  139.8717  134.9460  156.3925 LP  0  0  0  0  0  0  0  0  0  0  0  0  # atno 17394 bound_to 11000
  140.9240  133.7625  155.9942 LP  0  0  0  0  0  0  0  0  0  0  0  0  # atno 17395 bound_to 11000

$$$$
