AV-unprocessed.smi:813|AV-procd|sdf|3820|dock6
  -GOLD-   22720 1263D 1   1.00000     0.00000
 Structure written by MMmdl.
 35 36  0  0  0  0  0  0  0  0  2 V2000
  148.4295  132.9186  154.2149 C   0  0  0  0  0  0  0  0  0  0  0  0
  148.0486  134.2612  154.8605 C   0  0  1  0  0  0  0  0  0  0  0  0
  149.0130  135.2677  154.4179 N   0  0  0  0  0  0  0  0  0  0  0  0
  149.9817  135.8143  155.1686 C   0  0  0  0  0  0  0  0  0  0  0  0
  150.1178  135.4679  156.3446 O   0  0  0  0  0  0  0  0  0  0  0  0
  150.7308  136.7286  154.5113 N   0  5  0  0  0  0  0  0  0  0  0  0
  150.8084  137.9883  154.9710 C   0  0  0  0  0  0  0  0  0  0  0  0
  150.2941  138.3529  156.1566 N   0  0  0  0  0  0  0  0  0  0  0  0
  150.4854  139.6977  156.4445 N   0  0  0  0  0  0  0  0  0  0  0  0
  151.1514  140.3132  155.4677 C   0  0  0  0  0  0  0  0  0  0  0  0
  151.6057  139.3071  154.1086 S   0  0  0  0  0  0  0  0  0  0  0  0
  146.6317  134.6370  154.3986 C   0  0  0  0  0  0  0  0  0  0  0  0
  145.6816  134.5892  155.1817 O   0  0  0  0  0  0  0  0  0  0  0  0
  146.5103  135.0188  153.1184 N   0  0  0  0  0  0  0  0  0  0  0  0
  145.2589  135.3968  152.4683 C   0  0  0  0  0  0  0  0  0  0  0  0
  144.1440  134.3713  152.7560 C   0  0  0  0  0  0  0  0  0  0  0  0
  143.9416  133.5967  151.4541 C   0  0  0  0  0  0  0  0  0  0  0  0
  144.2648  134.6132  150.3639 C   0  0  0  0  0  0  0  0  0  0  0  0
  145.4256  135.4289  150.9365 C   0  0  0  0  0  0  0  0  0  0  0  0
  147.7409  132.1269  154.5124 H   0  0  0  0  0  0  0  0  0  0  0  0
  149.4296  132.6109  154.5223 H   0  0  0  0  0  0  0  0  0  0  0  0
  148.4238  132.9740  153.1252 H   0  0  0  0  0  0  0  0  0  0  0  0
  148.0834  134.1643  155.9476 H   0  0  0  0  0  0  0  0  0  0  0  0
  148.9323  135.5861  153.4635 H   0  0  0  0  0  0  0  0  0  0  0  0
  151.3787  141.3656  155.5491 H   0  0  0  0  0  0  0  0  0  0  0  0
  147.3428  135.0251  152.5471 H   0  0  0  0  0  0  0  0  0  0  0  0
  144.9477  136.3820  152.8211 H   0  0  0  0  0  0  0  0  0  0  0  0
  144.3641  133.7095  153.5951 H   0  0  0  0  0  0  0  0  0  0  0  0
  143.2246  134.9037  153.0032 H   0  0  0  0  0  0  0  0  0  0  0  0
  144.6485  132.7673  151.4059 H   0  0  0  0  0  0  0  0  0  0  0  0
  142.9359  133.1855  151.3624 H   0  0  0  0  0  0  0  0  0  0  0  0
  144.5108  134.1440  149.4110 H   0  0  0  0  0  0  0  0  0  0  0  0
  143.4032  135.2626  150.2030 H   0  0  0  0  0  0  0  0  0  0  0  0
  145.4363  136.4470  150.5461 H   0  0  0  0  0  0  0  0  0  0  0  0
  146.3670  134.9626  150.6410 H   0  0  0  0  0  0  0  0  0  0  0  0
  1  2  1  0  0  0  0
  1 20  1  0  0  0  0
  1 21  1  0  0  0  0
  1 22  1  0  0  0  0
  2  3  1  0  0  0  0
  2 12  1  0  0  0  0
  2 23  1  0  0  0  0
  3  4  1  0  0  0  0
  3 24  1  0  0  0  0
  4  5  2  0  0  0  0
  4  6  1  0  0  0  0
  6  7  1  0  0  0  0
  7 11  1  0  0  0  0
  7  8  2  0  0  0  0
  8  9  1  0  0  0  0
  9 10  2  0  0  0  0
 10 11  1  0  0  0  0
 10 25  1  0  0  0  0
 12 13  2  0  0  0  0
 12 14  1  0  0  0  0
 14 15  1  0  0  0  0
 14 26  1  0  0  0  0
 15 19  1  0  0  0  0
 15 16  1  0  0  0  0
 15 27  1  0  0  0  0
 16 17  1  0  0  0  0
 16 28  1  0  0  0  0
 16 29  1  0  0  0  0
 17 18  1  0  0  0  0
 17 30  1  0  0  0  0
 17 31  1  0  0  0  0
 18 19  1  0  0  0  0
 18 32  1  0  0  0  0
 18 33  1  0  0  0  0
 19 34  1  0  0  0  0
 19 35  1  0  0  0  0
M  CHG  1   6  -1
M  END
> <s_m_source_file>
AV-unprocessed.smi

> <i_m_source_file_index>
813

> <i_lp_mmshare_version>
43012

> <i_f3d_flags>
0

> <s_epik_input>
W0NIMl0xW0NIMl1bQ0gyXVtDSDJdW0NIXTFbTkhdQyg9TylbQ0BIXShbQ0gzXSlbTkhdQyg9TylbTkhdYzJubltjSF1zMg==

> <s_epik_cmdline>
J2VwaWtfcHl0aG9uJywgJy1waCcsICc3LjAnLCAnLXRuJywgJzgnLCAnLW1hJywgJzIwMCcsICctbWV0YWxfYmluZGluZycsICctaW1hZScsICc8aW5maWxlLm1hZT4nLCAnLW9tYWUnLCAnPG91dGZpbGUubWFlPic=

> <r_lp_tautomer_probability>
1

> <r_epik_Ionization_Penalty>
3.13682

> <r_epik_Ionization_Penalty_Charging>
3.09647

> <r_epik_Ionization_Penalty_Neutral>
0.0403479

> <r_epik_State_Penalty>
3.09328

> <r_epik_Charging_Adjusted_Penalty>
6.18976

> <i_epik_Tot_Q>
-1

> <i_epik_Tot_abs_Q>
1

> <r_epik_Metal_State_Penalty>
0.461392

> <b_epik_Metal_Only>
1

> <s_lp_Force_Field>
OPLS_2005

> <r_lp_Energy>
15.2454

> <b_lp_Chiralities_Consistent>
1

> <s_lp_Variant>
AV-unprocessed.smi:813-4

> <Gold.Version>
5.8.1

> <Gold.Id.Protein>
6NUR|6NUR_protein|mol2

> <Gold.PLP.Fitness>
38.1233

> <Gold.PLP.PLP>
-28.5802

> <Gold.PLP.part.hbond>
-3.0000

> <Gold.PLP.part.metal>
0.0000

> <Gold.PLP.part.buried>
-3.8196

> <Gold.PLP.part.nonpolar>
-22.9954

> <Gold.PLP.part.repulsive>
0.7287

> <Gold.PLP.ligand.clash>
0.0000

> <Gold.PLP.ligand.torsion>
1.1413

> <Gold.PLP.Chemscore.Hbond>
3.9280

> <Gold.PLP.Chemscore.CHOScore>
0.0000

> <Gold.PLP.Chemscore.Metal>
0.0000

> <Gold.Chemscore.Hbonds>
donor molecule, donor type, donor heavy atom, donor atom, acceptor molecule, acceptor atom, score
      L1  H     3    24       P1  7948  1.00
      L1  H    14    26       P1  7948  0.76

> <Gold.PLP.Chemscore.Internal.Correction>
0.0416

> <Gold.Rescore>
     Score         DG    S(hbond)    S(metal)    S(lipo)     H(rot)  DE(clash)    DE(int)     intcor
     11.99     -14.73       2.30        0.00      50.92       1.72       0.01       2.73       ----

> <Gold.Chemscore.Fitness>
11.9896

> <Gold.Chemscore.DG>
-14.7319

> <Gold.Chemscore.ZeroCoef>
-5.4800

> <Gold.Chemscore.Hbond>
2.3043

> <Gold.Chemscore.Metal>
0.0000

> <Gold.Chemscore.Lipo>
50.9161

> <Gold.Chemscore.Internal_Hbond>
0.0000

> <Gold.Chemscore.DEClash>
0.0086

> <Gold.Chemscore.DEInternal>
2.7337

> <Gold.Chemscore.Rot>
1.7194

> <Gold.Chemscore.Internal.Correction>
   9.000000E+99

> <Gold.Chemscore.Hbonds>
donor molecule, donor type, donor heavy atom, donor atom, acceptor molecule, acceptor atom, score
      L1  H     3    24       P1  7948  0.82
      L1  H    14    26       P1  7948  0.73
      P1  H 10752 10763       L1     6  0.01

> <Gold.Chemscore.Hbond.Weighted>
-7.6964

> <Gold.Chemscore.Metal.Weighted>
-0.0000

> <Gold.Chemscore.Lipo.Weighted>
-5.9572

> <Gold.Chemscore.Internal_Hbond.Weighted>
0.0000

> <Gold.Chemscore.DEClash.Weighted>
0.0086

> <Gold.Chemscore.DEInternal.Weighted>
2.7337

> <Gold.Chemscore.Rot.Weighted>
4.4016

> <Gold.Chemscore.Internal.Correction.Weighted>
   9.000000E+99

> <Gold.Protein.RotatedTorsions>
[ 6907 6896 6895 6894 ] final   81.81 input  -60.11 | X-H torsion
[ 7974 7965 7964 7962 ] final   53.34 input  175.53 | X-H torsion
[ 8008 7997 7996 7995 ] final -174.78 input   59.86 | X-H torsion
[ 10167 10162 10161 10158 ] final -121.76 input  -65.29 | X-H torsion
[ 10718 10713 10712 10709 ] final -108.28 input   66.30 | X-H torsion
[ 10763 10752 10751 10750 ] final   39.63 input  -60.55 | X-H torsion
[ 11005 11000 10999 10996 ] final   53.63 input  -57.11 | X-H torsion

> <Gold.Protein.ActiveResidues>
 VAL166  LYS551  ARG553  GLY616  TRP617  ASP618  TYR619  PRO620  LYS621  CYS622 
 ASP623  PHE694  ASN695  SER759  ASP760  ASP761  ALA762  ILE779  LEU786  VAL792 
 PHE793  MET794  SER795  GLU796  ALA797  LYS798  CYS799  TRP800  GLU811  SER814 

> <Gold.Protein.RotatedAtoms>
  152.5280  134.3147  159.9126 H   0  0  0  0  0  0  0  0  0  0  0  0  # atno 6907 bound_to 6896
  151.3096  133.4080  159.2653 H   0  0  0  0  0  0  0  0  0  0  0  0  # atno 6908 bound_to 6896
  151.0049  134.9368  159.8032 H   0  0  0  0  0  0  0  0  0  0  0  0  # atno 6909 bound_to 6896
  145.9722  139.4160  143.0183 H   0  0  0  0  0  0  0  0  0  0  0  0  # atno 7974 bound_to 7965
  155.9743  140.1169  157.0784 H   0  0  0  0  0  0  0  0  0  0  0  0  # atno 8008 bound_to 7997
  154.4165  140.1157  156.5417 H   0  0  0  0  0  0  0  0  0  0  0  0  # atno 8009 bound_to 7997
  155.6555  140.3473  155.4766 H   0  0  0  0  0  0  0  0  0  0  0  0  # atno 8010 bound_to 7997
  140.0215  143.5339  152.2218 H   0  0  0  0  0  0  0  0  0  0  0  0  # atno 10167 bound_to 10162
  156.0478  130.5705  150.7940 H   0  0  0  0  0  0  0  0  0  0  0  0  # atno 10718 bound_to 10713
  152.9961  135.6215  154.2496 H   0  0  0  0  0  0  0  0  0  0  0  0  # atno 10763 bound_to 10752
  154.2235  135.2795  155.2918 H   0  0  0  0  0  0  0  0  0  0  0  0  # atno 10764 bound_to 10752
  154.5509  135.5733  153.6979 H   0  0  0  0  0  0  0  0  0  0  0  0  # atno 10765 bound_to 10752
  140.0752  134.5415  155.9004 H   0  0  0  0  0  0  0  0  0  0  0  0  # atno 11005 bound_to 11000
  145.7890  140.9823  143.1059 LP  0  0  0  0  0  0  0  0  0  0  0  0  # atno 17320 bound_to 7965
  144.6840  139.9658  143.7481 LP  0  0  0  0  0  0  0  0  0  0  0  0  # atno 17321 bound_to 7965
  139.6136  144.7614  151.2895 LP  0  0  0  0  0  0  0  0  0  0  0  0  # atno 17342 bound_to 10162
  140.7340  143.6778  150.8027 LP  0  0  0  0  0  0  0  0  0  0  0  0  # atno 17343 bound_to 10162
  157.5372  131.0939  150.9876 LP  0  0  0  0  0  0  0  0  0  0  0  0  # atno 17370 bound_to 10713
  157.0168  130.5658  149.5327 LP  0  0  0  0  0  0  0  0  0  0  0  0  # atno 17371 bound_to 10713
  141.2026  133.6626  156.6019 LP  0  0  0  0  0  0  0  0  0  0  0  0  # atno 17394 bound_to 11000
  140.3569  134.7721  157.4506 LP  0  0  0  0  0  0  0  0  0  0  0  0  # atno 17395 bound_to 11000

$$$$
