AV-unprocessed.smi:1948|AV-procd|sdf|7873|dock4
  -GOLD-   2272010 23D 1   1.00000     0.00000
 Structure written by MMmdl.
 30 31  0  0  0  0  0  0  0  0  1 V2000
  147.3441  132.8036  154.4940 O   0  0  0  0  0  0  0  0  0  0  0  0
  147.7740  133.6619  153.7228 C   0  0  0  0  0  0  0  0  0  0  0  0
  148.7719  134.5217  153.9936 N   0  0  0  0  0  0  0  0  0  0  0  0
  149.5370  134.6355  155.1849 C   0  0  0  0  0  0  0  0  0  0  0  0
  149.4514  133.7733  156.2103 N   0  0  0  0  0  0  0  0  0  0  0  0
  150.3070  134.1151  157.2498 N   0  0  0  0  0  0  0  0  0  0  0  0
  151.0032  135.2200  156.9679 C   0  0  0  0  0  0  0  0  0  0  0  0
  150.6805  135.9522  155.4055 S   0  0  0  0  0  0  0  0  0  0  0  0
  147.2902  133.8543  152.4868 N   0  0  0  0  0  0  0  0  0  0  0  0
  146.2083  133.0871  151.8763 C   0  0  2  0  0  0  0  0  0  0  0  0
  146.4987  132.8869  150.3766 C   0  0  0  0  0  0  0  0  0  0  0  0
  145.3568  132.1310  149.6780 C   0  0  0  0  0  0  0  0  0  0  0  0
  144.0111  132.8468  149.8852 C   0  0  1  0  0  0  0  0  0  0  0  0
  142.9775  132.0907  149.2907 O   0  0  0  0  0  0  0  0  0  0  0  0
  143.7121  133.0407  151.3816 C   0  0  0  0  0  0  0  0  0  0  0  0
  144.8533  133.7963  152.0818 C   0  0  0  0  0  0  0  0  0  0  0  0
  149.0148  135.1710  153.2600 H   0  0  0  0  0  0  0  0  0  0  0  0
  151.7110  135.6068  157.6858 H   0  0  0  0  0  0  0  0  0  0  0  0
  147.7021  134.5834  151.9231 H   0  0  0  0  0  0  0  0  0  0  0  0
  146.1651  132.1019  152.3452 H   0  0  0  0  0  0  0  0  0  0  0  0
  146.6376  133.8555  149.8937 H   0  0  0  0  0  0  0  0  0  0  0  0
  147.4333  132.3398  150.2462 H   0  0  0  0  0  0  0  0  0  0  0  0
  145.5727  132.0385  148.6129 H   0  0  0  0  0  0  0  0  0  0  0  0
  145.3019  131.1152  150.0726 H   0  0  0  0  0  0  0  0  0  0  0  0
  144.0399  133.8198  149.3931 H   0  0  0  0  0  0  0  0  0  0  0  0
  142.2378  132.6592  149.1396 H   0  0  0  0  0  0  0  0  0  0  0  0
  142.7759  133.5851  151.5099 H   0  0  0  0  0  0  0  0  0  0  0  0
  143.5750  132.0708  151.8621 H   0  0  0  0  0  0  0  0  0  0  0  0
  144.6310  133.8853  153.1459 H   0  0  0  0  0  0  0  0  0  0  0  0
  144.9055  134.8138  151.6914 H   0  0  0  0  0  0  0  0  0  0  0  0
  1  2  2  0  0  0  0
  2  3  1  0  0  0  0
  2  9  1  0  0  0  0
  3  4  1  0  0  0  0
  3 17  1  0  0  0  0
  4  8  1  0  0  0  0
  4  5  2  0  0  0  0
  5  6  1  0  0  0  0
  6  7  2  0  0  0  0
  7  8  1  0  0  0  0
  7 18  1  0  0  0  0
  9 10  1  0  0  0  0
  9 19  1  0  0  0  0
 10 16  1  0  0  0  0
 10 11  1  0  0  0  0
 10 20  1  0  0  0  0
 11 12  1  0  0  0  0
 11 21  1  0  0  0  0
 11 22  1  0  0  0  0
 12 13  1  0  0  0  0
 12 23  1  0  0  0  0
 12 24  1  0  0  0  0
 13 14  1  0  0  0  0
 13 15  1  0  0  0  0
 13 25  1  0  0  0  0
 14 26  1  0  0  0  0
 15 16  1  0  0  0  0
 15 27  1  0  0  0  0
 15 28  1  0  0  0  0
 16 29  1  0  0  0  0
 16 30  1  0  0  0  0
M  END
> <s_m_source_file>
AV-unprocessed.smi

> <i_m_source_file_index>
1948

> <i_lp_mmshare_version>
43012

> <i_f3d_flags>
0

> <s_epik_input>
czFbY0hdbm5jMVtOSF1DKD1PKVtOSF1bQ0BASF0yW0NIMl1bQ0gyXVtDQEBIXShbT0hdKVtDSDJdW0NIMl0y

> <s_epik_cmdline>
J2VwaWtfcHl0aG9uJywgJy1waCcsICc3LjAnLCAnLXRuJywgJzgnLCAnLW1hJywgJzIwMCcsICctbWV0YWxfYmluZGluZycsICctaW1hZScsICc8aW5maWxlLm1hZT4nLCAnLW9tYWUnLCAnPG91dGZpbGUubWFlPic=

> <r_lp_tautomer_probability>
1

> <r_epik_Ionization_Penalty>
0.000336938

> <r_epik_Ionization_Penalty_Charging>
0

> <r_epik_Ionization_Penalty_Neutral>
0.000336938

> <r_epik_State_Penalty>
-0

> <r_epik_Charging_Adjusted_Penalty>
0

> <i_epik_Tot_Q>
0

> <i_epik_Tot_abs_Q>
0

> <r_epik_Metal_State_Penalty>
0.175756

> <b_epik_Metal_Only>
0

> <s_lp_Force_Field>
OPLS_2005

> <r_lp_Energy>
6.64552

> <b_lp_Chiralities_Consistent>
1

> <s_lp_Variant>
AV-unprocessed.smi:1948-1

> <Gold.Version>
5.8.1

> <Gold.Id.Protein>
6NUR|6NUR_protein|mol2

> <Gold.PLP.Fitness>
40.4455

> <Gold.PLP.PLP>
-28.3890

> <Gold.PLP.part.hbond>
-5.9545

> <Gold.PLP.part.metal>
0.0000

> <Gold.PLP.part.buried>
-4.1217

> <Gold.PLP.part.nonpolar>
-19.6113

> <Gold.PLP.part.repulsive>
0.0428

> <Gold.PLP.ligand.clash>
0.0000

> <Gold.PLP.ligand.torsion>
0.3544

> <Gold.PLP.Chemscore.Hbond>
4.2540

> <Gold.PLP.Chemscore.CHOScore>
0.0000

> <Gold.PLP.Chemscore.Metal>
0.0000

> <Gold.Chemscore.Hbonds>
donor molecule, donor type, donor heavy atom, donor atom, acceptor molecule, acceptor atom, score
      L1  H     3    17       P1  7948  1.00
      L1  H     9    19       P1  7948  0.96
      L1  H    14    26       P1 10186  0.63
      P1  H  6896  6907       L1     6  0.67
      P1  H 10785 10796       L1    14  0.99

> <Gold.PLP.Chemscore.Internal.Correction>
0.0033

> <Gold.Rescore>
     Score         DG    S(hbond)    S(metal)    S(lipo)     H(rot)  DE(clash)    DE(int)     intcor
     17.75     -19.36       3.42        0.00      54.73       1.55       0.00       1.61       ----

> <Gold.Chemscore.Fitness>
17.7478

> <Gold.Chemscore.DG>
-19.3585

> <Gold.Chemscore.ZeroCoef>
-5.4800

> <Gold.Chemscore.Hbond>
3.4226

> <Gold.Chemscore.Metal>
0.0000

> <Gold.Chemscore.Lipo>
54.7328

> <Gold.Chemscore.Internal_Hbond>
0.0000

> <Gold.Chemscore.DEClash>
0.0029

> <Gold.Chemscore.DEInternal>
1.6078

> <Gold.Chemscore.Rot>
1.5456

> <Gold.Chemscore.Internal.Correction>
   9.000000E+99

> <Gold.Chemscore.Hbonds>
donor molecule, donor type, donor heavy atom, donor atom, acceptor molecule, acceptor atom, score
      L1  H     3    17       P1  7948  0.35
      L1  H     9    19       P1  7948  0.35
      L1  H    14    26       P1 10186  0.63
      P1  H  6896  6907       L1     6  0.20
      P1  H 10785 10796       L1    14  0.91

> <Gold.Chemscore.Hbond.Weighted>
-11.4316

> <Gold.Chemscore.Metal.Weighted>
-0.0000

> <Gold.Chemscore.Lipo.Weighted>
-6.4037

> <Gold.Chemscore.Internal_Hbond.Weighted>
0.0000

> <Gold.Chemscore.DEClash.Weighted>
0.0029

> <Gold.Chemscore.DEInternal.Weighted>
1.6078

> <Gold.Chemscore.Rot.Weighted>
3.9568

> <Gold.Chemscore.Internal.Correction.Weighted>
   9.000000E+99

> <Gold.Protein.RotatedTorsions>
[ 6907 6896 6895 6894 ] final -121.64 input  -60.11 | X-H torsion
[ 7974 7965 7964 7962 ] final  113.69 input  175.53 | X-H torsion
[ 8008 7997 7996 7995 ] final -107.97 input   59.86 | X-H torsion
[ 10167 10162 10161 10158 ] final  167.46 input  -65.29 | X-H torsion
[ 10718 10713 10712 10709 ] final  121.99 input   66.30 | X-H torsion
[ 10763 10752 10751 10750 ] final  169.31 input  -60.55 | X-H torsion
[ 11005 11000 10999 10996 ] final -109.13 input  -57.11 | X-H torsion

> <Gold.Protein.ActiveResidues>
 VAL166  LYS551  ARG553  GLY616  TRP617  ASP618  TYR619  PRO620  LYS621  CYS622 
 ASP623  PHE694  ASN695  SER759  ASP760  ASP761  ALA762  ILE779  LEU786  VAL792 
 PHE793  MET794  SER795  GLU796  ALA797  LYS798  CYS799  TRP800  GLU811  SER814 

> <Gold.Protein.RotatedAtoms>
  150.8502  133.7798  159.3027 H   0  0  0  0  0  0  0  0  0  0  0  0  # atno 6907 bound_to 6896
  151.5473  135.1066  159.9950 H   0  0  0  0  0  0  0  0  0  0  0  0  # atno 6908 bound_to 6896
  152.4547  133.7655  159.6826 H   0  0  0  0  0  0  0  0  0  0  0  0  # atno 6909 bound_to 6896
  145.2138  139.2894  143.4254 H   0  0  0  0  0  0  0  0  0  0  0  0  # atno 7974 bound_to 7965
  154.9373  140.0403  157.2078 H   0  0  0  0  0  0  0  0  0  0  0  0  # atno 8008 bound_to 7997
  154.8103  140.2867  155.5836 H   0  0  0  0  0  0  0  0  0  0  0  0  # atno 8009 bound_to 7997
  156.2971  140.2538  156.2990 H   0  0  0  0  0  0  0  0  0  0  0  0  # atno 8010 bound_to 7997
  139.4946  144.3919  151.9507 H   0  0  0  0  0  0  0  0  0  0  0  0  # atno 10167 bound_to 10162
  157.5776  131.1078  150.8249 H   0  0  0  0  0  0  0  0  0  0  0  0  # atno 10718 bound_to 10713
  154.3812  135.2753  155.2210 H   0  0  0  0  0  0  0  0  0  0  0  0  # atno 10763 bound_to 10752
  154.4316  135.5976  153.6075 H   0  0  0  0  0  0  0  0  0  0  0  0  # atno 10764 bound_to 10752
  152.9834  135.5997  154.4055 H   0  0  0  0  0  0  0  0  0  0  0  0  # atno 10765 bound_to 10752
  141.0864  133.9131  157.2175 H   0  0  0  0  0  0  0  0  0  0  0  0  # atno 11005 bound_to 11000
  146.3392  140.2422  142.8596 LP  0  0  0  0  0  0  0  0  0  0  0  0  # atno 17320 bound_to 7965
  144.9831  140.8477  143.5385 LP  0  0  0  0  0  0  0  0  0  0  0  0  # atno 17321 bound_to 7965
  140.3357  144.3263  150.5977 LP  0  0  0  0  0  0  0  0  0  0  0  0  # atno 17342 bound_to 10162
  140.5608  143.2192  151.7769 LP  0  0  0  0  0  0  0  0  0  0  0  0  # atno 17343 bound_to 10162
  156.8704  130.5144  149.5297 LP  0  0  0  0  0  0  0  0  0  0  0  0  # atno 17370 bound_to 10713
  156.0821  130.5829  150.9581 LP  0  0  0  0  0  0  0  0  0  0  0  0  # atno 17371 bound_to 10713
  139.9683  135.0135  156.9445 LP  0  0  0  0  0  0  0  0  0  0  0  0  # atno 17394 bound_to 11000
  140.5353  134.0773  155.7326 LP  0  0  0  0  0  0  0  0  0  0  0  0  # atno 17395 bound_to 11000

$$$$
