AV-unprocessed.smi:2592|AV-procd|sdf|10162|dock8
  -GOLD-   2272014173D 1   1.00000     0.00000
 Structure written by MMmdl.
 41 42  0  0  0  0  0  0  0  0  2 V2000
  151.6568  144.1251  158.1002 C   0  0  0  0  0  0  0  0  0  0  0  0
  151.5385  142.6599  157.8130 C   0  0  0  0  0  0  0  0  0  0  0  0
  151.0420  142.2356  156.5780 N   0  0  0  0  0  0  0  0  0  0  0  0
  150.9956  140.9063  156.4467 C   0  0  0  0  0  0  0  0  0  0  0  0
  150.5439  140.2948  155.3393 N   0  5  0  0  0  0  0  0  0  0  0  0
  149.3019  140.5635  154.8761 C   0  0  0  0  0  0  0  0  0  0  0  0
  148.6286  141.5658  155.1279 O   0  0  0  0  0  0  0  0  0  0  0  0
  148.8112  139.6135  154.0669 N   0  0  0  0  0  0  0  0  0  0  0  0
  147.5090  139.6386  153.4096 C   0  0  0  0  0  0  0  0  0  0  0  0
  146.7955  138.2813  153.5168 C   0  0  0  0  0  0  0  0  0  0  0  0
  145.8899  138.0044  152.3049 C   0  0  0  0  0  0  0  0  0  0  0  0
  145.3325  136.6539  152.2435 N   0  0  0  0  0  0  0  0  0  0  0  0
  143.9056  136.6649  152.5479 C   0  0  0  0  0  0  0  0  0  0  0  0
  143.2925  135.2552  152.4874 C   0  0  0  0  0  0  0  0  0  0  0  0
  143.5275  134.6893  151.2024 O   0  0  0  0  0  0  0  0  0  0  0  0
  144.9126  134.6160  150.8807 C   0  0  0  0  0  0  0  0  0  0  0  0
  145.5346  136.0221  150.9408 C   0  0  0  0  0  0  0  0  0  0  0  0
  151.5647  140.0822  157.8988 S   0  0  0  0  0  0  0  0  0  0  0  0
  151.8683  141.6246  158.6522 C   0  0  0  0  0  0  0  0  0  0  0  0
  152.4208  141.7064  160.0361 C   0  0  0  0  0  0  0  0  0  0  0  0
  150.9148  144.4407  158.8337 H   0  0  0  0  0  0  0  0  0  0  0  0
  151.5093  144.7256  157.2019 H   0  0  0  0  0  0  0  0  0  0  0  0
  152.6415  144.3692  158.4993 H   0  0  0  0  0  0  0  0  0  0  0  0
  149.3958  138.8093  153.8909 H   0  0  0  0  0  0  0  0  0  0  0  0
  146.9075  140.4131  153.8857 H   0  0  0  0  0  0  0  0  0  0  0  0
  147.6213  139.9318  152.3646 H   0  0  0  0  0  0  0  0  0  0  0  0
  147.5434  137.4947  153.6135 H   0  0  0  0  0  0  0  0  0  0  0  0
  146.1984  138.2565  154.4294 H   0  0  0  0  0  0  0  0  0  0  0  0
  145.0670  138.7199  152.3396 H   0  0  0  0  0  0  0  0  0  0  0  0
  146.4356  138.2208  151.3852 H   0  0  0  0  0  0  0  0  0  0  0  0
  143.7421  137.0852  153.5409 H   0  0  0  0  0  0  0  0  0  0  0  0
  143.3824  137.3149  151.8447 H   0  0  0  0  0  0  0  0  0  0  0  0
  143.7195  134.6135  153.2596 H   0  0  0  0  0  0  0  0  0  0  0  0
  142.2182  135.3008  152.6659 H   0  0  0  0  0  0  0  0  0  0  0  0
  145.4186  133.9407  151.5724 H   0  0  0  0  0  0  0  0  0  0  0  0
  145.0247  134.1941  149.8819 H   0  0  0  0  0  0  0  0  0  0  0  0
  145.0986  136.6431  150.1566 H   0  0  0  0  0  0  0  0  0  0  0  0
  146.5980  135.9392  150.7192 H   0  0  0  0  0  0  0  0  0  0  0  0
  153.4819  141.9547  160.0126 H   0  0  0  0  0  0  0  0  0  0  0  0
  152.3074  140.7581  160.5618 H   0  0  0  0  0  0  0  0  0  0  0  0
  151.9064  142.4732  160.6156 H   0  0  0  0  0  0  0  0  0  0  0  0
  1  2  1  0  0  0  0
  1 21  1  0  0  0  0
  1 22  1  0  0  0  0
  1 23  1  0  0  0  0
  2 19  2  0  0  0  0
  2  3  1  0  0  0  0
  3  4  2  0  0  0  0
  4  5  1  0  0  0  0
  4 18  1  0  0  0  0
  5  6  1  0  0  0  0
  6  7  2  0  0  0  0
  6  8  1  0  0  0  0
  8  9  1  0  0  0  0
  8 24  1  0  0  0  0
  9 10  1  0  0  0  0
  9 25  1  0  0  0  0
  9 26  1  0  0  0  0
 10 11  1  0  0  0  0
 10 27  1  0  0  0  0
 10 28  1  0  0  0  0
 11 12  1  0  0  0  0
 11 29  1  0  0  0  0
 11 30  1  0  0  0  0
 12 17  1  0  0  0  0
 12 13  1  0  0  0  0
 13 14  1  0  0  0  0
 13 31  1  0  0  0  0
 13 32  1  0  0  0  0
 14 15  1  0  0  0  0
 14 33  1  0  0  0  0
 14 34  1  0  0  0  0
 15 16  1  0  0  0  0
 16 17  1  0  0  0  0
 16 35  1  0  0  0  0
 16 36  1  0  0  0  0
 17 37  1  0  0  0  0
 17 38  1  0  0  0  0
 18 19  1  0  0  0  0
 19 20  1  0  0  0  0
 20 39  1  0  0  0  0
 20 40  1  0  0  0  0
 20 41  1  0  0  0  0
M  CHG  1   5  -1
M  END
> <s_m_source_file>
AV-unprocessed.smi

> <i_m_source_file_index>
2592

> <i_lp_mmshare_version>
43012

> <i_f3d_flags>
0

> <s_epik_input>
W0NIM11jMW5jKHNjMVtDSDNdKVtOSF1DKD1PKVtOSF1bQ0gyXVtDSDJdW0NIMl1OMltDSDJdW0NIMl1PW0NIMl1bQ0gyXTI=

> <s_epik_cmdline>
J2VwaWtfcHl0aG9uJywgJy1waCcsICc3LjAnLCAnLXRuJywgJzgnLCAnLW1hJywgJzIwMCcsICctbWV0YWxfYmluZGluZycsICctaW1hZScsICc8aW5maWxlLm1hZT4nLCAnLW9tYWUnLCAnPG91dGZpbGUubWFlPic=

> <r_lp_tautomer_probability>
0.999

> <r_epik_Ionization_Penalty>
8.38414

> <r_epik_Ionization_Penalty_Charging>
6.24826

> <r_epik_Ionization_Penalty_Neutral>
2.13587

> <r_epik_State_Penalty>
6.83636

> <r_epik_Charging_Adjusted_Penalty>
13.0846

> <i_epik_Tot_Q>
-1

> <i_epik_Tot_abs_Q>
1

> <r_epik_Metal_State_Penalty>
2.77797

> <b_epik_Metal_Only>
1

> <s_lp_Force_Field>
OPLS_2005

> <r_lp_Energy>
16.0962

> <b_lp_Chiralities_Consistent>
1

> <s_lp_Variant>
AV-unprocessed.smi:2592-4

> <Gold.Version>
5.8.1

> <Gold.Id.Protein>
6NUR|6NUR_protein|mol2

> <Gold.PLP.Fitness>
36.2929

> <Gold.PLP.PLP>
-36.4602

> <Gold.PLP.part.hbond>
-2.0000

> <Gold.PLP.part.metal>
0.0000

> <Gold.PLP.part.buried>
-5.6427

> <Gold.PLP.part.nonpolar>
-30.9197

> <Gold.PLP.part.repulsive>
0.9935

> <Gold.PLP.ligand.clash>
0.0000

> <Gold.PLP.ligand.torsion>
1.6196

> <Gold.PLP.Chemscore.Hbond>
0.9760

> <Gold.PLP.Chemscore.CHOScore>
0.0000

> <Gold.PLP.Chemscore.Metal>
0.0000

> <Gold.Chemscore.Hbonds>
donor molecule, donor type, donor heavy atom, donor atom, acceptor molecule, acceptor atom, score
      P1  H  7989  7998       L1     5  0.47

> <Gold.PLP.Chemscore.Internal.Correction>
0.1438

> <Gold.Rescore>
     Score         DG    S(hbond)    S(metal)    S(lipo)     H(rot)  DE(clash)    DE(int)     intcor
     11.34     -13.37       0.70        0.00      83.46       1.65       0.13       1.90       ----

> <Gold.Chemscore.Fitness>
11.3367

> <Gold.Chemscore.DG>
-13.3744

> <Gold.Chemscore.ZeroCoef>
-5.4800

> <Gold.Chemscore.Hbond>
0.7012

> <Gold.Chemscore.Metal>
0.0000

> <Gold.Chemscore.Lipo>
83.4551

> <Gold.Chemscore.Internal_Hbond>
0.0000

> <Gold.Chemscore.DEClash>
0.1336

> <Gold.Chemscore.DEInternal>
1.9041

> <Gold.Chemscore.Rot>
1.6452

> <Gold.Chemscore.Internal.Correction>
   9.000000E+99

> <Gold.Chemscore.Hbonds>
donor molecule, donor type, donor heavy atom, donor atom, acceptor molecule, acceptor atom, score
      P1  H  7989  7998       L1     5  0.07

> <Gold.Chemscore.Hbond.Weighted>
-2.3419

> <Gold.Chemscore.Metal.Weighted>
-0.0000

> <Gold.Chemscore.Lipo.Weighted>
-9.7643

> <Gold.Chemscore.Internal_Hbond.Weighted>
0.0000

> <Gold.Chemscore.DEClash.Weighted>
0.1336

> <Gold.Chemscore.DEInternal.Weighted>
1.9041

> <Gold.Chemscore.Rot.Weighted>
4.2118

> <Gold.Chemscore.Internal.Correction.Weighted>
   9.000000E+99

> <Gold.Protein.RotatedTorsions>
[ 6907 6896 6895 6894 ] final -166.21 input  -60.11 | X-H torsion
[ 7974 7965 7964 7962 ] final   71.67 input  175.53 | X-H torsion
[ 8008 7997 7996 7995 ] final  115.07 input   59.86 | X-H torsion
[ 10167 10162 10161 10158 ] final   60.98 input  -65.29 | X-H torsion
[ 10718 10713 10712 10709 ] final  112.00 input   66.30 | X-H torsion
[ 10763 10752 10751 10750 ] final  131.74 input  -60.55 | X-H torsion
[ 11005 11000 10999 10996 ] final  141.62 input  -57.11 | X-H torsion

> <Gold.Protein.ActiveResidues>
 VAL166  LYS551  ARG553  GLY616  TRP617  ASP618  TYR619  PRO620  LYS621  CYS622 
 ASP623  PHE694  ASN695  SER759  ASP760  ASP761  ALA762  ILE779  LEU786  VAL792 
 PHE793  MET794  SER795  GLU796  ALA797  LYS798  CYS799  TRP800  GLU811  SER814 

> <Gold.Protein.RotatedAtoms>
  151.4399  133.3646  159.2780 H   0  0  0  0  0  0  0  0  0  0  0  0  # atno 6907 bound_to 6896
  150.9165  134.8584  159.7471 H   0  0  0  0  0  0  0  0  0  0  0  0  # atno 6908 bound_to 6896
  152.4959  134.4334  159.9571 H   0  0  0  0  0  0  0  0  0  0  0  0  # atno 6909 bound_to 6896
  145.7630  139.2809  143.1365 H   0  0  0  0  0  0  0  0  0  0  0  0  # atno 7974 bound_to 7965
  156.2359  140.2946  156.0313 H   0  0  0  0  0  0  0  0  0  0  0  0  # atno 8008 bound_to 7997
  155.2091  140.0412  157.2947 H   0  0  0  0  0  0  0  0  0  0  0  0  # atno 8009 bound_to 7997
  154.6079  140.2444  155.7714 H   0  0  0  0  0  0  0  0  0  0  0  0  # atno 8010 bound_to 7997
  140.1597  144.4382  150.6716 H   0  0  0  0  0  0  0  0  0  0  0  0  # atno 10167 bound_to 10162
  157.6415  131.0960  150.6832 H   0  0  0  0  0  0  0  0  0  0  0  0  # atno 10718 bound_to 10713
  153.7792  135.3171  155.3363 H   0  0  0  0  0  0  0  0  0  0  0  0  # atno 10763 bound_to 10752
  154.8168  135.4631  154.0668 H   0  0  0  0  0  0  0  0  0  0  0  0  # atno 10764 bound_to 10752
  153.1951  135.6914  153.8388 H   0  0  0  0  0  0  0  0  0  0  0  0  # atno 10765 bound_to 10752
  140.0415  134.9302  157.0852 H   0  0  0  0  0  0  0  0  0  0  0  0  # atno 11005 bound_to 11000
  146.0245  140.8316  142.9906 LP  0  0  0  0  0  0  0  0  0  0  0  0  # atno 17320 bound_to 7965
  144.6827  140.2678  143.7310 LP  0  0  0  0  0  0  0  0  0  0  0  0  # atno 17321 bound_to 7965
  140.6651  143.2265  151.5763 LP  0  0  0  0  0  0  0  0  0  0  0  0  # atno 17342 bound_to 10162
  139.5387  144.2709  152.1305 LP  0  0  0  0  0  0  0  0  0  0  0  0  # atno 17343 bound_to 10162
  156.7155  130.4665  149.5536 LP  0  0  0  0  0  0  0  0  0  0  0  0  # atno 17370 bound_to 10713
  156.1701  130.6431  151.0826 LP  0  0  0  0  0  0  0  0  0  0  0  0  # atno 17371 bound_to 10713
  140.4062  134.2030  155.7163 LP  0  0  0  0  0  0  0  0  0  0  0  0  # atno 17394 bound_to 11000
  141.1885  133.8258  157.0991 LP  0  0  0  0  0  0  0  0  0  0  0  0  # atno 17395 bound_to 11000

$$$$
