AV-unprocessed.smi:1335|AV-procd|sdf|5494|dock6
  -GOLD-   22720 5 73D 1   1.00000     0.00000
 Structure written by MMmdl.
 47 49  0  0  0  0  0  0  0  0  1 V2000
  154.4583  140.4406  159.9939 C   0  0  0  0  0  0  0  0  0  0  0  0
  153.5706  140.4638  158.8852 O   0  0  0  0  0  0  0  0  0  0  0  0
  152.7073  141.5332  158.7561 C   0  0  0  0  0  0  0  0  0  0  0  0
  152.9257  142.7897  159.3784 C   0  0  0  0  0  0  0  0  0  0  0  0
  152.0149  143.8479  159.2001 C   0  0  0  0  0  0  0  0  0  0  0  0
  150.8774  143.6698  158.3945 C   0  0  0  0  0  0  0  0  0  0  0  0
  150.6491  142.4299  157.7725 C   0  0  0  0  0  0  0  0  0  0  0  0
  151.5491  141.3576  157.9583 C   0  0  0  0  0  0  0  0  0  0  0  0
  151.2789  140.0313  157.2625 C   0  0  0  0  0  0  0  0  0  0  0  0
  151.3041  138.9405  158.1687 O   0  0  0  0  0  0  0  0  0  0  0  0
  150.5822  137.8111  157.7058 C   0  0  0  0  0  0  0  0  0  0  0  0
  149.7663  137.2397  158.8750 C   0  0  2  0  0  0  0  0  0  0  0  0
  150.6596  137.0179  159.9471 O   0  0  0  0  0  0  0  0  0  0  0  0
  149.0802  135.9053  158.5149 C   0  0  0  0  0  0  0  0  0  0  0  0
  148.6480  135.1887  159.7118 N   0  0  0  0  0  0  0  0  0  0  0  0
  148.0752  135.7275  160.8136 C   0  0  0  0  0  0  0  0  0  0  0  0
  147.8405  136.9222  160.9947 O   0  0  0  0  0  0  0  0  0  0  0  0
  147.7982  134.7206  161.6754 N   0  0  0  0  0  0  0  0  0  0  0  0
  147.1681  134.8344  162.9850 C   0  0  0  0  0  0  0  0  0  0  0  0
  148.1889  133.5036  161.1022 C   0  0  0  0  0  0  0  0  0  0  0  0
  148.1027  132.1860  161.5835 C   0  0  0  0  0  0  0  0  0  0  0  0
  148.5887  131.1581  160.7415 C   0  0  0  0  0  0  0  0  0  0  0  0
  149.1352  131.4594  159.4667 C   0  0  0  0  0  0  0  0  0  0  0  0
  149.2086  132.7953  159.0072 C   0  0  0  0  0  0  0  0  0  0  0  0
  148.7221  133.7969  159.8653 C   0  0  0  0  0  0  0  0  0  0  0  0
  155.0596  139.5323  159.9532 H   0  0  0  0  0  0  0  0  0  0  0  0
  153.9157  140.4334  160.9402 H   0  0  0  0  0  0  0  0  0  0  0  0
  155.1430  141.2895  159.9747 H   0  0  0  0  0  0  0  0  0  0  0  0
  153.7898  142.9710  159.9988 H   0  0  0  0  0  0  0  0  0  0  0  0
  152.1932  144.7997  159.6786 H   0  0  0  0  0  0  0  0  0  0  0  0
  150.1817  144.4837  158.2515 H   0  0  0  0  0  0  0  0  0  0  0  0
  149.7760  142.3075  157.1488 H   0  0  0  0  0  0  0  0  0  0  0  0
  150.3036  140.0921  156.7772 H   0  0  0  0  0  0  0  0  0  0  0  0
  152.0217  139.8548  156.4836 H   0  0  0  0  0  0  0  0  0  0  0  0
  149.9288  138.0868  156.8762 H   0  0  0  0  0  0  0  0  0  0  0  0
  151.2847  137.0612  157.3376 H   0  0  0  0  0  0  0  0  0  0  0  0
  149.0320  137.9847  159.1850 H   0  0  0  0  0  0  0  0  0  0  0  0
  150.2039  137.1853  160.7578 H   0  0  0  0  0  0  0  0  0  0  0  0
  148.1899  136.0910  157.9132 H   0  0  0  0  0  0  0  0  0  0  0  0
  149.7238  135.2825  157.8909 H   0  0  0  0  0  0  0  0  0  0  0  0
  147.7591  134.3110  163.7370 H   0  0  0  0  0  0  0  0  0  0  0  0
  146.1729  134.3899  162.9617 H   0  0  0  0  0  0  0  0  0  0  0  0
  147.0678  135.8731  163.3020 H   0  0  0  0  0  0  0  0  0  0  0  0
  147.6823  131.9648  162.5534 H   0  0  0  0  0  0  0  0  0  0  0  0
  148.5414  130.1311  161.0725 H   0  0  0  0  0  0  0  0  0  0  0  0
  149.4990  130.6596  158.8388 H   0  0  0  0  0  0  0  0  0  0  0  0
  149.6193  133.0311  158.0370 H   0  0  0  0  0  0  0  0  0  0  0  0
  1  2  1  0  0  0  0
  1 26  1  0  0  0  0
  1 27  1  0  0  0  0
  1 28  1  0  0  0  0
  2  3  1  0  0  0  0
  3  8  1  0  0  0  0
  3  4  2  0  0  0  0
  4  5  1  0  0  0  0
  4 29  1  0  0  0  0
  5  6  2  0  0  0  0
  5 30  1  0  0  0  0
  6  7  1  0  0  0  0
  6 31  1  0  0  0  0
  7  8  2  0  0  0  0
  7 32  1  0  0  0  0
  8  9  1  0  0  0  0
  9 10  1  0  0  0  0
  9 33  1  0  0  0  0
  9 34  1  0  0  0  0
 10 11  1  0  0  0  0
 11 12  1  0  0  0  0
 11 35  1  0  0  0  0
 11 36  1  0  0  0  0
 12 13  1  0  0  0  0
 12 14  1  0  0  0  0
 12 37  1  0  0  0  0
 13 38  1  0  0  0  0
 14 15  1  0  0  0  0
 14 39  1  0  0  0  0
 14 40  1  0  0  0  0
 15 25  1  0  0  0  0
 15 16  1  0  0  0  0
 16 17  2  0  0  0  0
 16 18  1  0  0  0  0
 18 19  1  0  0  0  0
 18 20  1  0  0  0  0
 19 41  1  0  0  0  0
 19 42  1  0  0  0  0
 19 43  1  0  0  0  0
 20 25  2  0  0  0  0
 20 21  1  0  0  0  0
 21 22  2  0  0  0  0
 21 44  1  0  0  0  0
 22 23  1  0  0  0  0
 22 45  1  0  0  0  0
 23 24  2  0  0  0  0
 23 46  1  0  0  0  0
 24 25  1  0  0  0  0
 24 47  1  0  0  0  0
M  END
> <s_m_source_file>
AV-unprocessed.smi

> <i_m_source_file_index>
1335

> <i_lp_mmshare_version>
43012

> <i_f3d_flags>
0

> <s_epik_input>
W0NIM11PYzFbY0hdW2NIXVtjSF1bY0hdYzFbQ0gyXU9bQ0gyXVtDQEhdKFtPSF0pW0NIMl1uKGMoPU8pbjJbQ0gzXSljKGMyMylbY0hdW2NIXVtjSF1bY0hdMw==

> <s_epik_cmdline>
J2VwaWtfcHl0aG9uJywgJy1waCcsICc3LjAnLCAnLXRuJywgJzgnLCAnLW1hJywgJzIwMCcsICctbWV0YWxfYmluZGluZycsICctaW1hZScsICc8aW5maWxlLm1hZT4nLCAnLW9tYWUnLCAnPG91dGZpbGUubWFlPic=

> <r_lp_tautomer_probability>
1

> <r_epik_Ionization_Penalty>
1.07897e-06

> <r_epik_Ionization_Penalty_Charging>
2.2947e-09

> <r_epik_Ionization_Penalty_Neutral>
1.07667e-06

> <r_epik_State_Penalty>
-0

> <r_epik_Charging_Adjusted_Penalty>
2.2947e-09

> <i_epik_Tot_Q>
0

> <i_epik_Tot_abs_Q>
0

> <r_epik_Metal_State_Penalty>
-0

> <b_epik_Metal_Only>
0

> <s_lp_Force_Field>
OPLS_2005

> <r_lp_Energy>
50.1795

> <b_lp_Chiralities_Consistent>
1

> <s_lp_Variant>
AV-unprocessed.smi:1335-1

> <Gold.Version>
5.8.1

> <Gold.Id.Protein>
6NUR|6NUR_protein|mol2

> <Gold.PLP.Fitness>
53.3948

> <Gold.PLP.PLP>
-44.3813

> <Gold.PLP.part.hbond>
-4.5156

> <Gold.PLP.part.metal>
0.0000

> <Gold.PLP.part.buried>
-4.4878

> <Gold.PLP.part.nonpolar>
-35.5716

> <Gold.PLP.part.repulsive>
0.0000

> <Gold.PLP.ligand.clash>
0.0000

> <Gold.PLP.ligand.torsion>
1.2066

> <Gold.PLP.Chemscore.Hbond>
3.7755

> <Gold.PLP.Chemscore.CHOScore>
0.0000

> <Gold.PLP.Chemscore.Metal>
0.0000

> <Gold.Chemscore.Hbonds>
donor molecule, donor type, donor heavy atom, donor atom, acceptor molecule, acceptor atom, score
      P1  H  6896  6908       L1    13  1.00
      P1  H  6931  6943       L1    17  1.00
      P1  H  6934  6947       L1    17  0.51
      P1  H  7997  8009       L1     2  0.56

> <Gold.PLP.Chemscore.Internal.Correction>
0.1002

> <Gold.Rescore>
     Score         DG    S(hbond)    S(metal)    S(lipo)     H(rot)  DE(clash)    DE(int)     intcor
     18.72     -22.49       2.87        0.00     118.31       2.50       0.01       3.76       ----

> <Gold.Chemscore.Fitness>
18.7239

> <Gold.Chemscore.DG>
-22.4938

> <Gold.Chemscore.ZeroCoef>
-5.4800

> <Gold.Chemscore.Hbond>
2.8685

> <Gold.Chemscore.Metal>
0.0000

> <Gold.Chemscore.Lipo>
118.3142

> <Gold.Chemscore.Internal_Hbond>
0.0000

> <Gold.Chemscore.DEClash>
0.0089

> <Gold.Chemscore.DEInternal>
3.7611

> <Gold.Chemscore.Rot>
2.5038

> <Gold.Chemscore.Internal.Correction>
   9.000000E+99

> <Gold.Chemscore.Hbonds>
donor molecule, donor type, donor heavy atom, donor atom, acceptor molecule, acceptor atom, score
      P1  H  6896  6908       L1    13  0.24
      P1  H  6931  6943       L1    17  0.92
      P1  H  6934  6947       L1    17  0.50
      P1  H  7997  8009       L1     2  0.18

> <Gold.Chemscore.Hbond.Weighted>
-9.5808

> <Gold.Chemscore.Metal.Weighted>
-0.0000

> <Gold.Chemscore.Lipo.Weighted>
-13.8428

> <Gold.Chemscore.Internal_Hbond.Weighted>
0.0000

> <Gold.Chemscore.DEClash.Weighted>
0.0089

> <Gold.Chemscore.DEInternal.Weighted>
3.7611

> <Gold.Chemscore.Rot.Weighted>
6.4098

> <Gold.Chemscore.Internal.Correction.Weighted>
   9.000000E+99

> <Gold.Protein.RotatedTorsions>
[ 6907 6896 6895 6894 ] final -155.28 input  -60.11 | X-H torsion
[ 7974 7965 7964 7962 ] final -178.50 input  175.53 | X-H torsion
[ 8008 7997 7996 7995 ] final  131.95 input   59.86 | X-H torsion
[ 10167 10162 10161 10158 ] final   75.91 input  -65.29 | X-H torsion
[ 10718 10713 10712 10709 ] final    0.99 input   66.30 | X-H torsion
[ 10763 10752 10751 10750 ] final  149.60 input  -60.55 | X-H torsion
[ 11005 11000 10999 10996 ] final  165.22 input  -57.11 | X-H torsion

> <Gold.Protein.ActiveResidues>
 VAL166  LYS551  ARG553  GLY616  TRP617  ASP618  TYR619  PRO620  LYS621  CYS622 
 ASP623  PHE694  ASN695  SER759  ASP760  ASP761  ALA762  ILE779  LEU786  VAL792 
 PHE793  MET794  SER795  GLU796  ALA797  LYS798  CYS799  TRP800  GLU811  SER814 

> <Gold.Protein.RotatedAtoms>
  151.2701  133.4259  159.2620 H   0  0  0  0  0  0  0  0  0  0  0  0  # atno 6907 bound_to 6896
  151.0453  134.9636  159.8193 H   0  0  0  0  0  0  0  0  0  0  0  0  # atno 6908 bound_to 6896
  152.5373  134.2657  159.9005 H   0  0  0  0  0  0  0  0  0  0  0  0  # atno 6909 bound_to 6896
  144.7131  140.0860  143.6423 H   0  0  0  0  0  0  0  0  0  0  0  0  # atno 7974 bound_to 7965
  156.2976  140.2558  156.3009 H   0  0  0  0  0  0  0  0  0  0  0  0  # atno 8008 bound_to 7997
  154.9418  140.0396  157.2119 H   0  0  0  0  0  0  0  0  0  0  0  0  # atno 8009 bound_to 7997
  154.8119  140.2846  155.5851 H   0  0  0  0  0  0  0  0  0  0  0  0  # atno 8010 bound_to 7997
  139.9978  144.5709  150.7762 H   0  0  0  0  0  0  0  0  0  0  0  0  # atno 10167 bound_to 10162
  156.8415  130.5522  149.5677 H   0  0  0  0  0  0  0  0  0  0  0  0  # atno 10718 bound_to 10713
  154.0738  135.2864  155.3303 H   0  0  0  0  0  0  0  0  0  0  0  0  # atno 10763 bound_to 10752
  154.6729  135.5292  153.8165 H   0  0  0  0  0  0  0  0  0  0  0  0  # atno 10764 bound_to 10752
  153.0475  135.6562  154.0918 H   0  0  0  0  0  0  0  0  0  0  0  0  # atno 10765 bound_to 10752
  140.2539  134.7955  157.3527 H   0  0  0  0  0  0  0  0  0  0  0  0  # atno 11005 bound_to 11000
  145.9661  139.2836  143.1126 LP  0  0  0  0  0  0  0  0  0  0  0  0  # atno 17320 bound_to 7965
  145.9167  140.9143  143.0426 LP  0  0  0  0  0  0  0  0  0  0  0  0  # atno 17321 bound_to 7965
  140.7430  143.2840  151.3516 LP  0  0  0  0  0  0  0  0  0  0  0  0  # atno 17342 bound_to 10162
  139.6293  144.0752  152.2462 LP  0  0  0  0  0  0  0  0  0  0  0  0  # atno 17343 bound_to 10162
  156.0878  130.5872  150.9679 LP  0  0  0  0  0  0  0  0  0  0  0  0  # atno 17370 bound_to 10713
  157.6353  131.0916  150.8361 LP  0  0  0  0  0  0  0  0  0  0  0  0  # atno 17371 bound_to 10713
  140.1531  134.4824  155.7947 LP  0  0  0  0  0  0  0  0  0  0  0  0  # atno 17394 bound_to 11000
  141.2198  133.6870  156.7413 LP  0  0  0  0  0  0  0  0  0  0  0  0  # atno 17395 bound_to 11000

$$$$
