AV-unprocessed.smi:3181|AV-procd|sdf|12148|dock4
  -GOLD-   2272017583D 1   1.00000     0.00000
 Structure written by MMmdl.
 42 43  0  0  0  0  0  0  0  0  2 V2000
  146.6087  146.3128  160.4826 C   0  0  0  0  0  0  0  0  0  0  0  0
  147.8155  145.4661  160.9191 C   0  0  1  0  0  0  0  0  0  0  0  0
  147.4485  144.4446  162.0179 C   0  0  0  0  0  0  0  0  0  0  0  0
  146.1780  143.7873  161.7753 N   0  0  0  0  0  0  0  0  0  0  0  0
  144.9837  143.9647  162.3431 C   0  0  0  0  0  0  0  0  0  0  0  0
  144.0367  143.1773  161.8529 N   0  0  0  0  0  0  0  0  0  0  0  0
  144.7645  142.4995  160.9158 C   0  0  0  0  0  0  0  0  0  0  0  0
  146.0530  142.8303  160.8261 N   0  0  0  0  0  0  0  0  0  0  0  0
  148.3816  144.7691  159.7416 N   0  3  0  0  0  0  0  0  0  0  0  0
  149.7550  144.2346  159.8946 C   0  0  2  0  0  0  0  0  0  0  0  0
  150.7641  145.3967  159.8853 C   0  0  0  0  0  0  0  0  0  0  0  0
  152.2114  144.8926  160.0114 C   0  0  0  0  0  0  0  0  0  0  0  0
  152.5726  143.8719  158.9133 C   0  0  2  0  0  0  0  0  0  0  0  0
  152.7401  144.5494  157.5382 C   0  0  0  0  0  0  0  0  0  0  0  0
  151.5563  142.7019  158.9246 C   0  0  2  0  0  0  0  0  0  0  0  0
  151.8751  141.6096  157.8904 C   0  0  0  0  0  0  0  0  0  0  0  0
  150.1031  143.2037  158.7988 C   0  0  0  0  0  0  0  0  0  0  0  0
  146.2095  146.8986  161.3111 H   0  0  0  0  0  0  0  0  0  0  0  0
  145.8020  145.6873  160.0987 H   0  0  0  0  0  0  0  0  0  0  0  0
  146.8874  147.0157  159.6969 H   0  0  0  0  0  0  0  0  0  0  0  0
  148.5633  146.1550  161.3151 H   0  0  0  0  0  0  0  0  0  0  0  0
  148.2218  143.6786  162.0923 H   0  0  0  0  0  0  0  0  0  0  0  0
  147.3956  144.9244  162.9954 H   0  0  0  0  0  0  0  0  0  0  0  0
  144.8037  144.6797  163.1327 H   0  0  0  0  0  0  0  0  0  0  0  0
  144.3322  141.7402  160.2807 H   0  0  0  0  0  0  0  0  0  0  0  0
  147.7599  144.0226  159.4655 H   0  0  0  0  0  0  0  0  0  0  0  0
  149.8181  143.7478  160.8693 H   0  0  0  0  0  0  0  0  0  0  0  0
  150.6554  145.9779  158.9688 H   0  0  0  0  0  0  0  0  0  0  0  0
  150.5480  146.0819  160.7060 H   0  0  0  0  0  0  0  0  0  0  0  0
  152.9031  145.7354  159.9863 H   0  0  0  0  0  0  0  0  0  0  0  0
  152.3411  144.4275  160.9896 H   0  0  0  0  0  0  0  0  0  0  0  0
  153.5492  143.4601  159.1723 H   0  0  0  0  0  0  0  0  0  0  0  0
  151.7991  144.9406  157.1530 H   0  0  0  0  0  0  0  0  0  0  0  0
  153.1378  143.8559  156.7976 H   0  0  0  0  0  0  0  0  0  0  0  0
  153.4408  145.3823  157.5985 H   0  0  0  0  0  0  0  0  0  0  0  0
  151.6412  142.2249  159.9025 H   0  0  0  0  0  0  0  0  0  0  0  0
  151.7280  141.9631  156.8697 H   0  0  0  0  0  0  0  0  0  0  0  0
  151.2307  140.7413  158.0300 H   0  0  0  0  0  0  0  0  0  0  0  0
  152.9069  141.2697  157.9828 H   0  0  0  0  0  0  0  0  0  0  0  0
  149.4325  142.3472  158.8696 H   0  0  0  0  0  0  0  0  0  0  0  0
  149.9402  143.6381  157.8118 H   0  0  0  0  0  0  0  0  0  0  0  0
  148.4155  145.4434  158.9904 H   0  0  0  0  0  0  0  0  0  0  0  0
  1  2  1  0  0  0  0
  1 18  1  0  0  0  0
  1 19  1  0  0  0  0
  1 20  1  0  0  0  0
  2  3  1  0  0  0  0
  2  9  1  0  0  0  0
  2 21  1  0  0  0  0
  3  4  1  0  0  0  0
  3 22  1  0  0  0  0
  3 23  1  0  0  0  0
  4  8  1  0  0  0  0
  4  5  1  0  0  0  0
  5  6  2  0  0  0  0
  5 24  1  0  0  0  0
  6  7  1  0  0  0  0
  7  8  2  0  0  0  0
  7 25  1  0  0  0  0
  9 10  1  0  0  0  0
  9 26  1  0  0  0  0
  9 42  1  0  0  0  0
 10 17  1  0  0  0  0
 10 11  1  0  0  0  0
 10 27  1  0  0  0  0
 11 12  1  0  0  0  0
 11 28  1  0  0  0  0
 11 29  1  0  0  0  0
 12 13  1  0  0  0  0
 12 30  1  0  0  0  0
 12 31  1  0  0  0  0
 13 14  1  0  0  0  0
 13 15  1  0  0  0  0
 13 32  1  0  0  0  0
 14 33  1  0  0  0  0
 14 34  1  0  0  0  0
 14 35  1  0  0  0  0
 15 16  1  0  0  0  0
 15 17  1  0  0  0  0
 15 36  1  0  0  0  0
 16 37  1  0  0  0  0
 16 38  1  0  0  0  0
 16 39  1  0  0  0  0
 17 40  1  0  0  0  0
 17 41  1  0  0  0  0
M  CHG  1   9   1
M  END
> <s_m_source_file>
AV-unprocessed.smi

> <i_m_source_file_index>
3181

> <i_lp_mmshare_version>
43012

> <i_f3d_flags>
0

> <s_epik_input>
bjFbY0hdbltjSF1uMVtDSDJdW0NAQEhdKFtDSDNdKVtOSF1bQ0BASF0yW0NIMl1bQ0gyXVtDQEBIXShbQ0gzXSlbQ0BASF0oW0NIM10pW0NIMl0y

> <s_epik_cmdline>
J2VwaWtfcHl0aG9uJywgJy1waCcsICc3LjAnLCAnLXRuJywgJzgnLCAnLW1hJywgJzIwMCcsICctbWV0YWxfYmluZGluZycsICctaW1hZScsICc8aW5maWxlLm1hZT4nLCAnLW9tYWUnLCAnPG91dGZpbGUubWFlPic=

> <r_lp_tautomer_probability>
1

> <r_epik_Ionization_Penalty>
0.000617007

> <r_epik_Ionization_Penalty_Charging>
0.000616215

> <r_epik_Ionization_Penalty_Neutral>
7.92544e-07

> <r_epik_State_Penalty>
0.000388807

> <r_epik_Charging_Adjusted_Penalty>
0.00100502

> <i_epik_Tot_Q>
1

> <i_epik_Tot_abs_Q>
1

> <r_epik_Metal_State_Penalty>
-0

> <b_epik_Metal_Only>
0

> <s_lp_Force_Field>
OPLS_2005

> <r_lp_Energy>
20.8152

> <b_lp_Chiralities_Consistent>
1

> <s_lp_Variant>
AV-unprocessed.smi:3181-14

> <Gold.Version>
5.8.1

> <Gold.Id.Protein>
6NUR|6NUR_protein|mol2

> <Gold.PLP.Fitness>
47.5651

> <Gold.PLP.PLP>
-39.6955

> <Gold.PLP.part.hbond>
-2.0000

> <Gold.PLP.part.metal>
0.0000

> <Gold.PLP.part.buried>
-7.0915

> <Gold.PLP.part.nonpolar>
-31.9606

> <Gold.PLP.part.repulsive>
0.1905

> <Gold.PLP.ligand.clash>
0.0000

> <Gold.PLP.ligand.torsion>
0.5769

> <Gold.PLP.Chemscore.Hbond>
3.0000

> <Gold.PLP.Chemscore.CHOScore>
0.0000

> <Gold.PLP.Chemscore.Metal>
0.0000

> <Gold.Chemscore.Hbonds>
donor molecule, donor type, donor heavy atom, donor atom, acceptor molecule, acceptor atom, score
      L1  H     9    42       P1  8029  1.98
      P1  H  6934  6946       L1     8  0.68

> <Gold.PLP.Chemscore.Internal.Correction>
0.0234

> <Gold.Rescore>
     Score         DG    S(hbond)    S(metal)    S(lipo)     H(rot)  DE(clash)    DE(int)     intcor
     16.65     -18.21       1.97        0.00      98.58       2.11       0.38       1.18       ----

> <Gold.Chemscore.Fitness>
16.6528

> <Gold.Chemscore.DG>
-18.2098

> <Gold.Chemscore.ZeroCoef>
-5.4800

> <Gold.Chemscore.Hbond>
1.9749

> <Gold.Chemscore.Metal>
0.0000

> <Gold.Chemscore.Lipo>
98.5817

> <Gold.Chemscore.Internal_Hbond>
0.0000

> <Gold.Chemscore.DEClash>
0.3791

> <Gold.Chemscore.DEInternal>
1.1779

> <Gold.Chemscore.Rot>
2.1095

> <Gold.Chemscore.Internal.Correction>
   9.000000E+99

> <Gold.Chemscore.Hbonds>
donor molecule, donor type, donor heavy atom, donor atom, acceptor molecule, acceptor atom, score
      L1  H     9    42       P1  8029  0.93
      P1  H  6934  6946       L1     8  0.15

> <Gold.Chemscore.Hbond.Weighted>
-6.5960

> <Gold.Chemscore.Metal.Weighted>
-0.0000

> <Gold.Chemscore.Lipo.Weighted>
-11.5341

> <Gold.Chemscore.Internal_Hbond.Weighted>
0.0000

> <Gold.Chemscore.DEClash.Weighted>
0.3791

> <Gold.Chemscore.DEInternal.Weighted>
1.1779

> <Gold.Chemscore.Rot.Weighted>
5.4003

> <Gold.Chemscore.Internal.Correction.Weighted>
   9.000000E+99

> <Gold.Protein.RotatedTorsions>
[ 6907 6896 6895 6894 ] final -173.77 input  -60.11 | X-H torsion
[ 7974 7965 7964 7962 ] final  133.76 input  175.53 | X-H torsion
[ 8008 7997 7996 7995 ] final -110.77 input   59.86 | X-H torsion
[ 10167 10162 10161 10158 ] final  -42.09 input  -65.29 | X-H torsion
[ 10718 10713 10712 10709 ] final  -28.13 input   66.30 | X-H torsion
[ 10763 10752 10751 10750 ] final -127.35 input  -60.55 | X-H torsion
[ 11005 11000 10999 10996 ] final   38.58 input  -57.11 | X-H torsion

> <Gold.Protein.ActiveResidues>
 VAL166  LYS551  ARG553  GLY616  TRP617  ASP618  TYR619  PRO620  LYS621  CYS622 
 ASP623  PHE694  ASN695  SER759  ASP760  ASP761  ALA762  ILE779  LEU786  VAL792 
 PHE793  MET794  SER795  GLU796  ALA797  LYS798  CYS799  TRP800  GLU811  SER814 

> <Gold.Protein.RotatedAtoms>
  151.5616  133.3402  159.2971 H   0  0  0  0  0  0  0  0  0  0  0  0  # atno 6907 bound_to 6896
  150.8419  134.7717  159.6950 H   0  0  0  0  0  0  0  0  0  0  0  0  # atno 6908 bound_to 6896
  152.4485  134.5451  159.9902 H   0  0  0  0  0  0  0  0  0  0  0  0  # atno 6909 bound_to 6896
  144.9832  139.4483  143.5376 H   0  0  0  0  0  0  0  0  0  0  0  0  # atno 7974 bound_to 7965
  154.9796  140.0396  157.2271 H   0  0  0  0  0  0  0  0  0  0  0  0  # atno 8008 bound_to 7997
  154.7726  140.2804  155.6103 H   0  0  0  0  0  0  0  0  0  0  0  0  # atno 8009 bound_to 7997
  156.2923  140.2607  156.2533 H   0  0  0  0  0  0  0  0  0  0  0  0  # atno 8010 bound_to 7997
  140.6981  143.3057  151.3160 H   0  0  0  0  0  0  0  0  0  0  0  0  # atno 10167 bound_to 10162
  156.4291  130.4441  149.7129 H   0  0  0  0  0  0  0  0  0  0  0  0  # atno 10718 bound_to 10713
  154.8752  135.3965  154.3580 H   0  0  0  0  0  0  0  0  0  0  0  0  # atno 10763 bound_to 10752
  153.4356  135.7026  153.6207 H   0  0  0  0  0  0  0  0  0  0  0  0  # atno 10764 bound_to 10752
  153.4810  135.3769  155.2411 H   0  0  0  0  0  0  0  0  0  0  0  0  # atno 10765 bound_to 10752
  140.2112  134.3752  155.8048 H   0  0  0  0  0  0  0  0  0  0  0  0  # atno 11005 bound_to 11000
  146.3413  139.9117  142.8779 LP  0  0  0  0  0  0  0  0  0  0  0  0  # atno 17320 bound_to 7965
  145.2391  141.0002  143.3946 LP  0  0  0  0  0  0  0  0  0  0  0  0  # atno 17321 bound_to 7965
  139.6462  144.0447  152.2592 LP  0  0  0  0  0  0  0  0  0  0  0  0  # atno 17342 bound_to 10162
  139.9969  144.6322  150.7765 LP  0  0  0  0  0  0  0  0  0  0  0  0  # atno 17343 bound_to 10162
  156.4039  130.7688  151.2698 LP  0  0  0  0  0  0  0  0  0  0  0  0  # atno 17370 bound_to 10713
  157.7508  131.0231  150.3821 LP  0  0  0  0  0  0  0  0  0  0  0  0  # atno 17371 bound_to 10713
  141.2226  133.7144  156.8421 LP  0  0  0  0  0  0  0  0  0  0  0  0  # atno 17394 bound_to 11000
  140.1948  134.8939  157.3102 LP  0  0  0  0  0  0  0  0  0  0  0  0  # atno 17395 bound_to 11000

$$$$
