AV-unprocessed.smi:255|AV-procd|sdf|1951|dock3
  -GOLD-   2262021 93D 1   1.00000     0.00000
 Structure written by MMmdl.
 44 47  0  0  0  0  0  0  0  0  1 V2000
  154.5389  140.2455  160.0285 O   0  0  0  0  0  0  0  0  0  0  0  0
  153.2560  140.1915  159.4406 C   0  0  0  0  0  0  0  0  0  0  0  0
  152.7754  141.6042  159.0539 C   0  0  2  0  0  0  0  0  0  0  0  0
  152.7516  142.5695  160.2399 C   0  0  0  0  0  0  0  0  0  0  0  0
  151.8188  143.6711  159.7470 C   0  0  1  0  0  0  0  0  0  0  0  0
  152.5038  144.5319  158.9926 F   0  0  0  0  0  0  0  0  0  0  0  0
  150.8072  142.9240  158.8707 C   0  0  0  0  0  0  0  0  0  0  0  0
  151.4027  141.6257  158.5541 N   0  0  0  0  0  0  0  0  0  0  0  0
  151.2668  141.1981  157.2782 C   0  0  0  0  0  0  0  0  0  0  0  0
  152.2975  140.5699  156.6526 N   0  0  0  0  0  0  0  0  0  0  0  0
  152.1491  140.1307  155.3991 C   0  0  0  0  0  0  0  0  0  0  0  0
  151.0764  140.2085  154.6081 N   0  0  0  0  0  0  0  0  0  0  0  0
  150.0383  140.8287  155.2395 C   0  0  0  0  0  0  0  0  0  0  0  0
  150.0510  141.3530  156.5618 C   0  0  0  0  0  0  0  0  0  0  0  0
  148.8185  141.9177  156.8645 N   0  0  0  0  0  0  0  0  0  0  0  0
  148.1142  141.7345  155.7809 C   0  0  0  0  0  0  0  0  0  0  0  0
  148.7657  141.0818  154.7580 N   0  0  0  0  0  0  0  0  0  0  0  0
  148.2204  140.7459  153.4518 C   0  0  0  0  0  0  0  0  0  0  0  0
  146.9585  139.8540  153.5214 C   0  0  1  0  0  0  0  0  0  0  0  0
  145.8579  140.6395  153.9444 O   0  0  0  0  0  0  0  0  0  0  0  0
  146.5930  139.1844  152.1986 C   0  0  0  0  0  0  0  0  0  0  0  0
  145.9990  137.8546  152.6410 C   0  0  0  0  0  0  0  0  0  0  0  0
  146.8374  137.4924  153.7242 O   0  0  0  0  0  0  0  0  0  0  0  0
  147.1073  138.6624  154.4890 C   0  0  0  0  0  0  0  0  0  0  0  0
  153.4441  142.0230  158.2989 H   0  0  0  0  0  0  0  0  0  0  0  0
  151.3543  144.2389  160.5533 H   0  0  0  0  0  0  0  0  0  0  0  0
  154.9783  141.0227  159.7192 H   0  0  0  0  0  0  0  0  0  0  0  0
  153.2537  139.5166  158.5842 H   0  0  0  0  0  0  0  0  0  0  0  0
  152.5863  139.7617  160.1859 H   0  0  0  0  0  0  0  0  0  0  0  0
  152.3168  142.0834  161.1148 H   0  0  0  0  0  0  0  0  0  0  0  0
  153.7418  142.9358  160.5125 H   0  0  0  0  0  0  0  0  0  0  0  0
  149.8962  142.7349  159.4392 H   0  0  0  0  0  0  0  0  0  0  0  0
  150.5217  143.5113  157.9969 H   0  0  0  0  0  0  0  0  0  0  0  0
  153.0125  139.6449  154.9692 H   0  0  0  0  0  0  0  0  0  0  0  0
  147.0908  142.0705  155.6994 H   0  0  0  0  0  0  0  0  0  0  0  0
  147.9903  141.6783  152.9343 H   0  0  0  0  0  0  0  0  0  0  0  0
  148.9998  140.2567  152.8660 H   0  0  0  0  0  0  0  0  0  0  0  0
  146.1786  141.4865  154.2138 H   0  0  0  0  0  0  0  0  0  0  0  0
  145.9175  139.7738  151.5766 H   0  0  0  0  0  0  0  0  0  0  0  0
  147.4924  138.9857  151.6146 H   0  0  0  0  0  0  0  0  0  0  0  0
  144.9729  137.9773  152.9914 H   0  0  0  0  0  0  0  0  0  0  0  0
  146.0097  137.1023  151.8522 H   0  0  0  0  0  0  0  0  0  0  0  0
  148.1084  138.5921  154.9156 H   0  0  0  0  0  0  0  0  0  0  0  0
  146.4031  138.7191  155.3209 H   0  0  0  0  0  0  0  0  0  0  0  0
  1  2  1  0  0  0  0
  1 27  1  0  0  0  0
  2  3  1  0  0  0  0
  2 28  1  0  0  0  0
  2 29  1  0  0  0  0
  3 25  1  0  0  0  0
  3  8  1  0  0  0  0
  3  4  1  0  0  0  0
  4  5  1  0  0  0  0
  4 30  1  0  0  0  0
  4 31  1  0  0  0  0
  5 26  1  0  0  0  0
  5  6  1  0  0  0  0
  5  7  1  0  0  0  0
  7  8  1  0  0  0  0
  7 32  1  0  0  0  0
  7 33  1  0  0  0  0
  8  9  1  0  0  0  0
  9 14  1  0  0  0  0
  9 10  2  0  0  0  0
 10 11  1  0  0  0  0
 11 12  2  0  0  0  0
 11 34  1  0  0  0  0
 12 13  1  0  0  0  0
 13 17  1  0  0  0  0
 13 14  2  0  0  0  0
 14 15  1  0  0  0  0
 15 16  2  0  0  0  0
 16 17  1  0  0  0  0
 16 35  1  0  0  0  0
 17 18  1  0  0  0  0
 18 19  1  0  0  0  0
 18 36  1  0  0  0  0
 18 37  1  0  0  0  0
 19 24  1  0  0  0  0
 19 20  1  0  0  0  0
 19 21  1  0  0  0  0
 20 38  1  0  0  0  0
 21 22  1  0  0  0  0
 21 39  1  0  0  0  0
 21 40  1  0  0  0  0
 22 23  1  0  0  0  0
 22 41  1  0  0  0  0
 22 42  1  0  0  0  0
 23 24  1  0  0  0  0
 24 43  1  0  0  0  0
 24 44  1  0  0  0  0
M  END
> <s_m_source_file>
AV-unprocessed.smi

> <i_m_source_file_index>
255

> <i_lp_mmshare_version>
43012

> <i_f3d_flags>
0

> <s_epik_input>
W09IXVtDSDJdW0NAQEhdMVtDSDJdW0NASF0oRilbQ0gyXU4xYyhuW2NIXW4yKWMoYzIzKW5bY0hdbjNbQ0gyXVtDQEBdNChbT0hdKVtDSDJdW0NIMl1PW0NIMl00

> <s_epik_cmdline>
J2VwaWtfcHl0aG9uJywgJy1waCcsICc3LjAnLCAnLXRuJywgJzgnLCAnLW1hJywgJzIwMCcsICctbWV0YWxfYmluZGluZycsICctaW1hZScsICc8aW5maWxlLm1hZT4nLCAnLW9tYWUnLCAnPG91dGZpbGUubWFlPic=

> <r_lp_tautomer_probability>
1

> <r_epik_Ionization_Penalty>
0.0058098

> <r_epik_Ionization_Penalty_Charging>
0

> <r_epik_Ionization_Penalty_Neutral>
0.0058098

> <r_epik_State_Penalty>
0.00411166

> <r_epik_Charging_Adjusted_Penalty>
0.00411166

> <i_epik_Tot_Q>
0

> <i_epik_Tot_abs_Q>
0

> <r_epik_Metal_State_Penalty>
-0

> <b_epik_Metal_Only>
0

> <s_lp_Force_Field>
OPLS_2005

> <r_lp_Energy>
53.4607

> <b_lp_Chiralities_Consistent>
1

> <s_lp_Variant>
AV-unprocessed.smi:255-3

> <Gold.Version>
5.8.1

> <Gold.Id.Protein>
6NUR|6NUR_protein|mol2

> <Gold.PLP.Fitness>
45.7070

> <Gold.PLP.PLP>
-42.3259

> <Gold.PLP.part.hbond>
-3.0000

> <Gold.PLP.part.metal>
0.0000

> <Gold.PLP.part.buried>
1.6503

> <Gold.PLP.part.nonpolar>
-40.4985

> <Gold.PLP.part.repulsive>
0.8639

> <Gold.PLP.ligand.clash>
0.0000

> <Gold.PLP.ligand.torsion>
0.5530

> <Gold.PLP.Chemscore.Hbond>
1.4547

> <Gold.PLP.Chemscore.CHOScore>
0.0000

> <Gold.PLP.Chemscore.Metal>
0.0000

> <Gold.Chemscore.Hbonds>
donor molecule, donor type, donor heavy atom, donor atom, acceptor molecule, acceptor atom, score
      P1  H  7989  7998       L1    12  0.68
      P1  H  7997  8008       L1    10  0.32

> <Gold.PLP.Chemscore.Internal.Correction>
0.1229

> <Gold.Rescore>
     Score         DG    S(hbond)    S(metal)    S(lipo)     H(rot)  DE(clash)    DE(int)     intcor
      6.68      -8.94       0.75        0.00      81.01       3.33       0.82       1.44       ----

> <Gold.Chemscore.Fitness>
6.6802

> <Gold.Chemscore.DG>
-8.9433

> <Gold.Chemscore.ZeroCoef>
-5.4800

> <Gold.Chemscore.Hbond>
0.7494

> <Gold.Chemscore.Metal>
0.0000

> <Gold.Chemscore.Lipo>
81.0099

> <Gold.Chemscore.Internal_Hbond>
0.0000

> <Gold.Chemscore.DEClash>
0.8227

> <Gold.Chemscore.DEInternal>
1.4405

> <Gold.Chemscore.Rot>
3.3273

> <Gold.Chemscore.Internal.Correction>
   9.000000E+99

> <Gold.Chemscore.Hbonds>
donor molecule, donor type, donor heavy atom, donor atom, acceptor molecule, acceptor atom, score
      P1  H  7989  7998       L1    12  0.17
      P1  H  7997  8008       L1    10  0.04

> <Gold.Chemscore.Hbond.Weighted>
-2.5031

> <Gold.Chemscore.Metal.Weighted>
-0.0000

> <Gold.Chemscore.Lipo.Weighted>
-9.4782

> <Gold.Chemscore.Internal_Hbond.Weighted>
0.0000

> <Gold.Chemscore.DEClash.Weighted>
0.8227

> <Gold.Chemscore.DEInternal.Weighted>
1.4405

> <Gold.Chemscore.Rot.Weighted>
8.5179

> <Gold.Chemscore.Internal.Correction.Weighted>
   9.000000E+99

> <Gold.Protein.RotatedTorsions>
[ 6907 6896 6895 6894 ] final  146.42 input  -60.11 | X-H torsion
[ 7974 7965 7964 7962 ] final   80.17 input  175.53 | X-H torsion
[ 8008 7997 7996 7995 ] final  -69.69 input   59.86 | X-H torsion
[ 10167 10162 10161 10158 ] final -125.33 input  -65.29 | X-H torsion
[ 10718 10713 10712 10709 ] final -119.30 input   66.30 | X-H torsion
[ 10763 10752 10751 10750 ] final -143.20 input  -60.55 | X-H torsion
[ 11005 11000 10999 10996 ] final  -68.79 input  -57.11 | X-H torsion

> <Gold.Protein.ActiveResidues>
 VAL166  LYS551  ARG553  GLY616  TRP617  ASP618  TYR619  PRO620  LYS621  CYS622 
 ASP623  PHE694  ASN695  SER759  ASP760  ASP761  ALA762  ILE779  LEU786  VAL792 
 PHE793  MET794  SER795  GLU796  ALA797  LYS798  CYS799  TRP800  GLU811  SER814 

> <Gold.Protein.RotatedAtoms>
  152.1681  133.4625  159.4894 H   0  0  0  0  0  0  0  0  0  0  0  0  # atno 6907 bound_to 6896
  150.6916  134.1988  159.4323 H   0  0  0  0  0  0  0  0  0  0  0  0  # atno 6908 bound_to 6896
  151.9893  134.9987  160.0611 H   0  0  0  0  0  0  0  0  0  0  0  0  # atno 6909 bound_to 6896
  145.6547  139.2456  143.1957 H   0  0  0  0  0  0  0  0  0  0  0  0  # atno 7974 bound_to 7965
  154.4957  140.0848  156.7691 H   0  0  0  0  0  0  0  0  0  0  0  0  # atno 8008 bound_to 7997
  155.4122  140.3442  155.4246 H   0  0  0  0  0  0  0  0  0  0  0  0  # atno 8009 bound_to 7997
  156.1390  140.1524  156.8937 H   0  0  0  0  0  0  0  0  0  0  0  0  # atno 8010 bound_to 7997
  139.9833  143.5719  152.2370 H   0  0  0  0  0  0  0  0  0  0  0  0  # atno 10167 bound_to 10162
  156.1171  130.6294  150.9400 H   0  0  0  0  0  0  0  0  0  0  0  0  # atno 10718 bound_to 10713
  154.8479  135.3474  154.6150 H   0  0  0  0  0  0  0  0  0  0  0  0  # atno 10763 bound_to 10752
  153.6758  135.6982  153.5137 H   0  0  0  0  0  0  0  0  0  0  0  0  # atno 10764 bound_to 10752
  153.2707  135.4294  155.0941 H   0  0  0  0  0  0  0  0  0  0  0  0  # atno 10765 bound_to 10752
  141.1540  133.6749  156.6499 H   0  0  0  0  0  0  0  0  0  0  0  0  # atno 11005 bound_to 11000
  146.1175  140.7351  142.9473 LP  0  0  0  0  0  0  0  0  0  0  0  0  # atno 17320 bound_to 7965
  144.7110  140.4038  143.7080 LP  0  0  0  0  0  0  0  0  0  0  0  0  # atno 17321 bound_to 7965
  139.6394  144.7653  151.2371 LP  0  0  0  0  0  0  0  0  0  0  0  0  # atno 17342 bound_to 10162
  140.7481  143.6343  150.8393 LP  0  0  0  0  0  0  0  0  0  0  0  0  # atno 17343 bound_to 10162
  157.6354  131.0916  150.8358 LP  0  0  0  0  0  0  0  0  0  0  0  0  # atno 17370 bound_to 10713
  156.8460  130.5064  149.5316 LP  0  0  0  0  0  0  0  0  0  0  0  0  # atno 17371 bound_to 10713
  140.3328  134.7914  157.4339 LP  0  0  0  0  0  0  0  0  0  0  0  0  # atno 17394 bound_to 11000
  140.1002  134.5482  155.8360 LP  0  0  0  0  0  0  0  0  0  0  0  0  # atno 17395 bound_to 11000

$$$$
