AV-unprocessed.smi:3150|AV-procd|sdf|12014|dock10
  -GOLD-   2272017423D 1   1.00000     0.00000
 Structure written by MMmdl.
 32 33  0  0  0  0  0  0  0  0  2 V2000
  147.9354  138.1057  156.8203 C   0  0  0  0  0  0  0  0  0  0  0  0
  149.2268  137.7575  157.5761 C   0  0  1  0  0  0  0  0  0  0  0  0
  149.5265  138.8492  158.4425 O   0  0  0  0  0  0  0  0  0  0  0  0
  149.6280  140.1185  157.8083 C   0  0  0  0  0  0  0  0  0  0  0  0
  150.7871  140.0869  156.8358 C   0  0  0  0  0  0  0  0  0  0  0  0
  151.0361  141.2561  155.9098 C   0  0  0  0  0  0  0  0  0  0  0  0
  150.5438  139.9459  155.3500 C   0  0  0  0  0  0  0  0  0  0  0  0
  149.0752  136.4584  158.3849 C   0  0  0  0  0  0  0  0  0  0  0  0
  149.6608  135.4383  158.0188 O   0  0  0  0  0  0  0  0  0  0  0  0
  148.2721  136.5367  159.4621 N   0  0  0  0  0  0  0  0  0  0  0  0
  147.9208  135.5170  160.3889 C   0  0  0  0  0  0  0  0  0  0  0  0
  147.9910  134.1948  160.0917 N   0  0  0  0  0  0  0  0  0  0  0  0
  147.6396  133.2877  161.0263 C   0  0  0  0  0  0  0  0  0  0  0  0
  147.1969  133.6388  162.3136 C   0  0  0  0  0  0  0  0  0  0  0  0
  147.1185  135.0047  162.6362 C   0  0  0  0  0  0  0  0  0  0  0  0
  147.4838  135.9590  161.6658 C   0  0  0  0  0  0  0  0  0  0  0  0
  147.4056  137.2889  161.9804 O   0  5  0  0  0  0  0  0  0  0  0  0
  147.6387  137.2983  156.1502 H   0  0  0  0  0  0  0  0  0  0  0  0
  148.0729  139.0016  156.2148 H   0  0  0  0  0  0  0  0  0  0  0  0
  147.1078  138.2962  157.5048 H   0  0  0  0  0  0  0  0  0  0  0  0
  150.0290  137.6455  156.8439 H   0  0  0  0  0  0  0  0  0  0  0  0
  148.7134  140.3761  157.2728 H   0  0  0  0  0  0  0  0  0  0  0  0
  149.8120  140.8968  158.5498 H   0  0  0  0  0  0  0  0  0  0  0  0
  151.6771  139.5979  157.2275 H   0  0  0  0  0  0  0  0  0  0  0  0
  150.3314  142.0849  155.9381 H   0  0  0  0  0  0  0  0  0  0  0  0
  152.0706  141.5301  155.7137 H   0  0  0  0  0  0  0  0  0  0  0  0
  151.2498  139.3436  154.7818 H   0  0  0  0  0  0  0  0  0  0  0  0
  149.5118  139.9008  155.0076 H   0  0  0  0  0  0  0  0  0  0  0  0
  147.8458  137.4342  159.6428 H   0  0  0  0  0  0  0  0  0  0  0  0
  147.7141  132.2497  160.7375 H   0  0  0  0  0  0  0  0  0  0  0  0
  146.9248  132.8814  163.0334 H   0  0  0  0  0  0  0  0  0  0  0  0
  146.7821  135.3139  163.6153 H   0  0  0  0  0  0  0  0  0  0  0  0
  1  2  1  0  0  0  0
  1 18  1  0  0  0  0
  1 19  1  0  0  0  0
  1 20  1  0  0  0  0
  2  3  1  0  0  0  0
  2  8  1  0  0  0  0
  2 21  1  0  0  0  0
  3  4  1  0  0  0  0
  4  5  1  0  0  0  0
  4 22  1  0  0  0  0
  4 23  1  0  0  0  0
  5  7  1  0  0  0  0
  5  6  1  0  0  0  0
  5 24  1  0  0  0  0
  6  7  1  0  0  0  0
  6 25  1  0  0  0  0
  6 26  1  0  0  0  0
  7 27  1  0  0  0  0
  7 28  1  0  0  0  0
  8  9  2  0  0  0  0
  8 10  1  0  0  0  0
 10 29  1  0  0  0  0
 10 11  1  0  0  0  0
 11 16  2  0  0  0  0
 11 12  1  0  0  0  0
 12 13  2  0  0  0  0
 13 30  1  0  0  0  0
 13 14  1  0  0  0  0
 14 31  1  0  0  0  0
 14 15  2  0  0  0  0
 15 16  1  0  0  0  0
 15 32  1  0  0  0  0
 16 17  1  0  0  0  0
M  CHG  1  17  -1
M  END
> <s_m_source_file>
AV-unprocessed.smi

> <i_m_source_file_index>
3150

> <i_lp_mmshare_version>
43012

> <i_f3d_flags>
0

> <s_epik_input>
W0NIMl0xW0NIMl1bQ0hdMVtDSDJdT1tDQEBIXShbQ0gzXSlDKD1PKVtOSF1jMm5bY0hdW2NIXVtjSF1jMltPSF0=

> <s_epik_cmdline>
J2VwaWtfcHl0aG9uJywgJy1waCcsICc3LjAnLCAnLXRuJywgJzgnLCAnLW1hJywgJzIwMCcsICctbWV0YWxfYmluZGluZycsICctaW1hZScsICc8aW5maWxlLm1hZT4nLCAnLW9tYWUnLCAnPG91dGZpbGUubWFlPic=

> <r_epik_Ionization_Penalty>
4.12024

> <r_epik_Ionization_Penalty_Charging>
2.08551

> <r_epik_Ionization_Penalty_Neutral>
2.03473

> <r_epik_State_Penalty>
2.65726

> <r_epik_Charging_Adjusted_Penalty>
4.74277

> <i_epik_Tot_Q>
-1

> <i_epik_Tot_abs_Q>
1

> <r_epik_Metal_State_Penalty>
0.600747

> <b_epik_Metal_Only>
0

> <s_lp_Force_Field>
OPLS_2005

> <r_lp_Energy>
13.8702

> <b_lp_Chiralities_Consistent>
1

> <s_lp_Variant>
AV-unprocessed.smi:3150-8

> <Gold.Version>
5.8.1

> <Gold.Id.Protein>
6NUR|6NUR_protein|mol2

> <Gold.PLP.Fitness>
40.4463

> <Gold.PLP.PLP>
-28.7128

> <Gold.PLP.part.hbond>
-3.0000

> <Gold.PLP.part.metal>
0.0000

> <Gold.PLP.part.buried>
-3.6446

> <Gold.PLP.part.nonpolar>
-21.5138

> <Gold.PLP.part.repulsive>
0.1691

> <Gold.PLP.ligand.clash>
0.0000

> <Gold.PLP.ligand.torsion>
0.6680

> <Gold.PLP.Chemscore.Hbond>
4.1600

> <Gold.PLP.Chemscore.CHOScore>
0.0000

> <Gold.PLP.Chemscore.Metal>
0.0000

> <Gold.Chemscore.Hbonds>
donor molecule, donor type, donor heavy atom, donor atom, acceptor molecule, acceptor atom, score
      P1  H  6896  6907       L1     9  0.99
      P1  H  6931  6943       L1    17  1.70
      P1  H  6934  6947       L1    17  1.38

> <Gold.PLP.Chemscore.Internal.Correction>
0.5895

> <Gold.Rescore>
     Score         DG    S(hbond)    S(metal)    S(lipo)     H(rot)  DE(clash)    DE(int)     intcor
     13.76     -15.67       2.32        0.00      56.60       1.64       0.03       1.88       ----

> <Gold.Chemscore.Fitness>
13.7625

> <Gold.Chemscore.DG>
-15.6713

> <Gold.Chemscore.ZeroCoef>
-5.4800

> <Gold.Chemscore.Hbond>
2.3247

> <Gold.Chemscore.Metal>
0.0000

> <Gold.Chemscore.Lipo>
56.5973

> <Gold.Chemscore.Internal_Hbond>
0.0000

> <Gold.Chemscore.DEClash>
0.0267

> <Gold.Chemscore.DEInternal>
1.8821

> <Gold.Chemscore.Rot>
1.6387

> <Gold.Chemscore.Internal.Correction>
   9.000000E+99

> <Gold.Chemscore.Hbonds>
donor molecule, donor type, donor heavy atom, donor atom, acceptor molecule, acceptor atom, score
      P1  H  6896  6907       L1     9  0.82
      P1  H  6931  6943       L1    17  0.80
      P1  H  6934  6947       L1    17  0.65

> <Gold.Chemscore.Hbond.Weighted>
-7.7645

> <Gold.Chemscore.Metal.Weighted>
-0.0000

> <Gold.Chemscore.Lipo.Weighted>
-6.6219

> <Gold.Chemscore.Internal_Hbond.Weighted>
0.0000

> <Gold.Chemscore.DEClash.Weighted>
0.0267

> <Gold.Chemscore.DEInternal.Weighted>
1.8821

> <Gold.Chemscore.Rot.Weighted>
4.1950

> <Gold.Chemscore.Internal.Correction.Weighted>
   9.000000E+99

> <Gold.Protein.RotatedTorsions>
[ 6907 6896 6895 6894 ] final  -84.57 input  -60.11 | X-H torsion
[ 7974 7965 7964 7962 ] final -155.95 input  175.53 | X-H torsion
[ 8008 7997 7996 7995 ] final  -60.89 input   59.86 | X-H torsion
[ 10167 10162 10161 10158 ] final  169.39 input  -65.29 | X-H torsion
[ 10718 10713 10712 10709 ] final  138.44 input   66.30 | X-H torsion
[ 10763 10752 10751 10750 ] final -120.96 input  -60.55 | X-H torsion
[ 11005 11000 10999 10996 ] final  -10.08 input  -57.11 | X-H torsion

> <Gold.Protein.ActiveResidues>
 VAL166  LYS551  ARG553  GLY616  TRP617  ASP618  TYR619  PRO620  LYS621  CYS622 
 ASP623  PHE694  ASN695  SER759  ASP760  ASP761  ALA762  ILE779  LEU786  VAL792 
 PHE793  MET794  SER795  GLU796  ALA797  LYS798  CYS799  TRP800  GLU811  SER814 

> <Gold.Protein.RotatedAtoms>
  150.6875  134.3338  159.4838 H   0  0  0  0  0  0  0  0  0  0  0  0  # atno 6907 bound_to 6896
  152.1199  134.9210  160.0572 H   0  0  0  0  0  0  0  0  0  0  0  0  # atno 6908 bound_to 6896
  152.0420  133.3947  159.4378 H   0  0  0  0  0  0  0  0  0  0  0  0  # atno 6909 bound_to 6896
  144.7615  140.4177  143.5973 H   0  0  0  0  0  0  0  0  0  0  0  0  # atno 7974 bound_to 7965
  154.4421  140.1029  156.6345 H   0  0  0  0  0  0  0  0  0  0  0  0  # atno 8008 bound_to 7997
  155.5568  140.3486  155.4463 H   0  0  0  0  0  0  0  0  0  0  0  0  # atno 8009 bound_to 7997
  156.0488  140.1299  157.0062 H   0  0  0  0  0  0  0  0  0  0  0  0  # atno 8010 bound_to 7997
  139.4991  144.3711  151.9724 H   0  0  0  0  0  0  0  0  0  0  0  0  # atno 10167 bound_to 10162
  157.4253  131.1043  151.0310 H   0  0  0  0  0  0  0  0  0  0  0  0  # atno 10718 bound_to 10713
  154.8657  135.4185  154.2543 H   0  0  0  0  0  0  0  0  0  0  0  0  # atno 10763 bound_to 10752
  153.3483  135.6997  153.6815 H   0  0  0  0  0  0  0  0  0  0  0  0  # atno 10764 bound_to 10752
  153.5765  135.3581  155.2831 H   0  0  0  0  0  0  0  0  0  0  0  0  # atno 10765 bound_to 10752
  140.7409  133.8671  155.8967 H   0  0  0  0  0  0  0  0  0  0  0  0  # atno 11005 bound_to 11000
  145.6603  139.1580  143.2812 LP  0  0  0  0  0  0  0  0  0  0  0  0  # atno 17320 bound_to 7965
  146.1683  140.6684  142.9245 LP  0  0  0  0  0  0  0  0  0  0  0  0  # atno 17321 bound_to 7965
  140.3147  144.3497  150.6025 LP  0  0  0  0  0  0  0  0  0  0  0  0  # atno 17342 bound_to 10162
  140.5771  143.2175  151.7496 LP  0  0  0  0  0  0  0  0  0  0  0  0  # atno 17343 bound_to 10162
  157.1226  130.6068  149.5509 LP  0  0  0  0  0  0  0  0  0  0  0  0  # atno 17370 bound_to 10713
  155.9894  130.4941  150.7213 LP  0  0  0  0  0  0  0  0  0  0  0  0  # atno 17371 bound_to 10713
  140.9837  134.1371  157.4471 LP  0  0  0  0  0  0  0  0  0  0  0  0  # atno 17394 bound_to 11000
  139.8806  135.0019  156.6093 LP  0  0  0  0  0  0  0  0  0  0  0  0  # atno 17395 bound_to 11000

$$$$
