AV-unprocessed.smi:158|AV-procd|sdf|1335|dock3
  -GOLD-   2262019 33D 1   1.00000     0.00000
 Structure written by MMmdl.
 31 33  0  0  0  0  0  0  0  0  1 V2000
  144.0211  141.9669  155.0598 N   0  0  0  0  0  0  0  0  0  0  0  0
  145.2443  142.0233  155.6046 C   0  0  0  0  0  0  0  0  0  0  0  0
  145.3838  142.6153  156.8136 N   0  0  0  0  0  0  0  0  0  0  0  0
  146.5878  142.6906  157.3932 C   0  0  0  0  0  0  0  0  0  0  0  0
  146.6541  143.4634  158.9331 Cl  0  0  0  0  0  0  0  0  0  0  0  0
  147.7480  142.2329  156.9128 N   0  0  0  0  0  0  0  0  0  0  0  0
  147.6140  141.6379  155.6923 C   0  0  0  0  0  0  0  0  0  0  0  0
  146.3967  141.4923  154.9747 C   0  0  0  0  0  0  0  0  0  0  0  0
  146.6295  140.8360  153.7739 N   0  0  0  0  0  0  0  0  0  0  0  0
  147.9159  140.6097  153.7852 C   0  0  0  0  0  0  0  0  0  0  0  0
  148.5874  141.0605  154.9005 N   0  0  0  0  0  0  0  0  0  0  0  0
  150.0523  140.9534  155.1827 C   0  0  2  0  0  0  0  0  0  0  0  0
  150.6051  140.0306  154.2957 O   0  0  0  0  0  0  0  0  0  0  0  0
  151.4918  139.1624  154.9883 C   0  0  2  0  0  0  0  0  0  0  0  0
  151.6466  137.8312  154.2319 C   0  0  0  0  0  0  0  0  0  0  0  0
  150.4218  137.1292  154.2153 O   0  0  0  0  0  0  0  0  0  0  0  0
  150.9391  139.0885  156.4198 C   0  0  2  0  0  0  0  0  0  0  0  0
  149.9940  138.0526  156.6049 O   0  0  0  0  0  0  0  0  0  0  0  0
  150.2900  140.4499  156.6146 C   0  0  1  0  0  0  0  0  0  0  0  0
  151.1458  141.2744  157.2203 F   0  0  0  0  0  0  0  0  0  0  0  0
  150.4451  141.9547  155.0008 H   0  0  0  0  0  0  0  0  0  0  0  0
  152.4568  139.6715  155.0193 H   0  0  0  0  0  0  0  0  0  0  0  0
  151.7415  138.9206  157.1392 H   0  0  0  0  0  0  0  0  0  0  0  0
  149.3739  140.4292  157.2076 H   0  0  0  0  0  0  0  0  0  0  0  0
  143.8917  141.5298  154.1586 H   0  0  0  0  0  0  0  0  0  0  0  0
  143.2312  142.3593  155.5516 H   0  0  0  0  0  0  0  0  0  0  0  0
  148.4160  140.1064  152.9703 H   0  0  0  0  0  0  0  0  0  0  0  0
  151.9975  137.9887  153.2116 H   0  0  0  0  0  0  0  0  0  0  0  0
  152.3910  137.2082  154.7280 H   0  0  0  0  0  0  0  0  0  0  0  0
  150.0737  137.1542  153.3368 H   0  0  0  0  0  0  0  0  0  0  0  0
  150.2025  137.3488  156.0097 H   0  0  0  0  0  0  0  0  0  0  0  0
  1  2  1  0  0  0  0
  1 25  1  0  0  0  0
  1 26  1  0  0  0  0
  2  8  1  0  0  0  0
  2  3  2  0  0  0  0
  3  4  1  0  0  0  0
  4  5  1  0  0  0  0
  4  6  2  0  0  0  0
  6  7  1  0  0  0  0
  7 11  1  0  0  0  0
  7  8  2  0  0  0  0
  8  9  1  0  0  0  0
  9 10  2  0  0  0  0
 10 11  1  0  0  0  0
 10 27  1  0  0  0  0
 11 12  1  0  0  0  0
 12 21  1  0  0  0  0
 12 19  1  0  0  0  0
 12 13  1  0  0  0  0
 13 14  1  0  0  0  0
 14 22  1  0  0  0  0
 14 15  1  0  0  0  0
 14 17  1  0  0  0  0
 15 16  1  0  0  0  0
 15 28  1  0  0  0  0
 15 29  1  0  0  0  0
 16 30  1  0  0  0  0
 17 23  1  0  0  0  0
 17 18  1  0  0  0  0
 17 19  1  0  0  0  0
 18 31  1  0  0  0  0
 19 24  1  0  0  0  0
 19 20  1  0  0  0  0
M  END
> <s_m_source_file>
AV-unprocessed.smi

> <i_m_source_file_index>
158

> <i_lp_mmshare_version>
43012

> <i_f3d_flags>
0

> <s_epik_input>
Q2xjKG4xKW5jKFtOSDJdKWMoYzEyKW5bY0hdbjJbQ0BASF0zT1tDQEhdKFtDSDJdW09IXSlbQ0BASF0oW09IXSlbQ0BASF0zRg==

> <s_epik_cmdline>
J2VwaWtfcHl0aG9uJywgJy1waCcsICc3LjAnLCAnLXRuJywgJzgnLCAnLW1hJywgJzIwMCcsICctbWV0YWxfYmluZGluZycsICctaW1hZScsICc8aW5maWxlLm1hZT4nLCAnLW9tYWUnLCAnPG91dGZpbGUubWFlPic=

> <r_lp_tautomer_probability>
1

> <r_epik_Ionization_Penalty>
6.51543e-05

> <r_epik_Ionization_Penalty_Charging>
0

> <r_epik_Ionization_Penalty_Neutral>
6.51543e-05

> <r_epik_State_Penalty>
-0

> <r_epik_Charging_Adjusted_Penalty>
0

> <i_epik_Tot_Q>
0

> <i_epik_Tot_abs_Q>
0

> <r_epik_Metal_State_Penalty>
-0

> <b_epik_Metal_Only>
0

> <s_epik_Chemistry_Notes>
This compound contains an acetal/aminal-like group ( X-CH(R)-Y where X, Y are N, S, or O) that may be acid/base labile, releasing an aldehyde.

> <s_lp_Force_Field>
OPLS_2005

> <r_lp_Energy>
34.1918

> <b_lp_Chiralities_Consistent>
1

> <s_lp_Variant>
AV-unprocessed.smi:158-13

> <Gold.Version>
5.8.1

> <Gold.Id.Protein>
6NUR|6NUR_protein|mol2

> <Gold.PLP.Fitness>
38.0721

> <Gold.PLP.PLP>
-27.0665

> <Gold.PLP.part.hbond>
-4.0890

> <Gold.PLP.part.metal>
0.0000

> <Gold.PLP.part.buried>
-3.5595

> <Gold.PLP.part.nonpolar>
-22.1646

> <Gold.PLP.part.repulsive>
1.2000

> <Gold.PLP.ligand.clash>
0.0000

> <Gold.PLP.ligand.torsion>
0.3367

> <Gold.PLP.Chemscore.Hbond>
2.8921

> <Gold.PLP.Chemscore.CHOScore>
1.0000

> <Gold.PLP.Chemscore.Metal>
0.0000

> <Gold.Chemscore.Hbonds>
donor molecule, donor type, donor heavy atom, donor atom, acceptor molecule, acceptor atom, score
      L1  H     1    25       P1 10175  0.85
      L1  H    16    30       P1  7948  0.88
      P1  H  7989  7998       L1    13  1.00
      L1  C    10    27       P1  7957  1.00

> <Gold.PLP.Chemscore.Internal.Correction>
0.0027

> <Gold.Rescore>
     Score         DG    S(hbond)    S(metal)    S(lipo)     H(rot)  DE(clash)    DE(int)     intcor
      6.73      -7.03       1.83        0.00      29.42       3.12       0.01       0.29       ----

> <Gold.Chemscore.Fitness>
6.7323

> <Gold.Chemscore.DG>
-7.0265

> <Gold.Chemscore.ZeroCoef>
-5.4800

> <Gold.Chemscore.Hbond>
1.8263

> <Gold.Chemscore.Metal>
0.0000

> <Gold.Chemscore.Lipo>
29.4151

> <Gold.Chemscore.Internal_Hbond>
0.0000

> <Gold.Chemscore.DEClash>
0.0063

> <Gold.Chemscore.DEInternal>
0.2879

> <Gold.Chemscore.Rot>
3.1230

> <Gold.Chemscore.Internal.Correction>
   9.000000E+99

> <Gold.Chemscore.Hbonds>
donor molecule, donor type, donor heavy atom, donor atom, acceptor molecule, acceptor atom, score
      L1  H     1    25       P1 10175  0.14
      L1  H    16    30       P1  7948  0.16
      P1  H  7989  7998       L1    13  0.11

> <Gold.Chemscore.Hbond.Weighted>
-6.0999

> <Gold.Chemscore.Metal.Weighted>
-0.0000

> <Gold.Chemscore.Lipo.Weighted>
-3.4416

> <Gold.Chemscore.Internal_Hbond.Weighted>
0.0000

> <Gold.Chemscore.DEClash.Weighted>
0.0063

> <Gold.Chemscore.DEInternal.Weighted>
0.2879

> <Gold.Chemscore.Rot.Weighted>
7.9950

> <Gold.Chemscore.Internal.Correction.Weighted>
   9.000000E+99

> <Gold.Protein.RotatedTorsions>
[ 6907 6896 6895 6894 ] final  175.30 input  -60.11 | X-H torsion
[ 7974 7965 7964 7962 ] final  145.77 input  175.53 | X-H torsion
[ 8008 7997 7996 7995 ] final  -90.86 input   59.86 | X-H torsion
[ 10167 10162 10161 10158 ] final -135.89 input  -65.29 | X-H torsion
[ 10718 10713 10712 10709 ] final   49.46 input   66.30 | X-H torsion
[ 10763 10752 10751 10750 ] final  137.62 input  -60.55 | X-H torsion
[ 11005 11000 10999 10996 ] final  129.06 input  -57.11 | X-H torsion

> <Gold.Protein.ActiveResidues>
 VAL166  LYS551  ARG553  GLY616  TRP617  ASP618  TYR619  PRO620  LYS621  CYS622 
 ASP623  PHE694  ASN695  SER759  ASP760  ASP761  ALA762  ILE779  LEU786  VAL792 
 PHE793  MET794  SER795  GLU796  ALA797  LYS798  CYS799  TRP800  GLU811  SER814 

> <Gold.Protein.RotatedAtoms>
  151.7385  133.3321  159.3359 H   0  0  0  0  0  0  0  0  0  0  0  0  # atno 6907 bound_to 6896
  150.7583  134.6299  159.6190 H   0  0  0  0  0  0  0  0  0  0  0  0  # atno 6908 bound_to 6896
  152.3546  134.6960  160.0277 H   0  0  0  0  0  0  0  0  0  0  0  0  # atno 6909 bound_to 6896
  144.8725  139.5824  143.5880 H   0  0  0  0  0  0  0  0  0  0  0  0  # atno 7974 bound_to 7965
  154.7036  140.0526  157.0482 H   0  0  0  0  0  0  0  0  0  0  0  0  # atno 8008 bound_to 7997
  155.0650  140.3193  155.4629 H   0  0  0  0  0  0  0  0  0  0  0  0  # atno 8009 bound_to 7997
  156.2768  140.2092  156.5777 H   0  0  0  0  0  0  0  0  0  0  0  0  # atno 8010 bound_to 7997
  139.8733  143.6930  152.2637 H   0  0  0  0  0  0  0  0  0  0  0  0  # atno 10167 bound_to 10162
  157.4788  130.8302  149.8070 H   0  0  0  0  0  0  0  0  0  0  0  0  # atno 10718 bound_to 10713
  153.8761  135.3050  155.3444 H   0  0  0  0  0  0  0  0  0  0  0  0  # atno 10763 bound_to 10752
  154.7783  135.4849  153.9794 H   0  0  0  0  0  0  0  0  0  0  0  0  # atno 10764 bound_to 10752
  153.1378  135.6818  153.9171 H   0  0  0  0  0  0  0  0  0  0  0  0  # atno 10765 bound_to 10752
  139.9595  134.9605  156.9093 H   0  0  0  0  0  0  0  0  0  0  0  0  # atno 11005 bound_to 11000
  146.2940  139.7222  142.9140 LP  0  0  0  0  0  0  0  0  0  0  0  0  # atno 17320 bound_to 7965
  145.4104  141.0396  143.3020 LP  0  0  0  0  0  0  0  0  0  0  0  0  # atno 17321 bound_to 7965
  139.7263  144.7592  151.0873 LP  0  0  0  0  0  0  0  0  0  0  0  0  # atno 17342 bound_to 10162
  140.7757  143.5143  150.9614 LP  0  0  0  0  0  0  0  0  0  0  0  0  # atno 17343 bound_to 10162
  156.0111  130.3833  150.2263 LP  0  0  0  0  0  0  0  0  0  0  0  0  # atno 17370 bound_to 10713
  157.0448  131.0046  151.3272 LP  0  0  0  0  0  0  0  0  0  0  0  0  # atno 17371 bound_to 10713
  140.5533  134.0606  155.7376 LP  0  0  0  0  0  0  0  0  0  0  0  0  # atno 17394 bound_to 11000
  141.1270  133.9366  157.2614 LP  0  0  0  0  0  0  0  0  0  0  0  0  # atno 17395 bound_to 11000

$$$$
