AV-unprocessed.smi:1661|AV-procd|sdf|6655|dock10
  -GOLD-   22720 7363D 1   1.00000     0.00000
 Structure written by MMmdl.
 37 38  0  0  0  0  0  0  0  0  3 V2000
  152.2401  145.1980  158.9650 C   0  0  0  0  0  0  0  0  0  0  0  0
  152.4586  143.6901  158.7773 C   0  0  2  0  0  0  0  0  0  0  0  0
  151.3423  143.0536  157.9326 C   0  0  0  0  0  0  0  0  0  0  0  0
  151.5533  141.5378  157.7783 C   0  0  0  0  0  0  0  0  0  0  0  0
  151.6438  140.8686  159.1019 N   0  3  1  0  0  0  0  0  0  0  0  0
  151.7141  139.3910  158.9788 C   0  0  0  0  0  0  0  0  0  0  0  0
  150.4823  138.8038  158.2728 C   0  0  0  0  0  0  0  0  0  0  0  0
  150.0042  137.6265  158.9834 N   0  0  0  0  0  0  0  0  0  0  0  0
  149.3029  136.6277  158.4319 C   0  0  0  0  0  0  0  0  0  0  0  0
  149.0208  136.6664  157.2322 O   0  0  0  0  0  0  0  0  0  0  0  0
  148.9744  135.6486  159.3041 N   0  5  0  0  0  0  0  0  0  0  0  0
  148.1254  135.9053  160.3131 C   0  0  0  0  0  0  0  0  0  0  0  0
  147.8616  137.1547  160.7287 N   0  0  0  0  0  0  0  0  0  0  0  0
  146.9625  137.2003  161.7856 N   0  0  0  0  0  0  0  0  0  0  0  0
  146.5752  135.9771  162.1468 C   0  0  0  0  0  0  0  0  0  0  0  0
  147.2765  134.6589  161.2321 S   0  0  0  0  0  0  0  0  0  0  0  0
  152.7405  141.4423  159.9267 C   0  0  0  0  0  0  0  0  0  0  0  0
  152.5528  142.9559  160.1253 C   0  0  0  0  0  0  0  0  0  0  0  0
  151.3060  145.4025  159.4893 H   0  0  0  0  0  0  0  0  0  0  0  0
  152.2015  145.7113  158.0038 H   0  0  0  0  0  0  0  0  0  0  0  0
  153.0507  145.6430  159.5429 H   0  0  0  0  0  0  0  0  0  0  0  0
  153.4040  143.5553  158.2495 H   0  0  0  0  0  0  0  0  0  0  0  0
  150.3729  143.2402  158.3974 H   0  0  0  0  0  0  0  0  0  0  0  0
  151.3068  143.5204  156.9475 H   0  0  0  0  0  0  0  0  0  0  0  0
  150.7216  141.1203  157.2095 H   0  0  0  0  0  0  0  0  0  0  0  0
  152.4609  141.3391  157.2059 H   0  0  0  0  0  0  0  0  0  0  0  0
  152.5953  139.1211  158.3947 H   0  0  0  0  0  0  0  0  0  0  0  0
  151.8484  138.9429  159.9646 H   0  0  0  0  0  0  0  0  0  0  0  0
  149.6721  139.5313  158.2254 H   0  0  0  0  0  0  0  0  0  0  0  0
  150.7331  138.5290  157.2470 H   0  0  0  0  0  0  0  0  0  0  0  0
  150.2148  137.5598  159.9686 H   0  0  0  0  0  0  0  0  0  0  0  0
  145.8754  135.8501  162.9591 H   0  0  0  0  0  0  0  0  0  0  0  0
  152.7728  140.9634  160.9045 H   0  0  0  0  0  0  0  0  0  0  0  0
  153.7003  141.2437  159.4472 H   0  0  0  0  0  0  0  0  0  0  0  0
  153.3831  143.3540  160.7097 H   0  0  0  0  0  0  0  0  0  0  0  0
  151.6495  143.1362  160.7103 H   0  0  0  0  0  0  0  0  0  0  0  0
  150.7770  141.0720  159.5793 H   0  0  0  0  0  0  0  0  0  0  0  0
  1  2  1  0  0  0  0
  1 19  1  0  0  0  0
  1 20  1  0  0  0  0
  1 21  1  0  0  0  0
  2 18  1  0  0  0  0
  2  3  1  0  0  0  0
  2 22  1  0  0  0  0
  3  4  1  0  0  0  0
  3 23  1  0  0  0  0
  3 24  1  0  0  0  0
  4  5  1  0  0  0  0
  4 25  1  0  0  0  0
  4 26  1  0  0  0  0
  5  6  1  0  0  0  0
  5 17  1  0  0  0  0
  5 37  1  0  0  0  0
  6  7  1  0  0  0  0
  6 27  1  0  0  0  0
  6 28  1  0  0  0  0
  7  8  1  0  0  0  0
  7 29  1  0  0  0  0
  7 30  1  0  0  0  0
  8  9  1  0  0  0  0
  8 31  1  0  0  0  0
  9 10  2  0  0  0  0
  9 11  1  0  0  0  0
 11 12  1  0  0  0  0
 12 16  1  0  0  0  0
 12 13  2  0  0  0  0
 13 14  1  0  0  0  0
 14 15  2  0  0  0  0
 15 16  1  0  0  0  0
 15 32  1  0  0  0  0
 17 18  1  0  0  0  0
 17 33  1  0  0  0  0
 17 34  1  0  0  0  0
 18 35  1  0  0  0  0
 18 36  1  0  0  0  0
M  CHG  1   5   1
M  CHG  1  11  -1
M  END
> <s_m_source_file>
AV-unprocessed.smi

> <i_m_source_file_index>
1661

> <i_lp_mmshare_version>
43012

> <i_f3d_flags>
0

> <s_epik_input>
W0NIM11bQ0hdMVtDSDJdW0NIMl1OKFtDSDJdW0NIMl0xKVtDSDJdW0NIMl1bTkhdQyg9TylbTkhdYzJubltjSF1zMg==

> <s_epik_cmdline>
J2VwaWtfcHl0aG9uJywgJy1waCcsICc3LjAnLCAnLXRuJywgJzgnLCAnLW1hJywgJzIwMCcsICctbWV0YWxfYmluZGluZycsICctaW1hZScsICc8aW5maWxlLm1hZT4nLCAnLW9tYWUnLCAnPG91dGZpbGUubWFlPic=

> <r_lp_tautomer_probability>
1

> <r_epik_Ionization_Penalty>
3.04466

> <r_epik_Ionization_Penalty_Charging>
3.01305

> <r_epik_Ionization_Penalty_Neutral>
0.0316037

> <r_epik_State_Penalty>
3.00821

> <r_epik_Charging_Adjusted_Penalty>
6.02127

> <i_epik_Tot_Q>
0

> <i_epik_Tot_abs_Q>
2

> <r_epik_Metal_State_Penalty>
0.454395

> <b_epik_Metal_Only>
1

> <s_lp_Force_Field>
OPLS_2005

> <r_lp_Energy>
9.82396

> <b_lp_Chiralities_Consistent>
1

> <s_lp_Variant>
AV-unprocessed.smi:1661-3

> <Gold.Version>
5.8.1

> <Gold.Id.Protein>
6NUR|6NUR_protein|mol2

> <Gold.PLP.Fitness>
43.6019

> <Gold.PLP.PLP>
-39.5133

> <Gold.PLP.part.hbond>
-5.0000

> <Gold.PLP.part.metal>
0.0000

> <Gold.PLP.part.buried>
-5.1368

> <Gold.PLP.part.nonpolar>
-29.8554

> <Gold.PLP.part.repulsive>
0.3743

> <Gold.PLP.ligand.clash>
0.0000

> <Gold.PLP.ligand.torsion>
1.2049

> <Gold.PLP.Chemscore.Hbond>
2.1488

> <Gold.PLP.Chemscore.CHOScore>
0.0000

> <Gold.PLP.Chemscore.Metal>
0.0000

> <Gold.Chemscore.Hbonds>
donor molecule, donor type, donor heavy atom, donor atom, acceptor molecule, acceptor atom, score
      P1  H  6896  6909       L1    11  2.00
      P1  H  6931  6943       L1    13  0.21

> <Gold.PLP.Chemscore.Internal.Correction>
0.0520

> <Gold.Rescore>
     Score         DG    S(hbond)    S(metal)    S(lipo)     H(rot)  DE(clash)    DE(int)     intcor
     12.51     -15.35       0.90        0.00      95.30       1.68       0.15       2.69       ----

> <Gold.Chemscore.Fitness>
12.5095

> <Gold.Chemscore.DG>
-15.3483

> <Gold.Chemscore.ZeroCoef>
-5.4800

> <Gold.Chemscore.Hbond>
0.9023

> <Gold.Chemscore.Metal>
0.0000

> <Gold.Chemscore.Lipo>
95.2952

> <Gold.Chemscore.Internal_Hbond>
0.0000

> <Gold.Chemscore.DEClash>
0.1462

> <Gold.Chemscore.DEInternal>
2.6926

> <Gold.Chemscore.Rot>
1.6777

> <Gold.Chemscore.Internal.Correction>
   9.000000E+99

> <Gold.Chemscore.Hbonds>
donor molecule, donor type, donor heavy atom, donor atom, acceptor molecule, acceptor atom, score
      P1  H  6896  6909       L1    11  0.37

> <Gold.Chemscore.Hbond.Weighted>
-3.0137

> <Gold.Chemscore.Metal.Weighted>
-0.0000

> <Gold.Chemscore.Lipo.Weighted>
-11.1495

> <Gold.Chemscore.Internal_Hbond.Weighted>
0.0000

> <Gold.Chemscore.DEClash.Weighted>
0.1462

> <Gold.Chemscore.DEInternal.Weighted>
2.6926

> <Gold.Chemscore.Rot.Weighted>
4.2950

> <Gold.Chemscore.Internal.Correction.Weighted>
   9.000000E+99

> <Gold.Protein.RotatedTorsions>
[ 6907 6896 6895 6894 ] final   62.75 input  -60.11 | X-H torsion
[ 7974 7965 7964 7962 ] final  136.55 input  175.53 | X-H torsion
[ 8008 7997 7996 7995 ] final -160.09 input   59.86 | X-H torsion
[ 10167 10162 10161 10158 ] final -138.51 input  -65.29 | X-H torsion
[ 10718 10713 10712 10709 ] final   36.90 input   66.30 | X-H torsion
[ 10763 10752 10751 10750 ] final    9.87 input  -60.55 | X-H torsion
[ 11005 11000 10999 10996 ] final   -7.90 input  -57.11 | X-H torsion

> <Gold.Protein.ActiveResidues>
 VAL166  LYS551  ARG553  GLY616  TRP617  ASP618  TYR619  PRO620  LYS621  CYS622 
 ASP623  PHE694  ASN695  SER759  ASP760  ASP761  ALA762  ILE779  LEU786  VAL792 
 PHE793  MET794  SER795  GLU796  ALA797  LYS798  CYS799  TRP800  GLU811  SER814 

> <Gold.Protein.RotatedAtoms>
  152.4198  134.5976  159.9991 H   0  0  0  0  0  0  0  0  0  0  0  0  # atno 6907 bound_to 6896
  151.6129  133.3340  159.3079 H   0  0  0  0  0  0  0  0  0  0  0  0  # atno 6908 bound_to 6896
  150.8086  134.7265  159.6733 H   0  0  0  0  0  0  0  0  0  0  0  0  # atno 6909 bound_to 6896
  144.9554  139.4770  143.5505 H   0  0  0  0  0  0  0  0  0  0  0  0  # atno 7974 bound_to 7965
  155.7722  140.0853  157.2102 H   0  0  0  0  0  0  0  0  0  0  0  0  # atno 8008 bound_to 7997
  154.3995  140.1523  156.3013 H   0  0  0  0  0  0  0  0  0  0  0  0  # atno 8009 bound_to 7997
  155.8735  140.3424  155.5841 H   0  0  0  0  0  0  0  0  0  0  0  0  # atno 8010 bound_to 7997
  139.8471  143.7247  152.2660 H   0  0  0  0  0  0  0  0  0  0  0  0  # atno 10167 bound_to 10162
  157.3404  130.7545  149.6908 H   0  0  0  0  0  0  0  0  0  0  0  0  # atno 10718 bound_to 10713
  153.2093  135.6867  153.8134 H   0  0  0  0  0  0  0  0  0  0  0  0  # atno 10763 bound_to 10752
  153.7372  135.3243  155.3298 H   0  0  0  0  0  0  0  0  0  0  0  0  # atno 10764 bound_to 10752
  154.8213  135.4650  154.0893 H   0  0  0  0  0  0  0  0  0  0  0  0  # atno 10765 bound_to 10752
  140.7177  133.8855  155.8797 H   0  0  0  0  0  0  0  0  0  0  0  0  # atno 11005 bound_to 11000
  146.3335  139.8668  142.8847 LP  0  0  0  0  0  0  0  0  0  0  0  0  # atno 17320 bound_to 7965
  145.2780  141.0130  143.3734 LP  0  0  0  0  0  0  0  0  0  0  0  0  # atno 17321 bound_to 7965
  139.7502  144.7536  151.0518 LP  0  0  0  0  0  0  0  0  0  0  0  0  # atno 17342 bound_to 10162
  140.7792  143.4869  150.9944 LP  0  0  0  0  0  0  0  0  0  0  0  0  # atno 17343 bound_to 10162
  155.9707  130.4169  150.4254 LP  0  0  0  0  0  0  0  0  0  0  0  0  # atno 17370 bound_to 10713
  157.2301  131.0502  151.2497 LP  0  0  0  0  0  0  0  0  0  0  0  0  # atno 17371 bound_to 10713
  141.0030  134.1124  157.4298 LP  0  0  0  0  0  0  0  0  0  0  0  0  # atno 17394 bound_to 11000
  139.8856  135.0073  156.6443 LP  0  0  0  0  0  0  0  0  0  0  0  0  # atno 17395 bound_to 11000

$$$$
