AV-unprocessed.smi:2189|AV-procd|sdf|8887|dock3
  -GOLD-   2272012 83D 1   1.00000     0.00000
 Structure written by MMmdl.
 39 41  0  0  0  0  0  0  0  0  3 V2000
  151.3089  139.7797  154.4281 O   0  0  0  0  0  0  0  0  0  0  0  0
  151.4407  139.4195  155.6051 C   0  0  0  0  0  0  0  0  0  0  0  0
  151.4078  138.1236  156.0441 N   0  5  0  0  0  0  0  0  0  0  0  0
  151.2296  136.9399  155.2003 C   0  0  0  0  0  0  0  0  0  0  0  0
  150.2222  135.9706  155.8570 C   0  0  0  0  0  0  0  0  0  0  0  0
  150.1483  134.5915  155.2075 C   0  0  0  0  0  0  0  0  0  0  0  0
  150.4918  133.4151  155.9120 C   0  0  0  0  0  0  0  0  0  0  0  0
  150.3998  132.1669  155.2631 C   0  0  0  0  0  0  0  0  0  0  0  0
  149.9741  132.1174  153.9197 C   0  0  0  0  0  0  0  0  0  0  0  0
  149.6495  133.3198  153.2593 C   0  0  0  0  0  0  0  0  0  0  0  0
  149.7494  134.4962  153.9158 N   0  3  0  0  0  0  0  0  0  0  0  0
  151.6202  140.4455  156.6478 C   0  0  0  0  0  0  0  0  0  0  0  0
  150.8433  141.5592  156.5989 C   0  0  0  0  0  0  0  0  0  0  0  0
  150.9458  142.6013  157.5897 C   0  0  0  0  0  0  0  0  0  0  0  0
  151.8575  142.4596  158.5577 C   0  0  0  0  0  0  0  0  0  0  0  0
  152.7079  141.3589  158.6515 N   0  0  0  0  0  0  0  0  0  0  0  0
  153.7133  141.3880  159.7083 C   0  0  0  0  0  0  0  0  0  0  0  0
  153.8474  140.0187  160.3491 C   0  0  0  0  0  0  0  0  0  0  0  0
  154.4540  138.9081  159.0290 S   0  0  0  0  0  0  0  0  0  0  0  0
  155.7484  139.4247  158.5572 O   0  0  0  0  0  0  0  0  0  0  0  0
  154.3657  137.5248  159.5208 O   0  0  0  0  0  0  0  0  0  0  0  0
  153.2915  139.1716  157.8525 N   0  0  0  0  0  0  0  0  0  0  0  0
  152.6038  140.2728  157.7368 C   0  0  0  0  0  0  0  0  0  0  0  0
  150.8731  137.1812  154.1979 H   0  0  0  0  0  0  0  0  0  0  0  0
  152.1749  136.4166  155.0567 H   0  0  0  0  0  0  0  0  0  0  0  0
  150.4850  135.8399  156.9073 H   0  0  0  0  0  0  0  0  0  0  0  0
  149.2269  136.4172  155.8541 H   0  0  0  0  0  0  0  0  0  0  0  0
  150.8099  133.4700  156.9430 H   0  0  0  0  0  0  0  0  0  0  0  0
  150.6512  131.2588  155.7906 H   0  0  0  0  0  0  0  0  0  0  0  0
  149.8955  131.1713  153.4046 H   0  0  0  0  0  0  0  0  0  0  0  0
  149.3127  133.3761  152.2347 H   0  0  0  0  0  0  0  0  0  0  0  0
  150.1254  141.7000  155.8035 H   0  0  0  0  0  0  0  0  0  0  0  0
  150.3046  143.4694  157.5513 H   0  0  0  0  0  0  0  0  0  0  0  0
  151.9822  143.2066  159.3280 H   0  0  0  0  0  0  0  0  0  0  0  0
  154.6655  141.7188  159.2924 H   0  0  0  0  0  0  0  0  0  0  0  0
  153.4417  142.1106  160.4785 H   0  0  0  0  0  0  0  0  0  0  0  0
  154.5691  140.0206  161.1655 H   0  0  0  0  0  0  0  0  0  0  0  0
  152.8944  139.6464  160.7268 H   0  0  0  0  0  0  0  0  0  0  0  0
  149.5019  135.3535  153.4212 H   0  0  0  0  0  0  0  0  0  0  0  0
  1  2  2  0  0  0  0
  2  3  1  0  0  0  0
  2 12  1  0  0  0  0
  3  4  1  0  0  0  0
  4  5  1  0  0  0  0
  4 24  1  0  0  0  0
  4 25  1  0  0  0  0
  5  6  1  0  0  0  0
  5 26  1  0  0  0  0
  5 27  1  0  0  0  0
  6 11  1  0  0  0  0
  6  7  2  0  0  0  0
  7  8  1  0  0  0  0
  7 28  1  0  0  0  0
  8  9  2  0  0  0  0
  8 29  1  0  0  0  0
  9 10  1  0  0  0  0
  9 30  1  0  0  0  0
 10 11  2  0  0  0  0
 10 31  1  0  0  0  0
 11 39  1  0  0  0  0
 12 23  1  0  0  0  0
 12 13  2  0  0  0  0
 13 14  1  0  0  0  0
 13 32  1  0  0  0  0
 14 15  2  0  0  0  0
 14 33  1  0  0  0  0
 15 16  1  0  0  0  0
 15 34  1  0  0  0  0
 16 23  1  0  0  0  0
 16 17  1  0  0  0  0
 17 18  1  0  0  0  0
 17 35  1  0  0  0  0
 17 36  1  0  0  0  0
 18 19  1  0  0  0  0
 18 37  1  0  0  0  0
 18 38  1  0  0  0  0
 19 20  2  0  0  0  0
 19 21  2  0  0  0  0
 19 22  1  0  0  0  0
 22 23  2  0  0  0  0
M  CHG  1   3  -1
M  CHG  1  11   1
M  END
> <s_m_source_file>
AV-unprocessed.smi

> <i_m_source_file_index>
2189

> <i_lp_mmshare_version>
43012

> <i_f3d_flags>
0

> <s_epik_input>
W0NIMl0xW0NIMl1TKD1PKSg9TylOPUMoTjEyKUMoPVtDSF1bQ0hdPVtDSF0yKUMoPU8pW05IXVtDSDJdW0NIMl1jM1tjSF1bY0hdW2NIXVtjSF1uMw==

> <s_epik_cmdline>
J2VwaWtfcHl0aG9uJywgJy1waCcsICc3LjAnLCAnLXRuJywgJzgnLCAnLW1hJywgJzIwMCcsICctbWV0YWxfYmluZGluZycsICctaW1hZScsICc8aW5maWxlLm1hZT4nLCAnLW9tYWUnLCAnPG91dGZpbGUubWFlPic=

> <r_epik_Ionization_Penalty>
6.52844

> <r_epik_Ionization_Penalty_Charging>
6.52844

> <r_epik_Ionization_Penalty_Neutral>
1.18271e-13

> <r_epik_State_Penalty>
7.49351

> <r_epik_Charging_Adjusted_Penalty>
14.0219

> <i_epik_Tot_Q>
0

> <i_epik_Tot_abs_Q>
2

> <r_epik_Metal_State_Penalty>
3.53414

> <b_epik_Metal_Only>
1

> <s_lp_Force_Field>
OPLS_2005

> <r_lp_Energy>
35.7172

> <b_lp_Chiralities_Consistent>
1

> <s_lp_Variant>
AV-unprocessed.smi:2189-4

> <Gold.Version>
5.8.1

> <Gold.Id.Protein>
6NUR|6NUR_protein|mol2

> <Gold.PLP.Fitness>
49.1802

> <Gold.PLP.PLP>
-38.6225

> <Gold.PLP.part.hbond>
-4.0000

> <Gold.PLP.part.metal>
0.0000

> <Gold.PLP.part.buried>
-3.1469

> <Gold.PLP.part.nonpolar>
-31.0900

> <Gold.PLP.part.repulsive>
0.1387

> <Gold.PLP.ligand.clash>
0.0000

> <Gold.PLP.ligand.torsion>
0.8397

> <Gold.PLP.Chemscore.Hbond>
3.9520

> <Gold.PLP.Chemscore.CHOScore>
0.0000

> <Gold.PLP.Chemscore.Metal>
0.0000

> <Gold.Chemscore.Hbonds>
donor molecule, donor type, donor heavy atom, donor atom, acceptor molecule, acceptor atom, score
      L1  H    11    39       P1  7948  1.37
      P1  H  7989  7998       L1     1  0.83
      P1  H  7997  8009       L1    20  0.60

> <Gold.PLP.Chemscore.Internal.Correction>
0.3811

> <Gold.Rescore>
     Score         DG    S(hbond)    S(metal)    S(lipo)     H(rot)  DE(clash)    DE(int)     intcor
     17.81     -20.10       2.65        0.00      82.43       1.51       0.09       2.20       ----

> <Gold.Chemscore.Fitness>
17.8104

> <Gold.Chemscore.DG>
-20.0995

> <Gold.Chemscore.ZeroCoef>
-5.4800

> <Gold.Chemscore.Hbond>
2.6476

> <Gold.Chemscore.Metal>
0.0000

> <Gold.Chemscore.Lipo>
82.4317

> <Gold.Chemscore.Internal_Hbond>
0.0000

> <Gold.Chemscore.DEClash>
0.0874

> <Gold.Chemscore.DEInternal>
2.2016

> <Gold.Chemscore.Rot>
1.5109

> <Gold.Chemscore.Internal.Correction>
   9.000000E+99

> <Gold.Chemscore.Hbonds>
donor molecule, donor type, donor heavy atom, donor atom, acceptor molecule, acceptor atom, score
      L1  H    11    39       P1  7948  0.07
      P1  H  7989  7998       L1     1  0.82
      P1  H  7997  8009       L1    20  0.45

> <Gold.Chemscore.Hbond.Weighted>
-8.8430

> <Gold.Chemscore.Metal.Weighted>
-0.0000

> <Gold.Chemscore.Lipo.Weighted>
-9.6445

> <Gold.Chemscore.Internal_Hbond.Weighted>
0.0000

> <Gold.Chemscore.DEClash.Weighted>
0.0874

> <Gold.Chemscore.DEInternal.Weighted>
2.2016

> <Gold.Chemscore.Rot.Weighted>
3.8680

> <Gold.Chemscore.Internal.Correction.Weighted>
   9.000000E+99

> <Gold.Protein.RotatedTorsions>
[ 6907 6896 6895 6894 ] final  -45.99 input  -60.11 | X-H torsion
[ 7974 7965 7964 7962 ] final -176.02 input  175.53 | X-H torsion
[ 8008 7997 7996 7995 ] final   91.96 input   59.86 | X-H torsion
[ 10167 10162 10161 10158 ] final   84.01 input  -65.29 | X-H torsion
[ 10718 10713 10712 10709 ] final  -27.21 input   66.30 | X-H torsion
[ 10763 10752 10751 10750 ] final  124.69 input  -60.55 | X-H torsion
[ 11005 11000 10999 10996 ] final  168.75 input  -57.11 | X-H torsion

> <Gold.Protein.ActiveResidues>
 VAL166  LYS551  ARG553  GLY616  TRP617  ASP618  TYR619  PRO620  LYS621  CYS622 
 ASP623  PHE694  ASN695  SER759  ASP760  ASP761  ALA762  ILE779  LEU786  VAL792 
 PHE793  MET794  SER795  GLU796  ALA797  LYS798  CYS799  TRP800  GLU811  SER814 

> <Gold.Protein.RotatedAtoms>
  150.9160  134.8577  159.7456 H   0  0  0  0  0  0  0  0  0  0  0  0  # atno 6907 bound_to 6896
  152.4968  134.4289  159.9515 H   0  0  0  0  0  0  0  0  0  0  0  0  # atno 6908 bound_to 6896
  151.4327  133.3626  159.2806 H   0  0  0  0  0  0  0  0  0  0  0  0  # atno 6909 bound_to 6896
  144.7127  140.1233  143.6403 H   0  0  0  0  0  0  0  0  0  0  0  0  # atno 7974 bound_to 7965
  156.0298  140.3331  155.7128 H   0  0  0  0  0  0  0  0  0  0  0  0  # atno 8008 bound_to 7997
  155.5901  140.0645  157.2778 H   0  0  0  0  0  0  0  0  0  0  0  0  # atno 8009 bound_to 7997
  154.4349  140.1829  156.1053 H   0  0  0  0  0  0  0  0  0  0  0  0  # atno 8010 bound_to 7997
  139.9125  144.6263  150.8523 H   0  0  0  0  0  0  0  0  0  0  0  0  # atno 10167 bound_to 10162
  156.4411  130.4464  149.7052 H   0  0  0  0  0  0  0  0  0  0  0  0  # atno 10718 bound_to 10713
  153.6653  135.3339  155.3138 H   0  0  0  0  0  0  0  0  0  0  0  0  # atno 10763 bound_to 10752
  154.8504  135.4373  154.1761 H   0  0  0  0  0  0  0  0  0  0  0  0  # atno 10764 bound_to 10752
  153.2739  135.7003  153.7529 H   0  0  0  0  0  0  0  0  0  0  0  0  # atno 10765 bound_to 10752
  140.2905  134.7677  157.3835 H   0  0  0  0  0  0  0  0  0  0  0  0  # atno 11005 bound_to 11000
  145.9351  139.2632  143.1302 LP  0  0  0  0  0  0  0  0  0  0  0  0  # atno 17320 bound_to 7965
  145.9482  140.8929  143.0273 LP  0  0  0  0  0  0  0  0  0  0  0  0  # atno 17321 bound_to 7965
  140.7682  143.3356  151.2317 LP  0  0  0  0  0  0  0  0  0  0  0  0  # atno 17342 bound_to 10162
  139.6931  143.9659  152.2869 LP  0  0  0  0  0  0  0  0  0  0  0  0  # atno 17343 bound_to 10162
  156.3917  130.7630  151.2631 LP  0  0  0  0  0  0  0  0  0  0  0  0  # atno 17370 bound_to 10713
  157.7506  131.0266  150.3969 LP  0  0  0  0  0  0  0  0  0  0  0  0  # atno 17371 bound_to 10713
  140.1199  134.5233  155.8192 LP  0  0  0  0  0  0  0  0  0  0  0  0  # atno 17394 bound_to 11000
  141.2147  133.6753  156.6847 LP  0  0  0  0  0  0  0  0  0  0  0  0  # atno 17395 bound_to 11000

$$$$
