AV-unprocessed.smi:16|AV-procd|sdf|95|dock3
  -GOLD-   2262015243D 1   1.00000     0.00000
 Structure written by MMmdl.
 59 63  0  0  0  0  0  0  0  0  1 V2000
  153.2391  142.3014  162.0350 C   0  0  0  0  0  0  0  0  0  0  0  0
  153.1808  141.6341  160.6519 C   0  0  0  0  0  0  0  0  0  0  0  0
  151.8659  141.7705  160.0264 N   0  0  0  0  0  0  0  0  0  0  0  0
  151.7437  143.1238  159.4792 C   0  0  0  0  0  0  0  0  0  0  0  0
  150.3348  143.3473  158.9039 C   0  0  0  0  0  0  0  0  0  0  0  0
  150.0029  142.3210  157.8137 C   0  0  1  0  0  0  0  0  0  0  0  0
  150.7947  142.5798  156.6564 O   0  0  0  0  0  0  0  0  0  0  0  0
  150.4826  141.6942  155.5868 C   0  0  0  0  0  0  0  0  0  0  0  0
  150.7740  140.2458  156.0098 C   0  0  0  0  0  0  0  0  0  0  0  0
  150.0691  139.9303  157.2522 N   0  0  0  0  0  0  0  0  0  0  0  0
  149.9758  138.6243  157.6195 C   0  0  0  0  0  0  0  0  0  0  0  0
  149.9711  138.2969  158.9402 N   0  0  0  0  0  0  0  0  0  0  0  0
  149.8742  137.0209  159.3225 C   0  0  0  0  0  0  0  0  0  0  0  0
  149.7746  135.9287  158.5637 N   0  0  0  0  0  0  0  0  0  0  0  0
  149.7816  136.2456  157.2375 C   0  0  0  0  0  0  0  0  0  0  0  0
  149.8833  137.5540  156.6832 C   0  0  0  0  0  0  0  0  0  0  0  0
  149.8918  137.4745  155.2951 N   0  0  0  0  0  0  0  0  0  0  0  0
  149.7939  136.1977  155.0447 C   0  0  0  0  0  0  0  0  0  0  0  0
  149.6976  135.3887  156.1537 N   0  0  0  0  0  0  0  0  0  0  0  0
  149.6361  133.9563  156.1686 C   0  0  0  0  0  0  0  0  0  0  0  0
  150.5837  133.1067  155.3149 C   0  0  0  0  0  0  0  0  0  0  0  0
  149.4714  132.0423  155.1675 C   0  0  0  0  0  0  0  0  0  0  0  0
  149.3444  131.3587  153.7921 C   0  0  0  0  0  0  0  0  0  0  0  0
  148.7964  132.2121  152.8077 O   0  0  0  0  0  0  0  0  0  0  0  0
  149.5256  130.9239  156.2261 C   0  0  0  0  0  0  0  0  0  0  0  0
  150.6012  130.0374  155.9922 O   0  0  0  0  0  0  0  0  0  0  0  0
  148.4966  133.2024  155.4764 C   0  0  0  0  0  0  0  0  0  0  0  0
  150.2801  140.8955  158.3340 C   0  0  1  0  0  0  0  0  0  0  0  0
  151.6982  140.7953  158.9443 C   0  0  0  0  0  0  0  0  0  0  0  0
  148.9495  142.4225  157.5462 H   0  0  0  0  0  0  0  0  0  0  0  0
  149.5644  140.7055  159.1320 H   0  0  0  0  0  0  0  0  0  0  0  0
  154.2612  142.2993  162.4136 H   0  0  0  0  0  0  0  0  0  0  0  0
  152.6253  141.7843  162.7716 H   0  0  0  0  0  0  0  0  0  0  0  0
  152.9093  143.3396  161.9871 H   0  0  0  0  0  0  0  0  0  0  0  0
  153.9236  142.1226  160.0197 H   0  0  0  0  0  0  0  0  0  0  0  0
  153.4681  140.5835  160.7155 H   0  0  0  0  0  0  0  0  0  0  0  0
  151.9224  143.8563  160.2674 H   0  0  0  0  0  0  0  0  0  0  0  0
  152.5003  143.2908  158.7109 H   0  0  0  0  0  0  0  0  0  0  0  0
  149.6021  143.2706  159.7083 H   0  0  0  0  0  0  0  0  0  0  0  0
  150.2478  144.3580  158.5048 H   0  0  0  0  0  0  0  0  0  0  0  0
  149.4369  141.8102  155.2978 H   0  0  0  0  0  0  0  0  0  0  0  0
  151.0842  141.9592  154.7174 H   0  0  0  0  0  0  0  0  0  0  0  0
  150.4576  139.5685  155.2154 H   0  0  0  0  0  0  0  0  0  0  0  0
  151.8466  140.1029  156.1460 H   0  0  0  0  0  0  0  0  0  0  0  0
  149.8764  136.8509  160.3889 H   0  0  0  0  0  0  0  0  0  0  0  0
  149.7901  135.8102  154.0363 H   0  0  0  0  0  0  0  0  0  0  0  0
  149.7026  133.6685  157.2191 H   0  0  0  0  0  0  0  0  0  0  0  0
  150.8495  133.5995  154.3783 H   0  0  0  0  0  0  0  0  0  0  0  0
  151.4771  132.7661  155.8392 H   0  0  0  0  0  0  0  0  0  0  0  0
  150.3178  131.0195  153.4360 H   0  0  0  0  0  0  0  0  0  0  0  0
  148.7059  130.4768  153.8504 H   0  0  0  0  0  0  0  0  0  0  0  0
  149.1529  131.9683  151.9672 H   0  0  0  0  0  0  0  0  0  0  0  0
  149.6260  131.3386  157.2298 H   0  0  0  0  0  0  0  0  0  0  0  0
  148.6073  130.3366  156.2315 H   0  0  0  0  0  0  0  0  0  0  0  0
  150.4074  129.2127  156.4110 H   0  0  0  0  0  0  0  0  0  0  0  0
  147.6655  132.9462  156.1343 H   0  0  0  0  0  0  0  0  0  0  0  0
  148.1386  133.7218  154.5859 H   0  0  0  0  0  0  0  0  0  0  0  0
  152.4625  140.9554  158.1827 H   0  0  0  0  0  0  0  0  0  0  0  0
  151.8406  139.7863  159.3287 H   0  0  0  0  0  0  0  0  0  0  0  0
  1  2  1  0  0  0  0
  1 32  1  0  0  0  0
  1 33  1  0  0  0  0
  1 34  1  0  0  0  0
  2  3  1  0  0  0  0
  2 35  1  0  0  0  0
  2 36  1  0  0  0  0
  3 29  1  0  0  0  0
  3  4  1  0  0  0  0
  4  5  1  0  0  0  0
  4 37  1  0  0  0  0
  4 38  1  0  0  0  0
  5  6  1  0  0  0  0
  5 39  1  0  0  0  0
  5 40  1  0  0  0  0
  6 30  1  0  0  0  0
  6 28  1  0  0  0  0
  6  7  1  0  0  0  0
  7  8  1  0  0  0  0
  8  9  1  0  0  0  0
  8 41  1  0  0  0  0
  8 42  1  0  0  0  0
  9 10  1  0  0  0  0
  9 43  1  0  0  0  0
  9 44  1  0  0  0  0
 10 11  1  0  0  0  0
 10 28  1  0  0  0  0
 11 16  1  0  0  0  0
 11 12  2  0  0  0  0
 12 13  1  0  0  0  0
 13 14  2  0  0  0  0
 13 45  1  0  0  0  0
 14 15  1  0  0  0  0
 15 19  1  0  0  0  0
 15 16  2  0  0  0  0
 16 17  1  0  0  0  0
 17 18  2  0  0  0  0
 18 19  1  0  0  0  0
 18 46  1  0  0  0  0
 19 20  1  0  0  0  0
 20 27  1  0  0  0  0
 20 21  1  0  0  0  0
 20 47  1  0  0  0  0
 21 22  1  0  0  0  0
 21 48  1  0  0  0  0
 21 49  1  0  0  0  0
 22 23  1  0  0  0  0
 22 25  1  0  0  0  0
 22 27  1  0  0  0  0
 23 24  1  0  0  0  0
 23 50  1  0  0  0  0
 23 51  1  0  0  0  0
 24 52  1  0  0  0  0
 25 26  1  0  0  0  0
 25 53  1  0  0  0  0
 25 54  1  0  0  0  0
 26 55  1  0  0  0  0
 27 56  1  0  0  0  0
 27 57  1  0  0  0  0
 28 31  1  0  0  0  0
 28 29  1  0  0  0  0
 29 58  1  0  0  0  0
 29 59  1  0  0  0  0
M  END
> <s_m_source_file>
AV-unprocessed.smi

> <i_m_source_file_index>
16

> <i_lp_mmshare_version>
43012

> <i_f3d_flags>
0

> <s_epik_input>
W0NIM11bQ0gyXU4oW0NIMl1bQ0gyXTEpW0NIMl1bQ0BASF0oW0NAQEhdMTIpTihbQ0gyXVtDSDJdTzIpYyhuW2NIXW4zKWMoYzM0KW5bY0hdbjRbQ0hdKFtDSDJdNSlbQ0gyXUM1KFtDSDJdW09IXSlbQ0gyXVtPSF0=

> <s_epik_cmdline>
J2VwaWtfcHl0aG9uJywgJy1waCcsICc3LjAnLCAnLXRuJywgJzgnLCAnLW1hJywgJzIwMCcsICctbWV0YWxfYmluZGluZycsICctaW1hZScsICc8aW5maWxlLm1hZT4nLCAnLW9tYWUnLCAnPG91dGZpbGUubWFlPic=

> <r_lp_tautomer_probability>
1

> <r_epik_Ionization_Penalty>
2.27341

> <r_epik_Ionization_Penalty_Charging>
0

> <r_epik_Ionization_Penalty_Neutral>
2.27341

> <r_epik_State_Penalty>
2.41121

> <r_epik_Charging_Adjusted_Penalty>
2.41121

> <i_epik_Tot_Q>
0

> <i_epik_Tot_abs_Q>
0

> <r_epik_Metal_State_Penalty>
2.40177

> <b_epik_Metal_Only>
0

> <s_lp_Force_Field>
OPLS_2005

> <r_lp_Energy>
57.2914

> <b_lp_Chiralities_Consistent>
1

> <s_lp_Variant>
AV-unprocessed.smi:16-9

> <Gold.Version>
5.8.1

> <Gold.Id.Protein>
6NUR|6NUR_protein|mol2

> <Gold.PLP.Fitness>
45.9446

> <Gold.PLP.PLP>
-38.2781

> <Gold.PLP.part.hbond>
-2.4579

> <Gold.PLP.part.metal>
0.0000

> <Gold.PLP.part.buried>
-6.3713

> <Gold.PLP.part.nonpolar>
-29.5432

> <Gold.PLP.part.repulsive>
0.8344

> <Gold.PLP.ligand.clash>
0.0000

> <Gold.PLP.ligand.torsion>
1.1392

> <Gold.PLP.Chemscore.Hbond>
2.0000

> <Gold.PLP.Chemscore.CHOScore>
1.0000

> <Gold.PLP.Chemscore.Metal>
0.0000

> <Gold.Chemscore.Hbonds>
donor molecule, donor type, donor heavy atom, donor atom, acceptor molecule, acceptor atom, score
      L1  H    24    52       P1 10747  0.99
      P1  H  6896  6908       L1    14  1.00
      L1  C    18    46       P1  7948  0.97

> <Gold.PLP.Chemscore.Internal.Correction>
0.9450

> <Gold.Rescore>
     Score         DG    S(hbond)    S(metal)    S(lipo)     H(rot)  DE(clash)    DE(int)     intcor
      8.99     -12.29       1.16        0.00      96.93       3.28       0.28       3.02       ----

> <Gold.Chemscore.Fitness>
8.9929

> <Gold.Chemscore.DG>
-12.2903

> <Gold.Chemscore.ZeroCoef>
-5.4800

> <Gold.Chemscore.Hbond>
1.1556

> <Gold.Chemscore.Metal>
0.0000

> <Gold.Chemscore.Lipo>
96.9343

> <Gold.Chemscore.Internal_Hbond>
0.0000

> <Gold.Chemscore.DEClash>
0.2782

> <Gold.Chemscore.DEInternal>
3.0192

> <Gold.Chemscore.Rot>
3.2776

> <Gold.Chemscore.Internal.Correction>
   9.000000E+99

> <Gold.Chemscore.Hbonds>
donor molecule, donor type, donor heavy atom, donor atom, acceptor molecule, acceptor atom, score
      L1  H    24    52       P1 10747  0.63
      P1  H  6896  6908       L1    14  0.52

> <Gold.Chemscore.Hbond.Weighted>
-3.8597

> <Gold.Chemscore.Metal.Weighted>
-0.0000

> <Gold.Chemscore.Lipo.Weighted>
-11.3413

> <Gold.Chemscore.Internal_Hbond.Weighted>
0.0000

> <Gold.Chemscore.DEClash.Weighted>
0.2782

> <Gold.Chemscore.DEInternal.Weighted>
3.0192

> <Gold.Chemscore.Rot.Weighted>
8.3907

> <Gold.Chemscore.Internal.Correction.Weighted>
   9.000000E+99

> <Gold.Protein.RotatedTorsions>
[ 6907 6896 6895 6894 ] final  164.56 input  -60.11 | X-H torsion
[ 7974 7965 7964 7962 ] final    0.09 input  175.53 | X-H torsion
[ 8008 7997 7996 7995 ] final  -41.77 input   59.86 | X-H torsion
[ 10167 10162 10161 10158 ] final  132.88 input  -65.29 | X-H torsion
[ 10718 10713 10712 10709 ] final  -44.06 input   66.30 | X-H torsion
[ 10763 10752 10751 10750 ] final   77.66 input  -60.55 | X-H torsion
[ 11005 11000 10999 10996 ] final   92.49 input  -57.11 | X-H torsion

> <Gold.Protein.ActiveResidues>
 VAL166  LYS551  ARG553  GLY616  TRP617  ASP618  TYR619  PRO620  LYS621  CYS622 
 ASP623  PHE694  ASN695  SER759  ASP760  ASP761  ALA762  ILE779  LEU786  VAL792 
 PHE793  MET794  SER795  GLU796  ALA797  LYS798  CYS799  TRP800  GLU811  SER814 

> <Gold.Protein.RotatedAtoms>
  151.9079  133.3554  159.3853 H   0  0  0  0  0  0  0  0  0  0  0  0  # atno 6907 bound_to 6896
  150.7065  134.4762  159.5458 H   0  0  0  0  0  0  0  0  0  0  0  0  # atno 6908 bound_to 6896
  152.2362  134.8273  160.0517 H   0  0  0  0  0  0  0  0  0  0  0  0  # atno 6909 bound_to 6896
  146.2431  140.1190  142.8341 H   0  0  0  0  0  0  0  0  0  0  0  0  # atno 7974 bound_to 7965
  154.4002  140.1491  156.3245 H   0  0  0  0  0  0  0  0  0  0  0  0  # atno 8008 bound_to 7997
  155.8499  140.3458  155.5665 H   0  0  0  0  0  0  0  0  0  0  0  0  # atno 8009 bound_to 7997
  155.7995  140.0868  157.1955 H   0  0  0  0  0  0  0  0  0  0  0  0  # atno 8010 bound_to 7997
  139.5320  144.6641  151.4916 H   0  0  0  0  0  0  0  0  0  0  0  0  # atno 10167 bound_to 10162
  156.2425  130.4181  149.8744 H   0  0  0  0  0  0  0  0  0  0  0  0  # atno 10718 bound_to 10713
  153.0815  135.4906  154.8512 H   0  0  0  0  0  0  0  0  0  0  0  0  # atno 10763 bound_to 10752
  154.7156  135.3029  154.9130 H   0  0  0  0  0  0  0  0  0  0  0  0  # atno 10764 bound_to 10752
  153.9810  135.6789  153.4803 H   0  0  0  0  0  0  0  0  0  0  0  0  # atno 10765 bound_to 10752
  139.8823  134.8735  156.3580 H   0  0  0  0  0  0  0  0  0  0  0  0  # atno 11005 bound_to 11000
  145.0422  140.8954  143.5045 LP  0  0  0  0  0  0  0  0  0  0  0  0  # atno 17320 bound_to 7965
  145.1273  139.2654  143.5557 LP  0  0  0  0  0  0  0  0  0  0  0  0  # atno 17321 bound_to 7965
  140.6505  143.8707  150.6780 LP  0  0  0  0  0  0  0  0  0  0  0  0  # atno 17342 bound_to 10162
  140.2070  143.3913  152.1747 LP  0  0  0  0  0  0  0  0  0  0  0  0  # atno 17343 bound_to 10162
  156.6321  130.8670  151.3497 LP  0  0  0  0  0  0  0  0  0  0  0  0  # atno 17370 bound_to 10713
  157.7181  130.9523  150.1332 LP  0  0  0  0  0  0  0  0  0  0  0  0  # atno 17371 bound_to 10713
  140.9549  133.7426  156.0322 LP  0  0  0  0  0  0  0  0  0  0  0  0  # atno 17394 bound_to 11000
  140.8061  134.3453  157.5426 LP  0  0  0  0  0  0  0  0  0  0  0  0  # atno 17395 bound_to 11000

$$$$
