AV-unprocessed.smi:1885|AV-procd|sdf|7650|dock3
  -GOLD-   22720 9383D 1   1.00000     0.00000
 Structure written by MMmdl.
 43 45  0  0  0  0  0  0  0  0  1 V2000
  145.8723  134.7342  162.1970 C   0  0  0  0  0  0  0  0  0  0  0  0
  146.2176  136.0418  161.7633 O   0  0  0  0  0  0  0  0  0  0  0  0
  146.8219  136.1781  160.5319 C   0  0  0  0  0  0  0  0  0  0  0  0
  147.1141  135.0961  159.6637 C   0  0  0  0  0  0  0  0  0  0  0  0
  147.7359  135.3262  158.4209 C   0  0  0  0  0  0  0  0  0  0  0  0
  148.0690  136.6361  158.0216 C   0  0  0  0  0  0  0  0  0  0  0  0
  148.7567  136.8706  156.6895 C   0  0  0  0  0  0  0  0  0  0  0  0
  148.8839  138.2509  156.3889 O   0  0  0  0  0  0  0  0  0  0  0  0
  150.1654  138.5938  155.8884 C   0  0  0  0  0  0  0  0  0  0  0  0
  150.1732  140.0862  155.5274 C   0  0  2  0  0  0  0  0  0  0  0  0
  150.0095  140.2155  154.1288 O   0  0  0  0  0  0  0  0  0  0  0  0
  151.4701  140.7925  155.9682 C   0  0  0  0  0  0  0  0  0  0  0  0
  151.6517  140.7616  157.4080 N   0  0  0  0  0  0  0  0  0  0  0  0
  151.7610  139.6740  158.1953 C   0  0  0  0  0  0  0  0  0  0  0  0
  151.9239  139.8804  159.4994 N   0  0  0  0  0  0  0  0  0  0  0  0
  151.9204  141.2633  159.5664 C   0  0  0  0  0  0  0  0  0  0  0  0
  152.0533  142.1293  160.6752 C   0  0  0  0  0  0  0  0  0  0  0  0
  152.0187  143.5284  160.4982 C   0  0  0  0  0  0  0  0  0  0  0  0
  152.1477  144.3438  161.5717 F   0  0  0  0  0  0  0  0  0  0  0  0
  151.8503  144.0818  159.2114 C   0  0  0  0  0  0  0  0  0  0  0  0
  151.8182  145.4259  159.0506 F   0  0  0  0  0  0  0  0  0  0  0  0
  151.7153  143.2390  158.0916 C   0  0  0  0  0  0  0  0  0  0  0  0
  151.7510  141.8445  158.2737 C   0  0  0  0  0  0  0  0  0  0  0  0
  147.7885  137.7147  158.8853 C   0  0  0  0  0  0  0  0  0  0  0  0
  147.1674  137.4838  160.1276 C   0  0  0  0  0  0  0  0  0  0  0  0
  145.4039  134.7930  163.1793 H   0  0  0  0  0  0  0  0  0  0  0  0
  146.7542  134.0991  162.2901 H   0  0  0  0  0  0  0  0  0  0  0  0
  145.1580  134.2650  161.5191 H   0  0  0  0  0  0  0  0  0  0  0  0
  146.8727  134.0781  159.9289 H   0  0  0  0  0  0  0  0  0  0  0  0
  147.9561  134.4904  157.7733 H   0  0  0  0  0  0  0  0  0  0  0  0
  149.7425  136.4047  156.7270 H   0  0  0  0  0  0  0  0  0  0  0  0
  148.1904  136.3759  155.8986 H   0  0  0  0  0  0  0  0  0  0  0  0
  150.9378  138.3749  156.6277 H   0  0  0  0  0  0  0  0  0  0  0  0
  150.3768  137.9921  155.0027 H   0  0  0  0  0  0  0  0  0  0  0  0
  149.3163  140.5664  156.0020 H   0  0  0  0  0  0  0  0  0  0  0  0
  149.8987  139.3536  153.7580 H   0  0  0  0  0  0  0  0  0  0  0  0
  152.3362  140.3131  155.5104 H   0  0  0  0  0  0  0  0  0  0  0  0
  151.4772  141.8309  155.6334 H   0  0  0  0  0  0  0  0  0  0  0  0
  151.7210  138.6744  157.7874 H   0  0  0  0  0  0  0  0  0  0  0  0
  152.1831  141.7172  161.6648 H   0  0  0  0  0  0  0  0  0  0  0  0
  151.5869  143.6584  157.1048 H   0  0  0  0  0  0  0  0  0  0  0  0
  148.0476  138.7241  158.6012 H   0  0  0  0  0  0  0  0  0  0  0  0
  146.9555  138.3189  160.7792 H   0  0  0  0  0  0  0  0  0  0  0  0
  1  2  1  0  0  0  0
  1 26  1  0  0  0  0
  1 27  1  0  0  0  0
  1 28  1  0  0  0  0
  2  3  1  0  0  0  0
  3 25  1  0  0  0  0
  3  4  2  0  0  0  0
  4  5  1  0  0  0  0
  4 29  1  0  0  0  0
  5  6  2  0  0  0  0
  5 30  1  0  0  0  0
  6  7  1  0  0  0  0
  6 24  1  0  0  0  0
  7  8  1  0  0  0  0
  7 31  1  0  0  0  0
  7 32  1  0  0  0  0
  8  9  1  0  0  0  0
  9 10  1  0  0  0  0
  9 33  1  0  0  0  0
  9 34  1  0  0  0  0
 10 11  1  0  0  0  0
 10 12  1  0  0  0  0
 10 35  1  0  0  0  0
 11 36  1  0  0  0  0
 12 13  1  0  0  0  0
 12 37  1  0  0  0  0
 12 38  1  0  0  0  0
 13 23  1  0  0  0  0
 13 14  1  0  0  0  0
 14 15  2  0  0  0  0
 14 39  1  0  0  0  0
 15 16  1  0  0  0  0
 16 23  2  0  0  0  0
 16 17  1  0  0  0  0
 17 18  2  0  0  0  0
 17 40  1  0  0  0  0
 18 19  1  0  0  0  0
 18 20  1  0  0  0  0
 20 21  1  0  0  0  0
 20 22  2  0  0  0  0
 22 23  1  0  0  0  0
 22 41  1  0  0  0  0
 24 25  2  0  0  0  0
 24 42  1  0  0  0  0
 25 43  1  0  0  0  0
M  END
> <s_m_source_file>
AV-unprocessed.smi

> <i_m_source_file_index>
1885

> <i_lp_mmshare_version>
43012

> <i_f3d_flags>
0

> <s_epik_input>
W0NIM11PYzFbY0hdW2NIXWMoW2NIXVtjSF0xKVtDSDJdT1tDSDJdW0NASF0oW09IXSlbQ0gyXW4oW2NIXW4yKWMoYzIzKVtjSF1jKEYpYyhGKVtjSF0z

> <s_epik_cmdline>
J2VwaWtfcHl0aG9uJywgJy1waCcsICc3LjAnLCAnLXRuJywgJzgnLCAnLW1hJywgJzIwMCcsICctbWV0YWxfYmluZGluZycsICctaW1hZScsICc8aW5maWxlLm1hZT4nLCAnLW9tYWUnLCAnPG91dGZpbGUubWFlPic=

> <r_lp_tautomer_probability>
1

> <r_epik_Ionization_Penalty>
0.0160256

> <r_epik_Ionization_Penalty_Charging>
0

> <r_epik_Ionization_Penalty_Neutral>
0.0160256

> <r_epik_State_Penalty>
0.0126263

> <r_epik_Charging_Adjusted_Penalty>
0.0126263

> <i_epik_Tot_Q>
0

> <i_epik_Tot_abs_Q>
0

> <r_epik_Metal_State_Penalty>
1.27616e-05

> <b_epik_Metal_Only>
0

> <s_lp_Force_Field>
OPLS_2005

> <r_lp_Energy>
16.1682

> <b_lp_Chiralities_Consistent>
1

> <s_lp_Variant>
AV-unprocessed.smi:1885-1

> <Gold.Version>
5.8.1

> <Gold.Id.Protein>
6NUR|6NUR_protein|mol2

> <Gold.PLP.Fitness>
48.8359

> <Gold.PLP.PLP>
-47.8669

> <Gold.PLP.part.hbond>
-2.0000

> <Gold.PLP.part.metal>
0.0000

> <Gold.PLP.part.buried>
-6.0096

> <Gold.PLP.part.nonpolar>
-38.2976

> <Gold.PLP.part.repulsive>
0.0047

> <Gold.PLP.ligand.clash>
0.0000

> <Gold.PLP.ligand.torsion>
0.9596

> <Gold.PLP.Chemscore.Hbond>
0.9280

> <Gold.PLP.Chemscore.CHOScore>
0.0000

> <Gold.PLP.Chemscore.Metal>
0.0000

> <Gold.Chemscore.Hbonds>
donor molecule, donor type, donor heavy atom, donor atom, acceptor molecule, acceptor atom, score
      P1  H  7989  7998       L1    11  0.90

> <Gold.PLP.Chemscore.Internal.Correction>
0.1043

> <Gold.Rescore>
     Score         DG    S(hbond)    S(metal)    S(lipo)     H(rot)  DE(clash)    DE(int)     intcor
     11.56     -13.61       0.65        0.00     115.02       2.93       0.04       2.01       ----

> <Gold.Chemscore.Fitness>
11.5588

> <Gold.Chemscore.DG>
-13.6081

> <Gold.Chemscore.ZeroCoef>
-5.4800

> <Gold.Chemscore.Hbond>
0.6528

> <Gold.Chemscore.Metal>
0.0000

> <Gold.Chemscore.Lipo>
115.0206

> <Gold.Chemscore.Internal_Hbond>
0.0000

> <Gold.Chemscore.DEClash>
0.0368

> <Gold.Chemscore.DEInternal>
2.0125

> <Gold.Chemscore.Rot>
2.9335

> <Gold.Chemscore.Internal.Correction>
   9.000000E+99

> <Gold.Chemscore.Hbonds>
donor molecule, donor type, donor heavy atom, donor atom, acceptor molecule, acceptor atom, score
      P1  H  7989  7998       L1    11  0.31

> <Gold.Chemscore.Hbond.Weighted>
-2.1804

> <Gold.Chemscore.Metal.Weighted>
-0.0000

> <Gold.Chemscore.Lipo.Weighted>
-13.4574

> <Gold.Chemscore.Internal_Hbond.Weighted>
0.0000

> <Gold.Chemscore.DEClash.Weighted>
0.0368

> <Gold.Chemscore.DEInternal.Weighted>
2.0125

> <Gold.Chemscore.Rot.Weighted>
7.5097

> <Gold.Chemscore.Internal.Correction.Weighted>
   9.000000E+99

> <Gold.Protein.RotatedTorsions>
[ 6907 6896 6895 6894 ] final   20.62 input  -60.11 | X-H torsion
[ 7974 7965 7964 7962 ] final  130.86 input  175.53 | X-H torsion
[ 8008 7997 7996 7995 ] final  -35.02 input   59.86 | X-H torsion
[ 10167 10162 10161 10158 ] final -158.96 input  -65.29 | X-H torsion
[ 10718 10713 10712 10709 ] final  -98.69 input   66.30 | X-H torsion
[ 10763 10752 10751 10750 ] final  -44.06 input  -60.55 | X-H torsion
[ 11005 11000 10999 10996 ] final  102.61 input  -57.11 | X-H torsion

> <Gold.Protein.ActiveResidues>
 VAL166  LYS551  ARG553  GLY616  TRP617  ASP618  TYR619  PRO620  LYS621  CYS622 
 ASP623  PHE694  ASN695  SER759  ASP760  ASP761  ALA762  ILE779  LEU786  VAL792 
 PHE793  MET794  SER795  GLU796  ALA797  LYS798  CYS799  TRP800  GLU811  SER814 

> <Gold.Protein.RotatedAtoms>
  151.8992  135.0385  160.0504 H   0  0  0  0  0  0  0  0  0  0  0  0  # atno 6907 bound_to 6896
  152.2372  133.5101  159.5258 H   0  0  0  0  0  0  0  0  0  0  0  0  # atno 6908 bound_to 6896
  150.7042  134.1054  159.4023 H   0  0  0  0  0  0  0  0  0  0  0  0  # atno 6909 bound_to 6896
  145.0134  139.4199  143.5233 H   0  0  0  0  0  0  0  0  0  0  0  0  # atno 7974 bound_to 7965
  154.4106  140.1668  156.2144 H   0  0  0  0  0  0  0  0  0  0  0  0  # atno 8008 bound_to 7997
  155.9417  140.3407  155.6310 H   0  0  0  0  0  0  0  0  0  0  0  0  # atno 8009 bound_to 7997
  155.6981  140.0742  157.2412 H   0  0  0  0  0  0  0  0  0  0  0  0  # atno 8010 bound_to 7997
  139.6652  143.9842  152.2250 H   0  0  0  0  0  0  0  0  0  0  0  0  # atno 10167 bound_to 10162
  156.0114  130.5249  150.6560 H   0  0  0  0  0  0  0  0  0  0  0  0  # atno 10718 bound_to 10713
  154.0058  135.6687  153.4762 H   0  0  0  0  0  0  0  0  0  0  0  0  # atno 10763 bound_to 10752
  153.0642  135.5010  154.8159 H   0  0  0  0  0  0  0  0  0  0  0  0  # atno 10764 bound_to 10752
  154.7025  135.3081  154.9283 H   0  0  0  0  0  0  0  0  0  0  0  0  # atno 10765 bound_to 10752
  139.8778  134.9231  156.5084 H   0  0  0  0  0  0  0  0  0  0  0  0  # atno 11005 bound_to 11000
  146.3474  139.9590  142.8719 LP  0  0  0  0  0  0  0  0  0  0  0  0  # atno 17320 bound_to 7965
  145.1993  140.9847  143.4165 LP  0  0  0  0  0  0  0  0  0  0  0  0  # atno 17321 bound_to 7965
  139.9592  144.6569  150.8096 LP  0  0  0  0  0  0  0  0  0  0  0  0  # atno 17342 bound_to 10162
  140.7596  143.3133  151.2793 LP  0  0  0  0  0  0  0  0  0  0  0  0  # atno 17343 bound_to 10162
  157.4312  131.0849  151.1037 LP  0  0  0  0  0  0  0  0  0  0  0  0  # atno 17370 bound_to 10713
  157.1609  130.6225  149.5610 LP  0  0  0  0  0  0  0  0  0  0  0  0  # atno 17371 bound_to 10713
  140.8538  133.8111  155.9196 LP  0  0  0  0  0  0  0  0  0  0  0  0  # atno 17394 bound_to 11000
  140.9117  134.2252  157.4981 LP  0  0  0  0  0  0  0  0  0  0  0  0  # atno 17395 bound_to 11000

$$$$
