AV-unprocessed.smi:744|AV-procd|sdf|3569|dock4
  -GOLD-   22720 0563D 1   1.00000     0.00000
 Structure written by MMmdl.
 34 35  0  0  0  0  0  0  0  0  1 V2000
  144.8994  137.3564  152.3348 O   0  0  0  0  0  0  0  0  0  0  0  0
  146.0739  137.0252  152.1692 C   0  0  0  0  0  0  0  0  0  0  0  0
  147.1121  137.8319  152.4327 N   0  0  0  0  0  0  0  0  0  0  0  0
  147.0057  139.1919  152.9509 C   0  0  0  0  0  0  0  0  0  0  0  0
  147.9252  139.4196  154.1697 C   0  0  1  0  0  0  0  0  0  0  0  0
  149.1696  138.5227  154.2227 C   0  0  0  0  0  0  0  0  0  0  0  0
  150.1796  139.2618  155.1137 C   0  0  0  0  0  0  0  0  0  0  0  0
  149.6191  140.6762  155.3331 C   0  0  0  0  0  0  0  0  0  0  0  0
  148.4819  140.8431  154.3198 C   0  0  1  0  0  0  0  0  0  0  0  0
  149.0190  141.3239  153.1012 O   0  0  0  0  0  0  0  0  0  0  0  0
  146.4894  135.8305  151.7127 N   0  0  0  0  0  0  0  0  0  0  0  0
  145.6998  134.7167  151.3207 C   0  0  0  0  0  0  0  0  0  0  0  0
  146.4311  133.5901  150.8806 C   0  0  0  0  0  0  0  0  0  0  0  0
  145.7409  132.4339  150.4680 C   0  0  0  0  0  0  0  0  0  0  0  0
  144.3350  132.4340  150.5055 C   0  0  0  0  0  0  0  0  0  0  0  0
  143.6839  133.5966  150.9570 C   0  0  0  0  0  0  0  0  0  0  0  0
  144.3435  134.7057  151.3533 N   0  0  0  0  0  0  0  0  0  0  0  0
  148.0438  137.4796  152.2690 H   0  0  0  0  0  0  0  0  0  0  0  0
  147.2697  139.8729  152.1414 H   0  0  0  0  0  0  0  0  0  0  0  0
  145.9693  139.4112  153.2125 H   0  0  0  0  0  0  0  0  0  0  0  0
  147.3446  139.2172  155.0718 H   0  0  0  0  0  0  0  0  0  0  0  0
  148.9398  137.5255  154.5998 H   0  0  0  0  0  0  0  0  0  0  0  0
  149.5876  138.4055  153.2220 H   0  0  0  0  0  0  0  0  0  0  0  0
  150.3130  138.7510  156.0680 H   0  0  0  0  0  0  0  0  0  0  0  0
  151.1546  139.3002  154.6265 H   0  0  0  0  0  0  0  0  0  0  0  0
  149.2086  140.7408  156.3417 H   0  0  0  0  0  0  0  0  0  0  0  0
  150.3832  141.4502  155.2490 H   0  0  0  0  0  0  0  0  0  0  0  0
  147.7235  141.5436  154.6712 H   0  0  0  0  0  0  0  0  0  0  0  0
  149.1175  140.5943  152.5088 H   0  0  0  0  0  0  0  0  0  0  0  0
  147.4874  135.7034  151.6344 H   0  0  0  0  0  0  0  0  0  0  0  0
  147.5113  133.6071  150.8577 H   0  0  0  0  0  0  0  0  0  0  0  0
  146.2815  131.5627  150.1285 H   0  0  0  0  0  0  0  0  0  0  0  0
  143.7708  131.5664  150.1967 H   0  0  0  0  0  0  0  0  0  0  0  0
  142.6056  133.6380  151.0015 H   0  0  0  0  0  0  0  0  0  0  0  0
  1  2  2  0  0  0  0
  2  3  1  0  0  0  0
  2 11  1  0  0  0  0
  3  4  1  0  0  0  0
  3 18  1  0  0  0  0
  4  5  1  0  0  0  0
  4 19  1  0  0  0  0
  4 20  1  0  0  0  0
  5  9  1  0  0  0  0
  5  6  1  0  0  0  0
  5 21  1  0  0  0  0
  6  7  1  0  0  0  0
  6 22  1  0  0  0  0
  6 23  1  0  0  0  0
  7  8  1  0  0  0  0
  7 24  1  0  0  0  0
  7 25  1  0  0  0  0
  8  9  1  0  0  0  0
  8 26  1  0  0  0  0
  8 27  1  0  0  0  0
  9 10  1  0  0  0  0
  9 28  1  0  0  0  0
 10 29  1  0  0  0  0
 11 12  1  0  0  0  0
 11 30  1  0  0  0  0
 12 17  1  0  0  0  0
 12 13  2  0  0  0  0
 13 14  1  0  0  0  0
 13 31  1  0  0  0  0
 14 15  2  0  0  0  0
 14 32  1  0  0  0  0
 15 16  1  0  0  0  0
 15 33  1  0  0  0  0
 16 17  2  0  0  0  0
 16 34  1  0  0  0  0
M  END
> <s_m_source_file>
AV-unprocessed.smi

> <i_m_source_file_index>
744

> <i_lp_mmshare_version>
43012

> <i_f3d_flags>
0

> <s_epik_input>
bjFbY0hdW2NIXVtjSF1bY0hdYzFbTkhdQyg9TylbTkhdW0NIMl1bQ0BASF0yW0NIMl1bQ0gyXVtDSDJdW0NASF0yW09IXQ==

> <s_epik_cmdline>
J2VwaWtfcHl0aG9uJywgJy1waCcsICc3LjAnLCAnLXRuJywgJzgnLCAnLW1hJywgJzIwMCcsICctbWV0YWxfYmluZGluZycsICctaW1hZScsICc8aW5maWxlLm1hZT4nLCAnLW9tYWUnLCAnPG91dGZpbGUubWFlPic=

> <r_lp_tautomer_probability>
1

> <r_epik_Ionization_Penalty>
5.04769e-05

> <r_epik_Ionization_Penalty_Charging>
0

> <r_epik_Ionization_Penalty_Neutral>
5.04769e-05

> <r_epik_State_Penalty>
-0

> <r_epik_Charging_Adjusted_Penalty>
0

> <i_epik_Tot_Q>
0

> <i_epik_Tot_abs_Q>
0

> <r_epik_Metal_State_Penalty>
-0

> <b_epik_Metal_Only>
0

> <s_lp_Force_Field>
OPLS_2005

> <r_lp_Energy>
27.3906

> <b_lp_Chiralities_Consistent>
1

> <s_lp_Variant>
AV-unprocessed.smi:744-2

> <Gold.Version>
5.8.1

> <Gold.Id.Protein>
6NUR|6NUR_protein|mol2

> <Gold.PLP.Fitness>
42.9979

> <Gold.PLP.PLP>
-29.3532

> <Gold.PLP.part.hbond>
-3.9217

> <Gold.PLP.part.metal>
0.0000

> <Gold.PLP.part.buried>
-2.2611

> <Gold.PLP.part.nonpolar>
-24.8109

> <Gold.PLP.part.repulsive>
0.6483

> <Gold.PLP.ligand.clash>
0.0000

> <Gold.PLP.ligand.torsion>
0.4754

> <Gold.PLP.Chemscore.Hbond>
3.9116

> <Gold.PLP.Chemscore.CHOScore>
0.9525

> <Gold.PLP.Chemscore.Metal>
0.0000

> <Gold.Chemscore.Hbonds>
donor molecule, donor type, donor heavy atom, donor atom, acceptor molecule, acceptor atom, score
      L1  H     3    18       P1  7948  0.96
      L1  H    10    29       P1  7957  0.98
      L1  H    11    30       P1  7948  1.00
      P1  H  8011  8017       L1    10  1.00
      L1  C    16    34       P1 10186  1.00

> <Gold.PLP.Chemscore.Internal.Correction>
0.0031

> <Gold.Rescore>
     Score         DG    S(hbond)    S(metal)    S(lipo)     H(rot)  DE(clash)    DE(int)     intcor
     16.74     -18.73       2.90        0.00      69.89       1.81       0.36       1.63       ----

> <Gold.Chemscore.Fitness>
16.7443

> <Gold.Chemscore.DG>
-18.7280

> <Gold.Chemscore.ZeroCoef>
-5.4800

> <Gold.Chemscore.Hbond>
2.9019

> <Gold.Chemscore.Metal>
0.0000

> <Gold.Chemscore.Lipo>
69.8865

> <Gold.Chemscore.Internal_Hbond>
0.0000

> <Gold.Chemscore.DEClash>
0.3559

> <Gold.Chemscore.DEInternal>
1.6278

> <Gold.Chemscore.Rot>
1.8052

> <Gold.Chemscore.Internal.Correction>
   9.000000E+99

> <Gold.Chemscore.Hbonds>
donor molecule, donor type, donor heavy atom, donor atom, acceptor molecule, acceptor atom, score
      L1  H     3    18       P1  7948  0.90
      L1  H    10    29       P1  7957  0.87
      L1  H    11    30       P1  7948  0.90
      P1  H  8011  8017       L1    10  0.23

> <Gold.Chemscore.Hbond.Weighted>
-9.6925

> <Gold.Chemscore.Metal.Weighted>
-0.0000

> <Gold.Chemscore.Lipo.Weighted>
-8.1767

> <Gold.Chemscore.Internal_Hbond.Weighted>
0.0000

> <Gold.Chemscore.DEClash.Weighted>
0.3559

> <Gold.Chemscore.DEInternal.Weighted>
1.6278

> <Gold.Chemscore.Rot.Weighted>
4.6212

> <Gold.Chemscore.Internal.Correction.Weighted>
   9.000000E+99

> <Gold.Protein.RotatedTorsions>
[ 6907 6896 6895 6894 ] final -142.78 input  -60.11 | X-H torsion
[ 7974 7965 7964 7962 ] final   62.71 input  175.53 | X-H torsion
[ 8008 7997 7996 7995 ] final  -92.31 input   59.86 | X-H torsion
[ 10167 10162 10161 10158 ] final -133.91 input  -65.29 | X-H torsion
[ 10718 10713 10712 10709 ] final  178.40 input   66.30 | X-H torsion
[ 10763 10752 10751 10750 ] final  127.31 input  -60.55 | X-H torsion
[ 11005 11000 10999 10996 ] final   36.90 input  -57.11 | X-H torsion

> <Gold.Protein.ActiveResidues>
 VAL166  LYS551  ARG553  GLY616  TRP617  ASP618  TYR619  PRO620  LYS621  CYS622 
 ASP623  PHE694  ASN695  SER759  ASP760  ASP761  ALA762  ILE779  LEU786  VAL792 
 PHE793  MET794  SER795  GLU796  ALA797  LYS798  CYS799  TRP800  GLU811  SER814 

> <Gold.Protein.RotatedAtoms>
  151.0916  133.5312  159.2614 H   0  0  0  0  0  0  0  0  0  0  0  0  # atno 6907 bound_to 6896
  151.2177  135.0505  159.8947 H   0  0  0  0  0  0  0  0  0  0  0  0  # atno 6908 bound_to 6896
  152.5434  134.0723  159.8253 H   0  0  0  0  0  0  0  0  0  0  0  0  # atno 6909 bound_to 6896
  145.8703  139.3373  143.0767 H   0  0  0  0  0  0  0  0  0  0  0  0  # atno 7974 bound_to 7965
  154.7215  140.0510  157.0644 H   0  0  0  0  0  0  0  0  0  0  0  0  # atno 8008 bound_to 7997
  155.0421  140.3170  155.4702 H   0  0  0  0  0  0  0  0  0  0  0  0  # atno 8009 bound_to 7997
  156.2818  140.2131  156.5545 H   0  0  0  0  0  0  0  0  0  0  0  0  # atno 8010 bound_to 7997
  139.8934  143.6695  152.2608 H   0  0  0  0  0  0  0  0  0  0  0  0  # atno 10167 bound_to 10162
  156.8912  130.9848  151.3049 H   0  0  0  0  0  0  0  0  0  0  0  0  # atno 10718 bound_to 10713
  153.7073  135.3274  155.3238 H   0  0  0  0  0  0  0  0  0  0  0  0  # atno 10763 bound_to 10752
  154.8395  135.4468  154.1350 H   0  0  0  0  0  0  0  0  0  0  0  0  # atno 10764 bound_to 10752
  153.2434  135.6973  153.7837 H   0  0  0  0  0  0  0  0  0  0  0  0  # atno 10765 bound_to 10752
  140.2279  134.3562  155.7976 H   0  0  0  0  0  0  0  0  0  0  0  0  # atno 11005 bound_to 11000
  145.9145  140.9157  143.0437 LP  0  0  0  0  0  0  0  0  0  0  0  0  # atno 17320 bound_to 7965
  144.6726  140.1205  143.7450 LP  0  0  0  0  0  0  0  0  0  0  0  0  # atno 17321 bound_to 7965
  139.7089  144.7623  151.1145 LP  0  0  0  0  0  0  0  0  0  0  0  0  # atno 17342 bound_to 10162
  140.7722  143.5357  150.9371 LP  0  0  0  0  0  0  0  0  0  0  0  0  # atno 17343 bound_to 10162
  157.6083  130.8563  149.8910 LP  0  0  0  0  0  0  0  0  0  0  0  0  # atno 17370 bound_to 10713
  156.0628  130.3697  150.0944 LP  0  0  0  0  0  0  0  0  0  0  0  0  # atno 17371 bound_to 10713
  141.2219  133.7229  156.8684 LP  0  0  0  0  0  0  0  0  0  0  0  0  # atno 17394 bound_to 11000
  140.1781  134.9053  157.2915 LP  0  0  0  0  0  0  0  0  0  0  0  0  # atno 17395 bound_to 11000

$$$$
