AV-unprocessed.smi:49|AV-procd|sdf|488|dock2
  -GOLD-   2262016353D 1   1.00000     0.00000
 Structure written by MMmdl.
 26 27  0  0  0  0  0  0  0  0  2 V2000
  152.7283  141.7849  159.2356 C   0  0  0  0  0  0  0  0  0  0  0  0
  152.4555  140.3847  158.6771 C   0  0  0  0  0  0  0  0  0  0  0  0
  151.8372  140.4331  157.2973 C   0  0  0  0  0  0  0  0  0  0  0  0
  150.7231  141.0781  156.9663 N   0  0  0  0  0  0  0  0  0  0  0  0
  150.5638  140.8822  155.6498 C   0  0  0  0  0  0  0  0  0  0  0  0
  149.4277  141.4737  154.8367 C   0  0  1  0  0  0  0  0  0  0  0  0
  148.6096  140.4013  154.1064 C   0  0  0  0  0  0  0  0  0  0  0  0
  147.2408  141.0548  153.9886 C   0  0  1  0  0  0  0  0  0  0  0  0
  146.1973  140.1230  153.7981 O   0  0  0  0  0  0  0  0  0  0  0  0
  147.1266  141.7941  155.3187 C   0  0  0  0  0  0  0  0  0  0  0  0
  148.4755  142.2608  155.6302 N   0  0  0  0  0  0  0  0  0  0  0  0
  151.5740  140.1482  155.1550 N   0  0  0  0  0  0  0  0  0  0  0  0
  152.3506  139.8794  156.1848 N   0  5  0  0  0  0  0  0  0  0  0  0
  149.8684  142.1320  154.0870 H   0  0  0  0  0  0  0  0  0  0  0  0
  147.2415  141.7699  153.1647 H   0  0  0  0  0  0  0  0  0  0  0  0
  153.1727  141.7279  160.2293 H   0  0  0  0  0  0  0  0  0  0  0  0
  151.8063  142.3618  159.3133 H   0  0  0  0  0  0  0  0  0  0  0  0
  153.4153  142.3360  158.5927 H   0  0  0  0  0  0  0  0  0  0  0  0
  153.3840  139.8153  158.6272 H   0  0  0  0  0  0  0  0  0  0  0  0
  151.7873  139.8398  159.3444 H   0  0  0  0  0  0  0  0  0  0  0  0
  149.0424  140.1119  153.1484 H   0  0  0  0  0  0  0  0  0  0  0  0
  148.5333  139.5049  154.7249 H   0  0  0  0  0  0  0  0  0  0  0  0
  145.4953  140.5512  153.3326 H   0  0  0  0  0  0  0  0  0  0  0  0
  146.4092  142.6143  155.2834 H   0  0  0  0  0  0  0  0  0  0  0  0
  146.7995  141.1022  156.0962 H   0  0  0  0  0  0  0  0  0  0  0  0
  148.5551  143.2325  155.3495 H   0  0  0  0  0  0  0  0  0  0  0  0
  1  2  1  0  0  0  0
  1 16  1  0  0  0  0
  1 17  1  0  0  0  0
  1 18  1  0  0  0  0
  2  3  1  0  0  0  0
  2 19  1  0  0  0  0
  2 20  1  0  0  0  0
  3 13  1  0  0  0  0
  3  4  2  0  0  0  0
  4  5  1  0  0  0  0
  5  6  1  0  0  0  0
  5 12  2  0  0  0  0
  6 14  1  0  0  0  0
  6 11  1  0  0  0  0
  6  7  1  0  0  0  0
  7  8  1  0  0  0  0
  7 21  1  0  0  0  0
  7 22  1  0  0  0  0
  8 15  1  0  0  0  0
  8  9  1  0  0  0  0
  8 10  1  0  0  0  0
  9 23  1  0  0  0  0
 10 11  1  0  0  0  0
 10 24  1  0  0  0  0
 10 25  1  0  0  0  0
 11 26  1  0  0  0  0
 12 13  1  0  0  0  0
M  CHG  1  13  -1
M  END
> <s_m_source_file>
AV-unprocessed.smi

> <i_m_source_file_index>
49

> <i_lp_mmshare_version>
43012

> <i_f3d_flags>
0

> <s_epik_input>
W0NIM11bQ0gyXWMxbmMobltuSF0xKVtDQEBIXTJbQ0gyXVtDQEBIXShbT0hdKVtDSDJdW05IXTI=

> <s_epik_cmdline>
J2VwaWtfcHl0aG9uJywgJy1waCcsICc3LjAnLCAnLXRuJywgJzgnLCAnLW1hJywgJzIwMCcsICctbWV0YWxfYmluZGluZycsICctaW1hZScsICc8aW5maWxlLm1hZT4nLCAnLW9tYWUnLCAnPG91dGZpbGUubWFlPic=

> <r_lp_tautomer_probability>
0.948284

> <r_epik_Ionization_Penalty>
20.726

> <r_epik_Ionization_Penalty_Charging>
17.6814

> <r_epik_Ionization_Penalty_Neutral>
3.04463

> <r_epik_State_Penalty>
7.95092

> <r_epik_Charging_Adjusted_Penalty>
25.6323

> <i_epik_Tot_Q>
-1

> <i_epik_Tot_abs_Q>
1

> <r_epik_Metal_State_Penalty>
4.146

> <b_epik_Metal_Only>
1

> <s_lp_Force_Field>
OPLS_2005

> <r_lp_Energy>
18.1794

> <b_lp_Chiralities_Consistent>
1

> <s_lp_Variant>
AV-unprocessed.smi:49-26

> <Gold.Version>
5.8.1

> <Gold.Id.Protein>
6NUR|6NUR_protein|mol2

> <Gold.PLP.Fitness>
39.2115

> <Gold.PLP.PLP>
-24.2548

> <Gold.PLP.part.hbond>
-3.8871

> <Gold.PLP.part.metal>
0.0000

> <Gold.PLP.part.buried>
-2.2830

> <Gold.PLP.part.nonpolar>
-17.7648

> <Gold.PLP.part.repulsive>
0.0723

> <Gold.PLP.ligand.clash>
0.0000

> <Gold.PLP.ligand.torsion>
0.0183

> <Gold.PLP.Chemscore.Hbond>
4.9920

> <Gold.PLP.Chemscore.CHOScore>
0.0000

> <Gold.PLP.Chemscore.Metal>
0.0000

> <Gold.Chemscore.Hbonds>
donor molecule, donor type, donor heavy atom, donor atom, acceptor molecule, acceptor atom, score
      L1  H     9    23       P1 10175  1.00
      L1  H    11    26       P1  8028  1.00
      P1  H  7989  7998       L1    12  0.94
      P1  H  7997  8010       L1    13  1.98

> <Gold.PLP.Chemscore.Internal.Correction>
0.0173

> <Gold.Rescore>
     Score         DG    S(hbond)    S(metal)    S(lipo)     H(rot)  DE(clash)    DE(int)     intcor
     16.81     -16.96       3.45        0.00      39.47       1.82       0.05       0.09       ----

> <Gold.Chemscore.Fitness>
16.8135

> <Gold.Chemscore.DG>
-16.9561

> <Gold.Chemscore.ZeroCoef>
-5.4800

> <Gold.Chemscore.Hbond>
3.4504

> <Gold.Chemscore.Metal>
0.0000

> <Gold.Chemscore.Lipo>
39.4669

> <Gold.Chemscore.Internal_Hbond>
0.0000

> <Gold.Chemscore.DEClash>
0.0537

> <Gold.Chemscore.DEInternal>
0.0890

> <Gold.Chemscore.Rot>
1.8226

> <Gold.Chemscore.Internal.Correction>
   9.000000E+99

> <Gold.Chemscore.Hbonds>
donor molecule, donor type, donor heavy atom, donor atom, acceptor molecule, acceptor atom, score
      L1  H     9    23       P1 10175  0.86
      L1  H    11    26       P1  8028  0.92
      P1  H  7989  7998       L1    12  0.20
      P1  H  7997  8010       L1    13  0.67

> <Gold.Chemscore.Hbond.Weighted>
-11.5243

> <Gold.Chemscore.Metal.Weighted>
-0.0000

> <Gold.Chemscore.Lipo.Weighted>
-4.6176

> <Gold.Chemscore.Internal_Hbond.Weighted>
0.0000

> <Gold.Chemscore.DEClash.Weighted>
0.0537

> <Gold.Chemscore.DEInternal.Weighted>
0.0890

> <Gold.Chemscore.Rot.Weighted>
4.6658

> <Gold.Chemscore.Internal.Correction.Weighted>
   9.000000E+99

> <Gold.Protein.RotatedTorsions>
[ 6907 6896 6895 6894 ] final   45.08 input  -60.11 | X-H torsion
[ 7974 7965 7964 7962 ] final  -93.60 input  175.53 | X-H torsion
[ 8008 7997 7996 7995 ] final   91.37 input   59.86 | X-H torsion
[ 10167 10162 10161 10158 ] final  -27.16 input  -65.29 | X-H torsion
[ 10718 10713 10712 10709 ] final   97.41 input   66.30 | X-H torsion
[ 10763 10752 10751 10750 ] final  -35.58 input  -60.55 | X-H torsion
[ 11005 11000 10999 10996 ] final  -48.13 input  -57.11 | X-H torsion

> <Gold.Protein.ActiveResidues>
 VAL166  LYS551  ARG553  GLY616  TRP617  ASP618  TYR619  PRO620  LYS621  CYS622 
 ASP623  PHE694  ASN695  SER759  ASP760  ASP761  ALA762  ILE779  LEU786  VAL792 
 PHE793  MET794  SER795  GLU796  ALA797  LYS798  CYS799  TRP800  GLU811  SER814 

> <Gold.Protein.RotatedAtoms>
  152.2402  134.8236  160.0461 H   0  0  0  0  0  0  0  0  0  0  0  0  # atno 6907 bound_to 6896
  151.8953  133.3520  159.3820 H   0  0  0  0  0  0  0  0  0  0  0  0  # atno 6908 bound_to 6896
  150.7051  134.4809  159.5514 H   0  0  0  0  0  0  0  0  0  0  0  0  # atno 6909 bound_to 6896
  145.3844  140.9521  143.2375 H   0  0  0  0  0  0  0  0  0  0  0  0  # atno 7974 bound_to 7965
  156.0230  140.3338  155.7058 H   0  0  0  0  0  0  0  0  0  0  0  0  # atno 8008 bound_to 7997
  155.5995  140.0654  157.2754 H   0  0  0  0  0  0  0  0  0  0  0  0  # atno 8009 bound_to 7997
  154.4323  140.1813  156.1146 H   0  0  0  0  0  0  0  0  0  0  0  0  # atno 8010 bound_to 7997
  140.7279  143.4116  151.1096 H   0  0  0  0  0  0  0  0  0  0  0  0  # atno 10167 bound_to 10162
  157.6913  131.0608  150.4639 H   0  0  0  0  0  0  0  0  0  0  0  0  # atno 10718 bound_to 10713
  153.8655  135.6836  153.4779 H   0  0  0  0  0  0  0  0  0  0  0  0  # atno 10763 bound_to 10752
  153.1317  135.4695  154.9357 H   0  0  0  0  0  0  0  0  0  0  0  0  # atno 10764 bound_to 10752
  154.7739  135.3247  154.8083 H   0  0  0  0  0  0  0  0  0  0  0  0  # atno 10765 bound_to 10752
  141.0682  133.6687  156.3397 H   0  0  0  0  0  0  0  0  0  0  0  0  # atno 11005 bound_to 11000
  144.8484  139.5360  143.6867 LP  0  0  0  0  0  0  0  0  0  0  0  0  # atno 17320 bound_to 7965
  146.2827  139.6920  142.9217 LP  0  0  0  0  0  0  0  0  0  0  0  0  # atno 17321 bound_to 7965
  139.7750  143.8438  152.3127 LP  0  0  0  0  0  0  0  0  0  0  0  0  # atno 17342 bound_to 10162
  139.8369  144.7228  150.9379 LP  0  0  0  0  0  0  0  0  0  0  0  0  # atno 17343 bound_to 10162
  156.4982  130.4111  149.6368 LP  0  0  0  0  0  0  0  0  0  0  0  0  # atno 17370 bound_to 10713
  156.3353  130.7353  151.2290 LP  0  0  0  0  0  0  0  0  0  0  0  0  # atno 17371 bound_to 10713
  140.5728  134.5823  157.5462 LP  0  0  0  0  0  0  0  0  0  0  0  0  # atno 17394 bound_to 11000
  139.9497  134.7638  156.0477 LP  0  0  0  0  0  0  0  0  0  0  0  0  # atno 17395 bound_to 11000

$$$$
