AV-unprocessed.smi:972|AV-procd|sdf|4296|dock1
  -GOLD-   22720 2203D 1   1.00000     0.00000
 Structure written by MMmdl.
 51 53  0  0  0  0  0  0  0  0  2 V2000
  136.3135  142.0635  153.0797 C   0  0  0  0  0  0  0  0  0  0  0  0
  136.5814  140.9749  154.1461 C   0  0  0  0  0  0  0  0  0  0  0  0
  136.3836  141.6627  155.5175 C   0  0  0  0  0  0  0  0  0  0  0  0
  135.5576  139.8360  153.9880 C   0  0  0  0  0  0  0  0  0  0  0  0
  138.0050  140.4063  154.0124 C   0  0  0  0  0  0  0  0  0  0  0  0
  139.0146  141.2862  153.9960 N   0  0  0  0  0  0  0  0  0  0  0  0
  140.2567  140.8180  153.7502 C   0  0  0  0  0  0  0  0  0  0  0  0
  140.4940  139.4490  153.4777 C   0  0  0  0  0  0  0  0  0  0  0  0
  141.7642  138.8636  153.2209 N   0  0  0  0  0  0  0  0  0  0  0  0
  142.1063  137.5640  153.2038 C   0  0  0  0  0  0  0  0  0  0  0  0
  141.3526  136.6225  153.4470 O   0  0  0  0  0  0  0  0  0  0  0  0
  143.4021  137.4083  152.8959 N   0  0  0  0  0  0  0  0  0  0  0  0
  144.0900  136.1247  152.7834 C   0  0  2  0  0  0  0  0  0  0  0  0
  145.2629  136.0359  153.7781 C   0  0  0  0  0  0  0  0  0  0  0  0
  146.0489  134.7269  153.5931 C   0  0  0  0  0  0  0  0  0  0  0  0
  146.5323  134.5866  152.1971 N   0  3  1  0  0  0  0  0  0  0  0  0
  147.3839  133.3904  152.0194 C   0  0  0  0  0  0  0  0  0  0  0  0
  146.9866  132.2245  152.8947 C   0  0  0  0  0  0  0  0  0  0  0  0
  148.2093  133.0464  153.2375 C   0  0  0  0  0  0  0  0  0  0  0  0
  145.4143  134.6269  151.2217 C   0  0  0  0  0  0  0  0  0  0  0  0
  144.6150  135.9348  151.3505 C   0  0  0  0  0  0  0  0  0  0  0  0
  139.3549  138.6191  153.4871 C   0  0  0  0  0  0  0  0  0  0  0  0
  138.1190  139.1010  153.7342 N   0  0  0  0  0  0  0  0  0  0  0  0
  135.3224  142.5018  153.2003 H   0  0  0  0  0  0  0  0  0  0  0  0
  136.3581  141.6633  152.0663 H   0  0  0  0  0  0  0  0  0  0  0  0
  137.0401  142.8739  153.1475 H   0  0  0  0  0  0  0  0  0  0  0  0
  137.1138  142.4580  155.6722 H   0  0  0  0  0  0  0  0  0  0  0  0
  136.4797  140.9593  156.3454 H   0  0  0  0  0  0  0  0  0  0  0  0
  135.3916  142.1087  155.5990 H   0  0  0  0  0  0  0  0  0  0  0  0
  134.5351  140.2041  154.0781 H   0  0  0  0  0  0  0  0  0  0  0  0
  135.6991  139.0679  154.7492 H   0  0  0  0  0  0  0  0  0  0  0  0
  135.6492  139.3539  153.0140 H   0  0  0  0  0  0  0  0  0  0  0  0
  141.0409  141.5570  153.7852 H   0  0  0  0  0  0  0  0  0  0  0  0
  142.5116  139.5201  153.0484 H   0  0  0  0  0  0  0  0  0  0  0  0
  143.9488  138.2375  152.7147 H   0  0  0  0  0  0  0  0  0  0  0  0
  143.3806  135.3225  152.9964 H   0  0  0  0  0  0  0  0  0  0  0  0
  145.9339  136.8849  153.6387 H   0  0  0  0  0  0  0  0  0  0  0  0
  144.8959  136.0979  154.8032 H   0  0  0  0  0  0  0  0  0  0  0  0
  146.8978  134.7134  154.2779 H   0  0  0  0  0  0  0  0  0  0  0  0
  145.4217  133.8718  153.8500 H   0  0  0  0  0  0  0  0  0  0  0  0
  147.7764  133.2195  151.0185 H   0  0  0  0  0  0  0  0  0  0  0  0
  146.1127  132.3333  153.5346 H   0  0  0  0  0  0  0  0  0  0  0  0
  147.1536  131.2230  152.5031 H   0  0  0  0  0  0  0  0  0  0  0  0
  149.1812  132.5859  153.0721 H   0  0  0  0  0  0  0  0  0  0  0  0
  148.1465  133.6999  154.1060 H   0  0  0  0  0  0  0  0  0  0  0  0
  145.8089  134.5398  150.2086 H   0  0  0  0  0  0  0  0  0  0  0  0
  144.7592  133.7687  151.3808 H   0  0  0  0  0  0  0  0  0  0  0  0
  143.7834  135.9292  150.6444 H   0  0  0  0  0  0  0  0  0  0  0  0
  145.2517  136.7764  151.0725 H   0  0  0  0  0  0  0  0  0  0  0  0
  139.4314  137.5603  153.2873 H   0  0  0  0  0  0  0  0  0  0  0  0
  147.1162  135.3887  152.0071 H   0  0  0  0  0  0  0  0  0  0  0  0
  1  2  1  0  0  0  0
  1 24  1  0  0  0  0
  1 25  1  0  0  0  0
  1 26  1  0  0  0  0
  2  3  1  0  0  0  0
  2  4  1  0  0  0  0
  2  5  1  0  0  0  0
  3 27  1  0  0  0  0
  3 28  1  0  0  0  0
  3 29  1  0  0  0  0
  4 30  1  0  0  0  0
  4 31  1  0  0  0  0
  4 32  1  0  0  0  0
  5 23  1  0  0  0  0
  5  6  2  0  0  0  0
  6  7  1  0  0  0  0
  7  8  2  0  0  0  0
  7 33  1  0  0  0  0
  8  9  1  0  0  0  0
  8 22  1  0  0  0  0
  9 10  1  0  0  0  0
  9 34  1  0  0  0  0
 10 11  2  0  0  0  0
 10 12  1  0  0  0  0
 12 13  1  0  0  0  0
 12 35  1  0  0  0  0
 13 21  1  0  0  0  0
 13 14  1  0  0  0  0
 13 36  1  0  0  0  0
 14 15  1  0  0  0  0
 14 37  1  0  0  0  0
 14 38  1  0  0  0  0
 15 16  1  0  0  0  0
 15 39  1  0  0  0  0
 15 40  1  0  0  0  0
 16 17  1  0  0  0  0
 16 20  1  0  0  0  0
 16 51  1  0  0  0  0
 17 19  1  0  0  0  0
 17 18  1  0  0  0  0
 17 41  1  0  0  0  0
 18 19  1  0  0  0  0
 18 42  1  0  0  0  0
 18 43  1  0  0  0  0
 19 44  1  0  0  0  0
 19 45  1  0  0  0  0
 20 21  1  0  0  0  0
 20 46  1  0  0  0  0
 20 47  1  0  0  0  0
 21 48  1  0  0  0  0
 21 49  1  0  0  0  0
 22 23  2  0  0  0  0
 22 50  1  0  0  0  0
M  CHG  1  16   1
M  END
> <s_m_source_file>
AV-unprocessed.smi

> <i_m_source_file_index>
972

> <i_lp_mmshare_version>
43012

> <i_f3d_flags>
0

> <s_epik_input>
W0NIM11DKFtDSDNdKShbQ0gzXSljMW5bY0hdYyhbY0hdbjEpW05IXUMoPU8pW05IXVtDSF0yW0NIMl1bQ0gyXU4oW0NIMl1bQ0gyXTIpW0NIXTNbQ0gyXVtDSDJdMw==

> <s_epik_cmdline>
J2VwaWtfcHl0aG9uJywgJy1waCcsICc3LjAnLCAnLXRuJywgJzgnLCAnLW1hJywgJzIwMCcsICctbWV0YWxfYmluZGluZycsICctaW1hZScsICc8aW5maWxlLm1hZT4nLCAnLW9tYWUnLCAnPG91dGZpbGUubWFlPic=

> <r_lp_tautomer_probability>
1

> <r_epik_Ionization_Penalty>
0.123264

> <r_epik_Ionization_Penalty_Charging>
0.123242

> <r_epik_Ionization_Penalty_Neutral>
2.24743e-05

> <r_epik_State_Penalty>
0.112739

> <r_epik_Charging_Adjusted_Penalty>
0.235981

> <i_epik_Tot_Q>
1

> <i_epik_Tot_abs_Q>
1

> <r_epik_Metal_State_Penalty>
0.112739

> <b_epik_Metal_Only>
0

> <s_lp_Force_Field>
OPLS_2005

> <r_lp_Energy>
25.9284

> <b_lp_Chiralities_Consistent>
1

> <s_lp_Variant>
AV-unprocessed.smi:972-1

> <Gold.Version>
5.8.1

> <Gold.Id.Protein>
6NUR|6NUR_protein|mol2

> <Gold.PLP.Fitness>
43.9560

> <Gold.PLP.PLP>
-30.9466

> <Gold.PLP.part.hbond>
-3.3667

> <Gold.PLP.part.metal>
0.0000

> <Gold.PLP.part.buried>
-0.4390

> <Gold.PLP.part.nonpolar>
-28.0793

> <Gold.PLP.part.repulsive>
0.3632

> <Gold.PLP.ligand.clash>
0.0000

> <Gold.PLP.ligand.torsion>
0.7454

> <Gold.PLP.Chemscore.Hbond>
3.3662

> <Gold.PLP.Chemscore.CHOScore>
1.0000

> <Gold.PLP.Chemscore.Metal>
0.0000

> <Gold.Chemscore.Hbonds>
donor molecule, donor type, donor heavy atom, donor atom, acceptor molecule, acceptor atom, score
      L1  H     9    34       P1 10175  1.00
      L1  H    12    35       P1 10175  0.38
      L1  H    16    51       P1  7948  1.98
      L1  C     7    33       P1 10174  1.00

> <Gold.PLP.Chemscore.Internal.Correction>
1.4017

> <Gold.Rescore>
     Score         DG    S(hbond)    S(metal)    S(lipo)     H(rot)  DE(clash)    DE(int)     intcor
     15.89     -18.44       2.50        0.00      68.16       1.32       0.46       2.09       ----

> <Gold.Chemscore.Fitness>
15.8890

> <Gold.Chemscore.DG>
-18.4374

> <Gold.Chemscore.ZeroCoef>
-5.4800

> <Gold.Chemscore.Hbond>
2.5041

> <Gold.Chemscore.Metal>
0.0000

> <Gold.Chemscore.Lipo>
68.1600

> <Gold.Chemscore.Internal_Hbond>
0.0000

> <Gold.Chemscore.DEClash>
0.4585

> <Gold.Chemscore.DEInternal>
2.0899

> <Gold.Chemscore.Rot>
1.3207

> <Gold.Chemscore.Internal.Correction>
   9.000000E+99

> <Gold.Chemscore.Hbonds>
donor molecule, donor type, donor heavy atom, donor atom, acceptor molecule, acceptor atom, score
      L1  H     9    34       P1 10175  0.92
      L1  H    12    35       P1 10175  0.39
      L1  H    16    51       P1  7948  0.91

> <Gold.Chemscore.Hbond.Weighted>
-8.3636

> <Gold.Chemscore.Metal.Weighted>
-0.0000

> <Gold.Chemscore.Lipo.Weighted>
-7.9747

> <Gold.Chemscore.Internal_Hbond.Weighted>
0.0000

> <Gold.Chemscore.DEClash.Weighted>
0.4585

> <Gold.Chemscore.DEInternal.Weighted>
2.0899

> <Gold.Chemscore.Rot.Weighted>
3.3809

> <Gold.Chemscore.Internal.Correction.Weighted>
   9.000000E+99

> <Gold.Protein.RotatedTorsions>
[ 6907 6896 6895 6894 ] final   61.77 input  -60.11 | X-H torsion
[ 7974 7965 7964 7962 ] final -164.31 input  175.53 | X-H torsion
[ 8008 7997 7996 7995 ] final -142.50 input   59.86 | X-H torsion
[ 10167 10162 10161 10158 ] final  175.65 input  -65.29 | X-H torsion
[ 10718 10713 10712 10709 ] final   46.59 input   66.30 | X-H torsion
[ 10763 10752 10751 10750 ] final  -77.20 input  -60.55 | X-H torsion
[ 11005 11000 10999 10996 ] final  172.01 input  -57.11 | X-H torsion

> <Gold.Protein.ActiveResidues>
 VAL166  LYS551  ARG553  GLY616  TRP617  ASP618  TYR619  PRO620  LYS621  CYS622 
 ASP623  PHE694  ASN695  SER759  ASP760  ASP761  ALA762  ILE779  LEU786  VAL792 
 PHE793  MET794  SER795  GLU796  ALA797  LYS798  CYS799  TRP800  GLU811  SER814 

> <Gold.Protein.RotatedAtoms>
  152.4116  134.6114  160.0026 H   0  0  0  0  0  0  0  0  0  0  0  0  # atno 6907 bound_to 6896
  151.6289  133.3328  159.3112 H   0  0  0  0  0  0  0  0  0  0  0  0  # atno 6908 bound_to 6896
  150.8007  134.7138  159.6664 H   0  0  0  0  0  0  0  0  0  0  0  0  # atno 6909 bound_to 6896
  144.7300  140.2980  143.6209 H   0  0  0  0  0  0  0  0  0  0  0  0  # atno 7974 bound_to 7965
  155.4953  140.0571  157.2947 H   0  0  0  0  0  0  0  0  0  0  0  0  # atno 8008 bound_to 7997
  154.4607  140.1995  156.0202 H   0  0  0  0  0  0  0  0  0  0  0  0  # atno 8009 bound_to 7997
  156.0885  140.3237  155.7789 H   0  0  0  0  0  0  0  0  0  0  0  0  # atno 8010 bound_to 7997
  139.5185  144.3006  152.0381 H   0  0  0  0  0  0  0  0  0  0  0  0  # atno 10167 bound_to 10162
  157.4497  130.8130  149.7776 H   0  0  0  0  0  0  0  0  0  0  0  0  # atno 10718 bound_to 10713
  154.5098  135.5772  153.6596 H   0  0  0  0  0  0  0  0  0  0  0  0  # atno 10763 bound_to 10752
  152.9895  135.6156  154.2894 H   0  0  0  0  0  0  0  0  0  0  0  0  # atno 10764 bound_to 10752
  154.2807  135.2851  155.2678 H   0  0  0  0  0  0  0  0  0  0  0  0  # atno 10765 bound_to 10752
  140.3251  134.7405  157.4093 H   0  0  0  0  0  0  0  0  0  0  0  0  # atno 11005 bound_to 11000
  145.7789  139.1884  143.2169 LP  0  0  0  0  0  0  0  0  0  0  0  0  # atno 17320 bound_to 7965
  146.0850  140.7721  142.9623 LP  0  0  0  0  0  0  0  0  0  0  0  0  # atno 17321 bound_to 7965
  140.2454  144.4225  150.6243 LP  0  0  0  0  0  0  0  0  0  0  0  0  # atno 17342 bound_to 10162
  140.6261  143.2181  151.6592 LP  0  0  0  0  0  0  0  0  0  0  0  0  # atno 17343 bound_to 10162
  155.9982  130.3896  150.2712 LP  0  0  0  0  0  0  0  0  0  0  0  0  # atno 17370 bound_to 10713
  157.0883  131.0162  151.3131 LP  0  0  0  0  0  0  0  0  0  0  0  0  # atno 17371 bound_to 10713
  140.0908  134.5603  155.8446 LP  0  0  0  0  0  0  0  0  0  0  0  0  # atno 17394 bound_to 11000
  141.2077  133.6667  156.6324 LP  0  0  0  0  0  0  0  0  0  0  0  0  # atno 17395 bound_to 11000

$$$$
