AV-unprocessed.smi:146|AV-procd|sdf|1200|dock5
  -GOLD-   2262018363D 1   1.00000     0.00000
 Structure written by MMmdl.
 55 59  0  0  0  0  0  0  0  0  1 V2000
  151.7179  141.5987  158.9863 C   0  0  0  0  0  0  0  0  0  0  0  0
  150.9357  140.7760  157.9503 C   0  0  0  0  0  0  0  0  0  0  0  0
  151.8301  140.5582  156.7126 C   0  0  0  0  0  0  0  0  0  0  0  0
  150.5083  139.4331  158.5763 C   0  0  0  0  0  0  0  0  0  0  0  0
  149.5077  138.7763  157.7474 N   0  0  0  0  0  0  0  0  0  0  0  0
  149.3503  137.4493  157.9760 C   0  0  0  0  0  0  0  0  0  0  0  0
  149.8153  136.5424  157.0757 N   0  0  0  0  0  0  0  0  0  0  0  0
  149.6538  135.2339  157.2925 C   0  0  0  0  0  0  0  0  0  0  0  0
  149.0713  134.6256  158.3273 N   0  0  0  0  0  0  0  0  0  0  0  0
  148.6139  135.5285  159.2407 C   0  0  0  0  0  0  0  0  0  0  0  0
  148.7077  136.9457  159.1419 C   0  0  0  0  0  0  0  0  0  0  0  0
  148.1336  137.5372  160.2609 N   0  0  0  0  0  0  0  0  0  0  0  0
  147.7137  136.5281  160.9737 C   0  0  0  0  0  0  0  0  0  0  0  0
  147.9721  135.2840  160.4425 N   0  0  0  0  0  0  0  0  0  0  0  0
  147.6193  133.9995  161.0287 C   0  0  0  0  0  0  0  0  0  0  0  0
  146.1149  133.8322  161.3292 C   0  0  0  0  0  0  0  0  0  0  0  0
  145.2851  133.9138  160.0356 C   0  0  0  0  0  0  0  0  0  0  0  0
  145.6734  132.9214  159.1068 O   0  0  0  0  0  0  0  0  0  0  0  0
  145.7451  132.6674  162.2578 C   0  0  0  0  0  0  0  0  0  0  0  0
  144.9515  133.5231  163.1068 O   0  0  0  0  0  0  0  0  0  0  0  0
  145.5605  134.6751  162.4872 C   0  0  0  0  0  0  0  0  0  0  0  0
  148.3178  139.5958  157.5622 C   0  0  0  0  0  0  0  0  0  0  0  0
  148.6889  140.9608  156.9428 C   0  0  1  0  0  0  0  0  0  0  0  0
  148.9285  140.8903  155.4306 C   0  0  0  0  0  0  0  0  0  0  0  0
  147.6333  141.3948  154.7882 C   0  0  0  0  0  0  0  0  0  0  0  0
  146.7297  141.5984  155.8615 O   0  0  0  0  0  0  0  0  0  0  0  0
  147.4944  141.9169  157.0105 C   0  0  0  0  0  0  0  0  0  0  0  0
  149.7795  141.5724  157.6466 O   0  0  0  0  0  0  0  0  0  0  0  0
  152.6208  141.0790  159.3086 H   0  0  0  0  0  0  0  0  0  0  0  0
  151.1145  141.7932  159.8738 H   0  0  0  0  0  0  0  0  0  0  0  0
  152.0189  142.5640  158.5780 H   0  0  0  0  0  0  0  0  0  0  0  0
  152.7739  140.0896  156.9933 H   0  0  0  0  0  0  0  0  0  0  0  0
  152.0648  141.5042  156.2240 H   0  0  0  0  0  0  0  0  0  0  0  0
  151.3684  139.9042  155.9749 H   0  0  0  0  0  0  0  0  0  0  0  0
  151.3826  138.8020  158.7352 H   0  0  0  0  0  0  0  0  0  0  0  0
  150.0699  139.6039  159.5606 H   0  0  0  0  0  0  0  0  0  0  0  0
  150.0471  134.5812  156.5271 H   0  0  0  0  0  0  0  0  0  0  0  0
  147.2085  136.6640  161.9190 H   0  0  0  0  0  0  0  0  0  0  0  0
  147.9647  133.2133  160.3561 H   0  0  0  0  0  0  0  0  0  0  0  0
  148.2062  133.8782  161.9399 H   0  0  0  0  0  0  0  0  0  0  0  0
  144.2260  133.7690  160.2515 H   0  0  0  0  0  0  0  0  0  0  0  0
  145.3635  134.8949  159.5672 H   0  0  0  0  0  0  0  0  0  0  0  0
  146.5274  133.1446  158.7686 H   0  0  0  0  0  0  0  0  0  0  0  0
  145.1546  131.8845  161.7803 H   0  0  0  0  0  0  0  0  0  0  0  0
  146.5946  132.2413  162.7943 H   0  0  0  0  0  0  0  0  0  0  0  0
  146.3248  135.1124  163.1305 H   0  0  0  0  0  0  0  0  0  0  0  0
  144.8308  135.4268  162.1830 H   0  0  0  0  0  0  0  0  0  0  0  0
  147.5910  139.0835  156.9299 H   0  0  0  0  0  0  0  0  0  0  0  0
  147.8469  139.7429  158.5354 H   0  0  0  0  0  0  0  0  0  0  0  0
  149.7487  141.5425  155.1294 H   0  0  0  0  0  0  0  0  0  0  0  0
  149.1719  139.8802  155.1001 H   0  0  0  0  0  0  0  0  0  0  0  0
  147.8031  142.3416  154.2740 H   0  0  0  0  0  0  0  0  0  0  0  0
  147.2224  140.6861  154.0688 H   0  0  0  0  0  0  0  0  0  0  0  0
  146.9116  141.8189  157.9267 H   0  0  0  0  0  0  0  0  0  0  0  0
  147.8237  142.9546  156.9340 H   0  0  0  0  0  0  0  0  0  0  0  0
  1  2  1  0  0  0  0
  1 29  1  0  0  0  0
  1 30  1  0  0  0  0
  1 31  1  0  0  0  0
  2 28  1  0  0  0  0
  2  3  1  0  0  0  0
  2  4  1  0  0  0  0
  3 32  1  0  0  0  0
  3 33  1  0  0  0  0
  3 34  1  0  0  0  0
  4  5  1  0  0  0  0
  4 35  1  0  0  0  0
  4 36  1  0  0  0  0
  5  6  1  0  0  0  0
  5 22  1  0  0  0  0
  6 11  1  0  0  0  0
  6  7  2  0  0  0  0
  7  8  1  0  0  0  0
  8  9  2  0  0  0  0
  8 37  1  0  0  0  0
  9 10  1  0  0  0  0
 10 14  1  0  0  0  0
 10 11  2  0  0  0  0
 11 12  1  0  0  0  0
 12 13  2  0  0  0  0
 13 14  1  0  0  0  0
 13 38  1  0  0  0  0
 14 15  1  0  0  0  0
 15 16  1  0  0  0  0
 15 39  1  0  0  0  0
 15 40  1  0  0  0  0
 16 21  1  0  0  0  0
 16 17  1  0  0  0  0
 16 19  1  0  0  0  0
 17 18  1  0  0  0  0
 17 41  1  0  0  0  0
 17 42  1  0  0  0  0
 18 43  1  0  0  0  0
 19 20  1  0  0  0  0
 19 44  1  0  0  0  0
 19 45  1  0  0  0  0
 20 21  1  0  0  0  0
 21 46  1  0  0  0  0
 21 47  1  0  0  0  0
 22 23  1  0  0  0  0
 22 48  1  0  0  0  0
 22 49  1  0  0  0  0
 23 27  1  0  0  0  0
 23 24  1  0  0  0  0
 23 28  1  0  0  0  0
 24 25  1  0  0  0  0
 24 50  1  0  0  0  0
 24 51  1  0  0  0  0
 25 26  1  0  0  0  0
 25 52  1  0  0  0  0
 25 53  1  0  0  0  0
 26 27  1  0  0  0  0
 27 54  1  0  0  0  0
 27 55  1  0  0  0  0
M  END
> <s_m_source_file>
AV-unprocessed.smi

> <i_m_source_file_index>
146

> <i_lp_mmshare_version>
43012

> <i_f3d_flags>
0

> <s_epik_input>
W0NIMl0xT1tDSDJdW0NIMl1bQ0BAXTEyW0NIMl1OKFtDSDJdQyhPMikoW0NIM10pW0NIM10pYyhuW2NIXW4zKWMoYzM0KW5bY0hdbjRbQ0gyXUM1KFtDSDJdW09IXSlbQ0gyXU9bQ0gyXTU=

> <s_epik_cmdline>
J2VwaWtfcHl0aG9uJywgJy1waCcsICc3LjAnLCAnLXRuJywgJzgnLCAnLW1hJywgJzIwMCcsICctbWV0YWxfYmluZGluZycsICctaW1hZScsICc8aW5maWxlLm1hZT4nLCAnLW9tYWUnLCAnPG91dGZpbGUubWFlPic=

> <r_lp_tautomer_probability>
1

> <r_epik_Ionization_Penalty>
0.00353822

> <r_epik_Ionization_Penalty_Charging>
0

> <r_epik_Ionization_Penalty_Neutral>
0.00353822

> <r_epik_State_Penalty>
0.0023805

> <r_epik_Charging_Adjusted_Penalty>
0.0023805

> <i_epik_Tot_Q>
0

> <i_epik_Tot_abs_Q>
0

> <r_epik_Metal_State_Penalty>
-0

> <b_epik_Metal_Only>
0

> <s_lp_Force_Field>
OPLS_2005

> <r_lp_Energy>
57.4997

> <b_lp_Chiralities_Consistent>
1

> <s_lp_Variant>
AV-unprocessed.smi:146-2

> <Gold.Version>
5.8.1

> <Gold.Id.Protein>
6NUR|6NUR_protein|mol2

> <Gold.PLP.Fitness>
37.3205

> <Gold.PLP.PLP>
-31.9189

> <Gold.PLP.part.hbond>
-3.9634

> <Gold.PLP.part.metal>
0.0000

> <Gold.PLP.part.buried>
-4.6150

> <Gold.PLP.part.nonpolar>
-24.0987

> <Gold.PLP.part.repulsive>
0.2574

> <Gold.PLP.ligand.clash>
0.0000

> <Gold.PLP.ligand.torsion>
0.3486

> <Gold.PLP.Chemscore.Hbond>
1.8224

> <Gold.PLP.Chemscore.CHOScore>
0.0000

> <Gold.PLP.Chemscore.Metal>
0.0000

> <Gold.Chemscore.Hbonds>
donor molecule, donor type, donor heavy atom, donor atom, acceptor molecule, acceptor atom, score
      P1  H  6896  6908       L1     9  0.90
      P1  H  6931  6943       L1    12  0.26
      P1  H  6934  6947       L1    12  0.59

> <Gold.PLP.Chemscore.Internal.Correction>
0.6315

> <Gold.Rescore>
     Score         DG    S(hbond)    S(metal)    S(lipo)     H(rot)  DE(clash)    DE(int)     intcor
      9.30      -9.73       0.87        0.00      64.85       2.44       0.08       0.35       ----

> <Gold.Chemscore.Fitness>
9.2958

> <Gold.Chemscore.DG>
-9.7258

> <Gold.Chemscore.ZeroCoef>
-5.4800

> <Gold.Chemscore.Hbond>
0.8680

> <Gold.Chemscore.Metal>
0.0000

> <Gold.Chemscore.Lipo>
64.8451

> <Gold.Chemscore.Internal_Hbond>
0.0000

> <Gold.Chemscore.DEClash>
0.0765

> <Gold.Chemscore.DEInternal>
0.3534

> <Gold.Chemscore.Rot>
2.4376

> <Gold.Chemscore.Internal.Correction>
   9.000000E+99

> <Gold.Chemscore.Hbonds>
donor molecule, donor type, donor heavy atom, donor atom, acceptor molecule, acceptor atom, score
      P1  H  6896  6908       L1     9  0.04
      P1  H  6931  6943       L1    12  0.01
      P1  H  6934  6947       L1    12  0.33

> <Gold.Chemscore.Hbond.Weighted>
-2.8990

> <Gold.Chemscore.Metal.Weighted>
-0.0000

> <Gold.Chemscore.Lipo.Weighted>
-7.5869

> <Gold.Chemscore.Internal_Hbond.Weighted>
0.0000

> <Gold.Chemscore.DEClash.Weighted>
0.0765

> <Gold.Chemscore.DEInternal.Weighted>
0.3534

> <Gold.Chemscore.Rot.Weighted>
6.2402

> <Gold.Chemscore.Internal.Correction.Weighted>
   9.000000E+99

> <Gold.Protein.RotatedTorsions>
[ 6907 6896 6895 6894 ] final  131.73 input  -60.11 | X-H torsion
[ 7974 7965 7964 7962 ] final -108.67 input  175.53 | X-H torsion
[ 8008 7997 7996 7995 ] final  175.88 input   59.86 | X-H torsion
[ 10167 10162 10161 10158 ] final -131.86 input  -65.29 | X-H torsion
[ 10718 10713 10712 10709 ] final -144.59 input   66.30 | X-H torsion
[ 10763 10752 10751 10750 ] final  -56.07 input  -60.55 | X-H torsion
[ 11005 11000 10999 10996 ] final  -32.37 input  -57.11 | X-H torsion

> <Gold.Protein.ActiveResidues>
 VAL166  LYS551  ARG553  GLY616  TRP617  ASP618  TYR619  PRO620  LYS621  CYS622 
 ASP623  PHE694  ASN695  SER759  ASP760  ASP761  ALA762  ILE779  LEU786  VAL792 
 PHE793  MET794  SER795  GLU796  ALA797  LYS798  CYS799  TRP800  GLU811  SER814 

> <Gold.Protein.RotatedAtoms>
  152.3397  133.6052  159.5867 H   0  0  0  0  0  0  0  0  0  0  0  0  # atno 6907 bound_to 6896
  150.7471  133.9742  159.3564 H   0  0  0  0  0  0  0  0  0  0  0  0  # atno 6908 bound_to 6896
  151.7607  135.0811  160.0396 H   0  0  0  0  0  0  0  0  0  0  0  0  # atno 6909 bound_to 6896
  145.1900  140.9010  143.3430 H   0  0  0  0  0  0  0  0  0  0  0  0  # atno 7974 bound_to 7965
  156.0824  140.1397  156.9696 H   0  0  0  0  0  0  0  0  0  0  0  0  # atno 8008 bound_to 7997
  154.4593  140.0949  156.6895 H   0  0  0  0  0  0  0  0  0  0  0  0  # atno 8009 bound_to 7997
  155.5054  140.3452  155.4381 H   0  0  0  0  0  0  0  0  0  0  0  0  # atno 8010 bound_to 7997
  139.9145  143.6455  152.2568 H   0  0  0  0  0  0  0  0  0  0  0  0  # atno 10167 bound_to 10162
  156.3720  130.7793  151.1975 H   0  0  0  0  0  0  0  0  0  0  0  0  # atno 10718 bound_to 10713
  154.2008  135.6411  153.5086 H   0  0  0  0  0  0  0  0  0  0  0  0  # atno 10763 bound_to 10752
  153.0012  135.5451  154.6317 H   0  0  0  0  0  0  0  0  0  0  0  0  # atno 10764 bound_to 10752
  154.5729  135.2918  155.0782 H   0  0  0  0  0  0  0  0  0  0  0  0  # atno 10765 bound_to 10752
  140.9547  133.7200  156.1274 H   0  0  0  0  0  0  0  0  0  0  0  0  # atno 11005 bound_to 11000
  145.0051  139.3562  143.6148 LP  0  0  0  0  0  0  0  0  0  0  0  0  # atno 17320 bound_to 7965
  146.3438  139.9290  142.8756 LP  0  0  0  0  0  0  0  0  0  0  0  0  # atno 17321 bound_to 7965
  139.6914  144.7646  151.1432 LP  0  0  0  0  0  0  0  0  0  0  0  0  # atno 17342 bound_to 10162
  140.7677  143.5584  150.9126 LP  0  0  0  0  0  0  0  0  0  0  0  0  # atno 17343 bound_to 10162
  157.7485  131.0369  150.4432 LP  0  0  0  0  0  0  0  0  0  0  0  0  # atno 17370 bound_to 10713
  156.4661  130.4042  149.6546 LP  0  0  0  0  0  0  0  0  0  0  0  0  # atno 17371 bound_to 10713
  140.7553  134.3999  157.5535 LP  0  0  0  0  0  0  0  0  0  0  0  0  # atno 17394 bound_to 11000
  139.8858  134.8926  156.2620 LP  0  0  0  0  0  0  0  0  0  0  0  0  # atno 17395 bound_to 11000

$$$$
