AV-unprocessed.smi:57|AV-procd|sdf|582|dock2
  -GOLD-   2262016483D 1   1.00000     0.00000
 Structure written by MMmdl.
 26 27  0  0  0  0  0  0  0  0  2 V2000
  150.3336  135.7955  154.1248 N   0  0  0  0  0  0  0  0  0  0  0  0
  150.5808  137.0902  154.5260 C   0  0  0  0  0  0  0  0  0  0  0  0
  151.8489  137.2482  155.1035 N   0  5  0  0  0  0  0  0  0  0  0  0
  152.2580  138.4740  155.5527 C   0  0  0  0  0  0  0  0  0  0  0  0
  153.3474  138.7166  156.0687 O   0  0  0  0  0  0  0  0  0  0  0  0
  151.2778  139.5740  155.3855 C   0  0  0  0  0  0  0  0  0  0  0  0
  151.3354  140.9245  155.7127 N   0  0  0  0  0  0  0  0  0  0  0  0
  150.1455  141.3619  155.3015 C   0  0  0  0  0  0  0  0  0  0  0  0
  149.3465  140.4268  154.7521 N   0  0  0  0  0  0  0  0  0  0  0  0
  148.0130  140.6118  154.2177 C   0  0  0  0  0  0  0  0  0  0  0  0
  147.5404  139.3646  153.8331 O   0  0  0  0  0  0  0  0  0  0  0  0
  146.9170  139.3721  152.5607 C   0  0  0  0  0  0  0  0  0  0  0  0
  146.5444  137.9319  152.1952 C   0  0  0  0  0  0  0  0  0  0  0  0
  146.4738  137.7917  150.7928 O   0  0  0  0  0  0  0  0  0  0  0  0
  150.0822  139.2500  154.8038 C   0  0  0  0  0  0  0  0  0  0  0  0
  149.6679  138.0131  154.3464 N   0  0  0  0  0  0  0  0  0  0  0  0
  150.9944  135.0413  154.2388 H   0  0  0  0  0  0  0  0  0  0  0  0
  149.4690  135.5093  153.6899 H   0  0  0  0  0  0  0  0  0  0  0  0
  149.8469  142.3949  155.4015 H   0  0  0  0  0  0  0  0  0  0  0  0
  148.0511  141.2873  153.3620 H   0  0  0  0  0  0  0  0  0  0  0  0
  147.3920  141.0498  155.0014 H   0  0  0  0  0  0  0  0  0  0  0  0
  146.0213  139.9952  152.5841 H   0  0  0  0  0  0  0  0  0  0  0  0
  147.5950  139.7912  151.8151 H   0  0  0  0  0  0  0  0  0  0  0  0
  147.2835  137.2332  152.5882 H   0  0  0  0  0  0  0  0  0  0  0  0
  145.5800  137.6662  152.6291 H   0  0  0  0  0  0  0  0  0  0  0  0
  145.6585  138.1662  150.4962 H   0  0  0  0  0  0  0  0  0  0  0  0
  1  2  1  0  0  0  0
  1 18  1  0  0  0  0
  1 17  1  0  0  0  0
  2 16  2  0  0  0  0
  2  3  1  0  0  0  0
  3  4  1  0  0  0  0
  4  5  2  0  0  0  0
  4  6  1  0  0  0  0
  6 15  2  0  0  0  0
  6  7  1  0  0  0  0
  7  8  2  0  0  0  0
  8 19  1  0  0  0  0
  8  9  1  0  0  0  0
  9 10  1  0  0  0  0
  9 15  1  0  0  0  0
 10 11  1  0  0  0  0
 10 20  1  0  0  0  0
 10 21  1  0  0  0  0
 11 12  1  0  0  0  0
 12 13  1  0  0  0  0
 12 22  1  0  0  0  0
 12 23  1  0  0  0  0
 13 14  1  0  0  0  0
 13 24  1  0  0  0  0
 13 25  1  0  0  0  0
 14 26  1  0  0  0  0
 15 16  1  0  0  0  0
M  CHG  1   3  -1
M  END
> <s_m_source_file>
AV-unprocessed.smi

> <i_m_source_file_index>
57

> <i_lp_mmshare_version>
43012

> <i_f3d_flags>
0

> <s_epik_input>
Tz1jMW5jKFtOSDJdKVtuSF1jKGMxMiluKFtjSF1uMilbQ0gyXU9bQ0gyXVtDSDJdW09IXQ==

> <s_epik_cmdline>
J2VwaWtfcHl0aG9uJywgJy1waCcsICc3LjAnLCAnLXRuJywgJzgnLCAnLW1hJywgJzIwMCcsICctbWV0YWxfYmluZGluZycsICctaW1hZScsICc8aW5maWxlLm1hZT4nLCAnLW9tYWUnLCAnPG91dGZpbGUubWFlPic=

> <r_lp_tautomer_probability>
1

> <r_epik_Ionization_Penalty>
3.57731

> <r_epik_Ionization_Penalty_Charging>
1.28925e-10

> <r_epik_Ionization_Penalty_Neutral>
3.57731

> <r_epik_State_Penalty>
3.56652

> <r_epik_Charging_Adjusted_Penalty>
3.56652

> <i_epik_Tot_Q>
-1

> <i_epik_Tot_abs_Q>
1

> <r_epik_Metal_State_Penalty>
0.520711

> <b_epik_Metal_Only>
1

> <s_epik_Chemistry_Notes>
This compound contains an acetal/aminal-like group ( X-CH(R)-Y where X, Y are N, S, or O) that may be acid/base labile, releasing an aldehyde.

> <s_lp_Force_Field>
OPLS_2005

> <r_lp_Energy>
17.0797

> <b_lp_Chiralities_Consistent>
1

> <s_lp_Variant>
AV-unprocessed.smi:57-2

> <Gold.Version>
5.8.1

> <Gold.Id.Protein>
6NUR|6NUR_protein|mol2

> <Gold.PLP.Fitness>
45.2034

> <Gold.PLP.PLP>
-27.2450

> <Gold.PLP.part.hbond>
-7.9734

> <Gold.PLP.part.metal>
0.0000

> <Gold.PLP.part.buried>
1.8231

> <Gold.PLP.part.nonpolar>
-22.1872

> <Gold.PLP.part.repulsive>
0.5951

> <Gold.PLP.ligand.clash>
0.0000

> <Gold.PLP.ligand.torsion>
0.4817

> <Gold.PLP.Chemscore.Hbond>
5.3069

> <Gold.PLP.Chemscore.CHOScore>
1.0000

> <Gold.PLP.Chemscore.Metal>
0.0000

> <Gold.Chemscore.Hbonds>
donor molecule, donor type, donor heavy atom, donor atom, acceptor molecule, acceptor atom, score
      L1  H     1    18       P1  7948  0.38
      L1  H    14    26       P1 10171  1.00
      P1  H  7954  7966       L1    14  1.00
      P1  H  7997  8009       L1     5  0.96
      P1  H 10752 10765       L1     3  1.93
      L1  C     8    19       P1  8028  1.00

> <Gold.PLP.Chemscore.Internal.Correction>
0.0011

> <Gold.Rescore>
     Score         DG    S(hbond)    S(metal)    S(lipo)     H(rot)  DE(clash)    DE(int)     intcor
      7.96     -11.08       3.74        0.00      22.49       3.73       0.93       2.18       ----

> <Gold.Chemscore.Fitness>
7.9632

> <Gold.Chemscore.DG>
-11.0803

> <Gold.Chemscore.ZeroCoef>
-5.4800

> <Gold.Chemscore.Hbond>
3.7448

> <Gold.Chemscore.Metal>
0.0000

> <Gold.Chemscore.Lipo>
22.4937

> <Gold.Chemscore.Internal_Hbond>
0.0000

> <Gold.Chemscore.DEClash>
0.9341

> <Gold.Chemscore.DEInternal>
2.1830

> <Gold.Chemscore.Rot>
3.7262

> <Gold.Chemscore.Internal.Correction>
   9.000000E+99

> <Gold.Chemscore.Hbonds>
donor molecule, donor type, donor heavy atom, donor atom, acceptor molecule, acceptor atom, score
      L1  H     1    18       P1  7948  0.09
      L1  H    14    26       P1 10171  0.99
      P1  H  7954  7966       L1    14  0.88
      P1  H  7997  8009       L1     5  0.92
      P1  H 10752 10765       L1     3  0.56

> <Gold.Chemscore.Hbond.Weighted>
-12.5075

> <Gold.Chemscore.Metal.Weighted>
-0.0000

> <Gold.Chemscore.Lipo.Weighted>
-2.6318

> <Gold.Chemscore.Internal_Hbond.Weighted>
0.0000

> <Gold.Chemscore.DEClash.Weighted>
0.9341

> <Gold.Chemscore.DEInternal.Weighted>
2.1830

> <Gold.Chemscore.Rot.Weighted>
9.5390

> <Gold.Chemscore.Internal.Correction.Weighted>
   9.000000E+99

> <Gold.Protein.RotatedTorsions>
[ 6907 6896 6895 6894 ] final -161.55 input  -60.11 | X-H torsion
[ 7974 7965 7964 7962 ] final   42.89 input  175.53 | X-H torsion
[ 8008 7997 7996 7995 ] final -162.86 input   59.86 | X-H torsion
[ 10167 10162 10161 10158 ] final -175.86 input  -65.29 | X-H torsion
[ 10718 10713 10712 10709 ] final -151.41 input   66.30 | X-H torsion
[ 10763 10752 10751 10750 ] final -177.76 input  -60.55 | X-H torsion
[ 11005 11000 10999 10996 ] final  143.28 input  -57.11 | X-H torsion

> <Gold.Protein.ActiveResidues>
 VAL166  LYS551  ARG553  GLY616  TRP617  ASP618  TYR619  PRO620  LYS621  CYS622 
 ASP623  PHE694  ASN695  SER759  ASP760  ASP761  ALA762  ILE779  LEU786  VAL792 
 PHE793  MET794  SER795  GLU796  ALA797  LYS798  CYS799  TRP800  GLU811  SER814 

> <Gold.Protein.RotatedAtoms>
  151.3664  133.3870  159.2694 H   0  0  0  0  0  0  0  0  0  0  0  0  # atno 6907 bound_to 6896
  150.9685  134.9063  159.7784 H   0  0  0  0  0  0  0  0  0  0  0  0  # atno 6908 bound_to 6896
  152.5176  134.3626  159.9342 H   0  0  0  0  0  0  0  0  0  0  0  0  # atno 6909 bound_to 6896
  146.0702  139.5249  142.9602 H   0  0  0  0  0  0  0  0  0  0  0  0  # atno 7974 bound_to 7965
  155.8130  140.0908  157.1893 H   0  0  0  0  0  0  0  0  0  0  0  0  # atno 8008 bound_to 7997
  154.3979  140.1451  156.3469 H   0  0  0  0  0  0  0  0  0  0  0  0  # atno 8009 bound_to 7997
  155.8345  140.3441  155.5596 H   0  0  0  0  0  0  0  0  0  0  0  0  # atno 8010 bound_to 7997
  139.5559  144.1990  152.1158 H   0  0  0  0  0  0  0  0  0  0  0  0  # atno 10167 bound_to 10162
  156.4589  130.8204  151.2435 H   0  0  0  0  0  0  0  0  0  0  0  0  # atno 10718 bound_to 10713
  154.5562  135.2816  155.0962 H   0  0  0  0  0  0  0  0  0  0  0  0  # atno 10763 bound_to 10752
  154.2389  135.6360  153.5204 H   0  0  0  0  0  0  0  0  0  0  0  0  # atno 10764 bound_to 10752
  153.0016  135.5555  154.6142 H   0  0  0  0  0  0  0  0  0  0  0  0  # atno 10765 bound_to 10752
  140.0541  134.9240  157.1070 H   0  0  0  0  0  0  0  0  0  0  0  0  # atno 11005 bound_to 11000
  145.6405  141.0285  143.1814 LP  0  0  0  0  0  0  0  0  0  0  0  0  # atno 17320 bound_to 7965
  144.7227  139.7977  143.7376 LP  0  0  0  0  0  0  0  0  0  0  0  0  # atno 17321 bound_to 7965
  140.1494  144.5128  150.6696 LP  0  0  0  0  0  0  0  0  0  0  0  0  # atno 17342 bound_to 10162
  140.6832  143.2337  151.5330 LP  0  0  0  0  0  0  0  0  0  0  0  0  # atno 17343 bound_to 10162
  157.7499  131.0113  150.3341 LP  0  0  0  0  0  0  0  0  0  0  0  0  # atno 17370 bound_to 10713
  156.3737  130.3868  149.7155 LP  0  0  0  0  0  0  0  0  0  0  0  0  # atno 17371 bound_to 10713
  140.3871  134.2224  155.7168 LP  0  0  0  0  0  0  0  0  0  0  0  0  # atno 17394 bound_to 11000
  141.1944  133.8129  157.0759 LP  0  0  0  0  0  0  0  0  0  0  0  0  # atno 17395 bound_to 11000

$$$$
