AV-unprocessed.smi:2689|AV-procd|sdf|10387|dock3
  -GOLD-   2272014423D 1   1.00000     0.00000
 Structure written by MMmdl.
 32 32  0  0  0  0  0  0  0  0  2 V2000
  151.9233  141.9891  158.8008 C   0  0  0  0  0  0  0  0  0  0  0  0
  150.6104  141.8952  158.0150 C   0  0  0  0  0  0  0  0  0  0  0  0
  150.7300  140.9810  156.8262 C   0  0  0  0  0  0  0  0  0  0  0  0
  150.4871  141.4575  155.6162 N   0  0  0  0  0  0  0  0  0  0  0  0
  150.7020  140.3944  154.7349 O   0  0  0  0  0  0  0  0  0  0  0  0
  151.0708  139.3052  155.4562 C   0  0  0  0  0  0  0  0  0  0  0  0
  151.3615  138.0615  154.6817 C   0  0  0  0  0  0  0  0  0  0  0  0
  150.5112  136.8655  155.1212 C   0  0  0  0  0  0  0  0  0  0  0  0
  151.1000  139.6049  156.7914 C   0  0  0  0  0  0  0  0  0  0  0  0
  151.4546  138.7072  157.9502 C   0  0  0  0  0  0  0  0  0  0  0  0
  152.9725  138.5506  158.0283 C   0  0  0  0  0  0  0  0  0  0  0  0
  153.6926  139.5472  158.0803 O   0  0  0  0  0  0  0  0  0  0  0  0
  153.4354  137.2918  158.0233 N   0  0  0  0  0  0  0  0  0  0  0  0
  154.8352  136.8895  157.9808 C   0  0  0  0  0  0  0  0  0  0  0  0
  154.9335  135.3706  158.1089 C   0  0  0  0  0  0  0  0  0  0  0  0
  155.3243  134.7344  157.1061 O   0  0  0  0  0  0  0  0  0  0  0  0
  154.6081  134.8704  159.2084 O   0  5  0  0  0  0  0  0  0  0  0  0
  151.8145  142.6485  159.6620 H   0  0  0  0  0  0  0  0  0  0  0  0
  152.7282  142.3826  158.1795 H   0  0  0  0  0  0  0  0  0  0  0  0
  152.2327  141.0103  159.1680 H   0  0  0  0  0  0  0  0  0  0  0  0
  149.8188  141.5487  158.6789 H   0  0  0  0  0  0  0  0  0  0  0  0
  150.3116  142.8925  157.6902 H   0  0  0  0  0  0  0  0  0  0  0  0
  151.1968  138.2539  153.6210 H   0  0  0  0  0  0  0  0  0  0  0  0
  152.4165  137.8059  154.7789 H   0  0  0  0  0  0  0  0  0  0  0  0
  150.7563  135.9792  154.5356 H   0  0  0  0  0  0  0  0  0  0  0  0
  149.4479  137.0682  154.9896 H   0  0  0  0  0  0  0  0  0  0  0  0
  150.6808  136.6290  156.1720 H   0  0  0  0  0  0  0  0  0  0  0  0
  151.0879  139.1072  158.8957 H   0  0  0  0  0  0  0  0  0  0  0  0
  150.9969  137.7226  157.8464 H   0  0  0  0  0  0  0  0  0  0  0  0
  152.7599  136.5434  157.9712 H   0  0  0  0  0  0  0  0  0  0  0  0
  155.3312  137.2180  157.0659 H   0  0  0  0  0  0  0  0  0  0  0  0
  155.3631  137.3546  158.8136 H   0  0  0  0  0  0  0  0  0  0  0  0
  1  2  1  0  0  0  0
  1 18  1  0  0  0  0
  1 19  1  0  0  0  0
  1 20  1  0  0  0  0
  2  3  1  0  0  0  0
  2 21  1  0  0  0  0
  2 22  1  0  0  0  0
  3  9  1  0  0  0  0
  3  4  2  0  0  0  0
  4  5  1  0  0  0  0
  5  6  1  0  0  0  0
  6  7  1  0  0  0  0
  6  9  2  0  0  0  0
  7  8  1  0  0  0  0
  7 23  1  0  0  0  0
  7 24  1  0  0  0  0
  8 25  1  0  0  0  0
  8 26  1  0  0  0  0
  8 27  1  0  0  0  0
  9 10  1  0  0  0  0
 10 11  1  0  0  0  0
 10 28  1  0  0  0  0
 10 29  1  0  0  0  0
 11 12  2  0  0  0  0
 11 13  1  0  0  0  0
 13 14  1  0  0  0  0
 13 30  1  0  0  0  0
 14 15  1  0  0  0  0
 14 31  1  0  0  0  0
 14 32  1  0  0  0  0
 15 16  2  0  0  0  0
 15 17  1  0  0  0  0
M  CHG  1  17  -1
M  END
> <s_m_source_file>
AV-unprocessed.smi

> <i_m_source_file_index>
2689

> <i_lp_mmshare_version>
43012

> <i_f3d_flags>
0

> <s_epik_input>
W0NIM11bQ0gyXWMxbm9jKFtDSDJdW0NIM10pYzFbQ0gyXUMoPU8pW05IXVtDSDJdQyg9TylbT0hd

> <s_epik_cmdline>
J2VwaWtfcHl0aG9uJywgJy1waCcsICc3LjAnLCAnLXRuJywgJzgnLCAnLW1hJywgJzIwMCcsICctbWV0YWxfYmluZGluZycsICctaW1hZScsICc8aW5maWxlLm1hZT4nLCAnLW9tYWUnLCAnPG91dGZpbGUubWFlPic=

> <r_lp_tautomer_probability>
1

> <r_epik_Ionization_Penalty>
0.000217839

> <r_epik_Ionization_Penalty_Charging>
0.000217819

> <r_epik_Ionization_Penalty_Neutral>
1.99806e-08

> <r_epik_State_Penalty>
-0

> <r_epik_Charging_Adjusted_Penalty>
0.000217819

> <i_epik_Tot_Q>
-1

> <i_epik_Tot_abs_Q>
1

> <r_epik_Metal_State_Penalty>
-0

> <b_epik_Metal_Only>
0

> <s_lp_Force_Field>
OPLS_2005

> <r_lp_Energy>
-12.6879

> <b_lp_Chiralities_Consistent>
1

> <s_lp_Variant>
AV-unprocessed.smi:2689-1

> <Gold.Version>
5.8.1

> <Gold.Id.Protein>
6NUR|6NUR_protein|mol2

> <Gold.PLP.Fitness>
39.3366

> <Gold.PLP.PLP>
-21.9283

> <Gold.PLP.part.hbond>
-4.6170

> <Gold.PLP.part.metal>
0.0000

> <Gold.PLP.part.buried>
-2.9385

> <Gold.PLP.part.nonpolar>
-14.6577

> <Gold.PLP.part.repulsive>
0.3158

> <Gold.PLP.ligand.clash>
0.0000

> <Gold.PLP.ligand.torsion>
0.3643

> <Gold.PLP.Chemscore.Hbond>
6.0000

> <Gold.PLP.Chemscore.CHOScore>
0.0000

> <Gold.PLP.Chemscore.Metal>
0.0000

> <Gold.Chemscore.Hbonds>
donor molecule, donor type, donor heavy atom, donor atom, acceptor molecule, acceptor atom, score
      P1  H  6896  6907       L1    17  1.04
      P1  H  7989  7998       L1     5  1.00
      P1  H  7997  8009       L1    12  1.00
      P1  H 10752 10765       L1    16  1.56

> <Gold.PLP.Chemscore.Internal.Correction>
0.1370

> <Gold.Rescore>
     Score         DG    S(hbond)    S(metal)    S(lipo)     H(rot)  DE(clash)    DE(int)     intcor
     16.38     -17.03       3.75        0.00      50.73       2.71       0.07       0.58       ----

> <Gold.Chemscore.Fitness>
16.3836

> <Gold.Chemscore.DG>
-17.0279

> <Gold.Chemscore.ZeroCoef>
-5.4800

> <Gold.Chemscore.Hbond>
3.7539

> <Gold.Chemscore.Metal>
0.0000

> <Gold.Chemscore.Lipo>
50.7265

> <Gold.Chemscore.Internal_Hbond>
0.0000

> <Gold.Chemscore.DEClash>
0.0665

> <Gold.Chemscore.DEInternal>
0.5778

> <Gold.Chemscore.Rot>
2.7051

> <Gold.Chemscore.Internal.Correction>
   9.000000E+99

> <Gold.Chemscore.Hbonds>
donor molecule, donor type, donor heavy atom, donor atom, acceptor molecule, acceptor atom, score
      P1  H  6896  6907       L1    17  0.52
      P1  H  7989  7998       L1     5  0.71
      P1  H  7997  8009       L1    12  0.87
      P1  H 10752 10765       L1    16  0.65

> <Gold.Chemscore.Hbond.Weighted>
-12.5380

> <Gold.Chemscore.Metal.Weighted>
-0.0000

> <Gold.Chemscore.Lipo.Weighted>
-5.9350

> <Gold.Chemscore.Internal_Hbond.Weighted>
0.0000

> <Gold.Chemscore.DEClash.Weighted>
0.0665

> <Gold.Chemscore.DEInternal.Weighted>
0.5778

> <Gold.Chemscore.Rot.Weighted>
6.9251

> <Gold.Chemscore.Internal.Correction.Weighted>
   9.000000E+99

> <Gold.Protein.RotatedTorsions>
[ 6907 6896 6895 6894 ] final   71.30 input  -60.11 | X-H torsion
[ 7974 7965 7964 7962 ] final  109.71 input  175.53 | X-H torsion
[ 8008 7997 7996 7995 ] final  168.04 input   59.86 | X-H torsion
[ 10167 10162 10161 10158 ] final  153.33 input  -65.29 | X-H torsion
[ 10718 10713 10712 10709 ] final -117.08 input   66.30 | X-H torsion
[ 10763 10752 10751 10750 ] final  -78.72 input  -60.55 | X-H torsion
[ 11005 11000 10999 10996 ] final -165.39 input  -57.11 | X-H torsion

> <Gold.Protein.ActiveResidues>
 VAL166  LYS551  ARG553  GLY616  TRP617  ASP618  TYR619  PRO620  LYS621  CYS622 
 ASP623  PHE694  ASN695  SER759  ASP760  ASP761  ALA762  ILE779  LEU786  VAL792 
 PHE793  MET794  SER795  GLU796  ALA797  LYS798  CYS799  TRP800  GLU811  SER814 

> <Gold.Protein.RotatedAtoms>
  152.4801  134.4741  159.9644 H   0  0  0  0  0  0  0  0  0  0  0  0  # atno 6907 bound_to 6896
  151.4749  133.3554  159.2837 H   0  0  0  0  0  0  0  0  0  0  0  0  # atno 6908 bound_to 6896
  150.8868  134.8293  159.7326 H   0  0  0  0  0  0  0  0  0  0  0  0  # atno 6909 bound_to 6896
  145.2643  139.2690  143.4000 H   0  0  0  0  0  0  0  0  0  0  0  0  # atno 7974 bound_to 7965
  156.1582  140.1601  156.8657 H   0  0  0  0  0  0  0  0  0  0  0  0  # atno 8008 bound_to 7997
  154.5135  140.0795  156.8071 H   0  0  0  0  0  0  0  0  0  0  0  0  # atno 8009 bound_to 7997
  155.3761  140.3403  155.4247 H   0  0  0  0  0  0  0  0  0  0  0  0  # atno 8010 bound_to 7997
  139.4828  144.5282  151.7766 H   0  0  0  0  0  0  0  0  0  0  0  0  # atno 10167 bound_to 10162
  156.1008  130.6171  150.9118 H   0  0  0  0  0  0  0  0  0  0  0  0  # atno 10718 bound_to 10713
  154.5294  135.5720  153.6746 H   0  0  0  0  0  0  0  0  0  0  0  0  # atno 10763 bound_to 10752
  152.9936  135.6201  154.2648 H   0  0  0  0  0  0  0  0  0  0  0  0  # atno 10764 bound_to 10752
  154.2574  135.2857  155.2771 H   0  0  0  0  0  0  0  0  0  0  0  0  # atno 10765 bound_to 10752
  140.5763  134.5187  157.5171 H   0  0  0  0  0  0  0  0  0  0  0  0  # atno 11005 bound_to 11000
  146.3266  140.3069  142.8624 LP  0  0  0  0  0  0  0  0  0  0  0  0  # atno 17320 bound_to 7965
  144.9390  140.8058  143.5642 LP  0  0  0  0  0  0  0  0  0  0  0  0  # atno 17321 bound_to 7965
  140.4805  144.1456  150.5932 LP  0  0  0  0  0  0  0  0  0  0  0  0  # atno 17342 bound_to 10162
  140.4283  143.2580  151.9628 LP  0  0  0  0  0  0  0  0  0  0  0  0  # atno 17343 bound_to 10162
  157.6178  131.0932  150.8678 LP  0  0  0  0  0  0  0  0  0  0  0  0  # atno 17370 bound_to 10713
  156.8806  130.5178  149.5291 LP  0  0  0  0  0  0  0  0  0  0  0  0  # atno 17371 bound_to 10713
  139.9338  134.7913  156.0858 LP  0  0  0  0  0  0  0  0  0  0  0  0  # atno 17394 bound_to 11000
  141.1025  133.6672  156.2786 LP  0  0  0  0  0  0  0  0  0  0  0  0  # atno 17395 bound_to 11000

$$$$
