AV-unprocessed.smi:1330|AV-procd|sdf|5486|dock7
  -GOLD-   22720 5 63D 1   1.00000     0.00000
 Structure written by MMmdl.
 42 43  0  0  0  0  0  0  0  0  1 V2000
  145.9937  137.6510  162.3019 C   0  0  0  0  0  0  0  0  0  0  0  0
  146.8924  136.8406  161.4074 C   0  0  0  0  0  0  0  0  0  0  0  0
  147.6415  137.4995  160.5855 N   0  0  0  0  0  0  0  0  0  0  0  0
  148.5005  136.8532  159.7191 N   0  0  0  0  0  0  0  0  0  0  0  0
  149.2584  137.7585  158.8462 C   0  0  0  0  0  0  0  0  0  0  0  0
  148.3785  138.3456  157.7200 C   0  0  1  0  0  0  0  0  0  0  0  0
  147.1193  138.6655  158.2789 O   0  0  0  0  0  0  0  0  0  0  0  0
  148.9665  139.6462  157.1475 C   0  0  0  0  0  0  0  0  0  0  0  0
  150.2437  139.3684  156.5973 O   0  0  0  0  0  0  0  0  0  0  0  0
  150.9887  140.5389  156.3099 C   0  0  0  0  0  0  0  0  0  0  0  0
  151.3689  141.2694  157.5815 C   0  0  0  0  0  0  0  0  0  0  0  0
  152.0886  140.6039  158.5959 C   0  0  0  0  0  0  0  0  0  0  0  0
  152.4486  141.2887  159.7731 C   0  0  0  0  0  0  0  0  0  0  0  0
  152.0908  142.6411  159.9394 C   0  0  0  0  0  0  0  0  0  0  0  0
  152.5332  143.4799  161.3809 Cl  0  0  0  0  0  0  0  0  0  0  0  0
  151.3731  143.3084  158.9274 C   0  0  0  0  0  0  0  0  0  0  0  0
  151.0132  142.6238  157.7500 C   0  0  0  0  0  0  0  0  0  0  0  0
  148.6511  135.4999  159.6400 C   0  0  0  0  0  0  0  0  0  0  0  0
  149.4280  134.9651  158.8476 O   0  0  0  0  0  0  0  0  0  0  0  0
  147.8011  134.7592  160.5748 C   0  0  0  0  0  0  0  0  0  0  0  0
  147.9255  133.3381  160.5230 C   0  0  0  0  0  0  0  0  0  0  0  0
  148.0056  132.1842  160.4781 N   0  0  0  0  0  0  0  0  0  0  0  0
  146.9510  135.3824  161.4288 C   0  0  0  0  0  0  0  0  0  0  0  0
  146.0450  134.6600  162.4163 C   0  0  0  0  0  0  0  0  0  0  0  0
  146.2330  137.4767  163.3510 H   0  0  0  0  0  0  0  0  0  0  0  0
  144.9486  137.3850  162.1441 H   0  0  0  0  0  0  0  0  0  0  0  0
  146.0917  138.7216  162.1157 H   0  0  0  0  0  0  0  0  0  0  0  0
  149.7270  138.5585  159.4234 H   0  0  0  0  0  0  0  0  0  0  0  0
  150.0937  137.2032  158.4157 H   0  0  0  0  0  0  0  0  0  0  0  0
  148.2545  137.6206  156.9144 H   0  0  0  0  0  0  0  0  0  0  0  0
  146.7767  137.8941  158.7040 H   0  0  0  0  0  0  0  0  0  0  0  0
  148.2997  140.0927  156.4074 H   0  0  0  0  0  0  0  0  0  0  0  0
  149.0968  140.3768  157.9475 H   0  0  0  0  0  0  0  0  0  0  0  0
  151.8974  140.2789  155.7644 H   0  0  0  0  0  0  0  0  0  0  0  0
  150.4091  141.2045  155.6681 H   0  0  0  0  0  0  0  0  0  0  0  0
  152.3697  139.5681  158.4729 H   0  0  0  0  0  0  0  0  0  0  0  0
  153.0005  140.7753  160.5468 H   0  0  0  0  0  0  0  0  0  0  0  0
  151.0988  144.3456  159.0520 H   0  0  0  0  0  0  0  0  0  0  0  0
  150.4663  143.1413  156.9754 H   0  0  0  0  0  0  0  0  0  0  0  0
  146.1691  133.5782  162.3756 H   0  0  0  0  0  0  0  0  0  0  0  0
  144.9979  134.8782  162.2045 H   0  0  0  0  0  0  0  0  0  0  0  0
  146.2627  134.9752  163.4373 H   0  0  0  0  0  0  0  0  0  0  0  0
  1  2  1  0  0  0  0
  1 25  1  0  0  0  0
  1 26  1  0  0  0  0
  1 27  1  0  0  0  0
  2 23  1  0  0  0  0
  2  3  2  0  0  0  0
  3  4  1  0  0  0  0
  4  5  1  0  0  0  0
  4 18  1  0  0  0  0
  5  6  1  0  0  0  0
  5 28  1  0  0  0  0
  5 29  1  0  0  0  0
  6  7  1  0  0  0  0
  6  8  1  0  0  0  0
  6 30  1  0  0  0  0
  7 31  1  0  0  0  0
  8  9  1  0  0  0  0
  8 32  1  0  0  0  0
  8 33  1  0  0  0  0
  9 10  1  0  0  0  0
 10 11  1  0  0  0  0
 10 34  1  0  0  0  0
 10 35  1  0  0  0  0
 11 17  1  0  0  0  0
 11 12  2  0  0  0  0
 12 13  1  0  0  0  0
 12 36  1  0  0  0  0
 13 14  2  0  0  0  0
 13 37  1  0  0  0  0
 14 15  1  0  0  0  0
 14 16  1  0  0  0  0
 16 17  2  0  0  0  0
 16 38  1  0  0  0  0
 17 39  1  0  0  0  0
 18 19  2  0  0  0  0
 18 20  1  0  0  0  0
 20 21  1  0  0  0  0
 20 23  2  0  0  0  0
 21 22  3  0  0  0  0
 23 24  1  0  0  0  0
 24 40  1  0  0  0  0
 24 41  1  0  0  0  0
 24 42  1  0  0  0  0
M  END
> <s_m_source_file>
AV-unprocessed.smi

> <i_m_source_file_index>
1330

> <i_lp_mmshare_version>
43012

> <i_f3d_flags>
0

> <s_epik_input>
TiNDYyhjMVtDSDNdKWMoPU8pbihuYzFbQ0gzXSlbQ0gyXVtDQEhdKFtPSF0pW0NIMl1PW0NIMl1jMltjSF1bY0hdYyhDbClbY0hdW2NIXTI=

> <s_epik_cmdline>
J2VwaWtfcHl0aG9uJywgJy1waCcsICc3LjAnLCAnLXRuJywgJzgnLCAnLW1hJywgJzIwMCcsICctbWV0YWxfYmluZGluZycsICctaW1hZScsICc8aW5maWxlLm1hZT4nLCAnLW9tYWUnLCAnPG91dGZpbGUubWFlPic=

> <r_lp_tautomer_probability>
1

> <r_epik_Ionization_Penalty>
6.27695e-08

> <r_epik_Ionization_Penalty_Charging>
2.19172e-10

> <r_epik_Ionization_Penalty_Neutral>
6.25504e-08

> <r_epik_State_Penalty>
-0

> <r_epik_Charging_Adjusted_Penalty>
2.19172e-10

> <i_epik_Tot_Q>
0

> <i_epik_Tot_abs_Q>
0

> <r_epik_Metal_State_Penalty>
-0

> <b_epik_Metal_Only>
0

> <s_lp_Force_Field>
OPLS_2005

> <r_lp_Energy>
31.5646

> <b_lp_Chiralities_Consistent>
1

> <s_lp_Variant>
AV-unprocessed.smi:1330-2

> <Gold.Version>
5.8.1

> <Gold.Id.Protein>
6NUR|6NUR_protein|mol2

> <Gold.PLP.Fitness>
49.7958

> <Gold.PLP.PLP>
-42.5622

> <Gold.PLP.part.hbond>
-4.0000

> <Gold.PLP.part.metal>
0.0000

> <Gold.PLP.part.buried>
-4.6355

> <Gold.PLP.part.nonpolar>
-34.6404

> <Gold.PLP.part.repulsive>
0.0000

> <Gold.PLP.ligand.clash>
0.0000

> <Gold.PLP.ligand.torsion>
0.4491

> <Gold.PLP.Chemscore.Hbond>
2.6800

> <Gold.PLP.Chemscore.CHOScore>
0.0000

> <Gold.PLP.Chemscore.Metal>
0.0000

> <Gold.Chemscore.Hbonds>
donor molecule, donor type, donor heavy atom, donor atom, acceptor molecule, acceptor atom, score
      P1  H  6896  6909       L1    19  0.84
      P1  H  6931  6943       L1     3  0.56
      P1  H  6934  6947       L1     3  0.90

> <Gold.PLP.Chemscore.Internal.Correction>
0.0918

> <Gold.Rescore>
     Score         DG    S(hbond)    S(metal)    S(lipo)     H(rot)  DE(clash)    DE(int)     intcor
     17.86     -18.30       1.87        0.00     110.48       2.48       0.08       0.36       ----

> <Gold.Chemscore.Fitness>
17.8587

> <Gold.Chemscore.DG>
-18.3033

> <Gold.Chemscore.ZeroCoef>
-5.4800

> <Gold.Chemscore.Hbond>
1.8684

> <Gold.Chemscore.Metal>
0.0000

> <Gold.Chemscore.Lipo>
110.4761

> <Gold.Chemscore.Internal_Hbond>
0.0000

> <Gold.Chemscore.DEClash>
0.0847

> <Gold.Chemscore.DEInternal>
0.3599

> <Gold.Chemscore.Rot>
2.4777

> <Gold.Chemscore.Internal.Correction>
   9.000000E+99

> <Gold.Chemscore.Hbonds>
donor molecule, donor type, donor heavy atom, donor atom, acceptor molecule, acceptor atom, score
      P1  H  6896  6909       L1    19  0.65
      P1  H  6931  6943       L1     3  0.03
      P1  H  6934  6947       L1     3  0.26

> <Gold.Chemscore.Hbond.Weighted>
-6.2405

> <Gold.Chemscore.Metal.Weighted>
-0.0000

> <Gold.Chemscore.Lipo.Weighted>
-12.9257

> <Gold.Chemscore.Internal_Hbond.Weighted>
0.0000

> <Gold.Chemscore.DEClash.Weighted>
0.0847

> <Gold.Chemscore.DEInternal.Weighted>
0.3599

> <Gold.Chemscore.Rot.Weighted>
6.3428

> <Gold.Chemscore.Internal.Correction.Weighted>
   9.000000E+99

> <Gold.Protein.RotatedTorsions>
[ 6907 6896 6895 6894 ] final   46.42 input  -60.11 | X-H torsion
[ 7974 7965 7964 7962 ] final  -65.52 input  175.53 | X-H torsion
[ 8008 7997 7996 7995 ] final   94.55 input   59.86 | X-H torsion
[ 10167 10162 10161 10158 ] final -101.89 input  -65.29 | X-H torsion
[ 10718 10713 10712 10709 ] final   58.79 input   66.30 | X-H torsion
[ 10763 10752 10751 10750 ] final  105.78 input  -60.55 | X-H torsion
[ 11005 11000 10999 10996 ] final -139.29 input  -57.11 | X-H torsion

> <Gold.Protein.ActiveResidues>
 VAL166  LYS551  ARG553  GLY616  TRP617  ASP618  TYR619  PRO620  LYS621  CYS622 
 ASP623  PHE694  ASN695  SER759  ASP760  ASP761  ALA762  ILE779  LEU786  VAL792 
 PHE793  MET794  SER795  GLU796  ALA797  LYS798  CYS799  TRP800  GLU811  SER814 

> <Gold.Protein.RotatedAtoms>
  152.2561  134.8082  160.0437 H   0  0  0  0  0  0  0  0  0  0  0  0  # atno 6907 bound_to 6896
  151.8745  133.3477  159.3754 H   0  0  0  0  0  0  0  0  0  0  0  0  # atno 6908 bound_to 6896
  150.7100  134.5007  159.5604 H   0  0  0  0  0  0  0  0  0  0  0  0  # atno 6909 bound_to 6896
  145.7533  140.8898  143.0468 H   0  0  0  0  0  0  0  0  0  0  0  0  # atno 7974 bound_to 7965
  156.0591  140.3298  155.7441 H   0  0  0  0  0  0  0  0  0  0  0  0  # atno 8008 bound_to 7997
  155.5482  140.0608  157.2873 H   0  0  0  0  0  0  0  0  0  0  0  0  # atno 8009 bound_to 7997
  154.4472  140.1899  156.0648 H   0  0  0  0  0  0  0  0  0  0  0  0  # atno 8010 bound_to 7997
  140.2364  143.3569  152.0840 H   0  0  0  0  0  0  0  0  0  0  0  0  # atno 10167 bound_to 10162
  157.5625  130.8846  149.9133 H   0  0  0  0  0  0  0  0  0  0  0  0  # atno 10718 bound_to 10713
  153.3841  135.3898  155.1877 H   0  0  0  0  0  0  0  0  0  0  0  0  # atno 10763 bound_to 10752
  154.8711  135.3732  154.4820 H   0  0  0  0  0  0  0  0  0  0  0  0  # atno 10764 bound_to 10752
  153.5300  135.7086  153.5749 H   0  0  0  0  0  0  0  0  0  0  0  0  # atno 10765 bound_to 10752
  140.8534  134.2258  157.4748 H   0  0  0  0  0  0  0  0  0  0  0  0  # atno 11005 bound_to 11000
  144.6845  139.9621  143.7480 LP  0  0  0  0  0  0  0  0  0  0  0  0  # atno 17320 bound_to 7965
  146.0336  139.3357  143.0740 LP  0  0  0  0  0  0  0  0  0  0  0  0  # atno 17321 bound_to 7965
  139.5092  144.6863  151.5878 LP  0  0  0  0  0  0  0  0  0  0  0  0  # atno 17342 bound_to 10162
  140.6146  143.9372  150.6479 LP  0  0  0  0  0  0  0  0  0  0  0  0  # atno 17343 bound_to 10162
  156.0676  130.3690  150.0845 LP  0  0  0  0  0  0  0  0  0  0  0  0  # atno 17370 bound_to 10713
  156.9008  130.9619  151.3576 LP  0  0  0  0  0  0  0  0  0  0  0  0  # atno 17371 bound_to 10713
  139.8704  134.9694  156.4666 LP  0  0  0  0  0  0  0  0  0  0  0  0  # atno 17394 bound_to 11000
  140.8764  133.7950  155.9419 LP  0  0  0  0  0  0  0  0  0  0  0  0  # atno 17395 bound_to 11000

$$$$
