AV-unprocessed.smi:2858|AV-procd|sdf|11001|dock2
  -GOLD-   2272015453D 1   1.00000     0.00000
 Structure written by MMmdl.
 39 40  0  0  0  0  0  0  0  0  1 V2000
  152.1147  136.9793  154.7014 O   0  0  0  0  0  0  0  0  0  0  0  0
  151.6721  138.1051  154.9173 C   0  0  0  0  0  0  0  0  0  0  0  0
  150.4137  138.5882  154.1752 C   0  0  0  0  0  0  0  0  0  0  0  0
  150.1460  140.0449  154.2595 N   0  0  0  0  0  0  0  0  0  0  0  0
  148.8120  140.3314  153.7243 C   0  0  0  0  0  0  0  0  0  0  0  0
  147.7173  139.4003  154.2830 C   0  0  0  0  0  0  0  0  0  0  0  0
  146.6221  139.0642  153.2549 C   0  0  0  0  0  0  0  0  0  0  0  0
  146.7802  137.7151  152.7238 N   0  0  0  0  0  0  0  0  0  0  0  0
  145.7756  136.8615  152.4778 C   0  0  0  0  0  0  0  0  0  0  0  0
  144.5905  137.1348  152.6711 O   0  0  0  0  0  0  0  0  0  0  0  0
  146.2365  135.6923  151.9987 N   0  0  0  0  0  0  0  0  0  0  0  0
  145.4935  134.5360  151.6386 C   0  0  0  0  0  0  0  0  0  0  0  0
  146.2689  133.3830  151.3797 C   0  0  0  0  0  0  0  0  0  0  0  0
  145.6268  132.1831  151.0171 C   0  0  0  0  0  0  0  0  0  0  0  0
  144.2239  132.1664  150.9235 C   0  0  0  0  0  0  0  0  0  0  0  0
  143.5271  133.3577  151.1974 C   0  0  0  0  0  0  0  0  0  0  0  0
  144.1405  134.5089  151.5442 N   0  0  0  0  0  0  0  0  0  0  0  0
  150.3259  140.5215  155.6326 C   0  0  0  0  0  0  0  0  0  0  0  0
  151.7880  140.2949  156.0594 C   0  0  0  0  0  0  0  0  0  0  0  0
  152.2378  138.9303  155.8107 N   0  0  0  0  0  0  0  0  0  0  0  0
  150.4917  138.2959  153.1270 H   0  0  0  0  0  0  0  0  0  0  0  0
  149.5698  138.0374  154.5944 H   0  0  0  0  0  0  0  0  0  0  0  0
  148.5340  141.3566  153.9744 H   0  0  0  0  0  0  0  0  0  0  0  0
  148.8308  140.2781  152.6344 H   0  0  0  0  0  0  0  0  0  0  0  0
  148.1976  138.4731  154.5977 H   0  0  0  0  0  0  0  0  0  0  0  0
  147.2704  139.8121  155.1867 H   0  0  0  0  0  0  0  0  0  0  0  0
  145.6389  139.1243  153.7217 H   0  0  0  0  0  0  0  0  0  0  0  0
  146.6230  139.7919  152.4415 H   0  0  0  0  0  0  0  0  0  0  0  0
  147.7233  137.4088  152.5352 H   0  0  0  0  0  0  0  0  0  0  0  0
  147.2363  135.6174  151.8855 H   0  0  0  0  0  0  0  0  0  0  0  0
  147.3461  133.4128  151.4573 H   0  0  0  0  0  0  0  0  0  0  0  0
  146.2017  131.2915  150.8151 H   0  0  0  0  0  0  0  0  0  0  0  0
  143.6959  131.2652  150.6493 H   0  0  0  0  0  0  0  0  0  0  0  0
  142.4493  133.3882  151.1366 H   0  0  0  0  0  0  0  0  0  0  0  0
  150.1019  141.5835  155.7186 H   0  0  0  0  0  0  0  0  0  0  0  0
  149.6449  139.9960  156.3045 H   0  0  0  0  0  0  0  0  0  0  0  0
  152.4446  140.9731  155.5129 H   0  0  0  0  0  0  0  0  0  0  0  0
  151.9108  140.5234  157.1182 H   0  0  0  0  0  0  0  0  0  0  0  0
  153.0509  138.6080  156.3154 H   0  0  0  0  0  0  0  0  0  0  0  0
  1  2  2  0  0  0  0
  2 20  1  0  0  0  0
  2  3  1  0  0  0  0
  3  4  1  0  0  0  0
  3 21  1  0  0  0  0
  3 22  1  0  0  0  0
  4  5  1  0  0  0  0
  4 18  1  0  0  0  0
  5  6  1  0  0  0  0
  5 23  1  0  0  0  0
  5 24  1  0  0  0  0
  6  7  1  0  0  0  0
  6 25  1  0  0  0  0
  6 26  1  0  0  0  0
  7  8  1  0  0  0  0
  7 27  1  0  0  0  0
  7 28  1  0  0  0  0
  8  9  1  0  0  0  0
  8 29  1  0  0  0  0
  9 10  2  0  0  0  0
  9 11  1  0  0  0  0
 11 12  1  0  0  0  0
 11 30  1  0  0  0  0
 12 17  1  0  0  0  0
 12 13  2  0  0  0  0
 13 14  1  0  0  0  0
 13 31  1  0  0  0  0
 14 15  2  0  0  0  0
 14 32  1  0  0  0  0
 15 16  1  0  0  0  0
 15 33  1  0  0  0  0
 16 17  2  0  0  0  0
 16 34  1  0  0  0  0
 18 19  1  0  0  0  0
 18 35  1  0  0  0  0
 18 36  1  0  0  0  0
 19 20  1  0  0  0  0
 19 37  1  0  0  0  0
 19 38  1  0  0  0  0
 20 39  1  0  0  0  0
M  END
> <s_m_source_file>
AV-unprocessed.smi

> <i_m_source_file_index>
2858

> <i_lp_mmshare_version>
43012

> <i_f3d_flags>
0

> <s_epik_input>
Tz1DMVtDSDJdTihbQ0gyXVtDSDJdW05IXTEpW0NIMl1bQ0gyXVtDSDJdW05IXUMoPU8pW05IXWMyW2NIXVtjSF1bY0hdW2NIXW4y

> <s_epik_cmdline>
J2VwaWtfcHl0aG9uJywgJy1waCcsICc3LjAnLCAnLXRuJywgJzgnLCAnLW1hJywgJzIwMCcsICctbWV0YWxfYmluZGluZycsICctaW1hZScsICc8aW5maWxlLm1hZT4nLCAnLW9tYWUnLCAnPG91dGZpbGUubWFlPic=

> <r_epik_Ionization_Penalty>
1.05093

> <r_epik_Ionization_Penalty_Charging>
0

> <r_epik_Ionization_Penalty_Neutral>
1.05093

> <r_epik_State_Penalty>
1.10373

> <r_epik_Charging_Adjusted_Penalty>
1.10373

> <i_epik_Tot_Q>
0

> <i_epik_Tot_abs_Q>
0

> <r_epik_Metal_State_Penalty>
1.17671

> <b_epik_Metal_Only>
0

> <s_lp_Force_Field>
OPLS_2005

> <r_lp_Energy>
22.2327

> <b_lp_Chiralities_Consistent>
1

> <s_lp_Variant>
AV-unprocessed.smi:2858-3

> <Gold.Version>
5.8.1

> <Gold.Id.Protein>
6NUR|6NUR_protein|mol2

> <Gold.PLP.Fitness>
47.4393

> <Gold.PLP.PLP>
-34.5455

> <Gold.PLP.part.hbond>
-3.8729

> <Gold.PLP.part.metal>
0.0000

> <Gold.PLP.part.buried>
-4.6649

> <Gold.PLP.part.nonpolar>
-28.1736

> <Gold.PLP.part.repulsive>
0.8986

> <Gold.PLP.ligand.clash>
0.0000

> <Gold.PLP.ligand.torsion>
0.8021

> <Gold.PLP.Chemscore.Hbond>
3.8240

> <Gold.PLP.Chemscore.CHOScore>
1.0000

> <Gold.PLP.Chemscore.Metal>
0.0000

> <Gold.Chemscore.Hbonds>
donor molecule, donor type, donor heavy atom, donor atom, acceptor molecule, acceptor atom, score
      L1  H     8    29       P1  7948  1.00
      L1  H    11    30       P1  7948  1.00
      P1  H  7989  7998       L1     4  0.95
      P1  H 10752 10765       L1     1  0.94
      L1  C    16    34       P1 10186  1.00

> <Gold.PLP.Chemscore.Internal.Correction>
0.0259

> <Gold.Rescore>
     Score         DG    S(hbond)    S(metal)    S(lipo)     H(rot)  DE(clash)    DE(int)     intcor
     15.71     -18.43       2.99        0.00      69.69       2.02       0.58       2.15       ----

> <Gold.Chemscore.Fitness>
15.7103

> <Gold.Chemscore.DG>
-18.4331

> <Gold.Chemscore.ZeroCoef>
-5.4800

> <Gold.Chemscore.Hbond>
2.9862

> <Gold.Chemscore.Metal>
0.0000

> <Gold.Chemscore.Lipo>
69.6887

> <Gold.Chemscore.Internal_Hbond>
0.0000

> <Gold.Chemscore.DEClash>
0.5764

> <Gold.Chemscore.DEInternal>
2.1464

> <Gold.Chemscore.Rot>
2.0213

> <Gold.Chemscore.Internal.Correction>
   9.000000E+99

> <Gold.Chemscore.Hbonds>
donor molecule, donor type, donor heavy atom, donor atom, acceptor molecule, acceptor atom, score
      L1  H     8    29       P1  7948  0.97
      L1  H    11    30       P1  7948  0.99
      P1  H  7989  7998       L1     4  0.11
      P1  H 10752 10765       L1     1  0.89

> <Gold.Chemscore.Hbond.Weighted>
-9.9739

> <Gold.Chemscore.Metal.Weighted>
-0.0000

> <Gold.Chemscore.Lipo.Weighted>
-8.1536

> <Gold.Chemscore.Internal_Hbond.Weighted>
0.0000

> <Gold.Chemscore.DEClash.Weighted>
0.5764

> <Gold.Chemscore.DEInternal.Weighted>
2.1464

> <Gold.Chemscore.Rot.Weighted>
5.1744

> <Gold.Chemscore.Internal.Correction.Weighted>
   9.000000E+99

> <Gold.Protein.RotatedTorsions>
[ 6907 6896 6895 6894 ] final  -16.68 input  -60.11 | X-H torsion
[ 7974 7965 7964 7962 ] final -170.18 input  175.53 | X-H torsion
[ 8008 7997 7996 7995 ] final  167.37 input   59.86 | X-H torsion
[ 10167 10162 10161 10158 ] final  127.83 input  -65.29 | X-H torsion
[ 10718 10713 10712 10709 ] final  170.24 input   66.30 | X-H torsion
[ 10763 10752 10751 10750 ] final  166.81 input  -60.55 | X-H torsion
[ 11005 11000 10999 10996 ] final   74.35 input  -57.11 | X-H torsion

> <Gold.Protein.ActiveResidues>
 VAL166  LYS551  ARG553  GLY616  TRP617  ASP618  TYR619  PRO620  LYS621  CYS622 
 ASP623  PHE694  ASN695  SER759  ASP760  ASP761  ALA762  ILE779  LEU786  VAL792 
 PHE793  MET794  SER795  GLU796  ALA797  LYS798  CYS799  TRP800  GLU811  SER814 

> <Gold.Protein.RotatedAtoms>
  151.3049  135.0778  159.9251 H   0  0  0  0  0  0  0  0  0  0  0  0  # atno 6907 bound_to 6896
  152.5290  133.9796  159.7810 H   0  0  0  0  0  0  0  0  0  0  0  0  # atno 6908 bound_to 6896
  151.0089  133.5933  159.2715 H   0  0  0  0  0  0  0  0  0  0  0  0  # atno 6909 bound_to 6896
  144.7174  140.2110  143.6327 H   0  0  0  0  0  0  0  0  0  0  0  0  # atno 7974 bound_to 7965
  156.1640  140.1619  156.8564 H   0  0  0  0  0  0  0  0  0  0  0  0  # atno 8008 bound_to 7997
  154.5188  140.0783  156.8168 H   0  0  0  0  0  0  0  0  0  0  0  0  # atno 8009 bound_to 7997
  155.3650  140.3397  155.4244 H   0  0  0  0  0  0  0  0  0  0  0  0  # atno 8010 bound_to 7997
  139.5558  144.6847  151.4186 H   0  0  0  0  0  0  0  0  0  0  0  0  # atno 10167 bound_to 10162
  157.0110  131.0204  151.2803 H   0  0  0  0  0  0  0  0  0  0  0  0  # atno 10718 bound_to 10713
  154.3446  135.2753  155.2404 H   0  0  0  0  0  0  0  0  0  0  0  0  # atno 10763 bound_to 10752
  154.4660  135.5895  153.6292 H   0  0  0  0  0  0  0  0  0  0  0  0  # atno 10764 bound_to 10752
  152.9855  135.6076  154.3650 H   0  0  0  0  0  0  0  0  0  0  0  0  # atno 10765 bound_to 10752
  139.9395  134.7425  156.1137 H   0  0  0  0  0  0  0  0  0  0  0  0  # atno 11005 bound_to 11000
  145.8591  139.2213  143.1727 LP  0  0  0  0  0  0  0  0  0  0  0  0  # atno 17320 bound_to 7965
  146.0190  140.8365  142.9933 LP  0  0  0  0  0  0  0  0  0  0  0  0  # atno 17321 bound_to 7965
  140.6831  143.8037  150.7148 LP  0  0  0  0  0  0  0  0  0  0  0  0  # atno 17342 bound_to 10162
  140.1496  143.4369  152.2140 LP  0  0  0  0  0  0  0  0  0  0  0  0  # atno 17343 bound_to 10162
  157.5320  130.8064  149.7928 LP  0  0  0  0  0  0  0  0  0  0  0  0  # atno 17370 bound_to 10713
  156.0136  130.3823  150.2184 LP  0  0  0  0  0  0  0  0  0  0  0  0  # atno 17371 bound_to 10713
  141.1024  133.6672  156.2785 LP  0  0  0  0  0  0  0  0  0  0  0  0  # atno 17394 bound_to 11000
  140.5988  134.5576  157.5513 LP  0  0  0  0  0  0  0  0  0  0  0  0  # atno 17395 bound_to 11000

$$$$
