AV-unprocessed.smi:308|AV-procd|sdf|2288|dock6
  -GOLD-   2262022193D 1   1.00000     0.00000
 Structure written by MMmdl.
 50 51  0  0  0  0  0  0  0  0  2 V2000
  143.8307  133.1526  151.7434 C   0  0  0  0  0  0  0  0  0  0  0  0
  145.3153  133.4360  151.4540 C   0  0  2  0  0  0  0  0  0  0  0  0
  146.1407  133.6533  152.7350 C   0  0  0  0  0  0  0  0  0  0  0  0
  145.8639  135.0226  153.3820 C   0  0  0  0  0  0  0  0  0  0  0  0
  146.0904  136.1324  152.4203 N   0  3  2  0  0  0  0  0  0  0  0  0
  145.9477  137.4640  153.0614 C   0  0  0  0  0  0  0  0  0  0  0  0
  146.5243  138.6009  152.1954 C   0  0  0  0  0  0  0  0  0  0  0  0
  147.8455  139.0100  152.6585 N   0  0  0  0  0  0  0  0  0  0  0  0
  148.1663  139.2547  153.9371 C   0  0  0  0  0  0  0  0  0  0  0  0
  147.3659  139.1461  154.8659 O   0  0  0  0  0  0  0  0  0  0  0  0
  149.4486  139.6399  154.0530 N   0  0  0  0  0  0  0  0  0  0  0  0
  150.1607  140.0009  155.2287 C   0  0  0  0  0  0  0  0  0  0  0  0
  149.6097  140.7361  156.3033 C   0  0  0  0  0  0  0  0  0  0  0  0
  150.4170  141.0219  157.4213 C   0  0  0  0  0  0  0  0  0  0  0  0
  151.7567  140.5607  157.4481 C   0  0  0  0  0  0  0  0  0  0  0  0
  152.6069  140.8272  158.5458 N   0  0  0  0  0  0  0  0  0  0  0  0
  152.6590  142.1701  159.1150 C   0  0  0  0  0  0  0  0  0  0  0  0
  153.3642  139.7467  159.1655 C   0  0  0  0  0  0  0  0  0  0  0  0
  152.2722  139.8409  156.4217 N   0  0  0  0  0  0  0  0  0  0  0  0
  151.4956  139.5694  155.3526 C   0  0  0  0  0  0  0  0  0  0  0  0
  145.2523  135.9785  151.2010 C   0  0  0  0  0  0  0  0  0  0  0  0
  145.5206  134.6314  150.5063 C   0  0  0  0  0  0  0  0  0  0  0  0
  143.3413  133.9866  152.2457 H   0  0  0  0  0  0  0  0  0  0  0  0
  143.7185  132.2743  152.3796 H   0  0  0  0  0  0  0  0  0  0  0  0
  143.2838  132.9578  150.8205 H   0  0  0  0  0  0  0  0  0  0  0  0
  145.7067  132.5482  150.9555 H   0  0  0  0  0  0  0  0  0  0  0  0
  145.9449  132.8543  153.4508 H   0  0  0  0  0  0  0  0  0  0  0  0
  147.2019  133.5860  152.4911 H   0  0  0  0  0  0  0  0  0  0  0  0
  144.8422  135.0688  153.7617 H   0  0  0  0  0  0  0  0  0  0  0  0
  146.5230  135.1439  154.2425 H   0  0  0  0  0  0  0  0  0  0  0  0
  144.8976  137.6411  153.2996 H   0  0  0  0  0  0  0  0  0  0  0  0
  146.4820  137.4648  154.0126 H   0  0  0  0  0  0  0  0  0  0  0  0
  146.6164  138.2684  151.1610 H   0  0  0  0  0  0  0  0  0  0  0  0
  145.8677  139.4711  152.1839 H   0  0  0  0  0  0  0  0  0  0  0  0
  148.5609  139.1293  151.9561 H   0  0  0  0  0  0  0  0  0  0  0  0
  149.9587  139.7531  153.1892 H   0  0  0  0  0  0  0  0  0  0  0  0
  148.5857  141.0750  156.3015 H   0  0  0  0  0  0  0  0  0  0  0  0
  149.9899  141.5849  158.2372 H   0  0  0  0  0  0  0  0  0  0  0  0
  151.6838  142.4558  159.5110 H   0  0  0  0  0  0  0  0  0  0  0  0
  152.9525  142.8972  158.3569 H   0  0  0  0  0  0  0  0  0  0  0  0
  153.3818  142.2297  159.9287 H   0  0  0  0  0  0  0  0  0  0  0  0
  154.0937  139.3406  158.4643 H   0  0  0  0  0  0  0  0  0  0  0  0
  152.6989  138.9434  159.4837 H   0  0  0  0  0  0  0  0  0  0  0  0
  153.9054  140.0949  160.0452 H   0  0  0  0  0  0  0  0  0  0  0  0
  151.9610  138.9927  154.5664 H   0  0  0  0  0  0  0  0  0  0  0  0
  144.1980  136.0671  151.4663 H   0  0  0  0  0  0  0  0  0  0  0  0
  145.4605  136.7803  150.4942 H   0  0  0  0  0  0  0  0  0  0  0  0
  146.5472  134.6224  150.1372 H   0  0  0  0  0  0  0  0  0  0  0  0
  144.8836  134.5304  149.6268 H   0  0  0  0  0  0  0  0  0  0  0  0
  147.0540  136.0560  152.1273 H   0  0  0  0  0  0  0  0  0  0  0  0
  1  2  1  0  0  0  0
  1 23  1  0  0  0  0
  1 24  1  0  0  0  0
  1 25  1  0  0  0  0
  2 22  1  0  0  0  0
  2  3  1  0  0  0  0
  2 26  1  0  0  0  0
  3  4  1  0  0  0  0
  3 27  1  0  0  0  0
  3 28  1  0  0  0  0
  4  5  1  0  0  0  0
  4 29  1  0  0  0  0
  4 30  1  0  0  0  0
  5  6  1  0  0  0  0
  5 21  1  0  0  0  0
  5 50  1  0  0  0  0
  6  7  1  0  0  0  0
  6 31  1  0  0  0  0
  6 32  1  0  0  0  0
  7  8  1  0  0  0  0
  7 33  1  0  0  0  0
  7 34  1  0  0  0  0
  8  9  1  0  0  0  0
  8 35  1  0  0  0  0
  9 10  2  0  0  0  0
  9 11  1  0  0  0  0
 11 12  1  0  0  0  0
 11 36  1  0  0  0  0
 12 20  1  0  0  0  0
 12 13  2  0  0  0  0
 13 14  1  0  0  0  0
 13 37  1  0  0  0  0
 14 15  2  0  0  0  0
 14 38  1  0  0  0  0
 15 16  1  0  0  0  0
 15 19  1  0  0  0  0
 16 17  1  0  0  0  0
 16 18  1  0  0  0  0
 17 39  1  0  0  0  0
 17 40  1  0  0  0  0
 17 41  1  0  0  0  0
 18 42  1  0  0  0  0
 18 43  1  0  0  0  0
 18 44  1  0  0  0  0
 19 20  2  0  0  0  0
 20 45  1  0  0  0  0
 21 22  1  0  0  0  0
 21 46  1  0  0  0  0
 21 47  1  0  0  0  0
 22 48  1  0  0  0  0
 22 49  1  0  0  0  0
M  CHG  1   5   1
M  END
> <s_m_source_file>
AV-unprocessed.smi

> <i_m_source_file_index>
308

> <i_lp_mmshare_version>
43012

> <i_f3d_flags>
0

> <s_epik_input>
W0NIM11bQ0hdMVtDSDJdW0NIMl1OKFtDSDJdW0NIMl0xKVtDSDJdW0NIMl1bTkhdQyg9TylbTkhdYzJbY0hdW2NIXWMoTihbQ0gzXSlbQ0gzXSluW2NIXTI=

> <s_epik_cmdline>
J2VwaWtfcHl0aG9uJywgJy1waCcsICc3LjAnLCAnLXRuJywgJzgnLCAnLW1hJywgJzIwMCcsICctbWV0YWxfYmluZGluZycsICctaW1hZScsICc8aW5maWxlLm1hZT4nLCAnLW9tYWUnLCAnPG91dGZpbGUubWFlPic=

> <r_lp_tautomer_probability>
1

> <r_epik_Ionization_Penalty>
0.536661

> <r_epik_Ionization_Penalty_Charging>
0.00139388

> <r_epik_Ionization_Penalty_Neutral>
0.535267

> <r_epik_State_Penalty>
0.543381

> <r_epik_Charging_Adjusted_Penalty>
0.544775

> <i_epik_Tot_Q>
1

> <i_epik_Tot_abs_Q>
1

> <r_epik_Metal_State_Penalty>
0.284523

> <b_epik_Metal_Only>
0

> <s_lp_Force_Field>
OPLS_2005

> <r_lp_Energy>
22.9976

> <b_lp_Chiralities_Consistent>
1

> <s_lp_Variant>
AV-unprocessed.smi:308-4

> <Gold.Version>
5.8.1

> <Gold.Id.Protein>
6NUR|6NUR_protein|mol2

> <Gold.PLP.Fitness>
49.2958

> <Gold.PLP.PLP>
-37.9051

> <Gold.PLP.part.hbond>
-4.7473

> <Gold.PLP.part.metal>
0.0000

> <Gold.PLP.part.buried>
-2.8851

> <Gold.PLP.part.nonpolar>
-31.2582

> <Gold.PLP.part.repulsive>
0.2930

> <Gold.PLP.ligand.clash>
0.0000

> <Gold.PLP.ligand.torsion>
1.5388

> <Gold.PLP.Chemscore.Hbond>
4.8072

> <Gold.PLP.Chemscore.CHOScore>
0.0000

> <Gold.PLP.Chemscore.Metal>
0.0000

> <Gold.Chemscore.Hbonds>
donor molecule, donor type, donor heavy atom, donor atom, acceptor molecule, acceptor atom, score
      L1  H     5    50       P1  7948  2.00
      L1  H     8    35       P1  7957  1.00
      L1  H    11    36       P1  7957  0.73
      P1  H  7997  8009       L1    19  0.88

> <Gold.PLP.Chemscore.Internal.Correction>
0.0466

> <Gold.Rescore>
     Score         DG    S(hbond)    S(metal)    S(lipo)     H(rot)  DE(clash)    DE(int)     intcor
     19.92     -23.25       3.49        0.00      83.40       1.42       0.55       2.78       ----

> <Gold.Chemscore.Fitness>
19.9189

> <Gold.Chemscore.DG>
-23.2496

> <Gold.Chemscore.ZeroCoef>
-5.4800

> <Gold.Chemscore.Hbond>
3.4901

> <Gold.Chemscore.Metal>
0.0000

> <Gold.Chemscore.Lipo>
83.4033

> <Gold.Chemscore.Internal_Hbond>
0.0000

> <Gold.Chemscore.DEClash>
0.5515

> <Gold.Chemscore.DEInternal>
2.7792

> <Gold.Chemscore.Rot>
1.4241

> <Gold.Chemscore.Internal.Correction>
   9.000000E+99

> <Gold.Chemscore.Hbonds>
donor molecule, donor type, donor heavy atom, donor atom, acceptor molecule, acceptor atom, score
      L1  H     5    50       P1  7948  1.00
      L1  H     8    35       P1  7957  0.93
      L1  H    11    36       P1  7957  0.70
      P1  H  7997  8009       L1    19  0.62

> <Gold.Chemscore.Hbond.Weighted>
-11.6570

> <Gold.Chemscore.Metal.Weighted>
-0.0000

> <Gold.Chemscore.Lipo.Weighted>
-9.7582

> <Gold.Chemscore.Internal_Hbond.Weighted>
0.0000

> <Gold.Chemscore.DEClash.Weighted>
0.5515

> <Gold.Chemscore.DEInternal.Weighted>
2.7792

> <Gold.Chemscore.Rot.Weighted>
3.6456

> <Gold.Chemscore.Internal.Correction.Weighted>
   9.000000E+99

> <Gold.Protein.RotatedTorsions>
[ 6907 6896 6895 6894 ] final   93.37 input  -60.11 | X-H torsion
[ 7974 7965 7964 7962 ] final    9.61 input  175.53 | X-H torsion
[ 8008 7997 7996 7995 ] final -160.75 input   59.86 | X-H torsion
[ 10167 10162 10161 10158 ] final   62.80 input  -65.29 | X-H torsion
[ 10718 10713 10712 10709 ] final   96.56 input   66.30 | X-H torsion
[ 10763 10752 10751 10750 ] final   -2.06 input  -60.55 | X-H torsion
[ 11005 11000 10999 10996 ] final -158.69 input  -57.11 | X-H torsion

> <Gold.Protein.ActiveResidues>
 VAL166  LYS551  ARG553  GLY616  TRP617  ASP618  TYR619  PRO620  LYS621  CYS622 
 ASP623  PHE694  ASN695  SER759  ASP760  ASP761  ALA762  ILE779  LEU786  VAL792 
 PHE793  MET794  SER795  GLU796  ALA797  LYS798  CYS799  TRP800  GLU811  SER814 

> <Gold.Protein.RotatedAtoms>
  152.5452  134.1358  159.8457 H   0  0  0  0  0  0  0  0  0  0  0  0  # atno 6907 bound_to 6896
  151.1399  133.4971  159.2604 H   0  0  0  0  0  0  0  0  0  0  0  0  # atno 6908 bound_to 6896
  151.1584  135.0272  159.8754 H   0  0  0  0  0  0  0  0  0  0  0  0  # atno 6909 bound_to 6896
  146.2401  139.9757  142.8442 H   0  0  0  0  0  0  0  0  0  0  0  0  # atno 7974 bound_to 7965
  155.7820  140.0866  157.2054 H   0  0  0  0  0  0  0  0  0  0  0  0  # atno 8008 bound_to 7997
  154.3989  140.1506  156.3121 H   0  0  0  0  0  0  0  0  0  0  0  0  # atno 8009 bound_to 7997
  155.8644  140.3428  155.5780 H   0  0  0  0  0  0  0  0  0  0  0  0  # atno 8010 bound_to 7997
  140.1399  144.4563  150.6817 H   0  0  0  0  0  0  0  0  0  0  0  0  # atno 10167 bound_to 10162
  157.6925  131.0582  150.4509 H   0  0  0  0  0  0  0  0  0  0  0  0  # atno 10718 bound_to 10713
  153.3530  135.6986  153.6773 H   0  0  0  0  0  0  0  0  0  0  0  0  # atno 10763 bound_to 10752
  153.5492  135.3557  155.2753 H   0  0  0  0  0  0  0  0  0  0  0  0  # atno 10764 bound_to 10752
  154.8656  135.4222  154.2770 H   0  0  0  0  0  0  0  0  0  0  0  0  # atno 10765 bound_to 10752
  140.6509  134.4452  157.5235 H   0  0  0  0  0  0  0  0  0  0  0  0  # atno 11005 bound_to 11000
  145.1639  140.9687  143.4361 LP  0  0  0  0  0  0  0  0  0  0  0  0  # atno 17320 bound_to 7965
  145.0091  139.3527  143.6129 LP  0  0  0  0  0  0  0  0  0  0  0  0  # atno 17321 bound_to 7965
  140.6766  143.2308  151.5490 LP  0  0  0  0  0  0  0  0  0  0  0  0  # atno 17342 bound_to 10162
  139.5477  144.2477  152.1473 LP  0  0  0  0  0  0  0  0  0  0  0  0  # atno 17343 bound_to 10162
  156.4861  130.4084  149.6433 LP  0  0  0  0  0  0  0  0  0  0  0  0  # atno 17370 bound_to 10713
  156.3461  130.7407  151.2360 LP  0  0  0  0  0  0  0  0  0  0  0  0  # atno 17371 bound_to 10713
  139.9046  134.8478  156.1756 LP  0  0  0  0  0  0  0  0  0  0  0  0  # atno 17394 bound_to 11000
  141.0538  133.6875  156.1821 LP  0  0  0  0  0  0  0  0  0  0  0  0  # atno 17395 bound_to 11000

$$$$
