AV-unprocessed.smi:453|AV-procd|sdf|2611|dock1
  -GOLD-   2262023 13D 1   1.00000     0.00000
 Structure written by MMmdl.
 43 44  0  0  0  0  0  0  0  0  1 V2000
  148.4797  132.7919  154.1393 C   0  0  0  0  0  0  0  0  0  0  0  0
  149.6666  133.5176  154.7997 C   0  0  0  0  0  0  0  0  0  0  0  0
  150.2877  132.6361  155.8943 C   0  0  0  0  0  0  0  0  0  0  0  0
  149.2949  134.9065  155.3686 C   0  0  0  0  0  0  0  0  0  0  0  0
  150.4578  135.9041  155.3708 C   0  0  0  0  0  0  0  0  0  0  0  0
  151.3162  135.8538  156.2514 O   0  0  0  0  0  0  0  0  0  0  0  0
  150.4857  136.7908  154.3640 N   0  0  0  0  0  0  0  0  0  0  0  0
  151.5076  137.8165  154.1791 C   0  0  0  0  0  0  0  0  0  0  0  0
  151.5401  138.8868  155.2620 C   0  0  0  0  0  0  0  0  0  0  0  0
  150.6120  139.9458  155.2322 C   0  0  0  0  0  0  0  0  0  0  0  0
  150.6674  140.9359  156.2314 C   0  0  0  0  0  0  0  0  0  0  0  0
  151.6575  140.8462  157.2382 C   0  0  0  0  0  0  0  0  0  0  0  0
  151.7357  141.8313  158.2466 N   0  0  0  0  0  0  0  0  0  0  0  0
  152.6645  141.6069  159.3531 C   0  0  0  0  0  0  0  0  0  0  0  0
  152.4112  142.6223  160.4800 C   0  0  0  0  0  0  0  0  0  0  0  0
  152.4878  143.9451  159.9592 O   0  0  0  0  0  0  0  0  0  0  0  0
  151.5015  144.1779  158.9593 C   0  0  0  0  0  0  0  0  0  0  0  0
  151.7177  143.2153  157.7787 C   0  0  0  0  0  0  0  0  0  0  0  0
  152.5484  139.8243  157.2662 N   0  0  0  0  0  0  0  0  0  0  0  0
  152.4913  138.8782  156.3054 C   0  0  0  0  0  0  0  0  0  0  0  0
  147.6556  132.6612  154.8415 H   0  0  0  0  0  0  0  0  0  0  0  0
  148.7740  131.8031  153.7865 H   0  0  0  0  0  0  0  0  0  0  0  0
  148.0999  133.3365  153.2751 H   0  0  0  0  0  0  0  0  0  0  0  0
  150.4308  133.6604  154.0341 H   0  0  0  0  0  0  0  0  0  0  0  0
  149.5774  132.4457  156.6996 H   0  0  0  0  0  0  0  0  0  0  0  0
  151.1670  133.1103  156.3310 H   0  0  0  0  0  0  0  0  0  0  0  0
  150.6020  131.6721  155.4928 H   0  0  0  0  0  0  0  0  0  0  0  0
  148.4699  135.3338  154.7968 H   0  0  0  0  0  0  0  0  0  0  0  0
  148.9268  134.8006  156.3905 H   0  0  0  0  0  0  0  0  0  0  0  0
  149.7435  136.7561  153.6802 H   0  0  0  0  0  0  0  0  0  0  0  0
  152.4795  137.3232  154.1616 H   0  0  0  0  0  0  0  0  0  0  0  0
  151.3852  138.2869  153.2018 H   0  0  0  0  0  0  0  0  0  0  0  0
  149.8634  140.0001  154.4554 H   0  0  0  0  0  0  0  0  0  0  0  0
  149.9467  141.7398  156.2207 H   0  0  0  0  0  0  0  0  0  0  0  0
  152.5476  140.5958  159.7452 H   0  0  0  0  0  0  0  0  0  0  0  0
  153.6890  141.7008  158.9901 H   0  0  0  0  0  0  0  0  0  0  0  0
  151.4360  142.4567  160.9409 H   0  0  0  0  0  0  0  0  0  0  0  0
  153.1583  142.5056  161.2651 H   0  0  0  0  0  0  0  0  0  0  0  0
  150.5030  144.0560  159.3825 H   0  0  0  0  0  0  0  0  0  0  0  0
  151.5784  145.2108  158.6193 H   0  0  0  0  0  0  0  0  0  0  0  0
  152.6687  143.4330  157.2903 H   0  0  0  0  0  0  0  0  0  0  0  0
  150.9366  143.3824  157.0385 H   0  0  0  0  0  0  0  0  0  0  0  0
  153.2350  138.0984  156.3757 H   0  0  0  0  0  0  0  0  0  0  0  0
  1  2  1  0  0  0  0
  1 21  1  0  0  0  0
  1 22  1  0  0  0  0
  1 23  1  0  0  0  0
  2  3  1  0  0  0  0
  2  4  1  0  0  0  0
  2 24  1  0  0  0  0
  3 25  1  0  0  0  0
  3 26  1  0  0  0  0
  3 27  1  0  0  0  0
  4  5  1  0  0  0  0
  4 28  1  0  0  0  0
  4 29  1  0  0  0  0
  5  6  2  0  0  0  0
  5  7  1  0  0  0  0
  7  8  1  0  0  0  0
  7 30  1  0  0  0  0
  8  9  1  0  0  0  0
  8 31  1  0  0  0  0
  8 32  1  0  0  0  0
  9 20  1  0  0  0  0
  9 10  2  0  0  0  0
 10 11  1  0  0  0  0
 10 33  1  0  0  0  0
 11 12  2  0  0  0  0
 11 34  1  0  0  0  0
 12 13  1  0  0  0  0
 12 19  1  0  0  0  0
 13 18  1  0  0  0  0
 13 14  1  0  0  0  0
 14 15  1  0  0  0  0
 14 35  1  0  0  0  0
 14 36  1  0  0  0  0
 15 16  1  0  0  0  0
 15 37  1  0  0  0  0
 15 38  1  0  0  0  0
 16 17  1  0  0  0  0
 17 18  1  0  0  0  0
 17 39  1  0  0  0  0
 17 40  1  0  0  0  0
 18 41  1  0  0  0  0
 18 42  1  0  0  0  0
 19 20  2  0  0  0  0
 20 43  1  0  0  0  0
M  END
> <s_m_source_file>
AV-unprocessed.smi

> <i_m_source_file_index>
453

> <i_lp_mmshare_version>
43012

> <i_f3d_flags>
0

> <s_epik_input>
W0NIM11bQ0hdKFtDSDNdKVtDSDJdQyg9TylbTkhdW0NIMl1jMVtjSF1bY0hdYyhuW2NIXTEpTjJbQ0gyXVtDSDJdT1tDSDJdW0NIMl0y

> <s_epik_cmdline>
J2VwaWtfcHl0aG9uJywgJy1waCcsICc3LjAnLCAnLXRuJywgJzgnLCAnLW1hJywgJzIwMCcsICctbWV0YWxfYmluZGluZycsICctaW1hZScsICc8aW5maWxlLm1hZT4nLCAnLW9tYWUnLCAnPG91dGZpbGUubWFlPic=

> <r_lp_tautomer_probability>
1

> <r_epik_Ionization_Penalty>
0.00505548

> <r_epik_Ionization_Penalty_Charging>
0

> <r_epik_Ionization_Penalty_Neutral>
0.00505548

> <r_epik_State_Penalty>
0.00367784

> <r_epik_Charging_Adjusted_Penalty>
0.00367784

> <i_epik_Tot_Q>
0

> <i_epik_Tot_abs_Q>
0

> <r_epik_Metal_State_Penalty>
-0

> <b_epik_Metal_Only>
0

> <s_lp_Force_Field>
OPLS_2005

> <r_lp_Energy>
17.3119

> <b_lp_Chiralities_Consistent>
1

> <s_lp_Variant>
AV-unprocessed.smi:453-1

> <Gold.Version>
5.8.1

> <Gold.Id.Protein>
6NUR|6NUR_protein|mol2

> <Gold.PLP.Fitness>
47.8282

> <Gold.PLP.PLP>
-41.7994

> <Gold.PLP.part.hbond>
-4.0000

> <Gold.PLP.part.metal>
0.0000

> <Gold.PLP.part.buried>
-3.4246

> <Gold.PLP.part.nonpolar>
-34.1634

> <Gold.PLP.part.repulsive>
0.1200

> <Gold.PLP.ligand.clash>
0.0000

> <Gold.PLP.ligand.torsion>
1.0532

> <Gold.PLP.Chemscore.Hbond>
2.5940

> <Gold.PLP.Chemscore.CHOScore>
0.0000

> <Gold.PLP.Chemscore.Metal>
0.0000

> <Gold.Chemscore.Hbonds>
donor molecule, donor type, donor heavy atom, donor atom, acceptor molecule, acceptor atom, score
      L1  H     7    30       P1  7948  1.00
      P1  H  7997  8009       L1    19  0.45
      P1  H 10752 10764       L1     6  0.55

> <Gold.PLP.Chemscore.Internal.Correction>
0.3533

> <Gold.Rescore>
     Score         DG    S(hbond)    S(metal)    S(lipo)     H(rot)  DE(clash)    DE(int)     intcor
     17.57     -18.69       1.62        0.00     102.70       1.65       0.05       1.07       ----

> <Gold.Chemscore.Fitness>
17.5724

> <Gold.Chemscore.DG>
-18.6852

> <Gold.Chemscore.ZeroCoef>
-5.4800

> <Gold.Chemscore.Hbond>
1.6196

> <Gold.Chemscore.Metal>
0.0000

> <Gold.Chemscore.Lipo>
102.7042

> <Gold.Chemscore.Internal_Hbond>
0.0000

> <Gold.Chemscore.DEClash>
0.0451

> <Gold.Chemscore.DEInternal>
1.0677

> <Gold.Chemscore.Rot>
1.6488

> <Gold.Chemscore.Internal.Correction>
   9.000000E+99

> <Gold.Chemscore.Hbonds>
donor molecule, donor type, donor heavy atom, donor atom, acceptor molecule, acceptor atom, score
      L1  H     7    30       P1  7948  0.50
      P1  H  7997  8009       L1    19  0.02
      P1  H 10752 10764       L1     6  0.16

> <Gold.Chemscore.Hbond.Weighted>
-5.4096

> <Gold.Chemscore.Metal.Weighted>
-0.0000

> <Gold.Chemscore.Lipo.Weighted>
-12.0164

> <Gold.Chemscore.Internal_Hbond.Weighted>
0.0000

> <Gold.Chemscore.DEClash.Weighted>
0.0451

> <Gold.Chemscore.DEInternal.Weighted>
1.0677

> <Gold.Chemscore.Rot.Weighted>
4.2208

> <Gold.Chemscore.Internal.Correction.Weighted>
   9.000000E+99

> <Gold.Protein.RotatedTorsions>
[ 6907 6896 6895 6894 ] final  -47.47 input  -60.11 | X-H torsion
[ 7974 7965 7964 7962 ] final   -2.58 input  175.53 | X-H torsion
[ 8008 7997 7996 7995 ] final  166.52 input   59.86 | X-H torsion
[ 10167 10162 10161 10158 ] final  -38.26 input  -65.29 | X-H torsion
[ 10718 10713 10712 10709 ] final   73.18 input   66.30 | X-H torsion
[ 10763 10752 10751 10750 ] final  -30.24 input  -60.55 | X-H torsion
[ 11005 11000 10999 10996 ] final  -24.44 input  -57.11 | X-H torsion

> <Gold.Protein.ActiveResidues>
 VAL166  LYS551  ARG553  GLY616  TRP617  ASP618  TYR619  PRO620  LYS621  CYS622 
 ASP623  PHE694  ASN695  SER759  ASP760  ASP761  ALA762  ILE779  LEU786  VAL792 
 PHE793  MET794  SER795  GLU796  ALA797  LYS798  CYS799  TRP800  GLU811  SER814 

> <Gold.Protein.RotatedAtoms>
  150.9005  134.8416  159.7356 H   0  0  0  0  0  0  0  0  0  0  0  0  # atno 6907 bound_to 6896
  152.4889  134.4510  159.9584 H   0  0  0  0  0  0  0  0  0  0  0  0  # atno 6908 bound_to 6896
  151.4562  133.3565  159.2838 H   0  0  0  0  0  0  0  0  0  0  0  0  # atno 6909 bound_to 6896
  146.2402  140.1592  142.8333 H   0  0  0  0  0  0  0  0  0  0  0  0  # atno 7974 bound_to 7965
  156.1712  140.1641  156.8444 H   0  0  0  0  0  0  0  0  0  0  0  0  # atno 8008 bound_to 7997
  154.5258  140.0768  156.8291 H   0  0  0  0  0  0  0  0  0  0  0  0  # atno 8009 bound_to 7997
  155.3509  140.3390  155.4241 H   0  0  0  0  0  0  0  0  0  0  0  0  # atno 8010 bound_to 7997
  140.7097  143.3288  151.2617 H   0  0  0  0  0  0  0  0  0  0  0  0  # atno 10167 bound_to 10162
  157.6536  130.9616  150.1033 H   0  0  0  0  0  0  0  0  0  0  0  0  # atno 10718 bound_to 10713
  153.7777  135.6907  153.4894 H   0  0  0  0  0  0  0  0  0  0  0  0  # atno 10763 bound_to 10752
  153.1832  135.4498  155.0054 H   0  0  0  0  0  0  0  0  0  0  0  0  # atno 10764 bound_to 10752
  154.8094  135.3370  154.7282 H   0  0  0  0  0  0  0  0  0  0  0  0  # atno 10765 bound_to 10752
  140.8845  133.7631  156.0343 H   0  0  0  0  0  0  0  0  0  0  0  0  # atno 11005 bound_to 11000
  145.0103  140.8709  143.5228 LP  0  0  0  0  0  0  0  0  0  0  0  0  # atno 17320 bound_to 7965
  145.1624  139.2450  143.5384 LP  0  0  0  0  0  0  0  0  0  0  0  0  # atno 17321 bound_to 7965
  139.6764  143.9930  152.2783 LP  0  0  0  0  0  0  0  0  0  0  0  0  # atno 17342 bound_to 10162
  139.9545  144.6598  150.8139 LP  0  0  0  0  0  0  0  0  0  0  0  0  # atno 17343 bound_to 10162
  156.1949  130.3657  149.8861 LP  0  0  0  0  0  0  0  0  0  0  0  0  # atno 17370 bound_to 10713
  156.6780  130.8847  151.3572 LP  0  0  0  0  0  0  0  0  0  0  0  0  # atno 17371 bound_to 10713
  140.8421  134.3054  157.5309 LP  0  0  0  0  0  0  0  0  0  0  0  0  # atno 17394 bound_to 11000
  139.8723  134.9422  156.3818 LP  0  0  0  0  0  0  0  0  0  0  0  0  # atno 17395 bound_to 11000

$$$$
