AV-unprocessed.smi:1622|AV-procd|sdf|6497|dock6
  -GOLD-   22720 7163D 1   1.00000     0.00000
 Structure written by MMmdl.
 41 42  0  0  0  0  0  0  0  0  2 V2000
  142.6363  136.4494  152.9396 C   0  0  0  0  0  0  0  0  0  0  0  0
  143.7399  135.6792  152.1964 C   0  0  0  0  0  0  0  0  0  0  0  0
  145.1873  136.0203  152.6436 C   0  0  2  0  0  0  0  0  0  0  0  0
  145.5972  137.4769  152.2994 C   0  0  0  0  0  0  0  0  0  0  0  0
  146.9971  137.7561  152.6127 N   0  0  0  0  0  0  0  0  0  0  0  0
  147.4331  138.7227  153.4341 C   0  0  0  0  0  0  0  0  0  0  0  0
  146.6845  139.5027  154.0225 O   0  0  0  0  0  0  0  0  0  0  0  0
  148.7749  138.7188  153.5237 N   0  0  0  0  0  0  0  0  0  0  0  0
  149.6037  139.5571  154.3159 C   0  0  0  0  0  0  0  0  0  0  0  0
  150.9317  139.4080  154.4180 N   0  0  0  0  0  0  0  0  0  0  0  0
  151.4975  140.3638  155.2498 N   0  0  0  0  0  0  0  0  0  0  0  0
  150.5846  141.2042  155.7516 C   0  0  0  0  0  0  0  0  0  0  0  0
  150.9382  142.3226  156.6712 C   0  0  0  0  0  0  0  0  0  0  0  0
  148.9315  140.8923  155.2358 S   0  0  0  0  0  0  0  0  0  0  0  0
  146.1716  135.0327  152.1076 N   0  3  0  0  0  0  0  0  0  0  0  0
  146.3981  133.8366  152.9464 C   0  0  0  0  0  0  0  0  0  0  0  0
  147.0721  132.8115  152.0343 C   0  0  0  0  0  0  0  0  0  0  0  0
  146.6598  133.2025  150.6132 C   0  0  0  0  0  0  0  0  0  0  0  0
  145.8703  134.5075  150.7570 C   0  0  0  0  0  0  0  0  0  0  0  0
  141.6522  136.1518  152.5773 H   0  0  0  0  0  0  0  0  0  0  0  0
  142.7271  137.5254  152.7916 H   0  0  0  0  0  0  0  0  0  0  0  0
  142.6588  136.2573  154.0112 H   0  0  0  0  0  0  0  0  0  0  0  0
  143.5593  134.6108  152.3125 H   0  0  0  0  0  0  0  0  0  0  0  0
  143.6300  135.8549  151.1262 H   0  0  0  0  0  0  0  0  0  0  0  0
  145.2112  135.9320  153.7312 H   0  0  0  0  0  0  0  0  0  0  0  0
  145.4907  137.6595  151.2305 H   0  0  0  0  0  0  0  0  0  0  0  0
  144.9281  138.1849  152.7908 H   0  0  0  0  0  0  0  0  0  0  0  0
  147.6867  137.1660  152.1702 H   0  0  0  0  0  0  0  0  0  0  0  0
  149.2619  138.0307  152.9686 H   0  0  0  0  0  0  0  0  0  0  0  0
  151.8832  142.1186  157.1758 H   0  0  0  0  0  0  0  0  0  0  0  0
  150.1615  142.4479  157.4258 H   0  0  0  0  0  0  0  0  0  0  0  0
  151.0341  143.2508  156.1080 H   0  0  0  0  0  0  0  0  0  0  0  0
  147.0104  134.0572  153.8214 H   0  0  0  0  0  0  0  0  0  0  0  0
  145.4387  133.4463  153.2906 H   0  0  0  0  0  0  0  0  0  0  0  0
  148.1563  132.8799  152.1335 H   0  0  0  0  0  0  0  0  0  0  0  0
  146.7826  131.7906  152.2856 H   0  0  0  0  0  0  0  0  0  0  0  0
  147.5453  133.3536  149.9945 H   0  0  0  0  0  0  0  0  0  0  0  0
  146.0563  132.4283  150.1383 H   0  0  0  0  0  0  0  0  0  0  0  0
  144.8027  134.2951  150.6782 H   0  0  0  0  0  0  0  0  0  0  0  0
  146.1298  135.2229  149.9762 H   0  0  0  0  0  0  0  0  0  0  0  0
  147.0627  135.5037  152.0388 H   0  0  0  0  0  0  0  0  0  0  0  0
  1  2  1  0  0  0  0
  1 20  1  0  0  0  0
  1 21  1  0  0  0  0
  1 22  1  0  0  0  0
  2  3  1  0  0  0  0
  2 23  1  0  0  0  0
  2 24  1  0  0  0  0
  3  4  1  0  0  0  0
  3 15  1  0  0  0  0
  3 25  1  0  0  0  0
  4  5  1  0  0  0  0
  4 26  1  0  0  0  0
  4 27  1  0  0  0  0
  5  6  1  0  0  0  0
  5 28  1  0  0  0  0
  6  7  2  0  0  0  0
  6  8  1  0  0  0  0
  8  9  1  0  0  0  0
  8 29  1  0  0  0  0
  9 14  1  0  0  0  0
  9 10  2  0  0  0  0
 10 11  1  0  0  0  0
 11 12  2  0  0  0  0
 12 13  1  0  0  0  0
 12 14  1  0  0  0  0
 13 30  1  0  0  0  0
 13 31  1  0  0  0  0
 13 32  1  0  0  0  0
 15 19  1  0  0  0  0
 15 16  1  0  0  0  0
 15 41  1  0  0  0  0
 16 17  1  0  0  0  0
 16 33  1  0  0  0  0
 16 34  1  0  0  0  0
 17 18  1  0  0  0  0
 17 35  1  0  0  0  0
 17 36  1  0  0  0  0
 18 19  1  0  0  0  0
 18 37  1  0  0  0  0
 18 38  1  0  0  0  0
 19 39  1  0  0  0  0
 19 40  1  0  0  0  0
M  CHG  1  15   1
M  END
> <s_m_source_file>
AV-unprocessed.smi

> <i_m_source_file_index>
1622

> <i_lp_mmshare_version>
43012

> <i_f3d_flags>
0

> <s_epik_input>
W0NIMl0xW0NIMl1bQ0gyXVtDSDJdTjFbQ0BIXShbQ0gyXVtDSDNdKVtDSDJdW05IXUMoPU8pW05IXWMybm5jKHMyKVtDSDNd

> <s_epik_cmdline>
J2VwaWtfcHl0aG9uJywgJy1waCcsICc3LjAnLCAnLXRuJywgJzgnLCAnLW1hJywgJzIwMCcsICctbWV0YWxfYmluZGluZycsICctaW1hZScsICc8aW5maWxlLm1hZT4nLCAnLW9tYWUnLCAnPG91dGZpbGUubWFlPic=

> <r_lp_tautomer_probability>
1

> <r_epik_Ionization_Penalty>
0.00164835

> <r_epik_Ionization_Penalty_Charging>
0.00115997

> <r_epik_Ionization_Penalty_Neutral>
0.00048838

> <r_epik_State_Penalty>
-0

> <r_epik_Charging_Adjusted_Penalty>
0.00115997

> <i_epik_Tot_Q>
1

> <i_epik_Tot_abs_Q>
1

> <r_epik_Metal_State_Penalty>
0.216651

> <b_epik_Metal_Only>
0

> <s_lp_Force_Field>
OPLS_2005

> <r_lp_Energy>
32.351

> <b_lp_Chiralities_Consistent>
1

> <s_lp_Variant>
AV-unprocessed.smi:1622-1

> <Gold.Version>
5.8.1

> <Gold.Id.Protein>
6NUR|6NUR_protein|mol2

> <Gold.PLP.Fitness>
43.1139

> <Gold.PLP.PLP>
-33.3709

> <Gold.PLP.part.hbond>
-5.9867

> <Gold.PLP.part.metal>
0.0000

> <Gold.PLP.part.buried>
-4.1458

> <Gold.PLP.part.nonpolar>
-23.6971

> <Gold.PLP.part.repulsive>
0.4280

> <Gold.PLP.ligand.clash>
0.0000

> <Gold.PLP.ligand.torsion>
0.8471

> <Gold.PLP.Chemscore.Hbond>
3.7865

> <Gold.PLP.Chemscore.CHOScore>
0.0000

> <Gold.PLP.Chemscore.Metal>
0.0000

> <Gold.Chemscore.Hbonds>
donor molecule, donor type, donor heavy atom, donor atom, acceptor molecule, acceptor atom, score
      L1  H     5    28       P1  7948  1.00
      L1  H     8    29       P1  7948  0.73
      L1  H    15    41       P1  7948  2.00

> <Gold.PLP.Chemscore.Internal.Correction>
0.0778

> <Gold.Rescore>
     Score         DG    S(hbond)    S(metal)    S(lipo)     H(rot)  DE(clash)    DE(int)     intcor
     15.24     -17.15       2.63        0.00      63.51       1.77       0.07       1.84       ----

> <Gold.Chemscore.Fitness>
15.2396

> <Gold.Chemscore.DG>
-17.1480

> <Gold.Chemscore.ZeroCoef>
-5.4800

> <Gold.Chemscore.Hbond>
2.6282

> <Gold.Chemscore.Metal>
0.0000

> <Gold.Chemscore.Lipo>
63.5125

> <Gold.Chemscore.Internal_Hbond>
0.0000

> <Gold.Chemscore.DEClash>
0.0708

> <Gold.Chemscore.DEInternal>
1.8377

> <Gold.Chemscore.Rot>
1.7738

> <Gold.Chemscore.Internal.Correction>
   9.000000E+99

> <Gold.Chemscore.Hbonds>
donor molecule, donor type, donor heavy atom, donor atom, acceptor molecule, acceptor atom, score
      L1  H     5    28       P1  7948  0.98
      L1  H     8    29       P1  7948  0.67
      L1  H    15    41       P1  7948  0.96

> <Gold.Chemscore.Hbond.Weighted>
-8.7781

> <Gold.Chemscore.Metal.Weighted>
-0.0000

> <Gold.Chemscore.Lipo.Weighted>
-7.4310

> <Gold.Chemscore.Internal_Hbond.Weighted>
0.0000

> <Gold.Chemscore.DEClash.Weighted>
0.0708

> <Gold.Chemscore.DEInternal.Weighted>
1.8377

> <Gold.Chemscore.Rot.Weighted>
4.5411

> <Gold.Chemscore.Internal.Correction.Weighted>
   9.000000E+99

> <Gold.Protein.RotatedTorsions>
[ 6907 6896 6895 6894 ] final   99.71 input  -60.11 | X-H torsion
[ 7974 7965 7964 7962 ] final  137.90 input  175.53 | X-H torsion
[ 8008 7997 7996 7995 ] final  -58.46 input   59.86 | X-H torsion
[ 10167 10162 10161 10158 ] final -115.30 input  -65.29 | X-H torsion
[ 10718 10713 10712 10709 ] final   72.28 input   66.30 | X-H torsion
[ 10763 10752 10751 10750 ] final  -69.29 input  -60.55 | X-H torsion
[ 11005 11000 10999 10996 ] final  -25.99 input  -57.11 | X-H torsion

> <Gold.Protein.ActiveResidues>
 VAL166  LYS551  ARG553  GLY616  TRP617  ASP618  TYR619  PRO620  LYS621  CYS622 
 ASP623  PHE694  ASN695  SER759  ASP760  ASP761  ALA762  ILE779  LEU786  VAL792 
 PHE793  MET794  SER795  GLU796  ALA797  LYS798  CYS799  TRP800  GLU811  SER814 

> <Gold.Protein.RotatedAtoms>
  152.5387  134.0387  159.8057 H   0  0  0  0  0  0  0  0  0  0  0  0  # atno 6907 bound_to 6896
  151.0547  133.5587  159.2646 H   0  0  0  0  0  0  0  0  0  0  0  0  # atno 6908 bound_to 6896
  151.2508  135.0629  159.9115 H   0  0  0  0  0  0  0  0  0  0  0  0  # atno 6909 bound_to 6896
  144.9423  139.4916  143.5566 H   0  0  0  0  0  0  0  0  0  0  0  0  # atno 7974 bound_to 7965
  154.4310  140.1083  156.5960 H   0  0  0  0  0  0  0  0  0  0  0  0  # atno 8008 bound_to 7997
  155.5961  140.3492  155.4561 H   0  0  0  0  0  0  0  0  0  0  0  0  # atno 8009 bound_to 7997
  156.0209  140.1239  157.0348 H   0  0  0  0  0  0  0  0  0  0  0  0  # atno 8010 bound_to 7997
  140.0916  143.4694  152.1866 H   0  0  0  0  0  0  0  0  0  0  0  0  # atno 10167 bound_to 10162
  157.6493  130.9571  150.0906 H   0  0  0  0  0  0  0  0  0  0  0  0  # atno 10718 bound_to 10713
  154.4012  135.6030  153.5898 H   0  0  0  0  0  0  0  0  0  0  0  0  # atno 10763 bound_to 10752
  152.9788  135.5907  154.4181 H   0  0  0  0  0  0  0  0  0  0  0  0  # atno 10764 bound_to 10752
  154.3980  135.2842  155.2092 H   0  0  0  0  0  0  0  0  0  0  0  0  # atno 10765 bound_to 10752
  140.8988  133.7538  156.0517 H   0  0  0  0  0  0  0  0  0  0  0  0  # atno 11005 bound_to 11000
  146.3290  139.8451  142.8883 LP  0  0  0  0  0  0  0  0  0  0  0  0  # atno 17320 bound_to 7965
  145.2972  141.0184  143.3629 LP  0  0  0  0  0  0  0  0  0  0  0  0  # atno 17321 bound_to 7965
  139.5721  144.7468  151.3862 LP  0  0  0  0  0  0  0  0  0  0  0  0  # atno 17342 bound_to 10162
  140.7025  143.7595  150.7427 LP  0  0  0  0  0  0  0  0  0  0  0  0  # atno 17343 bound_to 10162
  156.1856  130.3652  149.8977 LP  0  0  0  0  0  0  0  0  0  0  0  0  # atno 17370 bound_to 10713
  156.6918  130.8898  151.3589 LP  0  0  0  0  0  0  0  0  0  0  0  0  # atno 17371 bound_to 10713
  140.8255  134.3239  157.5367 LP  0  0  0  0  0  0  0  0  0  0  0  0  # atno 17394 bound_to 11000
  139.8739  134.9334  156.3579 LP  0  0  0  0  0  0  0  0  0  0  0  0  # atno 17395 bound_to 11000

$$$$
