AV-unprocessed.smi:1763|AV-procd|sdf|7128|dock3
  -GOLD-   22720 8363D 1   1.00000     0.00000
 Structure written by MMmdl.
 43 44  0  0  0  0  0  0  0  0  2 V2000
  146.3785  134.4619  153.3787 C   0  0  0  0  0  0  0  0  0  0  0  0
  146.5842  135.7791  152.7961 N   0  0  0  0  0  0  0  0  0  0  0  0
  145.8462  136.8577  153.0932 C   0  0  0  0  0  0  0  0  0  0  0  0
  144.9047  136.8338  153.8868 O   0  0  0  0  0  0  0  0  0  0  0  0
  146.2215  138.1564  152.3720 C   0  0  0  0  0  0  0  0  0  0  0  0
  146.8442  139.1615  153.2715 N   0  3  2  0  0  0  0  0  0  0  0  0
  147.1119  140.4500  152.5828 C   0  0  0  0  0  0  0  0  0  0  0  0
  147.6235  141.5134  153.5694 C   0  0  0  0  0  0  0  0  0  0  0  0
  148.8768  141.0230  154.3172 C   0  0  1  0  0  0  0  0  0  0  0  0
  149.2979  141.9935  155.3230 N   0  0  0  0  0  0  0  0  0  0  0  0
  150.2162  141.7682  156.2742 C   0  0  0  0  0  0  0  0  0  0  0  0
  150.8225  140.7028  156.3903 O   0  0  0  0  0  0  0  0  0  0  0  0
  150.3777  142.8473  157.0598 N   0  0  0  0  0  0  0  0  0  0  0  0
  151.2261  142.9917  158.1897 C   0  0  0  0  0  0  0  0  0  0  0  0
  151.3600  144.3136  158.6711 C   0  0  0  0  0  0  0  0  0  0  0  0
  152.1747  144.5631  159.7925 C   0  0  0  0  0  0  0  0  0  0  0  0
  152.8357  143.4830  160.4039 C   0  0  0  0  0  0  0  0  0  0  0  0
  152.6496  142.1984  159.8605 C   0  0  0  0  0  0  0  0  0  0  0  0
  151.8691  141.9568  158.7860 N   0  0  0  0  0  0  0  0  0  0  0  0
  148.5803  139.6726  154.9879 C   0  0  0  0  0  0  0  0  0  0  0  0
  148.0573  138.6513  153.9653 C   0  0  0  0  0  0  0  0  0  0  0  0
  147.1154  133.7619  152.9848 H   0  0  0  0  0  0  0  0  0  0  0  0
  145.3848  134.0814  153.1390 H   0  0  0  0  0  0  0  0  0  0  0  0
  146.4868  134.4952  154.4636 H   0  0  0  0  0  0  0  0  0  0  0  0
  147.3355  135.8745  152.1276 H   0  0  0  0  0  0  0  0  0  0  0  0
  146.8822  137.9506  151.5280 H   0  0  0  0  0  0  0  0  0  0  0  0
  145.2971  138.5590  151.9558 H   0  0  0  0  0  0  0  0  0  0  0  0
  147.8407  140.2932  151.7859 H   0  0  0  0  0  0  0  0  0  0  0  0
  146.1980  140.8125  152.1108 H   0  0  0  0  0  0  0  0  0  0  0  0
  147.8422  142.4361  153.0303 H   0  0  0  0  0  0  0  0  0  0  0  0
  146.8347  141.7537  154.2840 H   0  0  0  0  0  0  0  0  0  0  0  0
  149.6869  140.8773  153.5994 H   0  0  0  0  0  0  0  0  0  0  0  0
  148.8503  142.8981  155.3002 H   0  0  0  0  0  0  0  0  0  0  0  0
  149.8195  143.6566  156.8323 H   0  0  0  0  0  0  0  0  0  0  0  0
  150.8445  145.1322  158.1900 H   0  0  0  0  0  0  0  0  0  0  0  0
  152.2893  145.5661  160.1761 H   0  0  0  0  0  0  0  0  0  0  0  0
  153.4680  143.6351  161.2660 H   0  0  0  0  0  0  0  0  0  0  0  0
  153.1397  141.3421  160.2999 H   0  0  0  0  0  0  0  0  0  0  0  0
  149.4811  139.2860  155.4663 H   0  0  0  0  0  0  0  0  0  0  0  0
  147.8410  139.8032  155.7800 H   0  0  0  0  0  0  0  0  0  0  0  0
  147.8332  137.7167  154.4800 H   0  0  0  0  0  0  0  0  0  0  0  0
  148.8313  138.4271  153.2295 H   0  0  0  0  0  0  0  0  0  0  0  0
  146.1580  139.3591  153.9864 H   0  0  0  0  0  0  0  0  0  0  0  0
  1  2  1  0  0  0  0
  1 22  1  0  0  0  0
  1 23  1  0  0  0  0
  1 24  1  0  0  0  0
  2  3  1  0  0  0  0
  2 25  1  0  0  0  0
  3  4  2  0  0  0  0
  3  5  1  0  0  0  0
  5  6  1  0  0  0  0
  5 26  1  0  0  0  0
  5 27  1  0  0  0  0
  6 21  1  0  0  0  0
  6  7  1  0  0  0  0
  6 43  1  0  0  0  0
  7  8  1  0  0  0  0
  7 28  1  0  0  0  0
  7 29  1  0  0  0  0
  8  9  1  0  0  0  0
  8 30  1  0  0  0  0
  8 31  1  0  0  0  0
  9 10  1  0  0  0  0
  9 20  1  0  0  0  0
  9 32  1  0  0  0  0
 10 11  1  0  0  0  0
 10 33  1  0  0  0  0
 11 12  2  0  0  0  0
 11 13  1  0  0  0  0
 13 14  1  0  0  0  0
 13 34  1  0  0  0  0
 14 19  1  0  0  0  0
 14 15  2  0  0  0  0
 15 16  1  0  0  0  0
 15 35  1  0  0  0  0
 16 17  2  0  0  0  0
 16 36  1  0  0  0  0
 17 18  1  0  0  0  0
 17 37  1  0  0  0  0
 18 19  2  0  0  0  0
 18 38  1  0  0  0  0
 20 21  1  0  0  0  0
 20 39  1  0  0  0  0
 20 40  1  0  0  0  0
 21 41  1  0  0  0  0
 21 42  1  0  0  0  0
M  CHG  1   6   1
M  END
> <s_m_source_file>
AV-unprocessed.smi

> <i_m_source_file_index>
1763

> <i_lp_mmshare_version>
43012

> <i_f3d_flags>
0

> <s_epik_input>
W0NIM11bTkhdQyg9TylbQ0gyXU4xW0NIMl1bQ0gyXVtDSF0oW0NIMl1bQ0gyXTEpW05IXUMoPU8pW05IXWMyW2NIXVtjSF1bY0hdW2NIXW4y

> <s_epik_cmdline>
J2VwaWtfcHl0aG9uJywgJy1waCcsICc3LjAnLCAnLXRuJywgJzgnLCAnLW1hJywgJzIwMCcsICctbWV0YWxfYmluZGluZycsICctaW1hZScsICc8aW5maWxlLm1hZT4nLCAnLW9tYWUnLCAnPG91dGZpbGUubWFlPic=

> <r_epik_Ionization_Penalty>
0.838902

> <r_epik_Ionization_Penalty_Charging>
0.838844

> <r_epik_Ionization_Penalty_Neutral>
5.81242e-05

> <r_epik_State_Penalty>
0.8734

> <r_epik_Charging_Adjusted_Penalty>
1.71224

> <i_epik_Tot_Q>
1

> <i_epik_Tot_abs_Q>
1

> <r_epik_Metal_State_Penalty>
0.877921

> <b_epik_Metal_Only>
0

> <s_lp_Force_Field>
OPLS_2005

> <r_lp_Energy>
15.2323

> <b_lp_Chiralities_Consistent>
1

> <s_lp_Variant>
AV-unprocessed.smi:1763-2

> <Gold.Version>
5.8.1

> <Gold.Id.Protein>
6NUR|6NUR_protein|mol2

> <Gold.PLP.Fitness>
46.6157

> <Gold.PLP.PLP>
-38.2035

> <Gold.PLP.part.hbond>
-3.0000

> <Gold.PLP.part.metal>
0.0000

> <Gold.PLP.part.buried>
-5.2043

> <Gold.PLP.part.nonpolar>
-31.6353

> <Gold.PLP.part.repulsive>
0.3158

> <Gold.PLP.ligand.clash>
0.0000

> <Gold.PLP.ligand.torsion>
0.2715

> <Gold.PLP.Chemscore.Hbond>
2.9760

> <Gold.PLP.Chemscore.CHOScore>
0.0000

> <Gold.PLP.Chemscore.Metal>
0.0000

> <Gold.Chemscore.Hbonds>
donor molecule, donor type, donor heavy atom, donor atom, acceptor molecule, acceptor atom, score
      L1  H     2    25       P1  7948  0.98
      L1  H    10    33       P1  8028  1.00
      L1  H    13    34       P1  8028  1.00

> <Gold.PLP.Chemscore.Internal.Correction>
0.0272

> <Gold.Rescore>
     Score         DG    S(hbond)    S(metal)    S(lipo)     H(rot)  DE(clash)    DE(int)     intcor
     18.22     -21.33       2.93        0.00      89.64       1.73       0.26       2.85       ----

> <Gold.Chemscore.Fitness>
18.2222

> <Gold.Chemscore.DG>
-21.3319

> <Gold.Chemscore.ZeroCoef>
-5.4800

> <Gold.Chemscore.Hbond>
2.9306

> <Gold.Chemscore.Metal>
0.0000

> <Gold.Chemscore.Lipo>
89.6373

> <Gold.Chemscore.Internal_Hbond>
0.0000

> <Gold.Chemscore.DEClash>
0.2612

> <Gold.Chemscore.DEInternal>
2.8485

> <Gold.Chemscore.Rot>
1.7280

> <Gold.Chemscore.Internal.Correction>
   9.000000E+99

> <Gold.Chemscore.Hbonds>
donor molecule, donor type, donor heavy atom, donor atom, acceptor molecule, acceptor atom, score
      L1  H     2    25       P1  7948  0.93
      L1  H    10    33       P1  8028  0.95
      L1  H    13    34       P1  8028  0.97

> <Gold.Chemscore.Hbond.Weighted>
-9.7881

> <Gold.Chemscore.Metal.Weighted>
-0.0000

> <Gold.Chemscore.Lipo.Weighted>
-10.4876

> <Gold.Chemscore.Internal_Hbond.Weighted>
0.0000

> <Gold.Chemscore.DEClash.Weighted>
0.2612

> <Gold.Chemscore.DEInternal.Weighted>
2.8485

> <Gold.Chemscore.Rot.Weighted>
4.4237

> <Gold.Chemscore.Internal.Correction.Weighted>
   9.000000E+99

> <Gold.Protein.RotatedTorsions>
[ 6907 6896 6895 6894 ] final  112.31 input  -60.11 | X-H torsion
[ 7974 7965 7964 7962 ] final   -0.48 input  175.53 | X-H torsion
[ 8008 7997 7996 7995 ] final -127.75 input   59.86 | X-H torsion
[ 10167 10162 10161 10158 ] final -104.29 input  -65.29 | X-H torsion
[ 10718 10713 10712 10709 ] final  -53.89 input   66.30 | X-H torsion
[ 10763 10752 10751 10750 ] final -179.48 input  -60.55 | X-H torsion
[ 11005 11000 10999 10996 ] final -139.91 input  -57.11 | X-H torsion

> <Gold.Protein.ActiveResidues>
 VAL166  LYS551  ARG553  GLY616  TRP617  ASP618  TYR619  PRO620  LYS621  CYS622 
 ASP623  PHE694  ASN695  SER759  ASP760  ASP761  ALA762  ILE779  LEU786  VAL792 
 PHE793  MET794  SER795  GLU796  ALA797  LYS798  CYS799  TRP800  GLU811  SER814 

> <Gold.Protein.RotatedAtoms>
  152.4923  133.8534  159.7212 H   0  0  0  0  0  0  0  0  0  0  0  0  # atno 6907 bound_to 6896
  150.9065  133.7042  159.2872 H   0  0  0  0  0  0  0  0  0  0  0  0  # atno 6908 bound_to 6896
  151.4466  135.1030  159.9738 H   0  0  0  0  0  0  0  0  0  0  0  0  # atno 6909 bound_to 6896
  146.2427  140.1276  142.8338 H   0  0  0  0  0  0  0  0  0  0  0  0  # atno 7974 bound_to 7965
  155.2513  140.0432  157.2987 H   0  0  0  0  0  0  0  0  0  0  0  0  # atno 8008 bound_to 7997
  154.5767  140.2389  155.8082 H   0  0  0  0  0  0  0  0  0  0  0  0  # atno 8009 bound_to 7997
  156.2163  140.2983  155.9856 H   0  0  0  0  0  0  0  0  0  0  0  0  # atno 8010 bound_to 7997
  140.2109  143.3747  152.1051 H   0  0  0  0  0  0  0  0  0  0  0  0  # atno 10167 bound_to 10162
  156.1497  130.4151  149.9965 H   0  0  0  0  0  0  0  0  0  0  0  0  # atno 10718 bound_to 10713
  154.5345  135.2802  155.1151 H   0  0  0  0  0  0  0  0  0  0  0  0  # atno 10763 bound_to 10752
  154.2657  135.6313  153.5295 H   0  0  0  0  0  0  0  0  0  0  0  0  # atno 10764 bound_to 10752
  152.9964  135.5616  154.5868 H   0  0  0  0  0  0  0  0  0  0  0  0  # atno 10765 bound_to 10752
  140.8474  134.2327  157.4778 H   0  0  0  0  0  0  0  0  0  0  0  0  # atno 11005 bound_to 11000
  145.0353  140.8903  143.5085 LP  0  0  0  0  0  0  0  0  0  0  0  0  # atno 17320 bound_to 7965
  145.1348  139.2609  143.5521 LP  0  0  0  0  0  0  0  0  0  0  0  0  # atno 17321 bound_to 7965
  139.5180  144.7000  151.5521 LP  0  0  0  0  0  0  0  0  0  0  0  0  # atno 17342 bound_to 10162
  140.6324  143.9050  150.6617 LP  0  0  0  0  0  0  0  0  0  0  0  0  # atno 17343 bound_to 10162
  156.7827  130.9227  151.3646 LP  0  0  0  0  0  0  0  0  0  0  0  0  # atno 17370 bound_to 10713
  157.6646  130.8996  149.9905 LP  0  0  0  0  0  0  0  0  0  0  0  0  # atno 17371 bound_to 10713
  139.8703  134.9666  156.4569 LP  0  0  0  0  0  0  0  0  0  0  0  0  # atno 17394 bound_to 11000
  140.8828  133.7905  155.9485 LP  0  0  0  0  0  0  0  0  0  0  0  0  # atno 17395 bound_to 11000

$$$$
