AV-unprocessed.smi:3044|AV-procd|sdf|11608|dock7
  -GOLD-   2272016583D 1   1.00000     0.00000
 Structure written by MMmdl.
 41 42  0  0  0  0  0  0  0  0  1 V2000
  147.0046  141.6700  157.7635 C   0  0  0  0  0  0  0  0  0  0  0  0
  147.2951  141.3775  156.3017 C   0  0  0  0  0  0  0  0  0  0  0  0
  146.2084  141.2986  155.5014 N   0  0  0  0  0  0  0  0  0  0  0  0
  146.3967  141.0368  154.1917 C   0  0  0  0  0  0  0  0  0  0  0  0
  147.6671  140.8351  153.6218 C   0  0  0  0  0  0  0  0  0  0  0  0
  148.7979  140.9175  154.4558 C   0  0  0  0  0  0  0  0  0  0  0  0
  148.6212  141.2081  155.8311 C   0  0  0  0  0  0  0  0  0  0  0  0
  149.6987  141.2926  156.7583 N   0  0  0  0  0  0  0  0  0  0  0  0
  151.0016  141.0152  156.5653 C   0  0  0  0  0  0  0  0  0  0  0  0
  151.4946  140.6634  155.4943 O   0  0  0  0  0  0  0  0  0  0  0  0
  151.9091  141.1941  157.7800 C   0  0  0  0  0  0  0  0  0  0  0  0
  151.5591  142.4105  158.4234 O   0  0  0  0  0  0  0  0  0  0  0  0
  152.6478  143.2982  158.6532 C   0  0  1  0  0  0  0  0  0  0  0  0
  152.1558  144.7190  159.0015 C   0  0  0  0  0  0  0  0  0  0  0  0
  151.3955  144.7437  160.3367 C   0  0  0  0  0  0  0  0  0  0  0  0
  152.2544  144.1719  161.4750 C   0  0  0  0  0  0  0  0  0  0  0  0
  152.7429  142.7465  161.1538 C   0  0  2  0  0  0  0  0  0  0  0  0
  153.6113  142.1833  162.2879 C   0  0  0  0  0  0  0  0  0  0  0  0
  153.4916  142.7202  159.8047 C   0  0  0  0  0  0  0  0  0  0  0  0
  147.4682  142.6108  158.0606 H   0  0  0  0  0  0  0  0  0  0  0  0
  147.3981  140.8748  158.3969 H   0  0  0  0  0  0  0  0  0  0  0  0
  145.9330  141.7487  157.9522 H   0  0  0  0  0  0  0  0  0  0  0  0
  145.5079  140.9789  153.5811 H   0  0  0  0  0  0  0  0  0  0  0  0
  147.7717  140.6163  152.5695 H   0  0  0  0  0  0  0  0  0  0  0  0
  149.7717  140.7409  154.0269 H   0  0  0  0  0  0  0  0  0  0  0  0
  149.4592  141.6645  157.6659 H   0  0  0  0  0  0  0  0  0  0  0  0
  151.7986  140.3544  158.4686 H   0  0  0  0  0  0  0  0  0  0  0  0
  152.9440  141.2087  157.4390 H   0  0  0  0  0  0  0  0  0  0  0  0
  153.2747  143.3366  157.7607 H   0  0  0  0  0  0  0  0  0  0  0  0
  153.0162  145.3857  159.0711 H   0  0  0  0  0  0  0  0  0  0  0  0
  151.5304  145.1256  158.2080 H   0  0  0  0  0  0  0  0  0  0  0  0
  151.0973  145.7651  160.5749 H   0  0  0  0  0  0  0  0  0  0  0  0
  150.4744  144.1668  160.2452 H   0  0  0  0  0  0  0  0  0  0  0  0
  153.1105  144.8258  161.6471 H   0  0  0  0  0  0  0  0  0  0  0  0
  151.6778  144.1695  162.4006 H   0  0  0  0  0  0  0  0  0  0  0  0
  151.8654  142.1041  161.0661 H   0  0  0  0  0  0  0  0  0  0  0  0
  154.5127  142.7802  162.4313 H   0  0  0  0  0  0  0  0  0  0  0  0
  153.9201  141.1596  162.0750 H   0  0  0  0  0  0  0  0  0  0  0  0
  153.0655  142.1727  163.2317 H   0  0  0  0  0  0  0  0  0  0  0  0
  153.7902  141.6994  159.5624 H   0  0  0  0  0  0  0  0  0  0  0  0
  154.4148  143.2944  159.8929 H   0  0  0  0  0  0  0  0  0  0  0  0
  1  2  1  0  0  0  0
  1 20  1  0  0  0  0
  1 21  1  0  0  0  0
  1 22  1  0  0  0  0
  2  7  1  0  0  0  0
  2  3  2  0  0  0  0
  3  4  1  0  0  0  0
  4  5  2  0  0  0  0
  4 23  1  0  0  0  0
  5  6  1  0  0  0  0
  5 24  1  0  0  0  0
  6  7  2  0  0  0  0
  6 25  1  0  0  0  0
  7  8  1  0  0  0  0
  8  9  1  0  0  0  0
  8 26  1  0  0  0  0
  9 10  2  0  0  0  0
  9 11  1  0  0  0  0
 11 12  1  0  0  0  0
 11 27  1  0  0  0  0
 11 28  1  0  0  0  0
 12 13  1  0  0  0  0
 13 19  1  0  0  0  0
 13 14  1  0  0  0  0
 13 29  1  0  0  0  0
 14 15  1  0  0  0  0
 14 30  1  0  0  0  0
 14 31  1  0  0  0  0
 15 16  1  0  0  0  0
 15 32  1  0  0  0  0
 15 33  1  0  0  0  0
 16 17  1  0  0  0  0
 16 34  1  0  0  0  0
 16 35  1  0  0  0  0
 17 18  1  0  0  0  0
 17 19  1  0  0  0  0
 17 36  1  0  0  0  0
 18 37  1  0  0  0  0
 18 38  1  0  0  0  0
 18 39  1  0  0  0  0
 19 40  1  0  0  0  0
 19 41  1  0  0  0  0
M  END
> <s_m_source_file>
AV-unprocessed.smi

> <i_m_source_file_index>
3044

> <i_lp_mmshare_version>
43012

> <i_f3d_flags>
0

> <s_epik_input>
W0NIM11jMW5bY0hdW2NIXVtjSF1jMVtOSF1DKD1PKVtDSDJdT1tDQEBIXTJbQ0gyXVtDSDJdW0NIMl1bQ0BASF0oW0NIM10pW0NIMl0y

> <s_epik_cmdline>
J2VwaWtfcHl0aG9uJywgJy1waCcsICc3LjAnLCAnLXRuJywgJzgnLCAnLW1hJywgJzIwMCcsICctbWV0YWxfYmluZGluZycsICctaW1hZScsICc8aW5maWxlLm1hZT4nLCAnLW9tYWUnLCAnPG91dGZpbGUubWFlPic=

> <r_epik_Ionization_Penalty>
0.0077122

> <r_epik_Ionization_Penalty_Charging>
0

> <r_epik_Ionization_Penalty_Neutral>
0.0077122

> <r_epik_State_Penalty>
0.00577497

> <r_epik_Charging_Adjusted_Penalty>
0.00577497

> <i_epik_Tot_Q>
0

> <i_epik_Tot_abs_Q>
0

> <r_epik_Metal_State_Penalty>
-0

> <b_epik_Metal_Only>
0

> <s_lp_Force_Field>
OPLS_2005

> <r_lp_Energy>
18.191

> <b_lp_Chiralities_Consistent>
1

> <s_lp_Variant>
AV-unprocessed.smi:3044-4

> <Gold.Version>
5.8.1

> <Gold.Id.Protein>
6NUR|6NUR_protein|mol2

> <Gold.PLP.Fitness>
49.2765

> <Gold.PLP.PLP>
-45.4362

> <Gold.PLP.part.hbond>
-1.0000

> <Gold.PLP.part.metal>
0.0000

> <Gold.PLP.part.buried>
-4.5775

> <Gold.PLP.part.nonpolar>
-40.3778

> <Gold.PLP.part.repulsive>
0.1776

> <Gold.PLP.ligand.clash>
0.0000

> <Gold.PLP.ligand.torsion>
0.6729

> <Gold.PLP.Chemscore.Hbond>
0.7296

> <Gold.PLP.Chemscore.CHOScore>
0.9982

> <Gold.PLP.Chemscore.Metal>
0.0000

> <Gold.Chemscore.Hbonds>
donor molecule, donor type, donor heavy atom, donor atom, acceptor molecule, acceptor atom, score
      P1  H  7989  7998       L1    10  0.75
      L1  C     4    23       P1 10175  1.00

> <Gold.PLP.Chemscore.Internal.Correction>
0.0029

> <Gold.Rescore>
     Score         DG    S(hbond)    S(metal)    S(lipo)     H(rot)  DE(clash)    DE(int)     intcor
     17.46     -19.36       0.81        0.00     124.09       1.31       0.08       1.82       ----

> <Gold.Chemscore.Fitness>
17.4623

> <Gold.Chemscore.DG>
-19.3595

> <Gold.Chemscore.ZeroCoef>
-5.4800

> <Gold.Chemscore.Hbond>
0.8099

> <Gold.Chemscore.Metal>
0.0000

> <Gold.Chemscore.Lipo>
124.0911

> <Gold.Chemscore.Internal_Hbond>
0.0000

> <Gold.Chemscore.DEClash>
0.0813

> <Gold.Chemscore.DEInternal>
1.8158

> <Gold.Chemscore.Rot>
1.3064

> <Gold.Chemscore.Internal.Correction>
   9.000000E+99

> <Gold.Chemscore.Hbonds>
donor molecule, donor type, donor heavy atom, donor atom, acceptor molecule, acceptor atom, score
      P1  H  7989  7998       L1    10  0.71

> <Gold.Chemscore.Hbond.Weighted>
-2.7051

> <Gold.Chemscore.Metal.Weighted>
-0.0000

> <Gold.Chemscore.Lipo.Weighted>
-14.5187

> <Gold.Chemscore.Internal_Hbond.Weighted>
0.0000

> <Gold.Chemscore.DEClash.Weighted>
0.0813

> <Gold.Chemscore.DEInternal.Weighted>
1.8158

> <Gold.Chemscore.Rot.Weighted>
3.3443

> <Gold.Chemscore.Internal.Correction.Weighted>
   9.000000E+99

> <Gold.Protein.RotatedTorsions>
[ 6907 6896 6895 6894 ] final   29.76 input  -60.11 | X-H torsion
[ 7974 7965 7964 7962 ] final -106.76 input  175.53 | X-H torsion
[ 8008 7997 7996 7995 ] final -171.25 input   59.86 | X-H torsion
[ 10167 10162 10161 10158 ] final  129.51 input  -65.29 | X-H torsion
[ 10718 10713 10712 10709 ] final   38.63 input   66.30 | X-H torsion
[ 10763 10752 10751 10750 ] final  103.46 input  -60.55 | X-H torsion
[ 11005 11000 10999 10996 ] final  173.74 input  -57.11 | X-H torsion

> <Gold.Protein.ActiveResidues>
 VAL166  LYS551  ARG553  GLY616  TRP617  ASP618  TYR619  PRO620  LYS621  CYS622 
 ASP623  PHE694  ASN695  SER759  ASP760  ASP761  ALA762  ILE779  LEU786  VAL792 
 PHE793  MET794  SER795  GLU796  ALA797  LYS798  CYS799  TRP800  GLU811  SER814 

> <Gold.Protein.RotatedAtoms>
  152.0362  134.9739  160.0573 H   0  0  0  0  0  0  0  0  0  0  0  0  # atno 6907 bound_to 6896
  152.1196  133.4341  159.4677 H   0  0  0  0  0  0  0  0  0  0  0  0  # atno 6908 bound_to 6896
  150.6848  134.2470  159.4538 H   0  0  0  0  0  0  0  0  0  0  0  0  # atno 6909 bound_to 6896
  145.2138  140.9107  143.3299 H   0  0  0  0  0  0  0  0  0  0  0  0  # atno 7974 bound_to 7965
  155.9290  140.1088  157.1147 H   0  0  0  0  0  0  0  0  0  0  0  0  # atno 8008 bound_to 7997
  154.4067  140.1241  156.4844 H   0  0  0  0  0  0  0  0  0  0  0  0  # atno 8009 bound_to 7997
  155.7103  140.3471  155.4973 H   0  0  0  0  0  0  0  0  0  0  0  0  # atno 8010 bound_to 7997
  139.5474  144.6785  151.4430 H   0  0  0  0  0  0  0  0  0  0  0  0  # atno 10167 bound_to 10162
  157.3610  130.7650  149.7048 H   0  0  0  0  0  0  0  0  0  0  0  0  # atno 10718 bound_to 10713
  153.3529  135.3976  155.1660 H   0  0  0  0  0  0  0  0  0  0  0  0  # atno 10763 bound_to 10752
  154.8665  135.3661  154.5198 H   0  0  0  0  0  0  0  0  0  0  0  0  # atno 10764 bound_to 10752
  153.5651  135.7080  153.5589 H   0  0  0  0  0  0  0  0  0  0  0  0  # atno 10765 bound_to 10752
  140.3437  134.7254  157.4220 H   0  0  0  0  0  0  0  0  0  0  0  0  # atno 11005 bound_to 11000
  144.9831  139.3764  143.6252 LP  0  0  0  0  0  0  0  0  0  0  0  0  # atno 17320 bound_to 7965
  146.3392  139.8980  142.8799 LP  0  0  0  0  0  0  0  0  0  0  0  0  # atno 17321 bound_to 7965
  140.6726  143.8259  150.7019 LP  0  0  0  0  0  0  0  0  0  0  0  0  # atno 17342 bound_to 10162
  140.1688  143.4212  152.2015 LP  0  0  0  0  0  0  0  0  0  0  0  0  # atno 17343 bound_to 10162
  155.9737  130.4114  150.3977 LP  0  0  0  0  0  0  0  0  0  0  0  0  # atno 17370 bound_to 10713
  157.2055  131.0448  151.2628 LP  0  0  0  0  0  0  0  0  0  0  0  0  # atno 17371 bound_to 10713
  140.0760  134.5797  155.8591 LP  0  0  0  0  0  0  0  0  0  0  0  0  # atno 17394 bound_to 11000
  141.2031  133.6630  156.6046 LP  0  0  0  0  0  0  0  0  0  0  0  0  # atno 17395 bound_to 11000

$$$$
