AV-unprocessed.smi:325|AV-procd|sdf|2343|dock3
  -GOLD-   2262022253D 1   1.00000     0.00000
 Structure written by MMmdl.
 45 46  0  0  0  0  0  0  0  0  2 V2000
  149.1226  141.5877  154.6837 C   0  0  0  0  0  0  0  0  0  0  0  0
  150.2152  141.2886  155.6943 C   0  0  0  0  0  0  0  0  0  0  0  0
  150.3521  142.2135  156.7401 N   0  0  0  0  0  0  0  0  0  0  0  0
  151.2607  142.0409  157.6528 C   0  0  0  0  0  0  0  0  0  0  0  0
  151.4375  142.9482  158.7026 N   0  0  0  0  0  0  0  0  0  0  0  0
  152.5514  142.7983  159.6399 C   0  0  0  0  0  0  0  0  0  0  0  0
  152.2437  143.4692  160.9889 C   0  0  0  0  0  0  0  0  0  0  0  0
  151.9127  144.8353  160.7811 O   0  0  0  0  0  0  0  0  0  0  0  0
  150.7527  144.9671  159.9708 C   0  0  0  0  0  0  0  0  0  0  0  0
  151.0100  144.3452  158.5883 C   0  0  0  0  0  0  0  0  0  0  0  0
  152.1245  140.9567  157.6425 N   0  5  0  0  0  0  0  0  0  0  0  0
  152.0461  140.0155  156.6597 C   0  0  0  0  0  0  0  0  0  0  0  0
  152.7918  139.0373  156.6329 O   0  0  0  0  0  0  0  0  0  0  0  0
  151.0241  140.1951  155.6141 C   0  0  0  0  0  0  0  0  0  0  0  0
  150.9364  139.1671  154.4881 C   0  0  0  0  0  0  0  0  0  0  0  0
  149.5947  138.4098  154.4966 C   0  0  0  0  0  0  0  0  0  0  0  0
  149.6147  137.1353  155.3459 C   0  0  0  0  0  0  0  0  0  0  0  0
  149.7326  137.1906  156.5706 O   0  0  0  0  0  0  0  0  0  0  0  0
  149.4917  135.9820  154.6706 N   0  0  0  0  0  0  0  0  0  0  0  0
  149.4798  134.6486  155.2651 C   0  0  0  0  0  0  0  0  0  0  0  0
  150.6934  134.4913  156.1905 C   0  0  0  0  0  0  0  0  0  0  0  0
  149.4590  133.5726  154.1680 C   0  0  0  0  0  0  0  0  0  0  0  0
  148.4792  140.7191  154.5427 H   0  0  0  0  0  0  0  0  0  0  0  0
  149.5598  141.8573  153.7222 H   0  0  0  0  0  0  0  0  0  0  0  0
  148.4960  142.4174  155.0135 H   0  0  0  0  0  0  0  0  0  0  0  0
  152.7682  141.7433  159.8124 H   0  0  0  0  0  0  0  0  0  0  0  0
  153.4455  143.2396  159.1980 H   0  0  0  0  0  0  0  0  0  0  0  0
  151.4266  142.9572  161.4997 H   0  0  0  0  0  0  0  0  0  0  0  0
  153.1134  143.4113  161.6433 H   0  0  0  0  0  0  0  0  0  0  0  0
  149.8982  144.4928  160.4562 H   0  0  0  0  0  0  0  0  0  0  0  0
  150.5123  146.0251  159.8667 H   0  0  0  0  0  0  0  0  0  0  0  0
  151.7894  144.9042  158.0694 H   0  0  0  0  0  0  0  0  0  0  0  0
  150.1054  144.4441  157.9881 H   0  0  0  0  0  0  0  0  0  0  0  0
  151.0758  139.6575  153.5250 H   0  0  0  0  0  0  0  0  0  0  0  0
  151.7700  138.4681  154.5740 H   0  0  0  0  0  0  0  0  0  0  0  0
  148.8028  139.0576  154.8743 H   0  0  0  0  0  0  0  0  0  0  0  0
  149.3210  138.1451  153.4743 H   0  0  0  0  0  0  0  0  0  0  0  0
  149.3957  136.0339  153.6668 H   0  0  0  0  0  0  0  0  0  0  0  0
  148.5819  134.5388  155.8758 H   0  0  0  0  0  0  0  0  0  0  0  0
  150.6962  133.5115  156.6689 H   0  0  0  0  0  0  0  0  0  0  0  0
  150.6849  135.2423  156.9813 H   0  0  0  0  0  0  0  0  0  0  0  0
  151.6294  134.5953  155.6406 H   0  0  0  0  0  0  0  0  0  0  0  0
  149.4389  132.5724  154.6013 H   0  0  0  0  0  0  0  0  0  0  0  0
  150.3398  133.6406  153.5287 H   0  0  0  0  0  0  0  0  0  0  0  0
  148.5784  133.6715  153.5326 H   0  0  0  0  0  0  0  0  0  0  0  0
  1  2  1  0  0  0  0
  1 23  1  0  0  0  0
  1 24  1  0  0  0  0
  1 25  1  0  0  0  0
  2 14  2  0  0  0  0
  2  3  1  0  0  0  0
  3  4  2  0  0  0  0
  4  5  1  0  0  0  0
  4 11  1  0  0  0  0
  5 10  1  0  0  0  0
  5  6  1  0  0  0  0
  6  7  1  0  0  0  0
  6 26  1  0  0  0  0
  6 27  1  0  0  0  0
  7  8  1  0  0  0  0
  7 28  1  0  0  0  0
  7 29  1  0  0  0  0
  8  9  1  0  0  0  0
  9 10  1  0  0  0  0
  9 30  1  0  0  0  0
  9 31  1  0  0  0  0
 10 32  1  0  0  0  0
 10 33  1  0  0  0  0
 11 12  1  0  0  0  0
 12 13  2  0  0  0  0
 12 14  1  0  0  0  0
 14 15  1  0  0  0  0
 15 16  1  0  0  0  0
 15 34  1  0  0  0  0
 15 35  1  0  0  0  0
 16 17  1  0  0  0  0
 16 36  1  0  0  0  0
 16 37  1  0  0  0  0
 17 18  2  0  0  0  0
 17 19  1  0  0  0  0
 19 20  1  0  0  0  0
 19 38  1  0  0  0  0
 20 21  1  0  0  0  0
 20 22  1  0  0  0  0
 20 39  1  0  0  0  0
 21 40  1  0  0  0  0
 21 41  1  0  0  0  0
 21 42  1  0  0  0  0
 22 43  1  0  0  0  0
 22 44  1  0  0  0  0
 22 45  1  0  0  0  0
M  CHG  1  11  -1
M  END
> <s_m_source_file>
AV-unprocessed.smi

> <i_m_source_file_index>
325

> <i_lp_mmshare_version>
43012

> <i_f3d_flags>
0

> <s_epik_input>
W0NIMl0xW0NIMl1PW0NIMl1bQ0gyXU4xYyhuYzJbQ0gzXSlbbkhdYyg9TyljMltDSDJdW0NIMl1DKD1PKVtOSF1bQ0hdKFtDSDNdKVtDSDNd

> <s_epik_cmdline>
J2VwaWtfcHl0aG9uJywgJy1waCcsICc3LjAnLCAnLXRuJywgJzgnLCAnLW1hJywgJzIwMCcsICctbWV0YWxfYmluZGluZycsICctaW1hZScsICc8aW5maWxlLm1hZT4nLCAnLW9tYWUnLCAnPG91dGZpbGUubWFlPic=

> <r_lp_tautomer_probability>
1

> <r_epik_Ionization_Penalty>
5.05468

> <r_epik_Ionization_Penalty_Charging>
1.01174e-07

> <r_epik_Ionization_Penalty_Neutral>
5.05468

> <r_epik_State_Penalty>
2.58307

> <r_epik_Charging_Adjusted_Penalty>
2.58307

> <i_epik_Tot_Q>
-1

> <i_epik_Tot_abs_Q>
1

> <r_epik_Metal_State_Penalty>
0.123593

> <b_epik_Metal_Only>
0

> <s_lp_Force_Field>
OPLS_2005

> <r_lp_Energy>
24.1859

> <b_lp_Chiralities_Consistent>
1

> <s_lp_Variant>
AV-unprocessed.smi:325-3

> <Gold.Version>
5.8.1

> <Gold.Id.Protein>
6NUR|6NUR_protein|mol2

> <Gold.PLP.Fitness>
48.0601

> <Gold.PLP.PLP>
-43.6135

> <Gold.PLP.part.hbond>
-2.0000

> <Gold.PLP.part.metal>
0.0000

> <Gold.PLP.part.buried>
-3.7552

> <Gold.PLP.part.nonpolar>
-37.8050

> <Gold.PLP.part.repulsive>
0.5865

> <Gold.PLP.ligand.clash>
0.0000

> <Gold.PLP.ligand.torsion>
0.4357

> <Gold.PLP.Chemscore.Hbond>
1.7000

> <Gold.PLP.Chemscore.CHOScore>
0.0000

> <Gold.PLP.Chemscore.Metal>
0.0000

> <Gold.Chemscore.Hbonds>
donor molecule, donor type, donor heavy atom, donor atom, acceptor molecule, acceptor atom, score
      L1  H    19    38       P1  7948  1.00
      P1  H  7997  8010       L1    13  0.65

> <Gold.PLP.Chemscore.Internal.Correction>
0.2179

> <Gold.Rescore>
     Score         DG    S(hbond)    S(metal)    S(lipo)     H(rot)  DE(clash)    DE(int)     intcor
     15.00     -17.19       1.65        0.00      89.41       1.67       0.50       1.68       ----

> <Gold.Chemscore.Fitness>
15.0024

> <Gold.Chemscore.DG>
-17.1886

> <Gold.Chemscore.ZeroCoef>
-5.4800

> <Gold.Chemscore.Hbond>
1.6549

> <Gold.Chemscore.Metal>
0.0000

> <Gold.Chemscore.Lipo>
89.4075

> <Gold.Chemscore.Internal_Hbond>
0.0000

> <Gold.Chemscore.DEClash>
0.5023

> <Gold.Chemscore.DEInternal>
1.6838

> <Gold.Chemscore.Rot>
1.6717

> <Gold.Chemscore.Internal.Correction>
   9.000000E+99

> <Gold.Chemscore.Hbonds>
donor molecule, donor type, donor heavy atom, donor atom, acceptor molecule, acceptor atom, score
      L1  H    19    38       P1  7948  0.65
      P1  H  7997  8010       L1    13  0.06

> <Gold.Chemscore.Hbond.Weighted>
-5.5274

> <Gold.Chemscore.Metal.Weighted>
-0.0000

> <Gold.Chemscore.Lipo.Weighted>
-10.4607

> <Gold.Chemscore.Internal_Hbond.Weighted>
0.0000

> <Gold.Chemscore.DEClash.Weighted>
0.5023

> <Gold.Chemscore.DEInternal.Weighted>
1.6838

> <Gold.Chemscore.Rot.Weighted>
4.2795

> <Gold.Chemscore.Internal.Correction.Weighted>
   9.000000E+99

> <Gold.Protein.RotatedTorsions>
[ 6907 6896 6895 6894 ] final   16.04 input  -60.11 | X-H torsion
[ 7974 7965 7964 7962 ] final   17.09 input  175.53 | X-H torsion
[ 8008 7997 7996 7995 ] final   78.53 input   59.86 | X-H torsion
[ 10167 10162 10161 10158 ] final  137.85 input  -65.29 | X-H torsion
[ 10718 10713 10712 10709 ] final -152.22 input   66.30 | X-H torsion
[ 10763 10752 10751 10750 ] final -126.32 input  -60.55 | X-H torsion
[ 11005 11000 10999 10996 ] final   87.77 input  -57.11 | X-H torsion

> <Gold.Protein.ActiveResidues>
 VAL166  LYS551  ARG553  GLY616  TRP617  ASP618  TYR619  PRO620  LYS621  CYS622 
 ASP623  PHE694  ASN695  SER759  ASP760  ASP761  ALA762  ILE779  LEU786  VAL792 
 PHE793  MET794  SER795  GLU796  ALA797  LYS798  CYS799  TRP800  GLU811  SER814 

> <Gold.Protein.RotatedAtoms>
  151.8276  135.0632  160.0432 H   0  0  0  0  0  0  0  0  0  0  0  0  # atno 6907 bound_to 6896
  152.2905  133.5552  159.5562 H   0  0  0  0  0  0  0  0  0  0  0  0  # atno 6908 bound_to 6896
  150.7228  134.0352  159.3789 H   0  0  0  0  0  0  0  0  0  0  0  0  # atno 6909 bound_to 6896
  146.2229  139.8653  142.8597 H   0  0  0  0  0  0  0  0  0  0  0  0  # atno 7974 bound_to 7965
  155.8570  140.3455  155.5731 H   0  0  0  0  0  0  0  0  0  0  0  0  # atno 8008 bound_to 7997
  155.7975  140.0880  157.1994 H   0  0  0  0  0  0  0  0  0  0  0  0  # atno 8009 bound_to 7997
  154.4010  140.1471  156.3223 H   0  0  0  0  0  0  0  0  0  0  0  0  # atno 8010 bound_to 7997
  139.5130  144.6387  151.5628 H   0  0  0  0  0  0  0  0  0  0  0  0  # atno 10167 bound_to 10162
  156.4696  130.8252  151.2481 H   0  0  0  0  0  0  0  0  0  0  0  0  # atno 10718 bound_to 10713
  154.8744  135.3999  154.3411 H   0  0  0  0  0  0  0  0  0  0  0  0  # atno 10763 bound_to 10752
  153.4210  135.7023  153.6299 H   0  0  0  0  0  0  0  0  0  0  0  0  # atno 10764 bound_to 10752
  153.4961  135.3737  155.2486 H   0  0  0  0  0  0  0  0  0  0  0  0  # atno 10765 bound_to 10752
  139.8911  134.8444  156.2907 H   0  0  0  0  0  0  0  0  0  0  0  0  # atno 11005 bound_to 11000
  145.2663  141.0094  143.3798 LP  0  0  0  0  0  0  0  0  0  0  0  0  # atno 17320 bound_to 7965
  144.9259  139.4356  143.6518 LP  0  0  0  0  0  0  0  0  0  0  0  0  # atno 17321 bound_to 7965
  140.6145  143.9374  150.6478 LP  0  0  0  0  0  0  0  0  0  0  0  0  # atno 17342 bound_to 10162
  140.2627  143.3512  152.1308 LP  0  0  0  0  0  0  0  0  0  0  0  0  # atno 17343 bound_to 10162
  157.7492  131.0081  150.3214 LP  0  0  0  0  0  0  0  0  0  0  0  0  # atno 17370 bound_to 10713
  156.3632  130.3850  149.7234 LP  0  0  0  0  0  0  0  0  0  0  0  0  # atno 17371 bound_to 10713
  140.9978  133.7170  156.0913 LP  0  0  0  0  0  0  0  0  0  0  0  0  # atno 17394 bound_to 11000
  140.7539  134.4014  157.5537 LP  0  0  0  0  0  0  0  0  0  0  0  0  # atno 17395 bound_to 11000

$$$$
