AV-unprocessed.smi:101|AV-procd|sdf|930|dock3
  -GOLD-   2262017443D 1   1.00000     0.00000
 Structure written by MMmdl.
 43 45  0  0  0  0  0  0  0  0  2 V2000
  149.1170  135.5704  154.9877 C   0  0  0  0  0  0  0  0  0  0  0  0
  148.0737  136.6083  155.3625 C   0  0  0  0  0  0  0  0  0  0  0  0
  148.3560  137.9288  155.4134 C   0  0  0  0  0  0  0  0  0  0  0  0
  147.4017  138.8716  155.7519 N   0  0  0  0  0  0  0  0  0  0  0  0
  147.7609  140.3426  155.7894 C   0  0  1  0  0  0  0  0  0  0  0  0
  148.9479  140.4911  156.5104 O   0  0  0  0  0  0  0  0  0  0  0  0
  149.7953  141.4222  155.8484 C   0  0  1  0  0  0  0  0  0  0  0  0
  151.2612  141.2230  156.2588 C   0  0  0  0  0  0  0  0  0  0  0  0
  151.4467  141.7149  157.5757 O   0  0  0  0  0  0  0  0  0  0  0  0
  152.3078  141.1011  158.4094 C   0  0  0  0  0  0  0  0  0  0  0  0
  152.8855  140.0464  158.1377 O   0  0  0  0  0  0  0  0  0  0  0  0
  152.4910  141.8330  159.6960 C   0  0  0  0  0  0  0  0  0  0  0  0
  151.7605  143.0219  159.9271 C   0  0  0  0  0  0  0  0  0  0  0  0
  151.9135  143.7352  161.1321 C   0  0  0  0  0  0  0  0  0  0  0  0
  152.7994  143.2685  162.1206 C   0  0  0  0  0  0  0  0  0  0  0  0
  153.5324  142.0874  161.9028 C   0  0  0  0  0  0  0  0  0  0  0  0
  153.3807  141.3728  160.6984 C   0  0  0  0  0  0  0  0  0  0  0  0
  149.4861  141.2075  154.3619 C   0  0  1  0  0  0  0  0  0  0  0  0
  150.2246  140.1120  153.8444 O   0  0  0  0  0  0  0  0  0  0  0  0
  147.9833  140.9460  154.3851 C   0  0  1  0  0  0  0  0  0  0  0  0
  147.5379  140.1607  153.2926 O   0  0  0  0  0  0  0  0  0  0  0  0
  146.0764  138.4557  156.0453 C   0  0  0  0  0  0  0  0  0  0  0  0
  145.2414  139.3183  156.3178 O   0  0  0  0  0  0  0  0  0  0  0  0
  145.7841  137.1243  156.0031 N   0  5  0  0  0  0  0  0  0  0  0  0
  146.7075  136.1742  155.6778 C   0  0  0  0  0  0  0  0  0  0  0  0
  146.4282  134.9762  155.6419 O   0  0  0  0  0  0  0  0  0  0  0  0
  150.0904  136.0310  154.8163 H   0  0  0  0  0  0  0  0  0  0  0  0
  148.8234  135.0493  154.0761 H   0  0  0  0  0  0  0  0  0  0  0  0
  149.2276  134.8348  155.7851 H   0  0  0  0  0  0  0  0  0  0  0  0
  149.3583  138.2552  155.1793 H   0  0  0  0  0  0  0  0  0  0  0  0
  146.9700  140.8477  156.3448 H   0  0  0  0  0  0  0  0  0  0  0  0
  149.4705  142.4277  156.1232 H   0  0  0  0  0  0  0  0  0  0  0  0
  151.5375  140.1690  156.2010 H   0  0  0  0  0  0  0  0  0  0  0  0
  151.9141  141.7750  155.5815 H   0  0  0  0  0  0  0  0  0  0  0  0
  151.0743  143.3999  159.1827 H   0  0  0  0  0  0  0  0  0  0  0  0
  151.3497  144.6415  161.2974 H   0  0  0  0  0  0  0  0  0  0  0  0
  152.9163  143.8154  163.0445 H   0  0  0  0  0  0  0  0  0  0  0  0
  154.2133  141.7283  162.6605 H   0  0  0  0  0  0  0  0  0  0  0  0
  153.9597  140.4710  160.5628 H   0  0  0  0  0  0  0  0  0  0  0  0
  149.7302  142.0892  153.7685 H   0  0  0  0  0  0  0  0  0  0  0  0
  149.8677  139.8793  153.0012 H   0  0  0  0  0  0  0  0  0  0  0  0
  147.4561  141.9005  154.3604 H   0  0  0  0  0  0  0  0  0  0  0  0
  148.2725  140.0154  152.7158 H   0  0  0  0  0  0  0  0  0  0  0  0
  1  2  1  0  0  0  0
  1 27  1  0  0  0  0
  1 28  1  0  0  0  0
  1 29  1  0  0  0  0
  2 25  1  0  0  0  0
  2  3  2  0  0  0  0
  3  4  1  0  0  0  0
  3 30  1  0  0  0  0
  4  5  1  0  0  0  0
  4 22  1  0  0  0  0
  5 20  1  0  0  0  0
  5  6  1  0  0  0  0
  5 31  1  0  0  0  0
  6  7  1  0  0  0  0
  7  8  1  0  0  0  0
  7 18  1  0  0  0  0
  7 32  1  0  0  0  0
  8  9  1  0  0  0  0
  8 33  1  0  0  0  0
  8 34  1  0  0  0  0
  9 10  1  0  0  0  0
 10 11  2  0  0  0  0
 10 12  1  0  0  0  0
 12 17  1  0  0  0  0
 12 13  2  0  0  0  0
 13 14  1  0  0  0  0
 13 35  1  0  0  0  0
 14 15  2  0  0  0  0
 14 36  1  0  0  0  0
 15 16  1  0  0  0  0
 15 37  1  0  0  0  0
 16 17  2  0  0  0  0
 16 38  1  0  0  0  0
 17 39  1  0  0  0  0
 18 19  1  0  0  0  0
 18 20  1  0  0  0  0
 18 40  1  0  0  0  0
 19 41  1  0  0  0  0
 20 21  1  0  0  0  0
 20 42  1  0  0  0  0
 21 43  1  0  0  0  0
 22 23  2  0  0  0  0
 22 24  1  0  0  0  0
 24 25  1  0  0  0  0
 25 26  2  0  0  0  0
M  CHG  1  24  -1
M  END
> <s_m_source_file>
AV-unprocessed.smi

> <i_m_source_file_index>
101

> <i_lp_mmshare_version>
43012

> <i_f3d_flags>
0

> <s_epik_input>
Tz1jMVtuSF1jKD1PKW4oW2NIXWMxW0NIM10pW0NAQEhdMk9bQ0BIXShbQ0BASF0oW09IXSlbQ0BIXTJbT0hdKVtDSDJdT0MoPU8pYzNbY0hdW2NIXVtjSF1bY0hdW2NIXTM=

> <s_epik_cmdline>
J2VwaWtfcHl0aG9uJywgJy1waCcsICc3LjAnLCAnLXRuJywgJzgnLCAnLW1hJywgJzIwMCcsICctbWV0YWxfYmluZGluZycsICctaW1hZScsICc8aW5maWxlLm1hZT4nLCAnLW9tYWUnLCAnPG91dGZpbGUubWFlPic=

> <r_lp_tautomer_probability>
0.999537

> <r_epik_Ionization_Penalty>
3.21006

> <r_epik_Ionization_Penalty_Charging>
5.75142e-08

> <r_epik_Ionization_Penalty_Neutral>
3.21006

> <r_epik_State_Penalty>
3.20925

> <r_epik_Charging_Adjusted_Penalty>
3.20925

> <i_epik_Tot_Q>
-1

> <i_epik_Tot_abs_Q>
1

> <r_epik_Metal_State_Penalty>
0.119957

> <b_epik_Metal_Only>
1

> <s_epik_Chemistry_Notes>
This compound has an ester and may undergo hydrolysis at high or low pH. This compound contains an acetal/aminal-like group ( X-CH(R)-Y where X, Y are N, S, or O) that may be acid/base labile, releasing an aldehyde.

> <s_lp_Force_Field>
OPLS_2005

> <r_lp_Energy>
50.5402

> <b_lp_Chiralities_Consistent>
1

> <s_lp_Variant>
AV-unprocessed.smi:101-18

> <Gold.Version>
5.8.1

> <Gold.Id.Protein>
6NUR|6NUR_protein|mol2

> <Gold.PLP.Fitness>
48.9216

> <Gold.PLP.PLP>
-38.5851

> <Gold.PLP.part.hbond>
-3.9176

> <Gold.PLP.part.metal>
0.0000

> <Gold.PLP.part.buried>
-2.1970

> <Gold.PLP.part.nonpolar>
-30.9436

> <Gold.PLP.part.repulsive>
0.1126

> <Gold.PLP.ligand.clash>
0.0000

> <Gold.PLP.ligand.torsion>
0.6264

> <Gold.PLP.Chemscore.Hbond>
3.8550

> <Gold.PLP.Chemscore.CHOScore>
0.0000

> <Gold.PLP.Chemscore.Metal>
0.0000

> <Gold.Chemscore.Hbonds>
donor molecule, donor type, donor heavy atom, donor atom, acceptor molecule, acceptor atom, score
      L1  H    19    41       P1  7957  1.00
      L1  H    21    43       P1  7957  0.98
      P1  H  7989  7998       L1    19  0.86
      P1  H  7997  8008       L1    11  1.00

> <Gold.PLP.Chemscore.Internal.Correction>
0.0243

> <Gold.Rescore>
     Score         DG    S(hbond)    S(metal)    S(lipo)     H(rot)  DE(clash)    DE(int)     intcor
     18.46     -19.42       3.08        0.00     102.76       3.27       0.31       0.66       ----

> <Gold.Chemscore.Fitness>
18.4562

> <Gold.Chemscore.DG>
-19.4223

> <Gold.Chemscore.ZeroCoef>
-5.4800

> <Gold.Chemscore.Hbond>
3.0777

> <Gold.Chemscore.Metal>
0.0000

> <Gold.Chemscore.Lipo>
102.7574

> <Gold.Chemscore.Internal_Hbond>
0.0000

> <Gold.Chemscore.DEClash>
0.3074

> <Gold.Chemscore.DEInternal>
0.6587

> <Gold.Chemscore.Rot>
3.2656

> <Gold.Chemscore.Internal.Correction>
   9.000000E+99

> <Gold.Chemscore.Hbonds>
donor molecule, donor type, donor heavy atom, donor atom, acceptor molecule, acceptor atom, score
      L1  H    19    41       P1  7957  0.98
      L1  H    21    43       P1  7957  0.91
      P1  H  7989  7998       L1    19  0.09
      P1  H  7997  8008       L1    11  0.89

> <Gold.Chemscore.Hbond.Weighted>
-10.2795

> <Gold.Chemscore.Metal.Weighted>
-0.0000

> <Gold.Chemscore.Lipo.Weighted>
-12.0226

> <Gold.Chemscore.Internal_Hbond.Weighted>
0.0000

> <Gold.Chemscore.DEClash.Weighted>
0.3074

> <Gold.Chemscore.DEInternal.Weighted>
0.6587

> <Gold.Chemscore.Rot.Weighted>
8.3598

> <Gold.Chemscore.Internal.Correction.Weighted>
   9.000000E+99

> <Gold.Protein.RotatedTorsions>
[ 6907 6896 6895 6894 ] final -177.33 input  -60.11 | X-H torsion
[ 7974 7965 7964 7962 ] final  -84.71 input  175.53 | X-H torsion
[ 8008 7997 7996 7995 ] final  -76.54 input   59.86 | X-H torsion
[ 10167 10162 10161 10158 ] final  -55.53 input  -65.29 | X-H torsion
[ 10718 10713 10712 10709 ] final -172.81 input   66.30 | X-H torsion
[ 10763 10752 10751 10750 ] final  164.49 input  -60.55 | X-H torsion
[ 11005 11000 10999 10996 ] final   26.76 input  -57.11 | X-H torsion

> <Gold.Protein.ActiveResidues>
 VAL166  LYS551  ARG553  GLY616  TRP617  ASP618  TYR619  PRO620  LYS621  CYS622 
 ASP623  PHE694  ASN695  SER759  ASP760  ASP761  ALA762  ILE779  LEU786  VAL792 
 PHE793  MET794  SER795  GLU796  ALA797  LYS798  CYS799  TRP800  GLU811  SER814 

> <Gold.Protein.RotatedAtoms>
  151.6193  133.3340  159.3084 H   0  0  0  0  0  0  0  0  0  0  0  0  # atno 6907 bound_to 6896
  150.8114  134.7275  159.6703 H   0  0  0  0  0  0  0  0  0  0  0  0  # atno 6908 bound_to 6896
  152.4211  134.5958  160.0038 H   0  0  0  0  0  0  0  0  0  0  0  0  # atno 6909 bound_to 6896
  145.5029  140.9546  143.1749 H   0  0  0  0  0  0  0  0  0  0  0  0  # atno 7974 bound_to 7965
  154.5515  140.0725  156.8675 H   0  0  0  0  0  0  0  0  0  0  0  0  # atno 8008 bound_to 7997
  155.2984  140.3382  155.4230 H   0  0  0  0  0  0  0  0  0  0  0  0  # atno 8009 bound_to 7997
  156.1965  140.1705  156.7973 H   0  0  0  0  0  0  0  0  0  0  0  0  # atno 8010 bound_to 7997
  140.6369  143.2487  151.5094 H   0  0  0  0  0  0  0  0  0  0  0  0  # atno 10167 bound_to 10162
  156.7611  130.9414  151.3118 H   0  0  0  0  0  0  0  0  0  0  0  0  # atno 10718 bound_to 10713
  154.3097  135.2757  155.2572 H   0  0  0  0  0  0  0  0  0  0  0  0  # atno 10763 bound_to 10752
  154.4973  135.5817  153.6507 H   0  0  0  0  0  0  0  0  0  0  0  0  # atno 10764 bound_to 10752
  152.9889  135.6149  154.3273 H   0  0  0  0  0  0  0  0  0  0  0  0  # atno 10765 bound_to 10752
  140.3335  134.2411  155.7699 H   0  0  0  0  0  0  0  0  0  0  0  0  # atno 11005 bound_to 11000
  144.7770  139.6609  143.7171 LP  0  0  0  0  0  0  0  0  0  0  0  0  # atno 17320 bound_to 7965
  146.2214  139.5643  142.9615 LP  0  0  0  0  0  0  0  0  0  0  0  0  # atno 17321 bound_to 7965
  139.5579  144.2229  152.1643 LP  0  0  0  0  0  0  0  0  0  0  0  0  # atno 17342 bound_to 10162
  140.1488  144.5134  150.6700 LP  0  0  0  0  0  0  0  0  0  0  0  0  # atno 17343 bound_to 10162
  157.6734  130.9072  150.0093 LP  0  0  0  0  0  0  0  0  0  0  0  0  # atno 17370 bound_to 10713
  156.1338  130.3643  149.9689 LP  0  0  0  0  0  0  0  0  0  0  0  0  # atno 17371 bound_to 10713
  141.2057  133.7852  157.0217 LP  0  0  0  0  0  0  0  0  0  0  0  0  # atno 17394 bound_to 11000
  140.0841  134.9631  157.1671 LP  0  0  0  0  0  0  0  0  0  0  0  0  # atno 17395 bound_to 11000

$$$$
