AV-unprocessed.smi:37|AV-procd|sdf|319|dock3
  -GOLD-   2262016143D 1   1.00000     0.00000
 Structure written by MMmdl.
 43 44  0  0  0  0  0  0  0  0  2 V2000
  152.8875  143.1623  161.0880 C   0  0  0  0  0  0  0  0  0  0  0  0
  152.5502  144.5995  160.6684 C   0  0  0  0  0  0  0  0  0  0  0  0
  151.3860  144.6545  159.6816 C   0  0  0  0  0  0  0  0  0  0  0  0
  150.9258  145.7279  159.2917 O   0  0  0  0  0  0  0  0  0  0  0  0
  150.9522  143.4356  159.3239 O   0  0  0  0  0  0  0  0  0  0  0  0
  149.8194  143.3144  158.4801 C   0  0  0  0  0  0  0  0  0  0  0  0
  149.7396  141.8827  157.9405 C   0  0  2  0  0  0  0  0  0  0  0  0
  151.0305  141.2713  157.9726 O   0  0  0  0  0  0  0  0  0  0  0  0
  151.3541  140.7695  156.7109 C   0  0  1  0  0  0  0  0  0  0  0  0
  152.1263  139.4776  156.8452 N   0  0  0  0  0  0  0  0  0  0  0  0
  152.5047  138.9887  158.0851 C   0  0  0  0  0  0  0  0  0  0  0  0
  153.1927  137.8342  158.1993 C   0  0  0  0  0  0  0  0  0  0  0  0
  153.5423  137.3813  159.4156 F   0  0  0  0  0  0  0  0  0  0  0  0
  153.5504  137.0828  156.9974 C   0  0  0  0  0  0  0  0  0  0  0  0
  154.1805  136.0323  157.1076 O   0  0  0  0  0  0  0  0  0  0  0  0
  153.1633  137.5883  155.7903 N   0  5  0  0  0  0  0  0  0  0  0  0
  152.4651  138.7552  155.6698 C   0  0  0  0  0  0  0  0  0  0  0  0
  152.1080  139.2191  154.5865 O   0  0  0  0  0  0  0  0  0  0  0  0
  150.0307  140.5986  155.9627 C   0  0  1  0  0  0  0  0  0  0  0  0
  149.0737  138.9282  156.5102 Br  0  0  0  0  0  0  0  0  0  0  0  0
  149.2926  141.8226  156.4753 C   0  0  1  0  0  0  0  0  0  0  0  0
  147.8802  141.7083  156.3583 O   0  0  0  0  0  0  0  0  0  0  0  0
  147.3120  141.5325  155.1519 C   0  0  0  0  0  0  0  0  0  0  0  0
  147.8222  140.9585  154.1898 O   0  0  0  0  0  0  0  0  0  0  0  0
  145.9041  142.1186  155.0737 C   0  0  0  0  0  0  0  0  0  0  0  0
  145.7059  142.9894  153.8256 C   0  0  0  0  0  0  0  0  0  0  0  0
  153.7404  143.1515  161.7668 H   0  0  0  0  0  0  0  0  0  0  0  0
  153.1447  142.5471  160.2249 H   0  0  0  0  0  0  0  0  0  0  0  0
  152.0510  142.6881  161.6027 H   0  0  0  0  0  0  0  0  0  0  0  0
  152.2967  145.1951  161.5457 H   0  0  0  0  0  0  0  0  0  0  0  0
  153.4230  145.0656  160.2104 H   0  0  0  0  0  0  0  0  0  0  0  0
  148.9243  143.5418  159.0608 H   0  0  0  0  0  0  0  0  0  0  0  0
  149.8690  144.0291  157.6572 H   0  0  0  0  0  0  0  0  0  0  0  0
  149.0678  141.2792  158.5532 H   0  0  0  0  0  0  0  0  0  0  0  0
  152.0301  141.4783  156.2285 H   0  0  0  0  0  0  0  0  0  0  0  0
  152.2437  139.5252  158.9850 H   0  0  0  0  0  0  0  0  0  0  0  0
  150.1739  140.5866  154.8818 H   0  0  0  0  0  0  0  0  0  0  0  0
  149.6623  142.7104  155.9590 H   0  0  0  0  0  0  0  0  0  0  0  0
  145.1819  141.3017  155.0733 H   0  0  0  0  0  0  0  0  0  0  0  0
  145.7172  142.7056  155.9732 H   0  0  0  0  0  0  0  0  0  0  0  0
  144.6827  143.3617  153.7766 H   0  0  0  0  0  0  0  0  0  0  0  0
  145.8957  142.4239  152.9127 H   0  0  0  0  0  0  0  0  0  0  0  0
  146.3704  143.8541  153.8311 H   0  0  0  0  0  0  0  0  0  0  0  0
  1  2  1  0  0  0  0
  1 27  1  0  0  0  0
  1 28  1  0  0  0  0
  1 29  1  0  0  0  0
  2  3  1  0  0  0  0
  2 30  1  0  0  0  0
  2 31  1  0  0  0  0
  3  4  2  0  0  0  0
  3  5  1  0  0  0  0
  5  6  1  0  0  0  0
  6  7  1  0  0  0  0
  6 32  1  0  0  0  0
  6 33  1  0  0  0  0
  7 21  1  0  0  0  0
  7  8  1  0  0  0  0
  7 34  1  0  0  0  0
  8  9  1  0  0  0  0
  9 10  1  0  0  0  0
  9 19  1  0  0  0  0
  9 35  1  0  0  0  0
 10 17  1  0  0  0  0
 10 11  1  0  0  0  0
 11 12  2  0  0  0  0
 11 36  1  0  0  0  0
 12 13  1  0  0  0  0
 12 14  1  0  0  0  0
 14 15  2  0  0  0  0
 14 16  1  0  0  0  0
 16 17  1  0  0  0  0
 17 18  2  0  0  0  0
 19 20  1  0  0  0  0
 19 21  1  0  0  0  0
 19 37  1  0  0  0  0
 21 22  1  0  0  0  0
 21 38  1  0  0  0  0
 22 23  1  0  0  0  0
 23 24  2  0  0  0  0
 23 25  1  0  0  0  0
 25 26  1  0  0  0  0
 25 39  1  0  0  0  0
 25 40  1  0  0  0  0
 26 41  1  0  0  0  0
 26 42  1  0  0  0  0
 26 43  1  0  0  0  0
M  CHG  1  16  -1
M  END
> <s_m_source_file>
AV-unprocessed.smi

> <i_m_source_file_index>
37

> <i_lp_mmshare_version>
43012

> <i_f3d_flags>
0

> <s_epik_input>
W0NIM11bQ0gyXUMoPU8pT1tDSDJdW0NAQEhdMU9bQ0BASF0objJbY0hdYyhGKWMoPU8pW25IXWMyPU8pW0NAQEhdKEJyKVtDQEhdMU9DKD1PKVtDSDJdW0NIM10=

> <s_epik_cmdline>
J2VwaWtfcHl0aG9uJywgJy1waCcsICc3LjAnLCAnLXRuJywgJzgnLCAnLW1hJywgJzIwMCcsICctbWV0YWxfYmluZGluZycsICctaW1hZScsICc8aW5maWxlLm1hZT4nLCAnLW9tYWUnLCAnPG91dGZpbGUubWFlPic=

> <r_epik_Ionization_Penalty>
1.08158

> <r_epik_Ionization_Penalty_Charging>
9.05154e-09

> <r_epik_Ionization_Penalty_Neutral>
1.08158

> <r_epik_State_Penalty>
1.13706

> <r_epik_Charging_Adjusted_Penalty>
1.13706

> <i_epik_Tot_Q>
-1

> <i_epik_Tot_abs_Q>
1

> <r_epik_Metal_State_Penalty>
0.00343535

> <b_epik_Metal_Only>
0

> <s_epik_Chemistry_Notes>
This compound has an ester and may undergo hydrolysis at high or low pH. This compound contains an acetal/aminal-like group ( X-CH(R)-Y where X, Y are N, S, or O) that may be acid/base labile, releasing an aldehyde.

> <s_lp_Force_Field>
OPLS_2005

> <r_lp_Energy>
34.8687

> <b_lp_Chiralities_Consistent>
1

> <s_lp_Variant>
AV-unprocessed.smi:37-17

> <Gold.Version>
5.8.1

> <Gold.Id.Protein>
6NUR|6NUR_protein|mol2

> <Gold.PLP.Fitness>
43.5325

> <Gold.PLP.PLP>
-40.0459

> <Gold.PLP.part.hbond>
-4.9409

> <Gold.PLP.part.metal>
0.0000

> <Gold.PLP.part.buried>
-5.8591

> <Gold.PLP.part.nonpolar>
-30.0894

> <Gold.PLP.part.repulsive>
0.6290

> <Gold.PLP.ligand.clash>
0.0000

> <Gold.PLP.ligand.torsion>
1.1271

> <Gold.PLP.Chemscore.Hbond>
1.8000

> <Gold.PLP.Chemscore.CHOScore>
0.0000

> <Gold.PLP.Chemscore.Metal>
0.0000

> <Gold.Chemscore.Hbonds>
donor molecule, donor type, donor heavy atom, donor atom, acceptor molecule, acceptor atom, score
      P1  H  7989  7998       L1    18  0.85
      P1  H 10752 10763       L1    15  1.00

> <Gold.PLP.Chemscore.Internal.Correction>
0.3407

> <Gold.Rescore>
     Score         DG    S(hbond)    S(metal)    S(lipo)     H(rot)  DE(clash)    DE(int)     intcor
      6.21     -10.26       1.92        0.00      57.55       3.27       0.84       3.21       ----

> <Gold.Chemscore.Fitness>
6.2072

> <Gold.Chemscore.DG>
-10.2567

> <Gold.Chemscore.ZeroCoef>
-5.4800

> <Gold.Chemscore.Hbond>
1.9183

> <Gold.Chemscore.Metal>
0.0000

> <Gold.Chemscore.Lipo>
57.5458

> <Gold.Chemscore.Internal_Hbond>
0.0000

> <Gold.Chemscore.DEClash>
0.8441

> <Gold.Chemscore.DEInternal>
3.2054

> <Gold.Chemscore.Rot>
3.2669

> <Gold.Chemscore.Internal.Correction>
   9.000000E+99

> <Gold.Chemscore.Hbonds>
donor molecule, donor type, donor heavy atom, donor atom, acceptor molecule, acceptor atom, score
      P1  H  7989  7998       L1    18  0.79
      P1  H 10752 10763       L1    15  0.26

> <Gold.Chemscore.Hbond.Weighted>
-6.4072

> <Gold.Chemscore.Metal.Weighted>
-0.0000

> <Gold.Chemscore.Lipo.Weighted>
-6.7329

> <Gold.Chemscore.Internal_Hbond.Weighted>
0.0000

> <Gold.Chemscore.DEClash.Weighted>
0.8441

> <Gold.Chemscore.DEInternal.Weighted>
3.2054

> <Gold.Chemscore.Rot.Weighted>
8.3634

> <Gold.Chemscore.Internal.Correction.Weighted>
   9.000000E+99

> <Gold.Protein.RotatedTorsions>
[ 6907 6896 6895 6894 ] final -118.57 input  -60.11 | X-H torsion
[ 7974 7965 7964 7962 ] final  -50.04 input  175.53 | X-H torsion
[ 8008 7997 7996 7995 ] final  154.16 input   59.86 | X-H torsion
[ 10167 10162 10161 10158 ] final  -91.31 input  -65.29 | X-H torsion
[ 10718 10713 10712 10709 ] final -149.63 input   66.30 | X-H torsion
[ 10763 10752 10751 10750 ] final  140.27 input  -60.55 | X-H torsion
[ 11005 11000 10999 10996 ] final   25.59 input  -57.11 | X-H torsion

> <Gold.Protein.ActiveResidues>
 VAL166  LYS551  ARG553  GLY616  TRP617  ASP618  TYR619  PRO620  LYS621  CYS622 
 ASP623  PHE694  ASN695  SER759  ASP760  ASP761  ALA762  ILE779  LEU786  VAL792 
 PHE793  MET794  SER795  GLU796  ALA797  LYS798  CYS799  TRP800  GLU811  SER814 

> <Gold.Protein.RotatedAtoms>
  150.8231  133.8219  159.3130 H   0  0  0  0  0  0  0  0  0  0  0  0  # atno 6907 bound_to 6896
  151.5971  135.1048  160.0061 H   0  0  0  0  0  0  0  0  0  0  0  0  # atno 6908 bound_to 6896
  152.4318  133.7250  159.6611 H   0  0  0  0  0  0  0  0  0  0  0  0  # atno 6909 bound_to 6896
  145.9341  140.7723  142.9585 H   0  0  0  0  0  0  0  0  0  0  0  0  # atno 7974 bound_to 7965
  156.2545  140.1974  156.6603 H   0  0  0  0  0  0  0  0  0  0  0  0  # atno 8008 bound_to 7997
  154.6469  140.0576  156.9936 H   0  0  0  0  0  0  0  0  0  0  0  0  # atno 8009 bound_to 7997
  155.1477  140.3248  155.4441 H   0  0  0  0  0  0  0  0  0  0  0  0  # atno 8010 bound_to 7997
  140.3461  143.2916  151.9780 H   0  0  0  0  0  0  0  0  0  0  0  0  # atno 10167 bound_to 10162
  156.4357  130.8097  151.2325 H   0  0  0  0  0  0  0  0  0  0  0  0  # atno 10718 bound_to 10713
  153.9199  135.3002  155.3448 H   0  0  0  0  0  0  0  0  0  0  0  0  # atno 10763 bound_to 10752
  154.7581  135.4948  153.9415 H   0  0  0  0  0  0  0  0  0  0  0  0  # atno 10764 bound_to 10752
  153.1147  135.6768  153.9541 H   0  0  0  0  0  0  0  0  0  0  0  0  # atno 10765 bound_to 10752
  140.3462  134.2278  155.7684 H   0  0  0  0  0  0  0  0  0  0  0  0  # atno 11005 bound_to 11000
  144.6769  140.2174  143.7370 LP  0  0  0  0  0  0  0  0  0  0  0  0  # atno 17320 bound_to 7965
  145.8387  139.2120  143.1840 LP  0  0  0  0  0  0  0  0  0  0  0  0  # atno 17321 bound_to 7965
  139.4833  144.6116  151.7424 LP  0  0  0  0  0  0  0  0  0  0  0  0  # atno 17342 bound_to 10162
  140.5263  144.0800  150.6038 LP  0  0  0  0  0  0  0  0  0  0  0  0  # atno 17343 bound_to 10162
  157.7507  131.0184  150.3625 LP  0  0  0  0  0  0  0  0  0  0  0  0  # atno 17370 bound_to 10713
  156.3972  130.3909  149.6986 LP  0  0  0  0  0  0  0  0  0  0  0  0  # atno 17371 bound_to 10713
  141.2025  133.7936  157.0388 LP  0  0  0  0  0  0  0  0  0  0  0  0  # atno 17394 bound_to 11000
  140.0740  134.9686  157.1515 LP  0  0  0  0  0  0  0  0  0  0  0  0  # atno 17395 bound_to 11000

$$$$
