AV-unprocessed.smi:1867|AV-procd|sdf|7583|dock9
  -GOLD-   22720 9293D 1   1.00000     0.00000
 Structure written by MMmdl.
 52 55  0  0  0  0  0  0  0  0  4 V2000
  150.5161  136.5176  158.4896 O   0  0  0  0  0  0  0  0  0  0  0  0
  149.8514  136.6751  157.4670 C   0  0  0  0  0  0  0  0  0  0  0  0
  149.6601  137.9327  156.9966 N   0  0  0  0  0  0  0  0  0  0  0  0
  150.2046  139.1553  157.4728 C   0  0  0  0  0  0  0  0  0  0  0  0
  150.0575  140.3044  156.6688 C   0  0  0  0  0  0  0  0  0  0  0  0
  150.6029  141.5321  157.0970 C   0  0  0  0  0  0  0  0  0  0  0  0
  151.3076  141.5963  158.3224 C   0  0  0  0  0  0  0  0  0  0  0  0
  151.8727  142.7874  158.8161 N   0  0  0  0  0  0  0  0  0  0  0  0
  151.5155  144.0858  158.2675 C   0  0  0  0  0  0  0  0  0  0  0  0
  152.2214  145.0929  159.1740 C   0  0  0  0  0  0  0  0  0  0  0  0
  152.2112  144.3995  160.5366 C   0  0  0  0  0  0  0  0  0  0  0  0
  152.3082  142.9064  160.2003 C   0  0  0  0  0  0  0  0  0  0  0  0
  151.4366  140.4643  159.0546 N   0  3  0  0  0  0  0  0  0  0  0  0
  150.9282  139.2697  158.6831 C   0  0  0  0  0  0  0  0  0  0  0  0
  149.2859  135.6114  156.8199 N   0  5  0  0  0  0  0  0  0  0  0  0
  149.3185  135.2704  155.3907 C   0  0  1  0  0  0  0  0  0  0  0  0
  150.0673  133.9476  155.1360 C   0  0  0  0  0  0  0  0  0  0  0  0
  149.2979  133.2480  153.9989 C   0  0  0  0  0  0  0  0  0  0  0  0
  148.1839  134.1539  153.6586 N   0  3  1  0  0  0  0  0  0  0  0  0
  146.9628  133.5419  153.0891 C   0  0  0  0  0  0  0  0  0  0  0  0
  145.9675  134.6552  152.7037 C   0  0  0  0  0  0  0  0  0  0  0  0
  145.6877  135.6096  153.8832 C   0  0  0  0  0  0  0  0  0  0  0  0
  146.9993  136.1491  154.4877 C   0  0  0  0  0  0  0  0  0  0  0  0
  147.9138  134.9629  154.8580 C   0  0  2  0  0  0  0  0  0  0  0  0
  149.0065  138.0156  156.2320 H   0  0  0  0  0  0  0  0  0  0  0  0
  149.5217  140.2508  155.7322 H   0  0  0  0  0  0  0  0  0  0  0  0
  150.4691  142.4097  156.4822 H   0  0  0  0  0  0  0  0  0  0  0  0
  151.8319  144.1870  157.2287 H   0  0  0  0  0  0  0  0  0  0  0  0
  150.4334  144.2165  158.3155 H   0  0  0  0  0  0  0  0  0  0  0  0
  153.2505  145.2329  158.8401 H   0  0  0  0  0  0  0  0  0  0  0  0
  151.7342  146.0682  159.1859 H   0  0  0  0  0  0  0  0  0  0  0  0
  153.0140  144.7382  161.1922 H   0  0  0  0  0  0  0  0  0  0  0  0
  151.2637  144.6002  161.0385 H   0  0  0  0  0  0  0  0  0  0  0  0
  151.6944  142.3137  160.8795 H   0  0  0  0  0  0  0  0  0  0  0  0
  153.3389  142.5588  160.2764 H   0  0  0  0  0  0  0  0  0  0  0  0
  151.1312  138.4546  159.3621 H   0  0  0  0  0  0  0  0  0  0  0  0
  149.7628  136.0547  154.7749 H   0  0  0  0  0  0  0  0  0  0  0  0
  151.1097  134.1287  154.8719 H   0  0  0  0  0  0  0  0  0  0  0  0
  150.0633  133.3078  156.0203 H   0  0  0  0  0  0  0  0  0  0  0  0
  149.9228  133.0669  153.1239 H   0  0  0  0  0  0  0  0  0  0  0  0
  148.9139  132.2858  154.3428 H   0  0  0  0  0  0  0  0  0  0  0  0
  147.2246  132.9504  152.2114 H   0  0  0  0  0  0  0  0  0  0  0  0
  146.5149  132.8625  153.8160 H   0  0  0  0  0  0  0  0  0  0  0  0
  146.3741  135.2280  151.8690 H   0  0  0  0  0  0  0  0  0  0  0  0
  145.0346  134.2160  152.3490 H   0  0  0  0  0  0  0  0  0  0  0  0
  145.0573  136.4366  153.5558 H   0  0  0  0  0  0  0  0  0  0  0  0
  145.1262  135.0787  154.6530 H   0  0  0  0  0  0  0  0  0  0  0  0
  147.4857  136.8086  153.7660 H   0  0  0  0  0  0  0  0  0  0  0  0
  146.7752  136.7564  155.3667 H   0  0  0  0  0  0  0  0  0  0  0  0
  147.3948  134.3282  155.5809 H   0  0  0  0  0  0  0  0  0  0  0  0
  148.5468  134.7974  152.9703 H   0  0  0  0  0  0  0  0  0  0  0  0
  151.9489  140.5133  159.9352 H   0  0  0  0  0  0  0  0  0  0  0  0
  1  2  2  0  0  0  0
  2  3  1  0  0  0  0
  2 15  1  0  0  0  0
  3  4  1  0  0  0  0
  3 25  1  0  0  0  0
  4 14  1  0  0  0  0
  4  5  2  0  0  0  0
  5  6  1  0  0  0  0
  5 26  1  0  0  0  0
  6  7  2  0  0  0  0
  6 27  1  0  0  0  0
  7  8  1  0  0  0  0
  7 13  1  0  0  0  0
  8 12  1  0  0  0  0
  8  9  1  0  0  0  0
  9 10  1  0  0  0  0
  9 28  1  0  0  0  0
  9 29  1  0  0  0  0
 10 11  1  0  0  0  0
 10 30  1  0  0  0  0
 10 31  1  0  0  0  0
 11 12  1  0  0  0  0
 11 32  1  0  0  0  0
 11 33  1  0  0  0  0
 12 34  1  0  0  0  0
 12 35  1  0  0  0  0
 13 14  2  0  0  0  0
 13 52  1  0  0  0  0
 14 36  1  0  0  0  0
 15 16  1  0  0  0  0
 16 24  1  0  0  0  0
 16 17  1  0  0  0  0
 16 37  1  0  0  0  0
 17 18  1  0  0  0  0
 17 38  1  0  0  0  0
 17 39  1  0  0  0  0
 18 19  1  0  0  0  0
 18 40  1  0  0  0  0
 18 41  1  0  0  0  0
 19 24  1  0  0  0  0
 19 20  1  0  0  0  0
 19 51  1  0  0  0  0
 20 21  1  0  0  0  0
 20 42  1  0  0  0  0
 20 43  1  0  0  0  0
 21 22  1  0  0  0  0
 21 44  1  0  0  0  0
 21 45  1  0  0  0  0
 22 23  1  0  0  0  0
 22 46  1  0  0  0  0
 22 47  1  0  0  0  0
 23 24  1  0  0  0  0
 23 48  1  0  0  0  0
 23 49  1  0  0  0  0
 24 50  1  0  0  0  0
M  CHG  1  13   1
M  CHG  1  15  -1
M  CHG  1  19   1
M  END
> <s_m_source_file>
AV-unprocessed.smi

> <i_m_source_file_index>
1867

> <i_lp_mmshare_version>
43012

> <i_f3d_flags>
0

> <s_epik_input>
W0NIMl0xW0NIMl1bQ0gyXVtDSDJdW0NASF0oTjEyKVtDQEBIXShbQ0gyXVtDSDJdMilbTkhdQyg9TylbTkhdYzNbY0hdW2NIXWMobltjSF0zKU40W0NIMl1bQ0gyXVtDSDJdW0NIMl00

> <s_epik_cmdline>
J2VwaWtfcHl0aG9uJywgJy1waCcsICc3LjAnLCAnLXRuJywgJzgnLCAnLW1hJywgJzIwMCcsICctbWV0YWxfYmluZGluZycsICctaW1hZScsICc8aW5maWxlLm1hZT4nLCAnLW9tYWUnLCAnPG91dGZpbGUubWFlPic=

> <r_lp_tautomer_probability>
0.999994

> <r_epik_Ionization_Penalty>
8.56137

> <r_epik_Ionization_Penalty_Charging>
8.56136

> <r_epik_Ionization_Penalty_Neutral>
3.91889e-06

> <r_epik_State_Penalty>
8.16255

> <r_epik_Charging_Adjusted_Penalty>
16.7239

> <i_epik_Tot_Q>
1

> <i_epik_Tot_abs_Q>
3

> <r_epik_Metal_State_Penalty>
4.14279

> <b_epik_Metal_Only>
1

> <s_lp_Force_Field>
OPLS_2005

> <r_lp_Energy>
66.3104

> <b_lp_Chiralities_Consistent>
1

> <s_lp_Variant>
AV-unprocessed.smi:1867-24

> <Gold.Version>
5.8.1

> <Gold.Id.Protein>
6NUR|6NUR_protein|mol2

> <Gold.PLP.Fitness>
46.8295

> <Gold.PLP.PLP>
-39.1469

> <Gold.PLP.part.hbond>
-2.0000

> <Gold.PLP.part.metal>
0.0000

> <Gold.PLP.part.buried>
-5.7020

> <Gold.PLP.part.nonpolar>
-31.8666

> <Gold.PLP.part.repulsive>
0.1812

> <Gold.PLP.ligand.clash>
0.0000

> <Gold.PLP.ligand.torsion>
0.6107

> <Gold.PLP.Chemscore.Hbond>
2.8960

> <Gold.PLP.Chemscore.CHOScore>
0.0000

> <Gold.PLP.Chemscore.Metal>
0.0000

> <Gold.Chemscore.Hbonds>
donor molecule, donor type, donor heavy atom, donor atom, acceptor molecule, acceptor atom, score
      L1  H    19    51       P1  7948  2.00
      P1  H  6896  6909       L1     1  0.91

> <Gold.PLP.Chemscore.Internal.Correction>
0.2161

> <Gold.Rescore>
     Score         DG    S(hbond)    S(metal)    S(lipo)     H(rot)  DE(clash)    DE(int)     intcor
     17.82     -19.78       1.89        0.00      90.31       1.00       0.01       1.95       ----

> <Gold.Chemscore.Fitness>
17.8189

> <Gold.Chemscore.DG>
-19.7834

> <Gold.Chemscore.ZeroCoef>
-5.4800

> <Gold.Chemscore.Hbond>
1.8855

> <Gold.Chemscore.Metal>
0.0000

> <Gold.Chemscore.Lipo>
90.3058

> <Gold.Chemscore.Internal_Hbond>
0.0000

> <Gold.Chemscore.DEClash>
0.0128

> <Gold.Chemscore.DEInternal>
1.9517

> <Gold.Chemscore.Rot>
1.0000

> <Gold.Chemscore.Internal.Correction>
   9.000000E+99

> <Gold.Chemscore.Hbonds>
donor molecule, donor type, donor heavy atom, donor atom, acceptor molecule, acceptor atom, score
      L1  H    19    51       P1  7948  0.40
      P1  H  6896  6909       L1     1  0.83

> <Gold.Chemscore.Hbond.Weighted>
-6.2976

> <Gold.Chemscore.Metal.Weighted>
-0.0000

> <Gold.Chemscore.Lipo.Weighted>
-10.5658

> <Gold.Chemscore.Internal_Hbond.Weighted>
0.0000

> <Gold.Chemscore.DEClash.Weighted>
0.0128

> <Gold.Chemscore.DEInternal.Weighted>
1.9517

> <Gold.Chemscore.Rot.Weighted>
2.5600

> <Gold.Chemscore.Internal.Correction.Weighted>
   9.000000E+99

> <Gold.Protein.RotatedTorsions>
[ 6907 6896 6895 6894 ] final   77.98 input  -60.11 | X-H torsion
[ 7974 7965 7964 7962 ] final   54.30 input  175.53 | X-H torsion
[ 8008 7997 7996 7995 ] final  152.83 input   59.86 | X-H torsion
[ 10167 10162 10161 10158 ] final  -24.57 input  -65.29 | X-H torsion
[ 10718 10713 10712 10709 ] final   56.47 input   66.30 | X-H torsion
[ 10763 10752 10751 10750 ] final   99.89 input  -60.55 | X-H torsion
[ 11005 11000 10999 10996 ] final -132.63 input  -57.11 | X-H torsion

> <Gold.Protein.ActiveResidues>
 VAL166  LYS551  ARG553  GLY616  TRP617  ASP618  TYR619  PRO620  LYS621  CYS622 
 ASP623  PHE694  ASN695  SER759  ASP760  ASP761  ALA762  ILE779  LEU786  VAL792 
 PHE793  MET794  SER795  GLU796  ALA797  LYS798  CYS799  TRP800  GLU811  SER814 

> <Gold.Protein.RotatedAtoms>
  152.5140  134.3734  159.9325 H   0  0  0  0  0  0  0  0  0  0  0  0  # atno 6907 bound_to 6896
  151.3689  133.3856  159.2705 H   0  0  0  0  0  0  0  0  0  0  0  0  # atno 6908 bound_to 6896
  150.9593  134.9003  159.7779 H   0  0  0  0  0  0  0  0  0  0  0  0  # atno 6909 bound_to 6896
  145.9623  139.4070  143.0241 H   0  0  0  0  0  0  0  0  0  0  0  0  # atno 7974 bound_to 7965
  156.2611  140.2010  156.6394 H   0  0  0  0  0  0  0  0  0  0  0  0  # atno 8008 bound_to 7997
  154.6621  140.0559  157.0098 H   0  0  0  0  0  0  0  0  0  0  0  0  # atno 8009 bound_to 7997
  155.1261  140.3229  155.4488 H   0  0  0  0  0  0  0  0  0  0  0  0  # atno 8010 bound_to 7997
  140.7288  143.4341  151.0756 H   0  0  0  0  0  0  0  0  0  0  0  0  # atno 10167 bound_to 10162
  157.5433  130.8713  149.8855 H   0  0  0  0  0  0  0  0  0  0  0  0  # atno 10718 bound_to 10713
  153.3071  135.4098  155.1303 H   0  0  0  0  0  0  0  0  0  0  0  0  # atno 10763 bound_to 10752
  154.8565  135.3555  154.5774 H   0  0  0  0  0  0  0  0  0  0  0  0  # atno 10764 bound_to 10752
  153.6201  135.7065  153.5372 H   0  0  0  0  0  0  0  0  0  0  0  0  # atno 10765 bound_to 10752
  140.9153  134.1515  157.4357 H   0  0  0  0  0  0  0  0  0  0  0  0  # atno 11005 bound_to 11000
  145.8023  140.9765  143.0992 LP  0  0  0  0  0  0  0  0  0  0  0  0  # atno 17320 bound_to 7965
  144.6818  139.9817  143.7483 LP  0  0  0  0  0  0  0  0  0  0  0  0  # atno 17321 bound_to 7965
  139.8001  143.8095  152.3162 LP  0  0  0  0  0  0  0  0  0  0  0  0  # atno 17342 bound_to 10162
  139.8109  144.7336  150.9698 LP  0  0  0  0  0  0  0  0  0  0  0  0  # atno 17343 bound_to 10162
  156.0515  130.3717  150.1190 LP  0  0  0  0  0  0  0  0  0  0  0  0  # atno 17370 bound_to 10713
  156.9369  130.9732  151.3523 LP  0  0  0  0  0  0  0  0  0  0  0  0  # atno 17371 bound_to 10713
  139.8765  134.9951  156.5728 LP  0  0  0  0  0  0  0  0  0  0  0  0  # atno 17394 bound_to 11000
  140.8058  133.8469  155.8766 LP  0  0  0  0  0  0  0  0  0  0  0  0  # atno 17395 bound_to 11000

$$$$
