AV-unprocessed.smi:2442|AV-procd|sdf|9624|dock4
  -GOLD-   2272013253D 1   1.00000     0.00000
 Structure written by MMmdl.
 46 47  0  0  0  0  0  0  0  0  1 V2000
  145.5300  136.7230  152.0384 C   0  0  0  0  0  0  0  0  0  0  0  0
  145.2927  135.5777  151.2350 O   0  0  0  0  0  0  0  0  0  0  0  0
  144.9317  134.4115  151.9695 C   0  0  1  0  0  0  0  0  0  0  0  0
  143.7606  133.6753  151.2842 C   0  0  0  0  0  0  0  0  0  0  0  0
  144.1625  133.1119  149.9111 C   0  0  0  0  0  0  0  0  0  0  0  0
  145.3918  132.1976  150.0230 C   0  0  0  0  0  0  0  0  0  0  0  0
  146.5678  132.9264  150.6919 C   0  0  0  0  0  0  0  0  0  0  0  0
  146.1710  133.4899  152.0704 C   0  0  1  0  0  0  0  0  0  0  0  0
  147.3067  134.1903  152.6651 N   0  0  0  0  0  0  0  0  0  0  0  0
  147.5641  134.2711  153.9776 C   0  0  0  0  0  0  0  0  0  0  0  0
  146.8715  133.7475  154.8510 O   0  0  0  0  0  0  0  0  0  0  0  0
  148.6610  134.9998  154.2266 N   0  0  0  0  0  0  0  0  0  0  0  0
  149.1748  135.2918  155.5593 C   0  0  0  0  0  0  0  0  0  0  0  0
  150.6443  135.7413  155.5067 C   0  0  0  0  0  0  0  0  0  0  0  0
  150.7779  137.2374  155.2716 C   0  0  0  0  0  0  0  0  0  0  0  0
  149.8928  137.8836  154.3832 C   0  0  0  0  0  0  0  0  0  0  0  0
  150.0347  139.2693  154.1739 C   0  0  0  0  0  0  0  0  0  0  0  0
  150.9785  140.0175  154.7817 N   0  0  0  0  0  0  0  0  0  0  0  0
  151.8252  139.3967  155.6297 C   0  0  0  0  0  0  0  0  0  0  0  0
  151.7751  138.0142  155.9120 C   0  0  0  0  0  0  0  0  0  0  0  0
  152.7735  137.4049  156.8805 C   0  0  0  0  0  0  0  0  0  0  0  0
  145.8139  137.5597  151.4004 H   0  0  0  0  0  0  0  0  0  0  0  0
  146.3459  136.5489  152.7410 H   0  0  0  0  0  0  0  0  0  0  0  0
  144.6425  137.0182  152.5976 H   0  0  0  0  0  0  0  0  0  0  0  0
  144.6281  134.6958  152.9786 H   0  0  0  0  0  0  0  0  0  0  0  0
  143.4360  132.8536  151.9238 H   0  0  0  0  0  0  0  0  0  0  0  0
  142.8959  134.3296  151.1797 H   0  0  0  0  0  0  0  0  0  0  0  0
  143.3278  132.5598  149.4785 H   0  0  0  0  0  0  0  0  0  0  0  0
  144.3772  133.9332  149.2261 H   0  0  0  0  0  0  0  0  0  0  0  0
  145.1355  131.3094  150.6019 H   0  0  0  0  0  0  0  0  0  0  0  0
  145.6858  131.8475  149.0330 H   0  0  0  0  0  0  0  0  0  0  0  0
  147.4092  132.2405  150.7960 H   0  0  0  0  0  0  0  0  0  0  0  0
  146.9079  133.7349  150.0433 H   0  0  0  0  0  0  0  0  0  0  0  0
  145.9196  132.6438  152.7131 H   0  0  0  0  0  0  0  0  0  0  0  0
  147.9319  134.6611  152.0275 H   0  0  0  0  0  0  0  0  0  0  0  0
  149.1648  135.3912  153.4441 H   0  0  0  0  0  0  0  0  0  0  0  0
  148.5557  136.0534  156.0363 H   0  0  0  0  0  0  0  0  0  0  0  0
  149.0813  134.3932  156.1696 H   0  0  0  0  0  0  0  0  0  0  0  0
  151.1392  135.4868  156.4450 H   0  0  0  0  0  0  0  0  0  0  0  0
  151.1850  135.1965  154.7330 H   0  0  0  0  0  0  0  0  0  0  0  0
  149.1205  137.3305  153.8691 H   0  0  0  0  0  0  0  0  0  0  0  0
  149.3721  139.7909  153.4991 H   0  0  0  0  0  0  0  0  0  0  0  0
  152.5679  140.0263  156.0975 H   0  0  0  0  0  0  0  0  0  0  0  0
  153.5404  138.1268  157.1628 H   0  0  0  0  0  0  0  0  0  0  0  0
  153.2738  136.5458  156.4337 H   0  0  0  0  0  0  0  0  0  0  0  0
  152.2685  137.0778  157.7896 H   0  0  0  0  0  0  0  0  0  0  0  0
  1  2  1  0  0  0  0
  1 22  1  0  0  0  0
  1 23  1  0  0  0  0
  1 24  1  0  0  0  0
  2  3  1  0  0  0  0
  3  8  1  0  0  0  0
  3  4  1  0  0  0  0
  3 25  1  0  0  0  0
  4  5  1  0  0  0  0
  4 26  1  0  0  0  0
  4 27  1  0  0  0  0
  5  6  1  0  0  0  0
  5 28  1  0  0  0  0
  5 29  1  0  0  0  0
  6  7  1  0  0  0  0
  6 30  1  0  0  0  0
  6 31  1  0  0  0  0
  7  8  1  0  0  0  0
  7 32  1  0  0  0  0
  7 33  1  0  0  0  0
  8  9  1  0  0  0  0
  8 34  1  0  0  0  0
  9 10  1  0  0  0  0
  9 35  1  0  0  0  0
 10 11  2  0  0  0  0
 10 12  1  0  0  0  0
 12 13  1  0  0  0  0
 12 36  1  0  0  0  0
 13 14  1  0  0  0  0
 13 37  1  0  0  0  0
 13 38  1  0  0  0  0
 14 15  1  0  0  0  0
 14 39  1  0  0  0  0
 14 40  1  0  0  0  0
 15 20  1  0  0  0  0
 15 16  2  0  0  0  0
 16 17  1  0  0  0  0
 16 41  1  0  0  0  0
 17 18  2  0  0  0  0
 17 42  1  0  0  0  0
 18 19  1  0  0  0  0
 19 20  2  0  0  0  0
 19 43  1  0  0  0  0
 20 21  1  0  0  0  0
 21 44  1  0  0  0  0
 21 45  1  0  0  0  0
 21 46  1  0  0  0  0
M  END
> <s_m_source_file>
AV-unprocessed.smi

> <i_m_source_file_index>
2442

> <i_lp_mmshare_version>
43012

> <i_f3d_flags>
0

> <s_epik_input>
W0NIM11PW0NAQEhdMVtDSDJdW0NIMl1bQ0gyXVtDSDJdW0NASF0xW05IXUMoPU8pW05IXVtDSDJdW0NIMl1jMltjSF1bY0hdbltjSF1jMltDSDNd

> <s_epik_cmdline>
J2VwaWtfcHl0aG9uJywgJy1waCcsICc3LjAnLCAnLXRuJywgJzgnLCAnLW1hJywgJzIwMCcsICctbWV0YWxfYmluZGluZycsICctaW1hZScsICc8aW5maWxlLm1hZT4nLCAnLW9tYWUnLCAnPG91dGZpbGUubWFlPic=

> <r_epik_Ionization_Penalty>
0.106136

> <r_epik_Ionization_Penalty_Charging>
0

> <r_epik_Ionization_Penalty_Neutral>
0.106136

> <r_epik_State_Penalty>
0.0959393

> <r_epik_Charging_Adjusted_Penalty>
0.0959393

> <i_epik_Tot_Q>
0

> <i_epik_Tot_abs_Q>
0

> <r_epik_Metal_State_Penalty>
0.0812517

> <b_epik_Metal_Only>
0

> <s_lp_Force_Field>
OPLS_2005

> <r_lp_Energy>
9.97505

> <b_lp_Chiralities_Consistent>
1

> <s_lp_Variant>
AV-unprocessed.smi:2442-2

> <Gold.Version>
5.8.1

> <Gold.Id.Protein>
6NUR|6NUR_protein|mol2

> <Gold.PLP.Fitness>
42.0983

> <Gold.PLP.PLP>
-34.0887

> <Gold.PLP.part.hbond>
-3.0000

> <Gold.PLP.part.metal>
0.0000

> <Gold.PLP.part.buried>
-2.7281

> <Gold.PLP.part.nonpolar>
-28.9396

> <Gold.PLP.part.repulsive>
0.3402

> <Gold.PLP.ligand.clash>
0.0000

> <Gold.PLP.ligand.torsion>
1.5657

> <Gold.PLP.Chemscore.Hbond>
2.6960

> <Gold.PLP.Chemscore.CHOScore>
0.9989

> <Gold.PLP.Chemscore.Metal>
0.0000

> <Gold.Chemscore.Hbonds>
donor molecule, donor type, donor heavy atom, donor atom, acceptor molecule, acceptor atom, score
      L1  H     9    35       P1  7948  0.86
      L1  H    12    36       P1  7948  0.90
      P1  H  7989  7998       L1    18  1.00
      L1  C    17    42       P1  7957  0.94

> <Gold.PLP.Chemscore.Internal.Correction>
0.0564

> <Gold.Rescore>
     Score         DG    S(hbond)    S(metal)    S(lipo)     H(rot)  DE(clash)    DE(int)     intcor
     15.85     -17.50       1.70        0.00      89.95       1.64       0.12       1.52       ----

> <Gold.Chemscore.Fitness>
15.8542

> <Gold.Chemscore.DG>
-17.4983

> <Gold.Chemscore.ZeroCoef>
-5.4800

> <Gold.Chemscore.Hbond>
1.7030

> <Gold.Chemscore.Metal>
0.0000

> <Gold.Chemscore.Lipo>
89.9453

> <Gold.Chemscore.Internal_Hbond>
0.0000

> <Gold.Chemscore.DEClash>
0.1229

> <Gold.Chemscore.DEInternal>
1.5212

> <Gold.Chemscore.Rot>
1.6380

> <Gold.Chemscore.Internal.Correction>
   9.000000E+99

> <Gold.Chemscore.Hbonds>
donor molecule, donor type, donor heavy atom, donor atom, acceptor molecule, acceptor atom, score
      L1  H     9    35       P1  7948  0.25
      L1  H    12    36       P1  7948  0.35
      P1  H  7989  7998       L1    18  0.33

> <Gold.Chemscore.Hbond.Weighted>
-5.6881

> <Gold.Chemscore.Metal.Weighted>
-0.0000

> <Gold.Chemscore.Lipo.Weighted>
-10.5236

> <Gold.Chemscore.Internal_Hbond.Weighted>
0.0000

> <Gold.Chemscore.DEClash.Weighted>
0.1229

> <Gold.Chemscore.DEInternal.Weighted>
1.5212

> <Gold.Chemscore.Rot.Weighted>
4.1934

> <Gold.Chemscore.Internal.Correction.Weighted>
   9.000000E+99

> <Gold.Protein.RotatedTorsions>
[ 6907 6896 6895 6894 ] final   33.40 input  -60.11 | X-H torsion
[ 7974 7965 7964 7962 ] final -110.34 input  175.53 | X-H torsion
[ 8008 7997 7996 7995 ] final  168.25 input   59.86 | X-H torsion
[ 10167 10162 10161 10158 ] final  -48.29 input  -65.29 | X-H torsion
[ 10718 10713 10712 10709 ] final  166.71 input   66.30 | X-H torsion
[ 10763 10752 10751 10750 ] final    8.32 input  -60.55 | X-H torsion
[ 11005 11000 10999 10996 ] final  -45.64 input  -57.11 | X-H torsion

> <Gold.Protein.ActiveResidues>
 VAL166  LYS551  ARG553  GLY616  TRP617  ASP618  TYR619  PRO620  LYS621  CYS622 
 ASP623  PHE694  ASN695  SER759  ASP760  ASP761  ALA762  ILE779  LEU786  VAL792 
 PHE793  MET794  SER795  GLU796  ALA797  LYS798  CYS799  TRP800  GLU811  SER814 

> <Gold.Protein.RotatedAtoms>
  152.0880  134.9427  160.0572 H   0  0  0  0  0  0  0  0  0  0  0  0  # atno 6907 bound_to 6896
  152.0689  133.4092  159.4459 H   0  0  0  0  0  0  0  0  0  0  0  0  # atno 6908 bound_to 6896
  150.6836  134.3034  159.4759 H   0  0  0  0  0  0  0  0  0  0  0  0  # atno 6909 bound_to 6896
  145.1694  140.8918  143.3544 H   0  0  0  0  0  0  0  0  0  0  0  0  # atno 7974 bound_to 7965
  156.1563  140.1595  156.8687 H   0  0  0  0  0  0  0  0  0  0  0  0  # atno 8008 bound_to 7997
  154.5118  140.0799  156.8041 H   0  0  0  0  0  0  0  0  0  0  0  0  # atno 8009 bound_to 7997
  155.3796  140.3404  155.4248 H   0  0  0  0  0  0  0  0  0  0  0  0  # atno 8010 bound_to 7997
  140.6737  143.2746  151.4049 H   0  0  0  0  0  0  0  0  0  0  0  0  # atno 10167 bound_to 10162
  157.0620  131.0342  151.2643 H   0  0  0  0  0  0  0  0  0  0  0  0  # atno 10718 bound_to 10713
  153.2264  135.6887  153.7940 H   0  0  0  0  0  0  0  0  0  0  0  0  # atno 10763 bound_to 10752
  153.7121  135.3280  155.3249 H   0  0  0  0  0  0  0  0  0  0  0  0  # atno 10764 bound_to 10752
  154.8293  135.4593  154.1132 H   0  0  0  0  0  0  0  0  0  0  0  0  # atno 10765 bound_to 10752
  141.0528  133.6736  156.3042 H   0  0  0  0  0  0  0  0  0  0  0  0  # atno 11005 bound_to 11000
  145.0248  139.3392  143.6054 LP  0  0  0  0  0  0  0  0  0  0  0  0  # atno 17320 bound_to 7965
  146.3471  139.9563  142.8723 LP  0  0  0  0  0  0  0  0  0  0  0  0  # atno 17321 bound_to 7965
  139.6019  144.1278  152.2207 LP  0  0  0  0  0  0  0  0  0  0  0  0  # atno 17342 bound_to 10162
  140.0665  144.5814  150.7224 LP  0  0  0  0  0  0  0  0  0  0  0  0  # atno 17343 bound_to 10162
  157.4947  130.7843  149.7543 LP  0  0  0  0  0  0  0  0  0  0  0  0  # atno 17370 bound_to 10713
  155.9975  130.3899  150.2736 LP  0  0  0  0  0  0  0  0  0  0  0  0  # atno 17371 bound_to 10713
  140.6022  134.5544  157.5519 LP  0  0  0  0  0  0  0  0  0  0  0  0  # atno 17394 bound_to 11000
  139.9365  134.7866  156.0790 LP  0  0  0  0  0  0  0  0  0  0  0  0  # atno 17395 bound_to 11000

$$$$
