AV-unprocessed.smi:285|AV-procd|sdf|2167|dock8
  -GOLD-   2262021523D 1   1.00000     0.00000
 Structure written by MMmdl.
 31 33  0  0  0  0  0  0  0  0  1 V2000
  153.9195  136.8473  162.0328 N   0  0  0  0  0  0  0  0  0  0  0  0
  153.9071  137.7959  161.0865 C   0  0  0  0  0  0  0  0  0  0  0  0
  154.9087  138.7062  161.0752 N   0  0  0  0  0  0  0  0  0  0  0  0
  154.9213  139.6607  160.1391 C   0  0  0  0  0  0  0  0  0  0  0  0
  154.0489  139.8726  159.1503 N   0  0  0  0  0  0  0  0  0  0  0  0
  153.0366  138.9559  159.1637 C   0  0  0  0  0  0  0  0  0  0  0  0
  152.8953  137.8881  160.0977 C   0  0  0  0  0  0  0  0  0  0  0  0
  151.7534  137.1492  159.8140 N   0  0  0  0  0  0  0  0  0  0  0  0
  151.2677  137.7613  158.7703 C   0  0  0  0  0  0  0  0  0  0  0  0
  149.6723  137.1326  157.9410 Br  0  0  0  0  0  0  0  0  0  0  0  0
  151.9612  138.8546  158.3027 N   0  0  0  0  0  0  0  0  0  0  0  0
  151.6503  139.7392  157.1381 C   0  0  2  0  0  0  0  0  0  0  0  0
  151.1901  141.1156  157.6092 C   0  0  0  0  0  0  0  0  0  0  0  0
  150.2464  141.4941  156.4895 C   0  0  2  0  0  0  0  0  0  0  0  0
  149.3260  142.4745  156.9227 O   0  0  0  0  0  0  0  0  0  0  0  0
  149.5774  140.1469  156.1883 C   0  0  1  0  0  0  0  0  0  0  0  0
  149.0373  140.0020  154.7573 C   0  0  0  0  0  0  0  0  0  0  0  0
  150.0953  140.0349  153.8228 O   0  0  0  0  0  0  0  0  0  0  0  0
  150.6008  139.1763  156.4095 O   0  0  0  0  0  0  0  0  0  0  0  0
  153.1836  136.1562  162.0610 H   0  0  0  0  0  0  0  0  0  0  0  0
  154.6660  136.8223  162.7121 H   0  0  0  0  0  0  0  0  0  0  0  0
  155.7487  140.3532  160.1884 H   0  0  0  0  0  0  0  0  0  0  0  0
  152.5506  139.7677  156.5250 H   0  0  0  0  0  0  0  0  0  0  0  0
  150.6560  141.0258  158.5571 H   0  0  0  0  0  0  0  0  0  0  0  0
  152.0326  141.7964  157.7331 H   0  0  0  0  0  0  0  0  0  0  0  0
  150.8085  141.8535  155.6263 H   0  0  0  0  0  0  0  0  0  0  0  0
  149.5396  143.2922  156.4989 H   0  0  0  0  0  0  0  0  0  0  0  0
  148.7870  139.9484  156.9148 H   0  0  0  0  0  0  0  0  0  0  0  0
  148.4739  139.0756  154.6428 H   0  0  0  0  0  0  0  0  0  0  0  0
  148.3572  140.8234  154.5305 H   0  0  0  0  0  0  0  0  0  0  0  0
  149.7294  139.9823  152.9530 H   0  0  0  0  0  0  0  0  0  0  0  0
  1  2  1  0  0  0  0
  1 20  1  0  0  0  0
  1 21  1  0  0  0  0
  2  7  1  0  0  0  0
  2  3  2  0  0  0  0
  3  4  1  0  0  0  0
  4  5  2  0  0  0  0
  4 22  1  0  0  0  0
  5  6  1  0  0  0  0
  6 11  1  0  0  0  0
  6  7  2  0  0  0  0
  7  8  1  0  0  0  0
  8  9  2  0  0  0  0
  9 10  1  0  0  0  0
  9 11  1  0  0  0  0
 11 12  1  0  0  0  0
 12 19  1  0  0  0  0
 12 13  1  0  0  0  0
 12 23  1  0  0  0  0
 13 14  1  0  0  0  0
 13 24  1  0  0  0  0
 13 25  1  0  0  0  0
 14 15  1  0  0  0  0
 14 16  1  0  0  0  0
 14 26  1  0  0  0  0
 15 27  1  0  0  0  0
 16 17  1  0  0  0  0
 16 19  1  0  0  0  0
 16 28  1  0  0  0  0
 17 18  1  0  0  0  0
 17 29  1  0  0  0  0
 17 30  1  0  0  0  0
 18 31  1  0  0  0  0
M  END
> <s_m_source_file>
AV-unprocessed.smi

> <i_m_source_file_index>
285

> <i_lp_mmshare_version>
43012

> <i_f3d_flags>
0

> <s_epik_input>
bjFbY0hdbmMoW05IMl0pYyhjMTIpbmMoQnIpbjJbQ0BASF0zW0NIMl1bQ0BASF0oW09IXSlbQ0BIXShPMylbQ0gyXVtPSF0=

> <s_epik_cmdline>
J2VwaWtfcHl0aG9uJywgJy1waCcsICc3LjAnLCAnLXRuJywgJzgnLCAnLW1hJywgJzIwMCcsICctbWV0YWxfYmluZGluZycsICctaW1hZScsICc8aW5maWxlLm1hZT4nLCAnLW9tYWUnLCAnPG91dGZpbGUubWFlPic=

> <r_lp_tautomer_probability>
1

> <r_epik_Ionization_Penalty>
0.000103242

> <r_epik_Ionization_Penalty_Charging>
0

> <r_epik_Ionization_Penalty_Neutral>
0.000103242

> <r_epik_State_Penalty>
-0

> <r_epik_Charging_Adjusted_Penalty>
0

> <i_epik_Tot_Q>
0

> <i_epik_Tot_abs_Q>
0

> <r_epik_Metal_State_Penalty>
-0

> <b_epik_Metal_Only>
0

> <s_epik_Chemistry_Notes>
This compound contains an acetal/aminal-like group ( X-CH(R)-Y where X, Y are N, S, or O) that may be acid/base labile, releasing an aldehyde.

> <s_lp_Force_Field>
OPLS_2005

> <r_lp_Energy>
29.9109

> <b_lp_Chiralities_Consistent>
1

> <s_lp_Variant>
AV-unprocessed.smi:285-3

> <Gold.Version>
5.8.1

> <Gold.Id.Protein>
6NUR|6NUR_protein|mol2

> <Gold.PLP.Fitness>
39.5532

> <Gold.PLP.PLP>
-25.3519

> <Gold.PLP.part.hbond>
-4.9860

> <Gold.PLP.part.metal>
0.0000

> <Gold.PLP.part.buried>
-5.1947

> <Gold.PLP.part.nonpolar>
-15.5936

> <Gold.PLP.part.repulsive>
0.0348

> <Gold.PLP.ligand.clash>
0.0000

> <Gold.PLP.ligand.torsion>
0.2095

> <Gold.PLP.Chemscore.Hbond>
4.8712

> <Gold.PLP.Chemscore.CHOScore>
0.0000

> <Gold.PLP.Chemscore.Metal>
0.0000

> <Gold.Chemscore.Hbonds>
donor molecule, donor type, donor heavy atom, donor atom, acceptor molecule, acceptor atom, score
      L1  H    15    27       P1  8028  0.91
      L1  H    18    31       P1  7957  1.00
      P1  H  6896  6907       L1     8  1.00
      P1  H  7989  7998       L1    18  0.85
      P1  H  7997  8010       L1     5  0.88

> <Gold.PLP.Chemscore.Internal.Correction>
0.0066

> <Gold.Rescore>
     Score         DG    S(hbond)    S(metal)    S(lipo)     H(rot)  DE(clash)    DE(int)     intcor
     13.17     -14.88       4.15        0.00      28.86       3.06       0.04       1.68       ----

> <Gold.Chemscore.Fitness>
13.1659

> <Gold.Chemscore.DG>
-14.8846

> <Gold.Chemscore.ZeroCoef>
-5.4800

> <Gold.Chemscore.Hbond>
4.1506

> <Gold.Chemscore.Metal>
0.0000

> <Gold.Chemscore.Lipo>
28.8626

> <Gold.Chemscore.Internal_Hbond>
0.0000

> <Gold.Chemscore.DEClash>
0.0354

> <Gold.Chemscore.DEInternal>
1.6834

> <Gold.Chemscore.Rot>
3.0607

> <Gold.Chemscore.Internal.Correction>
   9.000000E+99

> <Gold.Chemscore.Hbonds>
donor molecule, donor type, donor heavy atom, donor atom, acceptor molecule, acceptor atom, score
      L1  H    15    27       P1  8028  0.88
      L1  H    18    31       P1  7957  1.00
      P1  H  6896  6907       L1     8  0.94
      P1  H  7989  7998       L1    18  0.21
      P1  H  7997  8010       L1     5  0.58

> <Gold.Chemscore.Hbond.Weighted>
-13.8631

> <Gold.Chemscore.Metal.Weighted>
-0.0000

> <Gold.Chemscore.Lipo.Weighted>
-3.3769

> <Gold.Chemscore.Internal_Hbond.Weighted>
0.0000

> <Gold.Chemscore.DEClash.Weighted>
0.0354

> <Gold.Chemscore.DEInternal.Weighted>
1.6834

> <Gold.Chemscore.Rot.Weighted>
7.8354

> <Gold.Chemscore.Internal.Correction.Weighted>
   9.000000E+99

> <Gold.Protein.RotatedTorsions>
[ 6907 6896 6895 6894 ] final    9.33 input  -60.11 | X-H torsion
[ 7974 7965 7964 7962 ] final -121.06 input  175.53 | X-H torsion
[ 8008 7997 7996 7995 ] final   16.03 input   59.86 | X-H torsion
[ 10167 10162 10161 10158 ] final  -25.16 input  -65.29 | X-H torsion
[ 10718 10713 10712 10709 ] final  136.09 input   66.30 | X-H torsion
[ 10763 10752 10751 10750 ] final   41.82 input  -60.55 | X-H torsion
[ 11005 11000 10999 10996 ] final   13.39 input  -57.11 | X-H torsion

> <Gold.Protein.ActiveResidues>
 VAL166  LYS551  ARG553  GLY616  TRP617  ASP618  TYR619  PRO620  LYS621  CYS622 
 ASP623  PHE694  ASN695  SER759  ASP760  ASP761  ALA762  ILE779  LEU786  VAL792 
 PHE793  MET794  SER795  GLU796  ALA797  LYS798  CYS799  TRP800  GLU811  SER814 

> <Gold.Protein.RotatedAtoms>
  151.7205  135.0895  160.0283 H   0  0  0  0  0  0  0  0  0  0  0  0  # atno 6907 bound_to 6896
  152.3605  133.6286  159.6020 H   0  0  0  0  0  0  0  0  0  0  0  0  # atno 6908 bound_to 6896
  150.7601  133.9348  159.3479 H   0  0  0  0  0  0  0  0  0  0  0  0  # atno 6909 bound_to 6896
  145.0445  140.8170  143.4246 H   0  0  0  0  0  0  0  0  0  0  0  0  # atno 7974 bound_to 7965
  154.8711  140.2959  155.5480 H   0  0  0  0  0  0  0  0  0  0  0  0  # atno 8008 bound_to 7997
  156.3021  140.2460  156.3633 H   0  0  0  0  0  0  0  0  0  0  0  0  # atno 8009 bound_to 7997
  154.8816  140.0397  157.1774 H   0  0  0  0  0  0  0  0  0  0  0  0  # atno 8010 bound_to 7997
  140.7287  143.4289  151.0833 H   0  0  0  0  0  0  0  0  0  0  0  0  # atno 10167 bound_to 10162
  157.4503  131.1065  151.0041 H   0  0  0  0  0  0  0  0  0  0  0  0  # atno 10718 bound_to 10713
  152.9898  135.6150  154.2849 H   0  0  0  0  0  0  0  0  0  0  0  0  # atno 10763 bound_to 10752
  154.2577  135.2783  155.2793 H   0  0  0  0  0  0  0  0  0  0  0  0  # atno 10764 bound_to 10752
  154.5233  135.5808  153.6756 H   0  0  0  0  0  0  0  0  0  0  0  0  # atno 10765 bound_to 10752
  140.4812  134.0933  155.7751 H   0  0  0  0  0  0  0  0  0  0  0  0  # atno 11005 bound_to 11000
  145.1606  139.2461  143.5394 LP  0  0  0  0  0  0  0  0  0  0  0  0  # atno 17320 bound_to 7965
  146.3512  140.1331  142.8596 LP  0  0  0  0  0  0  0  0  0  0  0  0  # atno 17321 bound_to 7965
  139.7943  143.8173  152.3155 LP  0  0  0  0  0  0  0  0  0  0  0  0  # atno 17342 bound_to 10162
  139.8168  144.7313  150.9624 LP  0  0  0  0  0  0  0  0  0  0  0  0  # atno 17343 bound_to 10162
  157.0873  130.5927  149.5432 LP  0  0  0  0  0  0  0  0  0  0  0  0  # atno 17370 bound_to 10713
  155.9984  130.5058  150.7571 LP  0  0  0  0  0  0  0  0  0  0  0  0  # atno 17371 bound_to 10713
  141.1530  133.8934  157.2050 LP  0  0  0  0  0  0  0  0  0  0  0  0  # atno 17394 bound_to 11000
  139.9825  135.0093  156.9784 LP  0  0  0  0  0  0  0  0  0  0  0  0  # atno 17395 bound_to 11000

$$$$
