AV-unprocessed.smi:1560|AV-procd|sdf|6282|dock2
  -GOLD-   22720 6483D 1   1.00000     0.00000
 Structure written by MMmdl.
 47 48  0  0  0  0  0  0  0  0  3 V2000
  149.7147  132.4537  155.0618 C   0  0  0  0  0  0  0  0  0  0  0  0
  148.7572  132.9549  153.9659 C   0  0  0  0  0  0  0  0  0  0  0  0
  147.8532  134.1634  154.3610 C   0  0  2  0  0  0  0  0  0  0  0  0
  148.7845  135.2615  154.9411 C   0  0  0  0  0  0  0  0  0  0  0  0
  146.8353  133.7037  155.4529 C   0  0  0  0  0  0  0  0  0  0  0  0
  147.4468  133.5038  156.7648 N   0  0  0  0  0  0  0  0  0  0  0  0
  147.1717  134.2090  157.8720 C   0  0  0  0  0  0  0  0  0  0  0  0
  146.2988  135.0756  157.9270 O   0  0  0  0  0  0  0  0  0  0  0  0
  148.0183  133.8870  159.1073 C   0  0  0  0  0  0  0  0  0  0  0  0
  147.7287  134.8133  160.2123 N   0  0  0  0  0  0  0  0  0  0  0  0
  147.1497  134.2841  161.3790 C   0  0  0  0  0  0  0  0  0  0  0  0
  146.8370  135.0625  162.4324 C   0  0  0  0  0  0  0  0  0  0  0  0
  147.1141  136.4908  162.3420 C   0  0  0  0  0  0  0  0  0  0  0  0
  146.8375  137.2164  163.2952 O   0  0  0  0  0  0  0  0  0  0  0  0
  147.6734  136.9572  161.1871 N   0  5  0  0  0  0  0  0  0  0  0  0
  147.9834  136.1544  160.1227 C   0  0  0  0  0  0  0  0  0  0  0  0
  148.4801  136.5974  159.0858 O   0  0  0  0  0  0  0  0  0  0  0  0
  147.1289  134.6914  153.1474 N   0  3  0  0  0  0  0  0  0  0  0  0
  146.5547  133.6636  152.2336 C   0  0  0  0  0  0  0  0  0  0  0  0
  146.0384  134.3195  150.9427 C   0  0  0  0  0  0  0  0  0  0  0  0
  145.0588  135.2958  151.2662 O   0  0  0  0  0  0  0  0  0  0  0  0
  145.5976  136.3340  152.0723 C   0  0  0  0  0  0  0  0  0  0  0  0
  146.1132  135.7531  153.4002 C   0  0  0  0  0  0  0  0  0  0  0  0
  150.3025  131.6116  154.6959 H   0  0  0  0  0  0  0  0  0  0  0  0
  149.1758  132.1091  155.9440 H   0  0  0  0  0  0  0  0  0  0  0  0
  150.4167  133.2266  155.3745 H   0  0  0  0  0  0  0  0  0  0  0  0
  149.3347  133.1857  153.0712 H   0  0  0  0  0  0  0  0  0  0  0  0
  148.1305  132.1119  153.6713 H   0  0  0  0  0  0  0  0  0  0  0  0
  149.4974  134.8521  155.6573 H   0  0  0  0  0  0  0  0  0  0  0  0
  148.2270  136.0325  155.4730 H   0  0  0  0  0  0  0  0  0  0  0  0
  149.3664  135.7544  154.1620 H   0  0  0  0  0  0  0  0  0  0  0  0
  146.0042  134.4046  155.5348 H   0  0  0  0  0  0  0  0  0  0  0  0
  146.3907  132.7464  155.1833 H   0  0  0  0  0  0  0  0  0  0  0  0
  148.1830  132.8148  156.8228 H   0  0  0  0  0  0  0  0  0  0  0  0
  147.8160  132.8570  159.4030 H   0  0  0  0  0  0  0  0  0  0  0  0
  149.0817  133.9127  158.8611 H   0  0  0  0  0  0  0  0  0  0  0  0
  146.9702  133.2191  161.3617 H   0  0  0  0  0  0  0  0  0  0  0  0
  146.3887  134.6412  163.3201 H   0  0  0  0  0  0  0  0  0  0  0  0
  147.2930  132.9126  151.9598 H   0  0  0  0  0  0  0  0  0  0  0  0
  145.7300  133.1427  152.7203 H   0  0  0  0  0  0  0  0  0  0  0  0
  146.8558  134.7731  150.3796 H   0  0  0  0  0  0  0  0  0  0  0  0
  145.5845  133.5684  150.2961 H   0  0  0  0  0  0  0  0  0  0  0  0
  146.3970  136.8491  151.5370 H   0  0  0  0  0  0  0  0  0  0  0  0
  144.8179  137.0716  152.2640 H   0  0  0  0  0  0  0  0  0  0  0  0
  145.2768  135.3476  153.9699 H   0  0  0  0  0  0  0  0  0  0  0  0
  146.5259  136.5776  153.9784 H   0  0  0  0  0  0  0  0  0  0  0  0
  147.8510  135.1489  152.6092 H   0  0  0  0  0  0  0  0  0  0  0  0
  1  2  1  0  0  0  0
  1 24  1  0  0  0  0
  1 25  1  0  0  0  0
  1 26  1  0  0  0  0
  2  3  1  0  0  0  0
  2 27  1  0  0  0  0
  2 28  1  0  0  0  0
  3  4  1  0  0  0  0
  3  5  1  0  0  0  0
  3 18  1  0  0  0  0
  4 29  1  0  0  0  0
  4 30  1  0  0  0  0
  4 31  1  0  0  0  0
  5  6  1  0  0  0  0
  5 32  1  0  0  0  0
  5 33  1  0  0  0  0
  6  7  1  0  0  0  0
  6 34  1  0  0  0  0
  7  8  2  0  0  0  0
  7  9  1  0  0  0  0
  9 10  1  0  0  0  0
  9 35  1  0  0  0  0
  9 36  1  0  0  0  0
 10 16  1  0  0  0  0
 10 11  1  0  0  0  0
 11 12  2  0  0  0  0
 11 37  1  0  0  0  0
 12 13  1  0  0  0  0
 12 38  1  0  0  0  0
 13 14  2  0  0  0  0
 13 15  1  0  0  0  0
 15 16  1  0  0  0  0
 16 17  2  0  0  0  0
 18 23  1  0  0  0  0
 18 19  1  0  0  0  0
 18 47  1  0  0  0  0
 19 20  1  0  0  0  0
 19 39  1  0  0  0  0
 19 40  1  0  0  0  0
 20 21  1  0  0  0  0
 20 41  1  0  0  0  0
 20 42  1  0  0  0  0
 21 22  1  0  0  0  0
 22 23  1  0  0  0  0
 22 43  1  0  0  0  0
 22 44  1  0  0  0  0
 23 45  1  0  0  0  0
 23 46  1  0  0  0  0
M  CHG  1  15  -1
M  CHG  1  18   1
M  END
> <s_m_source_file>
AV-unprocessed.smi

> <i_m_source_file_index>
1560

> <i_lp_mmshare_version>
43012

> <i_f3d_flags>
0

> <s_epik_input>
W0NIMl0xW0NIMl1PW0NIMl1bQ0gyXU4xW0NAQF0oW0NIM10pKFtDSDJdW0NIM10pW0NIMl1bTkhdQyg9TylbQ0gyXW4yW2NIXVtjSF1jKD1PKVtuSF1jMj1P

> <s_epik_cmdline>
J2VwaWtfcHl0aG9uJywgJy1waCcsICc3LjAnLCAnLXRuJywgJzgnLCAnLW1hJywgJzIwMCcsICctbWV0YWxfYmluZGluZycsICctaW1hZScsICc8aW5maWxlLm1hZT4nLCAnLW9tYWUnLCAnPG91dGZpbGUubWFlPic=

> <r_lp_tautomer_probability>
0.999537

> <r_epik_Ionization_Penalty>
3.51944

> <r_epik_Ionization_Penalty_Charging>
0.588852

> <r_epik_Ionization_Penalty_Neutral>
2.93059

> <r_epik_State_Penalty>
3.4987

> <r_epik_Charging_Adjusted_Penalty>
4.08755

> <i_epik_Tot_Q>
0

> <i_epik_Tot_abs_Q>
2

> <r_epik_Metal_State_Penalty>
1.01204

> <b_epik_Metal_Only>
1

> <s_lp_Force_Field>
OPLS_2005

> <r_lp_Energy>
35.7671

> <b_lp_Chiralities_Consistent>
1

> <s_lp_Variant>
AV-unprocessed.smi:1560-8

> <Gold.Version>
5.8.1

> <Gold.Id.Protein>
6NUR|6NUR_protein|mol2

> <Gold.PLP.Fitness>
47.8116

> <Gold.PLP.PLP>
-31.5441

> <Gold.PLP.part.hbond>
-3.0000

> <Gold.PLP.part.metal>
0.0000

> <Gold.PLP.part.buried>
-2.4341

> <Gold.PLP.part.nonpolar>
-26.2789

> <Gold.PLP.part.repulsive>
0.1908

> <Gold.PLP.ligand.clash>
0.0000

> <Gold.PLP.ligand.torsion>
0.5467

> <Gold.PLP.Chemscore.Hbond>
5.6960

> <Gold.PLP.Chemscore.CHOScore>
0.0000

> <Gold.PLP.Chemscore.Metal>
0.0000

> <Gold.Chemscore.Hbonds>
donor molecule, donor type, donor heavy atom, donor atom, acceptor molecule, acceptor atom, score
      L1  H    18    47       P1  7948  2.00
      P1  H  6931  6943       L1    15  2.00
      P1  H  6934  6947       L1    15  1.31

> <Gold.PLP.Chemscore.Internal.Correction>
0.2729

> <Gold.Rescore>
     Score         DG    S(hbond)    S(metal)    S(lipo)     H(rot)  DE(clash)    DE(int)     intcor
      8.00     -12.41       1.90        0.00      59.51       2.50       0.57       3.84       ----

> <Gold.Chemscore.Fitness>
7.9978

> <Gold.Chemscore.DG>
-12.4083

> <Gold.Chemscore.ZeroCoef>
-5.4800

> <Gold.Chemscore.Hbond>
1.9038

> <Gold.Chemscore.Metal>
0.0000

> <Gold.Chemscore.Lipo>
59.5110

> <Gold.Chemscore.Internal_Hbond>
0.0000

> <Gold.Chemscore.DEClash>
0.5681

> <Gold.Chemscore.DEInternal>
3.8424

> <Gold.Chemscore.Rot>
2.4973

> <Gold.Chemscore.Internal.Correction>
   9.000000E+99

> <Gold.Chemscore.Hbonds>
donor molecule, donor type, donor heavy atom, donor atom, acceptor molecule, acceptor atom, score
      L1  H    18    47       P1  7948  0.98
      P1  H  6931  6943       L1    15  0.27
      P1  H  6934  6947       L1    15  0.47

> <Gold.Chemscore.Hbond.Weighted>
-6.3585

> <Gold.Chemscore.Metal.Weighted>
-0.0000

> <Gold.Chemscore.Lipo.Weighted>
-6.9628

> <Gold.Chemscore.Internal_Hbond.Weighted>
0.0000

> <Gold.Chemscore.DEClash.Weighted>
0.5681

> <Gold.Chemscore.DEInternal.Weighted>
3.8424

> <Gold.Chemscore.Rot.Weighted>
6.3930

> <Gold.Chemscore.Internal.Correction.Weighted>
   9.000000E+99

> <Gold.Protein.RotatedTorsions>
[ 6907 6896 6895 6894 ] final  -45.21 input  -60.11 | X-H torsion
[ 7974 7965 7964 7962 ] final   43.94 input  175.53 | X-H torsion
[ 8008 7997 7996 7995 ] final  111.55 input   59.86 | X-H torsion
[ 10167 10162 10161 10158 ] final -172.42 input  -65.29 | X-H torsion
[ 10718 10713 10712 10709 ] final   63.18 input   66.30 | X-H torsion
[ 10763 10752 10751 10750 ] final  161.75 input  -60.55 | X-H torsion
[ 11005 11000 10999 10996 ] final   92.60 input  -57.11 | X-H torsion

> <Gold.Protein.ActiveResidues>
 VAL166  LYS551  ARG553  GLY616  TRP617  ASP618  TYR619  PRO620  LYS621  CYS622 
 ASP623  PHE694  ASN695  SER759  ASP760  ASP761  ALA762  ILE779  LEU786  VAL792 
 PHE793  MET794  SER795  GLU796  ALA797  LYS798  CYS799  TRP800  GLU811  SER814 

> <Gold.Protein.RotatedAtoms>
  150.9244  134.8661  159.7510 H   0  0  0  0  0  0  0  0  0  0  0  0  # atno 6907 bound_to 6896
  152.5008  134.4170  159.9478 H   0  0  0  0  0  0  0  0  0  0  0  0  # atno 6908 bound_to 6896
  151.4201  133.3661  159.2790 H   0  0  0  0  0  0  0  0  0  0  0  0  # atno 6909 bound_to 6896
  146.0612  139.5130  142.9657 H   0  0  0  0  0  0  0  0  0  0  0  0  # atno 7974 bound_to 7965
  156.2131  140.3017  155.9778 H   0  0  0  0  0  0  0  0  0  0  0  0  # atno 8008 bound_to 7997
  155.2673  140.0432  157.3020 H   0  0  0  0  0  0  0  0  0  0  0  0  # atno 8009 bound_to 7997
  154.5729  140.2353  155.8174 H   0  0  0  0  0  0  0  0  0  0  0  0  # atno 8010 bound_to 7997
  139.5746  144.1563  152.1432 H   0  0  0  0  0  0  0  0  0  0  0  0  # atno 10167 bound_to 10162
  157.5953  130.9091  149.9683 H   0  0  0  0  0  0  0  0  0  0  0  0  # atno 10718 bound_to 10713
  154.2678  135.2766  155.2751 H   0  0  0  0  0  0  0  0  0  0  0  0  # atno 10763 bound_to 10752
  154.5328  135.5725  153.6776 H   0  0  0  0  0  0  0  0  0  0  0  0  # atno 10764 bound_to 10752
  152.9950  135.6232  154.2831 H   0  0  0  0  0  0  0  0  0  0  0  0  # atno 10765 bound_to 10752
  139.8821  134.8742  156.3596 H   0  0  0  0  0  0  0  0  0  0  0  0  # atno 11005 bound_to 11000
  145.6557  141.0252  143.1736 LP  0  0  0  0  0  0  0  0  0  0  0  0  # atno 17320 bound_to 7965
  144.7176  139.8143  143.7393 LP  0  0  0  0  0  0  0  0  0  0  0  0  # atno 17321 bound_to 7965
  140.1103  144.5463  150.6929 LP  0  0  0  0  0  0  0  0  0  0  0  0  # atno 17342 bound_to 10162
  140.7029  143.2447  151.4812 LP  0  0  0  0  0  0  0  0  0  0  0  0  # atno 17343 bound_to 10162
  156.1015  130.3655  150.0210 LP  0  0  0  0  0  0  0  0  0  0  0  0  # atno 17370 bound_to 10713
  156.8325  130.9397  151.3636 LP  0  0  0  0  0  0  0  0  0  0  0  0  # atno 17371 bound_to 10713
  140.9538  133.7433  156.0308 LP  0  0  0  0  0  0  0  0  0  0  0  0  # atno 17394 bound_to 11000
  140.8073  134.3440  157.5422 LP  0  0  0  0  0  0  0  0  0  0  0  0  # atno 17395 bound_to 11000

$$$$
