AV-unprocessed.smi:1889|AV-procd|sdf|7661|dock5
  -GOLD-   22720 9393D 1   1.00000     0.00000
 Structure written by MMmdl.
 35 36  0  0  0  0  0  0  0  0  2 V2000
  146.6868  142.2034  154.2365 C   0  0  0  0  0  0  0  0  0  0  0  0
  147.5338  140.9275  154.2946 C   0  0  0  0  0  0  0  0  0  0  0  0
  148.9641  141.1921  154.7857 C   0  0  0  0  0  0  0  0  0  0  0  0
  149.8198  139.9701  154.7459 C   0  0  0  0  0  0  0  0  0  0  0  0
  151.1452  140.0069  154.9066 N   0  0  0  0  0  0  0  0  0  0  0  0
  151.7198  138.7485  154.8022 N   0  0  0  0  0  0  0  0  0  0  0  0
  150.8254  137.7808  154.5561 C   0  0  0  0  0  0  0  0  0  0  0  0
  151.1778  136.4926  154.4121 N   0  5  0  0  0  0  0  0  0  0  0  0
  150.4955  135.5280  155.0704 C   0  0  0  0  0  0  0  0  0  0  0  0
  150.7225  135.1247  156.2134 O   0  0  0  0  0  0  0  0  0  0  0  0
  149.4837  135.0049  154.3626 N   0  0  0  0  0  0  0  0  0  0  0  0
  148.5641  133.9615  154.8083 C   0  0  0  0  0  0  0  0  0  0  0  0
  148.7194  132.6687  153.9849 C   0  0  2  0  0  0  0  0  0  0  0  0
  147.5898  131.6670  154.1302 C   0  0  0  0  0  0  0  0  0  0  0  0
  148.2398  130.3778  153.6364 C   0  0  0  0  0  0  0  0  0  0  0  0
  149.6289  130.4988  153.9320 O   0  0  0  0  0  0  0  0  0  0  0  0
  149.9144  131.8128  154.4016 C   0  0  0  0  0  0  0  0  0  0  0  0
  149.1704  138.3730  154.4148 S   0  0  0  0  0  0  0  0  0  0  0  0
  145.6787  141.9841  153.8845 H   0  0  0  0  0  0  0  0  0  0  0  0
  147.1246  142.9358  153.5577 H   0  0  0  0  0  0  0  0  0  0  0  0
  146.6026  142.6652  155.2206 H   0  0  0  0  0  0  0  0  0  0  0  0
  147.0498  140.2058  154.9537 H   0  0  0  0  0  0  0  0  0  0  0  0
  147.5652  140.4705  153.3049 H   0  0  0  0  0  0  0  0  0  0  0  0
  149.4323  141.9677  154.1782 H   0  0  0  0  0  0  0  0  0  0  0  0
  148.9451  141.5669  155.8094 H   0  0  0  0  0  0  0  0  0  0  0  0
  149.3393  135.3681  153.4316 H   0  0  0  0  0  0  0  0  0  0  0  0
  148.7883  133.7526  155.8544 H   0  0  0  0  0  0  0  0  0  0  0  0
  147.5316  134.3141  154.7853 H   0  0  0  0  0  0  0  0  0  0  0  0
  148.8270  132.9224  152.9288 H   0  0  0  0  0  0  0  0  0  0  0  0
  147.3069  131.5635  155.1789 H   0  0  0  0  0  0  0  0  0  0  0  0
  146.6989  131.9364  153.5621 H   0  0  0  0  0  0  0  0  0  0  0  0
  147.8093  129.4917  154.1033 H   0  0  0  0  0  0  0  0  0  0  0  0
  148.1232  130.2818  152.5561 H   0  0  0  0  0  0  0  0  0  0  0  0
  150.8564  132.1839  153.9973 H   0  0  0  0  0  0  0  0  0  0  0  0
  150.0039  131.7775  155.4883 H   0  0  0  0  0  0  0  0  0  0  0  0
  1  2  1  0  0  0  0
  1 19  1  0  0  0  0
  1 20  1  0  0  0  0
  1 21  1  0  0  0  0
  2  3  1  0  0  0  0
  2 22  1  0  0  0  0
  2 23  1  0  0  0  0
  3  4  1  0  0  0  0
  3 24  1  0  0  0  0
  3 25  1  0  0  0  0
  4 18  1  0  0  0  0
  4  5  2  0  0  0  0
  5  6  1  0  0  0  0
  6  7  2  0  0  0  0
  7  8  1  0  0  0  0
  7 18  1  0  0  0  0
  8  9  1  0  0  0  0
  9 10  2  0  0  0  0
  9 11  1  0  0  0  0
 11 12  1  0  0  0  0
 11 26  1  0  0  0  0
 12 13  1  0  0  0  0
 12 27  1  0  0  0  0
 12 28  1  0  0  0  0
 13 17  1  0  0  0  0
 13 14  1  0  0  0  0
 13 29  1  0  0  0  0
 14 15  1  0  0  0  0
 14 30  1  0  0  0  0
 14 31  1  0  0  0  0
 15 16  1  0  0  0  0
 15 32  1  0  0  0  0
 15 33  1  0  0  0  0
 16 17  1  0  0  0  0
 17 34  1  0  0  0  0
 17 35  1  0  0  0  0
M  CHG  1   8  -1
M  END
> <s_m_source_file>
AV-unprocessed.smi

> <i_m_source_file_index>
1889

> <i_lp_mmshare_version>
43012

> <i_f3d_flags>
0

> <s_epik_input>
W0NIM11bQ0gyXVtDSDJdYzFubmMoczEpW05IXUMoPU8pW05IXVtDSDJdW0NAQEhdMltDSDJdW0NIMl1PW0NIMl0y

> <s_epik_cmdline>
J2VwaWtfcHl0aG9uJywgJy1waCcsICc3LjAnLCAnLXRuJywgJzgnLCAnLW1hJywgJzIwMCcsICctbWV0YWxfYmluZGluZycsICctaW1hZScsICc8aW5maWxlLm1hZT4nLCAnLW9tYWUnLCAnPG91dGZpbGUubWFlPic=

> <r_lp_tautomer_probability>
1

> <r_epik_Ionization_Penalty>
4.29669

> <r_epik_Ionization_Penalty_Charging>
4.28522

> <r_epik_Ionization_Penalty_Neutral>
0.0114689

> <r_epik_State_Penalty>
4.28479

> <r_epik_Charging_Adjusted_Penalty>
8.57002

> <i_epik_Tot_Q>
-1

> <i_epik_Tot_abs_Q>
1

> <r_epik_Metal_State_Penalty>
0.72177

> <b_epik_Metal_Only>
1

> <s_lp_Force_Field>
OPLS_2005

> <r_lp_Energy>
11.5011

> <b_lp_Chiralities_Consistent>
1

> <s_lp_Variant>
AV-unprocessed.smi:1889-3

> <Gold.Version>
5.8.1

> <Gold.Id.Protein>
6NUR|6NUR_protein|mol2

> <Gold.PLP.Fitness>
40.5041

> <Gold.PLP.PLP>
-31.2588

> <Gold.PLP.part.hbond>
-3.0000

> <Gold.PLP.part.metal>
0.0000

> <Gold.PLP.part.buried>
-6.8764

> <Gold.PLP.part.nonpolar>
-24.2303

> <Gold.PLP.part.repulsive>
1.2799

> <Gold.PLP.ligand.clash>
0.0000

> <Gold.PLP.ligand.torsion>
1.4223

> <Gold.PLP.Chemscore.Hbond>
4.0000

> <Gold.PLP.Chemscore.CHOScore>
0.0000

> <Gold.PLP.Chemscore.Metal>
0.0000

> <Gold.Chemscore.Hbonds>
donor molecule, donor type, donor heavy atom, donor atom, acceptor molecule, acceptor atom, score
      L1  H    11    26       P1  7948  0.90
      P1  H  7989  7998       L1     5  1.00
      P1  H 10752 10765       L1     8  1.70

> <Gold.PLP.Chemscore.Internal.Correction>
0.0898

> <Gold.Rescore>
     Score         DG    S(hbond)    S(metal)    S(lipo)     H(rot)  DE(clash)    DE(int)     intcor
     11.05     -12.51       1.40        0.00      54.86       1.59       0.02       1.44       ----

> <Gold.Chemscore.Fitness>
11.0491

> <Gold.Chemscore.DG>
-12.5094

> <Gold.Chemscore.ZeroCoef>
-5.4800

> <Gold.Chemscore.Hbond>
1.4032

> <Gold.Chemscore.Metal>
0.0000

> <Gold.Chemscore.Lipo>
54.8626

> <Gold.Chemscore.Internal_Hbond>
0.0000

> <Gold.Chemscore.DEClash>
0.0174

> <Gold.Chemscore.DEInternal>
1.4429

> <Gold.Chemscore.Rot>
1.5922

> <Gold.Chemscore.Internal.Correction>
   9.000000E+99

> <Gold.Chemscore.Hbonds>
donor molecule, donor type, donor heavy atom, donor atom, acceptor molecule, acceptor atom, score
      L1  H    11    26       P1  7948  0.18
      P1  H  7989  7998       L1     5  0.19
      P1  H 10752 10765       L1     8  0.14

> <Gold.Chemscore.Hbond.Weighted>
-4.6865

> <Gold.Chemscore.Metal.Weighted>
-0.0000

> <Gold.Chemscore.Lipo.Weighted>
-6.4189

> <Gold.Chemscore.Internal_Hbond.Weighted>
0.0000

> <Gold.Chemscore.DEClash.Weighted>
0.0174

> <Gold.Chemscore.DEInternal.Weighted>
1.4429

> <Gold.Chemscore.Rot.Weighted>
4.0761

> <Gold.Chemscore.Internal.Correction.Weighted>
   9.000000E+99

> <Gold.Protein.RotatedTorsions>
[ 6907 6896 6895 6894 ] final  -74.14 input  -60.11 | X-H torsion
[ 7974 7965 7964 7962 ] final  119.40 input  175.53 | X-H torsion
[ 8008 7997 7996 7995 ] final    3.15 input   59.86 | X-H torsion
[ 10167 10162 10161 10158 ] final   40.53 input  -65.29 | X-H torsion
[ 10718 10713 10712 10709 ] final  152.54 input   66.30 | X-H torsion
[ 10763 10752 10751 10750 ] final  171.44 input  -60.55 | X-H torsion
[ 11005 11000 10999 10996 ] final  -54.35 input  -57.11 | X-H torsion

> <Gold.Protein.ActiveResidues>
 VAL166  LYS551  ARG553  GLY616  TRP617  ASP618  TYR619  PRO620  LYS621  CYS622 
 ASP623  PHE694  ASN695  SER759  ASP760  ASP761  ALA762  ILE779  LEU786  VAL792 
 PHE793  MET794  SER795  GLU796  ALA797  LYS798  CYS799  TRP800  GLU811  SER814 

> <Gold.Protein.RotatedAtoms>
  150.7104  134.4913  159.5516 H   0  0  0  0  0  0  0  0  0  0  0  0  # atno 6907 bound_to 6896
  152.2530  134.8110  160.0452 H   0  0  0  0  0  0  0  0  0  0  0  0  # atno 6908 bound_to 6896
  151.8851  133.3468  159.3816 H   0  0  0  0  0  0  0  0  0  0  0  0  # atno 6909 bound_to 6896
  145.1435  139.3253  143.4603 H   0  0  0  0  0  0  0  0  0  0  0  0  # atno 7974 bound_to 7965
  154.7002  140.2671  155.6727 H   0  0  0  0  0  0  0  0  0  0  0  0  # atno 8008 bound_to 7997
  156.2762  140.2774  156.1533 H   0  0  0  0  0  0  0  0  0  0  0  0  # atno 8009 bound_to 7997
  155.0776  140.0372  157.2619 H   0  0  0  0  0  0  0  0  0  0  0  0  # atno 8010 bound_to 7997
  140.3733  144.2076  150.6132 H   0  0  0  0  0  0  0  0  0  0  0  0  # atno 10167 bound_to 10162
  157.2565  131.0789  151.1695 H   0  0  0  0  0  0  0  0  0  0  0  0  # atno 10718 bound_to 10713
  154.4119  135.2756  155.2031 H   0  0  0  0  0  0  0  0  0  0  0  0  # atno 10763 bound_to 10752
  154.4013  135.6044  153.5902 H   0  0  0  0  0  0  0  0  0  0  0  0  # atno 10764 bound_to 10752
  152.9831  135.5927  154.4402 H   0  0  0  0  0  0  0  0  0  0  0  0  # atno 10765 bound_to 10752
  141.1021  133.6617  156.4307 H   0  0  0  0  0  0  0  0  0  0  0  0  # atno 11005 bound_to 11000
  146.3502  140.1482  142.8593 LP  0  0  0  0  0  0  0  0  0  0  0  0  # atno 17320 bound_to 7965
  145.0506  140.9015  143.4997 LP  0  0  0  0  0  0  0  0  0  0  0  0  # atno 17321 bound_to 7965
  140.5011  143.2317  151.8677 LP  0  0  0  0  0  0  0  0  0  0  0  0  # atno 17342 bound_to 10162
  139.4801  144.5058  151.8999 LP  0  0  0  0  0  0  0  0  0  0  0  0  # atno 17343 bound_to 10162
  157.3222  130.6942  149.6275 LP  0  0  0  0  0  0  0  0  0  0  0  0  # atno 17370 bound_to 10713
  155.9665  130.4332  150.4996 LP  0  0  0  0  0  0  0  0  0  0  0  0  # atno 17371 bound_to 10713
  140.4995  134.6499  157.5243 LP  0  0  0  0  0  0  0  0  0  0  0  0  # atno 17394 bound_to 11000
  139.9877  134.7035  155.9745 LP  0  0  0  0  0  0  0  0  0  0  0  0  # atno 17395 bound_to 11000

$$$$
