AV-unprocessed.smi:1575|AV-procd|sdf|6339|dock4
  -GOLD-   22720 6553D 1   1.00000     0.00000
 Structure written by MMmdl.
 41 41  0  0  0  0  0  0  0  0  1 V2000
  152.1346  138.1217  160.1008 C   0  0  0  0  0  0  0  0  0  0  0  0
  151.7103  139.2145  159.2398 N   0  0  0  0  0  0  0  0  0  0  0  0
  152.5026  139.8204  158.3438 C   0  0  0  0  0  0  0  0  0  0  0  0
  153.6759  139.4940  158.1557 O   0  0  0  0  0  0  0  0  0  0  0  0
  151.8616  140.9553  157.5268 C   0  0  2  0  0  0  0  0  0  0  0  0
  151.3947  142.0485  158.5173 C   0  0  0  0  0  0  0  0  0  0  0  0
  152.5100  142.9876  159.0328 C   0  0  0  0  0  0  0  0  0  0  0  0
  153.1827  142.4586  160.3108 C   0  0  0  0  0  0  0  0  0  0  0  0
  151.9596  144.4028  159.2652 C   0  0  0  0  0  0  0  0  0  0  0  0
  150.6956  140.4503  156.8024 N   0  0  0  0  0  0  0  0  0  0  0  0
  150.7096  139.9551  155.5555 C   0  0  0  0  0  0  0  0  0  0  0  0
  151.7328  139.8700  154.8749 O   0  0  0  0  0  0  0  0  0  0  0  0
  149.3628  139.4620  155.0097 C   0  0  0  0  0  0  0  0  0  0  0  0
  148.3580  140.5312  154.9244 N   0  0  0  0  0  0  0  0  0  0  0  0
  147.8862  140.9535  153.6896 C   0  0  0  0  0  0  0  0  0  0  0  0
  146.9675  141.9370  153.5395 C   0  0  0  0  0  0  0  0  0  0  0  0
  146.4159  142.6171  154.7065 C   0  0  0  0  0  0  0  0  0  0  0  0
  145.5791  143.5164  154.6736 O   0  0  0  0  0  0  0  0  0  0  0  0
  146.9179  142.1660  155.9303 N   0  0  0  0  0  0  0  0  0  0  0  0
  147.8667  141.1552  156.0919 C   0  0  0  0  0  0  0  0  0  0  0  0
  148.2459  140.8372  157.2185 O   0  0  0  0  0  0  0  0  0  0  0  0
  146.5665  142.6092  156.7665 H   0  0  0  0  0  0  0  0  0  0  0  0
  151.3011  137.7912  160.7204 H   0  0  0  0  0  0  0  0  0  0  0  0
  152.9441  138.4396  160.7592 H   0  0  0  0  0  0  0  0  0  0  0  0
  152.4784  137.2716  159.5102 H   0  0  0  0  0  0  0  0  0  0  0  0
  150.7575  139.5352  159.3341 H   0  0  0  0  0  0  0  0  0  0  0  0
  152.5980  141.3612  156.8312 H   0  0  0  0  0  0  0  0  0  0  0  0
  150.6218  142.6548  158.0408 H   0  0  0  0  0  0  0  0  0  0  0  0
  150.9124  141.5790  159.3765 H   0  0  0  0  0  0  0  0  0  0  0  0
  153.2790  143.0719  158.2641 H   0  0  0  0  0  0  0  0  0  0  0  0
  152.4542  142.3011  161.1067 H   0  0  0  0  0  0  0  0  0  0  0  0
  153.9289  143.1629  160.6796 H   0  0  0  0  0  0  0  0  0  0  0  0
  153.6971  141.5142  160.1345 H   0  0  0  0  0  0  0  0  0  0  0  0
  151.1891  144.4073  160.0369 H   0  0  0  0  0  0  0  0  0  0  0  0
  151.5207  144.8100  158.3539 H   0  0  0  0  0  0  0  0  0  0  0  0
  152.7498  145.0852  159.5797 H   0  0  0  0  0  0  0  0  0  0  0  0
  149.8141  140.4691  157.2943 H   0  0  0  0  0  0  0  0  0  0  0  0
  149.5380  139.0260  154.0252 H   0  0  0  0  0  0  0  0  0  0  0  0
  148.9861  138.6418  155.6245 H   0  0  0  0  0  0  0  0  0  0  0  0
  148.2699  140.4805  152.7968 H   0  0  0  0  0  0  0  0  0  0  0  0
  146.6395  142.2225  152.5505 H   0  0  0  0  0  0  0  0  0  0  0  0
  1  2  1  0  0  0  0
  1 23  1  0  0  0  0
  1 24  1  0  0  0  0
  1 25  1  0  0  0  0
  2  3  1  0  0  0  0
  2 26  1  0  0  0  0
  3  4  2  0  0  0  0
  3  5  1  0  0  0  0
  5  6  1  0  0  0  0
  5 10  1  0  0  0  0
  5 27  1  0  0  0  0
  6  7  1  0  0  0  0
  6 28  1  0  0  0  0
  6 29  1  0  0  0  0
  7  8  1  0  0  0  0
  7  9  1  0  0  0  0
  7 30  1  0  0  0  0
  8 31  1  0  0  0  0
  8 32  1  0  0  0  0
  8 33  1  0  0  0  0
  9 34  1  0  0  0  0
  9 35  1  0  0  0  0
  9 36  1  0  0  0  0
 10 11  1  0  0  0  0
 10 37  1  0  0  0  0
 11 12  2  0  0  0  0
 11 13  1  0  0  0  0
 13 14  1  0  0  0  0
 13 38  1  0  0  0  0
 13 39  1  0  0  0  0
 14 20  1  0  0  0  0
 14 15  1  0  0  0  0
 15 16  2  0  0  0  0
 15 40  1  0  0  0  0
 16 17  1  0  0  0  0
 16 41  1  0  0  0  0
 17 18  2  0  0  0  0
 17 19  1  0  0  0  0
 19 22  1  0  0  0  0
 19 20  1  0  0  0  0
 20 21  2  0  0  0  0
M  END
> <s_m_source_file>
AV-unprocessed.smi

> <i_m_source_file_index>
1575

> <i_lp_mmshare_version>
43012

> <i_f3d_flags>
0

> <s_epik_input>
W0NIM11bTkhdQyg9TylbQ0BIXShbQ0gyXVtDSF0oW0NIM10pW0NIM10pW05IXUMoPU8pW0NIMl1uMVtjSF1bY0hdYyg9TylbbkhdYzE9Tw==

> <s_epik_cmdline>
J2VwaWtfcHl0aG9uJywgJy1waCcsICc3LjAnLCAnLXRuJywgJzgnLCAnLW1hJywgJzIwMCcsICctbWV0YWxfYmluZGluZycsICctaW1hZScsICc8aW5maWxlLm1hZT4nLCAnLW9tYWUnLCAnPG91dGZpbGUubWFlPic=

> <r_lp_tautomer_probability>
0.999537

> <r_epik_Ionization_Penalty>
0.00357166

> <r_epik_Ionization_Penalty_Charging>
0.00357161

> <r_epik_Ionization_Penalty_Neutral>
5.44484e-08

> <r_epik_State_Penalty>
0.00253761

> <r_epik_Charging_Adjusted_Penalty>
0.00610921

> <i_epik_Tot_Q>
0

> <i_epik_Tot_abs_Q>
0

> <r_epik_Metal_State_Penalty>
0.368734

> <b_epik_Metal_Only>
0

> <s_lp_Force_Field>
OPLS_2005

> <r_lp_Energy>
6.26633

> <b_lp_Chiralities_Consistent>
1

> <s_lp_Variant>
AV-unprocessed.smi:1575-1

> <Gold.Version>
5.8.1

> <Gold.Id.Protein>
6NUR|6NUR_protein|mol2

> <Gold.PLP.Fitness>
43.7684

> <Gold.PLP.PLP>
-36.5825

> <Gold.PLP.part.hbond>
-1.7051

> <Gold.PLP.part.metal>
0.0000

> <Gold.PLP.part.buried>
-5.5916

> <Gold.PLP.part.nonpolar>
-29.7950

> <Gold.PLP.part.repulsive>
0.4756

> <Gold.PLP.ligand.clash>
0.0000

> <Gold.PLP.ligand.torsion>
0.9868

> <Gold.PLP.Chemscore.Hbond>
2.0000

> <Gold.PLP.Chemscore.CHOScore>
1.0000

> <Gold.PLP.Chemscore.Metal>
0.0000

> <Gold.Chemscore.Hbonds>
donor molecule, donor type, donor heavy atom, donor atom, acceptor molecule, acceptor atom, score
      P1  H  7989  7998       L1    12  1.00
      P1  H  7997  8010       L1     4  0.96
      L1  C    15    40       P1  7957  1.00

> <Gold.PLP.Chemscore.Internal.Correction>
0.1596

> <Gold.Rescore>
     Score         DG    S(hbond)    S(metal)    S(lipo)     H(rot)  DE(clash)    DE(int)     intcor
     12.18     -13.48       1.99        0.00      73.06       2.81       0.03       1.26       ----

> <Gold.Chemscore.Fitness>
12.1844

> <Gold.Chemscore.DG>
-13.4753

> <Gold.Chemscore.ZeroCoef>
-5.4800

> <Gold.Chemscore.Hbond>
1.9861

> <Gold.Chemscore.Metal>
0.0000

> <Gold.Chemscore.Lipo>
73.0624

> <Gold.Chemscore.Internal_Hbond>
0.0000

> <Gold.Chemscore.DEClash>
0.0262

> <Gold.Chemscore.DEInternal>
1.2647

> <Gold.Chemscore.Rot>
2.8072

> <Gold.Chemscore.Internal.Correction>
   9.000000E+99

> <Gold.Chemscore.Hbonds>
donor molecule, donor type, donor heavy atom, donor atom, acceptor molecule, acceptor atom, score
      P1  H  7989  7998       L1    12  0.79
      P1  H  7997  8010       L1     4  0.90

> <Gold.Chemscore.Hbond.Weighted>
-6.6334

> <Gold.Chemscore.Metal.Weighted>
-0.0000

> <Gold.Chemscore.Lipo.Weighted>
-8.5483

> <Gold.Chemscore.Internal_Hbond.Weighted>
0.0000

> <Gold.Chemscore.DEClash.Weighted>
0.0262

> <Gold.Chemscore.DEInternal.Weighted>
1.2647

> <Gold.Chemscore.Rot.Weighted>
7.1864

> <Gold.Chemscore.Internal.Correction.Weighted>
   9.000000E+99

> <Gold.Protein.RotatedTorsions>
[ 6907 6896 6895 6894 ] final -103.46 input  -60.11 | X-H torsion
[ 7974 7965 7964 7962 ] final  146.39 input  175.53 | X-H torsion
[ 8008 7997 7996 7995 ] final   49.30 input   59.86 | X-H torsion
[ 10167 10162 10161 10158 ] final  165.22 input  -65.29 | X-H torsion
[ 10718 10713 10712 10709 ] final -112.50 input   66.30 | X-H torsion
[ 10763 10752 10751 10750 ] final  126.23 input  -60.55 | X-H torsion
[ 11005 11000 10999 10996 ] final   28.05 input  -57.11 | X-H torsion

> <Gold.Protein.ActiveResidues>
 VAL166  LYS551  ARG553  GLY616  TRP617  ASP618  TYR619  PRO620  LYS621  CYS622 
 ASP623  PHE694  ASN695  SER759  ASP760  ASP761  ALA762  ILE779  LEU786  VAL792 
 PHE793  MET794  SER795  GLU796  ALA797  LYS798  CYS799  TRP800  GLU811  SER814 

> <Gold.Protein.RotatedAtoms>
  150.7241  134.0426  159.3770 H   0  0  0  0  0  0  0  0  0  0  0  0  # atno 6907 bound_to 6896
  151.8399  135.0591  160.0456 H   0  0  0  0  0  0  0  0  0  0  0  0  # atno 6908 bound_to 6896
  152.2870  133.5488  159.5570 H   0  0  0  0  0  0  0  0  0  0  0  0  # atno 6909 bound_to 6896
  144.8675  139.5899  143.5902 H   0  0  0  0  0  0  0  0  0  0  0  0  # atno 7974 bound_to 7965
  155.3999  140.3437  155.4256 H   0  0  0  0  0  0  0  0  0  0  0  0  # atno 8008 bound_to 7997
  156.1510  140.1571  156.8803 H   0  0  0  0  0  0  0  0  0  0  0  0  # atno 8009 bound_to 7997
  154.5052  140.0804  156.7861 H   0  0  0  0  0  0  0  0  0  0  0  0  # atno 8010 bound_to 7997
  139.4902  144.4154  151.9250 H   0  0  0  0  0  0  0  0  0  0  0  0  # atno 10167 bound_to 10162
  156.0710  130.5923  150.8517 H   0  0  0  0  0  0  0  0  0  0  0  0  # atno 10718 bound_to 10713
  153.6900  135.3300  155.3199 H   0  0  0  0  0  0  0  0  0  0  0  0  # atno 10763 bound_to 10752
  154.8442  135.4429  154.1518 H   0  0  0  0  0  0  0  0  0  0  0  0  # atno 10764 bound_to 10752
  153.2557  135.6986  153.7709 H   0  0  0  0  0  0  0  0  0  0  0  0  # atno 10765 bound_to 10752
  140.3198  134.2556  155.7719 H   0  0  0  0  0  0  0  0  0  0  0  0  # atno 11005 bound_to 11000
  146.2906  139.7129  142.9163 LP  0  0  0  0  0  0  0  0  0  0  0  0  # atno 17320 bound_to 7965
  145.4194  141.0405  143.2972 LP  0  0  0  0  0  0  0  0  0  0  0  0  # atno 17321 bound_to 7965
  140.3597  144.2988  150.5935 LP  0  0  0  0  0  0  0  0  0  0  0  0  # atno 17342 bound_to 10162
  140.5414  143.2223  151.8079 LP  0  0  0  0  0  0  0  0  0  0  0  0  # atno 17343 bound_to 10162
  157.5780  131.0946  150.9316 LP  0  0  0  0  0  0  0  0  0  0  0  0  # atno 17370 bound_to 10713
  156.9517  130.5422  149.5282 LP  0  0  0  0  0  0  0  0  0  0  0  0  # atno 17371 bound_to 10713
  141.2089  133.7764  157.0029 LP  0  0  0  0  0  0  0  0  0  0  0  0  # atno 17394 bound_to 11000
  140.0952  134.9568  157.1838 LP  0  0  0  0  0  0  0  0  0  0  0  0  # atno 17395 bound_to 11000

$$$$
