AV-unprocessed.smi:1465|AV-procd|sdf|5951|dock2
  -GOLD-   22720 6 33D 1   1.00000     0.00000
 Structure written by MMmdl.
 54 55  0  0  0  0  0  0  0  0  2 V2000
  149.1632  145.3659  160.1659 C   0  0  0  0  0  0  0  0  0  0  0  0
  149.8389  145.1487  158.9401 O   0  0  0  0  0  0  0  0  0  0  0  0
  151.1862  144.7456  159.1239 C   0  0  0  0  0  0  0  0  0  0  0  0
  151.6723  143.9992  157.8710 C   0  0  0  0  0  0  0  0  0  0  0  0
  151.1967  142.6085  157.8441 N   0  0  0  0  0  0  0  0  0  0  0  0
  150.2770  142.2682  156.8333 C   0  0  0  0  0  0  0  0  0  0  0  0
  149.7675  141.0268  156.7085 C   0  0  0  0  0  0  0  0  0  0  0  0
  148.8034  140.7435  155.6429 C   0  0  0  0  0  0  0  0  0  0  0  0
  148.5033  141.5315  154.7445 O   0  0  0  0  0  0  0  0  0  0  0  0
  148.2501  139.5208  155.7247 N   0  0  0  0  0  0  0  0  0  0  0  0
  147.2532  138.9785  154.8066 C   0  0  2  0  0  0  0  0  0  0  0  0
  146.9183  137.5193  155.1642 C   0  0  0  0  0  0  0  0  0  0  0  0
  145.9490  136.9032  154.1417 C   0  0  0  0  0  0  0  0  0  0  0  0
  146.4958  136.9915  152.7615 N   0  3  1  0  0  0  0  0  0  0  0  0
  145.6557  136.2971  151.7515 C   0  0  0  0  0  0  0  0  0  0  0  0
  145.1509  134.9192  152.2319 C   0  0  0  0  0  0  0  0  0  0  0  0
  146.3066  133.9249  152.4345 C   0  0  0  0  0  0  0  0  0  0  0  0
  144.1208  134.3479  151.2463 C   0  0  0  0  0  0  0  0  0  0  0  0
  146.7896  138.3975  152.3818 C   0  0  0  0  0  0  0  0  0  0  0  0
  147.7804  139.0437  153.3646 C   0  0  0  0  0  0  0  0  0  0  0  0
  150.2083  140.0261  157.6693 C   0  0  0  0  0  0  0  0  0  0  0  0
  151.0814  140.3493  158.6437 C   0  0  0  0  0  0  0  0  0  0  0  0
  151.6220  141.7052  158.7776 C   0  0  0  0  0  0  0  0  0  0  0  0
  152.4083  142.0084  159.6753 O   0  0  0  0  0  0  0  0  0  0  0  0
  148.1364  145.6735  159.9679 H   0  0  0  0  0  0  0  0  0  0  0  0
  149.6441  146.1531  160.7482 H   0  0  0  0  0  0  0  0  0  0  0  0
  149.1323  144.4555  160.7657 H   0  0  0  0  0  0  0  0  0  0  0  0
  151.8089  145.6268  159.2856 H   0  0  0  0  0  0  0  0  0  0  0  0
  151.2807  144.1157  160.0099 H   0  0  0  0  0  0  0  0  0  0  0  0
  151.3497  144.5337  156.9764 H   0  0  0  0  0  0  0  0  0  0  0  0
  152.7626  144.0240  157.8331 H   0  0  0  0  0  0  0  0  0  0  0  0
  150.0127  143.0885  156.1803 H   0  0  0  0  0  0  0  0  0  0  0  0
  148.5426  138.9247  156.4854 H   0  0  0  0  0  0  0  0  0  0  0  0
  146.3437  139.5800  154.8656 H   0  0  0  0  0  0  0  0  0  0  0  0
  147.8333  136.9259  155.1979 H   0  0  0  0  0  0  0  0  0  0  0  0
  146.4792  137.4666  156.1612 H   0  0  0  0  0  0  0  0  0  0  0  0
  145.7664  135.8641  154.4128 H   0  0  0  0  0  0  0  0  0  0  0  0
  144.9857  137.4137  154.1866 H   0  0  0  0  0  0  0  0  0  0  0  0
  144.8187  136.9415  151.4777 H   0  0  0  0  0  0  0  0  0  0  0  0
  146.2307  136.1460  150.8365 H   0  0  0  0  0  0  0  0  0  0  0  0
  144.6393  135.0369  153.1867 H   0  0  0  0  0  0  0  0  0  0  0  0
  146.8575  133.7626  151.5073 H   0  0  0  0  0  0  0  0  0  0  0  0
  145.9354  132.9568  152.7723 H   0  0  0  0  0  0  0  0  0  0  0  0
  147.0135  134.2796  153.1848 H   0  0  0  0  0  0  0  0  0  0  0  0
  144.5584  134.1912  150.2598 H   0  0  0  0  0  0  0  0  0  0  0  0
  143.2708  135.0208  151.1301 H   0  0  0  0  0  0  0  0  0  0  0  0
  143.7337  133.3892  151.5930 H   0  0  0  0  0  0  0  0  0  0  0  0
  147.2154  138.4272  151.3779 H   0  0  0  0  0  0  0  0  0  0  0  0
  145.8609  138.9699  152.3502 H   0  0  0  0  0  0  0  0  0  0  0  0
  147.9596  140.0809  153.0783 H   0  0  0  0  0  0  0  0  0  0  0  0
  148.7423  138.5330  153.2960 H   0  0  0  0  0  0  0  0  0  0  0  0
  149.8491  139.0084  157.6272 H   0  0  0  0  0  0  0  0  0  0  0  0
  151.3934  139.5899  159.3460 H   0  0  0  0  0  0  0  0  0  0  0  0
  147.3850  136.5126  152.7648 H   0  0  0  0  0  0  0  0  0  0  0  0
  1  2  1  0  0  0  0
  1 25  1  0  0  0  0
  1 26  1  0  0  0  0
  1 27  1  0  0  0  0
  2  3  1  0  0  0  0
  3  4  1  0  0  0  0
  3 28  1  0  0  0  0
  3 29  1  0  0  0  0
  4  5  1  0  0  0  0
  4 30  1  0  0  0  0
  4 31  1  0  0  0  0
  5 23  1  0  0  0  0
  5  6  1  0  0  0  0
  6  7  2  0  0  0  0
  6 32  1  0  0  0  0
  7  8  1  0  0  0  0
  7 21  1  0  0  0  0
  8  9  2  0  0  0  0
  8 10  1  0  0  0  0
 10 11  1  0  0  0  0
 10 33  1  0  0  0  0
 11 20  1  0  0  0  0
 11 12  1  0  0  0  0
 11 34  1  0  0  0  0
 12 13  1  0  0  0  0
 12 35  1  0  0  0  0
 12 36  1  0  0  0  0
 13 14  1  0  0  0  0
 13 37  1  0  0  0  0
 13 38  1  0  0  0  0
 14 15  1  0  0  0  0
 14 19  1  0  0  0  0
 14 54  1  0  0  0  0
 15 16  1  0  0  0  0
 15 39  1  0  0  0  0
 15 40  1  0  0  0  0
 16 17  1  0  0  0  0
 16 18  1  0  0  0  0
 16 41  1  0  0  0  0
 17 42  1  0  0  0  0
 17 43  1  0  0  0  0
 17 44  1  0  0  0  0
 18 45  1  0  0  0  0
 18 46  1  0  0  0  0
 18 47  1  0  0  0  0
 19 20  1  0  0  0  0
 19 48  1  0  0  0  0
 19 49  1  0  0  0  0
 20 50  1  0  0  0  0
 20 51  1  0  0  0  0
 21 22  2  0  0  0  0
 21 52  1  0  0  0  0
 22 23  1  0  0  0  0
 22 53  1  0  0  0  0
 23 24  2  0  0  0  0
M  CHG  1  14   1
M  END
> <s_m_source_file>
AV-unprocessed.smi

> <i_m_source_file_index>
1465

> <i_lp_mmshare_version>
43012

> <i_f3d_flags>
0

> <s_epik_input>
W0NIM11PW0NIMl1bQ0gyXW4xW2NIXWMoW2NIXVtjSF1jMT1PKUMoPU8pW05IXVtDSF0yW0NIMl1bQ0gyXU4oW0NIMl1bQ0gyXTIpW0NIMl1bQ0hdKFtDSDNdKVtDSDNd

> <s_epik_cmdline>
J2VwaWtfcHl0aG9uJywgJy1waCcsICc3LjAnLCAnLXRuJywgJzgnLCAnLW1hJywgJzIwMCcsICctbWV0YWxfYmluZGluZycsICctaW1hZScsICc8aW5maWxlLm1hZT4nLCAnLW9tYWUnLCAnPG91dGZpbGUubWFlPic=

> <r_lp_tautomer_probability>
1

> <r_epik_Ionization_Penalty>
0.00386091

> <r_epik_Ionization_Penalty_Charging>
0.0038603

> <r_epik_Ionization_Penalty_Neutral>
6.13806e-07

> <r_epik_State_Penalty>
0.00275716

> <r_epik_Charging_Adjusted_Penalty>
0.00661746

> <i_epik_Tot_Q>
1

> <i_epik_Tot_abs_Q>
1

> <r_epik_Metal_State_Penalty>
-0

> <b_epik_Metal_Only>
0

> <s_lp_Force_Field>
OPLS_2005

> <r_lp_Energy>
35.0866

> <b_lp_Chiralities_Consistent>
1

> <s_lp_Variant>
AV-unprocessed.smi:1465-1

> <Gold.Version>
5.8.1

> <Gold.Id.Protein>
6NUR|6NUR_protein|mol2

> <Gold.PLP.Fitness>
45.5988

> <Gold.PLP.PLP>
-36.9373

> <Gold.PLP.part.hbond>
-1.0000

> <Gold.PLP.part.metal>
0.0000

> <Gold.PLP.part.buried>
-3.5192

> <Gold.PLP.part.nonpolar>
-32.7800

> <Gold.PLP.part.repulsive>
0.3781

> <Gold.PLP.ligand.clash>
0.0000

> <Gold.PLP.ligand.torsion>
0.3985

> <Gold.PLP.Chemscore.Hbond>
2.0000

> <Gold.PLP.Chemscore.CHOScore>
1.0000

> <Gold.PLP.Chemscore.Metal>
0.0000

> <Gold.Chemscore.Hbonds>
donor molecule, donor type, donor heavy atom, donor atom, acceptor molecule, acceptor atom, score
      L1  H    14    54       P1  7948  1.79
      L1  C     6    32       P1  8028  1.00

> <Gold.PLP.Chemscore.Internal.Correction>
0.4585

> <Gold.Rescore>
     Score         DG    S(hbond)    S(metal)    S(lipo)     H(rot)  DE(clash)    DE(int)     intcor
     13.40     -15.48       1.00        0.00      95.86       1.78       1.27       0.81       ----

> <Gold.Chemscore.Fitness>
13.3951

> <Gold.Chemscore.DG>
-15.4836

> <Gold.Chemscore.ZeroCoef>
-5.4800

> <Gold.Chemscore.Hbond>
0.9992

> <Gold.Chemscore.Metal>
0.0000

> <Gold.Chemscore.Lipo>
95.8562

> <Gold.Chemscore.Internal_Hbond>
0.0000

> <Gold.Chemscore.DEClash>
1.2743

> <Gold.Chemscore.DEInternal>
0.8142

> <Gold.Chemscore.Rot>
1.7769

> <Gold.Chemscore.Internal.Correction>
   9.000000E+99

> <Gold.Chemscore.Hbonds>
donor molecule, donor type, donor heavy atom, donor atom, acceptor molecule, acceptor atom, score
      L1  H    14    54       P1  7948  0.88

> <Gold.Chemscore.Hbond.Weighted>
-3.3374

> <Gold.Chemscore.Metal.Weighted>
-0.0000

> <Gold.Chemscore.Lipo.Weighted>
-11.2152

> <Gold.Chemscore.Internal_Hbond.Weighted>
0.0000

> <Gold.Chemscore.DEClash.Weighted>
1.2743

> <Gold.Chemscore.DEInternal.Weighted>
0.8142

> <Gold.Chemscore.Rot.Weighted>
4.5490

> <Gold.Chemscore.Internal.Correction.Weighted>
   9.000000E+99

> <Gold.Protein.RotatedTorsions>
[ 6907 6896 6895 6894 ] final  123.22 input  -60.11 | X-H torsion
[ 7974 7965 7964 7962 ] final   38.32 input  175.53 | X-H torsion
[ 8008 7997 7996 7995 ] final  177.21 input   59.86 | X-H torsion
[ 10167 10162 10161 10158 ] final  -58.81 input  -65.29 | X-H torsion
[ 10718 10713 10712 10709 ] final -172.40 input   66.30 | X-H torsion
[ 10763 10752 10751 10750 ] final   12.84 input  -60.55 | X-H torsion
[ 11005 11000 10999 10996 ] final  -31.04 input  -57.11 | X-H torsion

> <Gold.Protein.ActiveResidues>
 VAL166  LYS551  ARG553  GLY616  TRP617  ASP618  TYR619  PRO620  LYS621  CYS622 
 ASP623  PHE694  ASN695  SER759  ASP760  ASP761  ALA762  ILE779  LEU786  VAL792 
 PHE793  MET794  SER795  GLU796  ALA797  LYS798  CYS799  TRP800  GLU811  SER814 

> <Gold.Protein.RotatedAtoms>
  152.4180  133.7069  159.6456 H   0  0  0  0  0  0  0  0  0  0  0  0  # atno 6907 bound_to 6896
  150.8056  133.8505  159.3213 H   0  0  0  0  0  0  0  0  0  0  0  0  # atno 6908 bound_to 6896
  151.6230  135.1032  160.0157 H   0  0  0  0  0  0  0  0  0  0  0  0  # atno 6909 bound_to 6896
  146.1070  139.5786  142.9377 H   0  0  0  0  0  0  0  0  0  0  0  0  # atno 7974 bound_to 7965
  156.0681  140.1364  156.9861 H   0  0  0  0  0  0  0  0  0  0  0  0  # atno 8008 bound_to 7997
  154.4517  140.0977  156.6690 H   0  0  0  0  0  0  0  0  0  0  0  0  # atno 8009 bound_to 7997
  155.5271  140.3457  155.4421 H   0  0  0  0  0  0  0  0  0  0  0  0  # atno 8010 bound_to 7997
  140.6174  143.2407  151.5564 H   0  0  0  0  0  0  0  0  0  0  0  0  # atno 10167 bound_to 10162
  156.7550  130.9392  151.3116 H   0  0  0  0  0  0  0  0  0  0  0  0  # atno 10718 bound_to 10713
  153.1782  135.6823  153.8515 H   0  0  0  0  0  0  0  0  0  0  0  0  # atno 10763 bound_to 10752
  153.7855  135.3176  155.3373 H   0  0  0  0  0  0  0  0  0  0  0  0  # atno 10764 bound_to 10752
  154.8042  135.4759  154.0445 H   0  0  0  0  0  0  0  0  0  0  0  0  # atno 10765 bound_to 10752
  140.9434  133.7265  156.1110 H   0  0  0  0  0  0  0  0  0  0  0  0  # atno 11005 bound_to 11000
  145.5740  141.0391  143.2158 LP  0  0  0  0  0  0  0  0  0  0  0  0  # atno 17320 bound_to 7965
  144.7479  139.7270  143.7285 LP  0  0  0  0  0  0  0  0  0  0  0  0  # atno 17321 bound_to 7965
  139.5410  144.2649  152.1350 LP  0  0  0  0  0  0  0  0  0  0  0  0  # atno 17342 bound_to 10162
  140.1861  144.4797  150.6503 LP  0  0  0  0  0  0  0  0  0  0  0  0  # atno 17343 bound_to 10162
  157.6760  130.9095  150.0152 LP  0  0  0  0  0  0  0  0  0  0  0  0  # atno 17370 bound_to 10713
  156.1376  130.3642  149.9632 LP  0  0  0  0  0  0  0  0  0  0  0  0  # atno 17371 bound_to 10713
  140.7703  134.3840  157.5509 LP  0  0  0  0  0  0  0  0  0  0  0  0  # atno 17394 bound_to 11000
  139.8826  134.9018  156.2818 LP  0  0  0  0  0  0  0  0  0  0  0  0  # atno 17395 bound_to 11000

$$$$
