AV-unprocessed.smi:2067|AV-procd|sdf|8423|dock5
  -GOLD-   2272011113D 1   1.00000     0.00000
 Structure written by MMmdl.
 47 48  0  0  0  0  0  0  0  0  1 V2000
  146.8865  139.0913  152.0569 C   0  0  0  0  0  0  0  0  0  0  0  0
  146.5808  138.4808  153.4345 C   0  0  2  0  0  0  0  0  0  0  0  0
  145.2023  137.7895  153.4271 C   0  0  0  0  0  0  0  0  0  0  0  0
  144.8655  137.1726  154.7930 C   0  0  0  0  0  0  0  0  0  0  0  0
  144.9370  138.2271  155.9057 C   0  0  0  0  0  0  0  0  0  0  0  0
  146.3118  138.9111  155.9300 C   0  0  0  0  0  0  0  0  0  0  0  0
  146.6576  139.5370  154.5612 C   0  0  1  0  0  0  0  0  0  0  0  0
  147.9830  140.0542  154.5774 O   0  0  0  0  0  0  0  0  0  0  0  0
  148.0758  141.4545  154.7957 C   0  0  0  0  0  0  0  0  0  0  0  0
  149.5521  141.8267  154.9572 C   0  0  0  0  0  0  0  0  0  0  0  0
  149.8138  142.3720  156.2795 N   0  0  0  0  0  0  0  0  0  0  0  0
  150.7407  141.9190  157.2131 C   0  0  0  0  0  0  0  0  0  0  0  0
  151.5261  140.8314  156.9717 C   0  0  0  0  0  0  0  0  0  0  0  0
  151.4519  140.0544  155.7741 C   0  0  0  0  0  0  0  0  0  0  0  0
  151.4004  139.4414  154.7929 N   0  0  0  0  0  0  0  0  0  0  0  0
  152.4874  140.3365  157.9546 C   0  0  0  0  0  0  0  0  0  0  0  0
  153.2253  139.3661  157.7662 O   0  0  0  0  0  0  0  0  0  0  0  0
  152.5173  141.0554  159.1663 N   0  0  0  0  0  0  0  0  0  0  0  0
  153.4503  140.5817  160.1699 C   0  0  0  0  0  0  0  0  0  0  0  0
  151.7108  142.1785  159.4458 C   0  0  0  0  0  0  0  0  0  0  0  0
  151.7750  142.7719  160.5266 O   0  0  0  0  0  0  0  0  0  0  0  0
  150.8197  142.6034  158.4298 N   0  0  0  0  0  0  0  0  0  0  0  0
  150.0341  143.7734  158.7688 C   0  0  0  0  0  0  0  0  0  0  0  0
  146.1750  139.8784  151.8051 H   0  0  0  0  0  0  0  0  0  0  0  0
  146.8371  138.3350  151.2731 H   0  0  0  0  0  0  0  0  0  0  0  0
  147.8864  139.5248  152.0263 H   0  0  0  0  0  0  0  0  0  0  0  0
  147.3355  137.7181  153.6330 H   0  0  0  0  0  0  0  0  0  0  0  0
  144.4301  138.5106  153.1550 H   0  0  0  0  0  0  0  0  0  0  0  0
  145.1801  137.0122  152.6625 H   0  0  0  0  0  0  0  0  0  0  0  0
  143.8703  136.7278  154.7651 H   0  0  0  0  0  0  0  0  0  0  0  0
  145.5609  136.3610  155.0106 H   0  0  0  0  0  0  0  0  0  0  0  0
  144.1589  138.9756  155.7518 H   0  0  0  0  0  0  0  0  0  0  0  0
  144.7345  137.7636  156.8716 H   0  0  0  0  0  0  0  0  0  0  0  0
  146.3143  139.6685  156.7131 H   0  0  0  0  0  0  0  0  0  0  0  0
  147.0761  138.1824  156.2029 H   0  0  0  0  0  0  0  0  0  0  0  0
  145.9491  140.3361  154.3345 H   0  0  0  0  0  0  0  0  0  0  0  0
  147.6628  141.9899  153.9398 H   0  0  0  0  0  0  0  0  0  0  0  0
  147.5124  141.7597  155.6778 H   0  0  0  0  0  0  0  0  0  0  0  0
  150.1879  140.9572  154.7883 H   0  0  0  0  0  0  0  0  0  0  0  0
  149.8064  142.5677  154.1995 H   0  0  0  0  0  0  0  0  0  0  0  0
  149.6111  143.3604  156.3322 H   0  0  0  0  0  0  0  0  0  0  0  0
  153.3751  141.1564  161.0922 H   0  0  0  0  0  0  0  0  0  0  0  0
  154.4528  140.6819  159.7501 H   0  0  0  0  0  0  0  0  0  0  0  0
  153.2067  139.5372  160.3733 H   0  0  0  0  0  0  0  0  0  0  0  0
  149.3849  143.4987  159.6022 H   0  0  0  0  0  0  0  0  0  0  0  0
  149.4365  144.0962  157.9192 H   0  0  0  0  0  0  0  0  0  0  0  0
  150.7271  144.5718  159.0409 H   0  0  0  0  0  0  0  0  0  0  0  0
  1  2  1  0  0  0  0
  1 24  1  0  0  0  0
  1 25  1  0  0  0  0
  1 26  1  0  0  0  0
  2  7  1  0  0  0  0
  2  3  1  0  0  0  0
  2 27  1  0  0  0  0
  3  4  1  0  0  0  0
  3 28  1  0  0  0  0
  3 29  1  0  0  0  0
  4  5  1  0  0  0  0
  4 30  1  0  0  0  0
  4 31  1  0  0  0  0
  5  6  1  0  0  0  0
  5 32  1  0  0  0  0
  5 33  1  0  0  0  0
  6  7  1  0  0  0  0
  6 34  1  0  0  0  0
  6 35  1  0  0  0  0
  7  8  1  0  0  0  0
  7 36  1  0  0  0  0
  8  9  1  0  0  0  0
  9 10  1  0  0  0  0
  9 37  1  0  0  0  0
  9 38  1  0  0  0  0
 10 11  1  0  0  0  0
 10 39  1  0  0  0  0
 10 40  1  0  0  0  0
 11 12  1  0  0  0  0
 11 41  1  0  0  0  0
 12 22  1  0  0  0  0
 12 13  2  0  0  0  0
 13 14  1  0  0  0  0
 13 16  1  0  0  0  0
 14 15  3  0  0  0  0
 16 17  2  0  0  0  0
 16 18  1  0  0  0  0
 18 19  1  0  0  0  0
 18 20  1  0  0  0  0
 19 42  1  0  0  0  0
 19 43  1  0  0  0  0
 19 44  1  0  0  0  0
 20 21  2  0  0  0  0
 20 22  1  0  0  0  0
 22 23  1  0  0  0  0
 23 45  1  0  0  0  0
 23 46  1  0  0  0  0
 23 47  1  0  0  0  0
M  END
> <s_m_source_file>
AV-unprocessed.smi

> <i_m_source_file_index>
2067

> <i_lp_mmshare_version>
43012

> <i_f3d_flags>
0

> <s_epik_input>
W0NIM11bQ0BASF0xW0NIMl1bQ0gyXVtDSDJdW0NIMl1bQ0BIXTFPW0NIMl1bQ0gyXVtOSF1jMmMoQyNOKWMoPU8pbihbQ0gzXSljKD1PKW4yW0NIM10=

> <s_epik_cmdline>
J2VwaWtfcHl0aG9uJywgJy1waCcsICc3LjAnLCAnLXRuJywgJzgnLCAnLW1hJywgJzIwMCcsICctbWV0YWxfYmluZGluZycsICctaW1hZScsICc8aW5maWxlLm1hZT4nLCAnLW9tYWUnLCAnPG91dGZpbGUubWFlPic=

> <r_epik_Ionization_Penalty>
0.00056529

> <r_epik_Ionization_Penalty_Charging>
3.94678e-10

> <r_epik_Ionization_Penalty_Neutral>
0.000565289

> <r_epik_State_Penalty>
0.000354611

> <r_epik_Charging_Adjusted_Penalty>
0.000354611

> <i_epik_Tot_Q>
0

> <i_epik_Tot_abs_Q>
0

> <r_epik_Metal_State_Penalty>
-0

> <b_epik_Metal_Only>
0

> <s_lp_Force_Field>
OPLS_2005

> <r_lp_Energy>
32.0891

> <b_lp_Chiralities_Consistent>
1

> <s_lp_Variant>
AV-unprocessed.smi:2067-1

> <Gold.Version>
5.8.1

> <Gold.Id.Protein>
6NUR|6NUR_protein|mol2

> <Gold.PLP.Fitness>
41.1977

> <Gold.PLP.PLP>
-34.0877

> <Gold.PLP.part.hbond>
-3.4864

> <Gold.PLP.part.metal>
0.0000

> <Gold.PLP.part.buried>
-3.0782

> <Gold.PLP.part.nonpolar>
-27.6083

> <Gold.PLP.part.repulsive>
0.2635

> <Gold.PLP.ligand.clash>
8.7922

> <Gold.PLP.ligand.torsion>
0.9475

> <Gold.PLP.Chemscore.Hbond>
3.0000

> <Gold.PLP.Chemscore.CHOScore>
0.0000

> <Gold.PLP.Chemscore.Metal>
0.0000

> <Gold.Chemscore.Hbonds>
donor molecule, donor type, donor heavy atom, donor atom, acceptor molecule, acceptor atom, score
      L1  H    11    41       P1  8028  0.99
      P1  H  7989  7998       L1    15  1.00
      P1  H  7997  8009       L1    17  1.00

> <Gold.PLP.Chemscore.Internal.Correction>
8.7971

> <Gold.Rescore>
     Score         DG    S(hbond)    S(metal)    S(lipo)     H(rot)  DE(clash)    DE(int)     intcor
     11.33     -15.31       2.36        0.00      55.15       1.76       0.55       3.43       ----

> <Gold.Chemscore.Fitness>
11.3292

> <Gold.Chemscore.DG>
-15.3097

> <Gold.Chemscore.ZeroCoef>
-5.4800

> <Gold.Chemscore.Hbond>
2.3587

> <Gold.Chemscore.Metal>
0.0000

> <Gold.Chemscore.Lipo>
55.1520

> <Gold.Chemscore.Internal_Hbond>
0.0000

> <Gold.Chemscore.DEClash>
0.5475

> <Gold.Chemscore.DEInternal>
3.4331

> <Gold.Chemscore.Rot>
1.7583

> <Gold.Chemscore.Internal.Correction>
   9.000000E+99

> <Gold.Chemscore.Hbonds>
donor molecule, donor type, donor heavy atom, donor atom, acceptor molecule, acceptor atom, score
      L1  H    11    41       P1  8028  0.93
      P1  H  7989  7998       L1    15  0.25
      P1  H  7997  8009       L1    17  0.50

> <Gold.Chemscore.Hbond.Weighted>
-7.8782

> <Gold.Chemscore.Metal.Weighted>
-0.0000

> <Gold.Chemscore.Lipo.Weighted>
-6.4528

> <Gold.Chemscore.Internal_Hbond.Weighted>
0.0000

> <Gold.Chemscore.DEClash.Weighted>
0.5475

> <Gold.Chemscore.DEInternal.Weighted>
3.4331

> <Gold.Chemscore.Rot.Weighted>
4.5012

> <Gold.Chemscore.Internal.Correction.Weighted>
   9.000000E+99

> <Gold.Protein.RotatedTorsions>
[ 6907 6896 6895 6894 ] final   70.62 input  -60.11 | X-H torsion
[ 7974 7965 7964 7962 ] final   82.07 input  175.53 | X-H torsion
[ 8008 7997 7996 7995 ] final  148.49 input   59.86 | X-H torsion
[ 10167 10162 10161 10158 ] final   81.10 input  -65.29 | X-H torsion
[ 10718 10713 10712 10709 ] final  173.96 input   66.30 | X-H torsion
[ 10763 10752 10751 10750 ] final  -85.63 input  -60.55 | X-H torsion
[ 11005 11000 10999 10996 ] final  -42.90 input  -57.11 | X-H torsion

> <Gold.Protein.ActiveResidues>
 VAL166  LYS551  ARG553  GLY616  TRP617  ASP618  TYR619  PRO620  LYS621  CYS622 
 ASP623  PHE694  ASN695  SER759  ASP760  ASP761  ALA762  ILE779  LEU786  VAL792 
 PHE793  MET794  SER795  GLU796  ALA797  LYS798  CYS799  TRP800  GLU811  SER814 

> <Gold.Protein.RotatedAtoms>
  152.4760  134.4841  159.9674 H   0  0  0  0  0  0  0  0  0  0  0  0  # atno 6907 bound_to 6896
  151.4857  133.3530  159.2853 H   0  0  0  0  0  0  0  0  0  0  0  0  # atno 6908 bound_to 6896
  150.8800  134.8216  159.7279 H   0  0  0  0  0  0  0  0  0  0  0  0  # atno 6909 bound_to 6896
  145.6299  139.2403  143.2090 H   0  0  0  0  0  0  0  0  0  0  0  0  # atno 7974 bound_to 7965
  156.2789  140.2127  156.5707 H   0  0  0  0  0  0  0  0  0  0  0  0  # atno 8008 bound_to 7997
  154.7138  140.0509  157.0598 H   0  0  0  0  0  0  0  0  0  0  0  0  # atno 8009 bound_to 7997
  155.0570  140.3162  155.4676 H   0  0  0  0  0  0  0  0  0  0  0  0  # atno 8010 bound_to 7997
  139.9428  144.6079  150.8236 H   0  0  0  0  0  0  0  0  0  0  0  0  # atno 10167 bound_to 10162
  156.9566  131.0047  151.2937 H   0  0  0  0  0  0  0  0  0  0  0  0  # atno 10718 bound_to 10713
  154.6133  135.5478  153.7497 H   0  0  0  0  0  0  0  0  0  0  0  0  # atno 10763 bound_to 10752
  153.0205  135.6395  154.1546 H   0  0  0  0  0  0  0  0  0  0  0  0  # atno 10764 bound_to 10752
  154.1483  135.2904  155.3122 H   0  0  0  0  0  0  0  0  0  0  0  0  # atno 10765 bound_to 10752
  141.0347  133.6805  156.2658 H   0  0  0  0  0  0  0  0  0  0  0  0  # atno 11005 bound_to 11000
  146.1364  140.7116  142.9387 LP  0  0  0  0  0  0  0  0  0  0  0  0  # atno 17320 bound_to 7965
  144.7197  140.4333  143.7017 LP  0  0  0  0  0  0  0  0  0  0  0  0  # atno 17321 bound_to 7965
  140.7606  143.3155  151.2744 LP  0  0  0  0  0  0  0  0  0  0  0  0  # atno 17342 bound_to 10162
  139.6691  144.0052  152.2742 LP  0  0  0  0  0  0  0  0  0  0  0  0  # atno 17343 bound_to 10162
  157.5686  130.8295  149.8361 LP  0  0  0  0  0  0  0  0  0  0  0  0  # atno 17370 bound_to 10713
  156.0340  130.3756  150.1610 LP  0  0  0  0  0  0  0  0  0  0  0  0  # atno 17371 bound_to 10713
  140.6344  134.5231  157.5563 LP  0  0  0  0  0  0  0  0  0  0  0  0  # atno 17394 bound_to 11000
  139.9232  134.8107  156.1147 LP  0  0  0  0  0  0  0  0  0  0  0  0  # atno 17395 bound_to 11000

$$$$
