AV-unprocessed.smi:1525|AV-procd|sdf|6141|dock2
  -GOLD-   22720 6283D 1   1.00000     0.00000
 Structure written by MMmdl.
 48 50  0  0  0  0  0  0  0  0  1 V2000
  155.9000  139.2568  158.9285 O   0  0  0  0  0  0  0  0  0  0  0  0
  155.4560  139.2086  160.0754 C   0  0  0  0  0  0  0  0  0  0  0  0
  154.6123  140.1182  160.5836 N   0  0  0  0  0  0  0  0  0  0  0  0
  154.1324  141.3071  159.8858 C   0  0  0  0  0  0  0  0  0  0  0  0
  153.1618  142.1252  160.7608 C   0  0  0  0  0  0  0  0  0  0  0  0
  152.3483  143.1108  160.0486 N   0  0  0  0  0  0  0  0  0  0  0  0
  151.8752  144.1864  160.9171 C   0  0  0  0  0  0  0  0  0  0  0  0
  151.0235  145.2090  160.1453 C   0  0  0  0  0  0  0  0  0  0  0  0
  151.7760  145.7316  159.0550 O   0  0  0  0  0  0  0  0  0  0  0  0
  152.2248  144.7178  158.1613 C   0  0  0  0  0  0  0  0  0  0  0  0
  153.0790  143.6943  158.9297 C   0  0  0  0  0  0  0  0  0  0  0  0
  155.7568  138.2681  160.9866 N   0  0  0  0  0  0  0  0  0  0  0  0
  156.6764  137.1852  160.8793 C   0  0  0  0  0  0  0  0  0  0  0  0
  157.6645  137.1360  159.8648 C   0  0  0  0  0  0  0  0  0  0  0  0
  158.5618  136.0551  159.8264 C   0  0  0  0  0  0  0  0  0  0  0  0
  158.4383  135.0542  160.8036 C   0  0  0  0  0  0  0  0  0  0  0  0
  157.4907  135.0737  161.7617 N   0  0  0  0  0  0  0  0  0  0  0  0
  156.6083  136.1024  161.8033 C   0  0  0  0  0  0  0  0  0  0  0  0
  155.6221  136.0557  162.8156 N   0  0  0  0  0  0  0  0  0  0  0  0
  155.7971  136.9170  163.9813 C   0  0  0  0  0  0  0  0  0  0  0  0
  154.3981  137.4021  164.3761 C   0  0  0  0  0  0  0  0  0  0  0  0
  153.4683  136.3661  163.7526 C   0  0  0  0  0  0  0  0  0  0  0  0
  154.2058  135.9993  162.4683 C   0  0  0  0  0  0  0  0  0  0  0  0
  154.3020  139.9967  161.5363 H   0  0  0  0  0  0  0  0  0  0  0  0
  154.9597  141.9142  159.5173 H   0  0  0  0  0  0  0  0  0  0  0  0
  153.6013  140.9658  158.9971 H   0  0  0  0  0  0  0  0  0  0  0  0
  152.5075  141.4414  161.3034 H   0  0  0  0  0  0  0  0  0  0  0  0
  153.7529  142.6345  161.5234 H   0  0  0  0  0  0  0  0  0  0  0  0
  151.2784  143.7836  161.7344 H   0  0  0  0  0  0  0  0  0  0  0  0
  152.7253  144.6955  161.3737 H   0  0  0  0  0  0  0  0  0  0  0  0
  150.1069  144.7460  159.7761 H   0  0  0  0  0  0  0  0  0  0  0  0
  150.7275  146.0282  160.8006 H   0  0  0  0  0  0  0  0  0  0  0  0
  151.3682  144.2309  157.6925 H   0  0  0  0  0  0  0  0  0  0  0  0
  152.8086  145.1778  157.3639 H   0  0  0  0  0  0  0  0  0  0  0  0
  153.9862  144.1803  159.2924 H   0  0  0  0  0  0  0  0  0  0  0  0
  153.3981  142.9078  158.2449 H   0  0  0  0  0  0  0  0  0  0  0  0
  155.3716  138.4111  161.9085 H   0  0  0  0  0  0  0  0  0  0  0  0
  157.7475  137.9029  159.1107 H   0  0  0  0  0  0  0  0  0  0  0  0
  159.3278  135.9974  159.0671 H   0  0  0  0  0  0  0  0  0  0  0  0
  159.1124  134.2108  160.8123 H   0  0  0  0  0  0  0  0  0  0  0  0
  156.2263  136.3272  164.7914 H   0  0  0  0  0  0  0  0  0  0  0  0
  156.4670  137.7538  163.7788 H   0  0  0  0  0  0  0  0  0  0  0  0
  154.2706  137.4953  165.4546 H   0  0  0  0  0  0  0  0  0  0  0  0
  154.2083  138.3788  163.9289 H   0  0  0  0  0  0  0  0  0  0  0  0
  153.3926  135.4937  164.4029 H   0  0  0  0  0  0  0  0  0  0  0  0
  152.4622  136.7455  163.5721 H   0  0  0  0  0  0  0  0  0  0  0  0
  153.9651  136.7283  161.6934 H   0  0  0  0  0  0  0  0  0  0  0  0
  153.9246  135.0093  162.1087 H   0  0  0  0  0  0  0  0  0  0  0  0
  1  2  2  0  0  0  0
  2  3  1  0  0  0  0
  2 12  1  0  0  0  0
  3  4  1  0  0  0  0
  3 24  1  0  0  0  0
  4  5  1  0  0  0  0
  4 25  1  0  0  0  0
  4 26  1  0  0  0  0
  5  6  1  0  0  0  0
  5 27  1  0  0  0  0
  5 28  1  0  0  0  0
  6 11  1  0  0  0  0
  6  7  1  0  0  0  0
  7  8  1  0  0  0  0
  7 29  1  0  0  0  0
  7 30  1  0  0  0  0
  8  9  1  0  0  0  0
  8 31  1  0  0  0  0
  8 32  1  0  0  0  0
  9 10  1  0  0  0  0
 10 11  1  0  0  0  0
 10 33  1  0  0  0  0
 10 34  1  0  0  0  0
 11 35  1  0  0  0  0
 11 36  1  0  0  0  0
 12 13  1  0  0  0  0
 12 37  1  0  0  0  0
 13 18  1  0  0  0  0
 13 14  2  0  0  0  0
 14 15  1  0  0  0  0
 14 38  1  0  0  0  0
 15 16  2  0  0  0  0
 15 39  1  0  0  0  0
 16 17  1  0  0  0  0
 16 40  1  0  0  0  0
 17 18  2  0  0  0  0
 18 19  1  0  0  0  0
 19 23  1  0  0  0  0
 19 20  1  0  0  0  0
 20 21  1  0  0  0  0
 20 41  1  0  0  0  0
 20 42  1  0  0  0  0
 21 22  1  0  0  0  0
 21 43  1  0  0  0  0
 21 44  1  0  0  0  0
 22 23  1  0  0  0  0
 22 45  1  0  0  0  0
 22 46  1  0  0  0  0
 23 47  1  0  0  0  0
 23 48  1  0  0  0  0
M  END
> <s_m_source_file>
AV-unprocessed.smi

> <i_m_source_file_index>
1525

> <i_lp_mmshare_version>
43012

> <i_f3d_flags>
0

> <s_epik_input>
W0NIMl0xW0NIMl1PW0NIMl1bQ0gyXU4xW0NIMl1bQ0gyXVtOSF1DKD1PKVtOSF1jMltjSF1bY0hdW2NIXW5jMk4zW0NIMl1bQ0gyXVtDSDJdW0NIMl0z

> <s_epik_cmdline>
J2VwaWtfcHl0aG9uJywgJy1waCcsICc3LjAnLCAnLXRuJywgJzgnLCAnLW1hJywgJzIwMCcsICctbWV0YWxfYmluZGluZycsICctaW1hZScsICc8aW5maWxlLm1hZT4nLCAnLW9tYWUnLCAnPG91dGZpbGUubWFlPic=

> <r_lp_tautomer_probability>
1

> <r_epik_Ionization_Penalty>
0.363951

> <r_epik_Ionization_Penalty_Charging>
0

> <r_epik_Ionization_Penalty_Neutral>
0.363951

> <r_epik_State_Penalty>
0.349372

> <r_epik_Charging_Adjusted_Penalty>
0.349372

> <i_epik_Tot_Q>
0

> <i_epik_Tot_abs_Q>
0

> <r_epik_Metal_State_Penalty>
0.33306

> <b_epik_Metal_Only>
0

> <s_lp_Force_Field>
OPLS_2005

> <r_lp_Energy>
53.9404

> <b_lp_Chiralities_Consistent>
1

> <s_lp_Variant>
AV-unprocessed.smi:1525-1

> <Gold.Version>
5.8.1

> <Gold.Id.Protein>
6NUR|6NUR_protein|mol2

> <Gold.PLP.Fitness>
42.3566

> <Gold.PLP.PLP>
-40.1738

> <Gold.PLP.part.hbond>
-2.0000

> <Gold.PLP.part.metal>
0.0000

> <Gold.PLP.part.buried>
-5.5216

> <Gold.PLP.part.nonpolar>
-32.5567

> <Gold.PLP.part.repulsive>
0.1902

> <Gold.PLP.ligand.clash>
0.0000

> <Gold.PLP.ligand.torsion>
0.6057

> <Gold.PLP.Chemscore.Hbond>
1.0000

> <Gold.PLP.Chemscore.CHOScore>
0.0000

> <Gold.PLP.Chemscore.Metal>
0.0000

> <Gold.Chemscore.Hbonds>
donor molecule, donor type, donor heavy atom, donor atom, acceptor molecule, acceptor atom, score
      P1  H  7997  8009       L1     1  1.00

> <Gold.PLP.Chemscore.Internal.Correction>
0.3942

> <Gold.Rescore>
     Score         DG    S(hbond)    S(metal)    S(lipo)     H(rot)  DE(clash)    DE(int)     intcor
     14.51     -16.35       1.00        0.00      99.36       1.60       0.03       1.81       ----

> <Gold.Chemscore.Fitness>
14.5094

> <Gold.Chemscore.DG>
-16.3475

> <Gold.Chemscore.ZeroCoef>
-5.4800

> <Gold.Chemscore.Hbond>
0.9992

> <Gold.Chemscore.Metal>
0.0000

> <Gold.Chemscore.Lipo>
99.3645

> <Gold.Chemscore.Internal_Hbond>
0.0000

> <Gold.Chemscore.DEClash>
0.0324

> <Gold.Chemscore.DEInternal>
1.8056

> <Gold.Chemscore.Rot>
1.5998

> <Gold.Chemscore.Internal.Correction>
   9.000000E+99

> <Gold.Chemscore.Hbonds>
donor molecule, donor type, donor heavy atom, donor atom, acceptor molecule, acceptor atom, score
      P1  H  7997  8009       L1     1  1.00

> <Gold.Chemscore.Hbond.Weighted>
-3.3374

> <Gold.Chemscore.Metal.Weighted>
-0.0000

> <Gold.Chemscore.Lipo.Weighted>
-11.6256

> <Gold.Chemscore.Internal_Hbond.Weighted>
0.0000

> <Gold.Chemscore.DEClash.Weighted>
0.0324

> <Gold.Chemscore.DEInternal.Weighted>
1.8056

> <Gold.Chemscore.Rot.Weighted>
4.0956

> <Gold.Chemscore.Internal.Correction.Weighted>
   9.000000E+99

> <Gold.Protein.RotatedTorsions>
[ 6907 6896 6895 6894 ] final  -43.34 input  -60.11 | X-H torsion
[ 7974 7965 7964 7962 ] final  169.13 input  175.53 | X-H torsion
[ 8008 7997 7996 7995 ] final  106.70 input   59.86 | X-H torsion
[ 10167 10162 10161 10158 ] final   15.77 input  -65.29 | X-H torsion
[ 10718 10713 10712 10709 ] final   65.17 input   66.30 | X-H torsion
[ 10763 10752 10751 10750 ] final  167.69 input  -60.55 | X-H torsion
[ 11005 11000 10999 10996 ] final  -58.72 input  -57.11 | X-H torsion

> <Gold.Protein.ActiveResidues>
 VAL166  LYS551  ARG553  GLY616  TRP617  ASP618  TYR619  PRO620  LYS621  CYS622 
 ASP623  PHE694  ASN695  SER759  ASP760  ASP761  ALA762  ILE779  LEU786  VAL792 
 PHE793  MET794  SER795  GLU796  ALA797  LYS798  CYS799  TRP800  GLU811  SER814 

> <Gold.Protein.RotatedAtoms>
  150.9450  134.8856  159.7635 H   0  0  0  0  0  0  0  0  0  0  0  0  # atno 6907 bound_to 6896
  152.5096  134.3888  159.9386 H   0  0  0  0  0  0  0  0  0  0  0  0  # atno 6908 bound_to 6896
  151.3906  133.3750  159.2755 H   0  0  0  0  0  0  0  0  0  0  0  0  # atno 6909 bound_to 6896
  144.7365  139.9010  143.6409 H   0  0  0  0  0  0  0  0  0  0  0  0  # atno 7974 bound_to 7965
  156.1764  140.3108  155.9068 H   0  0  0  0  0  0  0  0  0  0  0  0  # atno 8008 bound_to 7997
  155.3477  140.0469  157.3063 H   0  0  0  0  0  0  0  0  0  0  0  0  # atno 8009 bound_to 7997
  154.5295  140.2226  155.8840 H   0  0  0  0  0  0  0  0  0  0  0  0  # atno 8010 bound_to 7997
  140.5844  143.8919  150.6817 H   0  0  0  0  0  0  0  0  0  0  0  0  # atno 10167 bound_to 10162
  157.6088  130.9200  149.9941 H   0  0  0  0  0  0  0  0  0  0  0  0  # atno 10718 bound_to 10713
  154.3576  135.2753  155.2338 H   0  0  0  0  0  0  0  0  0  0  0  0  # atno 10763 bound_to 10752
  154.4540  135.5924  153.6214 H   0  0  0  0  0  0  0  0  0  0  0  0  # atno 10764 bound_to 10752
  152.9845  135.6049  154.3793 H   0  0  0  0  0  0  0  0  0  0  0  0  # atno 10765 bound_to 10752
  141.1219  133.6613  156.4963 H   0  0  0  0  0  0  0  0  0  0  0  0  # atno 11005 bound_to 11000
  146.1072  139.4073  143.0310 LP  0  0  0  0  0  0  0  0  0  0  0  0  # atno 17320 bound_to 7965
  145.7495  140.9978  143.1258 LP  0  0  0  0  0  0  0  0  0  0  0  0  # atno 17321 bound_to 7965
  140.2426  143.3652  152.1474 LP  0  0  0  0  0  0  0  0  0  0  0  0  # atno 17342 bound_to 10162
  139.5189  144.7011  151.5489 LP  0  0  0  0  0  0  0  0  0  0  0  0  # atno 17343 bound_to 10162
  156.1183  130.3647  149.9930 LP  0  0  0  0  0  0  0  0  0  0  0  0  # atno 17370 bound_to 10713
  156.8015  130.9292  151.3646 LP  0  0  0  0  0  0  0  0  0  0  0  0  # atno 17371 bound_to 10713
  140.4482  134.6953  157.5026 LP  0  0  0  0  0  0  0  0  0  0  0  0  # atno 17394 bound_to 11000
  140.0183  134.6585  155.9277 LP  0  0  0  0  0  0  0  0  0  0  0  0  # atno 17395 bound_to 11000

$$$$
