AV-unprocessed.smi:34|AV-procd|sdf|234|dock1
  -GOLD-   2262015573D 1   1.00000     0.00000
 Structure written by MMmdl.
 54 58  0  0  0  0  0  0  0  0  2 V2000
  142.4171  141.5516  159.8335 O   0  0  0  0  0  0  0  0  0  0  0  0
  142.4222  142.4941  159.0385 C   0  0  0  0  0  0  0  0  0  0  0  0
  141.8895  142.5343  157.7909 N   0  5  0  0  0  0  0  0  0  0  0  0
  142.6800  142.7860  156.7365 C   0  0  0  0  0  0  0  0  0  0  0  0
  142.2978  143.6786  155.7872 N   0  0  0  0  0  0  0  0  0  0  0  0
  143.0863  143.9261  154.7341 C   0  0  0  0  0  0  0  0  0  0  0  0
  144.2816  143.4056  154.4379 N   0  0  0  0  0  0  0  0  0  0  0  0
  144.6802  142.5166  155.3933 C   0  0  0  0  0  0  0  0  0  0  0  0
  143.9446  142.1604  156.5598 C   0  0  0  0  0  0  0  0  0  0  0  0
  144.6432  141.2288  157.3142 N   0  0  0  0  0  0  0  0  0  0  0  0
  145.7445  141.0613  156.5842 C   0  0  0  0  0  0  0  0  0  0  0  0
  145.8450  141.7735  155.4419 N   0  0  0  0  0  0  0  0  0  0  0  0
  146.9437  141.7888  154.4239 C   0  0  1  0  0  0  0  0  0  0  0  0
  148.1559  142.0217  155.0823 O   0  0  0  0  0  0  0  0  0  0  0  0
  148.9092  140.8152  155.1414 C   0  0  2  0  0  0  0  0  0  0  0  0
  150.3980  141.1274  155.3208 C   0  0  0  0  0  0  0  0  0  0  0  0
  150.5735  141.8723  156.5146 O   0  0  0  0  0  0  0  0  0  0  0  0
  151.7043  141.7377  157.2337 C   0  0  0  0  0  0  0  0  0  0  0  0
  152.5806  140.9091  156.9785 O   0  0  0  0  0  0  0  0  0  0  0  0
  151.7861  142.6979  158.3721 C   0  0  0  0  0  0  0  0  0  0  0  0
  151.0055  143.8772  158.3408 C   0  0  0  0  0  0  0  0  0  0  0  0
  151.0616  144.8031  159.4006 C   0  0  0  0  0  0  0  0  0  0  0  0
  151.8990  144.5609  160.5049 C   0  0  0  0  0  0  0  0  0  0  0  0
  152.6801  143.3913  160.5486 C   0  0  0  0  0  0  0  0  0  0  0  0
  152.6251  142.4638  159.4896 C   0  0  0  0  0  0  0  0  0  0  0  0
  148.5725  140.1866  153.7941 C   0  0  1  0  0  0  0  0  0  0  0  0
  148.9044  138.8979  153.6985 F   0  0  0  0  0  0  0  0  0  0  0  0
  147.0780  140.4395  153.6775 C   0  0  1  0  0  0  0  0  0  0  0  0
  146.3322  139.3830  154.2616 O   0  0  0  0  0  0  0  0  0  0  0  0
  143.0245  143.8039  159.4713 C   0  0  0  0  0  0  0  0  0  0  0  0
  142.6980  144.9895  158.7741 C   0  0  0  0  0  0  0  0  0  0  0  0
  143.2275  146.2294  159.1818 C   0  0  0  0  0  0  0  0  0  0  0  0
  144.0822  146.2984  160.2979 C   0  0  0  0  0  0  0  0  0  0  0  0
  144.4045  145.1268  161.0081 C   0  0  0  0  0  0  0  0  0  0  0  0
  143.8756  143.8865  160.6007 C   0  0  0  0  0  0  0  0  0  0  0  0
  142.7032  144.6458  154.0259 H   0  0  0  0  0  0  0  0  0  0  0  0
  146.5193  140.3782  156.8996 H   0  0  0  0  0  0  0  0  0  0  0  0
  146.7076  142.6304  153.7715 H   0  0  0  0  0  0  0  0  0  0  0  0
  148.5419  140.1829  155.9517 H   0  0  0  0  0  0  0  0  0  0  0  0
  150.9677  140.2004  155.3983 H   0  0  0  0  0  0  0  0  0  0  0  0
  150.7770  141.6775  154.4582 H   0  0  0  0  0  0  0  0  0  0  0  0
  150.3548  144.0850  157.5035 H   0  0  0  0  0  0  0  0  0  0  0  0
  150.4610  145.7000  159.3654 H   0  0  0  0  0  0  0  0  0  0  0  0
  151.9421  145.2713  161.3173 H   0  0  0  0  0  0  0  0  0  0  0  0
  153.3229  143.2045  161.3961 H   0  0  0  0  0  0  0  0  0  0  0  0
  153.2370  141.5760  159.5551 H   0  0  0  0  0  0  0  0  0  0  0  0
  149.0985  140.7126  152.9959 H   0  0  0  0  0  0  0  0  0  0  0  0
  146.7679  140.5581  152.6389 H   0  0  0  0  0  0  0  0  0  0  0  0
  145.4560  139.4026  153.9079 H   0  0  0  0  0  0  0  0  0  0  0  0
  142.0398  144.9540  157.9179 H   0  0  0  0  0  0  0  0  0  0  0  0
  142.9748  147.1280  158.6388 H   0  0  0  0  0  0  0  0  0  0  0  0
  144.4869  147.2492  160.6117 H   0  0  0  0  0  0  0  0  0  0  0  0
  145.0541  145.1782  161.8693 H   0  0  0  0  0  0  0  0  0  0  0  0
  144.1259  143.0008  161.1666 H   0  0  0  0  0  0  0  0  0  0  0  0
  1  2  2  0  0  0  0
  2  3  1  0  0  0  0
  2 30  1  0  0  0  0
  3  4  1  0  0  0  0
  4  9  1  0  0  0  0
  4  5  2  0  0  0  0
  5  6  1  0  0  0  0
  6  7  2  0  0  0  0
  6 36  1  0  0  0  0
  7  8  1  0  0  0  0
  8 12  1  0  0  0  0
  8  9  2  0  0  0  0
  9 10  1  0  0  0  0
 10 11  2  0  0  0  0
 11 12  1  0  0  0  0
 11 37  1  0  0  0  0
 12 13  1  0  0  0  0
 13 28  1  0  0  0  0
 13 14  1  0  0  0  0
 13 38  1  0  0  0  0
 14 15  1  0  0  0  0
 15 16  1  0  0  0  0
 15 26  1  0  0  0  0
 15 39  1  0  0  0  0
 16 17  1  0  0  0  0
 16 40  1  0  0  0  0
 16 41  1  0  0  0  0
 17 18  1  0  0  0  0
 18 19  2  0  0  0  0
 18 20  1  0  0  0  0
 20 25  1  0  0  0  0
 20 21  2  0  0  0  0
 21 22  1  0  0  0  0
 21 42  1  0  0  0  0
 22 23  2  0  0  0  0
 22 43  1  0  0  0  0
 23 24  1  0  0  0  0
 23 44  1  0  0  0  0
 24 25  2  0  0  0  0
 24 45  1  0  0  0  0
 25 46  1  0  0  0  0
 26 27  1  0  0  0  0
 26 28  1  0  0  0  0
 26 47  1  0  0  0  0
 28 29  1  0  0  0  0
 28 48  1  0  0  0  0
 29 49  1  0  0  0  0
 30 35  1  0  0  0  0
 30 31  2  0  0  0  0
 31 32  1  0  0  0  0
 31 50  1  0  0  0  0
 32 33  2  0  0  0  0
 32 51  1  0  0  0  0
 33 34  1  0  0  0  0
 33 52  1  0  0  0  0
 34 35  2  0  0  0  0
 34 53  1  0  0  0  0
 35 54  1  0  0  0  0
M  CHG  1   3  -1
M  END
> <s_m_source_file>
AV-unprocessed.smi

> <i_m_source_file_index>
34

> <i_lp_mmshare_version>
43012

> <i_f3d_flags>
0

> <s_epik_input>
W2NIXTFbY0hdW2NIXVtjSF1bY0hdYzFDKD1PKVtOSF1jKG5bY0hdbjIpYyhjMjMpbltjSF1uM1tDQEBIXTRPW0NASF0oW0NAQEhdKEYpW0NASF00W09IXSlbQ0gyXU9DKD1PKWM1W2NIXVtjSF1bY0hdW2NIXVtjSF01

> <s_epik_cmdline>
J2VwaWtfcHl0aG9uJywgJy1waCcsICc3LjAnLCAnLXRuJywgJzgnLCAnLW1hJywgJzIwMCcsICctbWV0YWxfYmluZGluZycsICctaW1hZScsICc8aW5maWxlLm1hZT4nLCAnLW9tYWUnLCAnPG91dGZpbGUubWFlPic=

> <r_lp_tautomer_probability>
1

> <r_epik_Ionization_Penalty>
4.33227

> <r_epik_Ionization_Penalty_Charging>
3.41027

> <r_epik_Ionization_Penalty_Neutral>
0.922001

> <r_epik_State_Penalty>
3.41358

> <r_epik_Charging_Adjusted_Penalty>
6.82385

> <i_epik_Tot_Q>
-1

> <i_epik_Tot_abs_Q>
1

> <r_epik_Metal_State_Penalty>
0.496292

> <b_epik_Metal_Only>
1

> <s_epik_Chemistry_Notes>
This compound has an ester and may undergo hydrolysis at high or low pH. This compound contains an acetal/aminal-like group ( X-CH(R)-Y where X, Y are N, S, or O) that may be acid/base labile, releasing an aldehyde.

> <s_lp_Force_Field>
OPLS_2005

> <r_lp_Energy>
50.8657

> <b_lp_Chiralities_Consistent>
1

> <s_lp_Variant>
AV-unprocessed.smi:34-20

> <Gold.Version>
5.8.1

> <Gold.Id.Protein>
6NUR|6NUR_protein|mol2

> <Gold.PLP.Fitness>
67.2371

> <Gold.PLP.PLP>
-69.1605

> <Gold.PLP.part.hbond>
-3.7170

> <Gold.PLP.part.metal>
0.0000

> <Gold.PLP.part.buried>
-4.3228

> <Gold.PLP.part.nonpolar>
-63.9141

> <Gold.PLP.part.repulsive>
2.8332

> <Gold.PLP.ligand.clash>
2.4647

> <Gold.PLP.ligand.torsion>
1.6338

> <Gold.PLP.Chemscore.Hbond>
1.0000

> <Gold.PLP.Chemscore.CHOScore>
0.0000

> <Gold.PLP.Chemscore.Metal>
0.0000

> <Gold.Chemscore.Hbonds>
donor molecule, donor type, donor heavy atom, donor atom, acceptor molecule, acceptor atom, score
      P1  H  7997  8010       L1    19  0.08
      L1  C     6    36       P1 10174  0.03

> <Gold.PLP.Chemscore.Internal.Correction>
0.8089

> <Gold.Rescore>
     Score         DG    S(hbond)    S(metal)    S(lipo)     H(rot)  DE(clash)    DE(int)     intcor
     14.66     -19.14       1.25        0.00     140.04       2.69       1.75       2.72       ----

> <Gold.Chemscore.Fitness>
14.6616

> <Gold.Chemscore.DG>
-19.1377

> <Gold.Chemscore.ZeroCoef>
-5.4800

> <Gold.Chemscore.Hbond>
1.2487

> <Gold.Chemscore.Metal>
0.0000

> <Gold.Chemscore.Lipo>
140.0401

> <Gold.Chemscore.Internal_Hbond>
0.0000

> <Gold.Chemscore.DEClash>
1.7517

> <Gold.Chemscore.DEInternal>
2.7245

> <Gold.Chemscore.Rot>
2.6944

> <Gold.Chemscore.Internal.Correction>
   9.000000E+99

> <Gold.Chemscore.Hbonds>
donor molecule, donor type, donor heavy atom, donor atom, acceptor molecule, acceptor atom, score
      L1  H    29    49       P1 10175  0.01
      P1  H  7997  8010       L1    19  0.08

> <Gold.Chemscore.Hbond.Weighted>
-4.1705

> <Gold.Chemscore.Metal.Weighted>
-0.0000

> <Gold.Chemscore.Lipo.Weighted>
-16.3847

> <Gold.Chemscore.Internal_Hbond.Weighted>
0.0000

> <Gold.Chemscore.DEClash.Weighted>
1.7517

> <Gold.Chemscore.DEInternal.Weighted>
2.7245

> <Gold.Chemscore.Rot.Weighted>
6.8975

> <Gold.Chemscore.Internal.Correction.Weighted>
   9.000000E+99

> <Gold.Protein.RotatedTorsions>
[ 6907 6896 6895 6894 ] final  116.21 input  -60.11 | X-H torsion
[ 7974 7965 7964 7962 ] final  -48.72 input  175.53 | X-H torsion
[ 8008 7997 7996 7995 ] final   25.92 input   59.86 | X-H torsion
[ 10167 10162 10161 10158 ] final  168.87 input  -65.29 | X-H torsion
[ 10718 10713 10712 10709 ] final  -36.40 input   66.30 | X-H torsion
[ 10763 10752 10751 10750 ] final   61.87 input  -60.55 | X-H torsion
[ 11005 11000 10999 10996 ] final   16.16 input  -57.11 | X-H torsion

> <Gold.Protein.ActiveResidues>
 VAL166  LYS551  ARG553  GLY616  TRP617  ASP618  TYR619  PRO620  LYS621  CYS622 
 ASP623  PHE694  ASN695  SER759  ASP760  ASP761  ALA762  ILE779  LEU786  VAL792 
 PHE793  MET794  SER795  GLU796  ALA797  LYS798  CYS799  TRP800  GLU811  SER814 

> <Gold.Protein.RotatedAtoms>
  152.4693  133.7992  159.6943 H   0  0  0  0  0  0  0  0  0  0  0  0  # atno 6907 bound_to 6896
  150.8673  133.7546  159.2979 H   0  0  0  0  0  0  0  0  0  0  0  0  # atno 6908 bound_to 6896
  151.5093  135.1067  159.9901 H   0  0  0  0  0  0  0  0  0  0  0  0  # atno 6909 bound_to 6896
  145.9482  140.7598  142.9518 H   0  0  0  0  0  0  0  0  0  0  0  0  # atno 7974 bound_to 7965
  155.0191  140.3145  155.4800 H   0  0  0  0  0  0  0  0  0  0  0  0  # atno 8008 bound_to 7997
  156.2895  140.2200  156.5251 H   0  0  0  0  0  0  0  0  0  0  0  0  # atno 8009 bound_to 7997
  154.7467  140.0469  157.0846 H   0  0  0  0  0  0  0  0  0  0  0  0  # atno 8010 bound_to 7997
  139.4978  144.3768  151.9666 H   0  0  0  0  0  0  0  0  0  0  0  0  # atno 10167 bound_to 10162
  156.3273  130.4274  149.7905 H   0  0  0  0  0  0  0  0  0  0  0  0  # atno 10718 bound_to 10713
  152.9964  135.5485  154.6103 H   0  0  0  0  0  0  0  0  0  0  0  0  # atno 10763 bound_to 10752
  154.5425  135.2821  155.1085 H   0  0  0  0  0  0  0  0  0  0  0  0  # atno 10764 bound_to 10752
  154.2357  135.6425  153.5242 H   0  0  0  0  0  0  0  0  0  0  0  0  # atno 10765 bound_to 10752
  140.4502  134.1232  155.7701 H   0  0  0  0  0  0  0  0  0  0  0  0  # atno 11005 bound_to 11000
  144.6791  140.2391  143.7346 LP  0  0  0  0  0  0  0  0  0  0  0  0  # atno 17320 bound_to 7965
  145.8207  139.2043  143.1939 LP  0  0  0  0  0  0  0  0  0  0  0  0  # atno 17321 bound_to 7965
  140.3204  144.3434  150.6011 LP  0  0  0  0  0  0  0  0  0  0  0  0  # atno 17342 bound_to 10162
  140.5727  143.2179  151.7570 LP  0  0  0  0  0  0  0  0  0  0  0  0  # atno 17343 bound_to 10162
  156.5191  130.8207  151.3197 LP  0  0  0  0  0  0  0  0  0  0  0  0  # atno 17370 bound_to 10713
  157.7423  130.9889  150.2511 LP  0  0  0  0  0  0  0  0  0  0  0  0  # atno 17371 bound_to 10713
  141.1667  133.8688  157.1693 LP  0  0  0  0  0  0  0  0  0  0  0  0  # atno 17394 bound_to 11000
  140.0012  135.0027  157.0193 LP  0  0  0  0  0  0  0  0  0  0  0  0  # atno 17395 bound_to 11000

$$$$
