AV-unprocessed.smi:3122|AV-procd|sdf|11899|dock3
  -GOLD-   2272017283D 1   1.00000     0.00000
 Structure written by MMmdl.
 29 30  0  0  0  0  0  0  0  0  1 V2000
  151.8627  144.1085  161.3143 C   0  0  0  0  0  0  0  0  0  0  0  0
  152.6235  143.8738  160.0013 C   0  0  0  0  0  0  0  0  0  0  0  0
  152.0767  144.7286  158.8491 C   0  0  0  0  0  0  0  0  0  0  0  0
  152.6707  142.4234  159.6365 C   0  0  0  0  0  0  0  0  0  0  0  0
  153.0911  141.4065  160.3945 N   0  0  0  0  0  0  0  0  0  0  0  0
  152.8888  140.2696  159.6449 N   0  0  0  0  0  0  0  0  0  0  0  0
  152.3684  140.6842  158.4870 C   0  0  0  0  0  0  0  0  0  0  0  0
  151.9106  139.8331  157.3470 C   0  0  1  0  0  0  0  0  0  0  0  0
  151.4163  140.6708  156.1517 C   0  0  0  0  0  0  0  0  0  0  0  0
  151.0657  139.7983  155.0319 N   0  0  0  0  0  0  0  0  0  0  0  0
  152.1823  138.9259  154.6711 C   0  0  0  0  0  0  0  0  0  0  0  0
  152.6633  138.1350  155.9010 C   0  0  0  0  0  0  0  0  0  0  0  0
  153.0224  139.0395  156.9400 O   0  0  0  0  0  0  0  0  0  0  0  0
  152.1773  142.0289  158.4340 O   0  0  0  0  0  0  0  0  0  0  0  0
  152.3099  143.5431  162.1325 H   0  0  0  0  0  0  0  0  0  0  0  0
  150.8193  143.8030  161.2293 H   0  0  0  0  0  0  0  0  0  0  0  0
  151.8784  145.1621  161.5944 H   0  0  0  0  0  0  0  0  0  0  0  0
  153.6532  144.1912  160.1718 H   0  0  0  0  0  0  0  0  0  0  0  0
  152.6757  144.6005  157.9471 H   0  0  0  0  0  0  0  0  0  0  0  0
  152.0886  145.7882  159.1056 H   0  0  0  0  0  0  0  0  0  0  0  0
  151.0487  144.4566  158.6073 H   0  0  0  0  0  0  0  0  0  0  0  0
  151.1114  139.1830  157.7086 H   0  0  0  0  0  0  0  0  0  0  0  0
  150.5535  141.2705  156.4428 H   0  0  0  0  0  0  0  0  0  0  0  0
  152.1951  141.3699  155.8443 H   0  0  0  0  0  0  0  0  0  0  0  0
  150.8018  140.3625  154.2304 H   0  0  0  0  0  0  0  0  0  0  0  0
  151.8816  138.2405  153.8785 H   0  0  0  0  0  0  0  0  0  0  0  0
  153.0057  139.5216  154.2748 H   0  0  0  0  0  0  0  0  0  0  0  0
  151.8919  137.4461  156.2493 H   0  0  0  0  0  0  0  0  0  0  0  0
  153.5339  137.5323  155.6424 H   0  0  0  0  0  0  0  0  0  0  0  0
  1  2  1  0  0  0  0
  1 15  1  0  0  0  0
  1 16  1  0  0  0  0
  1 17  1  0  0  0  0
  2  3  1  0  0  0  0
  2  4  1  0  0  0  0
  2 18  1  0  0  0  0
  3 19  1  0  0  0  0
  3 20  1  0  0  0  0
  3 21  1  0  0  0  0
  4 14  1  0  0  0  0
  4  5  2  0  0  0  0
  5  6  1  0  0  0  0
  6  7  2  0  0  0  0
  7  8  1  0  0  0  0
  7 14  1  0  0  0  0
  8 13  1  0  0  0  0
  8  9  1  0  0  0  0
  8 22  1  0  0  0  0
  9 10  1  0  0  0  0
  9 23  1  0  0  0  0
  9 24  1  0  0  0  0
 10 11  1  0  0  0  0
 10 25  1  0  0  0  0
 11 12  1  0  0  0  0
 11 26  1  0  0  0  0
 11 27  1  0  0  0  0
 12 13  1  0  0  0  0
 12 28  1  0  0  0  0
 12 29  1  0  0  0  0
M  END
> <s_m_source_file>
AV-unprocessed.smi

> <i_m_source_file_index>
3122

> <i_lp_mmshare_version>
43012

> <i_f3d_flags>
0

> <s_epik_input>
W0NIM11bQ0hdKFtDSDNdKWMxbm5jKG8xKVtDQEBIXTJbQ0gyXVtOSF1bQ0gyXVtDSDJdTzI=

> <s_epik_cmdline>
J2VwaWtfcHl0aG9uJywgJy1waCcsICc3LjAnLCAnLXRuJywgJzgnLCAnLW1hJywgJzIwMCcsICctbWV0YWxfYmluZGluZycsICctaW1hZScsICc8aW5maWxlLm1hZT4nLCAnLW9tYWUnLCAnPG91dGZpbGUubWFlPic=

> <r_lp_tautomer_probability>
1

> <r_epik_Ionization_Penalty>
1.64488

> <r_epik_Ionization_Penalty_Charging>
0

> <r_epik_Ionization_Penalty_Neutral>
1.64488

> <r_epik_State_Penalty>
1.74649

> <r_epik_Charging_Adjusted_Penalty>
1.74649

> <i_epik_Tot_Q>
0

> <i_epik_Tot_abs_Q>
0

> <r_epik_Metal_State_Penalty>
1.74649

> <b_epik_Metal_Only>
0

> <s_lp_Force_Field>
OPLS_2005

> <r_lp_Energy>
11.3744

> <b_lp_Chiralities_Consistent>
1

> <s_lp_Variant>
AV-unprocessed.smi:3122-4

> <Gold.Version>
5.8.1

> <Gold.Id.Protein>
6NUR|6NUR_protein|mol2

> <Gold.PLP.Fitness>
34.2371

> <Gold.PLP.PLP>
-31.3323

> <Gold.PLP.part.hbond>
-2.0000

> <Gold.PLP.part.metal>
0.0000

> <Gold.PLP.part.buried>
-4.5662

> <Gold.PLP.part.nonpolar>
-25.0610

> <Gold.PLP.part.repulsive>
0.0000

> <Gold.PLP.ligand.clash>
0.0000

> <Gold.PLP.ligand.torsion>
0.0904

> <Gold.PLP.Chemscore.Hbond>
1.0000

> <Gold.PLP.Chemscore.CHOScore>
0.0000

> <Gold.PLP.Chemscore.Metal>
0.0000

> <Gold.Chemscore.Hbonds>
donor molecule, donor type, donor heavy atom, donor atom, acceptor molecule, acceptor atom, score
      P1  H  7997  8008       L1    13  1.00

> <Gold.PLP.Chemscore.Internal.Correction>
0.0856

> <Gold.Rescore>
     Score         DG    S(hbond)    S(metal)    S(lipo)     H(rot)  DE(clash)    DE(int)     intcor
     13.20     -13.27       0.97        0.00      66.01       1.24       0.01       0.06       ----

> <Gold.Chemscore.Fitness>
13.2000

> <Gold.Chemscore.DG>
-13.2673

> <Gold.Chemscore.ZeroCoef>
-5.4800

> <Gold.Chemscore.Hbond>
0.9715

> <Gold.Chemscore.Metal>
0.0000

> <Gold.Chemscore.Lipo>
66.0053

> <Gold.Chemscore.Internal_Hbond>
0.0000

> <Gold.Chemscore.DEClash>
0.0111

> <Gold.Chemscore.DEInternal>
0.0563

> <Gold.Chemscore.Rot>
1.2422

> <Gold.Chemscore.Internal.Correction>
   9.000000E+99

> <Gold.Chemscore.Hbonds>
donor molecule, donor type, donor heavy atom, donor atom, acceptor molecule, acceptor atom, score
      P1  H  7997  8008       L1    13  0.71

> <Gold.Chemscore.Hbond.Weighted>
-3.2447

> <Gold.Chemscore.Metal.Weighted>
-0.0000

> <Gold.Chemscore.Lipo.Weighted>
-7.7226

> <Gold.Chemscore.Internal_Hbond.Weighted>
0.0000

> <Gold.Chemscore.DEClash.Weighted>
0.0111

> <Gold.Chemscore.DEInternal.Weighted>
0.0563

> <Gold.Chemscore.Rot.Weighted>
3.1799

> <Gold.Chemscore.Internal.Correction.Weighted>
   9.000000E+99

> <Gold.Protein.RotatedTorsions>
[ 6907 6896 6895 6894 ] final  -43.52 input  -60.11 | X-H torsion
[ 7974 7965 7964 7962 ] final -110.88 input  175.53 | X-H torsion
[ 8008 7997 7996 7995 ] final  -64.79 input   59.86 | X-H torsion
[ 10167 10162 10161 10158 ] final  -30.60 input  -65.29 | X-H torsion
[ 10718 10713 10712 10709 ] final   89.57 input   66.30 | X-H torsion
[ 10763 10752 10751 10750 ] final -111.66 input  -60.55 | X-H torsion
[ 11005 11000 10999 10996 ] final  -67.98 input  -57.11 | X-H torsion

> <Gold.Protein.ActiveResidues>
 VAL166  LYS551  ARG553  GLY616  TRP617  ASP618  TYR619  PRO620  LYS621  CYS622 
 ASP623  PHE694  ASN695  SER759  ASP760  ASP761  ALA762  ILE779  LEU786  VAL792 
 PHE793  MET794  SER795  GLU796  ALA797  LYS798  CYS799  TRP800  GLU811  SER814 

> <Gold.Protein.RotatedAtoms>
  150.9430  134.8837  159.7623 H   0  0  0  0  0  0  0  0  0  0  0  0  # atno 6907 bound_to 6896
  152.5088  134.3915  159.9395 H   0  0  0  0  0  0  0  0  0  0  0  0  # atno 6908 bound_to 6896
  151.3935  133.3741  159.2758 H   0  0  0  0  0  0  0  0  0  0  0  0  # atno 6909 bound_to 6896
  145.1629  140.8887  143.3580 H   0  0  0  0  0  0  0  0  0  0  0  0  # atno 7974 bound_to 7965
  154.4632  140.0946  156.6950 H   0  0  0  0  0  0  0  0  0  0  0  0  # atno 8008 bound_to 7997
  155.4933  140.3471  155.4340 H   0  0  0  0  0  0  0  0  0  0  0  0  # atno 8009 bound_to 7997
  156.0909  140.1397  156.9582 H   0  0  0  0  0  0  0  0  0  0  0  0  # atno 8010 bound_to 7997
  140.7247  143.3836  151.1556 H   0  0  0  0  0  0  0  0  0  0  0  0  # atno 10167 bound_to 10162
  157.6956  131.0338  150.3446 H   0  0  0  0  0  0  0  0  0  0  0  0  # atno 10718 bound_to 10713
  154.8311  135.4519  154.1074 H   0  0  0  0  0  0  0  0  0  0  0  0  # atno 10763 bound_to 10752
  153.2346  135.6909  153.7857 H   0  0  0  0  0  0  0  0  0  0  0  0  # atno 10764 bound_to 10752
  153.7227  135.3339  155.3246 H   0  0  0  0  0  0  0  0  0  0  0  0  # atno 10765 bound_to 10752
  141.1521  133.6730  156.6375 H   0  0  0  0  0  0  0  0  0  0  0  0  # atno 11005 bound_to 11000
  145.0312  139.3339  143.6023 LP  0  0  0  0  0  0  0  0  0  0  0  0  # atno 17320 bound_to 7965
  146.3480  139.9650  142.8713 LP  0  0  0  0  0  0  0  0  0  0  0  0  # atno 17321 bound_to 7965
  139.7429  143.8896  152.3055 LP  0  0  0  0  0  0  0  0  0  0  0  0  # atno 17342 bound_to 10162
  139.8724  144.7061  150.8973 LP  0  0  0  0  0  0  0  0  0  0  0  0  # atno 17343 bound_to 10162
  156.3902  130.3896  149.7035 LP  0  0  0  0  0  0  0  0  0  0  0  0  # atno 17370 bound_to 10713
  156.4388  130.7851  151.2872 LP  0  0  0  0  0  0  0  0  0  0  0  0  # atno 17371 bound_to 10713
  140.3419  134.7842  157.4404 LP  0  0  0  0  0  0  0  0  0  0  0  0  # atno 17394 bound_to 11000
  140.0931  134.5574  155.8425 LP  0  0  0  0  0  0  0  0  0  0  0  0  # atno 17395 bound_to 11000

$$$$
