AV-unprocessed.smi:1203|AV-procd|sdf|5033|dock3
  -GOLD-   22720 4 53D 1   1.00000     0.00000
 Structure written by MMmdl.
 39 40  0  0  0  0  0  0  0  0  1 V2000
  157.4885  146.1008  167.7583 C   0  0  0  0  0  0  0  0  0  0  0  0
  158.4710  144.6069  167.3298 S   0  0  0  0  0  0  0  0  0  0  0  0
  159.2789  144.9136  166.1399 O   0  0  0  0  0  0  0  0  0  0  0  0
  159.1211  144.0904  168.5440 O   0  0  0  0  0  0  0  0  0  0  0  0
  157.2540  143.4708  166.8562 N   0  0  0  0  0  0  0  0  0  0  0  0
  157.0045  142.3074  167.7215 C   0  0  0  0  0  0  0  0  0  0  0  0
  156.5142  141.1944  166.7972 C   0  0  0  0  0  0  0  0  0  0  0  0
  157.1861  141.5288  165.4729 C   0  0  0  0  0  0  0  0  0  0  0  0
  157.1843  143.0672  165.4413 C   0  0  1  0  0  0  0  0  0  0  0  0
  155.9748  143.6776  164.7145 C   0  0  0  0  0  0  0  0  0  0  0  0
  155.8633  144.8959  164.5718 O   0  0  0  0  0  0  0  0  0  0  0  0
  155.0702  142.8049  164.2495 N   0  0  0  0  0  0  0  0  0  0  0  0
  153.8567  143.1698  163.5295 C   0  0  0  0  0  0  0  0  0  0  0  0
  153.5739  142.1966  162.3728 C   0  0  0  0  0  0  0  0  0  0  0  0
  152.5927  142.7445  161.3507 C   0  0  0  0  0  0  0  0  0  0  0  0
  151.8738  143.9306  161.6049 C   0  0  0  0  0  0  0  0  0  0  0  0
  150.9659  144.3952  160.6342 C   0  0  0  0  0  0  0  0  0  0  0  0
  150.8167  143.6526  159.4459 C   0  0  0  0  0  0  0  0  0  0  0  0
  151.5027  142.5182  159.1894 N   0  0  0  0  0  0  0  0  0  0  0  0
  152.3716  142.0797  160.1253 C   0  0  0  0  0  0  0  0  0  0  0  0
  158.1636  146.9070  168.0442 H   0  0  0  0  0  0  0  0  0  0  0  0
  156.8223  145.8767  168.5909 H   0  0  0  0  0  0  0  0  0  0  0  0
  156.9006  146.4096  166.8943 H   0  0  0  0  0  0  0  0  0  0  0  0
  157.9338  142.0061  168.2060 H   0  0  0  0  0  0  0  0  0  0  0  0
  156.2800  142.5511  168.4990 H   0  0  0  0  0  0  0  0  0  0  0  0
  156.7689  140.1992  167.1620 H   0  0  0  0  0  0  0  0  0  0  0  0
  155.4300  141.2475  166.6906 H   0  0  0  0  0  0  0  0  0  0  0  0
  158.2149  141.1660  165.4802 H   0  0  0  0  0  0  0  0  0  0  0  0
  156.6886  141.0618  164.6218 H   0  0  0  0  0  0  0  0  0  0  0  0
  158.0830  143.4018  164.9204 H   0  0  0  0  0  0  0  0  0  0  0  0
  155.2343  141.8201  164.4048 H   0  0  0  0  0  0  0  0  0  0  0  0
  153.0216  143.1647  164.2315 H   0  0  0  0  0  0  0  0  0  0  0  0
  153.9415  144.1866  163.1429 H   0  0  0  0  0  0  0  0  0  0  0  0
  154.5065  141.9475  161.8654 H   0  0  0  0  0  0  0  0  0  0  0  0
  153.1862  141.2587  162.7727 H   0  0  0  0  0  0  0  0  0  0  0  0
  152.0120  144.4728  162.5289 H   0  0  0  0  0  0  0  0  0  0  0  0
  150.3964  145.2984  160.7964 H   0  0  0  0  0  0  0  0  0  0  0  0
  150.1284  143.9794  158.6805 H   0  0  0  0  0  0  0  0  0  0  0  0
  152.9012  141.1681  159.8902 H   0  0  0  0  0  0  0  0  0  0  0  0
  1  2  1  0  0  0  0
  1 21  1  0  0  0  0
  1 22  1  0  0  0  0
  1 23  1  0  0  0  0
  2  3  2  0  0  0  0
  2  4  2  0  0  0  0
  2  5  1  0  0  0  0
  5  9  1  0  0  0  0
  5  6  1  0  0  0  0
  6  7  1  0  0  0  0
  6 24  1  0  0  0  0
  6 25  1  0  0  0  0
  7  8  1  0  0  0  0
  7 26  1  0  0  0  0
  7 27  1  0  0  0  0
  8  9  1  0  0  0  0
  8 28  1  0  0  0  0
  8 29  1  0  0  0  0
  9 10  1  0  0  0  0
  9 30  1  0  0  0  0
 10 11  2  0  0  0  0
 10 12  1  0  0  0  0
 12 13  1  0  0  0  0
 12 31  1  0  0  0  0
 13 14  1  0  0  0  0
 13 32  1  0  0  0  0
 13 33  1  0  0  0  0
 14 15  1  0  0  0  0
 14 34  1  0  0  0  0
 14 35  1  0  0  0  0
 15 20  1  0  0  0  0
 15 16  2  0  0  0  0
 16 17  1  0  0  0  0
 16 36  1  0  0  0  0
 17 18  2  0  0  0  0
 17 37  1  0  0  0  0
 18 19  1  0  0  0  0
 18 38  1  0  0  0  0
 19 20  2  0  0  0  0
 20 39  1  0  0  0  0
M  END
> <s_m_source_file>
AV-unprocessed.smi

> <i_m_source_file_index>
1203

> <i_lp_mmshare_version>
43012

> <i_f3d_flags>
0

> <s_epik_input>
W0NIM11TKD1PKSg9TylOMVtDSDJdW0NIMl1bQ0gyXVtDQEhdMUMoPU8pW05IXVtDSDJdW0NIMl1jMltjSF1bY0hdW2NIXW5bY0hdMg==

> <s_epik_cmdline>
J2VwaWtfcHl0aG9uJywgJy1waCcsICc3LjAnLCAnLXRuJywgJzgnLCAnLW1hJywgJzIwMCcsICctbWV0YWxfYmluZGluZycsICctaW1hZScsICc8aW5maWxlLm1hZT4nLCAnLW9tYWUnLCAnPG91dGZpbGUubWFlPic=

> <r_epik_Ionization_Penalty>
0.0126915

> <r_epik_Ionization_Penalty_Charging>
0

> <r_epik_Ionization_Penalty_Neutral>
0.0126915

> <r_epik_State_Penalty>
0.0098379

> <r_epik_Charging_Adjusted_Penalty>
0.0098379

> <i_epik_Tot_Q>
0

> <i_epik_Tot_abs_Q>
0

> <r_epik_Metal_State_Penalty>
0.00962905

> <b_epik_Metal_Only>
0

> <s_lp_Force_Field>
OPLS_2005

> <r_lp_Energy>
6.50252

> <b_lp_Chiralities_Consistent>
1

> <s_lp_Variant>
AV-unprocessed.smi:1203-1

> <Gold.Version>
5.8.1

> <Gold.Id.Protein>
6NUR|6NUR_protein|mol2

> <Gold.PLP.Fitness>
44.0744

> <Gold.PLP.PLP>
-44.6942

> <Gold.PLP.part.hbond>
-2.3219

> <Gold.PLP.part.metal>
0.0000

> <Gold.PLP.part.buried>
-7.8043

> <Gold.PLP.part.nonpolar>
-33.5961

> <Gold.PLP.part.repulsive>
0.2419

> <Gold.PLP.ligand.clash>
0.0000

> <Gold.PLP.ligand.torsion>
0.5724

> <Gold.PLP.Chemscore.Hbond>
0.0000

> <Gold.PLP.Chemscore.CHOScore>
0.0000

> <Gold.PLP.Chemscore.Metal>
0.0000

> <Gold.PLP.Chemscore.Internal.Correction>
0.5250

> <Gold.Rescore>
     Score         DG    S(hbond)    S(metal)    S(lipo)     H(rot)  DE(clash)    DE(int)     intcor
     12.80     -13.31       0.00        0.00     108.45       1.90       0.05       0.46       ----

> <Gold.Chemscore.Fitness>
12.7964

> <Gold.Chemscore.DG>
-13.3071

> <Gold.Chemscore.ZeroCoef>
-5.4800

> <Gold.Chemscore.Hbond>
0.0000

> <Gold.Chemscore.Metal>
0.0000

> <Gold.Chemscore.Lipo>
108.4481

> <Gold.Chemscore.Internal_Hbond>
0.0000

> <Gold.Chemscore.DEClash>
0.0480

> <Gold.Chemscore.DEInternal>
0.4627

> <Gold.Chemscore.Rot>
1.8990

> <Gold.Chemscore.Internal.Correction>
   9.000000E+99

> <Gold.Chemscore.Hbond.Weighted>
-0.0000

> <Gold.Chemscore.Metal.Weighted>
-0.0000

> <Gold.Chemscore.Lipo.Weighted>
-12.6884

> <Gold.Chemscore.Internal_Hbond.Weighted>
0.0000

> <Gold.Chemscore.DEClash.Weighted>
0.0480

> <Gold.Chemscore.DEInternal.Weighted>
0.4627

> <Gold.Chemscore.Rot.Weighted>
4.8613

> <Gold.Chemscore.Internal.Correction.Weighted>
   9.000000E+99

> <Gold.Protein.RotatedTorsions>
[ 6907 6896 6895 6894 ] final   75.62 input  -60.11 | X-H torsion
[ 7974 7965 7964 7962 ] final    0.45 input  175.53 | X-H torsion
[ 8008 7997 7996 7995 ] final   97.67 input   59.86 | X-H torsion
[ 10167 10162 10161 10158 ] final  -52.45 input  -65.29 | X-H torsion
[ 10718 10713 10712 10709 ] final  179.77 input   66.30 | X-H torsion
[ 10763 10752 10751 10750 ] final  162.56 input  -60.55 | X-H torsion
[ 11005 11000 10999 10996 ] final -137.02 input  -57.11 | X-H torsion

> <Gold.Protein.ActiveResidues>
 VAL166  LYS551  ARG553  GLY616  TRP617  ASP618  TYR619  PRO620  LYS621  CYS622 
 ASP623  PHE694  ASN695  SER759  ASP760  ASP761  ALA762  ILE779  LEU786  VAL792 
 PHE793  MET794  SER795  GLU796  ALA797  LYS798  CYS799  TRP800  GLU811  SER814 

> <Gold.Protein.RotatedAtoms>
  152.5035  134.4092  159.9442 H   0  0  0  0  0  0  0  0  0  0  0  0  # atno 6907 bound_to 6896
  151.4060  133.3736  159.2746 H   0  0  0  0  0  0  0  0  0  0  0  0  # atno 6908 bound_to 6896
  150.9327  134.8762  159.7620 H   0  0  0  0  0  0  0  0  0  0  0  0  # atno 6909 bound_to 6896
  146.2434  140.1137  142.8343 H   0  0  0  0  0  0  0  0  0  0  0  0  # atno 7974 bound_to 7965
  156.0926  140.3255  155.7835 H   0  0  0  0  0  0  0  0  0  0  0  0  # atno 8008 bound_to 7997
  155.4972  140.0566  157.2962 H   0  0  0  0  0  0  0  0  0  0  0  0  # atno 8009 bound_to 7997
  154.4647  140.1983  156.0167 H   0  0  0  0  0  0  0  0  0  0  0  0  # atno 8010 bound_to 7997
  140.6537  143.2583  151.4650 H   0  0  0  0  0  0  0  0  0  0  0  0  # atno 10167 bound_to 10162
  156.8708  130.9783  151.3073 H   0  0  0  0  0  0  0  0  0  0  0  0  # atno 10718 bound_to 10713
  154.2802  135.2763  155.2700 H   0  0  0  0  0  0  0  0  0  0  0  0  # atno 10763 bound_to 10752
  154.5225  135.5752  153.6695 H   0  0  0  0  0  0  0  0  0  0  0  0  # atno 10764 bound_to 10752
  152.9930  135.6208  154.2961 H   0  0  0  0  0  0  0  0  0  0  0  0  # atno 10765 bound_to 10752
  140.8751  134.2002  157.4627 H   0  0  0  0  0  0  0  0  0  0  0  0  # atno 11005 bound_to 11000
  145.0466  140.8986  143.5021 LP  0  0  0  0  0  0  0  0  0  0  0  0  # atno 17320 bound_to 7965
  145.1227  139.2683  143.5580 LP  0  0  0  0  0  0  0  0  0  0  0  0  # atno 17321 bound_to 7965
  139.5755  144.1828  152.1897 LP  0  0  0  0  0  0  0  0  0  0  0  0  # atno 17342 bound_to 10162
  140.1137  144.5434  150.6908 LP  0  0  0  0  0  0  0  0  0  0  0  0  # atno 17343 bound_to 10162
  157.6197  130.8645  149.9087 LP  0  0  0  0  0  0  0  0  0  0  0  0  # atno 17370 bound_to 10713
  156.0727  130.3683  150.0741 LP  0  0  0  0  0  0  0  0  0  0  0  0  # atno 17371 bound_to 10713
  139.8715  134.9792  156.5026 LP  0  0  0  0  0  0  0  0  0  0  0  0  # atno 17394 bound_to 11000
  140.8528  133.8119  155.9185 LP  0  0  0  0  0  0  0  0  0  0  0  0  # atno 17395 bound_to 11000

$$$$
