AV-unprocessed.smi:1579|AV-procd|sdf|6356|dock9
  -GOLD-   22720 6583D 1   1.00000     0.00000
 Structure written by MMmdl.
 47 48  0  0  0  0  0  0  0  0  2 V2000
  149.9878  129.6130  154.1434 C   0  0  0  0  0  0  0  0  0  0  0  0
  150.6450  130.6477  155.0163 C   0  0  0  0  0  0  0  0  0  0  0  0
  150.0222  131.7719  155.1549 N   0  0  0  0  0  0  0  0  0  0  0  0
  150.5377  132.7907  155.9322 N   0  0  0  0  0  0  0  0  0  0  0  0
  149.6950  133.9938  155.9657 C   0  0  0  0  0  0  0  0  0  0  0  0
  149.1539  134.3782  154.5710 C   0  0  2  0  0  0  0  0  0  0  0  0
  149.5585  135.7089  154.3149 O   0  0  0  0  0  0  0  0  0  0  0  0
  147.6145  134.2896  154.4659 C   0  0  0  0  0  0  0  0  0  0  0  0
  147.1223  134.2491  153.0645 N   0  3  2  0  0  0  0  0  0  0  0  0
  145.7221  134.7339  152.9542 C   0  0  0  0  0  0  0  0  0  0  0  0
  145.2703  134.8135  151.4851 C   0  0  0  0  0  0  0  0  0  0  0  0
  145.4333  133.4699  150.7525 C   0  0  2  0  0  0  0  0  0  0  0  0
  144.3764  132.4320  151.1698 C   0  0  0  0  0  0  0  0  0  0  0  0
  146.8741  132.9608  150.9373 C   0  0  0  0  0  0  0  0  0  0  0  0
  147.2928  132.9201  152.4181 C   0  0  0  0  0  0  0  0  0  0  0  0
  151.7137  132.7216  156.6199 C   0  0  0  0  0  0  0  0  0  0  0  0
  152.1287  133.6465  157.3197 O   0  0  0  0  0  0  0  0  0  0  0  0
  152.4149  131.4460  156.4582 C   0  0  0  0  0  0  0  0  0  0  0  0
  153.6507  131.3324  157.1630 C   0  0  0  0  0  0  0  0  0  0  0  0
  154.6574  131.2594  157.7293 N   0  0  0  0  0  0  0  0  0  0  0  0
  151.9199  130.4400  155.6948 C   0  0  0  0  0  0  0  0  0  0  0  0
  152.6084  129.0965  155.4967 C   0  0  0  0  0  0  0  0  0  0  0  0
  150.6377  129.3377  153.3127 H   0  0  0  0  0  0  0  0  0  0  0  0
  149.0491  129.9737  153.7201 H   0  0  0  0  0  0  0  0  0  0  0  0
  149.7660  128.7103  154.7129 H   0  0  0  0  0  0  0  0  0  0  0  0
  148.8713  133.8911  156.6747 H   0  0  0  0  0  0  0  0  0  0  0  0
  150.2978  134.8160  156.3572 H   0  0  0  0  0  0  0  0  0  0  0  0
  149.6320  133.7401  153.8288 H   0  0  0  0  0  0  0  0  0  0  0  0
  149.3489  135.9278  153.4202 H   0  0  0  0  0  0  0  0  0  0  0  0
  147.2382  133.4074  154.9842 H   0  0  0  0  0  0  0  0  0  0  0  0
  147.1868  135.1499  154.9833 H   0  0  0  0  0  0  0  0  0  0  0  0
  145.0612  134.0800  153.5251 H   0  0  0  0  0  0  0  0  0  0  0  0
  145.6425  135.7258  153.4011 H   0  0  0  0  0  0  0  0  0  0  0  0
  144.2351  135.1517  151.4293 H   0  0  0  0  0  0  0  0  0  0  0  0
  145.8636  135.5731  150.9739 H   0  0  0  0  0  0  0  0  0  0  0  0
  145.2820  133.6535  149.6877 H   0  0  0  0  0  0  0  0  0  0  0  0
  144.4401  132.1801  152.2280 H   0  0  0  0  0  0  0  0  0  0  0  0
  144.4932  131.5071  150.6043 H   0  0  0  0  0  0  0  0  0  0  0  0
  143.3689  132.8039  150.9809 H   0  0  0  0  0  0  0  0  0  0  0  0
  146.9864  131.9730  150.4889 H   0  0  0  0  0  0  0  0  0  0  0  0
  147.5568  133.6166  150.3948 H   0  0  0  0  0  0  0  0  0  0  0  0
  148.3326  132.6011  152.4740 H   0  0  0  0  0  0  0  0  0  0  0  0
  146.7103  132.1719  152.9573 H   0  0  0  0  0  0  0  0  0  0  0  0
  153.5507  129.0315  156.0399 H   0  0  0  0  0  0  0  0  0  0  0  0
  152.8277  128.9310  154.4416 H   0  0  0  0  0  0  0  0  0  0  0  0
  151.9719  128.2836  155.8477 H   0  0  0  0  0  0  0  0  0  0  0  0
  147.6855  134.9068  152.5449 H   0  0  0  0  0  0  0  0  0  0  0  0
  1  2  1  0  0  0  0
  1 23  1  0  0  0  0
  1 24  1  0  0  0  0
  1 25  1  0  0  0  0
  2 21  1  0  0  0  0
  2  3  2  0  0  0  0
  3  4  1  0  0  0  0
  4  5  1  0  0  0  0
  4 16  1  0  0  0  0
  5  6  1  0  0  0  0
  5 26  1  0  0  0  0
  5 27  1  0  0  0  0
  6  7  1  0  0  0  0
  6  8  1  0  0  0  0
  6 28  1  0  0  0  0
  7 29  1  0  0  0  0
  8  9  1  0  0  0  0
  8 30  1  0  0  0  0
  8 31  1  0  0  0  0
  9 15  1  0  0  0  0
  9 10  1  0  0  0  0
  9 47  1  0  0  0  0
 10 11  1  0  0  0  0
 10 32  1  0  0  0  0
 10 33  1  0  0  0  0
 11 12  1  0  0  0  0
 11 34  1  0  0  0  0
 11 35  1  0  0  0  0
 12 13  1  0  0  0  0
 12 14  1  0  0  0  0
 12 36  1  0  0  0  0
 13 37  1  0  0  0  0
 13 38  1  0  0  0  0
 13 39  1  0  0  0  0
 14 15  1  0  0  0  0
 14 40  1  0  0  0  0
 14 41  1  0  0  0  0
 15 42  1  0  0  0  0
 15 43  1  0  0  0  0
 16 17  2  0  0  0  0
 16 18  1  0  0  0  0
 18 19  1  0  0  0  0
 18 21  2  0  0  0  0
 19 20  3  0  0  0  0
 21 22  1  0  0  0  0
 22 44  1  0  0  0  0
 22 45  1  0  0  0  0
 22 46  1  0  0  0  0
M  CHG  1   9   1
M  END
> <s_m_source_file>
AV-unprocessed.smi

> <i_m_source_file_index>
1579

> <i_lp_mmshare_version>
43012

> <i_f3d_flags>
0

> <s_epik_input>
TiNDYyhjMVtDSDNdKWMoPU8pbihuYzFbQ0gzXSlbQ0gyXVtDQEhdKFtPSF0pW0NIMl1OMltDSDJdW0NIMl1bQ0hdKFtDSDNdKVtDSDJdW0NIMl0y

> <s_epik_cmdline>
J2VwaWtfcHl0aG9uJywgJy1waCcsICc3LjAnLCAnLXRuJywgJzgnLCAnLW1hJywgJzIwMCcsICctbWV0YWxfYmluZGluZycsICctaW1hZScsICc8aW5maWxlLm1hZT4nLCAnLW9tYWUnLCAnPG91dGZpbGUubWFlPic=

> <r_epik_Ionization_Penalty>
0.00136816

> <r_epik_Ionization_Penalty_Charging>
0.00136813

> <r_epik_Ionization_Penalty_Neutral>
3.19884e-08

> <r_epik_State_Penalty>
0.000910892

> <r_epik_Charging_Adjusted_Penalty>
0.00227902

> <i_epik_Tot_Q>
1

> <i_epik_Tot_abs_Q>
1

> <r_epik_Metal_State_Penalty>
-0

> <b_epik_Metal_Only>
0

> <s_lp_Force_Field>
OPLS_2005

> <r_lp_Energy>
38.3008

> <b_lp_Chiralities_Consistent>
1

> <s_lp_Variant>
AV-unprocessed.smi:1579-3

> <Gold.Version>
5.8.1

> <Gold.Id.Protein>
6NUR|6NUR_protein|mol2

> <Gold.PLP.Fitness>
44.2843

> <Gold.PLP.PLP>
-35.7948

> <Gold.PLP.part.hbond>
-3.1026

> <Gold.PLP.part.metal>
0.0000

> <Gold.PLP.part.buried>
-4.9361

> <Gold.PLP.part.nonpolar>
-27.7529

> <Gold.PLP.part.repulsive>
0.0095

> <Gold.PLP.ligand.clash>
0.0000

> <Gold.PLP.ligand.torsion>
1.3047

> <Gold.PLP.Chemscore.Hbond>
3.6937

> <Gold.PLP.Chemscore.CHOScore>
0.0000

> <Gold.PLP.Chemscore.Metal>
0.0000

> <Gold.Chemscore.Hbonds>
donor molecule, donor type, donor heavy atom, donor atom, acceptor molecule, acceptor atom, score
      L1  H     7    29       P1  7948  1.00
      L1  H     9    47       P1  7948  2.00
      P1  H  6896  6908       L1    17  0.43

> <Gold.PLP.Chemscore.Internal.Correction>
0.0178

> <Gold.Rescore>
     Score         DG    S(hbond)    S(metal)    S(lipo)     H(rot)  DE(clash)    DE(int)     intcor
     16.54     -17.91       2.77        0.00      74.78       2.17       0.15       1.21       ----

> <Gold.Chemscore.Fitness>
16.5414

> <Gold.Chemscore.DG>
-17.9086

> <Gold.Chemscore.ZeroCoef>
-5.4800

> <Gold.Chemscore.Hbond>
2.7659

> <Gold.Chemscore.Metal>
0.0000

> <Gold.Chemscore.Lipo>
74.7814

> <Gold.Chemscore.Internal_Hbond>
0.0000

> <Gold.Chemscore.DEClash>
0.1550

> <Gold.Chemscore.DEInternal>
1.2122

> <Gold.Chemscore.Rot>
2.1715

> <Gold.Chemscore.Internal.Correction>
   9.000000E+99

> <Gold.Chemscore.Hbonds>
donor molecule, donor type, donor heavy atom, donor atom, acceptor molecule, acceptor atom, score
      L1  H     7    29       P1  7948  0.54
      L1  H     9    47       P1  7948  0.94
      P1  H  6896  6908       L1    17  0.33

> <Gold.Chemscore.Hbond.Weighted>
-9.2382

> <Gold.Chemscore.Metal.Weighted>
-0.0000

> <Gold.Chemscore.Lipo.Weighted>
-8.7494

> <Gold.Chemscore.Internal_Hbond.Weighted>
0.0000

> <Gold.Chemscore.DEClash.Weighted>
0.1550

> <Gold.Chemscore.DEInternal.Weighted>
1.2122

> <Gold.Chemscore.Rot.Weighted>
5.5591

> <Gold.Chemscore.Internal.Correction.Weighted>
   9.000000E+99

> <Gold.Protein.RotatedTorsions>
[ 6907 6896 6895 6894 ] final   59.66 input  -60.11 | X-H torsion
[ 7974 7965 7964 7962 ] final  -58.22 input  175.53 | X-H torsion
[ 8008 7997 7996 7995 ] final -163.56 input   59.86 | X-H torsion
[ 10167 10162 10161 10158 ] final  -57.03 input  -65.29 | X-H torsion
[ 10718 10713 10712 10709 ] final  137.88 input   66.30 | X-H torsion
[ 10763 10752 10751 10750 ] final  129.34 input  -60.55 | X-H torsion
[ 11005 11000 10999 10996 ] final   77.03 input  -57.11 | X-H torsion

> <Gold.Protein.ActiveResidues>
 VAL166  LYS551  ARG553  GLY616  TRP617  ASP618  TYR619  PRO620  LYS621  CYS622 
 ASP623  PHE694  ASN695  SER759  ASP760  ASP761  ALA762  ILE779  LEU786  VAL792 
 PHE793  MET794  SER795  GLU796  ALA797  LYS798  CYS799  TRP800  GLU811  SER814 

> <Gold.Protein.RotatedAtoms>
  152.3934  134.6404  160.0098 H   0  0  0  0  0  0  0  0  0  0  0  0  # atno 6907 bound_to 6896
  151.6631  133.3310  159.3186 H   0  0  0  0  0  0  0  0  0  0  0  0  # atno 6908 bound_to 6896
  150.7846  134.6864  159.6517 H   0  0  0  0  0  0  0  0  0  0  0  0  # atno 6909 bound_to 6896
  145.8418  140.8412  143.0030 H   0  0  0  0  0  0  0  0  0  0  0  0  # atno 7974 bound_to 7965
  155.8231  140.0922  157.1837 H   0  0  0  0  0  0  0  0  0  0  0  0  # atno 8008 bound_to 7997
  154.3979  140.1433  156.3583 H   0  0  0  0  0  0  0  0  0  0  0  0  # atno 8009 bound_to 7997
  155.8246  140.3445  155.5537 H   0  0  0  0  0  0  0  0  0  0  0  0  # atno 8010 bound_to 7997
  140.6282  143.2447  151.5309 H   0  0  0  0  0  0  0  0  0  0  0  0  # atno 10167 bound_to 10162
  157.4313  131.1049  151.0246 H   0  0  0  0  0  0  0  0  0  0  0  0  # atno 10718 bound_to 10713
  153.7402  135.3225  155.3302 H   0  0  0  0  0  0  0  0  0  0  0  0  # atno 10763 bound_to 10752
  154.8297  135.4543  154.1034 H   0  0  0  0  0  0  0  0  0  0  0  0  # atno 10764 bound_to 10752
  153.2207  135.6948  153.8085 H   0  0  0  0  0  0  0  0  0  0  0  0  # atno 10765 bound_to 10752
  139.9272  134.7649  156.1470 H   0  0  0  0  0  0  0  0  0  0  0  0  # atno 11005 bound_to 11000
  144.6733  140.0824  143.7469 LP  0  0  0  0  0  0  0  0  0  0  0  0  # atno 17320 bound_to 7965
  145.9456  139.2698  143.1243 LP  0  0  0  0  0  0  0  0  0  0  0  0  # atno 17321 bound_to 7965
  139.5499  144.2422  152.1512 LP  0  0  0  0  0  0  0  0  0  0  0  0  # atno 17342 bound_to 10162
  140.1659  144.4982  150.6606 LP  0  0  0  0  0  0  0  0  0  0  0  0  # atno 17343 bound_to 10162
  157.1142  130.6034  149.5489 LP  0  0  0  0  0  0  0  0  0  0  0  0  # atno 17370 bound_to 10713
  155.9914  130.4969  150.7299 LP  0  0  0  0  0  0  0  0  0  0  0  0  # atno 17371 bound_to 10713
  141.0838  133.6743  156.2392 LP  0  0  0  0  0  0  0  0  0  0  0  0  # atno 17394 bound_to 11000
  140.6302  134.5271  157.5558 LP  0  0  0  0  0  0  0  0  0  0  0  0  # atno 17395 bound_to 11000

$$$$
