AV-unprocessed.smi:3329|AV-procd|sdf|12799|dock4
  -GOLD-   2272019153D 1   1.00000     0.00000
 Structure written by MMmdl.
 41 42  0  0  0  0  0  0  0  0  3 V2000
  144.1267  132.8562  149.9820 C   0  0  0  0  0  0  0  0  0  0  0  0
  145.0862  133.2023  151.0842 C   0  0  0  0  0  0  0  0  0  0  0  0
  144.8476  134.0257  152.2212 C   0  0  0  0  0  0  0  0  0  0  0  0
  145.9033  134.1276  153.0125 N   0  0  0  0  0  0  0  0  0  0  0  0
  146.8494  133.3760  152.4114 N   0  0  0  0  0  0  0  0  0  0  0  0
  148.1636  133.2522  153.0159 C   0  0  0  0  0  0  0  0  0  0  0  0
  148.2536  133.9779  154.3680 C   0  0  0  0  0  0  0  0  0  0  0  0
  149.3892  134.9201  154.3991 N   0  3  0  0  0  0  0  0  0  0  0  0
  149.4890  135.7073  155.6427 C   0  0  0  0  0  0  0  0  0  0  0  0
  150.5525  136.7983  155.4831 C   0  0  0  0  0  0  0  0  0  0  0  0
  151.2719  136.8118  154.4835 O   0  0  0  0  0  0  0  0  0  0  0  0
  150.5503  137.6474  156.5384 N   0  5  0  0  0  0  0  0  0  0  0  0
  150.7988  139.0895  156.4147 C   0  0  1  0  0  0  0  0  0  0  0  0
  151.0046  139.7045  157.8143 C   0  0  0  0  0  0  0  0  0  0  0  0
  151.9785  139.3423  155.5628 C   0  0  0  0  0  0  0  0  0  0  0  0
  152.9029  139.5399  154.8943 N   0  0  0  0  0  0  0  0  0  0  0  0
  149.6104  139.7794  155.7378 C   0  0  0  0  0  0  0  0  0  0  0  0
  149.4061  139.8390  154.2403 C   0  0  0  0  0  0  0  0  0  0  0  0
  149.7169  141.1047  155.0178 C   0  0  0  0  0  0  0  0  0  0  0  0
  146.3851  132.8097  151.2430 C   0  0  0  0  0  0  0  0  0  0  0  0
  143.6736  133.7478  149.5483 H   0  0  0  0  0  0  0  0  0  0  0  0
  143.3140  132.2252  150.3421 H   0  0  0  0  0  0  0  0  0  0  0  0
  144.6164  132.3175  149.1702 H   0  0  0  0  0  0  0  0  0  0  0  0
  143.9423  134.5480  152.4939 H   0  0  0  0  0  0  0  0  0  0  0  0
  148.3992  132.1936  153.1342 H   0  0  0  0  0  0  0  0  0  0  0  0
  148.8996  133.6611  152.3222 H   0  0  0  0  0  0  0  0  0  0  0  0
  147.3315  134.5311  154.5501 H   0  0  0  0  0  0  0  0  0  0  0  0
  148.3558  133.2554  155.1792 H   0  0  0  0  0  0  0  0  0  0  0  0
  150.2473  134.3974  154.2943 H   0  0  0  0  0  0  0  0  0  0  0  0
  148.5118  136.1373  155.8716 H   0  0  0  0  0  0  0  0  0  0  0  0
  149.7681  135.0566  156.4723 H   0  0  0  0  0  0  0  0  0  0  0  0
  151.1421  140.7841  157.7498 H   0  0  0  0  0  0  0  0  0  0  0  0
  151.8854  139.3021  158.3151 H   0  0  0  0  0  0  0  0  0  0  0  0
  150.1438  139.5223  158.4590 H   0  0  0  0  0  0  0  0  0  0  0  0
  148.6938  139.6610  156.3137 H   0  0  0  0  0  0  0  0  0  0  0  0
  150.1850  139.4435  153.5916 H   0  0  0  0  0  0  0  0  0  0  0  0
  148.3907  139.7133  153.8706 H   0  0  0  0  0  0  0  0  0  0  0  0
  148.9075  141.8176  155.1611 H   0  0  0  0  0  0  0  0  0  0  0  0
  150.7030  141.5455  154.8862 H   0  0  0  0  0  0  0  0  0  0  0  0
  147.0087  132.1761  150.6292 H   0  0  0  0  0  0  0  0  0  0  0  0
  149.3074  135.5618  153.6236 H   0  0  0  0  0  0  0  0  0  0  0  0
  1  2  1  0  0  0  0
  1 21  1  0  0  0  0
  1 22  1  0  0  0  0
  1 23  1  0  0  0  0
  2 20  2  0  0  0  0
  2  3  1  0  0  0  0
  3  4  2  0  0  0  0
  3 24  1  0  0  0  0
  4  5  1  0  0  0  0
  5  6  1  0  0  0  0
  5 20  1  0  0  0  0
  6  7  1  0  0  0  0
  6 25  1  0  0  0  0
  6 26  1  0  0  0  0
  7  8  1  0  0  0  0
  7 27  1  0  0  0  0
  7 28  1  0  0  0  0
  8  9  1  0  0  0  0
  8 29  1  0  0  0  0
  8 41  1  0  0  0  0
  9 10  1  0  0  0  0
  9 30  1  0  0  0  0
  9 31  1  0  0  0  0
 10 11  2  0  0  0  0
 10 12  1  0  0  0  0
 12 13  1  0  0  0  0
 13 14  1  0  0  0  0
 13 15  1  0  0  0  0
 13 17  1  0  0  0  0
 14 32  1  0  0  0  0
 14 33  1  0  0  0  0
 14 34  1  0  0  0  0
 15 16  3  0  0  0  0
 17 19  1  0  0  0  0
 17 18  1  0  0  0  0
 17 35  1  0  0  0  0
 18 19  1  0  0  0  0
 18 36  1  0  0  0  0
 18 37  1  0  0  0  0
 19 38  1  0  0  0  0
 19 39  1  0  0  0  0
 20 40  1  0  0  0  0
M  CHG  1   8   1
M  CHG  1  12  -1
M  END
> <s_m_source_file>
AV-unprocessed.smi

> <i_m_source_file_index>
3329

> <i_lp_mmshare_version>
43012

> <i_f3d_flags>
0

> <s_epik_input>
W0NIM11jMVtjSF1ubihbY0hdMSlbQ0gyXVtDSDJdW05IXVtDSDJdQyg9TylbTkhdW0NAQF0oW0NIM10pKEMjTilbQ0hdMltDSDJdW0NIMl0y

> <s_epik_cmdline>
J2VwaWtfcHl0aG9uJywgJy1waCcsICc3LjAnLCAnLXRuJywgJzgnLCAnLW1hJywgJzIwMCcsICctbWV0YWxfYmluZGluZycsICctaW1hZScsICc8aW5maWxlLm1hZT4nLCAnLW9tYWUnLCAnPG91dGZpbGUubWFlPic=

> <r_lp_tautomer_probability>
1

> <r_epik_Ionization_Penalty>
5.61187

> <r_epik_Ionization_Penalty_Charging>
5.61186

> <r_epik_Ionization_Penalty_Neutral>
4.91277e-06

> <r_epik_State_Penalty>
5.94522

> <r_epik_Charging_Adjusted_Penalty>
11.5571

> <i_epik_Tot_Q>
0

> <i_epik_Tot_abs_Q>
2

> <r_epik_Metal_State_Penalty>
1.9215

> <b_epik_Metal_Only>
1

> <s_lp_Force_Field>
OPLS_2005

> <r_lp_Energy>
13.6964

> <b_lp_Chiralities_Consistent>
1

> <s_lp_Variant>
AV-unprocessed.smi:3329-5

> <Gold.Version>
5.8.1

> <Gold.Id.Protein>
6NUR|6NUR_protein|mol2

> <Gold.PLP.Fitness>
47.8241

> <Gold.PLP.PLP>
-33.8142

> <Gold.PLP.part.hbond>
-4.0000

> <Gold.PLP.part.metal>
0.0000

> <Gold.PLP.part.buried>
-4.6530

> <Gold.PLP.part.nonpolar>
-27.0018

> <Gold.PLP.part.repulsive>
0.9268

> <Gold.PLP.ligand.clash>
0.0000

> <Gold.PLP.ligand.torsion>
1.6365

> <Gold.PLP.Chemscore.Hbond>
4.2194

> <Gold.PLP.Chemscore.CHOScore>
1.0000

> <Gold.PLP.Chemscore.Metal>
0.0000

> <Gold.Chemscore.Hbonds>
donor molecule, donor type, donor heavy atom, donor atom, acceptor molecule, acceptor atom, score
      L1  H     8    41       P1  7948  2.00
      P1  H  7989  7998       L1    16  0.11
      P1  H  7997  8009       L1    16  1.00
      P1  H 10752 10765       L1    11  0.91
      L1  C    20    40       P1 10747  1.00

> <Gold.PLP.Chemscore.Internal.Correction>
1.6246

> <Gold.Rescore>
     Score         DG    S(hbond)    S(metal)    S(lipo)     H(rot)  DE(clash)    DE(int)     intcor
     14.00     -16.79       2.67        0.00      71.11       2.31       0.04       2.75       ----

> <Gold.Chemscore.Fitness>
13.9997

> <Gold.Chemscore.DG>
-16.7944

> <Gold.Chemscore.ZeroCoef>
-5.4800

> <Gold.Chemscore.Hbond>
2.6702

> <Gold.Chemscore.Metal>
0.0000

> <Gold.Chemscore.Lipo>
71.1092

> <Gold.Chemscore.Internal_Hbond>
0.0000

> <Gold.Chemscore.DEClash>
0.0450

> <Gold.Chemscore.DEInternal>
2.7498

> <Gold.Chemscore.Rot>
2.3140

> <Gold.Chemscore.Internal.Correction>
   9.000000E+99

> <Gold.Chemscore.Hbonds>
donor molecule, donor type, donor heavy atom, donor atom, acceptor molecule, acceptor atom, score
      L1  H     8    41       P1  7948  0.45
      P1  H  7989  7998       L1    16  0.01
      P1  H  7997  8009       L1    16  0.77
      P1  H 10752 10765       L1    11  0.78

> <Gold.Chemscore.Hbond.Weighted>
-8.9184

> <Gold.Chemscore.Metal.Weighted>
-0.0000

> <Gold.Chemscore.Lipo.Weighted>
-8.3198

> <Gold.Chemscore.Internal_Hbond.Weighted>
0.0000

> <Gold.Chemscore.DEClash.Weighted>
0.0450

> <Gold.Chemscore.DEInternal.Weighted>
2.7498

> <Gold.Chemscore.Rot.Weighted>
5.9238

> <Gold.Chemscore.Internal.Correction.Weighted>
   9.000000E+99

> <Gold.Protein.RotatedTorsions>
[ 6907 6896 6895 6894 ] final   45.20 input  -60.11 | X-H torsion
[ 7974 7965 7964 7962 ] final  -72.37 input  175.53 | X-H torsion
[ 8008 7997 7996 7995 ] final -140.58 input   59.86 | X-H torsion
[ 10167 10162 10161 10158 ] final  109.71 input  -65.29 | X-H torsion
[ 10718 10713 10712 10709 ] final -135.97 input   66.30 | X-H torsion
[ 10763 10752 10751 10750 ] final -178.40 input  -60.55 | X-H torsion
[ 11005 11000 10999 10996 ] final   53.13 input  -57.11 | X-H torsion

> <Gold.Protein.ActiveResidues>
 VAL166  LYS551  ARG553  GLY616  TRP617  ASP618  TYR619  PRO620  LYS621  CYS622 
 ASP623  PHE694  ASN695  SER759  ASP760  ASP761  ALA762  ILE779  LEU786  VAL792 
 PHE793  MET794  SER795  GLU796  ALA797  LYS798  CYS799  TRP800  GLU811  SER814 

> <Gold.Protein.RotatedAtoms>
  152.2417  134.8222  160.0459 H   0  0  0  0  0  0  0  0  0  0  0  0  # atno 6907 bound_to 6896
  151.8934  133.3516  159.3814 H   0  0  0  0  0  0  0  0  0  0  0  0  # atno 6908 bound_to 6896
  150.7055  134.4827  159.5522 H   0  0  0  0  0  0  0  0  0  0  0  0  # atno 6909 bound_to 6896
  145.6661  140.9237  143.0908 H   0  0  0  0  0  0  0  0  0  0  0  0  # atno 7974 bound_to 7965
  155.4637  140.0547  157.2988 H   0  0  0  0  0  0  0  0  0  0  0  0  # atno 8008 bound_to 7997
  154.4727  140.2047  155.9910 H   0  0  0  0  0  0  0  0  0  0  0  0  # atno 8009 bound_to 7997
  156.1081  140.3208  155.8039 H   0  0  0  0  0  0  0  0  0  0  0  0  # atno 8010 bound_to 7997
  139.6745  144.7123  151.1627 H   0  0  0  0  0  0  0  0  0  0  0  0  # atno 10167 bound_to 10162
  156.2720  130.7271  151.1241 H   0  0  0  0  0  0  0  0  0  0  0  0  # atno 10718 bound_to 10713
  154.5481  135.2811  155.1034 H   0  0  0  0  0  0  0  0  0  0  0  0  # atno 10763 bound_to 10752
  154.2490  135.6343  153.5237 H   0  0  0  0  0  0  0  0  0  0  0  0  # atno 10764 bound_to 10752
  152.9996  135.5578  154.6040 H   0  0  0  0  0  0  0  0  0  0  0  0  # atno 10765 bound_to 10752
  140.0792  134.5362  155.8964 H   0  0  0  0  0  0  0  0  0  0  0  0  # atno 11005 bound_to 11000
  144.7072  139.8511  143.7426 LP  0  0  0  0  0  0  0  0  0  0  0  0  # atno 17320 bound_to 7965
  146.1085  139.4087  143.0302 LP  0  0  0  0  0  0  0  0  0  0  0  0  # atno 17321 bound_to 7965
  140.7630  143.5793  150.8912 LP  0  0  0  0  0  0  0  0  0  0  0  0  # atno 17342 bound_to 10162
  139.9461  143.6326  152.3041 LP  0  0  0  0  0  0  0  0  0  0  0  0  # atno 17343 bound_to 10162
  157.7287  131.0630  150.5809 LP  0  0  0  0  0  0  0  0  0  0  0  0  # atno 17370 bound_to 10713
  156.5906  130.4328  149.5938 LP  0  0  0  0  0  0  0  0  0  0  0  0  # atno 17371 bound_to 10713
  141.2041  133.6636  156.6099 LP  0  0  0  0  0  0  0  0  0  0  0  0  # atno 17394 bound_to 11000
  140.3512  134.7767  157.4468 LP  0  0  0  0  0  0  0  0  0  0  0  0  # atno 17395 bound_to 11000

$$$$
