AV-unprocessed.smi:54|AV-procd|sdf|552|dock4
  -GOLD-   2262016453D 1   1.00000     0.00000
 Structure written by MMmdl.
 43 45  0  0  0  0  0  0  0  0  2 V2000
  152.4354  144.1110  158.3055 C   0  0  0  0  0  0  0  0  0  0  0  0
  151.8037  143.1287  159.3057 C   0  0  0  0  0  0  0  0  0  0  0  0
  152.8171  142.6919  160.3770 C   0  0  0  0  0  0  0  0  0  0  0  0
  151.2242  141.9084  158.5767 C   0  0  0  0  0  0  0  0  0  0  0  0
  150.0037  141.7302  158.5803 O   0  0  0  0  0  0  0  0  0  0  0  0
  152.1331  141.1079  157.9761 N   0  0  0  0  0  0  0  0  0  0  0  0
  151.9263  139.9370  157.2379 C   0  0  0  0  0  0  0  0  0  0  0  0
  150.7399  139.6656  156.7411 N   0  0  0  0  0  0  0  0  0  0  0  0
  150.7246  138.4781  156.0369 C   0  0  0  0  0  0  0  0  0  0  0  0
  151.7633  137.6146  155.8233 C   0  0  0  0  0  0  0  0  0  0  0  0
  151.3643  136.5171  155.0690 N   0  0  0  0  0  0  0  0  0  0  0  0
  150.0744  136.7780  154.8589 C   0  0  0  0  0  0  0  0  0  0  0  0
  149.6207  137.9266  155.4014 N   0  0  0  0  0  0  0  0  0  0  0  0
  148.2395  138.4933  155.3439 C   0  0  1  0  0  0  0  0  0  0  0  0
  148.2623  139.8083  155.7930 O   0  0  0  0  0  0  0  0  0  0  0  0
  147.1614  140.5184  155.2311 C   0  0  1  0  0  0  0  0  0  0  0  0
  147.6625  141.9108  154.8183 C   0  0  0  0  0  0  0  0  0  0  0  0
  148.6537  142.3635  155.7163 O   0  0  0  0  0  0  0  0  0  0  0  0
  146.6525  139.6633  154.0498 C   0  0  2  0  0  0  0  0  0  0  0  0
  145.3859  139.1235  154.3753 O   0  0  0  0  0  0  0  0  0  0  0  0
  147.6755  138.5424  153.9231 C   0  0  1  0  0  0  0  0  0  0  0  0
  148.6536  138.8600  152.9491 O   0  0  0  0  0  0  0  0  0  0  0  0
  153.0725  137.9876  156.4101 C   0  0  0  0  0  0  0  0  0  0  0  0
  154.0369  137.2431  156.2447 O   0  0  0  0  0  0  0  0  0  0  0  0
  153.0915  139.1655  157.1046 N   0  5  0  0  0  0  0  0  0  0  0  0
  147.6435  137.8785  156.0203 H   0  0  0  0  0  0  0  0  0  0  0  0
  146.3975  140.6178  156.0047 H   0  0  0  0  0  0  0  0  0  0  0  0
  146.5488  140.2332  153.1253 H   0  0  0  0  0  0  0  0  0  0  0  0
  147.2304  137.5801  153.6648 H   0  0  0  0  0  0  0  0  0  0  0  0
  151.7172  144.4175  157.5437 H   0  0  0  0  0  0  0  0  0  0  0  0
  153.2940  143.6708  157.7968 H   0  0  0  0  0  0  0  0  0  0  0  0
  152.7790  145.0136  158.8113 H   0  0  0  0  0  0  0  0  0  0  0  0
  150.9873  143.6466  159.8119 H   0  0  0  0  0  0  0  0  0  0  0  0
  152.3743  141.9789  161.0738 H   0  0  0  0  0  0  0  0  0  0  0  0
  153.1608  143.5473  160.9592 H   0  0  0  0  0  0  0  0  0  0  0  0
  153.6949  142.2215  159.9321 H   0  0  0  0  0  0  0  0  0  0  0  0
  153.0951  141.3872  158.0987 H   0  0  0  0  0  0  0  0  0  0  0  0
  149.4402  136.1109  154.2938 H   0  0  0  0  0  0  0  0  0  0  0  0
  148.1002  141.8706  153.8205 H   0  0  0  0  0  0  0  0  0  0  0  0
  146.8412  142.6273  154.7819 H   0  0  0  0  0  0  0  0  0  0  0  0
  148.9325  143.2255  155.4467 H   0  0  0  0  0  0  0  0  0  0  0  0
  144.7330  139.5501  153.8418 H   0  0  0  0  0  0  0  0  0  0  0  0
  148.7827  138.1039  152.3976 H   0  0  0  0  0  0  0  0  0  0  0  0
  1  2  1  0  0  0  0
  1 30  1  0  0  0  0
  1 31  1  0  0  0  0
  1 32  1  0  0  0  0
  2  3  1  0  0  0  0
  2  4  1  0  0  0  0
  2 33  1  0  0  0  0
  3 34  1  0  0  0  0
  3 35  1  0  0  0  0
  3 36  1  0  0  0  0
  4  5  2  0  0  0  0
  4  6  1  0  0  0  0
  6 37  1  0  0  0  0
  6  7  1  0  0  0  0
  7 25  1  0  0  0  0
  7  8  2  0  0  0  0
  8  9  1  0  0  0  0
  9 13  1  0  0  0  0
  9 10  2  0  0  0  0
 10 11  1  0  0  0  0
 10 23  1  0  0  0  0
 11 12  2  0  0  0  0
 12 13  1  0  0  0  0
 12 38  1  0  0  0  0
 13 14  1  0  0  0  0
 14 26  1  0  0  0  0
 14 21  1  0  0  0  0
 14 15  1  0  0  0  0
 15 16  1  0  0  0  0
 16 27  1  0  0  0  0
 16 17  1  0  0  0  0
 16 19  1  0  0  0  0
 17 18  1  0  0  0  0
 17 39  1  0  0  0  0
 17 40  1  0  0  0  0
 18 41  1  0  0  0  0
 19 28  1  0  0  0  0
 19 20  1  0  0  0  0
 19 21  1  0  0  0  0
 20 42  1  0  0  0  0
 21 29  1  0  0  0  0
 21 22  1  0  0  0  0
 22 43  1  0  0  0  0
 23 24  2  0  0  0  0
 23 25  1  0  0  0  0
M  CHG  1  25  -1
M  END
> <s_m_source_file>
AV-unprocessed.smi

> <i_m_source_file_index>
54

> <i_lp_mmshare_version>
43012

> <i_f3d_flags>
0

> <s_epik_input>
W0NIM11bQ0hdKFtDSDNdKUMoPU8pW05IXWMobjEpW25IXWMoPU8pYyhjMTIpbltjSF1uMltDQEBIXTNPW0NASF0oW0NIMl1bT0hdKVtDQEBIXShbT0hdKVtDQEhdM1tPSF0=

> <s_epik_cmdline>
J2VwaWtfcHl0aG9uJywgJy1waCcsICc3LjAnLCAnLXRuJywgJzgnLCAnLW1hJywgJzIwMCcsICctbWV0YWxfYmluZGluZycsICctaW1hZScsICc8aW5maWxlLm1hZT4nLCAnLW9tYWUnLCAnPG91dGZpbGUubWFlPic=

> <r_lp_tautomer_probability>
0.85571

> <r_epik_Ionization_Penalty>
1.75936

> <r_epik_Ionization_Penalty_Charging>
4.55893e-11

> <r_epik_Ionization_Penalty_Neutral>
1.75936

> <r_epik_State_Penalty>
1.72072

> <r_epik_Charging_Adjusted_Penalty>
1.72072

> <i_epik_Tot_Q>
-1

> <i_epik_Tot_abs_Q>
1

> <r_epik_Metal_State_Penalty>
0.400338

> <b_epik_Metal_Only>
1

> <s_epik_Chemistry_Notes>
This compound contains an acetal/aminal-like group ( X-CH(R)-Y where X, Y are N, S, or O) that may be acid/base labile, releasing an aldehyde.

> <s_lp_Force_Field>
OPLS_2005

> <r_lp_Energy>
59.2625

> <b_lp_Chiralities_Consistent>
1

> <s_lp_Variant>
AV-unprocessed.smi:54-24

> <Gold.Version>
5.8.1

> <Gold.Id.Protein>
6NUR|6NUR_protein|mol2

> <Gold.PLP.Fitness>
53.5337

> <Gold.PLP.PLP>
-33.2374

> <Gold.PLP.part.hbond>
-6.2675

> <Gold.PLP.part.metal>
0.0000

> <Gold.PLP.part.buried>
-5.3474

> <Gold.PLP.part.nonpolar>
-22.6144

> <Gold.PLP.part.repulsive>
0.2489

> <Gold.PLP.ligand.clash>
0.0000

> <Gold.PLP.ligand.torsion>
0.6570

> <Gold.PLP.Chemscore.Hbond>
6.2790

> <Gold.PLP.Chemscore.CHOScore>
0.9087

> <Gold.PLP.Chemscore.Metal>
0.0000

> <Gold.Chemscore.Hbonds>
donor molecule, donor type, donor heavy atom, donor atom, acceptor molecule, acceptor atom, score
      L1  H    18    41       P1  8028  0.90
      L1  H    20    42       P1 10175  1.00
      L1  H    22    43       P1  7948  1.00
      P1  H  7997  8008       L1    25  2.00
      P1  H 10752 10763       L1    11  1.00
      P1  H 10752 10764       L1    24  0.28
      L1  C    12    38       P1  7948  0.93

> <Gold.PLP.Chemscore.Internal.Correction>
0.0470

> <Gold.Rescore>
     Score         DG    S(hbond)    S(metal)    S(lipo)     H(rot)  DE(clash)    DE(int)     intcor
     14.47     -18.00       4.73        0.00      60.03       4.02       0.04       3.49       ----

> <Gold.Chemscore.Fitness>
14.4746

> <Gold.Chemscore.DG>
-18.0045

> <Gold.Chemscore.ZeroCoef>
-5.4800

> <Gold.Chemscore.Hbond>
4.7276

> <Gold.Chemscore.Metal>
0.0000

> <Gold.Chemscore.Lipo>
60.0308

> <Gold.Chemscore.Internal_Hbond>
0.0000

> <Gold.Chemscore.DEClash>
0.0401

> <Gold.Chemscore.DEInternal>
3.4898

> <Gold.Chemscore.Rot>
4.0192

> <Gold.Chemscore.Internal.Correction>
   9.000000E+99

> <Gold.Chemscore.Hbonds>
donor molecule, donor type, donor heavy atom, donor atom, acceptor molecule, acceptor atom, score
      L1  H    18    41       P1  8028  0.83
      L1  H    20    42       P1 10175  0.99
      L1  H    22    43       P1  7948  0.99
      P1  H  7997  8008       L1    25  0.72
      P1  H 10752 10763       L1    11  0.70
      P1  H 10752 10764       L1    24  0.29

> <Gold.Chemscore.Hbond.Weighted>
-15.7901

> <Gold.Chemscore.Metal.Weighted>
-0.0000

> <Gold.Chemscore.Lipo.Weighted>
-7.0236

> <Gold.Chemscore.Internal_Hbond.Weighted>
0.0000

> <Gold.Chemscore.DEClash.Weighted>
0.0401

> <Gold.Chemscore.DEInternal.Weighted>
3.4898

> <Gold.Chemscore.Rot.Weighted>
10.2893

> <Gold.Chemscore.Internal.Correction.Weighted>
   9.000000E+99

> <Gold.Protein.RotatedTorsions>
[ 6907 6896 6895 6894 ] final   96.61 input  -60.11 | X-H torsion
[ 7974 7965 7964 7962 ] final  -72.44 input  175.53 | X-H torsion
[ 8008 7997 7996 7995 ] final  -68.48 input   59.86 | X-H torsion
[ 10167 10162 10161 10158 ] final -147.90 input  -65.29 | X-H torsion
[ 10718 10713 10712 10709 ] final   98.01 input   66.30 | X-H torsion
[ 10763 10752 10751 10750 ] final   39.85 input  -60.55 | X-H torsion
[ 11005 11000 10999 10996 ] final  118.21 input  -57.11 | X-H torsion

> <Gold.Protein.ActiveResidues>
 VAL166  LYS551  ARG553  GLY616  TRP617  ASP618  TYR619  PRO620  LYS621  CYS622 
 ASP623  PHE694  ASN695  SER759  ASP760  ASP761  ALA762  ILE779  LEU786  VAL792 
 PHE793  MET794  SER795  GLU796  ALA797  LYS798  CYS799  TRP800  GLU811  SER814 

> <Gold.Protein.RotatedAtoms>
  152.5433  134.0860  159.8255 H   0  0  0  0  0  0  0  0  0  0  0  0  # atno 6907 bound_to 6896
  151.0956  133.5275  159.2620 H   0  0  0  0  0  0  0  0  0  0  0  0  # atno 6908 bound_to 6896
  151.2050  135.0467  159.8942 H   0  0  0  0  0  0  0  0  0  0  0  0  # atno 6909 bound_to 6896
  145.6650  140.9240  143.0913 H   0  0  0  0  0  0  0  0  0  0  0  0  # atno 7974 bound_to 7965
  154.4871  140.0872  156.7511 H   0  0  0  0  0  0  0  0  0  0  0  0  # atno 8008 bound_to 7997
  155.4323  140.3450  155.4263 H   0  0  0  0  0  0  0  0  0  0  0  0  # atno 8009 bound_to 7997
  156.1277  140.1492  156.9100 H   0  0  0  0  0  0  0  0  0  0  0  0  # atno 8010 bound_to 7997
  139.7580  143.8419  152.2601 H   0  0  0  0  0  0  0  0  0  0  0  0  # atno 10167 bound_to 10162
  157.6903  131.0627  150.4730 H   0  0  0  0  0  0  0  0  0  0  0  0  # atno 10718 bound_to 10713
  152.9954  135.6209  154.2531 H   0  0  0  0  0  0  0  0  0  0  0  0  # atno 10763 bound_to 10752
  154.2269  135.2793  155.2906 H   0  0  0  0  0  0  0  0  0  0  0  0  # atno 10764 bound_to 10752
  154.5482  135.5741  153.6957 H   0  0  0  0  0  0  0  0  0  0  0  0  # atno 10765 bound_to 10752
  139.9101  134.9618  156.7469 H   0  0  0  0  0  0  0  0  0  0  0  0  # atno 11005 bound_to 11000
  144.7076  139.8499  143.7425 LP  0  0  0  0  0  0  0  0  0  0  0  0  # atno 17320 bound_to 7965
  146.1093  139.4096  143.0298 LP  0  0  0  0  0  0  0  0  0  0  0  0  # atno 17321 bound_to 7965
  139.8417  144.7207  150.9323 LP  0  0  0  0  0  0  0  0  0  0  0  0  # atno 17342 bound_to 10162
  140.7804  143.3977  151.1201 LP  0  0  0  0  0  0  0  0  0  0  0  0  # atno 17343 bound_to 10162
  156.5067  130.4130  149.6323 LP  0  0  0  0  0  0  0  0  0  0  0  0  # atno 17370 bound_to 10713
  156.3278  130.7315  151.2239 LP  0  0  0  0  0  0  0  0  0  0  0  0  # atno 17371 bound_to 10713
  140.6805  133.9479  155.7907 LP  0  0  0  0  0  0  0  0  0  0  0  0  # atno 17394 bound_to 11000
  141.0514  134.0480  157.3779 LP  0  0  0  0  0  0  0  0  0  0  0  0  # atno 17395 bound_to 11000

$$$$
