AV-unprocessed.smi:915|AV-procd|sdf|4155|dock5
  -GOLD-   22720 2 63D 1   1.00000     0.00000
 Structure written by MMmdl.
 34 35  0  0  0  0  0  0  0  0  1 V2000
  151.7036  140.0337  155.2368 C   0  0  0  0  0  0  0  0  0  0  0  0
  150.6600  141.1455  155.3896 C   0  0  0  0  0  0  0  0  0  0  0  0
  149.3787  140.8259  154.6809 C   0  0  0  0  0  0  0  0  0  0  0  0
  148.2736  141.6345  154.5693 C   0  0  0  0  0  0  0  0  0  0  0  0
  146.9956  140.8737  153.6597 S   0  0  0  0  0  0  0  0  0  0  0  0
  148.0260  139.4644  153.4650 C   0  0  0  0  0  0  0  0  0  0  0  0
  147.6029  138.3170  152.7444 N   0  0  0  0  0  0  0  0  0  0  0  0
  146.3782  137.7633  152.7110 C   0  0  0  0  0  0  0  0  0  0  0  0
  145.3825  138.1993  153.2900 O   0  0  0  0  0  0  0  0  0  0  0  0
  146.3661  136.6563  151.9551 N   0  0  0  0  0  0  0  0  0  0  0  0
  145.1977  135.8127  151.7253 C   0  0  0  0  0  0  0  0  0  0  0  0
  145.5464  134.5371  150.9350 C   0  0  1  0  0  0  0  0  0  0  0  0
  146.4247  133.5652  151.7331 C   0  0  0  0  0  0  0  0  0  0  0  0
  146.2617  132.1889  151.0873 C   0  0  0  0  0  0  0  0  0  0  0  0
  144.7625  131.9948  150.8581 C   0  0  0  0  0  0  0  0  0  0  0  0
  144.0689  133.6105  150.4231 S   0  0  0  0  0  0  0  0  0  0  0  0
  149.2240  139.5892  154.0470 N   0  0  0  0  0  0  0  0  0  0  0  0
  152.6249  140.2920  155.7589 H   0  0  0  0  0  0  0  0  0  0  0  0
  151.9512  139.8660  154.1881 H   0  0  0  0  0  0  0  0  0  0  0  0
  151.3383  139.0933  155.6504 H   0  0  0  0  0  0  0  0  0  0  0  0
  150.4689  141.3131  156.4501 H   0  0  0  0  0  0  0  0  0  0  0  0
  151.0728  142.0807  155.0095 H   0  0  0  0  0  0  0  0  0  0  0  0
  148.1351  142.6294  154.9661 H   0  0  0  0  0  0  0  0  0  0  0  0
  148.3183  137.8577  152.2006 H   0  0  0  0  0  0  0  0  0  0  0  0
  147.2291  136.3655  151.5194 H   0  0  0  0  0  0  0  0  0  0  0  0
  144.7429  135.5504  152.6822 H   0  0  0  0  0  0  0  0  0  0  0  0
  144.4548  136.3980  151.1828 H   0  0  0  0  0  0  0  0  0  0  0  0
  146.0841  134.8017  150.0235 H   0  0  0  0  0  0  0  0  0  0  0  0
  147.4671  133.8849  151.7484 H   0  0  0  0  0  0  0  0  0  0  0  0
  146.0857  133.5180  152.7690 H   0  0  0  0  0  0  0  0  0  0  0  0
  146.7851  132.1709  150.1303 H   0  0  0  0  0  0  0  0  0  0  0  0
  146.6833  131.3950  151.7040 H   0  0  0  0  0  0  0  0  0  0  0  0
  144.5560  131.2558  150.0837 H   0  0  0  0  0  0  0  0  0  0  0  0
  144.2842  131.6568  151.7779 H   0  0  0  0  0  0  0  0  0  0  0  0
  1  2  1  0  0  0  0
  1 18  1  0  0  0  0
  1 19  1  0  0  0  0
  1 20  1  0  0  0  0
  2  3  1  0  0  0  0
  2 21  1  0  0  0  0
  2 22  1  0  0  0  0
  3 17  1  0  0  0  0
  3  4  2  0  0  0  0
  4  5  1  0  0  0  0
  4 23  1  0  0  0  0
  5  6  1  0  0  0  0
  6  7  1  0  0  0  0
  6 17  2  0  0  0  0
  7  8  1  0  0  0  0
  7 24  1  0  0  0  0
  8  9  2  0  0  0  0
  8 10  1  0  0  0  0
 10 11  1  0  0  0  0
 10 25  1  0  0  0  0
 11 12  1  0  0  0  0
 11 26  1  0  0  0  0
 11 27  1  0  0  0  0
 12 16  1  0  0  0  0
 12 13  1  0  0  0  0
 12 28  1  0  0  0  0
 13 14  1  0  0  0  0
 13 29  1  0  0  0  0
 13 30  1  0  0  0  0
 14 15  1  0  0  0  0
 14 31  1  0  0  0  0
 14 32  1  0  0  0  0
 15 16  1  0  0  0  0
 15 33  1  0  0  0  0
 15 34  1  0  0  0  0
M  END
> <s_m_source_file>
AV-unprocessed.smi

> <i_m_source_file_index>
915

> <i_lp_mmshare_version>
43012

> <i_f3d_flags>
0

> <s_epik_input>
W0NIM11bQ0gyXWMxW2NIXXNjKG4xKVtOSF1DKD1PKVtOSF1bQ0gyXVtDQEBIXTJbQ0gyXVtDSDJdW0NIMl1TMg==

> <s_epik_cmdline>
J2VwaWtfcHl0aG9uJywgJy1waCcsICc3LjAnLCAnLXRuJywgJzgnLCAnLW1hJywgJzIwMCcsICctbWV0YWxfYmluZGluZycsICctaW1hZScsICc8aW5maWxlLm1hZT4nLCAnLW9tYWUnLCAnPG91dGZpbGUubWFlPic=

> <r_lp_tautomer_probability>
0.999

> <r_epik_Ionization_Penalty>
0.000460048

> <r_epik_Ionization_Penalty_Charging>
0

> <r_epik_Ionization_Penalty_Neutral>
0.000460048

> <r_epik_State_Penalty>
0.000177984

> <r_epik_Charging_Adjusted_Penalty>
0.000177984

> <i_epik_Tot_Q>
0

> <i_epik_Tot_abs_Q>
0

> <r_epik_Metal_State_Penalty>
0.00612978

> <b_epik_Metal_Only>
0

> <s_lp_Force_Field>
OPLS_2005

> <r_lp_Energy>
6.6865

> <b_lp_Chiralities_Consistent>
1

> <s_lp_Variant>
AV-unprocessed.smi:915-2

> <Gold.Version>
5.8.1

> <Gold.Id.Protein>
6NUR|6NUR_protein|mol2

> <Gold.PLP.Fitness>
40.0466

> <Gold.PLP.PLP>
-31.7713

> <Gold.PLP.part.hbond>
-2.6821

> <Gold.PLP.part.metal>
0.0000

> <Gold.PLP.part.buried>
-1.7075

> <Gold.PLP.part.nonpolar>
-29.5861

> <Gold.PLP.part.repulsive>
2.2016

> <Gold.PLP.ligand.clash>
0.0000

> <Gold.PLP.ligand.torsion>
0.3434

> <Gold.PLP.Chemscore.Hbond>
1.9840

> <Gold.PLP.Chemscore.CHOScore>
1.0000

> <Gold.PLP.Chemscore.Metal>
0.0000

> <Gold.Chemscore.Hbonds>
donor molecule, donor type, donor heavy atom, donor atom, acceptor molecule, acceptor atom, score
      L1  H     7    24       P1  7948  0.85
      L1  H    10    25       P1  7948  0.85
      L1  C     4    23       P1  8028  1.00

> <Gold.PLP.Chemscore.Internal.Correction>
0.0100

> <Gold.Rescore>
     Score         DG    S(hbond)    S(metal)    S(lipo)     H(rot)  DE(clash)    DE(int)     intcor
     16.07     -16.84       1.88        0.00      73.24       1.36       0.48       0.29       ----

> <Gold.Chemscore.Fitness>
16.0678

> <Gold.Chemscore.DG>
-16.8383

> <Gold.Chemscore.ZeroCoef>
-5.4800

> <Gold.Chemscore.Hbond>
1.8776

> <Gold.Chemscore.Metal>
0.0000

> <Gold.Chemscore.Lipo>
73.2439

> <Gold.Chemscore.Internal_Hbond>
0.0000

> <Gold.Chemscore.DEClash>
0.4833

> <Gold.Chemscore.DEInternal>
0.2872

> <Gold.Chemscore.Rot>
1.3603

> <Gold.Chemscore.Internal.Correction>
   9.000000E+99

> <Gold.Chemscore.Hbonds>
donor molecule, donor type, donor heavy atom, donor atom, acceptor molecule, acceptor atom, score
      L1  H     7    24       P1  7948  0.83
      L1  H    10    25       P1  7948  0.85

> <Gold.Chemscore.Hbond.Weighted>
-6.2712

> <Gold.Chemscore.Metal.Weighted>
-0.0000

> <Gold.Chemscore.Lipo.Weighted>
-8.5695

> <Gold.Chemscore.Internal_Hbond.Weighted>
0.0000

> <Gold.Chemscore.DEClash.Weighted>
0.4833

> <Gold.Chemscore.DEInternal.Weighted>
0.2872

> <Gold.Chemscore.Rot.Weighted>
3.4824

> <Gold.Chemscore.Internal.Correction.Weighted>
   9.000000E+99

> <Gold.Protein.RotatedTorsions>
[ 6907 6896 6895 6894 ] final -139.23 input  -60.11 | X-H torsion
[ 7974 7965 7964 7962 ] final   11.68 input  175.53 | X-H torsion
[ 8008 7997 7996 7995 ] final   68.46 input   59.86 | X-H torsion
[ 10167 10162 10161 10158 ] final -110.89 input  -65.29 | X-H torsion
[ 10718 10713 10712 10709 ] final -161.76 input   66.30 | X-H torsion
[ 10763 10752 10751 10750 ] final  104.76 input  -60.55 | X-H torsion
[ 11005 11000 10999 10996 ] final   84.09 input  -57.11 | X-H torsion

> <Gold.Protein.ActiveResidues>
 VAL166  LYS551  ARG553  GLY616  TRP617  ASP618  TYR619  PRO620  LYS621  CYS622 
 ASP623  PHE694  ASN695  SER759  ASP760  ASP761  ALA762  ILE779  LEU786  VAL792 
 PHE793  MET794  SER795  GLU796  ALA797  LYS798  CYS799  TRP800  GLU811  SER814 

> <Gold.Protein.RotatedAtoms>
  151.0451  133.5672  159.2647 H   0  0  0  0  0  0  0  0  0  0  0  0  # atno 6907 bound_to 6896
  151.2704  135.0682  159.9142 H   0  0  0  0  0  0  0  0  0  0  0  0  # atno 6908 bound_to 6896
  152.5371  134.0182  159.8023 H   0  0  0  0  0  0  0  0  0  0  0  0  # atno 6909 bound_to 6896
  146.2366  139.9450  142.8478 H   0  0  0  0  0  0  0  0  0  0  0  0  # atno 7974 bound_to 7965
  155.7087  140.3494  155.4964 H   0  0  0  0  0  0  0  0  0  0  0  0  # atno 8008 bound_to 7997
  155.9375  140.1095  157.1104 H   0  0  0  0  0  0  0  0  0  0  0  0  # atno 8009 bound_to 7997
  154.4096  140.1219  156.4870 H   0  0  0  0  0  0  0  0  0  0  0  0  # atno 8010 bound_to 7997
  140.1396  143.4291  152.1571 H   0  0  0  0  0  0  0  0  0  0  0  0  # atno 10167 bound_to 10162
  156.6008  130.8810  151.2913 H   0  0  0  0  0  0  0  0  0  0  0  0  # atno 10718 bound_to 10713
  153.3702  135.3932  155.1783 H   0  0  0  0  0  0  0  0  0  0  0  0  # atno 10763 bound_to 10752
  154.8693  135.3700  154.4987 H   0  0  0  0  0  0  0  0  0  0  0  0  # atno 10764 bound_to 10752
  153.5454  135.7084  153.5677 H   0  0  0  0  0  0  0  0  0  0  0  0  # atno 10765 bound_to 10752
  139.9011  134.8192  156.2398 H   0  0  0  0  0  0  0  0  0  0  0  0  # atno 11005 bound_to 11000
  145.1916  140.9814  143.4207 LP  0  0  0  0  0  0  0  0  0  0  0  0  # atno 17320 bound_to 7965
  144.9852  139.3744  143.6242 LP  0  0  0  0  0  0  0  0  0  0  0  0  # atno 17321 bound_to 7965
  139.5479  144.7313  151.4527 LP  0  0  0  0  0  0  0  0  0  0  0  0  # atno 17342 bound_to 10162
  140.6768  143.8171  150.7069 LP  0  0  0  0  0  0  0  0  0  0  0  0  # atno 17343 bound_to 10162
  157.7280  130.9650  150.1723 LP  0  0  0  0  0  0  0  0  0  0  0  0  # atno 17370 bound_to 10713
  156.2470  130.3696  149.8273 LP  0  0  0  0  0  0  0  0  0  0  0  0  # atno 17371 bound_to 10713
  141.0292  133.6998  156.1401 LP  0  0  0  0  0  0  0  0  0  0  0  0  # atno 17394 bound_to 11000
  140.7121  134.4450  157.5581 LP  0  0  0  0  0  0  0  0  0  0  0  0  # atno 17395 bound_to 11000

$$$$
