AV-unprocessed.smi:1823|AV-procd|sdf|7392|dock4
  -GOLD-   22720 9 63D 1   1.00000     0.00000
 Structure written by MMmdl.
 43 44  0  0  0  0  0  0  0  0  1 V2000
  147.6242  135.1150  160.9833 C   0  0  0  0  0  0  0  0  0  0  0  0
  148.3883  136.0545  160.1151 C   0  0  0  0  0  0  0  0  0  0  0  0
  148.1189  137.3541  160.1103 N   0  0  0  0  0  0  0  0  0  0  0  0
  149.0453  137.8726  159.1945 O   0  0  0  0  0  0  0  0  0  0  0  0
  149.7569  136.8098  158.7460 C   0  0  0  0  0  0  0  0  0  0  0  0
  150.8848  137.0457  157.7932 C   0  0  0  0  0  0  0  0  0  0  0  0
  150.4501  137.6211  156.4307 C   0  0  0  0  0  0  0  0  0  0  0  0
  150.2119  139.0624  156.4780 N   0  0  0  0  0  0  0  0  0  0  0  0
  150.2134  139.8846  155.4166 C   0  0  0  0  0  0  0  0  0  0  0  0
  150.3850  139.4957  154.2605 O   0  0  0  0  0  0  0  0  0  0  0  0
  150.0096  141.3801  155.7049 C   0  0  1  0  0  0  0  0  0  0  0  0
  148.6855  141.6231  156.4558 C   0  0  0  0  0  0  0  0  0  0  0  0
  149.1279  141.9888  157.8631 C   0  0  0  0  0  0  0  0  0  0  0  0
  148.3367  142.1378  158.7929 O   0  0  0  0  0  0  0  0  0  0  0  0
  150.4600  142.0975  157.9322 N   0  0  0  0  0  0  0  0  0  0  0  0
  151.2526  142.4244  159.1164 C   0  0  0  0  0  0  0  0  0  0  0  0
  151.4522  143.9454  159.3036 C   0  0  0  0  0  0  0  0  0  0  0  0
  152.3373  144.5837  158.2186 C   0  0  0  0  0  0  0  0  0  0  0  0
  152.0144  144.2456  160.7013 C   0  0  0  0  0  0  0  0  0  0  0  0
  151.0989  141.9551  156.6344 C   0  0  0  0  0  0  0  0  0  0  0  0
  149.3935  135.6510  159.2898 N   0  0  0  0  0  0  0  0  0  0  0  0
  146.5662  135.1342  160.7211 H   0  0  0  0  0  0  0  0  0  0  0  0
  147.7285  135.3994  162.0305 H   0  0  0  0  0  0  0  0  0  0  0  0
  147.9903  134.0946  160.8653 H   0  0  0  0  0  0  0  0  0  0  0  0
  151.5999  137.7205  158.2645 H   0  0  0  0  0  0  0  0  0  0  0  0
  151.4095  136.1015  157.6421 H   0  0  0  0  0  0  0  0  0  0  0  0
  151.1965  137.3816  155.6716 H   0  0  0  0  0  0  0  0  0  0  0  0
  149.5284  137.1360  156.1095 H   0  0  0  0  0  0  0  0  0  0  0  0
  150.0614  139.4689  157.3901 H   0  0  0  0  0  0  0  0  0  0  0  0
  150.0096  141.9273  154.7607 H   0  0  0  0  0  0  0  0  0  0  0  0
  148.1335  142.4563  156.0205 H   0  0  0  0  0  0  0  0  0  0  0  0
  148.0253  140.7544  156.4753 H   0  0  0  0  0  0  0  0  0  0  0  0
  150.7494  142.0089  159.9906 H   0  0  0  0  0  0  0  0  0  0  0  0
  152.2213  141.9240  159.0647 H   0  0  0  0  0  0  0  0  0  0  0  0
  150.4716  144.4197  159.2434 H   0  0  0  0  0  0  0  0  0  0  0  0
  153.3162  144.1054  158.1736 H   0  0  0  0  0  0  0  0  0  0  0  0
  152.4941  145.6446  158.4151 H   0  0  0  0  0  0  0  0  0  0  0  0
  151.8809  144.5079  157.2317 H   0  0  0  0  0  0  0  0  0  0  0  0
  153.0054  143.8093  160.8317 H   0  0  0  0  0  0  0  0  0  0  0  0
  151.3674  143.8427  161.4811 H   0  0  0  0  0  0  0  0  0  0  0  0
  152.0988  145.3198  160.8693 H   0  0  0  0  0  0  0  0  0  0  0  0
  151.9831  141.3189  156.7029 H   0  0  0  0  0  0  0  0  0  0  0  0
  151.4261  142.9354  156.2850 H   0  0  0  0  0  0  0  0  0  0  0  0
  1  2  1  0  0  0  0
  1 22  1  0  0  0  0
  1 23  1  0  0  0  0
  1 24  1  0  0  0  0
  2 21  1  0  0  0  0
  2  3  2  0  0  0  0
  3  4  1  0  0  0  0
  4  5  1  0  0  0  0
  5  6  1  0  0  0  0
  5 21  2  0  0  0  0
  6  7  1  0  0  0  0
  6 25  1  0  0  0  0
  6 26  1  0  0  0  0
  7  8  1  0  0  0  0
  7 27  1  0  0  0  0
  7 28  1  0  0  0  0
  8  9  1  0  0  0  0
  8 29  1  0  0  0  0
  9 10  2  0  0  0  0
  9 11  1  0  0  0  0
 11 20  1  0  0  0  0
 11 12  1  0  0  0  0
 11 30  1  0  0  0  0
 12 13  1  0  0  0  0
 12 31  1  0  0  0  0
 12 32  1  0  0  0  0
 13 14  2  0  0  0  0
 13 15  1  0  0  0  0
 15 16  1  0  0  0  0
 15 20  1  0  0  0  0
 16 17  1  0  0  0  0
 16 33  1  0  0  0  0
 16 34  1  0  0  0  0
 17 18  1  0  0  0  0
 17 19  1  0  0  0  0
 17 35  1  0  0  0  0
 18 36  1  0  0  0  0
 18 37  1  0  0  0  0
 18 38  1  0  0  0  0
 19 39  1  0  0  0  0
 19 40  1  0  0  0  0
 19 41  1  0  0  0  0
 20 42  1  0  0  0  0
 20 43  1  0  0  0  0
M  END
> <s_m_source_file>
AV-unprocessed.smi

> <i_m_source_file_index>
1823

> <i_lp_mmshare_version>
43012

> <i_f3d_flags>
0

> <s_epik_input>
W0NIM11jMW5vYyhuMSlbQ0gyXVtDSDJdW05IXUMoPU8pW0NAQEhdMltDSDJdQyg9TylOKFtDSDJdMilbQ0gyXVtDSF0oW0NIM10pW0NIM10=

> <s_epik_cmdline>
J2VwaWtfcHl0aG9uJywgJy1waCcsICc3LjAnLCAnLXRuJywgJzgnLCAnLW1hJywgJzIwMCcsICctbWV0YWxfYmluZGluZycsICctaW1hZScsICc8aW5maWxlLm1hZT4nLCAnLW9tYWUnLCAnPG91dGZpbGUubWFlPic=

> <r_lp_tautomer_probability>
1

> <r_epik_Ionization_Penalty>
3.64678e-08

> <r_epik_Ionization_Penalty_Charging>
0

> <r_epik_Ionization_Penalty_Neutral>
3.64678e-08

> <r_epik_State_Penalty>
-0

> <r_epik_Charging_Adjusted_Penalty>
0

> <i_epik_Tot_Q>
0

> <i_epik_Tot_abs_Q>
0

> <r_epik_Metal_State_Penalty>
-0

> <b_epik_Metal_Only>
0

> <s_lp_Force_Field>
OPLS_2005

> <r_lp_Energy>
11.154

> <b_lp_Chiralities_Consistent>
1

> <s_lp_Variant>
AV-unprocessed.smi:1823-2

> <Gold.Version>
5.8.1

> <Gold.Id.Protein>
6NUR|6NUR_protein|mol2

> <Gold.PLP.Fitness>
45.4284

> <Gold.PLP.PLP>
-37.7386

> <Gold.PLP.part.hbond>
-6.5685

> <Gold.PLP.part.metal>
0.0000

> <Gold.PLP.part.buried>
-4.1401

> <Gold.PLP.part.nonpolar>
-27.6437

> <Gold.PLP.part.repulsive>
0.2791

> <Gold.PLP.ligand.clash>
0.0000

> <Gold.PLP.ligand.torsion>
0.6818

> <Gold.PLP.Chemscore.Hbond>
2.9749

> <Gold.PLP.Chemscore.CHOScore>
0.0000

> <Gold.PLP.Chemscore.Metal>
0.0000

> <Gold.Chemscore.Hbonds>
donor molecule, donor type, donor heavy atom, donor atom, acceptor molecule, acceptor atom, score
      P1  H  6896  6908       L1    21  1.00
      P1  H  6931  6943       L1     3  0.25
      P1  H  6934  6947       L1     3  0.58
      P1  H  7989  7998       L1    10  1.00

> <Gold.PLP.Chemscore.Internal.Correction>
0.1286

> <Gold.Rescore>
     Score         DG    S(hbond)    S(metal)    S(lipo)     H(rot)  DE(clash)    DE(int)     intcor
     15.29     -16.38       2.36        0.00      78.22       2.40       0.53       0.57       ----

> <Gold.Chemscore.Fitness>
15.2872

> <Gold.Chemscore.DG>
-16.3829

> <Gold.Chemscore.ZeroCoef>
-5.4800

> <Gold.Chemscore.Hbond>
2.3605

> <Gold.Chemscore.Metal>
0.0000

> <Gold.Chemscore.Lipo>
78.2197

> <Gold.Chemscore.Internal_Hbond>
0.0000

> <Gold.Chemscore.DEClash>
0.5290

> <Gold.Chemscore.DEInternal>
0.5667

> <Gold.Chemscore.Rot>
2.3957

> <Gold.Chemscore.Internal.Correction>
   9.000000E+99

> <Gold.Chemscore.Hbonds>
donor molecule, donor type, donor heavy atom, donor atom, acceptor molecule, acceptor atom, score
      P1  H  6896  6908       L1    21  0.90
      P1  H  6931  6943       L1     3  0.02
      P1  H  6934  6947       L1     3  0.25
      P1  H  7989  7998       L1    10  0.43

> <Gold.Chemscore.Hbond.Weighted>
-7.8841

> <Gold.Chemscore.Metal.Weighted>
-0.0000

> <Gold.Chemscore.Lipo.Weighted>
-9.1517

> <Gold.Chemscore.Internal_Hbond.Weighted>
0.0000

> <Gold.Chemscore.DEClash.Weighted>
0.5290

> <Gold.Chemscore.DEInternal.Weighted>
0.5667

> <Gold.Chemscore.Rot.Weighted>
6.1329

> <Gold.Chemscore.Internal.Correction.Weighted>
   9.000000E+99

> <Gold.Protein.RotatedTorsions>
[ 6907 6896 6895 6894 ] final  167.07 input  -60.11 | X-H torsion
[ 7974 7965 7964 7962 ] final  132.73 input  175.53 | X-H torsion
[ 8008 7997 7996 7995 ] final   -4.45 input   59.86 | X-H torsion
[ 10167 10162 10161 10158 ] final  105.35 input  -65.29 | X-H torsion
[ 10718 10713 10712 10709 ] final  135.64 input   66.30 | X-H torsion
[ 10763 10752 10751 10750 ] final   70.29 input  -60.55 | X-H torsion
[ 11005 11000 10999 10996 ] final   27.18 input  -57.11 | X-H torsion

> <Gold.Protein.ActiveResidues>
 VAL166  LYS551  ARG553  GLY616  TRP617  ASP618  TYR619  PRO620  LYS621  CYS622 
 ASP623  PHE694  ASN695  SER759  ASP760  ASP761  ALA762  ILE779  LEU786  VAL792 
 PHE793  MET794  SER795  GLU796  ALA797  LYS798  CYS799  TRP800  GLU811  SER814 

> <Gold.Protein.RotatedAtoms>
  151.8691  133.3472  159.3728 H   0  0  0  0  0  0  0  0  0  0  0  0  # atno 6907 bound_to 6896
  150.7157  134.5130  159.5626 H   0  0  0  0  0  0  0  0  0  0  0  0  # atno 6908 bound_to 6896
  152.2659  134.7985  160.0473 H   0  0  0  0  0  0  0  0  0  0  0  0  # atno 6909 bound_to 6896
  144.9938  139.4379  143.5326 H   0  0  0  0  0  0  0  0  0  0  0  0  # atno 7974 bound_to 7965
  154.6141  140.2483  155.7631 H   0  0  0  0  0  0  0  0  0  0  0  0  # atno 8008 bound_to 7997
  156.2388  140.2940  156.0337 H   0  0  0  0  0  0  0  0  0  0  0  0  # atno 8009 bound_to 7997
  155.2003  140.0394  157.2906 H   0  0  0  0  0  0  0  0  0  0  0  0  # atno 8010 bound_to 7997
  139.7100  144.7079  151.1043 H   0  0  0  0  0  0  0  0  0  0  0  0  # atno 10167 bound_to 10162
  157.4550  131.1069  150.9988 H   0  0  0  0  0  0  0  0  0  0  0  0  # atno 10718 bound_to 10713
  153.0333  135.5179  154.7419 H   0  0  0  0  0  0  0  0  0  0  0  0  # atno 10763 bound_to 10752
  154.6416  135.2913  155.0099 H   0  0  0  0  0  0  0  0  0  0  0  0  # atno 10764 bound_to 10752
  154.1015  135.6635  153.4921 H   0  0  0  0  0  0  0  0  0  0  0  0  # atno 10765 bound_to 10752
  140.3290  134.2459  155.7705 H   0  0  0  0  0  0  0  0  0  0  0  0  # atno 11005 bound_to 11000
  146.3437  139.9286  142.8756 LP  0  0  0  0  0  0  0  0  0  0  0  0  # atno 17320 bound_to 7965
  145.2248  140.9949  143.4025 LP  0  0  0  0  0  0  0  0  0  0  0  0  # atno 17321 bound_to 7965
  140.7731  143.5306  150.9427 LP  0  0  0  0  0  0  0  0  0  0  0  0  # atno 17342 bound_to 10162
  139.8991  143.6858  152.3134 LP  0  0  0  0  0  0  0  0  0  0  0  0  # atno 17343 bound_to 10162
  157.0805  130.5901  149.5419 LP  0  0  0  0  0  0  0  0  0  0  0  0  # atno 17370 bound_to 10713
  156.0003  130.5081  150.7639 LP  0  0  0  0  0  0  0  0  0  0  0  0  # atno 17371 bound_to 10713
  141.2068  133.7823  157.0156 LP  0  0  0  0  0  0  0  0  0  0  0  0  # atno 17394 bound_to 11000
  140.0877  134.9611  157.1726 LP  0  0  0  0  0  0  0  0  0  0  0  0  # atno 17395 bound_to 11000

$$$$
