AV-unprocessed.smi:2597|AV-procd|sdf|10177|dock5
  -GOLD-   2272014193D 1   1.00000     0.00000
 Structure written by MMmdl.
 30 31  0  0  0  0  0  0  0  0  1 V2000
  149.3998  142.4730  157.0138 N   0  0  0  0  0  0  0  0  0  0  0  0
  150.4041  142.4790  158.0631 C   0  0  2  0  0  0  0  0  0  0  0  0
  151.4961  143.5219  157.7495 C   0  0  0  0  0  0  0  0  0  0  0  0
  152.5793  143.5326  158.8400 C   0  0  0  0  0  0  0  0  0  0  0  0
  153.1807  142.1353  159.0605 C   0  0  0  0  0  0  0  0  0  0  0  0
  152.0888  141.0988  159.3851 C   0  0  0  0  0  0  0  0  0  0  0  0
  150.9580  141.0518  158.3328 C   0  0  2  0  0  0  0  0  0  0  0  0
  151.3501  140.2992  157.1383 N   0  0  0  0  0  0  0  0  0  0  0  0
  150.5207  139.8289  156.1395 C   0  0  0  0  0  0  0  0  0  0  0  0
  151.3694  139.1837  155.2863 C   0  0  0  0  0  0  0  0  0  0  0  0
  151.0653  138.4704  154.0051 C   0  0  0  0  0  0  0  0  0  0  0  0
  151.6902  137.2077  154.0872 O   0  0  0  0  0  0  0  0  0  0  0  0
  152.6631  139.2731  155.7946 N   0  0  0  0  0  0  0  0  0  0  0  0
  152.6375  139.9383  156.9059 N   0  0  0  0  0  0  0  0  0  0  0  0
  149.8967  142.8070  158.9712 H   0  0  0  0  0  0  0  0  0  0  0  0
  150.1421  140.4815  158.7796 H   0  0  0  0  0  0  0  0  0  0  0  0
  149.3991  143.3621  156.5345 H   0  0  0  0  0  0  0  0  0  0  0  0
  149.6291  141.7713  156.3246 H   0  0  0  0  0  0  0  0  0  0  0  0
  151.9530  143.3327  156.7787 H   0  0  0  0  0  0  0  0  0  0  0  0
  151.0490  144.5142  157.6785 H   0  0  0  0  0  0  0  0  0  0  0  0
  153.3668  144.2380  158.5735 H   0  0  0  0  0  0  0  0  0  0  0  0
  152.1476  143.8920  159.7751 H   0  0  0  0  0  0  0  0  0  0  0  0
  153.7432  141.8312  158.1784 H   0  0  0  0  0  0  0  0  0  0  0  0
  153.9027  142.1726  159.8766 H   0  0  0  0  0  0  0  0  0  0  0  0
  152.5351  140.1106  159.5037 H   0  0  0  0  0  0  0  0  0  0  0  0
  151.6540  141.3484  160.3538 H   0  0  0  0  0  0  0  0  0  0  0  0
  149.4532  139.9893  156.1211 H   0  0  0  0  0  0  0  0  0  0  0  0
  149.9922  138.3411  153.8596 H   0  0  0  0  0  0  0  0  0  0  0  0
  151.4551  139.0165  153.1455 H   0  0  0  0  0  0  0  0  0  0  0  0
  151.3855  136.6752  153.3688 H   0  0  0  0  0  0  0  0  0  0  0  0
  1  2  1  0  0  0  0
  1 17  1  0  0  0  0
  1 18  1  0  0  0  0
  2 15  1  0  0  0  0
  2  7  1  0  0  0  0
  2  3  1  0  0  0  0
  3  4  1  0  0  0  0
  3 19  1  0  0  0  0
  3 20  1  0  0  0  0
  4  5  1  0  0  0  0
  4 21  1  0  0  0  0
  4 22  1  0  0  0  0
  5  6  1  0  0  0  0
  5 23  1  0  0  0  0
  5 24  1  0  0  0  0
  6  7  1  0  0  0  0
  6 25  1  0  0  0  0
  6 26  1  0  0  0  0
  7 16  1  0  0  0  0
  7  8  1  0  0  0  0
  8 14  1  0  0  0  0
  8  9  1  0  0  0  0
  9 10  2  0  0  0  0
  9 27  1  0  0  0  0
 10 11  1  0  0  0  0
 10 13  1  0  0  0  0
 11 12  1  0  0  0  0
 11 28  1  0  0  0  0
 11 29  1  0  0  0  0
 12 30  1  0  0  0  0
 13 14  2  0  0  0  0
M  END
> <s_m_source_file>
AV-unprocessed.smi

> <i_m_source_file_index>
2597

> <i_lp_mmshare_version>
43012

> <i_f3d_flags>
0

> <s_epik_input>
W05IMl1bQ0BIXTFbQ0gyXVtDSDJdW0NIMl1bQ0gyXVtDQEhdMW4yW2NIXWMobm4yKVtDSDJdW09IXQ==

> <s_epik_cmdline>
J2VwaWtfcHl0aG9uJywgJy1waCcsICc3LjAnLCAnLXRuJywgJzgnLCAnLW1hJywgJzIwMCcsICctbWV0YWxfYmluZGluZycsICctaW1hZScsICc8aW5maWxlLm1hZT4nLCAnLW9tYWUnLCAnPG91dGZpbGUubWFlPic=

> <r_lp_tautomer_probability>
1

> <r_epik_Ionization_Penalty>
2.21303

> <r_epik_Ionization_Penalty_Charging>
0

> <r_epik_Ionization_Penalty_Neutral>
2.21303

> <r_epik_State_Penalty>
2.3573

> <r_epik_Charging_Adjusted_Penalty>
2.3573

> <i_epik_Tot_Q>
0

> <i_epik_Tot_abs_Q>
0

> <r_epik_Metal_State_Penalty>
2.35724

> <b_epik_Metal_Only>
0

> <s_lp_Force_Field>
OPLS_2005

> <r_lp_Energy>
16.7408

> <b_lp_Chiralities_Consistent>
1

> <s_lp_Variant>
AV-unprocessed.smi:2597-8

> <Gold.Version>
5.8.1

> <Gold.Id.Protein>
6NUR|6NUR_protein|mol2

> <Gold.PLP.Fitness>
36.5791

> <Gold.PLP.PLP>
-29.6050

> <Gold.PLP.part.hbond>
-5.0000

> <Gold.PLP.part.metal>
0.0000

> <Gold.PLP.part.buried>
-5.2622

> <Gold.PLP.part.nonpolar>
-19.6566

> <Gold.PLP.part.repulsive>
0.0000

> <Gold.PLP.ligand.clash>
0.0000

> <Gold.PLP.ligand.torsion>
0.2922

> <Gold.PLP.Chemscore.Hbond>
2.4992

> <Gold.PLP.Chemscore.CHOScore>
0.0000

> <Gold.PLP.Chemscore.Metal>
0.0000

> <Gold.Chemscore.Hbonds>
donor molecule, donor type, donor heavy atom, donor atom, acceptor molecule, acceptor atom, score
      L1  H     1    17       P1  8028  1.00
      L1  H    12    30       P1  7949  1.00
      P1  H  7997  8010       L1    14  0.44

> <Gold.PLP.Chemscore.Internal.Correction>
0.0609

> <Gold.Rescore>
     Score         DG    S(hbond)    S(metal)    S(lipo)     H(rot)  DE(clash)    DE(int)     intcor
     14.51     -16.08       2.00        0.00      73.46       1.82       0.24       1.34       ----

> <Gold.Chemscore.Fitness>
14.5100

> <Gold.Chemscore.DG>
-16.0821

> <Gold.Chemscore.ZeroCoef>
-5.4800

> <Gold.Chemscore.Hbond>
1.9976

> <Gold.Chemscore.Metal>
0.0000

> <Gold.Chemscore.Lipo>
73.4625

> <Gold.Chemscore.Internal_Hbond>
0.0000

> <Gold.Chemscore.DEClash>
0.2362

> <Gold.Chemscore.DEInternal>
1.3360

> <Gold.Chemscore.Rot>
1.8222

> <Gold.Chemscore.Internal.Correction>
   9.000000E+99

> <Gold.Chemscore.Hbonds>
donor molecule, donor type, donor heavy atom, donor atom, acceptor molecule, acceptor atom, score
      L1  H     1    17       P1  8028  1.00
      L1  H    12    30       P1  7949  0.74
      P1  H  7997  8010       L1    14  0.03

> <Gold.Chemscore.Hbond.Weighted>
-6.6719

> <Gold.Chemscore.Metal.Weighted>
-0.0000

> <Gold.Chemscore.Lipo.Weighted>
-8.5951

> <Gold.Chemscore.Internal_Hbond.Weighted>
0.0000

> <Gold.Chemscore.DEClash.Weighted>
0.2362

> <Gold.Chemscore.DEInternal.Weighted>
1.3360

> <Gold.Chemscore.Rot.Weighted>
4.6649

> <Gold.Chemscore.Internal.Correction.Weighted>
   9.000000E+99

> <Gold.Protein.RotatedTorsions>
[ 6907 6896 6895 6894 ] final  100.86 input  -60.11 | X-H torsion
[ 7974 7965 7964 7962 ] final  125.20 input  175.53 | X-H torsion
[ 8008 7997 7996 7995 ] final   37.82 input   59.86 | X-H torsion
[ 10167 10162 10161 10158 ] final   -1.55 input  -65.29 | X-H torsion
[ 10718 10713 10712 10709 ] final  -20.38 input   66.30 | X-H torsion
[ 10763 10752 10751 10750 ] final  140.43 input  -60.55 | X-H torsion
[ 11005 11000 10999 10996 ] final   65.81 input  -57.11 | X-H torsion

> <Gold.Protein.ActiveResidues>
 VAL166  LYS551  ARG553  GLY616  TRP617  ASP618  TYR619  PRO620  LYS621  CYS622 
 ASP623  PHE694  ASN695  SER759  ASP760  ASP761  ALA762  ILE779  LEU786  VAL792 
 PHE793  MET794  SER795  GLU796  ALA797  LYS798  CYS799  TRP800  GLU811  SER814 

> <Gold.Protein.RotatedAtoms>
  152.5363  134.0213  159.7982 H   0  0  0  0  0  0  0  0  0  0  0  0  # atno 6907 bound_to 6896
  151.0399  133.5707  159.2659 H   0  0  0  0  0  0  0  0  0  0  0  0  # atno 6908 bound_to 6896
  151.2681  135.0683  159.9177 H   0  0  0  0  0  0  0  0  0  0  0  0  # atno 6909 bound_to 6896
  145.0757  139.3695  143.4935 H   0  0  0  0  0  0  0  0  0  0  0  0  # atno 7974 bound_to 7965
  155.2101  140.3323  155.4330 H   0  0  0  0  0  0  0  0  0  0  0  0  # atno 8008 bound_to 7997
  156.2374  140.1878  156.7132 H   0  0  0  0  0  0  0  0  0  0  0  0  # atno 8009 bound_to 7997
  154.6083  140.0612  156.9446 H   0  0  0  0  0  0  0  0  0  0  0  0  # atno 8010 bound_to 7997
  140.6815  143.6761  150.8144 H   0  0  0  0  0  0  0  0  0  0  0  0  # atno 10167 bound_to 10162
  156.5327  130.4659  149.6539 H   0  0  0  0  0  0  0  0  0  0  0  0  # atno 10718 bound_to 10713
  153.9226  135.2999  155.3447 H   0  0  0  0  0  0  0  0  0  0  0  0  # atno 10763 bound_to 10752
  154.7568  135.4954  153.9392 H   0  0  0  0  0  0  0  0  0  0  0  0  # atno 10764 bound_to 10752
  153.1134  135.6764  153.9564 H   0  0  0  0  0  0  0  0  0  0  0  0  # atno 10765 bound_to 10752
  139.9871  134.6651  156.0157 H   0  0  0  0  0  0  0  0  0  0  0  0  # atno 11005 bound_to 11000
  146.3530  140.0524  142.8635 LP  0  0  0  0  0  0  0  0  0  0  0  0  # atno 17320 bound_to 7965
  145.1238  140.9478  143.4584 LP  0  0  0  0  0  0  0  0  0  0  0  0  # atno 17321 bound_to 7965
  140.0462  143.5295  152.2695 LP  0  0  0  0  0  0  0  0  0  0  0  0  # atno 17342 bound_to 10162
  139.6141  144.7615  151.2886 LP  0  0  0  0  0  0  0  0  0  0  0  0  # atno 17343 bound_to 10162
  156.3045  130.7195  151.2074 LP  0  0  0  0  0  0  0  0  0  0  0  0  # atno 17370 bound_to 10713
  157.7419  131.0497  150.5064 LP  0  0  0  0  0  0  0  0  0  0  0  0  # atno 17371 bound_to 10713
  141.1534  133.6545  156.4084 LP  0  0  0  0  0  0  0  0  0  0  0  0  # atno 17394 bound_to 11000
  140.4981  134.6512  157.5238 LP  0  0  0  0  0  0  0  0  0  0  0  0  # atno 17395 bound_to 11000

$$$$
