AV-unprocessed.smi:3169|AV-procd|sdf|12104|dock2
  -GOLD-   2272017543D 1   1.00000     0.00000
 Structure written by MMmdl.
 36 37  0  0  0  0  0  0  0  0  2 V2000
  144.5060  136.9699  152.2809 O   0  0  0  0  0  0  0  0  0  0  0  0
  145.6794  136.6322  152.1221 C   0  0  0  0  0  0  0  0  0  0  0  0
  146.7238  137.2799  152.6571 N   0  0  0  0  0  0  0  0  0  0  0  0
  146.6211  138.4665  153.4980 C   0  0  0  0  0  0  0  0  0  0  0  0
  147.0689  139.7304  152.7458 C   0  0  0  0  0  0  0  0  0  0  0  0
  147.1178  140.8956  153.6298 N   0  0  0  0  0  0  0  0  0  0  0  0
  146.0982  141.4072  154.3905 C   0  0  0  0  0  0  0  0  0  0  0  0
  146.6098  142.4983  155.0451 C   0  0  0  0  0  0  0  0  0  0  0  0
  147.9180  142.6066  154.6550 N   0  3  0  0  0  0  0  0  0  0  0  0
  148.2249  141.6312  153.7935 C   0  0  0  0  0  0  0  0  0  0  0  0
  146.0663  135.5754  151.3954 N   0  0  0  0  0  0  0  0  0  0  0  0
  145.1626  134.6579  150.7112 C   0  0  0  0  0  0  0  0  0  0  0  0
  144.9955  133.3465  151.4955 C   0  0  1  0  0  0  0  0  0  0  0  0
  144.2257  132.2687  150.7349 C   0  0  0  0  0  0  0  0  0  0  0  0
  144.7286  131.0099  151.4033 C   0  0  0  0  0  0  0  0  0  0  0  0
  146.2008  131.3437  151.6267 C   0  0  0  0  0  0  0  0  0  0  0  0
  146.2660  132.7605  151.7715 O   0  0  0  0  0  0  0  0  0  0  0  0
  147.6510  136.9239  152.4751 H   0  0  0  0  0  0  0  0  0  0  0  0
  145.5972  138.5775  153.8594 H   0  0  0  0  0  0  0  0  0  0  0  0
  147.2456  138.3157  154.3790 H   0  0  0  0  0  0  0  0  0  0  0  0
  148.0618  139.5929  152.3154 H   0  0  0  0  0  0  0  0  0  0  0  0
  146.3907  139.9599  151.9223 H   0  0  0  0  0  0  0  0  0  0  0  0
  145.1109  140.9689  154.4085 H   0  0  0  0  0  0  0  0  0  0  0  0
  146.1528  143.1878  155.7401 H   0  0  0  0  0  0  0  0  0  0  0  0
  149.1786  141.4700  153.3227 H   0  0  0  0  0  0  0  0  0  0  0  0
  147.0535  135.3757  151.3270 H   0  0  0  0  0  0  0  0  0  0  0  0
  144.1923  135.1341  150.5601 H   0  0  0  0  0  0  0  0  0  0  0  0
  145.5643  134.4527  149.7186 H   0  0  0  0  0  0  0  0  0  0  0  0
  144.4951  133.5303  152.4479 H   0  0  0  0  0  0  0  0  0  0  0  0
  143.1443  132.3887  150.8052 H   0  0  0  0  0  0  0  0  0  0  0  0
  144.5030  132.2661  149.6796 H   0  0  0  0  0  0  0  0  0  0  0  0
  144.2246  130.8683  152.3605 H   0  0  0  0  0  0  0  0  0  0  0  0
  144.5803  130.1131  150.8010 H   0  0  0  0  0  0  0  0  0  0  0  0
  146.6136  130.8345  152.4979 H   0  0  0  0  0  0  0  0  0  0  0  0
  146.7928  131.0581  150.7564 H   0  0  0  0  0  0  0  0  0  0  0  0
  148.5624  143.3211  154.9702 H   0  0  0  0  0  0  0  0  0  0  0  0
  1  2  2  0  0  0  0
  2  3  1  0  0  0  0
  2 11  1  0  0  0  0
  3  4  1  0  0  0  0
  3 18  1  0  0  0  0
  4  5  1  0  0  0  0
  4 19  1  0  0  0  0
  4 20  1  0  0  0  0
  5  6  1  0  0  0  0
  5 21  1  0  0  0  0
  5 22  1  0  0  0  0
  6 10  1  0  0  0  0
  6  7  1  0  0  0  0
  7  8  2  0  0  0  0
  7 23  1  0  0  0  0
  8  9  1  0  0  0  0
  8 24  1  0  0  0  0
  9 10  2  0  0  0  0
  9 36  1  0  0  0  0
 10 25  1  0  0  0  0
 11 12  1  0  0  0  0
 11 26  1  0  0  0  0
 12 13  1  0  0  0  0
 12 27  1  0  0  0  0
 12 28  1  0  0  0  0
 13 17  1  0  0  0  0
 13 14  1  0  0  0  0
 13 29  1  0  0  0  0
 14 15  1  0  0  0  0
 14 30  1  0  0  0  0
 14 31  1  0  0  0  0
 15 16  1  0  0  0  0
 15 32  1  0  0  0  0
 15 33  1  0  0  0  0
 16 17  1  0  0  0  0
 16 34  1  0  0  0  0
 16 35  1  0  0  0  0
M  CHG  1   9   1
M  END
> <s_m_source_file>
AV-unprocessed.smi

> <i_m_source_file_index>
3169

> <i_lp_mmshare_version>
43012

> <i_f3d_flags>
0

> <s_epik_input>
TzFbQ0gyXVtDSDJdW0NIMl1bQ0BIXTFbQ0gyXVtOSF1DKD1PKVtOSF1bQ0gyXVtDSDJdbjJbY0hdW2NIXW5bY0hdMg==

> <s_epik_cmdline>
J2VwaWtfcHl0aG9uJywgJy1waCcsICc3LjAnLCAnLXRuJywgJzgnLCAnLW1hJywgJzIwMCcsICctbWV0YWxfYmluZGluZycsICctaW1hZScsICc8aW5maWxlLm1hZT4nLCAnLW9tYWUnLCAnPG91dGZpbGUubWFlPic=

> <r_lp_tautomer_probability>
1

> <r_epik_Ionization_Penalty>
0.256136

> <r_epik_Ionization_Penalty_Charging>
0

> <r_epik_Ionization_Penalty_Neutral>
0.256136

> <r_epik_State_Penalty>
0.247629

> <r_epik_Charging_Adjusted_Penalty>
0.247629

> <i_epik_Tot_Q>
1

> <i_epik_Tot_abs_Q>
1

> <r_epik_Metal_State_Penalty>
0.537113

> <b_epik_Metal_Only>
0

> <s_lp_Force_Field>
OPLS_2005

> <r_lp_Energy>
16.1594

> <b_lp_Chiralities_Consistent>
1

> <s_lp_Variant>
AV-unprocessed.smi:3169-2

> <Gold.Version>
5.8.1

> <Gold.Id.Protein>
6NUR|6NUR_protein|mol2

> <Gold.PLP.Fitness>
44.1786

> <Gold.PLP.PLP>
-28.5650

> <Gold.PLP.part.hbond>
-2.8865

> <Gold.PLP.part.metal>
0.0000

> <Gold.PLP.part.buried>
-0.1306

> <Gold.PLP.part.nonpolar>
-25.1547

> <Gold.PLP.part.repulsive>
1.3060

> <Gold.PLP.ligand.clash>
0.0000

> <Gold.PLP.ligand.torsion>
0.2511

> <Gold.PLP.Chemscore.Hbond>
3.7030

> <Gold.PLP.Chemscore.CHOScore>
1.6627

> <Gold.PLP.Chemscore.Metal>
0.0000

> <Gold.Chemscore.Hbonds>
donor molecule, donor type, donor heavy atom, donor atom, acceptor molecule, acceptor atom, score
      L1  H     3    18       P1  7948  1.00
      L1  H     9    36       P1  8028  2.00
      L1  H    11    26       P1  7948  0.69
      L1  C     7    23       P1 10175  0.94
      L1  C    10    25       P1  7957  0.72

> <Gold.PLP.Chemscore.Internal.Correction>
0.0187

> <Gold.Rescore>
     Score         DG    S(hbond)    S(metal)    S(lipo)     H(rot)  DE(clash)    DE(int)     intcor
     14.84     -15.34       2.71        0.00      57.82       2.33       0.23       0.27       ----

> <Gold.Chemscore.Fitness>
14.8425

> <Gold.Chemscore.DG>
-15.3411

> <Gold.Chemscore.ZeroCoef>
-5.4800

> <Gold.Chemscore.Hbond>
2.7118

> <Gold.Chemscore.Metal>
0.0000

> <Gold.Chemscore.Lipo>
57.8243

> <Gold.Chemscore.Internal_Hbond>
0.0000

> <Gold.Chemscore.DEClash>
0.2304

> <Gold.Chemscore.DEInternal>
0.2681

> <Gold.Chemscore.Rot>
2.3288

> <Gold.Chemscore.Internal.Correction>
   9.000000E+99

> <Gold.Chemscore.Hbonds>
donor molecule, donor type, donor heavy atom, donor atom, acceptor molecule, acceptor atom, score
      L1  H     3    18       P1  7948  0.98
      L1  H     9    36       P1  8028  0.92
      L1  H    11    26       P1  7948  0.62

> <Gold.Chemscore.Hbond.Weighted>
-9.0573

> <Gold.Chemscore.Metal.Weighted>
-0.0000

> <Gold.Chemscore.Lipo.Weighted>
-6.7654

> <Gold.Chemscore.Internal_Hbond.Weighted>
0.0000

> <Gold.Chemscore.DEClash.Weighted>
0.2304

> <Gold.Chemscore.DEInternal.Weighted>
0.2681

> <Gold.Chemscore.Rot.Weighted>
5.9617

> <Gold.Chemscore.Internal.Correction.Weighted>
   9.000000E+99

> <Gold.Protein.RotatedTorsions>
[ 6907 6896 6895 6894 ] final  142.38 input  -60.11 | X-H torsion
[ 7974 7965 7964 7962 ] final -100.96 input  175.53 | X-H torsion
[ 8008 7997 7996 7995 ] final -107.10 input   59.86 | X-H torsion
[ 10167 10162 10161 10158 ] final  145.23 input  -65.29 | X-H torsion
[ 10718 10713 10712 10709 ] final -173.57 input   66.30 | X-H torsion
[ 10763 10752 10751 10750 ] final   11.58 input  -60.55 | X-H torsion
[ 11005 11000 10999 10996 ] final  169.29 input  -57.11 | X-H torsion

> <Gold.Protein.ActiveResidues>
 VAL166  LYS551  ARG553  GLY616  TRP617  ASP618  TYR619  PRO620  LYS621  CYS622 
 ASP623  PHE694  ASN695  SER759  ASP760  ASP761  ALA762  ILE779  LEU786  VAL792 
 PHE793  MET794  SER795  GLU796  ALA797  LYS798  CYS799  TRP800  GLU811  SER814 

> <Gold.Protein.RotatedAtoms>
  152.2195  133.4972  159.5154 H   0  0  0  0  0  0  0  0  0  0  0  0  # atno 6907 bound_to 6896
  150.7009  134.1361  159.4097 H   0  0  0  0  0  0  0  0  0  0  0  0  # atno 6908 bound_to 6896
  151.9282  135.0268  160.0578 H   0  0  0  0  0  0  0  0  0  0  0  0  # atno 6909 bound_to 6896
  145.2878  140.9344  143.2895 H   0  0  0  0  0  0  0  0  0  0  0  0  # atno 7974 bound_to 7965
  154.9244  140.0406  157.2015 H   0  0  0  0  0  0  0  0  0  0  0  0  # atno 8008 bound_to 7997
  154.8222  140.2885  155.5757 H   0  0  0  0  0  0  0  0  0  0  0  0  # atno 8009 bound_to 7997
  156.2981  140.2516  156.3132 H   0  0  0  0  0  0  0  0  0  0  0  0  # atno 8010 bound_to 7997
  139.4930  144.5916  151.6669 H   0  0  0  0  0  0  0  0  0  0  0  0  # atno 10167 bound_to 10162
  156.7723  130.9453  151.3120 H   0  0  0  0  0  0  0  0  0  0  0  0  # atno 10718 bound_to 10713
  153.1911  135.6842  153.8351 H   0  0  0  0  0  0  0  0  0  0  0  0  # atno 10763 bound_to 10752
  153.7650  135.3204  155.3344 H   0  0  0  0  0  0  0  0  0  0  0  0  # atno 10764 bound_to 10752
  154.8118  135.4712  154.0634 H   0  0  0  0  0  0  0  0  0  0  0  0  # atno 10765 bound_to 10752
  140.2962  134.7632  157.3879 H   0  0  0  0  0  0  0  0  0  0  0  0  # atno 11005 bound_to 11000
  144.9198  139.4426  143.6547 LP  0  0  0  0  0  0  0  0  0  0  0  0  # atno 17320 bound_to 7965
  146.3195  139.8052  142.8957 LP  0  0  0  0  0  0  0  0  0  0  0  0  # atno 17321 bound_to 7965
  140.5544  144.0372  150.6141 LP  0  0  0  0  0  0  0  0  0  0  0  0  # atno 17342 bound_to 10162
  140.3437  143.3004  152.0561 LP  0  0  0  0  0  0  0  0  0  0  0  0  # atno 17343 bound_to 10162
  157.6685  130.9030  149.9987 LP  0  0  0  0  0  0  0  0  0  0  0  0  # atno 17370 bound_to 10713
  156.1270  130.3644  149.9793 LP  0  0  0  0  0  0  0  0  0  0  0  0  # atno 17371 bound_to 10713
  140.1150  134.5295  155.8233 LP  0  0  0  0  0  0  0  0  0  0  0  0  # atno 17394 bound_to 11000
  141.2137  133.6737  156.6760 LP  0  0  0  0  0  0  0  0  0  0  0  0  # atno 17395 bound_to 11000

$$$$
