AV-unprocessed.smi:1884|AV-procd|sdf|7647|dock1
  -GOLD-   22720 9373D 1   1.00000     0.00000
 Structure written by MMmdl.
 40 42  0  0  0  0  0  0  0  0  1 V2000
  151.4079  137.6762  157.9915 C   0  0  0  0  0  0  0  0  0  0  0  0
  151.7825  139.0730  158.3729 C   0  0  0  0  0  0  0  0  0  0  0  0
  152.8346  139.3417  159.1464 N   0  0  0  0  0  0  0  0  0  0  0  0
  152.8038  140.7204  159.2316 C   0  0  0  0  0  0  0  0  0  0  0  0
  153.6571  141.6183  159.9121 C   0  0  0  0  0  0  0  0  0  0  0  0
  153.4227  143.0079  159.8552 C   0  0  0  0  0  0  0  0  0  0  0  0
  152.3339  143.5187  159.1193 C   0  0  0  0  0  0  0  0  0  0  0  0
  151.4717  142.6417  158.4336 C   0  0  0  0  0  0  0  0  0  0  0  0
  151.7106  141.2557  158.4926 C   0  0  0  0  0  0  0  0  0  0  0  0
  151.0708  140.1460  157.9487 N   0  0  0  0  0  0  0  0  0  0  0  0
  149.8871  140.1581  157.1003 C   0  0  0  0  0  0  0  0  0  0  0  0
  150.0970  140.9595  155.7992 C   0  0  1  0  0  0  0  0  0  0  0  0
  150.9305  140.2681  154.8902 O   0  0  0  0  0  0  0  0  0  0  0  0
  148.7859  141.3401  155.0917 C   0  0  0  0  0  0  0  0  0  0  0  0
  147.7343  141.4495  156.0435 O   0  0  0  0  0  0  0  0  0  0  0  0
  146.8870  142.5332  155.9624 C   0  0  0  0  0  0  0  0  0  0  0  0
  146.0816  142.7999  157.0886 C   0  0  0  0  0  0  0  0  0  0  0  0
  145.1862  143.8868  157.0950 C   0  0  0  0  0  0  0  0  0  0  0  0
  145.0865  144.7245  155.9668 C   0  0  0  0  0  0  0  0  0  0  0  0
  144.1636  145.8472  155.9698 C   0  0  0  0  0  0  0  0  0  0  0  0
  143.4289  146.7410  155.9723 N   0  0  0  0  0  0  0  0  0  0  0  0
  145.8862  144.4688  154.8352 C   0  0  0  0  0  0  0  0  0  0  0  0
  146.7815  143.3811  154.8310 C   0  0  0  0  0  0  0  0  0  0  0  0
  152.0690  136.9573  158.4768 H   0  0  0  0  0  0  0  0  0  0  0  0
  151.4915  137.5445  156.9126 H   0  0  0  0  0  0  0  0  0  0  0  0
  150.3845  137.4598  158.2974 H   0  0  0  0  0  0  0  0  0  0  0  0
  154.4933  141.2368  160.4791 H   0  0  0  0  0  0  0  0  0  0  0  0
  154.0813  143.6852  160.3788 H   0  0  0  0  0  0  0  0  0  0  0  0
  152.1606  144.5842  159.0818 H   0  0  0  0  0  0  0  0  0  0  0  0
  150.6349  143.0296  157.8714 H   0  0  0  0  0  0  0  0  0  0  0  0
  149.6184  139.1256  156.8746 H   0  0  0  0  0  0  0  0  0  0  0  0
  149.0508  140.5692  157.6659 H   0  0  0  0  0  0  0  0  0  0  0  0
  150.6210  141.8849  156.0396 H   0  0  0  0  0  0  0  0  0  0  0  0
  150.5856  139.3963  154.7708 H   0  0  0  0  0  0  0  0  0  0  0  0
  148.9207  142.3051  154.6005 H   0  0  0  0  0  0  0  0  0  0  0  0
  148.5448  140.6060  154.3208 H   0  0  0  0  0  0  0  0  0  0  0  0
  146.1504  142.1627  157.9582 H   0  0  0  0  0  0  0  0  0  0  0  0
  144.5788  144.0717  157.9696 H   0  0  0  0  0  0  0  0  0  0  0  0
  145.8184  145.1046  153.9641 H   0  0  0  0  0  0  0  0  0  0  0  0
  147.3769  143.2190  153.9456 H   0  0  0  0  0  0  0  0  0  0  0  0
  1  2  1  0  0  0  0
  1 24  1  0  0  0  0
  1 25  1  0  0  0  0
  1 26  1  0  0  0  0
  2 10  1  0  0  0  0
  2  3  2  0  0  0  0
  3  4  1  0  0  0  0
  4  9  2  0  0  0  0
  4  5  1  0  0  0  0
  5  6  2  0  0  0  0
  5 27  1  0  0  0  0
  6  7  1  0  0  0  0
  6 28  1  0  0  0  0
  7  8  2  0  0  0  0
  7 29  1  0  0  0  0
  8  9  1  0  0  0  0
  8 30  1  0  0  0  0
  9 10  1  0  0  0  0
 10 11  1  0  0  0  0
 11 12  1  0  0  0  0
 11 31  1  0  0  0  0
 11 32  1  0  0  0  0
 12 13  1  0  0  0  0
 12 14  1  0  0  0  0
 12 33  1  0  0  0  0
 13 34  1  0  0  0  0
 14 15  1  0  0  0  0
 14 35  1  0  0  0  0
 14 36  1  0  0  0  0
 15 16  1  0  0  0  0
 16 23  1  0  0  0  0
 16 17  2  0  0  0  0
 17 18  1  0  0  0  0
 17 37  1  0  0  0  0
 18 19  2  0  0  0  0
 18 38  1  0  0  0  0
 19 20  1  0  0  0  0
 19 22  1  0  0  0  0
 20 21  3  0  0  0  0
 22 23  2  0  0  0  0
 22 39  1  0  0  0  0
 23 40  1  0  0  0  0
M  END
> <s_m_source_file>
AV-unprocessed.smi

> <i_m_source_file_index>
1884

> <i_lp_mmshare_version>
43012

> <i_f3d_flags>
0

> <s_epik_input>
W2NIXTFbY0hdW2NIXVtjSF1jKGMxMiluKGMobjIpW0NIM10pW0NIMl1bQ0BIXShbT0hdKVtDSDJdT2MzW2NIXVtjSF1jKEMjTilbY0hdW2NIXTM=

> <s_epik_cmdline>
J2VwaWtfcHl0aG9uJywgJy1waCcsICc3LjAnLCAnLXRuJywgJzgnLCAnLW1hJywgJzIwMCcsICctbWV0YWxfYmluZGluZycsICctaW1hZScsICc8aW5maWxlLm1hZT4nLCAnLW9tYWUnLCAnPG91dGZpbGUubWFlPic=

> <r_epik_Ionization_Penalty>
0.110799

> <r_epik_Ionization_Penalty_Charging>
0

> <r_epik_Ionization_Penalty_Neutral>
0.110799

> <r_epik_State_Penalty>
0.100537

> <r_epik_Charging_Adjusted_Penalty>
0.100537

> <i_epik_Tot_Q>
0

> <i_epik_Tot_abs_Q>
0

> <r_epik_Metal_State_Penalty>
0.000109561

> <b_epik_Metal_Only>
0

> <s_lp_Force_Field>
OPLS_2005

> <r_lp_Energy>
15.8786

> <b_lp_Chiralities_Consistent>
1

> <s_lp_Variant>
AV-unprocessed.smi:1884-2

> <Gold.Version>
5.8.1

> <Gold.Id.Protein>
6NUR|6NUR_protein|mol2

> <Gold.PLP.Fitness>
51.5677

> <Gold.PLP.PLP>
-50.4707

> <Gold.PLP.part.hbond>
-2.0000

> <Gold.PLP.part.metal>
0.0000

> <Gold.PLP.part.buried>
-8.4482

> <Gold.PLP.part.nonpolar>
-40.0525

> <Gold.PLP.part.repulsive>
0.1567

> <Gold.PLP.ligand.clash>
0.0000

> <Gold.PLP.ligand.torsion>
0.9964

> <Gold.PLP.Chemscore.Hbond>
1.0000

> <Gold.PLP.Chemscore.CHOScore>
0.0000

> <Gold.PLP.Chemscore.Metal>
0.0000

> <Gold.Chemscore.Hbonds>
donor molecule, donor type, donor heavy atom, donor atom, acceptor molecule, acceptor atom, score
      P1  H  7989  7998       L1    13  1.00

> <Gold.PLP.Chemscore.Internal.Correction>
0.0899

> <Gold.Rescore>
     Score         DG    S(hbond)    S(metal)    S(lipo)     H(rot)  DE(clash)    DE(int)     intcor
     15.31     -16.47       0.97        0.00     116.86       2.31       0.01       1.15       ----

> <Gold.Chemscore.Fitness>
15.3058

> <Gold.Chemscore.DG>
-16.4666

> <Gold.Chemscore.ZeroCoef>
-5.4800

> <Gold.Chemscore.Hbond>
0.9666

> <Gold.Chemscore.Metal>
0.0000

> <Gold.Chemscore.Lipo>
116.8577

> <Gold.Chemscore.Internal_Hbond>
0.0000

> <Gold.Chemscore.DEClash>
0.0130

> <Gold.Chemscore.DEInternal>
1.1478

> <Gold.Chemscore.Rot>
2.3102

> <Gold.Chemscore.Internal.Correction>
   9.000000E+99

> <Gold.Chemscore.Hbonds>
donor molecule, donor type, donor heavy atom, donor atom, acceptor molecule, acceptor atom, score
      P1  H  7989  7998       L1    13  0.85

> <Gold.Chemscore.Hbond.Weighted>
-3.2284

> <Gold.Chemscore.Metal.Weighted>
-0.0000

> <Gold.Chemscore.Lipo.Weighted>
-13.6723

> <Gold.Chemscore.Internal_Hbond.Weighted>
0.0000

> <Gold.Chemscore.DEClash.Weighted>
0.0130

> <Gold.Chemscore.DEInternal.Weighted>
1.1478

> <Gold.Chemscore.Rot.Weighted>
5.9141

> <Gold.Chemscore.Internal.Correction.Weighted>
   9.000000E+99

> <Gold.Protein.RotatedTorsions>
[ 6907 6896 6895 6894 ] final  157.87 input  -60.11 | X-H torsion
[ 7974 7965 7964 7962 ] final  146.47 input  175.53 | X-H torsion
[ 8008 7997 7996 7995 ] final  -54.35 input   59.86 | X-H torsion
[ 10167 10162 10161 10158 ] final  154.58 input  -65.29 | X-H torsion
[ 10718 10713 10712 10709 ] final  -78.23 input   66.30 | X-H torsion
[ 10763 10752 10751 10750 ] final -123.03 input  -60.55 | X-H torsion
[ 11005 11000 10999 10996 ] final  -97.67 input  -57.11 | X-H torsion

> <Gold.Protein.ActiveResidues>
 VAL166  LYS551  ARG553  GLY616  TRP617  ASP618  TYR619  PRO620  LYS621  CYS622 
 ASP623  PHE694  ASN695  SER759  ASP760  ASP761  ALA762  ILE779  LEU786  VAL792 
 PHE793  MET794  SER795  GLU796  ALA797  LYS798  CYS799  TRP800  GLU811  SER814 

> <Gold.Protein.RotatedAtoms>
  152.0088  133.3853  159.4211 H   0  0  0  0  0  0  0  0  0  0  0  0  # atno 6907 bound_to 6896
  150.6902  134.3753  159.5019 H   0  0  0  0  0  0  0  0  0  0  0  0  # atno 6908 bound_to 6896
  152.1511  134.8987  160.0598 H   0  0  0  0  0  0  0  0  0  0  0  0  # atno 6909 bound_to 6896
  144.8668  139.5910  143.5905 H   0  0  0  0  0  0  0  0  0  0  0  0  # atno 7974 bound_to 7965
  154.4160  140.1178  156.5301 H   0  0  0  0  0  0  0  0  0  0  0  0  # atno 8008 bound_to 7997
  155.6615  140.3496  155.4765 H   0  0  0  0  0  0  0  0  0  0  0  0  # atno 8009 bound_to 7997
  155.9709  140.1141  157.0802 H   0  0  0  0  0  0  0  0  0  0  0  0  # atno 8010 bound_to 7997
  139.4823  144.5174  151.7930 H   0  0  0  0  0  0  0  0  0  0  0  0  # atno 10167 bound_to 10162
  156.0123  130.4512  150.3465 H   0  0  0  0  0  0  0  0  0  0  0  0  # atno 10718 bound_to 10713
  154.8700  135.4112  154.2877 H   0  0  0  0  0  0  0  0  0  0  0  0  # atno 10763 bound_to 10752
  153.3758  135.7009  153.6608 H   0  0  0  0  0  0  0  0  0  0  0  0  # atno 10764 bound_to 10752
  153.5451  135.3640  155.2707 H   0  0  0  0  0  0  0  0  0  0  0  0  # atno 10765 bound_to 10752
  141.1371  133.8188  157.0736 H   0  0  0  0  0  0  0  0  0  0  0  0  # atno 11005 bound_to 11000
  146.2901  139.7116  142.9167 LP  0  0  0  0  0  0  0  0  0  0  0  0  # atno 17320 bound_to 7965
  145.4206  141.0406  143.2966 LP  0  0  0  0  0  0  0  0  0  0  0  0  # atno 17321 bound_to 7965
  140.4684  144.1622  150.5915 LP  0  0  0  0  0  0  0  0  0  0  0  0  # atno 17342 bound_to 10162
  140.4409  143.2527  151.9474 LP  0  0  0  0  0  0  0  0  0  0  0  0  # atno 17343 bound_to 10162
  157.1559  131.0333  151.2863 LP  0  0  0  0  0  0  0  0  0  0  0  0  # atno 17370 bound_to 10713
  157.4352  130.7513  149.7023 LP  0  0  0  0  0  0  0  0  0  0  0  0  # atno 17371 bound_to 10713
  140.0495  134.9813  157.1111 LP  0  0  0  0  0  0  0  0  0  0  0  0  # atno 17394 bound_to 11000
  140.4011  134.2082  155.7163 LP  0  0  0  0  0  0  0  0  0  0  0  0  # atno 17395 bound_to 11000

$$$$
