AV-unprocessed.smi:669|AV-procd|sdf|3263|dock4
  -GOLD-   22720 0213D 1   1.00000     0.00000
 Structure written by MMmdl.
 37 38  0  0  0  0  0  0  0  0  1 V2000
  154.5856  140.7657  161.4062 C   0  0  0  0  0  0  0  0  0  0  0  0
  153.6200  141.8691  161.0912 C   0  0  0  0  0  0  0  0  0  0  0  0
  153.2522  142.8936  162.0486 C   0  0  0  0  0  0  0  0  0  0  0  0
  152.3946  143.8676  161.6767 C   0  0  0  0  0  0  0  0  0  0  0  0
  151.8181  143.9139  160.3346 C   0  0  0  0  0  0  0  0  0  0  0  0
  151.0686  144.8141  159.9580 O   0  0  0  0  0  0  0  0  0  0  0  0
  152.1956  142.8707  159.5370 N   0  0  0  0  0  0  0  0  0  0  0  0
  151.6916  142.7380  158.1599 C   0  0  0  0  0  0  0  0  0  0  0  0
  150.6791  141.5719  157.9417 C   0  0  1  0  0  0  0  0  0  0  0  0
  149.5080  141.8908  158.6684 O   0  0  0  0  0  0  0  0  0  0  0  0
  150.2227  141.4968  156.4646 C   0  0  0  0  0  0  0  0  0  0  0  0
  151.2899  140.8927  155.5333 C   0  0  0  0  0  0  0  0  0  0  0  0
  151.7537  139.5086  156.0228 C   0  0  1  0  0  0  0  0  0  0  0  0
  152.8271  138.9169  155.0987 C   0  0  0  0  0  0  0  0  0  0  0  0
  152.2450  139.5920  157.4795 C   0  0  0  0  0  0  0  0  0  0  0  0
  151.1625  140.1750  158.4051 C   0  0  0  0  0  0  0  0  0  0  0  0
  153.1030  141.8906  159.9071 N   0  0  0  0  0  0  0  0  0  0  0  0
  155.0343  140.9031  162.3903 H   0  0  0  0  0  0  0  0  0  0  0  0
  155.3927  140.7337  160.6736 H   0  0  0  0  0  0  0  0  0  0  0  0
  154.0832  139.7981  161.3988 H   0  0  0  0  0  0  0  0  0  0  0  0
  153.6686  142.8737  163.0449 H   0  0  0  0  0  0  0  0  0  0  0  0
  152.1243  144.6329  162.3893 H   0  0  0  0  0  0  0  0  0  0  0  0
  151.2608  143.6814  157.8186 H   0  0  0  0  0  0  0  0  0  0  0  0
  152.5544  142.5909  157.5095 H   0  0  0  0  0  0  0  0  0  0  0  0
  149.3044  142.8024  158.5266 H   0  0  0  0  0  0  0  0  0  0  0  0
  149.3254  140.8799  156.3905 H   0  0  0  0  0  0  0  0  0  0  0  0
  149.9362  142.4863  156.1055 H   0  0  0  0  0  0  0  0  0  0  0  0
  150.8809  140.8086  154.5257 H   0  0  0  0  0  0  0  0  0  0  0  0
  152.1448  141.5640  155.4542 H   0  0  0  0  0  0  0  0  0  0  0  0
  150.8937  138.8377  155.9968 H   0  0  0  0  0  0  0  0  0  0  0  0
  153.7196  139.5429  155.0753 H   0  0  0  0  0  0  0  0  0  0  0  0
  152.4572  138.8253  154.0771 H   0  0  0  0  0  0  0  0  0  0  0  0
  153.1258  137.9220  155.4302 H   0  0  0  0  0  0  0  0  0  0  0  0
  152.5266  138.5995  157.8332 H   0  0  0  0  0  0  0  0  0  0  0  0
  153.1479  140.2001  157.5286 H   0  0  0  0  0  0  0  0  0  0  0  0
  151.5190  140.1999  159.4350 H   0  0  0  0  0  0  0  0  0  0  0  0
  150.3166  139.4856  158.4098 H   0  0  0  0  0  0  0  0  0  0  0  0
  1  2  1  0  0  0  0
  1 18  1  0  0  0  0
  1 19  1  0  0  0  0
  1 20  1  0  0  0  0
  2 17  2  0  0  0  0
  2  3  1  0  0  0  0
  3  4  2  0  0  0  0
  3 21  1  0  0  0  0
  4  5  1  0  0  0  0
  4 22  1  0  0  0  0
  5  6  2  0  0  0  0
  5  7  1  0  0  0  0
  7  8  1  0  0  0  0
  7 17  1  0  0  0  0
  8  9  1  0  0  0  0
  8 23  1  0  0  0  0
  8 24  1  0  0  0  0
  9 16  1  0  0  0  0
  9 10  1  0  0  0  0
  9 11  1  0  0  0  0
 10 25  1  0  0  0  0
 11 12  1  0  0  0  0
 11 26  1  0  0  0  0
 11 27  1  0  0  0  0
 12 13  1  0  0  0  0
 12 28  1  0  0  0  0
 12 29  1  0  0  0  0
 13 14  1  0  0  0  0
 13 15  1  0  0  0  0
 13 30  1  0  0  0  0
 14 31  1  0  0  0  0
 14 32  1  0  0  0  0
 14 33  1  0  0  0  0
 15 16  1  0  0  0  0
 15 34  1  0  0  0  0
 15 35  1  0  0  0  0
 16 36  1  0  0  0  0
 16 37  1  0  0  0  0
M  END
> <s_m_source_file>
AV-unprocessed.smi

> <i_m_source_file_index>
669

> <i_lp_mmshare_version>
43012

> <i_f3d_flags>
0

> <s_epik_input>
W0NIM11jMVtjSF1bY0hdYyg9TyluKG4xKVtDSDJdW0NAQF0yKFtPSF0pW0NIMl1bQ0gyXVtDQEBIXShbQ0gzXSlbQ0gyXVtDSDJdMg==

> <s_epik_cmdline>
J2VwaWtfcHl0aG9uJywgJy1waCcsICc3LjAnLCAnLXRuJywgJzgnLCAnLW1hJywgJzIwMCcsICctbWV0YWxfYmluZGluZycsICctaW1hZScsICc8aW5maWxlLm1hZT4nLCAnLW9tYWUnLCAnPG91dGZpbGUubWFlPic=

> <r_lp_tautomer_probability>
1

> <r_epik_Ionization_Penalty>
1.6993e-05

> <r_epik_Ionization_Penalty_Charging>
1.61671e-05

> <r_epik_Ionization_Penalty_Neutral>
8.25878e-07

> <r_epik_State_Penalty>
-0

> <r_epik_Charging_Adjusted_Penalty>
1.61671e-05

> <i_epik_Tot_Q>
0

> <i_epik_Tot_abs_Q>
0

> <r_epik_Metal_State_Penalty>
-0

> <b_epik_Metal_Only>
0

> <s_lp_Force_Field>
OPLS_2005

> <r_lp_Energy>
31.4403

> <b_lp_Chiralities_Consistent>
1

> <s_lp_Variant>
AV-unprocessed.smi:669-1

> <Gold.Version>
5.8.1

> <Gold.Id.Protein>
6NUR|6NUR_protein|mol2

> <Gold.PLP.Fitness>
39.1337

> <Gold.PLP.PLP>
-39.4274

> <Gold.PLP.part.hbond>
-0.5064

> <Gold.PLP.part.metal>
0.0000

> <Gold.PLP.part.buried>
-4.1916

> <Gold.PLP.part.nonpolar>
-33.6435

> <Gold.PLP.part.repulsive>
0.1220

> <Gold.PLP.ligand.clash>
0.0000

> <Gold.PLP.ligand.torsion>
0.1543

> <Gold.PLP.Chemscore.Hbond>
0.0000

> <Gold.PLP.Chemscore.CHOScore>
0.0000

> <Gold.PLP.Chemscore.Metal>
0.0000

> <Gold.PLP.Chemscore.Internal.Correction>
0.0150

> <Gold.Rescore>
     Score         DG    S(hbond)    S(metal)    S(lipo)     H(rot)  DE(clash)    DE(int)     intcor
     12.29     -12.76       0.00        0.00      97.58       1.62       0.19       0.28       ----

> <Gold.Chemscore.Fitness>
12.2861

> <Gold.Chemscore.DG>
-12.7579

> <Gold.Chemscore.ZeroCoef>
-5.4800

> <Gold.Chemscore.Hbond>
0.0000

> <Gold.Chemscore.Metal>
0.0000

> <Gold.Chemscore.Lipo>
97.5816

> <Gold.Chemscore.Internal_Hbond>
0.0000

> <Gold.Chemscore.DEClash>
0.1925

> <Gold.Chemscore.DEInternal>
0.2793

> <Gold.Chemscore.Rot>
1.6168

> <Gold.Chemscore.Internal.Correction>
   9.000000E+99

> <Gold.Chemscore.Hbond.Weighted>
-0.0000

> <Gold.Chemscore.Metal.Weighted>
-0.0000

> <Gold.Chemscore.Lipo.Weighted>
-11.4171

> <Gold.Chemscore.Internal_Hbond.Weighted>
0.0000

> <Gold.Chemscore.DEClash.Weighted>
0.1925

> <Gold.Chemscore.DEInternal.Weighted>
0.2793

> <Gold.Chemscore.Rot.Weighted>
4.1391

> <Gold.Chemscore.Internal.Correction.Weighted>
   9.000000E+99

> <Gold.Protein.RotatedTorsions>
[ 6907 6896 6895 6894 ] final  156.89 input  -60.11 | X-H torsion
[ 7974 7965 7964 7962 ] final -146.16 input  175.53 | X-H torsion
[ 8008 7997 7996 7995 ] final  -45.16 input   59.86 | X-H torsion
[ 10167 10162 10161 10158 ] final   91.47 input  -65.29 | X-H torsion
[ 10718 10713 10712 10709 ] final -164.81 input   66.30 | X-H torsion
[ 10763 10752 10751 10750 ] final -157.75 input  -60.55 | X-H torsion
[ 11005 11000 10999 10996 ] final  -99.17 input  -57.11 | X-H torsion

> <Gold.Protein.ActiveResidues>
 VAL166  LYS551  ARG553  GLY616  TRP617  ASP618  TYR619  PRO620  LYS621  CYS622 
 ASP623  PHE694  ASN695  SER759  ASP760  ASP761  ALA762  ILE779  LEU786  VAL792 
 PHE793  MET794  SER795  GLU796  ALA797  LYS798  CYS799  TRP800  GLU811  SER814 

> <Gold.Protein.RotatedAtoms>
  152.0231  133.3906  159.4265 H   0  0  0  0  0  0  0  0  0  0  0  0  # atno 6907 bound_to 6896
  150.6888  134.3604  159.4957 H   0  0  0  0  0  0  0  0  0  0  0  0  # atno 6908 bound_to 6896
  152.1381  134.9083  160.0606 H   0  0  0  0  0  0  0  0  0  0  0  0  # atno 6909 bound_to 6896
  144.8178  140.5491  143.5599 H   0  0  0  0  0  0  0  0  0  0  0  0  # atno 7974 bound_to 7965
  154.4000  140.1404  156.3802 H   0  0  0  0  0  0  0  0  0  0  0  0  # atno 8008 bound_to 7997
  155.8011  140.3476  155.5382 H   0  0  0  0  0  0  0  0  0  0  0  0  # atno 8009 bound_to 7997
  155.8483  140.0937  157.1682 H   0  0  0  0  0  0  0  0  0  0  0  0  # atno 8010 bound_to 7997
  139.8371  144.6659  150.9328 H   0  0  0  0  0  0  0  0  0  0  0  0  # atno 10167 bound_to 10162
  156.6444  130.8982  151.3002 H   0  0  0  0  0  0  0  0  0  0  0  0  # atno 10718 bound_to 10713
  154.7611  135.3118  154.8376 H   0  0  0  0  0  0  0  0  0  0  0  0  # atno 10763 bound_to 10752
  153.9136  135.6803  153.4754 H   0  0  0  0  0  0  0  0  0  0  0  0  # atno 10764 bound_to 10752
  153.1212  135.4822  154.9130 H   0  0  0  0  0  0  0  0  0  0  0  0  # atno 10765 bound_to 10752
  141.1318  133.8301  157.0936 H   0  0  0  0  0  0  0  0  0  0  0  0  # atno 11005 bound_to 11000
  145.5174  139.1477  143.3571 LP  0  0  0  0  0  0  0  0  0  0  0  0  # atno 17320 bound_to 7965
  146.2482  140.5315  142.8905 LP  0  0  0  0  0  0  0  0  0  0  0  0  # atno 17321 bound_to 7965
  140.7801  143.3947  151.1250 LP  0  0  0  0  0  0  0  0  0  0  0  0  # atno 17342 bound_to 10162
  139.7596  143.8655  152.3097 LP  0  0  0  0  0  0  0  0  0  0  0  0  # atno 17343 bound_to 10162
  157.7161  130.9499  150.1260 LP  0  0  0  0  0  0  0  0  0  0  0  0  # atno 17370 bound_to 10713
  156.2133  130.3668  149.8643 LP  0  0  0  0  0  0  0  0  0  0  0  0  # atno 17371 bound_to 10713
  140.0377  134.9870  157.0902 LP  0  0  0  0  0  0  0  0  0  0  0  0  # atno 17394 bound_to 11000
  140.4185  134.1906  155.7164 LP  0  0  0  0  0  0  0  0  0  0  0  0  # atno 17395 bound_to 11000

$$$$
