AV-unprocessed.smi:2613|AV-procd|sdf|10213|dock8
  -GOLD-   2272014223D 1   1.00000     0.00000
 Structure written by MMmdl.
 28 29  0  0  0  0  0  0  0  0  3 V2000
  146.5824  140.0123  152.0395 C   0  0  0  0  0  0  0  0  0  0  0  0
  147.7360  139.9794  152.9844 C   0  0  0  0  0  0  0  0  0  0  0  0
  148.6058  138.9440  153.1548 N   0  3  0  0  0  0  0  0  0  0  0  0
  149.5498  139.2763  154.1279 C   0  0  0  0  0  0  0  0  0  0  0  0
  150.6218  138.5537  154.6392 C   0  0  0  0  0  0  0  0  0  0  0  0
  151.4048  139.1769  155.6411 C   0  0  0  0  0  0  0  0  0  0  0  0
  152.5760  138.4437  156.2368 C   0  0  0  0  0  0  0  0  0  0  0  0
  153.3348  139.0530  157.0228 O   0  0  0  0  0  0  0  0  0  0  0  0
  152.7545  137.2444  155.9282 O   0  5  0  0  0  0  0  0  0  0  0  0
  151.0866  140.4844  156.0833 C   0  0  0  0  0  0  0  0  0  0  0  0
  149.9970  141.2083  155.5561 C   0  0  0  0  0  0  0  0  0  0  0  0
  149.2408  140.5763  154.5723 C   0  0  0  0  0  0  0  0  0  0  0  0
  148.1173  140.9715  153.8382 N   0  0  0  0  0  0  0  0  0  0  0  0
  147.5367  142.2996  154.0709 C   0  0  0  0  0  0  0  0  0  0  0  0
  146.0619  142.2140  154.4871 C   0  0  0  0  0  0  0  0  0  0  0  0
  145.4759  143.4948  154.4136 O   0  0  0  0  0  0  0  0  0  0  0  0
  146.4702  139.0510  151.5375 H   0  0  0  0  0  0  0  0  0  0  0  0
  146.7377  140.7829  151.2843 H   0  0  0  0  0  0  0  0  0  0  0  0
  145.6608  140.2328  152.5786 H   0  0  0  0  0  0  0  0  0  0  0  0
  150.8450  137.5572  154.2862 H   0  0  0  0  0  0  0  0  0  0  0  0
  151.6878  140.9548  156.8482 H   0  0  0  0  0  0  0  0  0  0  0  0
  149.7709  142.2033  155.9090 H   0  0  0  0  0  0  0  0  0  0  0  0
  148.1323  142.8179  154.8235 H   0  0  0  0  0  0  0  0  0  0  0  0
  147.6369  142.8724  153.1482 H   0  0  0  0  0  0  0  0  0  0  0  0
  145.5157  141.5353  153.8311 H   0  0  0  0  0  0  0  0  0  0  0  0
  145.9641  141.8362  155.5052 H   0  0  0  0  0  0  0  0  0  0  0  0
  144.8130  143.4859  153.7398 H   0  0  0  0  0  0  0  0  0  0  0  0
  148.5561  138.0724  152.6433 H   0  0  0  0  0  0  0  0  0  0  0  0
  1  2  1  0  0  0  0
  1 17  1  0  0  0  0
  1 18  1  0  0  0  0
  1 19  1  0  0  0  0
  2 13  1  0  0  0  0
  2  3  2  0  0  0  0
  3  4  1  0  0  0  0
  3 28  1  0  0  0  0
  4 12  2  0  0  0  0
  4  5  1  0  0  0  0
  5  6  2  0  0  0  0
  5 20  1  0  0  0  0
  6  7  1  0  0  0  0
  6 10  1  0  0  0  0
  7  8  2  0  0  0  0
  7  9  1  0  0  0  0
 10 11  2  0  0  0  0
 10 21  1  0  0  0  0
 11 12  1  0  0  0  0
 11 22  1  0  0  0  0
 12 13  1  0  0  0  0
 13 14  1  0  0  0  0
 14 15  1  0  0  0  0
 14 23  1  0  0  0  0
 14 24  1  0  0  0  0
 15 16  1  0  0  0  0
 15 25  1  0  0  0  0
 15 26  1  0  0  0  0
 16 27  1  0  0  0  0
M  CHG  1   3   1
M  CHG  1   9  -1
M  END
> <s_m_source_file>
AV-unprocessed.smi

> <i_m_source_file_index>
2613

> <i_lp_mmshare_version>
43012

> <i_f3d_flags>
0

> <s_epik_input>
W09IXVtDSDJdW0NIMl1uKGMobjEpW0NIM10pYyhjMTIpW2NIXVtjSF1jKFtjSF0yKUMoPU8pW09IXQ==

> <s_epik_cmdline>
J2VwaWtfcHl0aG9uJywgJy1waCcsICc3LjAnLCAnLXRuJywgJzgnLCAnLW1hJywgJzIwMCcsICctbWV0YWxfYmluZGluZycsICctaW1hZScsICc8aW5maWxlLm1hZT4nLCAnLW9tYWUnLCAnPG91dGZpbGUubWFlPic=

> <r_epik_Ionization_Penalty>
0.929425

> <r_epik_Ionization_Penalty_Charging>
0.929425

> <r_epik_Ionization_Penalty_Neutral>
5.76694e-08

> <r_epik_State_Penalty>
0.971794

> <r_epik_Charging_Adjusted_Penalty>
1.90122

> <i_epik_Tot_Q>
0

> <i_epik_Tot_abs_Q>
2

> <r_epik_Metal_State_Penalty>
4.93694

> <b_epik_Metal_Only>
0

> <s_lp_Force_Field>
OPLS_2005

> <r_lp_Energy>
5.88702

> <b_lp_Chiralities_Consistent>
1

> <s_lp_Variant>
AV-unprocessed.smi:2613-2

> <Gold.Version>
5.8.1

> <Gold.Id.Protein>
6NUR|6NUR_protein|mol2

> <Gold.PLP.Fitness>
47.2858

> <Gold.PLP.PLP>
-31.3888

> <Gold.PLP.part.hbond>
-3.6766

> <Gold.PLP.part.metal>
0.0000

> <Gold.PLP.part.buried>
4.2987

> <Gold.PLP.part.nonpolar>
-32.9681

> <Gold.PLP.part.repulsive>
0.0903

> <Gold.PLP.ligand.clash>
0.0000

> <Gold.PLP.ligand.torsion>
0.0682

> <Gold.PLP.Chemscore.Hbond>
5.3440

> <Gold.PLP.Chemscore.CHOScore>
0.0000

> <Gold.PLP.Chemscore.Metal>
0.0000

> <Gold.Chemscore.Hbonds>
donor molecule, donor type, donor heavy atom, donor atom, acceptor molecule, acceptor atom, score
      L1  H     3    28       P1  7948  2.00
      P1  H  7997  8009       L1     8  2.00
      P1  H 10752 10764       L1     9  1.34

> <Gold.PLP.Chemscore.Internal.Correction>
0.0014

> <Gold.Rescore>
     Score         DG    S(hbond)    S(metal)    S(lipo)     H(rot)  DE(clash)    DE(int)     intcor
     15.46     -17.71       2.82        0.00      64.76       1.86       2.18       0.07       ----

> <Gold.Chemscore.Fitness>
15.4579

> <Gold.Chemscore.DG>
-17.7107

> <Gold.Chemscore.ZeroCoef>
-5.4800

> <Gold.Chemscore.Hbond>
2.8173

> <Gold.Chemscore.Metal>
0.0000

> <Gold.Chemscore.Lipo>
64.7602

> <Gold.Chemscore.Internal_Hbond>
0.0000

> <Gold.Chemscore.DEClash>
2.1811

> <Gold.Chemscore.DEInternal>
0.0716

> <Gold.Chemscore.Rot>
1.8579

> <Gold.Chemscore.Internal.Correction>
   9.000000E+99

> <Gold.Chemscore.Hbonds>
donor molecule, donor type, donor heavy atom, donor atom, acceptor molecule, acceptor atom, score
      L1  H     3    28       P1  7948  0.95
      P1  H  7997  8009       L1     8  0.90
      P1  H 10752 10764       L1     9  0.64

> <Gold.Chemscore.Hbond.Weighted>
-9.4098

> <Gold.Chemscore.Metal.Weighted>
-0.0000

> <Gold.Chemscore.Lipo.Weighted>
-7.5769

> <Gold.Chemscore.Internal_Hbond.Weighted>
0.0000

> <Gold.Chemscore.DEClash.Weighted>
2.1811

> <Gold.Chemscore.DEInternal.Weighted>
0.0716

> <Gold.Chemscore.Rot.Weighted>
4.7561

> <Gold.Chemscore.Internal.Correction.Weighted>
   9.000000E+99

> <Gold.Protein.RotatedTorsions>
[ 6907 6896 6895 6894 ] final  153.56 input  -60.11 | X-H torsion
[ 7974 7965 7964 7962 ] final -131.87 input  175.53 | X-H torsion
[ 8008 7997 7996 7995 ] final -171.35 input   59.86 | X-H torsion
[ 10167 10162 10161 10158 ] final  127.88 input  -65.29 | X-H torsion
[ 10718 10713 10712 10709 ] final   38.85 input   66.30 | X-H torsion
[ 10763 10752 10751 10750 ] final  -29.05 input  -60.55 | X-H torsion
[ 11005 11000 10999 10996 ] final -133.18 input  -57.11 | X-H torsion

> <Gold.Protein.ActiveResidues>
 VAL166  LYS551  ARG553  GLY616  TRP617  ASP618  TYR619  PRO620  LYS621  CYS622 
 ASP623  PHE694  ASN695  SER759  ASP760  ASP761  ALA762  ILE779  LEU786  VAL792 
 PHE793  MET794  SER795  GLU796  ALA797  LYS798  CYS799  TRP800  GLU811  SER814 

> <Gold.Protein.RotatedAtoms>
  152.0709  133.4106  159.4458 H   0  0  0  0  0  0  0  0  0  0  0  0  # atno 6907 bound_to 6896
  150.6863  134.3093  159.4748 H   0  0  0  0  0  0  0  0  0  0  0  0  # atno 6908 bound_to 6896
  152.0924  134.9397  160.0622 H   0  0  0  0  0  0  0  0  0  0  0  0  # atno 6909 bound_to 6896
  144.9338  140.7160  143.4889 H   0  0  0  0  0  0  0  0  0  0  0  0  # atno 7974 bound_to 7965
  155.9305  140.1090  157.1136 H   0  0  0  0  0  0  0  0  0  0  0  0  # atno 8008 bound_to 7997
  154.4070  140.1238  156.4861 H   0  0  0  0  0  0  0  0  0  0  0  0  # atno 8009 bound_to 7997
  155.7086  140.3471  155.4966 H   0  0  0  0  0  0  0  0  0  0  0  0  # atno 8010 bound_to 7997
  139.5555  144.6846  151.4194 H   0  0  0  0  0  0  0  0  0  0  0  0  # atno 10167 bound_to 10162
  157.3637  130.7663  149.7067 H   0  0  0  0  0  0  0  0  0  0  0  0  # atno 10718 bound_to 10713
  153.7584  135.6921  153.4931 H   0  0  0  0  0  0  0  0  0  0  0  0  # atno 10763 bound_to 10752
  153.1955  135.4455  155.0201 H   0  0  0  0  0  0  0  0  0  0  0  0  # atno 10764 bound_to 10752
  154.8162  135.3400  154.7100 H   0  0  0  0  0  0  0  0  0  0  0  0  # atno 10765 bound_to 10752
  140.9103  134.1576  157.4394 H   0  0  0  0  0  0  0  0  0  0  0  0  # atno 11005 bound_to 11000
  145.3099  139.1822  143.4644 LP  0  0  0  0  0  0  0  0  0  0  0  0  # atno 17320 bound_to 7965
  146.3258  140.3102  142.8626 LP  0  0  0  0  0  0  0  0  0  0  0  0  # atno 17321 bound_to 7965
  140.6827  143.8044  150.7144 LP  0  0  0  0  0  0  0  0  0  0  0  0  # atno 17342 bound_to 10162
  140.1502  143.4364  152.2136 LP  0  0  0  0  0  0  0  0  0  0  0  0  # atno 17343 bound_to 10162
  155.9742  130.4106  150.3941 LP  0  0  0  0  0  0  0  0  0  0  0  0  # atno 17370 bound_to 10713
  157.2022  131.0440  151.2644 LP  0  0  0  0  0  0  0  0  0  0  0  0  # atno 17371 bound_to 10713
  139.8756  134.9933  156.5638 LP  0  0  0  0  0  0  0  0  0  0  0  0  # atno 17394 bound_to 11000
  140.8118  133.8423  155.8817 LP  0  0  0  0  0  0  0  0  0  0  0  0  # atno 17395 bound_to 11000

$$$$
