AV-unprocessed.smi:1682|AV-procd|sdf|6743|dock6
  -GOLD-   22720 7493D 1   1.00000     0.00000
 Structure written by MMmdl.
 38 39  0  0  0  0  0  0  0  0  1 V2000
  150.7375  136.1996  156.9053 O   0  0  0  0  0  0  0  0  0  0  0  0
  149.8639  136.8918  156.3813 C   0  0  0  0  0  0  0  0  0  0  0  0
  148.6186  136.9969  156.8698 N   0  0  0  0  0  0  0  0  0  0  0  0
  148.1253  136.2995  158.0517 C   0  0  0  0  0  0  0  0  0  0  0  0
  147.9745  137.2553  159.2472 C   0  0  0  0  0  0  0  0  0  0  0  0
  147.7614  136.5149  160.5536 C   0  0  0  0  0  0  0  0  0  0  0  0
  147.8328  135.1064  160.6014 C   0  0  0  0  0  0  0  0  0  0  0  0
  147.6303  134.4663  161.8393 C   0  0  0  0  0  0  0  0  0  0  0  0
  147.3668  135.2550  162.9755 C   0  0  0  0  0  0  0  0  0  0  0  0
  147.3183  136.6549  162.8228 C   0  0  0  0  0  0  0  0  0  0  0  0
  147.5114  137.2790  161.6406 N   0  0  0  0  0  0  0  0  0  0  0  0
  150.1700  137.6841  155.1005 C   0  0  2  0  0  0  0  0  0  0  0  0
  151.6888  137.7883  154.8561 C   0  0  0  0  0  0  0  0  0  0  0  0
  152.0015  139.2528  155.1159 C   0  0  0  0  0  0  0  0  0  0  0  0
  153.1477  139.6982  155.1216 O   0  0  0  0  0  0  0  0  0  0  0  0
  150.8820  139.9493  155.3385 N   0  0  0  0  0  0  0  0  0  0  0  0
  150.7911  141.3759  155.6411 C   0  0  0  0  0  0  0  0  0  0  0  0
  150.6999  141.6466  157.1537 C   0  0  0  0  0  0  0  0  0  0  0  0
  150.7558  142.9610  157.3633 F   0  0  0  0  0  0  0  0  0  0  0  0
  149.5452  141.1884  157.6373 F   0  0  0  0  0  0  0  0  0  0  0  0
  151.7080  141.0709  157.8081 F   0  0  0  0  0  0  0  0  0  0  0  0
  149.6807  139.1458  155.1827 C   0  0  0  0  0  0  0  0  0  0  0  0
  147.9630  137.5895  156.3815 H   0  0  0  0  0  0  0  0  0  0  0  0
  147.1739  135.8130  157.8291 H   0  0  0  0  0  0  0  0  0  0  0  0
  148.8307  135.5045  158.2957 H   0  0  0  0  0  0  0  0  0  0  0  0
  148.8613  137.8843  159.3370 H   0  0  0  0  0  0  0  0  0  0  0  0
  147.1353  137.9329  159.0852 H   0  0  0  0  0  0  0  0  0  0  0  0
  148.0384  134.5289  159.7121 H   0  0  0  0  0  0  0  0  0  0  0  0
  147.6764  133.3900  161.9156 H   0  0  0  0  0  0  0  0  0  0  0  0
  147.2058  134.7983  163.9407 H   0  0  0  0  0  0  0  0  0  0  0  0
  147.1194  137.2902  163.6732 H   0  0  0  0  0  0  0  0  0  0  0  0
  149.6921  137.1880  154.2539 H   0  0  0  0  0  0  0  0  0  0  0  0
  152.2846  137.1478  155.5087 H   0  0  0  0  0  0  0  0  0  0  0  0
  151.9388  137.5422  153.8237 H   0  0  0  0  0  0  0  0  0  0  0  0
  151.6533  141.8955  155.2200 H   0  0  0  0  0  0  0  0  0  0  0  0
  149.9142  141.7891  155.1408 H   0  0  0  0  0  0  0  0  0  0  0  0
  149.1718  139.4343  154.2621 H   0  0  0  0  0  0  0  0  0  0  0  0
  148.9889  139.3200  156.0085 H   0  0  0  0  0  0  0  0  0  0  0  0
  1  2  2  0  0  0  0
  2  3  1  0  0  0  0
  2 12  1  0  0  0  0
  3  4  1  0  0  0  0
  3 23  1  0  0  0  0
  4  5  1  0  0  0  0
  4 24  1  0  0  0  0
  4 25  1  0  0  0  0
  5  6  1  0  0  0  0
  5 26  1  0  0  0  0
  5 27  1  0  0  0  0
  6 11  1  0  0  0  0
  6  7  2  0  0  0  0
  7  8  1  0  0  0  0
  7 28  1  0  0  0  0
  8  9  2  0  0  0  0
  8 29  1  0  0  0  0
  9 10  1  0  0  0  0
  9 30  1  0  0  0  0
 10 11  2  0  0  0  0
 10 31  1  0  0  0  0
 12 22  1  0  0  0  0
 12 13  1  0  0  0  0
 12 32  1  0  0  0  0
 13 14  1  0  0  0  0
 13 33  1  0  0  0  0
 13 34  1  0  0  0  0
 14 15  2  0  0  0  0
 14 16  1  0  0  0  0
 16 17  1  0  0  0  0
 16 22  1  0  0  0  0
 17 18  1  0  0  0  0
 17 35  1  0  0  0  0
 17 36  1  0  0  0  0
 18 19  1  0  0  0  0
 18 20  1  0  0  0  0
 18 21  1  0  0  0  0
 22 37  1  0  0  0  0
 22 38  1  0  0  0  0
M  END
> <s_m_source_file>
AV-unprocessed.smi

> <i_m_source_file_index>
1682

> <i_lp_mmshare_version>
43012

> <i_f3d_flags>
0

> <s_epik_input>
RkMoRikoRilbQ0gyXU4oW0NIMl0xKUMoPU8pW0NIMl1bQ0BIXTFDKD1PKVtOSF1bQ0gyXVtDSDJdYzJbY0hdW2NIXVtjSF1bY0hdbjI=

> <s_epik_cmdline>
J2VwaWtfcHl0aG9uJywgJy1waCcsICc3LjAnLCAnLXRuJywgJzgnLCAnLW1hJywgJzIwMCcsICctbWV0YWxfYmluZGluZycsICctaW1hZScsICc8aW5maWxlLm1hZT4nLCAnLW9tYWUnLCAnPG91dGZpbGUubWFlPic=

> <r_epik_Ionization_Penalty>
0.0252359

> <r_epik_Ionization_Penalty_Charging>
0

> <r_epik_Ionization_Penalty_Neutral>
0.0252359

> <r_epik_State_Penalty>
0.020532

> <r_epik_Charging_Adjusted_Penalty>
0.020532

> <i_epik_Tot_Q>
0

> <i_epik_Tot_abs_Q>
0

> <r_epik_Metal_State_Penalty>
0.0196899

> <b_epik_Metal_Only>
0

> <s_lp_Force_Field>
OPLS_2005

> <r_lp_Energy>
9.5977

> <b_lp_Chiralities_Consistent>
1

> <s_lp_Variant>
AV-unprocessed.smi:1682-1

> <Gold.Version>
5.8.1

> <Gold.Id.Protein>
6NUR|6NUR_protein|mol2

> <Gold.PLP.Fitness>
49.2606

> <Gold.PLP.PLP>
-42.6084

> <Gold.PLP.part.hbond>
-3.4550

> <Gold.PLP.part.metal>
0.0000

> <Gold.PLP.part.buried>
-3.3380

> <Gold.PLP.part.nonpolar>
-34.8686

> <Gold.PLP.part.repulsive>
0.0059

> <Gold.PLP.ligand.clash>
0.0000

> <Gold.PLP.ligand.torsion>
0.8674

> <Gold.PLP.Chemscore.Hbond>
2.7613

> <Gold.PLP.Chemscore.CHOScore>
0.0000

> <Gold.PLP.Chemscore.Metal>
0.0000

> <Gold.Chemscore.Hbonds>
donor molecule, donor type, donor heavy atom, donor atom, acceptor molecule, acceptor atom, score
      P1  H  6931  6943       L1    11  0.91
      P1  H  6934  6947       L1    11  0.78
      P1  H  7997  8008       L1    15  1.00

> <Gold.PLP.Chemscore.Internal.Correction>
0.1031

> <Gold.Rescore>
     Score         DG    S(hbond)    S(metal)    S(lipo)     H(rot)  DE(clash)    DE(int)     intcor
     13.48     -14.61       1.72        0.00      74.63       2.09       0.17       0.96       ----

> <Gold.Chemscore.Fitness>
13.4796

> <Gold.Chemscore.DG>
-14.6093

> <Gold.Chemscore.ZeroCoef>
-5.4800

> <Gold.Chemscore.Hbond>
1.7197

> <Gold.Chemscore.Metal>
0.0000

> <Gold.Chemscore.Lipo>
74.6323

> <Gold.Chemscore.Internal_Hbond>
0.0000

> <Gold.Chemscore.DEClash>
0.1675

> <Gold.Chemscore.DEInternal>
0.9622

> <Gold.Chemscore.Rot>
2.0884

> <Gold.Chemscore.Internal.Correction>
   9.000000E+99

> <Gold.Chemscore.Hbonds>
donor molecule, donor type, donor heavy atom, donor atom, acceptor molecule, acceptor atom, score
      P1  H  6931  6943       L1    11  0.22
      P1  H  6934  6947       L1    11  0.39
      P1  H  7997  8008       L1    15  0.99

> <Gold.Chemscore.Hbond.Weighted>
-5.7437

> <Gold.Chemscore.Metal.Weighted>
-0.0000

> <Gold.Chemscore.Lipo.Weighted>
-8.7320

> <Gold.Chemscore.Internal_Hbond.Weighted>
0.0000

> <Gold.Chemscore.DEClash.Weighted>
0.1675

> <Gold.Chemscore.DEInternal.Weighted>
0.9622

> <Gold.Chemscore.Rot.Weighted>
5.3464

> <Gold.Chemscore.Internal.Correction.Weighted>
   9.000000E+99

> <Gold.Protein.RotatedTorsions>
[ 6907 6896 6895 6894 ] final  103.57 input  -60.11 | X-H torsion
[ 7974 7965 7964 7962 ] final  168.51 input  175.53 | X-H torsion
[ 8008 7997 7996 7995 ] final   -5.93 input   59.86 | X-H torsion
[ 10167 10162 10161 10158 ] final -145.23 input  -65.29 | X-H torsion
[ 10718 10713 10712 10709 ] final  -21.31 input   66.30 | X-H torsion
[ 10763 10752 10751 10750 ] final  133.16 input  -60.55 | X-H torsion
[ 11005 11000 10999 10996 ] final  121.98 input  -57.11 | X-H torsion

> <Gold.Protein.ActiveResidues>
 VAL166  LYS551  ARG553  GLY616  TRP617  ASP618  TYR619  PRO620  LYS621  CYS622 
 ASP623  PHE694  ASN695  SER759  ASP760  ASP761  ALA762  ILE779  LEU786  VAL792 
 PHE793  MET794  SER795  GLU796  ALA797  LYS798  CYS799  TRP800  GLU811  SER814 

> <Gold.Protein.RotatedAtoms>
  152.5291  133.9805  159.7804 H   0  0  0  0  0  0  0  0  0  0  0  0  # atno 6907 bound_to 6896
  151.0060  133.6003  159.2696 H   0  0  0  0  0  0  0  0  0  0  0  0  # atno 6908 bound_to 6896
  151.3094  135.0797  159.9320 H   0  0  0  0  0  0  0  0  0  0  0  0  # atno 6909 bound_to 6896
  144.7386  139.8917  143.6403 H   0  0  0  0  0  0  0  0  0  0  0  0  # atno 7974 bound_to 7965
  154.5989  140.2446  155.7819 H   0  0  0  0  0  0  0  0  0  0  0  0  # atno 8008 bound_to 7997
  156.2298  140.2970  156.0111 H   0  0  0  0  0  0  0  0  0  0  0  0  # atno 8009 bound_to 7997
  155.2245  140.0401  157.2943 H   0  0  0  0  0  0  0  0  0  0  0  0  # atno 8010 bound_to 7997
  139.7825  143.8080  152.2640 H   0  0  0  0  0  0  0  0  0  0  0  0  # atno 10167 bound_to 10162
  156.5200  130.4630  149.6602 H   0  0  0  0  0  0  0  0  0  0  0  0  # atno 10718 bound_to 10713
  153.8026  135.3140  155.3392 H   0  0  0  0  0  0  0  0  0  0  0  0  # atno 10763 bound_to 10752
  154.8083  135.4684  154.0452 H   0  0  0  0  0  0  0  0  0  0  0  0  # atno 10764 bound_to 10752
  153.1805  135.6892  153.8572 H   0  0  0  0  0  0  0  0  0  0  0  0  # atno 10765 bound_to 10752
  139.9248  134.9640  156.8039 H   0  0  0  0  0  0  0  0  0  0  0  0  # atno 11005 bound_to 11000
  146.1137  139.4145  143.0272 LP  0  0  0  0  0  0  0  0  0  0  0  0  # atno 17320 bound_to 7965
  145.7406  141.0009  143.1303 LP  0  0  0  0  0  0  0  0  0  0  0  0  # atno 17321 bound_to 7965
  139.8147  144.7321  150.9650 LP  0  0  0  0  0  0  0  0  0  0  0  0  # atno 17342 bound_to 10162
  140.7819  143.4216  151.0832 LP  0  0  0  0  0  0  0  0  0  0  0  0  # atno 17343 bound_to 10162
  156.3159  130.7254  151.2156 LP  0  0  0  0  0  0  0  0  0  0  0  0  # atno 17370 bound_to 10713
  157.7438  131.0469  150.4915 LP  0  0  0  0  0  0  0  0  0  0  0  0  # atno 17371 bound_to 10713
  140.6367  133.9856  155.7687 LP  0  0  0  0  0  0  0  0  0  0  0  0  # atno 17394 bound_to 11000
  141.0798  134.0080  157.3403 LP  0  0  0  0  0  0  0  0  0  0  0  0  # atno 17395 bound_to 11000

$$$$
