AV-unprocessed.smi:1756|AV-procd|sdf|7072|dock5
  -GOLD-   22720 8293D 1   1.00000     0.00000
 Structure written by MMmdl.
 38 39  0  0  0  0  0  0  0  0  1 V2000
  150.3102  141.7487  158.4816 O   0  0  0  0  0  0  0  0  0  0  0  0
  151.1855  141.2377  157.7837 C   0  0  0  0  0  0  0  0  0  0  0  0
  152.4553  141.0900  158.1870 N   0  0  0  0  0  0  0  0  0  0  0  0
  152.9835  141.4864  159.4892 C   0  0  0  0  0  0  0  0  0  0  0  0
  152.7379  142.9764  159.7897 C   0  0  1  0  0  0  0  0  0  0  0  0
  152.5494  143.8381  158.5225 C   0  0  0  0  0  0  0  0  0  0  0  0
  152.2001  145.2833  158.8948 C   0  0  0  0  0  0  0  0  0  0  0  0
  151.0030  145.2977  159.8503 C   0  0  0  0  0  0  0  0  0  0  0  0
  151.2686  144.3733  161.0481 C   0  0  0  0  0  0  0  0  0  0  0  0
  151.5597  143.0569  160.5890 O   0  0  0  0  0  0  0  0  0  0  0  0
  151.0256  140.7749  156.5300 N   0  0  0  0  0  0  0  0  0  0  0  0
  149.8661  140.7232  155.7374 C   0  0  0  0  0  0  0  0  0  0  0  0
  148.6984  141.3582  156.0206 C   0  0  0  0  0  0  0  0  0  0  0  0
  147.5332  141.2524  155.1582 C   0  0  0  0  0  0  0  0  0  0  0  0
  146.2602  142.0352  155.4395 C   0  0  0  0  0  0  0  0  0  0  0  0
  146.3482  142.7032  156.5904 F   0  0  0  0  0  0  0  0  0  0  0  0
  146.0457  142.9164  154.4638 F   0  0  0  0  0  0  0  0  0  0  0  0
  145.2042  141.2244  155.5056 F   0  0  0  0  0  0  0  0  0  0  0  0
  147.6702  140.4951  154.0544 C   0  0  0  0  0  0  0  0  0  0  0  0
  148.8588  139.8203  153.7679 N   0  0  0  0  0  0  0  0  0  0  0  0
  149.9706  139.8803  154.5347 C   0  0  0  0  0  0  0  0  0  0  0  0
  150.9811  139.2566  154.2119 O   0  0  0  0  0  0  0  0  0  0  0  0
  148.8764  139.2579  152.9292 H   0  0  0  0  0  0  0  0  0  0  0  0
  153.1094  140.6676  157.5444 H   0  0  0  0  0  0  0  0  0  0  0  0
  152.5776  140.8640  160.2884 H   0  0  0  0  0  0  0  0  0  0  0  0
  154.0567  141.2948  159.4743 H   0  0  0  0  0  0  0  0  0  0  0  0
  153.5796  143.3590  160.3701 H   0  0  0  0  0  0  0  0  0  0  0  0
  153.4524  143.8294  157.9124 H   0  0  0  0  0  0  0  0  0  0  0  0
  151.7529  143.4168  157.9077 H   0  0  0  0  0  0  0  0  0  0  0  0
  153.0583  145.7565  159.3736 H   0  0  0  0  0  0  0  0  0  0  0  0
  151.9797  145.8646  157.9993 H   0  0  0  0  0  0  0  0  0  0  0  0
  150.8042  146.3136  160.1926 H   0  0  0  0  0  0  0  0  0  0  0  0
  150.1084  144.9631  159.3234 H   0  0  0  0  0  0  0  0  0  0  0  0
  152.0926  144.7494  161.6562 H   0  0  0  0  0  0  0  0  0  0  0  0
  150.3903  144.3342  161.6927 H   0  0  0  0  0  0  0  0  0  0  0  0
  151.8598  140.4418  156.0689 H   0  0  0  0  0  0  0  0  0  0  0  0
  148.5899  141.9522  156.9128 H   0  0  0  0  0  0  0  0  0  0  0  0
  146.8968  140.3539  153.3135 H   0  0  0  0  0  0  0  0  0  0  0  0
  1  2  2  0  0  0  0
  2  3  1  0  0  0  0
  2 11  1  0  0  0  0
  3  4  1  0  0  0  0
  3 24  1  0  0  0  0
  4  5  1  0  0  0  0
  4 25  1  0  0  0  0
  4 26  1  0  0  0  0
  5 10  1  0  0  0  0
  5  6  1  0  0  0  0
  5 27  1  0  0  0  0
  6  7  1  0  0  0  0
  6 28  1  0  0  0  0
  6 29  1  0  0  0  0
  7  8  1  0  0  0  0
  7 30  1  0  0  0  0
  7 31  1  0  0  0  0
  8  9  1  0  0  0  0
  8 32  1  0  0  0  0
  8 33  1  0  0  0  0
  9 10  1  0  0  0  0
  9 34  1  0  0  0  0
  9 35  1  0  0  0  0
 11 12  1  0  0  0  0
 11 36  1  0  0  0  0
 12 21  1  0  0  0  0
 12 13  2  0  0  0  0
 13 14  1  0  0  0  0
 13 37  1  0  0  0  0
 14 15  1  0  0  0  0
 14 19  2  0  0  0  0
 15 16  1  0  0  0  0
 15 17  1  0  0  0  0
 15 18  1  0  0  0  0
 19 20  1  0  0  0  0
 19 38  1  0  0  0  0
 20 23  1  0  0  0  0
 20 21  1  0  0  0  0
 21 22  2  0  0  0  0
M  END
> <s_m_source_file>
AV-unprocessed.smi

> <i_m_source_file_index>
1756

> <i_lp_mmshare_version>
43012

> <i_f3d_flags>
0

> <s_epik_input>
Tz1jMVtuSF1bY0hdYyhDKEYpKEYpRilbY0hdYzFbTkhdQyg9TylbTkhdW0NIMl1bQ0BASF0yW0NIMl1bQ0gyXVtDSDJdW0NIMl1PMg==

> <s_epik_cmdline>
J2VwaWtfcHl0aG9uJywgJy1waCcsICc3LjAnLCAnLXRuJywgJzgnLCAnLW1hJywgJzIwMCcsICctbWV0YWxfYmluZGluZycsICctaW1hZScsICc8aW5maWxlLm1hZT4nLCAnLW9tYWUnLCAnPG91dGZpbGUubWFlPic=

> <r_lp_tautomer_probability>
1

> <r_epik_Ionization_Penalty>
0.00380944

> <r_epik_Ionization_Penalty_Charging>
0.00379057

> <r_epik_Ionization_Penalty_Neutral>
1.88732e-05

> <r_epik_State_Penalty>
-0

> <r_epik_Charging_Adjusted_Penalty>
0.00379057

> <i_epik_Tot_Q>
0

> <i_epik_Tot_abs_Q>
0

> <r_epik_Metal_State_Penalty>
0.371099

> <b_epik_Metal_Only>
0

> <s_lp_Force_Field>
OPLS_2005

> <r_lp_Energy>
19.4394

> <b_lp_Chiralities_Consistent>
1

> <s_lp_Variant>
AV-unprocessed.smi:1756-2

> <Gold.Version>
5.8.1

> <Gold.Id.Protein>
6NUR|6NUR_protein|mol2

> <Gold.PLP.Fitness>
45.1302

> <Gold.PLP.PLP>
-43.6137

> <Gold.PLP.part.hbond>
-2.9626

> <Gold.PLP.part.metal>
0.0000

> <Gold.PLP.part.buried>
-3.4980

> <Gold.PLP.part.nonpolar>
-37.3960

> <Gold.PLP.part.repulsive>
0.6025

> <Gold.PLP.ligand.clash>
0.0000

> <Gold.PLP.ligand.torsion>
0.5838

> <Gold.PLP.Chemscore.Hbond>
0.8800

> <Gold.PLP.Chemscore.CHOScore>
0.0000

> <Gold.PLP.Chemscore.Metal>
0.0000

> <Gold.Chemscore.Hbonds>
donor molecule, donor type, donor heavy atom, donor atom, acceptor molecule, acceptor atom, score
      L1  H    20    23       P1  7957  0.39
      P1  H  7989  7998       L1    22  0.40

> <Gold.PLP.Chemscore.Internal.Correction>
0.0440

> <Gold.Rescore>
     Score         DG    S(hbond)    S(metal)    S(lipo)     H(rot)  DE(clash)    DE(int)     intcor
     10.79     -15.17       0.44        0.00      99.42       1.33       0.56       3.81       ----

> <Gold.Chemscore.Fitness>
10.7940

> <Gold.Chemscore.DG>
-15.1694

> <Gold.Chemscore.ZeroCoef>
-5.4800

> <Gold.Chemscore.Hbond>
0.4412

> <Gold.Chemscore.Metal>
0.0000

> <Gold.Chemscore.Lipo>
99.4164

> <Gold.Chemscore.Internal_Hbond>
0.0000

> <Gold.Chemscore.DEClash>
0.5638

> <Gold.Chemscore.DEInternal>
3.8116

> <Gold.Chemscore.Rot>
1.3344

> <Gold.Chemscore.Internal.Correction>
   9.000000E+99

> <Gold.Chemscore.Hbonds>
donor molecule, donor type, donor heavy atom, donor atom, acceptor molecule, acceptor atom, score
      L1  H    20    23       P1  7957  0.37
      P1  H  7989  7998       L1    22  0.01

> <Gold.Chemscore.Hbond.Weighted>
-1.4736

> <Gold.Chemscore.Metal.Weighted>
-0.0000

> <Gold.Chemscore.Lipo.Weighted>
-11.6317

> <Gold.Chemscore.Internal_Hbond.Weighted>
0.0000

> <Gold.Chemscore.DEClash.Weighted>
0.5638

> <Gold.Chemscore.DEInternal.Weighted>
3.8116

> <Gold.Chemscore.Rot.Weighted>
3.4160

> <Gold.Chemscore.Internal.Correction.Weighted>
   9.000000E+99

> <Gold.Protein.RotatedTorsions>
[ 6907 6896 6895 6894 ] final  143.62 input  -60.11 | X-H torsion
[ 7974 7965 7964 7962 ] final -113.27 input  175.53 | X-H torsion
[ 8008 7997 7996 7995 ] final   25.13 input   59.86 | X-H torsion
[ 10167 10162 10161 10158 ] final   96.72 input  -65.29 | X-H torsion
[ 10718 10713 10712 10709 ] final  116.55 input   66.30 | X-H torsion
[ 10763 10752 10751 10750 ] final  -18.35 input  -60.55 | X-H torsion
[ 11005 11000 10999 10996 ] final   63.65 input  -57.11 | X-H torsion

> <Gold.Protein.ActiveResidues>
 VAL166  LYS551  ARG553  GLY616  TRP617  ASP618  TYR619  PRO620  LYS621  CYS622 
 ASP623  PHE694  ASN695  SER759  ASP760  ASP761  ALA762  ILE779  LEU786  VAL792 
 PHE793  MET794  SER795  GLU796  ALA797  LYS798  CYS799  TRP800  GLU811  SER814 

> <Gold.Protein.RotatedAtoms>
  152.2040  133.4862  159.5073 H   0  0  0  0  0  0  0  0  0  0  0  0  # atno 6907 bound_to 6896
  150.6976  134.1553  159.4165 H   0  0  0  0  0  0  0  0  0  0  0  0  # atno 6908 bound_to 6896
  151.9471  135.0186  160.0590 H   0  0  0  0  0  0  0  0  0  0  0  0  # atno 6909 bound_to 6896
  145.1340  140.8741  143.3741 H   0  0  0  0  0  0  0  0  0  0  0  0  # atno 7974 bound_to 7965
  155.0069  140.3132  155.4845 H   0  0  0  0  0  0  0  0  0  0  0  0  # atno 8008 bound_to 7997
  156.2916  140.2221  156.5123 H   0  0  0  0  0  0  0  0  0  0  0  0  # atno 8009 bound_to 7997
  154.7569  140.0462  157.0928 H   0  0  0  0  0  0  0  0  0  0  0  0  # atno 8010 bound_to 7997
  139.7868  144.6867  150.9947 H   0  0  0  0  0  0  0  0  0  0  0  0  # atno 10167 bound_to 10162
  157.6153  131.1027  150.7489 H   0  0  0  0  0  0  0  0  0  0  0  0  # atno 10718 bound_to 10713
  153.5879  135.7003  153.5435 H   0  0  0  0  0  0  0  0  0  0  0  0  # atno 10763 bound_to 10752
  153.3204  135.4076  155.1411 H   0  0  0  0  0  0  0  0  0  0  0  0  # atno 10764 bound_to 10752
  154.8606  135.3694  154.5410 H   0  0  0  0  0  0  0  0  0  0  0  0  # atno 10765 bound_to 10752
  140.0010  134.6442  155.9930 H   0  0  0  0  0  0  0  0  0  0  0  0  # atno 11005 bound_to 11000
  145.0604  139.3110  143.5883 LP  0  0  0  0  0  0  0  0  0  0  0  0  # atno 17320 bound_to 7965
  146.3511  140.0044  142.8673 LP  0  0  0  0  0  0  0  0  0  0  0  0  # atno 17321 bound_to 7965
  140.7820  143.4424  151.0532 LP  0  0  0  0  0  0  0  0  0  0  0  0  # atno 17342 bound_to 10162
  139.8102  143.7961  152.3170 LP  0  0  0  0  0  0  0  0  0  0  0  0  # atno 17343 bound_to 10162
  156.7858  130.4874  149.5393 LP  0  0  0  0  0  0  0  0  0  0  0  0  # atno 17370 bound_to 10713
  156.1272  130.6152  151.0281 LP  0  0  0  0  0  0  0  0  0  0  0  0  # atno 17371 bound_to 10713
  141.1642  133.6537  156.4422 LP  0  0  0  0  0  0  0  0  0  0  0  0  # atno 17394 bound_to 11000
  140.4727  134.6738  157.5136 LP  0  0  0  0  0  0  0  0  0  0  0  0  # atno 17395 bound_to 11000

$$$$
