AV-unprocessed.smi:1144|AV-procd|sdf|4878|dock4
  -GOLD-   22720 3453D 1   1.00000     0.00000
 Structure written by MMmdl.
 35 36  0  0  0  0  0  0  0  0  2 V2000
  146.2685  134.1953  151.1133 C   0  0  0  0  0  0  0  0  0  0  0  0
  145.5426  135.3321  150.5008 N   0  3  1  0  0  0  0  0  0  0  0  0
  144.0909  135.3428  150.7997 C   0  0  0  0  0  0  0  0  0  0  0  0
  143.8143  135.8953  152.2095 C   0  0  0  0  0  0  0  0  0  0  0  0
  144.4033  137.1828  152.3354 O   0  0  0  0  0  0  0  0  0  0  0  0
  145.8208  137.1544  152.1979 C   0  0  2  0  0  0  0  0  0  0  0  0
  146.3723  138.5695  152.4409 C   0  0  0  0  0  0  0  0  0  0  0  0
  147.7845  138.5589  152.7997 N   0  0  0  0  0  0  0  0  0  0  0  0
  148.4061  139.5052  153.5943 C   0  0  0  0  0  0  0  0  0  0  0  0
  147.8991  140.7427  153.6288 N   0  0  0  0  0  0  0  0  0  0  0  0
  148.5273  141.6425  154.4155 C   0  0  0  0  0  0  0  0  0  0  0  0
  149.6663  141.3001  155.1700 C   0  0  0  0  0  0  0  0  0  0  0  0
  150.1157  139.9657  155.0555 C   0  0  0  0  0  0  0  0  0  0  0  0
  151.3349  139.4550  155.8088 C   0  0  0  0  0  0  0  0  0  0  0  0
  152.2479  139.0172  154.9416 F   0  0  0  0  0  0  0  0  0  0  0  0
  151.8854  140.4129  156.5556 F   0  0  0  0  0  0  0  0  0  0  0  0
  150.9809  138.4481  156.6071 F   0  0  0  0  0  0  0  0  0  0  0  0
  149.4773  139.0734  154.2625 N   0  0  0  0  0  0  0  0  0  0  0  0
  146.1579  136.6531  150.7767 C   0  0  0  0  0  0  0  0  0  0  0  0
  146.2505  134.2384  152.2023 H   0  0  0  0  0  0  0  0  0  0  0  0
  147.3102  134.1889  150.7910 H   0  0  0  0  0  0  0  0  0  0  0  0
  145.8238  133.2484  150.8054 H   0  0  0  0  0  0  0  0  0  0  0  0
  143.5954  135.9762  150.0629 H   0  0  0  0  0  0  0  0  0  0  0  0
  143.6692  134.3437  150.6830 H   0  0  0  0  0  0  0  0  0  0  0  0
  142.7401  135.9837  152.3723 H   0  0  0  0  0  0  0  0  0  0  0  0
  144.1963  135.2273  152.9826 H   0  0  0  0  0  0  0  0  0  0  0  0
  146.2501  136.4787  152.9397 H   0  0  0  0  0  0  0  0  0  0  0  0
  146.2822  139.1537  151.5251 H   0  0  0  0  0  0  0  0  0  0  0  0
  145.7834  139.0926  153.1951 H   0  0  0  0  0  0  0  0  0  0  0  0
  148.3258  137.7407  152.5604 H   0  0  0  0  0  0  0  0  0  0  0  0
  148.1185  142.6417  154.4428 H   0  0  0  0  0  0  0  0  0  0  0  0
  150.1627  142.0261  155.7968 H   0  0  0  0  0  0  0  0  0  0  0  0
  147.2373  136.6024  150.6281 H   0  0  0  0  0  0  0  0  0  0  0  0
  145.7784  137.3640  150.0415 H   0  0  0  0  0  0  0  0  0  0  0  0
  145.6227  135.1869  149.5044 H   0  0  0  0  0  0  0  0  0  0  0  0
  1  2  1  0  0  0  0
  1 20  1  0  0  0  0
  1 21  1  0  0  0  0
  1 22  1  0  0  0  0
  2 19  1  0  0  0  0
  2  3  1  0  0  0  0
  2 35  1  0  0  0  0
  3  4  1  0  0  0  0
  3 23  1  0  0  0  0
  3 24  1  0  0  0  0
  4  5  1  0  0  0  0
  4 25  1  0  0  0  0
  4 26  1  0  0  0  0
  5  6  1  0  0  0  0
  6  7  1  0  0  0  0
  6 19  1  0  0  0  0
  6 27  1  0  0  0  0
  7  8  1  0  0  0  0
  7 28  1  0  0  0  0
  7 29  1  0  0  0  0
  8  9  1  0  0  0  0
  8 30  1  0  0  0  0
  9 18  1  0  0  0  0
  9 10  2  0  0  0  0
 10 11  1  0  0  0  0
 11 12  2  0  0  0  0
 11 31  1  0  0  0  0
 12 13  1  0  0  0  0
 12 32  1  0  0  0  0
 13 14  1  0  0  0  0
 13 18  2  0  0  0  0
 14 15  1  0  0  0  0
 14 16  1  0  0  0  0
 14 17  1  0  0  0  0
 19 33  1  0  0  0  0
 19 34  1  0  0  0  0
M  CHG  1   2   1
M  END
> <s_m_source_file>
AV-unprocessed.smi

> <i_m_source_file_index>
1144

> <i_lp_mmshare_version>
43012

> <i_f3d_flags>
0

> <s_epik_input>
W0NIM11OMVtDSDJdW0NIMl1PW0NASF0oW0NIMl0xKVtDSDJdW05IXWMybltjSF1bY0hdYyhuMilDKEYpKEYpRg==

> <s_epik_cmdline>
J2VwaWtfcHl0aG9uJywgJy1waCcsICc3LjAnLCAnLXRuJywgJzgnLCAnLW1hJywgJzIwMCcsICctbWV0YWxfYmluZGluZycsICctaW1hZScsICc8aW5maWxlLm1hZT4nLCAnLW9tYWUnLCAnPG91dGZpbGUubWFlPic=

> <r_lp_tautomer_probability>
1

> <r_epik_Ionization_Penalty>
0.178506

> <r_epik_Ionization_Penalty_Charging>
0.178504

> <r_epik_Ionization_Penalty_Neutral>
2.47225e-06

> <r_epik_State_Penalty>
0.167974

> <r_epik_Charging_Adjusted_Penalty>
0.346478

> <i_epik_Tot_Q>
1

> <i_epik_Tot_abs_Q>
1

> <r_epik_Metal_State_Penalty>
0.167974

> <b_epik_Metal_Only>
0

> <s_lp_Force_Field>
OPLS_2005

> <r_lp_Energy>
11.1237

> <b_lp_Chiralities_Consistent>
1

> <s_lp_Variant>
AV-unprocessed.smi:1144-3

> <Gold.Version>
5.8.1

> <Gold.Id.Protein>
6NUR|6NUR_protein|mol2

> <Gold.PLP.Fitness>
40.2501

> <Gold.PLP.PLP>
-32.3523

> <Gold.PLP.part.hbond>
-3.0000

> <Gold.PLP.part.metal>
0.0000

> <Gold.PLP.part.buried>
0.6818

> <Gold.PLP.part.nonpolar>
-31.1624

> <Gold.PLP.part.repulsive>
2.1770

> <Gold.PLP.ligand.clash>
0.0000

> <Gold.PLP.ligand.torsion>
0.5533

> <Gold.PLP.Chemscore.Hbond>
2.0000

> <Gold.PLP.Chemscore.CHOScore>
1.0000

> <Gold.PLP.Chemscore.Metal>
0.0000

> <Gold.Chemscore.Hbonds>
donor molecule, donor type, donor heavy atom, donor atom, acceptor molecule, acceptor atom, score
      L1  H     2    35       P1  7921  1.00
      L1  H     8    30       P1  7948  1.00
      L1  C    11    31       P1  8028  1.00

> <Gold.PLP.Chemscore.Internal.Correction>
0.0043

> <Gold.Rescore>
     Score         DG    S(hbond)    S(metal)    S(lipo)     H(rot)  DE(clash)    DE(int)     intcor
     13.42     -16.49       1.98        0.00      66.80       1.34       2.52       0.54       ----

> <Gold.Chemscore.Fitness>
13.4196

> <Gold.Chemscore.DG>
-16.4870

> <Gold.Chemscore.ZeroCoef>
-5.4800

> <Gold.Chemscore.Hbond>
1.9811

> <Gold.Chemscore.Metal>
0.0000

> <Gold.Chemscore.Lipo>
66.7974

> <Gold.Chemscore.Internal_Hbond>
0.0000

> <Gold.Chemscore.DEClash>
2.5248

> <Gold.Chemscore.DEInternal>
0.5426

> <Gold.Chemscore.Rot>
1.3379

> <Gold.Chemscore.Internal.Correction>
   9.000000E+99

> <Gold.Chemscore.Hbonds>
donor molecule, donor type, donor heavy atom, donor atom, acceptor molecule, acceptor atom, score
      L1  H     2    35       P1  7921  0.98
      L1  H     8    30       P1  7948  1.00

> <Gold.Chemscore.Hbond.Weighted>
-6.6167

> <Gold.Chemscore.Metal.Weighted>
-0.0000

> <Gold.Chemscore.Lipo.Weighted>
-7.8153

> <Gold.Chemscore.Internal_Hbond.Weighted>
0.0000

> <Gold.Chemscore.DEClash.Weighted>
2.5248

> <Gold.Chemscore.DEInternal.Weighted>
0.5426

> <Gold.Chemscore.Rot.Weighted>
3.4250

> <Gold.Chemscore.Internal.Correction.Weighted>
   9.000000E+99

> <Gold.Protein.RotatedTorsions>
[ 6907 6896 6895 6894 ] final  -38.30 input  -60.11 | X-H torsion
[ 7974 7965 7964 7962 ] final -169.03 input  175.53 | X-H torsion
[ 8008 7997 7996 7995 ] final  104.77 input   59.86 | X-H torsion
[ 10167 10162 10161 10158 ] final -112.28 input  -65.29 | X-H torsion
[ 10718 10713 10712 10709 ] final  103.71 input   66.30 | X-H torsion
[ 10763 10752 10751 10750 ] final   22.91 input  -60.55 | X-H torsion
[ 11005 11000 10999 10996 ] final -106.76 input  -57.11 | X-H torsion

> <Gold.Protein.ActiveResidues>
 VAL166  LYS551  ARG553  GLY616  TRP617  ASP618  TYR619  PRO620  LYS621  CYS622 
 ASP623  PHE694  ASN695  SER759  ASP760  ASP761  ALA762  ILE779  LEU786  VAL792 
 PHE793  MET794  SER795  GLU796  ALA797  LYS798  CYS799  TRP800  GLU811  SER814 

> <Gold.Protein.RotatedAtoms>
  151.0041  134.9345  159.7970 H   0  0  0  0  0  0  0  0  0  0  0  0  # atno 6907 bound_to 6896
  152.5285  134.3115  159.9125 H   0  0  0  0  0  0  0  0  0  0  0  0  # atno 6908 bound_to 6896
  151.3121  133.4034  159.2682 H   0  0  0  0  0  0  0  0  0  0  0  0  # atno 6909 bound_to 6896
  144.7192  140.2282  143.6307 H   0  0  0  0  0  0  0  0  0  0  0  0  # atno 7974 bound_to 7965
  156.1601  140.3142  155.8793 H   0  0  0  0  0  0  0  0  0  0  0  0  # atno 8008 bound_to 7997
  155.3799  140.0487  157.3061 H   0  0  0  0  0  0  0  0  0  0  0  0  # atno 8009 bound_to 7997
  154.5139  140.2174  155.9115 H   0  0  0  0  0  0  0  0  0  0  0  0  # atno 8010 bound_to 7997
  140.1245  143.4414  152.1669 H   0  0  0  0  0  0  0  0  0  0  0  0  # atno 10167 bound_to 10162
  157.6764  131.0785  150.5596 H   0  0  0  0  0  0  0  0  0  0  0  0  # atno 10718 bound_to 10713
  153.0879  135.6638  153.9913 H   0  0  0  0  0  0  0  0  0  0  0  0  # atno 10763 bound_to 10752
  153.9517  135.2983  155.3439 H   0  0  0  0  0  0  0  0  0  0  0  0  # atno 10764 bound_to 10752
  154.7289  135.5131  153.9005 H   0  0  0  0  0  0  0  0  0  0  0  0  # atno 10765 bound_to 10752
  141.0988  133.8921  157.1894 H   0  0  0  0  0  0  0  0  0  0  0  0  # atno 11005 bound_to 11000
  145.8436  139.2141  143.1813 LP  0  0  0  0  0  0  0  0  0  0  0  0  # atno 17320 bound_to 7965
  146.0324  140.8245  142.9869 LP  0  0  0  0  0  0  0  0  0  0  0  0  # atno 17321 bound_to 7965
  139.5551  144.7367  151.4317 LP  0  0  0  0  0  0  0  0  0  0  0  0  # atno 17342 bound_to 10162
  140.6853  143.7988  150.7177 LP  0  0  0  0  0  0  0  0  0  0  0  0  # atno 17343 bound_to 10162
  156.5899  130.4326  149.5941 LP  0  0  0  0  0  0  0  0  0  0  0  0  # atno 17370 bound_to 10713
  156.2592  130.6952  151.1715 LP  0  0  0  0  0  0  0  0  0  0  0  0  # atno 17371 bound_to 10713
  139.9833  135.0090  156.9803 LP  0  0  0  0  0  0  0  0  0  0  0  0  # atno 17394 bound_to 11000
  140.5073  134.1037  155.7263 LP  0  0  0  0  0  0  0  0  0  0  0  0  # atno 17395 bound_to 11000

$$$$
