AV-unprocessed.smi:1875|AV-procd|sdf|7613|dock1
  -GOLD-   22720 9333D 1   1.00000     0.00000
 Structure written by MMmdl.
 48 50  0  0  0  0  0  0  0  0  2 V2000
  142.5506  145.8762  155.4952 C   0  0  0  0  0  0  0  0  0  0  0  0
  143.6116  145.2002  154.6513 C   0  0  0  0  0  0  0  0  0  0  0  0
  143.8780  145.7508  153.4631 N   0  0  0  0  0  0  0  0  0  0  0  0
  144.8171  145.1454  152.7037 C   0  0  0  0  0  0  0  0  0  0  0  0
  145.4867  143.9836  153.1391 C   0  0  0  0  0  0  0  0  0  0  0  0
  145.1232  143.4960  154.4119 C   0  0  0  0  0  0  0  0  0  0  0  0
  145.7570  142.2487  154.9907 C   0  0  0  0  0  0  0  0  0  0  0  0
  146.9977  141.9210  154.2650 N   0  3  0  0  0  0  0  0  0  0  0  0
  147.6801  140.7078  154.7555 C   0  0  0  0  0  0  0  0  0  0  0  0
  149.2030  140.7996  154.5464 C   0  0  1  0  0  0  0  0  0  0  0  0
  149.4480  141.1673  153.2031 O   0  0  0  0  0  0  0  0  0  0  0  0
  149.8972  141.8076  155.4891 C   0  0  0  0  0  0  0  0  0  0  0  0
  150.7153  141.1835  156.5169 N   0  0  0  0  0  0  0  0  0  0  0  0
  151.1660  139.9138  156.5359 C   0  0  0  0  0  0  0  0  0  0  0  0
  151.9011  139.5426  157.5794 N   0  0  0  0  0  0  0  0  0  0  0  0
  151.9451  140.7115  158.3194 C   0  0  0  0  0  0  0  0  0  0  0  0
  152.5768  140.9933  159.5503 C   0  0  0  0  0  0  0  0  0  0  0  0
  152.4924  142.2788  160.1308 C   0  0  0  0  0  0  0  0  0  0  0  0
  153.1873  142.5379  161.4561 C   0  0  0  0  0  0  0  0  0  0  0  0
  151.7665  143.3068  159.4773 C   0  0  0  0  0  0  0  0  0  0  0  0
  151.6639  144.6962  160.0812 C   0  0  0  0  0  0  0  0  0  0  0  0
  151.1287  143.0421  158.2472 C   0  0  0  0  0  0  0  0  0  0  0  0
  151.2177  141.7583  157.6804 C   0  0  0  0  0  0  0  0  0  0  0  0
  144.1792  144.1038  155.1650 N   0  0  0  0  0  0  0  0  0  0  0  0
  142.4710  146.9364  155.2522 H   0  0  0  0  0  0  0  0  0  0  0  0
  142.7856  145.7925  156.5570 H   0  0  0  0  0  0  0  0  0  0  0  0
  141.5802  145.4109  155.3207 H   0  0  0  0  0  0  0  0  0  0  0  0
  145.0334  145.5879  151.7426 H   0  0  0  0  0  0  0  0  0  0  0  0
  146.2353  143.5002  152.5286 H   0  0  0  0  0  0  0  0  0  0  0  0
  145.9772  142.4022  156.0480 H   0  0  0  0  0  0  0  0  0  0  0  0
  145.0554  141.4159  154.9230 H   0  0  0  0  0  0  0  0  0  0  0  0
  146.7701  141.7957  153.2891 H   0  0  0  0  0  0  0  0  0  0  0  0
  147.4418  140.5590  155.8097 H   0  0  0  0  0  0  0  0  0  0  0  0
  147.2861  139.8475  154.2128 H   0  0  0  0  0  0  0  0  0  0  0  0
  149.6502  139.8181  154.7103 H   0  0  0  0  0  0  0  0  0  0  0  0
  149.3488  140.4016  152.6572 H   0  0  0  0  0  0  0  0  0  0  0  0
  150.5350  142.4745  154.9072 H   0  0  0  0  0  0  0  0  0  0  0  0
  149.1570  142.4446  155.9750 H   0  0  0  0  0  0  0  0  0  0  0  0
  150.9347  139.2195  155.7415 H   0  0  0  0  0  0  0  0  0  0  0  0
  153.1311  140.2105  160.0470 H   0  0  0  0  0  0  0  0  0  0  0  0
  153.9091  143.3492  161.3584 H   0  0  0  0  0  0  0  0  0  0  0  0
  153.7234  141.6545  161.8043 H   0  0  0  0  0  0  0  0  0  0  0  0
  152.4600  142.8112  162.2208 H   0  0  0  0  0  0  0  0  0  0  0  0
  151.0457  145.3521  159.4677 H   0  0  0  0  0  0  0  0  0  0  0  0
  152.6521  145.1492  160.1649 H   0  0  0  0  0  0  0  0  0  0  0  0
  151.2178  144.6501  161.0750 H   0  0  0  0  0  0  0  0  0  0  0  0
  150.5738  143.8171  157.7398 H   0  0  0  0  0  0  0  0  0  0  0  0
  147.6339  142.7010  154.3496 H   0  0  0  0  0  0  0  0  0  0  0  0
  1  2  1  0  0  0  0
  1 25  1  0  0  0  0
  1 26  1  0  0  0  0
  1 27  1  0  0  0  0
  2 24  1  0  0  0  0
  2  3  2  0  0  0  0
  3  4  1  0  0  0  0
  4  5  2  0  0  0  0
  4 28  1  0  0  0  0
  5  6  1  0  0  0  0
  5 29  1  0  0  0  0
  6  7  1  0  0  0  0
  6 24  2  0  0  0  0
  7  8  1  0  0  0  0
  7 30  1  0  0  0  0
  7 31  1  0  0  0  0
  8  9  1  0  0  0  0
  8 32  1  0  0  0  0
  8 48  1  0  0  0  0
  9 10  1  0  0  0  0
  9 33  1  0  0  0  0
  9 34  1  0  0  0  0
 10 11  1  0  0  0  0
 10 12  1  0  0  0  0
 10 35  1  0  0  0  0
 11 36  1  0  0  0  0
 12 13  1  0  0  0  0
 12 37  1  0  0  0  0
 12 38  1  0  0  0  0
 13 23  1  0  0  0  0
 13 14  1  0  0  0  0
 14 15  2  0  0  0  0
 14 39  1  0  0  0  0
 15 16  1  0  0  0  0
 16 23  2  0  0  0  0
 16 17  1  0  0  0  0
 17 18  2  0  0  0  0
 17 40  1  0  0  0  0
 18 19  1  0  0  0  0
 18 20  1  0  0  0  0
 19 41  1  0  0  0  0
 19 42  1  0  0  0  0
 19 43  1  0  0  0  0
 20 21  1  0  0  0  0
 20 22  2  0  0  0  0
 21 44  1  0  0  0  0
 21 45  1  0  0  0  0
 21 46  1  0  0  0  0
 22 23  1  0  0  0  0
 22 47  1  0  0  0  0
M  CHG  1   8   1
M  END
> <s_m_source_file>
AV-unprocessed.smi

> <i_m_source_file_index>
1875

> <i_lp_mmshare_version>
43012

> <i_f3d_flags>
0

> <s_epik_input>
W0NIM11jMW5bY0hdW2NIXWMobjEpW0NIMl1bTkhdW0NIMl1bQ0BIXShbT0hdKVtDSDJdbihbY0hdbjIpYyhjMjMpW2NIXWMoW0NIM10pYyhbY0hdMylbQ0gzXQ==

> <s_epik_cmdline>
J2VwaWtfcHl0aG9uJywgJy1waCcsICc3LjAnLCAnLXRuJywgJzgnLCAnLW1hJywgJzIwMCcsICctbWV0YWxfYmluZGluZycsICctaW1hZScsICc8aW5maWxlLm1hZT4nLCAnLW9tYWUnLCAnPG91dGZpbGUubWFlPic=

> <r_lp_tautomer_probability>
1

> <r_epik_Ionization_Penalty>
0.192455

> <r_epik_Ionization_Penalty_Charging>
0.102343

> <r_epik_Ionization_Penalty_Neutral>
0.0901122

> <r_epik_State_Penalty>
0.175389

> <r_epik_Charging_Adjusted_Penalty>
0.277732

> <i_epik_Tot_Q>
1

> <i_epik_Tot_abs_Q>
1

> <r_epik_Metal_State_Penalty>
0.167659

> <b_epik_Metal_Only>
0

> <s_epik_Chemistry_Notes>
This compound contains an electron-poor aromatic ring that is susceptible to covalent hydrolysis at low pH, typically resulting in measured values for nitrogen ring protonation that are around two units higher than predicted values.

> <s_lp_Force_Field>
OPLS_2005

> <r_lp_Energy>
1.49454

> <b_lp_Chiralities_Consistent>
1

> <s_lp_Variant>
AV-unprocessed.smi:1875-2

> <Gold.Version>
5.8.1

> <Gold.Id.Protein>
6NUR|6NUR_protein|mol2

> <Gold.PLP.Fitness>
58.8017

> <Gold.PLP.PLP>
-56.4121

> <Gold.PLP.part.hbond>
-4.2376

> <Gold.PLP.part.metal>
0.0000

> <Gold.PLP.part.buried>
-6.6242

> <Gold.PLP.part.nonpolar>
-46.3356

> <Gold.PLP.part.repulsive>
0.3250

> <Gold.PLP.ligand.clash>
0.0000

> <Gold.PLP.ligand.torsion>
1.3661

> <Gold.PLP.Chemscore.Hbond>
1.6528

> <Gold.PLP.Chemscore.CHOScore>
0.0000

> <Gold.PLP.Chemscore.Metal>
0.0000

> <Gold.Chemscore.Hbonds>
donor molecule, donor type, donor heavy atom, donor atom, acceptor molecule, acceptor atom, score
      L1  H    11    36       P1  7957  0.72
      P1  H  7989  7998       L1    11  0.03
      P1  H  8011  8017       L1    11  1.00

> <Gold.PLP.Chemscore.Internal.Correction>
0.1633

> <Gold.Rescore>
     Score         DG    S(hbond)    S(metal)    S(lipo)     H(rot)  DE(clash)    DE(int)     intcor
     17.17     -18.67       1.39        0.00     134.28       2.80       0.22       1.28       ----

> <Gold.Chemscore.Fitness>
17.1659

> <Gold.Chemscore.DG>
-18.6687

> <Gold.Chemscore.ZeroCoef>
-5.4800

> <Gold.Chemscore.Hbond>
1.3948

> <Gold.Chemscore.Metal>
0.0000

> <Gold.Chemscore.Lipo>
134.2764

> <Gold.Chemscore.Internal_Hbond>
0.0000

> <Gold.Chemscore.DEClash>
0.2181

> <Gold.Chemscore.DEInternal>
1.2847

> <Gold.Chemscore.Rot>
2.8047

> <Gold.Chemscore.Internal.Correction>
   9.000000E+99

> <Gold.Chemscore.Hbonds>
donor molecule, donor type, donor heavy atom, donor atom, acceptor molecule, acceptor atom, score
      L1  H    11    36       P1  7957  0.69
      P1  H  8011  8017       L1    11  0.71

> <Gold.Chemscore.Hbond.Weighted>
-4.6585

> <Gold.Chemscore.Metal.Weighted>
-0.0000

> <Gold.Chemscore.Lipo.Weighted>
-15.7103

> <Gold.Chemscore.Internal_Hbond.Weighted>
0.0000

> <Gold.Chemscore.DEClash.Weighted>
0.2181

> <Gold.Chemscore.DEInternal.Weighted>
1.2847

> <Gold.Chemscore.Rot.Weighted>
7.1801

> <Gold.Chemscore.Internal.Correction.Weighted>
   9.000000E+99

> <Gold.Protein.RotatedTorsions>
[ 6907 6896 6895 6894 ] final   90.10 input  -60.11 | X-H torsion
[ 7974 7965 7964 7962 ] final   54.00 input  175.53 | X-H torsion
[ 8008 7997 7996 7995 ] final -137.29 input   59.86 | X-H torsion
[ 10167 10162 10161 10158 ] final  103.68 input  -65.29 | X-H torsion
[ 10718 10713 10712 10709 ] final  -55.74 input   66.30 | X-H torsion
[ 10763 10752 10751 10750 ] final   -5.27 input  -60.55 | X-H torsion
[ 11005 11000 10999 10996 ] final  -36.00 input  -57.11 | X-H torsion

> <Gold.Protein.ActiveResidues>
 VAL166  LYS551  ARG553  GLY616  TRP617  ASP618  TYR619  PRO620  LYS621  CYS622 
 ASP623  PHE694  ASN695  SER759  ASP760  ASP761  ALA762  ILE779  LEU786  VAL792 
 PHE793  MET794  SER795  GLU796  ALA797  LYS798  CYS799  TRP800  GLU811  SER814 

> <Gold.Protein.RotatedAtoms>
  152.5442  134.1863  159.8655 H   0  0  0  0  0  0  0  0  0  0  0  0  # atno 6907 bound_to 6896
  151.1862  133.4688  159.2602 H   0  0  0  0  0  0  0  0  0  0  0  0  # atno 6908 bound_to 6896
  151.1129  135.0048  159.8558 H   0  0  0  0  0  0  0  0  0  0  0  0  # atno 6909 bound_to 6896
  145.9654  139.4098  143.0223 H   0  0  0  0  0  0  0  0  0  0  0  0  # atno 7974 bound_to 7965
  155.4094  140.0511  157.3032 H   0  0  0  0  0  0  0  0  0  0  0  0  # atno 8008 bound_to 7997
  154.4953  140.2136  155.9419 H   0  0  0  0  0  0  0  0  0  0  0  0  # atno 8009 bound_to 7997
  156.1397  140.3156  155.8482 H   0  0  0  0  0  0  0  0  0  0  0  0  # atno 8010 bound_to 7997
  139.7242  144.7051  151.0824 H   0  0  0  0  0  0  0  0  0  0  0  0  # atno 10167 bound_to 10162
  156.1344  130.4157  150.0211 H   0  0  0  0  0  0  0  0  0  0  0  0  # atno 10718 bound_to 10713
  153.3963  135.7003  153.6458 H   0  0  0  0  0  0  0  0  0  0  0  0  # atno 10763 bound_to 10752
  153.5010  135.3652  155.2540 H   0  0  0  0  0  0  0  0  0  0  0  0  # atno 10764 bound_to 10752
  154.8707  135.4112  154.3289 H   0  0  0  0  0  0  0  0  0  0  0  0  # atno 10765 bound_to 10752
  140.9840  133.7040  156.1734 H   0  0  0  0  0  0  0  0  0  0  0  0  # atno 11005 bound_to 11000
  145.7981  140.9783  143.1013 LP  0  0  0  0  0  0  0  0  0  0  0  0  # atno 17320 bound_to 7965
  144.6824  139.9767  143.7483 LP  0  0  0  0  0  0  0  0  0  0  0  0  # atno 17321 bound_to 7965
  140.7759  143.5127  150.9633 LP  0  0  0  0  0  0  0  0  0  0  0  0  # atno 17342 bound_to 10162
  139.8814  143.7067  152.3156 LP  0  0  0  0  0  0  0  0  0  0  0  0  # atno 17343 bound_to 10162
  156.8114  130.9326  151.3644 LP  0  0  0  0  0  0  0  0  0  0  0  0  # atno 17370 bound_to 10713
  157.6519  130.8891  149.9650 LP  0  0  0  0  0  0  0  0  0  0  0  0  # atno 17371 bound_to 10713
  140.7142  134.4428  157.5579 LP  0  0  0  0  0  0  0  0  0  0  0  0  # atno 17394 bound_to 11000
  139.8962  134.8664  156.2095 LP  0  0  0  0  0  0  0  0  0  0  0  0  # atno 17395 bound_to 11000

$$$$
