AV-unprocessed.smi:2901|AV-procd|sdf|11149|dock3
  -GOLD-   2272016 23D 1   1.00000     0.00000
 Structure written by MMmdl.
 40 41  0  0  0  0  0  0  0  0  1 V2000
  148.3292  140.2172  154.1807 C   0  0  0  0  0  0  0  0  0  0  0  0
  149.4378  139.2665  154.4737 C   0  0  0  0  0  0  0  0  0  0  0  0
  149.3378  137.9684  154.7512 N   0  0  0  0  0  0  0  0  0  0  0  0
  150.6454  137.5459  154.9470 C   0  0  0  0  0  0  0  0  0  0  0  0
  150.9803  136.1243  155.2806 C   0  0  0  0  0  0  0  0  0  0  0  0
  149.7223  135.2808  155.5444 C   0  0  0  0  0  0  0  0  0  0  0  0
  149.0541  134.9081  154.3029 N   0  0  0  0  0  0  0  0  0  0  0  0
  148.3517  133.7818  154.1191 C   0  0  0  0  0  0  0  0  0  0  0  0
  148.1804  132.9255  154.9869 O   0  0  0  0  0  0  0  0  0  0  0  0
  147.8646  133.6970  152.8740 N   0  0  0  0  0  0  0  0  0  0  0  0
  147.0751  132.5829  152.3605 C   0  0  0  0  0  0  0  0  0  0  0  0
  145.6808  133.0300  151.8875 C   0  0  2  0  0  0  0  0  0  0  0  0
  144.8426  131.9327  151.2307 C   0  0  0  0  0  0  0  0  0  0  0  0
  143.9144  132.6988  150.3000 C   0  0  0  0  0  0  0  0  0  0  0  0
  144.5113  134.1084  150.2484 C   0  0  0  0  0  0  0  0  0  0  0  0
  145.7922  133.9909  150.8511 O   0  0  0  0  0  0  0  0  0  0  0  0
  151.4738  138.6248  154.7701 C   0  0  0  0  0  0  0  0  0  0  0  0
  152.9533  138.7951  154.8416 C   0  0  0  0  0  0  0  0  0  0  0  0
  150.7180  139.7265  154.4709 O   0  0  0  0  0  0  0  0  0  0  0  0
  147.3901  139.6777  154.0545 H   0  0  0  0  0  0  0  0  0  0  0  0
  148.5424  140.7685  153.2648 H   0  0  0  0  0  0  0  0  0  0  0  0
  148.2202  140.9259  155.0018 H   0  0  0  0  0  0  0  0  0  0  0  0
  151.5543  135.6774  154.4680 H   0  0  0  0  0  0  0  0  0  0  0  0
  151.6317  136.0984  156.1551 H   0  0  0  0  0  0  0  0  0  0  0  0
  149.9733  134.3861  156.1174 H   0  0  0  0  0  0  0  0  0  0  0  0
  149.0157  135.8488  156.1502 H   0  0  0  0  0  0  0  0  0  0  0  0
  149.1368  135.5511  153.5291 H   0  0  0  0  0  0  0  0  0  0  0  0
  148.0590  134.4514  152.2322 H   0  0  0  0  0  0  0  0  0  0  0  0
  147.6101  132.0908  151.5467 H   0  0  0  0  0  0  0  0  0  0  0  0
  146.9786  131.8440  153.1564 H   0  0  0  0  0  0  0  0  0  0  0  0
  145.1240  133.4772  152.7133 H   0  0  0  0  0  0  0  0  0  0  0  0
  145.4801  131.2698  150.6442 H   0  0  0  0  0  0  0  0  0  0  0  0
  144.3058  131.3245  151.9595 H   0  0  0  0  0  0  0  0  0  0  0  0
  143.8913  132.2367  149.3124 H   0  0  0  0  0  0  0  0  0  0  0  0
  142.8930  132.7259  150.6818 H   0  0  0  0  0  0  0  0  0  0  0  0
  144.5873  134.4953  149.2320 H   0  0  0  0  0  0  0  0  0  0  0  0
  143.9047  134.8023  150.8320 H   0  0  0  0  0  0  0  0  0  0  0  0
  153.4642  137.9253  154.4281 H   0  0  0  0  0  0  0  0  0  0  0  0
  153.2774  138.9184  155.8751 H   0  0  0  0  0  0  0  0  0  0  0  0
  153.2738  139.6723  154.2790 H   0  0  0  0  0  0  0  0  0  0  0  0
  1  2  1  0  0  0  0
  1 20  1  0  0  0  0
  1 21  1  0  0  0  0
  1 22  1  0  0  0  0
  2 19  1  0  0  0  0
  2  3  2  0  0  0  0
  3  4  1  0  0  0  0
  4  5  1  0  0  0  0
  4 17  2  0  0  0  0
  5  6  1  0  0  0  0
  5 23  1  0  0  0  0
  5 24  1  0  0  0  0
  6  7  1  0  0  0  0
  6 25  1  0  0  0  0
  6 26  1  0  0  0  0
  7  8  1  0  0  0  0
  7 27  1  0  0  0  0
  8  9  2  0  0  0  0
  8 10  1  0  0  0  0
 10 11  1  0  0  0  0
 10 28  1  0  0  0  0
 11 12  1  0  0  0  0
 11 29  1  0  0  0  0
 11 30  1  0  0  0  0
 12 16  1  0  0  0  0
 12 13  1  0  0  0  0
 12 31  1  0  0  0  0
 13 14  1  0  0  0  0
 13 32  1  0  0  0  0
 13 33  1  0  0  0  0
 14 15  1  0  0  0  0
 14 34  1  0  0  0  0
 14 35  1  0  0  0  0
 15 16  1  0  0  0  0
 15 36  1  0  0  0  0
 15 37  1  0  0  0  0
 17 18  1  0  0  0  0
 17 19  1  0  0  0  0
 18 38  1  0  0  0  0
 18 39  1  0  0  0  0
 18 40  1  0  0  0  0
M  END
> <s_m_source_file>
AV-unprocessed.smi

> <i_m_source_file_index>
2901

> <i_lp_mmshare_version>
43012

> <i_f3d_flags>
0

> <s_epik_input>
W0NIM11jMW5jKGMobzEpW0NIM10pW0NIMl1bQ0gyXVtOSF1DKD1PKVtOSF1bQ0gyXVtDQEBIXTJbQ0gyXVtDSDJdW0NIMl1PMg==

> <s_epik_cmdline>
J2VwaWtfcHl0aG9uJywgJy1waCcsICc3LjAnLCAnLXRuJywgJzgnLCAnLW1hJywgJzIwMCcsICctbWV0YWxfYmluZGluZycsICctaW1hZScsICc8aW5maWxlLm1hZT4nLCAnLW9tYWUnLCAnPG91dGZpbGUubWFlPic=

> <r_lp_tautomer_probability>
1

> <r_epik_Ionization_Penalty>
9.58254e-05

> <r_epik_Ionization_Penalty_Charging>
0

> <r_epik_Ionization_Penalty_Neutral>
9.58254e-05

> <r_epik_State_Penalty>
-0

> <r_epik_Charging_Adjusted_Penalty>
0

> <i_epik_Tot_Q>
0

> <i_epik_Tot_abs_Q>
0

> <r_epik_Metal_State_Penalty>
-0

> <b_epik_Metal_Only>
0

> <s_lp_Force_Field>
OPLS_2005

> <r_lp_Energy>
8.98545

> <b_lp_Chiralities_Consistent>
1

> <s_lp_Variant>
AV-unprocessed.smi:2901-1

> <Gold.Version>
5.8.1

> <Gold.Id.Protein>
6NUR|6NUR_protein|mol2

> <Gold.PLP.Fitness>
42.4786

> <Gold.PLP.PLP>
-34.2337

> <Gold.PLP.part.hbond>
-3.0000

> <Gold.PLP.part.metal>
0.0000

> <Gold.PLP.part.buried>
-5.0120

> <Gold.PLP.part.nonpolar>
-27.5402

> <Gold.PLP.part.repulsive>
0.4910

> <Gold.PLP.ligand.clash>
0.0000

> <Gold.PLP.ligand.torsion>
0.3124

> <Gold.PLP.Chemscore.Hbond>
2.9424

> <Gold.PLP.Chemscore.CHOScore>
0.0000

> <Gold.PLP.Chemscore.Metal>
0.0000

> <Gold.Chemscore.Hbonds>
donor molecule, donor type, donor heavy atom, donor atom, acceptor molecule, acceptor atom, score
      L1  H     7    27       P1  7948  1.00
      L1  H    10    28       P1  7948  0.94
      P1  H  7989  7998       L1    19  1.00

> <Gold.PLP.Chemscore.Internal.Correction>
0.0425

> <Gold.Rescore>
     Score         DG    S(hbond)    S(metal)    S(lipo)     H(rot)  DE(clash)    DE(int)     intcor
     16.72     -17.16       2.57        0.00      68.30       1.92       0.06       0.38       ----

> <Gold.Chemscore.Fitness>
16.7211

> <Gold.Chemscore.DG>
-17.1575

> <Gold.Chemscore.ZeroCoef>
-5.4800

> <Gold.Chemscore.Hbond>
2.5727

> <Gold.Chemscore.Metal>
0.0000

> <Gold.Chemscore.Lipo>
68.3041

> <Gold.Chemscore.Internal_Hbond>
0.0000

> <Gold.Chemscore.DEClash>
0.0580

> <Gold.Chemscore.DEInternal>
0.3784

> <Gold.Chemscore.Rot>
1.9167

> <Gold.Chemscore.Internal.Correction>
   9.000000E+99

> <Gold.Chemscore.Hbonds>
donor molecule, donor type, donor heavy atom, donor atom, acceptor molecule, acceptor atom, score
      L1  H     7    27       P1  7948  0.60
      L1  H    10    28       P1  7948  0.20
      P1  H  7989  7998       L1    19  0.78

> <Gold.Chemscore.Hbond.Weighted>
-8.5928

> <Gold.Chemscore.Metal.Weighted>
-0.0000

> <Gold.Chemscore.Lipo.Weighted>
-7.9916

> <Gold.Chemscore.Internal_Hbond.Weighted>
0.0000

> <Gold.Chemscore.DEClash.Weighted>
0.0580

> <Gold.Chemscore.DEInternal.Weighted>
0.3784

> <Gold.Chemscore.Rot.Weighted>
4.9069

> <Gold.Chemscore.Internal.Correction.Weighted>
   9.000000E+99

> <Gold.Protein.RotatedTorsions>
[ 6907 6896 6895 6894 ] final   68.55 input  -60.11 | X-H torsion
[ 7974 7965 7964 7962 ] final  158.97 input  175.53 | X-H torsion
[ 8008 7997 7996 7995 ] final -166.95 input   59.86 | X-H torsion
[ 10167 10162 10161 10158 ] final  -66.83 input  -65.29 | X-H torsion
[ 10718 10713 10712 10709 ] final   10.29 input   66.30 | X-H torsion
[ 10763 10752 10751 10750 ] final   59.97 input  -60.55 | X-H torsion
[ 11005 11000 10999 10996 ] final -145.93 input  -57.11 | X-H torsion

> <Gold.Protein.ActiveResidues>
 VAL166  LYS551  ARG553  GLY616  TRP617  ASP618  TYR619  PRO620  LYS621  CYS622 
 ASP623  PHE694  ASN695  SER759  ASP760  ASP761  ALA762  ILE779  LEU786  VAL792 
 PHE793  MET794  SER795  GLU796  ALA797  LYS798  CYS799  TRP800  GLU811  SER814 

> <Gold.Protein.RotatedAtoms>
  152.4627  134.5146  159.9763 H   0  0  0  0  0  0  0  0  0  0  0  0  # atno 6907 bound_to 6896
  151.5191  133.3464  159.2906 H   0  0  0  0  0  0  0  0  0  0  0  0  # atno 6908 bound_to 6896
  150.8598  134.7975  159.7136 H   0  0  0  0  0  0  0  0  0  0  0  0  # atno 6909 bound_to 6896
  144.7816  139.7552  143.6257 H   0  0  0  0  0  0  0  0  0  0  0  0  # atno 7974 bound_to 7965
  155.8710  140.0993  157.1550 H   0  0  0  0  0  0  0  0  0  0  0  0  # atno 8008 bound_to 7997
  154.3997  140.1347  156.4141 H   0  0  0  0  0  0  0  0  0  0  0  0  # atno 8009 bound_to 7997
  155.7750  140.3460  155.5269 H   0  0  0  0  0  0  0  0  0  0  0  0  # atno 8010 bound_to 7997
  140.5628  143.2313  151.6694 H   0  0  0  0  0  0  0  0  0  0  0  0  # atno 10167 bound_to 10162
  156.9788  130.5997  149.5675 H   0  0  0  0  0  0  0  0  0  0  0  0  # atno 10718 bound_to 10713
  152.9908  135.5553  154.5798 H   0  0  0  0  0  0  0  0  0  0  0  0  # atno 10763 bound_to 10752
  154.5181  135.2806  155.1288 H   0  0  0  0  0  0  0  0  0  0  0  0  # atno 10764 bound_to 10752
  154.2652  135.6373  153.5342 H   0  0  0  0  0  0  0  0  0  0  0  0  # atno 10765 bound_to 10752
  140.7872  134.3010  157.5026 H   0  0  0  0  0  0  0  0  0  0  0  0  # atno 11005 bound_to 11000
  146.2027  139.5332  142.9733 LP  0  0  0  0  0  0  0  0  0  0  0  0  # atno 17320 bound_to 7965
  145.6035  141.0351  143.2005 LP  0  0  0  0  0  0  0  0  0  0  0  0  # atno 17321 bound_to 7965
  139.5078  144.3633  152.0541 LP  0  0  0  0  0  0  0  0  0  0  0  0  # atno 17342 bound_to 10162
  140.2761  144.3911  150.6134 LP  0  0  0  0  0  0  0  0  0  0  0  0  # atno 17343 bound_to 10162
  156.0253  130.5347  150.8389 LP  0  0  0  0  0  0  0  0  0  0  0  0  # atno 17370 bound_to 10713
  157.5541  131.0944  150.9654 LP  0  0  0  0  0  0  0  0  0  0  0  0  # atno 17371 bound_to 10713
  139.8735  134.9353  156.3631 LP  0  0  0  0  0  0  0  0  0  0  0  0  # atno 17394 bound_to 11000
  140.9425  133.7505  156.0165 LP  0  0  0  0  0  0  0  0  0  0  0  0  # atno 17395 bound_to 11000

$$$$
