AV-unprocessed.smi:2812|AV-procd|sdf|10833|dock4
  -GOLD-   2272015273D 1   1.00000     0.00000
 Structure written by MMmdl.
 55 56  0  0  0  0  0  0  0  0  2 V2000
  153.1232  139.4165  159.1733 C   0  0  0  0  0  0  0  0  0  0  0  0
  152.7735  140.8649  159.4768 C   0  0  0  0  0  0  0  0  0  0  0  0
  153.4304  141.5319  160.5819 C   0  0  0  0  0  0  0  0  0  0  0  0
  153.1183  142.8037  160.8639 C   0  0  0  0  0  0  0  0  0  0  0  0
  152.1782  143.5168  160.1063 N   0  0  0  0  0  0  0  0  0  0  0  0
  151.9135  144.9068  160.4871 C   0  0  0  0  0  0  0  0  0  0  0  0
  151.5403  142.9688  159.0321 C   0  0  0  0  0  0  0  0  0  0  0  0
  150.7733  143.6441  158.3419 O   0  0  0  0  0  0  0  0  0  0  0  0
  151.8454  141.5442  158.7527 C   0  0  0  0  0  0  0  0  0  0  0  0
  151.2257  140.8998  157.6701 N   0  0  0  0  0  0  0  0  0  0  0  0
  150.5146  139.7601  157.7263 C   0  0  0  0  0  0  0  0  0  0  0  0
  150.2904  139.1183  158.7536 O   0  0  0  0  0  0  0  0  0  0  0  0
  150.0969  139.3810  156.5103 N   0  0  0  0  0  0  0  0  0  0  0  0
  149.3164  138.1784  156.2391 C   0  0  0  0  0  0  0  0  0  0  0  0
  149.2959  137.8050  154.7310 C   0  0  2  0  0  0  0  0  0  0  0  0
  148.9619  138.9978  153.8036 C   0  0  0  0  0  0  0  0  0  0  0  0
  147.4822  139.3938  153.8804 C   0  0  0  0  0  0  0  0  0  0  0  0
  146.6058  138.1752  153.5737 C   0  0  0  0  0  0  0  0  0  0  0  0
  146.9530  136.9963  154.4969 C   0  0  0  0  0  0  0  0  0  0  0  0
  148.3977  136.6476  154.4202 N   0  3  2  0  0  0  0  0  0  0  0  0
  148.6973  135.3754  155.1368 C   0  0  0  0  0  0  0  0  0  0  0  0
  150.1185  134.8162  154.8972 C   0  0  0  0  0  0  0  0  0  0  0  0
  150.1881  133.2952  155.1141 C   0  0  0  0  0  0  0  0  0  0  0  0
  151.1335  135.5318  155.8006 C   0  0  0  0  0  0  0  0  0  0  0  0
  153.8682  139.0354  159.8723 H   0  0  0  0  0  0  0  0  0  0  0  0
  153.5303  139.3231  158.1661 H   0  0  0  0  0  0  0  0  0  0  0  0
  152.2377  138.7845  159.2500 H   0  0  0  0  0  0  0  0  0  0  0  0
  154.1621  141.0112  161.1820 H   0  0  0  0  0  0  0  0  0  0  0  0
  153.5727  143.3517  161.6762 H   0  0  0  0  0  0  0  0  0  0  0  0
  150.8497  145.0556  160.6797 H   0  0  0  0  0  0  0  0  0  0  0  0
  152.2125  145.5865  159.6878 H   0  0  0  0  0  0  0  0  0  0  0  0
  152.4487  145.2061  161.3889 H   0  0  0  0  0  0  0  0  0  0  0  0
  151.4443  141.2683  156.7561 H   0  0  0  0  0  0  0  0  0  0  0  0
  150.3298  139.9651  155.7204 H   0  0  0  0  0  0  0  0  0  0  0  0
  149.7293  137.3681  156.8403 H   0  0  0  0  0  0  0  0  0  0  0  0
  148.3074  138.3497  156.6122 H   0  0  0  0  0  0  0  0  0  0  0  0
  150.3054  137.5066  154.4527 H   0  0  0  0  0  0  0  0  0  0  0  0
  149.5918  139.8591  154.0267 H   0  0  0  0  0  0  0  0  0  0  0  0
  149.1979  138.7220  152.7747 H   0  0  0  0  0  0  0  0  0  0  0  0
  147.2465  139.7861  154.8702 H   0  0  0  0  0  0  0  0  0  0  0  0
  147.2713  140.1947  153.1712 H   0  0  0  0  0  0  0  0  0  0  0  0
  145.5528  138.4364  153.6820 H   0  0  0  0  0  0  0  0  0  0  0  0
  146.7446  137.8780  152.5333 H   0  0  0  0  0  0  0  0  0  0  0  0
  146.6782  137.2268  155.5268 H   0  0  0  0  0  0  0  0  0  0  0  0
  146.3534  136.1338  154.2032 H   0  0  0  0  0  0  0  0  0  0  0  0
  148.5178  135.5058  156.2043 H   0  0  0  0  0  0  0  0  0  0  0  0
  147.9777  134.6234  154.8098 H   0  0  0  0  0  0  0  0  0  0  0  0
  150.4229  135.0305  153.8730 H   0  0  0  0  0  0  0  0  0  0  0  0
  149.8971  133.0259  156.1298 H   0  0  0  0  0  0  0  0  0  0  0  0
  151.1999  132.9232  154.9502 H   0  0  0  0  0  0  0  0  0  0  0  0
  149.5330  132.7609  154.4259 H   0  0  0  0  0  0  0  0  0  0  0  0
  150.9156  135.3637  156.8559 H   0  0  0  0  0  0  0  0  0  0  0  0
  151.1255  136.6081  155.6261 H   0  0  0  0  0  0  0  0  0  0  0  0
  152.1472  135.1777  155.6103 H   0  0  0  0  0  0  0  0  0  0  0  0
  148.5662  136.4426  153.4457 H   0  0  0  0  0  0  0  0  0  0  0  0
  1  2  1  0  0  0  0
  1 25  1  0  0  0  0
  1 26  1  0  0  0  0
  1 27  1  0  0  0  0
  2  9  2  0  0  0  0
  2  3  1  0  0  0  0
  3  4  2  0  0  0  0
  3 28  1  0  0  0  0
  4  5  1  0  0  0  0
  4 29  1  0  0  0  0
  5  6  1  0  0  0  0
  5  7  1  0  0  0  0
  6 30  1  0  0  0  0
  6 31  1  0  0  0  0
  6 32  1  0  0  0  0
  7  8  2  0  0  0  0
  7  9  1  0  0  0  0
  9 10  1  0  0  0  0
 10 11  1  0  0  0  0
 10 33  1  0  0  0  0
 11 12  2  0  0  0  0
 11 13  1  0  0  0  0
 13 14  1  0  0  0  0
 13 34  1  0  0  0  0
 14 15  1  0  0  0  0
 14 35  1  0  0  0  0
 14 36  1  0  0  0  0
 15 20  1  0  0  0  0
 15 16  1  0  0  0  0
 15 37  1  0  0  0  0
 16 17  1  0  0  0  0
 16 38  1  0  0  0  0
 16 39  1  0  0  0  0
 17 18  1  0  0  0  0
 17 40  1  0  0  0  0
 17 41  1  0  0  0  0
 18 19  1  0  0  0  0
 18 42  1  0  0  0  0
 18 43  1  0  0  0  0
 19 20  1  0  0  0  0
 19 44  1  0  0  0  0
 19 45  1  0  0  0  0
 20 21  1  0  0  0  0
 20 55  1  0  0  0  0
 21 22  1  0  0  0  0
 21 46  1  0  0  0  0
 21 47  1  0  0  0  0
 22 23  1  0  0  0  0
 22 24  1  0  0  0  0
 22 48  1  0  0  0  0
 23 49  1  0  0  0  0
 23 50  1  0  0  0  0
 23 51  1  0  0  0  0
 24 52  1  0  0  0  0
 24 53  1  0  0  0  0
 24 54  1  0  0  0  0
M  CHG  1  20   1
M  END
> <s_m_source_file>
AV-unprocessed.smi

> <i_m_source_file_index>
2812

> <i_lp_mmshare_version>
43012

> <i_f3d_flags>
0

> <s_epik_input>
W0NIM11jMVtjSF1bY0hdbihbQ0gzXSljKD1PKWMxW05IXUMoPU8pW05IXVtDSDJdW0NAQEhdMltDSDJdW0NIMl1bQ0gyXVtDSDJdTjJbQ0gyXVtDSF0oW0NIM10pW0NIM10=

> <s_epik_cmdline>
J2VwaWtfcHl0aG9uJywgJy1waCcsICc3LjAnLCAnLXRuJywgJzgnLCAnLW1hJywgJzIwMCcsICctbWV0YWxfYmluZGluZycsICctaW1hZScsICc8aW5maWxlLm1hZT4nLCAnLW9tYWUnLCAnPG91dGZpbGUubWFlPic=

> <r_lp_tautomer_probability>
1

> <r_epik_Ionization_Penalty>
0.0010902

> <r_epik_Ionization_Penalty_Charging>
0.00107091

> <r_epik_Ionization_Penalty_Neutral>
1.92854e-05

> <r_epik_State_Penalty>
0.000697184

> <r_epik_Charging_Adjusted_Penalty>
0.0017681

> <i_epik_Tot_Q>
1

> <i_epik_Tot_abs_Q>
1

> <r_epik_Metal_State_Penalty>
-0

> <b_epik_Metal_Only>
0

> <s_lp_Force_Field>
OPLS_2005

> <r_lp_Energy>
39.0226

> <b_lp_Chiralities_Consistent>
1

> <s_lp_Variant>
AV-unprocessed.smi:2812-1

> <Gold.Version>
5.8.1

> <Gold.Id.Protein>
6NUR|6NUR_protein|mol2

> <Gold.PLP.Fitness>
42.1574

> <Gold.PLP.PLP>
-37.3455

> <Gold.PLP.part.hbond>
-1.1763

> <Gold.PLP.part.metal>
0.0000

> <Gold.PLP.part.buried>
-3.5952

> <Gold.PLP.part.nonpolar>
-33.3349

> <Gold.PLP.part.repulsive>
0.2254

> <Gold.PLP.ligand.clash>
0.0000

> <Gold.PLP.ligand.torsion>
0.9280

> <Gold.PLP.Chemscore.Hbond>
2.0000

> <Gold.PLP.Chemscore.CHOScore>
0.0000

> <Gold.PLP.Chemscore.Metal>
0.0000

> <Gold.Chemscore.Hbonds>
donor molecule, donor type, donor heavy atom, donor atom, acceptor molecule, acceptor atom, score
      L1  H    20    55       P1  7948  2.00

> <Gold.PLP.Chemscore.Internal.Correction>
0.6679

> <Gold.Rescore>
     Score         DG    S(hbond)    S(metal)    S(lipo)     H(rot)  DE(clash)    DE(int)     intcor
     14.85     -16.01       1.00        0.00      94.60       1.52       0.09       1.07       ----

> <Gold.Chemscore.Fitness>
14.8521

> <Gold.Chemscore.DG>
-16.0080

> <Gold.Chemscore.ZeroCoef>
-5.4800

> <Gold.Chemscore.Hbond>
0.9999

> <Gold.Chemscore.Metal>
0.0000

> <Gold.Chemscore.Lipo>
94.6024

> <Gold.Chemscore.Internal_Hbond>
0.0000

> <Gold.Chemscore.DEClash>
0.0904

> <Gold.Chemscore.DEInternal>
1.0655

> <Gold.Chemscore.Rot>
1.5157

> <Gold.Chemscore.Internal.Correction>
   9.000000E+99

> <Gold.Chemscore.Hbonds>
donor molecule, donor type, donor heavy atom, donor atom, acceptor molecule, acceptor atom, score
      L1  H    20    55       P1  7948  1.00

> <Gold.Chemscore.Hbond.Weighted>
-3.3398

> <Gold.Chemscore.Metal.Weighted>
-0.0000

> <Gold.Chemscore.Lipo.Weighted>
-11.0685

> <Gold.Chemscore.Internal_Hbond.Weighted>
0.0000

> <Gold.Chemscore.DEClash.Weighted>
0.0904

> <Gold.Chemscore.DEInternal.Weighted>
1.0655

> <Gold.Chemscore.Rot.Weighted>
3.8803

> <Gold.Chemscore.Internal.Correction.Weighted>
   9.000000E+99

> <Gold.Protein.RotatedTorsions>
[ 6907 6896 6895 6894 ] final  -85.05 input  -60.11 | X-H torsion
[ 7974 7965 7964 7962 ] final   16.91 input  175.53 | X-H torsion
[ 8008 7997 7996 7995 ] final   34.66 input   59.86 | X-H torsion
[ 10167 10162 10161 10158 ] final    6.67 input  -65.29 | X-H torsion
[ 10718 10713 10712 10709 ] final  151.57 input   66.30 | X-H torsion
[ 10763 10752 10751 10750 ] final -148.11 input  -60.55 | X-H torsion
[ 11005 11000 10999 10996 ] final   -2.35 input  -57.11 | X-H torsion

> <Gold.Protein.ActiveResidues>
 VAL166  LYS551  ARG553  GLY616  TRP617  ASP618  TYR619  PRO620  LYS621  CYS622 
 ASP623  PHE694  ASN695  SER759  ASP760  ASP761  ALA762  ILE779  LEU786  VAL792 
 PHE793  MET794  SER795  GLU796  ALA797  LYS798  CYS799  TRP800  GLU811  SER814 

> <Gold.Protein.RotatedAtoms>
  150.6872  134.3265  159.4808 H   0  0  0  0  0  0  0  0  0  0  0  0  # atno 6907 bound_to 6896
  152.1134  134.9255  160.0575 H   0  0  0  0  0  0  0  0  0  0  0  0  # atno 6908 bound_to 6896
  152.0489  133.3975  159.4405 H   0  0  0  0  0  0  0  0  0  0  0  0  # atno 6909 bound_to 6896
  146.2235  139.8679  142.8593 H   0  0  0  0  0  0  0  0  0  0  0  0  # atno 7974 bound_to 7965
  155.1584  140.3281  155.4416 H   0  0  0  0  0  0  0  0  0  0  0  0  # atno 8008 bound_to 7997
  156.2551  140.1964  156.6643 H   0  0  0  0  0  0  0  0  0  0  0  0  # atno 8009 bound_to 7997
  154.6422  140.0569  156.9846 H   0  0  0  0  0  0  0  0  0  0  0  0  # atno 8010 bound_to 7997
  140.6415  143.7763  150.7435 H   0  0  0  0  0  0  0  0  0  0  0  0  # atno 10167 bound_to 10162
  157.2690  131.0813  151.1613 H   0  0  0  0  0  0  0  0  0  0  0  0  # atno 10718 bound_to 10713
  154.8251  135.3343  154.6922 H   0  0  0  0  0  0  0  0  0  0  0  0  # atno 10763 bound_to 10752
  153.7549  135.6936  153.4942 H   0  0  0  0  0  0  0  0  0  0  0  0  # atno 10764 bound_to 10752
  153.2150  135.4469  155.0374 H   0  0  0  0  0  0  0  0  0  0  0  0  # atno 10765 bound_to 10752
  140.6574  133.9351  155.8416 H   0  0  0  0  0  0  0  0  0  0  0  0  # atno 11005 bound_to 11000
  145.2638  141.0086  143.3811 LP  0  0  0  0  0  0  0  0  0  0  0  0  # atno 17320 bound_to 7965
  144.9277  139.4335  143.6510 LP  0  0  0  0  0  0  0  0  0  0  0  0  # atno 17321 bound_to 7965
  140.1396  143.4453  152.2202 LP  0  0  0  0  0  0  0  0  0  0  0  0  # atno 17342 bound_to 10162
  139.5624  144.7414  151.4117 LP  0  0  0  0  0  0  0  0  0  0  0  0  # atno 17343 bound_to 10162
  157.3092  130.6881  149.6206 LP  0  0  0  0  0  0  0  0  0  0  0  0  # atno 17370 bound_to 10713
  155.9663  130.4369  150.5152 LP  0  0  0  0  0  0  0  0  0  0  0  0  # atno 17371 bound_to 10713
  141.0491  134.0511  157.3806 LP  0  0  0  0  0  0  0  0  0  0  0  0  # atno 17394 bound_to 11000
  139.9025  135.0169  156.7333 LP  0  0  0  0  0  0  0  0  0  0  0  0  # atno 17395 bound_to 11000

$$$$
