AV-unprocessed.smi:528|AV-procd|sdf|2836|dock3
  -GOLD-   2262023323D 1   1.00000     0.00000
 Structure written by MMmdl.
 45 47  0  0  0  0  0  0  0  0  1 V2000
  151.4018  140.0321  158.5654 C   0  0  0  0  0  0  0  0  0  0  0  0
  151.5926  141.2612  157.6610 C   0  0  1  0  0  0  0  0  0  0  0  0
  150.7326  141.1036  156.4889 N   0  0  0  0  0  0  0  0  0  0  0  0
  149.3908  141.0753  156.4904 C   0  0  0  0  0  0  0  0  0  0  0  0
  148.7067  141.2373  157.5016 O   0  0  0  0  0  0  0  0  0  0  0  0
  148.7220  140.8302  155.1317 C   0  0  0  0  0  0  0  0  0  0  0  0
  147.2519  140.8371  155.2144 N   0  0  0  0  0  0  0  0  0  0  0  0
  146.6087  142.0899  155.1680 C   0  0  0  0  0  0  0  0  0  0  0  0
  145.2716  142.2307  155.2503 C   0  0  0  0  0  0  0  0  0  0  0  0
  144.6009  143.5915  155.1431 C   0  0  0  0  0  0  0  0  0  0  0  0
  144.9427  144.3758  156.1655 F   0  0  0  0  0  0  0  0  0  0  0  0
  144.9762  144.1935  154.0153 F   0  0  0  0  0  0  0  0  0  0  0  0
  143.2725  143.4756  155.1302 F   0  0  0  0  0  0  0  0  0  0  0  0
  144.4994  141.0084  155.3584 C   0  0  0  0  0  0  0  0  0  0  0  0
  145.0982  139.8019  155.3974 C   0  0  0  0  0  0  0  0  0  0  0  0
  146.5549  139.6663  155.3296 C   0  0  0  0  0  0  0  0  0  0  0  0
  147.1139  138.5697  155.3724 O   0  0  0  0  0  0  0  0  0  0  0  0
  151.2560  142.5950  158.3753 C   0  0  2  0  0  0  0  0  0  0  0  0
  151.5596  143.8570  157.5265 C   0  0  0  0  0  0  0  0  0  0  0  0
  152.4432  144.7071  158.4551 C   0  0  1  0  0  0  0  0  0  0  0  0
  151.6009  145.2356  159.6302 C   0  0  0  0  0  0  0  0  0  0  0  0
  151.3756  143.9705  160.4789 C   0  0  0  0  0  0  0  0  0  0  0  0
  152.0835  142.8768  159.6554 C   0  0  2  0  0  0  0  0  0  0  0  0
  153.2947  143.6375  159.1246 C   0  0  0  0  0  0  0  0  0  0  0  0
  152.0815  140.0442  159.4164 H   0  0  0  0  0  0  0  0  0  0  0  0
  151.5974  139.1105  158.0158 H   0  0  0  0  0  0  0  0  0  0  0  0
  150.3838  139.9767  158.9524 H   0  0  0  0  0  0  0  0  0  0  0  0
  152.6396  141.2864  157.3552 H   0  0  0  0  0  0  0  0  0  0  0  0
  151.2009  140.9679  155.6048 H   0  0  0  0  0  0  0  0  0  0  0  0
  149.0785  141.5919  154.4374 H   0  0  0  0  0  0  0  0  0  0  0  0
  149.0632  139.8806  154.7146 H   0  0  0  0  0  0  0  0  0  0  0  0
  147.2744  142.9344  155.0643 H   0  0  0  0  0  0  0  0  0  0  0  0
  143.4222  141.0607  155.4156 H   0  0  0  0  0  0  0  0  0  0  0  0
  144.4914  138.9123  155.4825 H   0  0  0  0  0  0  0  0  0  0  0  0
  150.1942  142.5783  158.6272 H   0  0  0  0  0  0  0  0  0  0  0  0
  152.1177  143.6117  156.6221 H   0  0  0  0  0  0  0  0  0  0  0  0
  150.6525  144.3792  157.2202 H   0  0  0  0  0  0  0  0  0  0  0  0
  153.0035  145.4836  157.9337 H   0  0  0  0  0  0  0  0  0  0  0  0
  152.1515  145.9864  160.1983 H   0  0  0  0  0  0  0  0  0  0  0  0
  150.6651  145.6857  159.2966 H   0  0  0  0  0  0  0  0  0  0  0  0
  151.8435  144.0796  161.4581 H   0  0  0  0  0  0  0  0  0  0  0  0
  150.3180  143.7572  160.6389 H   0  0  0  0  0  0  0  0  0  0  0  0
  152.3250  141.9956  160.2481 H   0  0  0  0  0  0  0  0  0  0  0  0
  153.8997  143.0617  158.4223 H   0  0  0  0  0  0  0  0  0  0  0  0
  153.9396  144.0293  159.9132 H   0  0  0  0  0  0  0  0  0  0  0  0
  1  2  1  0  0  0  0
  1 25  1  0  0  0  0
  1 26  1  0  0  0  0
  1 27  1  0  0  0  0
  2  3  1  0  0  0  0
  2 18  1  0  0  0  0
  2 28  1  0  0  0  0
  3  4  1  0  0  0  0
  3 29  1  0  0  0  0
  4  5  2  0  0  0  0
  4  6  1  0  0  0  0
  6  7  1  0  0  0  0
  6 30  1  0  0  0  0
  6 31  1  0  0  0  0
  7 16  1  0  0  0  0
  7  8  1  0  0  0  0
  8  9  2  0  0  0  0
  8 32  1  0  0  0  0
  9 10  1  0  0  0  0
  9 14  1  0  0  0  0
 10 11  1  0  0  0  0
 10 12  1  0  0  0  0
 10 13  1  0  0  0  0
 14 15  2  0  0  0  0
 14 33  1  0  0  0  0
 15 16  1  0  0  0  0
 15 34  1  0  0  0  0
 16 17  2  0  0  0  0
 18 23  1  0  0  0  0
 18 19  1  0  0  0  0
 18 35  1  0  0  0  0
 19 20  1  0  0  0  0
 19 36  1  0  0  0  0
 19 37  1  0  0  0  0
 20 24  1  0  0  0  0
 20 21  1  0  0  0  0
 20 38  1  0  0  0  0
 21 22  1  0  0  0  0
 21 39  1  0  0  0  0
 21 40  1  0  0  0  0
 22 23  1  0  0  0  0
 22 41  1  0  0  0  0
 22 42  1  0  0  0  0
 23 24  1  0  0  0  0
 23 43  1  0  0  0  0
 24 44  1  0  0  0  0
 24 45  1  0  0  0  0
M  END
> <s_m_source_file>
AV-unprocessed.smi

> <i_m_source_file_index>
528

> <i_lp_mmshare_version>
43012

> <i_f3d_flags>
0

> <s_epik_input>
W0NIMl0xW0NIMl1bQ0BASF0oW0NIMl0yKVtDQEBIXShbQ0gyXVtDQEhdMTIpW0NASF0oW0NIM10pW05IXUMoPU8pW0NIMl1uM1tjSF1jKEMoRikoRilGKVtjSF1bY0hdYzM9Tw==

> <s_epik_cmdline>
J2VwaWtfcHl0aG9uJywgJy1waCcsICc3LjAnLCAnLXRuJywgJzgnLCAnLW1hJywgJzIwMCcsICctbWV0YWxfYmluZGluZycsICctaW1hZScsICc8aW5maWxlLm1hZT4nLCAnLW9tYWUnLCAnPG91dGZpbGUubWFlPic=

> <r_lp_tautomer_probability>
1

> <r_epik_Ionization_Penalty>
4.09479e-08

> <r_epik_Ionization_Penalty_Charging>
1.9321e-08

> <r_epik_Ionization_Penalty_Neutral>
2.16269e-08

> <r_epik_State_Penalty>
-0

> <r_epik_Charging_Adjusted_Penalty>
1.9321e-08

> <i_epik_Tot_Q>
0

> <i_epik_Tot_abs_Q>
0

> <r_epik_Metal_State_Penalty>
-0

> <b_epik_Metal_Only>
0

> <s_lp_Force_Field>
OPLS_2005

> <r_lp_Energy>
62.8614

> <b_lp_Chiralities_Consistent>
1

> <s_lp_Variant>
AV-unprocessed.smi:528-6

> <Gold.Version>
5.8.1

> <Gold.Id.Protein>
6NUR|6NUR_protein|mol2

> <Gold.PLP.Fitness>
44.4626

> <Gold.PLP.PLP>
-42.1728

> <Gold.PLP.part.hbond>
0.0000

> <Gold.PLP.part.metal>
0.0000

> <Gold.PLP.part.buried>
-6.6789

> <Gold.PLP.part.nonpolar>
-35.1649

> <Gold.PLP.part.repulsive>
0.1603

> <Gold.PLP.ligand.clash>
0.0000

> <Gold.PLP.ligand.torsion>
0.4071

> <Gold.PLP.Chemscore.Hbond>
0.0000

> <Gold.PLP.Chemscore.CHOScore>
0.9980

> <Gold.PLP.Chemscore.Metal>
0.0000

> <Gold.Chemscore.Hbonds>
donor molecule, donor type, donor heavy atom, donor atom, acceptor molecule, acceptor atom, score
      L1  C     8    32       P1  8028  1.00

> <Gold.PLP.Chemscore.Internal.Correction>
0.1101

> <Gold.Rescore>
     Score         DG    S(hbond)    S(metal)    S(lipo)     H(rot)  DE(clash)    DE(int)     intcor
     13.59     -14.91       0.00        0.00     118.10       1.71       0.09       1.24       ----

> <Gold.Chemscore.Fitness>
13.5855

> <Gold.Chemscore.DG>
-14.9138

> <Gold.Chemscore.ZeroCoef>
-5.4800

> <Gold.Chemscore.Hbond>
0.0000

> <Gold.Chemscore.Metal>
0.0000

> <Gold.Chemscore.Lipo>
118.1009

> <Gold.Chemscore.Internal_Hbond>
0.0000

> <Gold.Chemscore.DEClash>
0.0880

> <Gold.Chemscore.DEInternal>
1.2403

> <Gold.Chemscore.Rot>
1.7125

> <Gold.Chemscore.Internal.Correction>
   9.000000E+99

> <Gold.Chemscore.Hbond.Weighted>
-0.0000

> <Gold.Chemscore.Metal.Weighted>
-0.0000

> <Gold.Chemscore.Lipo.Weighted>
-13.8178

> <Gold.Chemscore.Internal_Hbond.Weighted>
0.0000

> <Gold.Chemscore.DEClash.Weighted>
0.0880

> <Gold.Chemscore.DEInternal.Weighted>
1.2403

> <Gold.Chemscore.Rot.Weighted>
4.3840

> <Gold.Chemscore.Internal.Correction.Weighted>
   9.000000E+99

> <Gold.Protein.RotatedTorsions>
[ 6907 6896 6895 6894 ] final  -86.03 input  -60.11 | X-H torsion
[ 7974 7965 7964 7962 ] final -162.80 input  175.53 | X-H torsion
[ 8008 7997 7996 7995 ] final  -17.27 input   59.86 | X-H torsion
[ 10167 10162 10161 10158 ] final   46.87 input  -65.29 | X-H torsion
[ 10718 10713 10712 10709 ] final   62.71 input   66.30 | X-H torsion
[ 10763 10752 10751 10750 ] final  -13.82 input  -60.55 | X-H torsion
[ 11005 11000 10999 10996 ] final -125.59 input  -57.11 | X-H torsion

> <Gold.Protein.ActiveResidues>
 VAL166  LYS551  ARG553  GLY616  TRP617  ASP618  TYR619  PRO620  LYS621  CYS622 
 ASP623  PHE694  ASN695  SER759  ASP760  ASP761  ALA762  ILE779  LEU786  VAL792 
 PHE793  MET794  SER795  GLU796  ALA797  LYS798  CYS799  TRP800  GLU811  SER814 

> <Gold.Protein.RotatedAtoms>
  150.6868  134.3113  159.4747 H   0  0  0  0  0  0  0  0  0  0  0  0  # atno 6907 bound_to 6896
  152.0998  134.9347  160.0579 H   0  0  0  0  0  0  0  0  0  0  0  0  # atno 6908 bound_to 6896
  152.0630  133.4036  159.4463 H   0  0  0  0  0  0  0  0  0  0  0  0  # atno 6909 bound_to 6896
  144.7346  140.3200  143.6172 H   0  0  0  0  0  0  0  0  0  0  0  0  # atno 7974 bound_to 7965
  154.4991  140.2147  155.9384 H   0  0  0  0  0  0  0  0  0  0  0  0  # atno 8008 bound_to 7997
  156.1410  140.3179  155.8463 H   0  0  0  0  0  0  0  0  0  0  0  0  # atno 8009 bound_to 7997
  155.4120  140.0491  157.3022 H   0  0  0  0  0  0  0  0  0  0  0  0  # atno 8010 bound_to 7997
  140.3095  144.2838  150.6202 H   0  0  0  0  0  0  0  0  0  0  0  0  # atno 10167 bound_to 10162
  157.5920  130.9065  149.9622 H   0  0  0  0  0  0  0  0  0  0  0  0  # atno 10718 bound_to 10713
  153.5191  135.7016  153.5741 H   0  0  0  0  0  0  0  0  0  0  0  0  # atno 10763 bound_to 10752
  153.3798  135.3923  155.1848 H   0  0  0  0  0  0  0  0  0  0  0  0  # atno 10764 bound_to 10752
  154.8696  135.3832  154.4678 H   0  0  0  0  0  0  0  0  0  0  0  0  # atno 10765 bound_to 10752
  140.9750  134.0753  157.3829 H   0  0  0  0  0  0  0  0  0  0  0  0  # atno 11005 bound_to 11000
  145.7578  139.1814  143.2284 LP  0  0  0  0  0  0  0  0  0  0  0  0  # atno 17320 bound_to 7965
  146.1010  140.7543  142.9549 LP  0  0  0  0  0  0  0  0  0  0  0  0  # atno 17321 bound_to 7965
  140.5581  143.2196  151.7813 LP  0  0  0  0  0  0  0  0  0  0  0  0  # atno 17342 bound_to 10162
  139.4897  144.4386  151.9790 LP  0  0  0  0  0  0  0  0  0  0  0  0  # atno 17343 bound_to 10162
  156.0976  130.3658  150.0277 LP  0  0  0  0  0  0  0  0  0  0  0  0  # atno 17370 bound_to 10713
  156.8398  130.9422  151.3632 LP  0  0  0  0  0  0  0  0  0  0  0  0  # atno 17371 bound_to 10713
  139.8927  135.0126  156.6858 LP  0  0  0  0  0  0  0  0  0  0  0  0  # atno 17394 bound_to 11000
  140.7273  133.9089  155.8187 LP  0  0  0  0  0  0  0  0  0  0  0  0  # atno 17395 bound_to 11000

$$$$
