AV-unprocessed.smi:2453|AV-procd|sdf|9688|dock9
  -GOLD-   2272013323D 1   1.00000     0.00000
 Structure written by MMmdl.
 40 41  0  0  0  0  0  0  0  0  1 V2000
  151.9425  144.9148  157.3590 C   0  0  0  0  0  0  0  0  0  0  0  0
  152.1750  143.7006  158.2414 C   0  0  0  0  0  0  0  0  0  0  0  0
  153.3307  143.6284  159.0485 C   0  0  0  0  0  0  0  0  0  0  0  0
  153.6125  142.5862  159.8571 N   0  0  0  0  0  0  0  0  0  0  0  0
  152.7388  141.5595  159.8859 C   0  0  0  0  0  0  0  0  0  0  0  0
  151.5556  141.5259  159.1227 C   0  0  0  0  0  0  0  0  0  0  0  0
  151.2525  142.6269  158.2854 C   0  0  0  0  0  0  0  0  0  0  0  0
  150.0960  142.6837  157.4570 N   0  0  0  0  0  0  0  0  0  0  0  0
  149.1104  141.7801  157.3197 C   0  0  0  0  0  0  0  0  0  0  0  0
  149.0173  140.7260  157.9482 O   0  0  0  0  0  0  0  0  0  0  0  0
  148.2158  142.1850  156.4065 N   0  0  0  0  0  0  0  0  0  0  0  0
  147.0202  141.4541  155.9803 C   0  0  1  0  0  0  0  0  0  0  0  0
  145.7538  142.2481  156.3591 C   0  0  0  0  0  0  0  0  0  0  0  0
  145.5968  143.5285  155.5210 C   0  0  0  0  0  0  0  0  0  0  0  0
  145.6286  143.2156  154.0178 C   0  0  0  0  0  0  0  0  0  0  0  0
  146.9014  142.4436  153.6335 C   0  0  0  0  0  0  0  0  0  0  0  0
  147.0547  141.1476  154.4586 C   0  0  1  0  0  0  0  0  0  0  0  0
  148.3006  140.3508  154.0163 C   0  0  0  0  0  0  0  0  0  0  0  0
  149.3972  141.2143  153.8013 O   0  0  0  0  0  0  0  0  0  0  0  0
  152.7517  145.6388  157.4594 H   0  0  0  0  0  0  0  0  0  0  0  0
  151.0110  145.4107  157.6329 H   0  0  0  0  0  0  0  0  0  0  0  0
  151.8830  144.6192  156.3113 H   0  0  0  0  0  0  0  0  0  0  0  0
  154.0549  144.4297  159.0459 H   0  0  0  0  0  0  0  0  0  0  0  0
  152.9938  140.7332  160.5329 H   0  0  0  0  0  0  0  0  0  0  0  0
  150.9187  140.6574  159.1857 H   0  0  0  0  0  0  0  0  0  0  0  0
  149.9828  143.5416  156.9376 H   0  0  0  0  0  0  0  0  0  0  0  0
  148.3793  143.0716  155.9528 H   0  0  0  0  0  0  0  0  0  0  0  0
  146.9686  140.5022  156.5114 H   0  0  0  0  0  0  0  0  0  0  0  0
  144.8786  141.6152  156.2076 H   0  0  0  0  0  0  0  0  0  0  0  0
  145.7666  142.4951  157.4214 H   0  0  0  0  0  0  0  0  0  0  0  0
  144.6604  144.0253  155.7764 H   0  0  0  0  0  0  0  0  0  0  0  0
  146.3933  144.2321  155.7657 H   0  0  0  0  0  0  0  0  0  0  0  0
  144.7502  142.6277  153.7487 H   0  0  0  0  0  0  0  0  0  0  0  0
  145.5679  144.1413  153.4447 H   0  0  0  0  0  0  0  0  0  0  0  0
  146.8693  142.2057  152.5698 H   0  0  0  0  0  0  0  0  0  0  0  0
  147.7735  143.0829  153.7763 H   0  0  0  0  0  0  0  0  0  0  0  0
  146.1850  140.5276  154.2333 H   0  0  0  0  0  0  0  0  0  0  0  0
  148.5838  139.6342  154.7878 H   0  0  0  0  0  0  0  0  0  0  0  0
  148.1077  139.7779  153.1091 H   0  0  0  0  0  0  0  0  0  0  0  0
  149.4640  141.8059  154.5354 H   0  0  0  0  0  0  0  0  0  0  0  0
  1  2  1  0  0  0  0
  1 20  1  0  0  0  0
  1 21  1  0  0  0  0
  1 22  1  0  0  0  0
  2  7  1  0  0  0  0
  2  3  2  0  0  0  0
  3  4  1  0  0  0  0
  3 23  1  0  0  0  0
  4  5  2  0  0  0  0
  5  6  1  0  0  0  0
  5 24  1  0  0  0  0
  6  7  2  0  0  0  0
  6 25  1  0  0  0  0
  7  8  1  0  0  0  0
  8  9  1  0  0  0  0
  8 26  1  0  0  0  0
  9 10  2  0  0  0  0
  9 11  1  0  0  0  0
 11 12  1  0  0  0  0
 11 27  1  0  0  0  0
 12 17  1  0  0  0  0
 12 13  1  0  0  0  0
 12 28  1  0  0  0  0
 13 14  1  0  0  0  0
 13 29  1  0  0  0  0
 13 30  1  0  0  0  0
 14 15  1  0  0  0  0
 14 31  1  0  0  0  0
 14 32  1  0  0  0  0
 15 16  1  0  0  0  0
 15 33  1  0  0  0  0
 15 34  1  0  0  0  0
 16 17  1  0  0  0  0
 16 35  1  0  0  0  0
 16 36  1  0  0  0  0
 17 18  1  0  0  0  0
 17 37  1  0  0  0  0
 18 19  1  0  0  0  0
 18 38  1  0  0  0  0
 18 39  1  0  0  0  0
 19 40  1  0  0  0  0
M  END
> <s_m_source_file>
AV-unprocessed.smi

> <i_m_source_file_index>
2453

> <i_lp_mmshare_version>
43012

> <i_f3d_flags>
0

> <s_epik_input>
W0NIM11jMVtjSF1uW2NIXVtjSF1jMVtOSF1DKD1PKVtOSF1bQ0BASF0yW0NIMl1bQ0gyXVtDSDJdW0NIMl1bQ0BIXTJbQ0gyXVtPSF0=

> <s_epik_cmdline>
J2VwaWtfcHl0aG9uJywgJy1waCcsICc3LjAnLCAnLXRuJywgJzgnLCAnLW1hJywgJzIwMCcsICctbWV0YWxfYmluZGluZycsICctaW1hZScsICc8aW5maWxlLm1hZT4nLCAnLW9tYWUnLCAnPG91dGZpbGUubWFlPic=

> <r_epik_Ionization_Penalty>
0.210691

> <r_epik_Ionization_Penalty_Charging>
0

> <r_epik_Ionization_Penalty_Neutral>
0.210691

> <r_epik_State_Penalty>
0.200732

> <r_epik_Charging_Adjusted_Penalty>
0.200732

> <i_epik_Tot_Q>
0

> <i_epik_Tot_abs_Q>
0

> <r_epik_Metal_State_Penalty>
0.147519

> <b_epik_Metal_Only>
0

> <s_lp_Force_Field>
OPLS_2005

> <r_lp_Energy>
17.3761

> <b_lp_Chiralities_Consistent>
1

> <s_lp_Variant>
AV-unprocessed.smi:2453-2

> <Gold.Version>
5.8.1

> <Gold.Id.Protein>
6NUR|6NUR_protein|mol2

> <Gold.PLP.Fitness>
46.0281

> <Gold.PLP.PLP>
-37.6214

> <Gold.PLP.part.hbond>
-5.0000

> <Gold.PLP.part.metal>
0.0000

> <Gold.PLP.part.buried>
-6.2213

> <Gold.PLP.part.nonpolar>
-25.4197

> <Gold.PLP.part.repulsive>
0.0541

> <Gold.PLP.ligand.clash>
0.0000

> <Gold.PLP.ligand.torsion>
0.2095

> <Gold.PLP.Chemscore.Hbond>
2.9361

> <Gold.PLP.Chemscore.CHOScore>
0.0000

> <Gold.PLP.Chemscore.Metal>
0.0000

> <Gold.Chemscore.Hbonds>
donor molecule, donor type, donor heavy atom, donor atom, acceptor molecule, acceptor atom, score
      L1  H     8    26       P1  8028  0.96
      L1  H    11    27       P1  8028  1.00
      P1  H  7989  7998       L1    19  0.12
      P1  H  8011  8017       L1    19  0.88

> <Gold.PLP.Chemscore.Internal.Correction>
0.0174

> <Gold.Rescore>
     Score         DG    S(hbond)    S(metal)    S(lipo)     H(rot)  DE(clash)    DE(int)     intcor
     17.28     -21.81       2.59        0.00     104.02       1.75       1.95       2.59       ----

> <Gold.Chemscore.Fitness>
17.2765

> <Gold.Chemscore.DG>
-21.8108

> <Gold.Chemscore.ZeroCoef>
-5.4800

> <Gold.Chemscore.Hbond>
2.5865

> <Gold.Chemscore.Metal>
0.0000

> <Gold.Chemscore.Lipo>
104.0187

> <Gold.Chemscore.Internal_Hbond>
0.0000

> <Gold.Chemscore.DEClash>
1.9474

> <Gold.Chemscore.DEInternal>
2.5869

> <Gold.Chemscore.Rot>
1.7493

> <Gold.Chemscore.Internal.Correction>
   9.000000E+99

> <Gold.Chemscore.Hbonds>
donor molecule, donor type, donor heavy atom, donor atom, acceptor molecule, acceptor atom, score
      L1  H     8    26       P1  8028  0.87
      L1  H    11    27       P1  8028  0.92
      P1  H  7989  7998       L1    19  0.02
      P1  H  8011  8017       L1    19  0.26

> <Gold.Chemscore.Hbond.Weighted>
-8.6388

> <Gold.Chemscore.Metal.Weighted>
-0.0000

> <Gold.Chemscore.Lipo.Weighted>
-12.1702

> <Gold.Chemscore.Internal_Hbond.Weighted>
0.0000

> <Gold.Chemscore.DEClash.Weighted>
1.9474

> <Gold.Chemscore.DEInternal.Weighted>
2.5869

> <Gold.Chemscore.Rot.Weighted>
4.4782

> <Gold.Chemscore.Internal.Correction.Weighted>
   9.000000E+99

> <Gold.Protein.RotatedTorsions>
[ 6907 6896 6895 6894 ] final   90.20 input  -60.11 | X-H torsion
[ 7974 7965 7964 7962 ] final   -2.79 input  175.53 | X-H torsion
[ 8008 7997 7996 7995 ] final   77.00 input   59.86 | X-H torsion
[ 10167 10162 10161 10158 ] final   55.59 input  -65.29 | X-H torsion
[ 10718 10713 10712 10709 ] final    0.10 input   66.30 | X-H torsion
[ 10763 10752 10751 10750 ] final   56.65 input  -60.55 | X-H torsion
[ 11005 11000 10999 10996 ] final  -73.15 input  -57.11 | X-H torsion

> <Gold.Protein.ActiveResidues>
 VAL166  LYS551  ARG553  GLY616  TRP617  ASP618  TYR619  PRO620  LYS621  CYS622 
 ASP623  PHE694  ASN695  SER759  ASP760  ASP761  ALA762  ILE779  LEU786  VAL792 
 PHE793  MET794  SER795  GLU796  ALA797  LYS798  CYS799  TRP800  GLU811  SER814 

> <Gold.Protein.RotatedAtoms>
  152.5443  134.1848  159.8649 H   0  0  0  0  0  0  0  0  0  0  0  0  # atno 6907 bound_to 6896
  151.1848  133.4696  159.2602 H   0  0  0  0  0  0  0  0  0  0  0  0  # atno 6908 bound_to 6896
  151.1142  135.0055  159.8563 H   0  0  0  0  0  0  0  0  0  0  0  0  # atno 6909 bound_to 6896
  146.2399  140.1624  142.8332 H   0  0  0  0  0  0  0  0  0  0  0  0  # atno 7974 bound_to 7965
  155.8353  140.3464  155.5598 H   0  0  0  0  0  0  0  0  0  0  0  0  # atno 8008 bound_to 7997
  155.8198  140.0911  157.1875 H   0  0  0  0  0  0  0  0  0  0  0  0  # atno 8009 bound_to 7997
  154.4004  140.1432  156.3474 H   0  0  0  0  0  0  0  0  0  0  0  0  # atno 8010 bound_to 7997
  140.2179  144.3820  150.6462 H   0  0  0  0  0  0  0  0  0  0  0  0  # atno 10167 bound_to 10162
  156.8283  130.5480  149.5689 H   0  0  0  0  0  0  0  0  0  0  0  0  # atno 10718 bound_to 10713
  152.9836  135.5669  154.5264 H   0  0  0  0  0  0  0  0  0  0  0  0  # atno 10763 bound_to 10752
  154.4743  135.2786  155.1621 H   0  0  0  0  0  0  0  0  0  0  0  0  # atno 10764 bound_to 10752
  154.3156  135.6279  153.5538 H   0  0  0  0  0  0  0  0  0  0  0  0  # atno 10765 bound_to 10752
  141.1619  133.6869  156.7168 H   0  0  0  0  0  0  0  0  0  0  0  0  # atno 11005 bound_to 11000
  145.0078  140.8688  143.5242 LP  0  0  0  0  0  0  0  0  0  0  0  0  # atno 17320 bound_to 7965
  145.1653  139.2435  143.5370 LP  0  0  0  0  0  0  0  0  0  0  0  0  # atno 17321 bound_to 7965
  140.6277  143.2183  151.6562 LP  0  0  0  0  0  0  0  0  0  0  0  0  # atno 17342 bound_to 10162
  139.5155  144.3376  152.0770 LP  0  0  0  0  0  0  0  0  0  0  0  0  # atno 17343 bound_to 10162
  156.0949  130.5924  150.9796 LP  0  0  0  0  0  0  0  0  0  0  0  0  # atno 17370 bound_to 10713
  157.6420  131.0909  150.8231 LP  0  0  0  0  0  0  0  0  0  0  0  0  # atno 17371 bound_to 10713
  140.2845  134.8290  157.3963 LP  0  0  0  0  0  0  0  0  0  0  0  0  # atno 17394 bound_to 11000
  140.1402  134.4981  155.8037 LP  0  0  0  0  0  0  0  0  0  0  0  0  # atno 17395 bound_to 11000

$$$$
