AV-unprocessed.smi:788|AV-procd|sdf|3731|dock2
  -GOLD-   22720 1163D 1   1.00000     0.00000
 Structure written by MMmdl.
 35 36  0  0  0  0  0  0  0  0  1 V2000
  151.1272  139.1884  154.7586 C   0  0  0  0  0  0  0  0  0  0  0  0
  149.7547  139.6742  154.2577 C   0  0  2  0  0  0  0  0  0  0  0  0
  149.4946  141.1201  154.7240 C   0  0  0  0  0  0  0  0  0  0  0  0
  148.1351  141.6446  154.2404 C   0  0  0  0  0  0  0  0  0  0  0  0
  146.9931  140.7181  154.6852 C   0  0  0  0  0  0  0  0  0  0  0  0
  147.2098  139.2627  154.2259 C   0  0  1  0  0  0  0  0  0  0  0  0
  146.9604  139.0949  152.7120 C   0  0  0  0  0  0  0  0  0  0  0  0
  148.5951  138.7449  154.7012 C   0  0  1  0  0  0  0  0  0  0  0  0
  148.8323  137.3777  154.2414 N   0  0  0  0  0  0  0  0  0  0  0  0
  149.1467  136.3272  155.0166 C   0  0  0  0  0  0  0  0  0  0  0  0
  149.2752  136.4162  156.2362 O   0  0  0  0  0  0  0  0  0  0  0  0
  149.3190  135.1465  154.3844 N   0  0  0  0  0  0  0  0  0  0  0  0
  149.6508  133.8473  154.8699 C   0  0  0  0  0  0  0  0  0  0  0  0
  150.2018  133.5964  156.0692 N   0  0  0  0  0  0  0  0  0  0  0  0
  150.4194  132.2405  156.2725 N   0  0  0  0  0  0  0  0  0  0  0  0
  150.0282  131.5189  155.2187 C   0  0  0  0  0  0  0  0  0  0  0  0
  149.3547  132.4268  153.8767 S   0  0  0  0  0  0  0  0  0  0  0  0
  151.1490  139.1184  155.8466 H   0  0  0  0  0  0  0  0  0  0  0  0
  151.9189  139.8738  154.4549 H   0  0  0  0  0  0  0  0  0  0  0  0
  151.3808  138.2075  154.3561 H   0  0  0  0  0  0  0  0  0  0  0  0
  149.7962  139.6786  153.1678 H   0  0  0  0  0  0  0  0  0  0  0  0
  149.5326  141.1667  155.8133 H   0  0  0  0  0  0  0  0  0  0  0  0
  150.2857  141.7771  154.3612 H   0  0  0  0  0  0  0  0  0  0  0  0
  147.9682  142.6487  154.6309 H   0  0  0  0  0  0  0  0  0  0  0  0
  148.1408  141.7371  153.1541 H   0  0  0  0  0  0  0  0  0  0  0  0
  146.9221  140.7418  155.7734 H   0  0  0  0  0  0  0  0  0  0  0  0
  146.0396  141.0950  154.3133 H   0  0  0  0  0  0  0  0  0  0  0  0
  146.4481  138.6617  154.7249 H   0  0  0  0  0  0  0  0  0  0  0  0
  147.6970  139.6296  152.1134 H   0  0  0  0  0  0  0  0  0  0  0  0
  145.9761  139.4741  152.4366 H   0  0  0  0  0  0  0  0  0  0  0  0
  146.9919  138.0468  152.4136 H   0  0  0  0  0  0  0  0  0  0  0  0
  148.5919  138.7379  155.7932 H   0  0  0  0  0  0  0  0  0  0  0  0
  148.7461  137.2159  153.2479 H   0  0  0  0  0  0  0  0  0  0  0  0
  149.2033  135.1948  153.3826 H   0  0  0  0  0  0  0  0  0  0  0  0
  150.1365  130.4445  155.2313 H   0  0  0  0  0  0  0  0  0  0  0  0
  1  2  1  0  0  0  0
  1 18  1  0  0  0  0
  1 19  1  0  0  0  0
  1 20  1  0  0  0  0
  2  8  1  0  0  0  0
  2  3  1  0  0  0  0
  2 21  1  0  0  0  0
  3  4  1  0  0  0  0
  3 22  1  0  0  0  0
  3 23  1  0  0  0  0
  4  5  1  0  0  0  0
  4 24  1  0  0  0  0
  4 25  1  0  0  0  0
  5  6  1  0  0  0  0
  5 26  1  0  0  0  0
  5 27  1  0  0  0  0
  6  7  1  0  0  0  0
  6  8  1  0  0  0  0
  6 28  1  0  0  0  0
  7 29  1  0  0  0  0
  7 30  1  0  0  0  0
  7 31  1  0  0  0  0
  8  9  1  0  0  0  0
  8 32  1  0  0  0  0
  9 10  1  0  0  0  0
  9 33  1  0  0  0  0
 10 11  2  0  0  0  0
 10 12  1  0  0  0  0
 12 13  1  0  0  0  0
 12 34  1  0  0  0  0
 13 17  1  0  0  0  0
 13 14  2  0  0  0  0
 14 15  1  0  0  0  0
 15 16  2  0  0  0  0
 16 17  1  0  0  0  0
 16 35  1  0  0  0  0
M  END
> <s_m_source_file>
AV-unprocessed.smi

> <i_m_source_file_index>
788

> <i_lp_mmshare_version>
43012

> <i_f3d_flags>
0

> <s_epik_input>
W0NIM11bQ0BASF0xW0NIMl1bQ0gyXVtDSDJdW0NAQEhdKFtDSDNdKVtDQEhdMVtOSF1DKD1PKVtOSF1jMm5uW2NIXXMy

> <s_epik_cmdline>
J2VwaWtfcHl0aG9uJywgJy1waCcsICc3LjAnLCAnLXRuJywgJzgnLCAnLW1hJywgJzIwMCcsICctbWV0YWxfYmluZGluZycsICctaW1hZScsICc8aW5maWxlLm1hZT4nLCAnLW9tYWUnLCAnPG91dGZpbGUubWFlPic=

> <r_lp_tautomer_probability>
1

> <r_epik_Ionization_Penalty>
0.000304078

> <r_epik_Ionization_Penalty_Charging>
0

> <r_epik_Ionization_Penalty_Neutral>
0.000304078

> <r_epik_State_Penalty>
-0

> <r_epik_Charging_Adjusted_Penalty>
0

> <i_epik_Tot_Q>
0

> <i_epik_Tot_abs_Q>
0

> <r_epik_Metal_State_Penalty>
0.164801

> <b_epik_Metal_Only>
0

> <s_lp_Force_Field>
OPLS_2005

> <r_lp_Energy>
15.5702

> <b_lp_Chiralities_Consistent>
1

> <s_lp_Variant>
AV-unprocessed.smi:788-1

> <Gold.Version>
5.8.1

> <Gold.Id.Protein>
6NUR|6NUR_protein|mol2

> <Gold.PLP.Fitness>
33.3644

> <Gold.PLP.PLP>
-27.6457

> <Gold.PLP.part.hbond>
-2.0000

> <Gold.PLP.part.metal>
0.0000

> <Gold.PLP.part.buried>
0.2235

> <Gold.PLP.part.nonpolar>
-24.9945

> <Gold.PLP.part.repulsive>
0.0498

> <Gold.PLP.ligand.clash>
0.0000

> <Gold.PLP.ligand.torsion>
0.1359

> <Gold.PLP.Chemscore.Hbond>
1.9920

> <Gold.PLP.Chemscore.CHOScore>
0.0000

> <Gold.PLP.Chemscore.Metal>
0.0000

> <Gold.Chemscore.Hbonds>
donor molecule, donor type, donor heavy atom, donor atom, acceptor molecule, acceptor atom, score
      L1  H     9    33       P1  7948  1.00
      L1  H    12    34       P1  7948  0.94

> <Gold.PLP.Chemscore.Internal.Correction>
0.0145

> <Gold.Rescore>
     Score         DG    S(hbond)    S(metal)    S(lipo)     H(rot)  DE(clash)    DE(int)     intcor
     14.23     -15.48       1.83        0.00      55.06       1.00       0.03       1.22       ----

> <Gold.Chemscore.Fitness>
14.2315

> <Gold.Chemscore.DG>
-15.4817

> <Gold.Chemscore.ZeroCoef>
-5.4800

> <Gold.Chemscore.Hbond>
1.8323

> <Gold.Chemscore.Metal>
0.0000

> <Gold.Chemscore.Lipo>
55.0586

> <Gold.Chemscore.Internal_Hbond>
0.0000

> <Gold.Chemscore.DEClash>
0.0295

> <Gold.Chemscore.DEInternal>
1.2207

> <Gold.Chemscore.Rot>
1.0000

> <Gold.Chemscore.Internal.Correction>
   9.000000E+99

> <Gold.Chemscore.Hbonds>
donor molecule, donor type, donor heavy atom, donor atom, acceptor molecule, acceptor atom, score
      L1  H     9    33       P1  7948  0.95
      L1  H    12    34       P1  7948  0.20

> <Gold.Chemscore.Hbond.Weighted>
-6.1199

> <Gold.Chemscore.Metal.Weighted>
-0.0000

> <Gold.Chemscore.Lipo.Weighted>
-6.4419

> <Gold.Chemscore.Internal_Hbond.Weighted>
0.0000

> <Gold.Chemscore.DEClash.Weighted>
0.0295

> <Gold.Chemscore.DEInternal.Weighted>
1.2207

> <Gold.Chemscore.Rot.Weighted>
2.5600

> <Gold.Chemscore.Internal.Correction.Weighted>
   9.000000E+99

> <Gold.Protein.RotatedTorsions>
[ 6907 6896 6895 6894 ] final -173.56 input  -60.11 | X-H torsion
[ 7974 7965 7964 7962 ] final -118.71 input  175.53 | X-H torsion
[ 8008 7997 7996 7995 ] final  -46.51 input   59.86 | X-H torsion
[ 10167 10162 10161 10158 ] final -115.98 input  -65.29 | X-H torsion
[ 10718 10713 10712 10709 ] final    8.38 input   66.30 | X-H torsion
[ 10763 10752 10751 10750 ] final  -54.05 input  -60.55 | X-H torsion
[ 11005 11000 10999 10996 ] final  142.15 input  -57.11 | X-H torsion

> <Gold.Protein.ActiveResidues>
 VAL166  LYS551  ARG553  GLY616  TRP617  ASP618  TYR619  PRO620  LYS621  CYS622 
 ASP623  PHE694  ASN695  SER759  ASP760  ASP761  ALA762  ILE779  LEU786  VAL792 
 PHE793  MET794  SER795  GLU796  ALA797  LYS798  CYS799  TRP800  GLU811  SER814 

> <Gold.Protein.RotatedAtoms>
  151.5582  133.3407  159.2965 H   0  0  0  0  0  0  0  0  0  0  0  0  # atno 6907 bound_to 6896
  150.8438  134.7742  159.6965 H   0  0  0  0  0  0  0  0  0  0  0  0  # atno 6908 bound_to 6896
  152.4500  134.5421  159.9894 H   0  0  0  0  0  0  0  0  0  0  0  0  # atno 6909 bound_to 6896
  145.0707  140.8357  143.4097 H   0  0  0  0  0  0  0  0  0  0  0  0  # atno 7974 bound_to 7965
  154.4008  140.1369  156.4024 H   0  0  0  0  0  0  0  0  0  0  0  0  # atno 8008 bound_to 7997
  155.7812  140.3481  155.5278 H   0  0  0  0  0  0  0  0  0  0  0  0  # atno 8009 bound_to 7997
  155.8672  140.0966  157.1565 H   0  0  0  0  0  0  0  0  0  0  0  0  # atno 8010 bound_to 7997
  140.0842  143.4759  152.1908 H   0  0  0  0  0  0  0  0  0  0  0  0  # atno 10167 bound_to 10162
  156.9507  130.5896  149.5656 H   0  0  0  0  0  0  0  0  0  0  0  0  # atno 10718 bound_to 10713
  154.1686  135.6463  153.5003 H   0  0  0  0  0  0  0  0  0  0  0  0  # atno 10763 bound_to 10752
  153.0090  135.5378  154.6636 H   0  0  0  0  0  0  0  0  0  0  0  0  # atno 10764 bound_to 10752
  154.5969  135.2940  155.0548 H   0  0  0  0  0  0  0  0  0  0  0  0  # atno 10765 bound_to 10752
  140.0455  134.9283  157.0922 H   0  0  0  0  0  0  0  0  0  0  0  0  # atno 11005 bound_to 11000
  145.1296  139.2641  143.5546 LP  0  0  0  0  0  0  0  0  0  0  0  0  # atno 17320 bound_to 7965
  146.3528  140.0943  142.8611 LP  0  0  0  0  0  0  0  0  0  0  0  0  # atno 17321 bound_to 7965
  139.5762  144.7488  151.3760 LP  0  0  0  0  0  0  0  0  0  0  0  0  # atno 17342 bound_to 10162
  140.7062  143.7508  150.7486 LP  0  0  0  0  0  0  0  0  0  0  0  0  # atno 17343 bound_to 10162
  156.0364  130.5451  150.8663 LP  0  0  0  0  0  0  0  0  0  0  0  0  # atno 17370 bound_to 10713
  157.5724  131.0946  150.9398 LP  0  0  0  0  0  0  0  0  0  0  0  0  # atno 17371 bound_to 10713
  140.4000  134.2092  155.7164 LP  0  0  0  0  0  0  0  0  0  0  0  0  # atno 17394 bound_to 11000
  141.1905  133.8216  157.0917 LP  0  0  0  0  0  0  0  0  0  0  0  0  # atno 17395 bound_to 11000

$$$$
