AV-unprocessed.smi:153|AV-procd|sdf|1250|dock10
  -GOLD-   2262018483D 1   1.00000     0.00000
 Structure written by MMmdl.
 60 63  0  0  0  0  0  0  0  0  2 V2000
  152.5815  142.4288  161.5418 C   0  0  0  0  0  0  0  0  0  0  0  0
  152.8595  143.4196  160.3977 C   0  0  2  0  0  0  0  0  0  0  0  0
  152.4124  144.6803  160.9001 O   0  0  0  0  0  0  0  0  0  0  0  0
  151.2587  145.1362  160.2008 C   0  0  0  0  0  0  0  0  0  0  0  0
  150.7710  143.9436  159.3847 C   0  0  0  0  0  0  0  0  0  0  0  0
  152.0565  143.1870  159.0966 C   0  0  1  0  0  0  0  0  0  0  0  0
  152.7400  143.8563  158.0496 O   0  0  0  0  0  0  0  0  0  0  0  0
  151.8124  141.7155  158.6581 C   0  0  0  0  0  0  0  0  0  0  0  0
  150.9845  141.5625  157.4661 N   0  0  0  0  0  0  0  0  0  0  0  0
  151.3614  141.0515  156.2457 C   0  0  0  0  0  0  0  0  0  0  0  0
  150.4196  141.0120  155.3448 N   0  0  0  0  0  0  0  0  0  0  0  0
  149.2952  141.5205  155.9864 C   0  0  0  0  0  0  0  0  0  0  0  0
  147.9344  141.7465  155.6078 C   0  0  0  0  0  0  0  0  0  0  0  0
  147.4052  141.4806  154.3780 N   0  0  0  0  0  0  0  0  0  0  0  0
  146.5125  142.4421  153.7428 C   0  0  0  0  0  0  0  0  0  0  0  0
  147.9412  140.3944  153.5518 C   0  0  0  0  0  0  0  0  0  0  0  0
  147.6293  138.9968  154.1247 C   0  0  2  0  0  0  0  0  0  0  0  0
  148.6294  138.1196  153.6463 O   0  0  0  0  0  0  0  0  0  0  0  0
  146.2517  138.4542  153.6836 C   0  0  0  0  0  0  0  0  0  0  0  0
  146.2989  137.0337  153.2560 N   0  3  0  0  0  0  0  0  0  0  0  0
  146.1846  136.0731  154.3821 C   0  0  0  0  0  0  0  0  0  0  0  0
  146.2700  134.6263  153.8667 C   0  0  0  0  0  0  0  0  0  0  0  0
  145.2582  134.4051  152.8923 O   0  0  0  0  0  0  0  0  0  0  0  0
  145.4085  135.2597  151.7658 C   0  0  0  0  0  0  0  0  0  0  0  0
  145.2922  136.7267  152.2123 C   0  0  0  0  0  0  0  0  0  0  0  0
  147.1104  142.2496  156.5656 N   0  0  0  0  0  0  0  0  0  0  0  0
  147.5626  142.5131  157.7935 C   0  0  0  0  0  0  0  0  0  0  0  0
  148.7920  142.3498  158.2792 N   0  0  0  0  0  0  0  0  0  0  0  0
  149.6360  141.8529  157.3309 C   0  0  0  0  0  0  0  0  0  0  0  0
  152.9325  141.4269  161.3119 H   0  0  0  0  0  0  0  0  0  0  0  0
  151.5176  142.3669  161.7708 H   0  0  0  0  0  0  0  0  0  0  0  0
  153.0938  142.7428  162.4515 H   0  0  0  0  0  0  0  0  0  0  0  0
  153.9335  143.4496  160.2071 H   0  0  0  0  0  0  0  0  0  0  0  0
  150.4981  145.5095  160.8866 H   0  0  0  0  0  0  0  0  0  0  0  0
  151.5517  145.9557  159.5434 H   0  0  0  0  0  0  0  0  0  0  0  0
  150.1035  143.3322  159.9936 H   0  0  0  0  0  0  0  0  0  0  0  0
  150.2250  144.2372  158.4873 H   0  0  0  0  0  0  0  0  0  0  0  0
  153.6286  144.0201  158.3267 H   0  0  0  0  0  0  0  0  0  0  0  0
  152.7544  141.1897  158.5009 H   0  0  0  0  0  0  0  0  0  0  0  0
  151.3149  141.1800  159.4675 H   0  0  0  0  0  0  0  0  0  0  0  0
  152.3555  140.6905  156.0343 H   0  0  0  0  0  0  0  0  0  0  0  0
  145.7099  142.7342  154.4207 H   0  0  0  0  0  0  0  0  0  0  0  0
  146.0489  142.0141  152.8535 H   0  0  0  0  0  0  0  0  0  0  0  0
  147.0603  143.3332  153.4358 H   0  0  0  0  0  0  0  0  0  0  0  0
  147.6177  140.4633  152.5130 H   0  0  0  0  0  0  0  0  0  0  0  0
  149.0232  140.5273  153.5148 H   0  0  0  0  0  0  0  0  0  0  0  0
  147.7108  139.0339  155.2105 H   0  0  0  0  0  0  0  0  0  0  0  0
  148.2338  137.4926  153.0608 H   0  0  0  0  0  0  0  0  0  0  0  0
  145.5203  138.5386  154.4865 H   0  0  0  0  0  0  0  0  0  0  0  0
  145.8775  139.0770  152.8692 H   0  0  0  0  0  0  0  0  0  0  0  0
  146.9747  136.2424  155.1128 H   0  0  0  0  0  0  0  0  0  0  0  0
  145.2356  136.2254  154.8992 H   0  0  0  0  0  0  0  0  0  0  0  0
  147.2536  134.4207  153.4416 H   0  0  0  0  0  0  0  0  0  0  0  0
  146.1260  133.9257  154.6892 H   0  0  0  0  0  0  0  0  0  0  0  0
  146.3672  135.0753  151.2785 H   0  0  0  0  0  0  0  0  0  0  0  0
  144.6312  135.0258  151.0381 H   0  0  0  0  0  0  0  0  0  0  0  0
  144.2912  136.9223  152.6001 H   0  0  0  0  0  0  0  0  0  0  0  0
  145.4378  137.3823  151.3529 H   0  0  0  0  0  0  0  0  0  0  0  0
  146.8347  142.9110  158.4852 H   0  0  0  0  0  0  0  0  0  0  0  0
  147.2018  136.8889  152.8277 H   0  0  0  0  0  0  0  0  0  0  0  0
  1  2  1  0  0  0  0
  1 30  1  0  0  0  0
  1 31  1  0  0  0  0
  1 32  1  0  0  0  0
  2  6  1  0  0  0  0
  2  3  1  0  0  0  0
  2 33  1  0  0  0  0
  3  4  1  0  0  0  0
  4  5  1  0  0  0  0
  4 34  1  0  0  0  0
  4 35  1  0  0  0  0
  5  6  1  0  0  0  0
  5 36  1  0  0  0  0
  5 37  1  0  0  0  0
  6  7  1  0  0  0  0
  6  8  1  0  0  0  0
  7 38  1  0  0  0  0
  8  9  1  0  0  0  0
  8 39  1  0  0  0  0
  8 40  1  0  0  0  0
  9 29  1  0  0  0  0
  9 10  1  0  0  0  0
 10 11  2  0  0  0  0
 10 41  1  0  0  0  0
 11 12  1  0  0  0  0
 12 29  2  0  0  0  0
 12 13  1  0  0  0  0
 13 14  1  0  0  0  0
 13 26  2  0  0  0  0
 14 15  1  0  0  0  0
 14 16  1  0  0  0  0
 15 42  1  0  0  0  0
 15 43  1  0  0  0  0
 15 44  1  0  0  0  0
 16 17  1  0  0  0  0
 16 45  1  0  0  0  0
 16 46  1  0  0  0  0
 17 18  1  0  0  0  0
 17 19  1  0  0  0  0
 17 47  1  0  0  0  0
 18 48  1  0  0  0  0
 19 20  1  0  0  0  0
 19 49  1  0  0  0  0
 19 50  1  0  0  0  0
 20 25  1  0  0  0  0
 20 21  1  0  0  0  0
 20 60  1  0  0  0  0
 21 22  1  0  0  0  0
 21 51  1  0  0  0  0
 21 52  1  0  0  0  0
 22 23  1  0  0  0  0
 22 53  1  0  0  0  0
 22 54  1  0  0  0  0
 23 24  1  0  0  0  0
 24 25  1  0  0  0  0
 24 55  1  0  0  0  0
 24 56  1  0  0  0  0
 25 57  1  0  0  0  0
 25 58  1  0  0  0  0
 26 27  1  0  0  0  0
 27 28  2  0  0  0  0
 27 59  1  0  0  0  0
 28 29  1  0  0  0  0
M  CHG  1  20   1
M  END
> <s_m_source_file>
AV-unprocessed.smi

> <i_m_source_file_index>
153

> <i_lp_mmshare_version>
43012

> <i_f3d_flags>
0

> <s_epik_input>
W0NIMl0xW0NIMl1PW0NAQEhdKFtDSDNdKVtDQEBdMShbT0hdKVtDSDJdbihbY0hdbjIpYyhjMjMpbltjSF1uYzNOKFtDSDNdKVtDSDJdW0NASF0oW09IXSlbQ0gyXU40W0NIMl1bQ0gyXU9bQ0gyXVtDSDJdNA==

> <s_epik_cmdline>
J2VwaWtfcHl0aG9uJywgJy1waCcsICc3LjAnLCAnLXRuJywgJzgnLCAnLW1hJywgJzIwMCcsICctbWV0YWxfYmluZGluZycsICctaW1hZScsICc8aW5maWxlLm1hZT4nLCAnLW9tYWUnLCAnPG91dGZpbGUubWFlPic=

> <r_lp_tautomer_probability>
1

> <r_epik_Ionization_Penalty>
0.403509

> <r_epik_Ionization_Penalty_Charging>
0.40072

> <r_epik_Ionization_Penalty_Neutral>
0.00278876

> <r_epik_State_Penalty>
0.400058

> <r_epik_Charging_Adjusted_Penalty>
0.800778

> <i_epik_Tot_Q>
1

> <i_epik_Tot_abs_Q>
1

> <r_epik_Metal_State_Penalty>
0.400321

> <b_epik_Metal_Only>
0

> <s_lp_Force_Field>
OPLS_2005

> <r_lp_Energy>
46.9593

> <b_lp_Chiralities_Consistent>
1

> <s_lp_Variant>
AV-unprocessed.smi:153-1

> <Gold.Version>
5.8.1

> <Gold.Id.Protein>
6NUR|6NUR_protein|mol2

> <Gold.PLP.Fitness>
52.2865

> <Gold.PLP.PLP>
-46.0127

> <Gold.PLP.part.hbond>
-3.9499

> <Gold.PLP.part.metal>
0.0000

> <Gold.PLP.part.buried>
-3.3410

> <Gold.PLP.part.nonpolar>
-39.0952

> <Gold.PLP.part.repulsive>
0.6196

> <Gold.PLP.ligand.clash>
0.0000

> <Gold.PLP.ligand.torsion>
1.8992

> <Gold.PLP.Chemscore.Hbond>
3.2637

> <Gold.PLP.Chemscore.CHOScore>
0.0000

> <Gold.PLP.Chemscore.Metal>
0.0000

> <Gold.Chemscore.Hbonds>
donor molecule, donor type, donor heavy atom, donor atom, acceptor molecule, acceptor atom, score
      L1  H    18    48       P1  7948  0.64
      L1  H    20    60       P1  7948  1.66
      P1  H  7989  7998       L1    11  0.41

> <Gold.PLP.Chemscore.Internal.Correction>
0.2810

> <Gold.Rescore>
     Score         DG    S(hbond)    S(metal)    S(lipo)     H(rot)  DE(clash)    DE(int)     intcor
     10.68     -15.27       1.96        0.00     106.93       3.62       1.17       3.43       ----

> <Gold.Chemscore.Fitness>
10.6794

> <Gold.Chemscore.DG>
-15.2746

> <Gold.Chemscore.ZeroCoef>
-5.4800

> <Gold.Chemscore.Hbond>
1.9599

> <Gold.Chemscore.Metal>
0.0000

> <Gold.Chemscore.Lipo>
106.9323

> <Gold.Chemscore.Internal_Hbond>
0.0000

> <Gold.Chemscore.DEClash>
1.1693

> <Gold.Chemscore.DEInternal>
3.4259

> <Gold.Chemscore.Rot>
3.6182

> <Gold.Chemscore.Internal.Correction>
   9.000000E+99

> <Gold.Chemscore.Hbonds>
donor molecule, donor type, donor heavy atom, donor atom, acceptor molecule, acceptor atom, score
      L1  H    18    48       P1  7948  0.64
      L1  H    20    60       P1  7948  0.80
      P1  H  7989  7998       L1    11  0.12

> <Gold.Chemscore.Hbond.Weighted>
-6.5460

> <Gold.Chemscore.Metal.Weighted>
-0.0000

> <Gold.Chemscore.Lipo.Weighted>
-12.5111

> <Gold.Chemscore.Internal_Hbond.Weighted>
0.0000

> <Gold.Chemscore.DEClash.Weighted>
1.1693

> <Gold.Chemscore.DEInternal.Weighted>
3.4259

> <Gold.Chemscore.Rot.Weighted>
9.2625

> <Gold.Chemscore.Internal.Correction.Weighted>
   9.000000E+99

> <Gold.Protein.RotatedTorsions>
[ 6907 6896 6895 6894 ] final   87.72 input  -60.11 | X-H torsion
[ 7974 7965 7964 7962 ] final  131.73 input  175.53 | X-H torsion
[ 8008 7997 7996 7995 ] final   83.63 input   59.86 | X-H torsion
[ 10167 10162 10161 10158 ] final  112.05 input  -65.29 | X-H torsion
[ 10718 10713 10712 10709 ] final  -73.94 input   66.30 | X-H torsion
[ 10763 10752 10751 10750 ] final  -95.73 input  -60.55 | X-H torsion
[ 11005 11000 10999 10996 ] final  -69.68 input  -57.11 | X-H torsion

> <Gold.Protein.ActiveResidues>
 VAL166  LYS551  ARG553  GLY616  TRP617  ASP618  TYR619  PRO620  LYS621  CYS622 
 ASP623  PHE694  ASN695  SER759  ASP760  ASP761  ALA762  ILE779  LEU786  VAL792 
 PHE793  MET794  SER795  GLU796  ALA797  LYS798  CYS799  TRP800  GLU811  SER814 

> <Gold.Protein.RotatedAtoms>
  152.5415  134.2233  159.8795 H   0  0  0  0  0  0  0  0  0  0  0  0  # atno 6907 bound_to 6896
  151.2208  133.4496  159.2608 H   0  0  0  0  0  0  0  0  0  0  0  0  # atno 6908 bound_to 6896
  151.0807  134.9869  159.8410 H   0  0  0  0  0  0  0  0  0  0  0  0  # atno 6909 bound_to 6896
  145.0042  139.4282  143.5277 H   0  0  0  0  0  0  0  0  0  0  0  0  # atno 7974 bound_to 7965
  155.9264  140.3418  155.6214 H   0  0  0  0  0  0  0  0  0  0  0  0  # atno 8008 bound_to 7997
  155.7211  140.0783  157.2349 H   0  0  0  0  0  0  0  0  0  0  0  0  # atno 8009 bound_to 7997
  154.4078  140.1605  156.2390 H   0  0  0  0  0  0  0  0  0  0  0  0  # atno 8010 bound_to 7997
  139.6565  144.7129  151.1947 H   0  0  0  0  0  0  0  0  0  0  0  0  # atno 10167 bound_to 10162
  156.0261  130.4405  150.2818 H   0  0  0  0  0  0  0  0  0  0  0  0  # atno 10718 bound_to 10713
  154.7175  135.5110  153.8760 H   0  0  0  0  0  0  0  0  0  0  0  0  # atno 10763 bound_to 10752
  153.0833  135.6638  154.0009 H   0  0  0  0  0  0  0  0  0  0  0  0  # atno 10764 bound_to 10752
  153.9839  135.3026  155.3397 H   0  0  0  0  0  0  0  0  0  0  0  0  # atno 10765 bound_to 10752
  141.1559  133.6770  156.6637 H   0  0  0  0  0  0  0  0  0  0  0  0  # atno 11005 bound_to 11000
  146.3458  139.9448  142.8736 LP  0  0  0  0  0  0  0  0  0  0  0  0  # atno 17320 bound_to 7965
  145.2111  140.9896  143.4100 LP  0  0  0  0  0  0  0  0  0  0  0  0  # atno 17321 bound_to 7965
  140.7561  143.6064  150.8649 LP  0  0  0  0  0  0  0  0  0  0  0  0  # atno 17342 bound_to 10162
  139.9717  143.6049  152.2971 LP  0  0  0  0  0  0  0  0  0  0  0  0  # atno 17343 bound_to 10162
  157.0921  131.0172  151.3118 LP  0  0  0  0  0  0  0  0  0  0  0  0  # atno 17370 bound_to 10713
  157.4846  130.7785  149.7447 LP  0  0  0  0  0  0  0  0  0  0  0  0  # atno 17371 bound_to 10713
  140.3228  134.7994  157.4265 LP  0  0  0  0  0  0  0  0  0  0  0  0  # atno 17394 bound_to 11000
  140.1083  134.5380  155.8289 LP  0  0  0  0  0  0  0  0  0  0  0  0  # atno 17395 bound_to 11000

$$$$
