AV-unprocessed.smi:295|AV-procd|sdf|2255|dock4
  -GOLD-   2262022143D 1   1.00000     0.00000
 Structure written by MMmdl.
 35 36  0  0  0  0  0  0  0  0  1 V2000
  146.5137  138.9532  152.5152 C   0  0  0  0  0  0  0  0  0  0  0  0
  145.8039  137.5986  152.3498 C   0  0  1  0  0  0  0  0  0  0  0  0
  146.2122  136.9008  151.0361 C   0  0  0  0  0  0  0  0  0  0  0  0
  145.4562  135.5766  150.8404 C   0  0  0  0  0  0  0  0  0  0  0  0
  145.6506  134.6374  152.0402 C   0  0  0  0  0  0  0  0  0  0  0  0
  145.2478  135.3249  153.3568 C   0  0  0  0  0  0  0  0  0  0  0  0
  145.9913  136.6594  153.5686 C   0  0  1  0  0  0  0  0  0  0  0  0
  147.4048  136.3935  153.8395 N   0  0  0  0  0  0  0  0  0  0  0  0
  147.9860  136.3309  155.0482 C   0  0  0  0  0  0  0  0  0  0  0  0
  147.3914  136.5443  156.1040 O   0  0  0  0  0  0  0  0  0  0  0  0
  149.4737  135.9753  155.0667 C   0  0  0  0  0  0  0  0  0  0  0  0
  150.2967  137.1485  154.8325 N   0  0  0  0  0  0  0  0  0  0  0  0
  149.9517  138.4132  154.5674 C   0  0  0  0  0  0  0  0  0  0  0  0
  150.9838  139.2277  154.3867 N   0  0  0  0  0  0  0  0  0  0  0  0
  151.9958  138.3303  154.5701 C   0  0  0  0  0  0  0  0  0  0  0  0
  153.3900  138.7271  154.4687 C   0  0  0  0  0  0  0  0  0  0  0  0
  154.5003  139.0433  154.3880 N   0  0  0  0  0  0  0  0  0  0  0  0
  151.6501  137.0735  154.8408 N   0  0  0  0  0  0  0  0  0  0  0  0
  147.5981  138.8421  152.5335 H   0  0  0  0  0  0  0  0  0  0  0  0
  146.2128  139.4430  153.4417 H   0  0  0  0  0  0  0  0  0  0  0  0
  146.2671  139.6256  151.6931 H   0  0  0  0  0  0  0  0  0  0  0  0
  144.7368  137.8156  152.2791 H   0  0  0  0  0  0  0  0  0  0  0  0
  146.0137  137.5585  150.1892 H   0  0  0  0  0  0  0  0  0  0  0  0
  147.2865  136.7126  151.0318 H   0  0  0  0  0  0  0  0  0  0  0  0
  144.3932  135.7807  150.7058 H   0  0  0  0  0  0  0  0  0  0  0  0
  145.7942  135.0872  149.9265 H   0  0  0  0  0  0  0  0  0  0  0  0
  145.0603  133.7313  151.9005 H   0  0  0  0  0  0  0  0  0  0  0  0
  146.6924  134.3189  152.0916 H   0  0  0  0  0  0  0  0  0  0  0  0
  144.1733  135.5120  153.3459 H   0  0  0  0  0  0  0  0  0  0  0  0
  145.4286  134.6544  154.1980 H   0  0  0  0  0  0  0  0  0  0  0  0
  145.5438  137.1415  154.4395 H   0  0  0  0  0  0  0  0  0  0  0  0
  147.9852  136.2143  153.0333 H   0  0  0  0  0  0  0  0  0  0  0  0
  149.7382  135.5438  156.0328 H   0  0  0  0  0  0  0  0  0  0  0  0
  149.6934  135.2242  154.3063 H   0  0  0  0  0  0  0  0  0  0  0  0
  148.9250  138.7420  154.4976 H   0  0  0  0  0  0  0  0  0  0  0  0
  1  2  1  0  0  0  0
  1 19  1  0  0  0  0
  1 20  1  0  0  0  0
  1 21  1  0  0  0  0
  2  7  1  0  0  0  0
  2  3  1  0  0  0  0
  2 22  1  0  0  0  0
  3  4  1  0  0  0  0
  3 23  1  0  0  0  0
  3 24  1  0  0  0  0
  4  5  1  0  0  0  0
  4 25  1  0  0  0  0
  4 26  1  0  0  0  0
  5  6  1  0  0  0  0
  5 27  1  0  0  0  0
  5 28  1  0  0  0  0
  6  7  1  0  0  0  0
  6 29  1  0  0  0  0
  6 30  1  0  0  0  0
  7  8  1  0  0  0  0
  7 31  1  0  0  0  0
  8  9  1  0  0  0  0
  8 32  1  0  0  0  0
  9 10  2  0  0  0  0
  9 11  1  0  0  0  0
 11 12  1  0  0  0  0
 11 33  1  0  0  0  0
 11 34  1  0  0  0  0
 12 18  1  0  0  0  0
 12 13  1  0  0  0  0
 13 14  2  0  0  0  0
 13 35  1  0  0  0  0
 14 15  1  0  0  0  0
 15 16  1  0  0  0  0
 15 18  2  0  0  0  0
 16 17  3  0  0  0  0
M  END
> <s_m_source_file>
AV-unprocessed.smi

> <i_m_source_file_index>
295

> <i_lp_mmshare_version>
43012

> <i_f3d_flags>
0

> <s_epik_input>
W0NIM11bQ0BASF0xW0NIMl1bQ0gyXVtDSDJdW0NIMl1bQ0BIXTFbTkhdQyg9TylbQ0gyXW4yW2NIXW5jKG4yKUMjTg==

> <s_epik_cmdline>
J2VwaWtfcHl0aG9uJywgJy1waCcsICc3LjAnLCAnLXRuJywgJzgnLCAnLW1hJywgJzIwMCcsICctbWV0YWxfYmluZGluZycsICctaW1hZScsICc8aW5maWxlLm1hZT4nLCAnLW9tYWUnLCAnPG91dGZpbGUubWFlPic=

> <r_lp_tautomer_probability>
1

> <r_epik_Ionization_Penalty>
5.31112e-08

> <r_epik_Ionization_Penalty_Charging>
0

> <r_epik_Ionization_Penalty_Neutral>
5.31112e-08

> <r_epik_State_Penalty>
-0

> <r_epik_Charging_Adjusted_Penalty>
0

> <i_epik_Tot_Q>
0

> <i_epik_Tot_abs_Q>
0

> <r_epik_Metal_State_Penalty>
-0

> <b_epik_Metal_Only>
0

> <s_lp_Force_Field>
OPLS_2005

> <r_lp_Energy>
13.099

> <b_lp_Chiralities_Consistent>
1

> <s_lp_Variant>
AV-unprocessed.smi:295-2

> <Gold.Version>
5.8.1

> <Gold.Id.Protein>
6NUR|6NUR_protein|mol2

> <Gold.PLP.Fitness>
37.4531

> <Gold.PLP.PLP>
-27.0039

> <Gold.PLP.part.hbond>
-3.9717

> <Gold.PLP.part.metal>
0.0000

> <Gold.PLP.part.buried>
-0.3961

> <Gold.PLP.part.nonpolar>
-23.6691

> <Gold.PLP.part.repulsive>
0.3002

> <Gold.PLP.ligand.clash>
0.0000

> <Gold.PLP.ligand.torsion>
0.6348

> <Gold.PLP.Chemscore.Hbond>
3.9033

> <Gold.PLP.Chemscore.CHOScore>
0.0000

> <Gold.PLP.Chemscore.Metal>
0.0000

> <Gold.Chemscore.Hbonds>
donor molecule, donor type, donor heavy atom, donor atom, acceptor molecule, acceptor atom, score
      L1  H     8    32       P1  7948  0.98
      P1  H  7989  7998       L1    14  1.00
      P1  H  7997  8008       L1    17  0.93
      P1  H 10752 10764       L1    18  1.00

> <Gold.PLP.Chemscore.Internal.Correction>
0.0091

> <Gold.Rescore>
     Score         DG    S(hbond)    S(metal)    S(lipo)     H(rot)  DE(clash)    DE(int)     intcor
     14.07     -15.74       3.17        0.00      39.86       1.95       1.05       0.61       ----

> <Gold.Chemscore.Fitness>
14.0660

> <Gold.Chemscore.DG>
-15.7352

> <Gold.Chemscore.ZeroCoef>
-5.4800

> <Gold.Chemscore.Hbond>
3.1666

> <Gold.Chemscore.Metal>
0.0000

> <Gold.Chemscore.Lipo>
39.8640

> <Gold.Chemscore.Internal_Hbond>
0.0000

> <Gold.Chemscore.DEClash>
1.0544

> <Gold.Chemscore.DEInternal>
0.6148

> <Gold.Chemscore.Rot>
1.9474

> <Gold.Chemscore.Internal.Correction>
   9.000000E+99

> <Gold.Chemscore.Hbonds>
donor molecule, donor type, donor heavy atom, donor atom, acceptor molecule, acceptor atom, score
      L1  H     8    32       P1  7948  0.91
      P1  H  7989  7998       L1    14  0.77
      P1  H  7997  8008       L1    17  0.70
      P1  H 10752 10764       L1    18  0.95

> <Gold.Chemscore.Hbond.Weighted>
-10.5763

> <Gold.Chemscore.Metal.Weighted>
-0.0000

> <Gold.Chemscore.Lipo.Weighted>
-4.6641

> <Gold.Chemscore.Internal_Hbond.Weighted>
0.0000

> <Gold.Chemscore.DEClash.Weighted>
1.0544

> <Gold.Chemscore.DEInternal.Weighted>
0.6148

> <Gold.Chemscore.Rot.Weighted>
4.9852

> <Gold.Chemscore.Internal.Correction.Weighted>
   9.000000E+99

> <Gold.Protein.RotatedTorsions>
[ 6907 6896 6895 6894 ] final -119.95 input  -60.11 | X-H torsion
[ 7974 7965 7964 7962 ] final  128.91 input  175.53 | X-H torsion
[ 8008 7997 7996 7995 ] final   16.82 input   59.86 | X-H torsion
[ 10167 10162 10161 10158 ] final  142.59 input  -65.29 | X-H torsion
[ 10718 10713 10712 10709 ] final -123.00 input   66.30 | X-H torsion
[ 10763 10752 10751 10750 ] final  -63.71 input  -60.55 | X-H torsion
[ 11005 11000 10999 10996 ] final -114.60 input  -57.11 | X-H torsion

> <Gold.Protein.ActiveResidues>
 VAL166  LYS551  ARG553  GLY616  TRP617  ASP618  TYR619  PRO620  LYS621  CYS622 
 ASP623  PHE694  ASN695  SER759  ASP760  ASP761  ALA762  ILE779  LEU786  VAL792 
 PHE793  MET794  SER795  GLU796  ALA797  LYS798  CYS799  TRP800  GLU811  SER814 

> <Gold.Protein.RotatedAtoms>
  150.8350  133.8028  159.3082 H   0  0  0  0  0  0  0  0  0  0  0  0  # atno 6907 bound_to 6896
  151.5747  135.1059  160.0013 H   0  0  0  0  0  0  0  0  0  0  0  0  # atno 6908 bound_to 6896
  152.4424  133.7431  159.6708 H   0  0  0  0  0  0  0  0  0  0  0  0  # atno 6909 bound_to 6896
  145.0344  139.4018  143.5134 H   0  0  0  0  0  0  0  0  0  0  0  0  # atno 7974 bound_to 7965
  154.8825  140.2975  155.5417 H   0  0  0  0  0  0  0  0  0  0  0  0  # atno 8008 bound_to 7997
  156.3022  140.2439  156.3764 H   0  0  0  0  0  0  0  0  0  0  0  0  # atno 8009 bound_to 7997
  154.8702  140.0402  157.1709 H   0  0  0  0  0  0  0  0  0  0  0  0  # atno 8010 bound_to 7997
  139.4990  144.6097  151.6299 H   0  0  0  0  0  0  0  0  0  0  0  0  # atno 10167 bound_to 10162
  156.1465  130.6504  150.9850 H   0  0  0  0  0  0  0  0  0  0  0  0  # atno 10718 bound_to 10713
  154.3191  135.6200  153.5499 H   0  0  0  0  0  0  0  0  0  0  0  0  # atno 10763 bound_to 10752
  152.9821  135.5719  154.5090 H   0  0  0  0  0  0  0  0  0  0  0  0  # atno 10764 bound_to 10752
  154.4755  135.2861  155.1587 H   0  0  0  0  0  0  0  0  0  0  0  0  # atno 10765 bound_to 10752
  141.0541  133.9640  157.2784 H   0  0  0  0  0  0  0  0  0  0  0  0  # atno 11005 bound_to 11000
  146.3502  139.9911  142.8685 LP  0  0  0  0  0  0  0  0  0  0  0  0  # atno 17320 bound_to 7965
  145.1729  140.9730  143.4311 LP  0  0  0  0  0  0  0  0  0  0  0  0  # atno 17321 bound_to 7965
  140.5768  144.0014  150.6246 LP  0  0  0  0  0  0  0  0  0  0  0  0  # atno 17342 bound_to 10162
  140.3150  143.3173  152.0841 LP  0  0  0  0  0  0  0  0  0  0  0  0  # atno 17343 bound_to 10162
  157.6621  131.0879  150.7814 LP  0  0  0  0  0  0  0  0  0  0  0  0  # atno 17370 bound_to 10713
  156.7886  130.4882  149.5389 LP  0  0  0  0  0  0  0  0  0  0  0  0  # atno 17371 bound_to 10713
  139.9375  135.0195  156.8603 LP  0  0  0  0  0  0  0  0  0  0  0  0  # atno 17394 bound_to 11000
  140.5998  134.0183  155.7532 LP  0  0  0  0  0  0  0  0  0  0  0  0  # atno 17395 bound_to 11000

$$$$
