AV-unprocessed.smi:201|AV-procd|sdf|1580|dock8
  -GOLD-   2262019473D 1   1.00000     0.00000
 Structure written by MMmdl.
 59 61  0  0  0  0  0  0  0  0  1 V2000
  151.7003  140.2001  155.6380 C   0  0  0  0  0  0  0  0  0  0  0  0
  150.1658  140.2323  155.7705 C   0  0  0  0  0  0  0  0  0  0  0  0
  149.6232  141.4081  154.9285 C   0  0  0  0  0  0  0  0  0  0  0  0
  149.7373  140.3049  157.1787 N   0  0  0  0  0  0  0  0  0  0  0  0
  149.8820  141.5546  157.9312 C   0  0  0  0  0  0  0  0  0  0  0  0
  151.3330  141.8499  158.3633 C   0  0  0  0  0  0  0  0  0  0  0  0
  151.3723  142.5906  159.5747 O   0  0  0  0  0  0  0  0  0  0  0  0
  152.6505  142.6311  160.1936 C   0  0  0  0  0  0  0  0  0  0  0  0
  152.5742  143.5336  161.4306 C   0  0  0  0  0  0  0  0  0  0  0  0
  151.8089  142.9085  162.4385 O   0  0  0  0  0  0  0  0  0  0  0  0
  149.9627  139.2245  157.9669 C   0  0  0  0  0  0  0  0  0  0  0  0
  151.2422  139.0030  158.3608 N   0  0  0  0  0  0  0  0  0  0  0  0
  151.5358  137.9500  159.1290 C   0  0  0  0  0  0  0  0  0  0  0  0
  150.7180  137.0067  159.6001 N   0  0  0  0  0  0  0  0  0  0  0  0
  149.4326  137.2174  159.1956 C   0  0  0  0  0  0  0  0  0  0  0  0
  148.9689  138.2926  158.3861 C   0  0  0  0  0  0  0  0  0  0  0  0
  147.5996  138.1703  158.1813 N   0  0  0  0  0  0  0  0  0  0  0  0
  147.2716  137.0941  158.8417 C   0  0  0  0  0  0  0  0  0  0  0  0
  148.3143  136.4469  159.4651 N   0  0  0  0  0  0  0  0  0  0  0  0
  148.2374  135.2330  160.2654 C   0  0  0  0  0  0  0  0  0  0  0  0
  146.9313  135.0536  161.1002 C   0  0  0  0  0  0  0  0  0  0  0  0
  146.8051  136.2867  162.0398 C   0  0  0  0  0  0  0  0  0  0  0  0
  148.0436  136.6586  162.6126 O   0  0  0  0  0  0  0  0  0  0  0  0
  145.6893  134.9148  160.1813 C   0  0  0  0  0  0  0  0  0  0  0  0
  144.4132  134.5499  160.9615 C   0  0  0  0  0  0  0  0  0  0  0  0
  144.6161  133.3393  161.6799 O   0  0  0  0  0  0  0  0  0  0  0  0
  145.6564  133.4315  162.6455 C   0  0  0  0  0  0  0  0  0  0  0  0
  146.9929  133.7586  161.9524 C   0  0  0  0  0  0  0  0  0  0  0  0
  152.0027  140.2001  154.5904 H   0  0  0  0  0  0  0  0  0  0  0  0
  152.1284  139.3026  156.0842 H   0  0  0  0  0  0  0  0  0  0  0  0
  152.1588  141.0674  156.1144 H   0  0  0  0  0  0  0  0  0  0  0  0
  149.7849  139.3055  155.3427 H   0  0  0  0  0  0  0  0  0  0  0  0
  149.9897  141.3558  153.9030 H   0  0  0  0  0  0  0  0  0  0  0  0
  149.9386  142.3666  155.3417 H   0  0  0  0  0  0  0  0  0  0  0  0
  148.5353  141.4143  154.8691 H   0  0  0  0  0  0  0  0  0  0  0  0
  149.5011  142.3812  157.3328 H   0  0  0  0  0  0  0  0  0  0  0  0
  149.2330  141.5197  158.8064 H   0  0  0  0  0  0  0  0  0  0  0  0
  151.9199  140.9352  158.4563 H   0  0  0  0  0  0  0  0  0  0  0  0
  151.8244  142.4567  157.6029 H   0  0  0  0  0  0  0  0  0  0  0  0
  153.0123  141.6381  160.4618 H   0  0  0  0  0  0  0  0  0  0  0  0
  153.3662  143.0559  159.4881 H   0  0  0  0  0  0  0  0  0  0  0  0
  153.5753  143.6976  161.8306 H   0  0  0  0  0  0  0  0  0  0  0  0
  152.1584  144.5113  161.1855 H   0  0  0  0  0  0  0  0  0  0  0  0
  152.3948  142.4219  162.9984 H   0  0  0  0  0  0  0  0  0  0  0  0
  152.5752  137.8477  159.4041 H   0  0  0  0  0  0  0  0  0  0  0  0
  146.2533  136.7355  158.8863 H   0  0  0  0  0  0  0  0  0  0  0  0
  148.3634  134.3853  159.5905 H   0  0  0  0  0  0  0  0  0  0  0  0
  149.1093  135.2206  160.9206 H   0  0  0  0  0  0  0  0  0  0  0  0
  146.4109  137.1601  161.5239 H   0  0  0  0  0  0  0  0  0  0  0  0
  146.1070  136.0742  162.8502 H   0  0  0  0  0  0  0  0  0  0  0  0
  148.2833  136.0100  163.2569 H   0  0  0  0  0  0  0  0  0  0  0  0
  145.5282  135.8267  159.6058 H   0  0  0  0  0  0  0  0  0  0  0  0
  145.8528  134.1247  159.4497 H   0  0  0  0  0  0  0  0  0  0  0  0
  144.1109  135.3484  161.6394 H   0  0  0  0  0  0  0  0  0  0  0  0
  143.5857  134.4042  160.2668 H   0  0  0  0  0  0  0  0  0  0  0  0
  145.4009  134.1676  163.4074 H   0  0  0  0  0  0  0  0  0  0  0  0
  145.7348  132.4735  163.1598 H   0  0  0  0  0  0  0  0  0  0  0  0
  147.2367  132.9034  161.3232 H   0  0  0  0  0  0  0  0  0  0  0  0
  147.7909  133.8275  162.6923 H   0  0  0  0  0  0  0  0  0  0  0  0
  1  2  1  0  0  0  0
  1 29  1  0  0  0  0
  1 30  1  0  0  0  0
  1 31  1  0  0  0  0
  2  3  1  0  0  0  0
  2  4  1  0  0  0  0
  2 32  1  0  0  0  0
  3 33  1  0  0  0  0
  3 34  1  0  0  0  0
  3 35  1  0  0  0  0
  4  5  1  0  0  0  0
  4 11  1  0  0  0  0
  5  6  1  0  0  0  0
  5 36  1  0  0  0  0
  5 37  1  0  0  0  0
  6  7  1  0  0  0  0
  6 38  1  0  0  0  0
  6 39  1  0  0  0  0
  7  8  1  0  0  0  0
  8  9  1  0  0  0  0
  8 40  1  0  0  0  0
  8 41  1  0  0  0  0
  9 10  1  0  0  0  0
  9 42  1  0  0  0  0
  9 43  1  0  0  0  0
 10 44  1  0  0  0  0
 11 16  1  0  0  0  0
 11 12  2  0  0  0  0
 12 13  1  0  0  0  0
 13 14  2  0  0  0  0
 13 45  1  0  0  0  0
 14 15  1  0  0  0  0
 15 19  1  0  0  0  0
 15 16  2  0  0  0  0
 16 17  1  0  0  0  0
 17 18  2  0  0  0  0
 18 19  1  0  0  0  0
 18 46  1  0  0  0  0
 19 20  1  0  0  0  0
 20 21  1  0  0  0  0
 20 47  1  0  0  0  0
 20 48  1  0  0  0  0
 21 28  1  0  0  0  0
 21 22  1  0  0  0  0
 21 24  1  0  0  0  0
 22 23  1  0  0  0  0
 22 49  1  0  0  0  0
 22 50  1  0  0  0  0
 23 51  1  0  0  0  0
 24 25  1  0  0  0  0
 24 52  1  0  0  0  0
 24 53  1  0  0  0  0
 25 26  1  0  0  0  0
 25 54  1  0  0  0  0
 25 55  1  0  0  0  0
 26 27  1  0  0  0  0
 27 28  1  0  0  0  0
 27 56  1  0  0  0  0
 27 57  1  0  0  0  0
 28 58  1  0  0  0  0
 28 59  1  0  0  0  0
M  END
> <s_m_source_file>
AV-unprocessed.smi

> <i_m_source_file_index>
201

> <i_lp_mmshare_version>
43012

> <i_f3d_flags>
0

> <s_epik_input>
W09IXVtDSDJdW0NIMl1PW0NIMl1bQ0gyXU4oW0NIXShbQ0gzXSlbQ0gzXSljKG5bY0hdbjEpYyhjMTIpbltjSF1uMltDSDJdQzMoW0NIMl1bT0hdKVtDSDJdW0NIMl1PW0NIMl1bQ0gyXTM=

> <s_epik_cmdline>
J2VwaWtfcHl0aG9uJywgJy1waCcsICc3LjAnLCAnLXRuJywgJzgnLCAnLW1hJywgJzIwMCcsICctbWV0YWxfYmluZGluZycsICctaW1hZScsICc8aW5maWxlLm1hZT4nLCAnLW9tYWUnLCAnPG91dGZpbGUubWFlPic=

> <r_lp_tautomer_probability>
1

> <r_epik_Ionization_Penalty>
0.00276835

> <r_epik_Ionization_Penalty_Charging>
0

> <r_epik_Ionization_Penalty_Neutral>
0.00276835

> <r_epik_State_Penalty>
0.00179834

> <r_epik_Charging_Adjusted_Penalty>
0.00179834

> <i_epik_Tot_Q>
0

> <i_epik_Tot_abs_Q>
0

> <r_epik_Metal_State_Penalty>
-0

> <b_epik_Metal_Only>
0

> <s_lp_Force_Field>
OPLS_2005

> <r_lp_Energy>
32.5455

> <b_lp_Chiralities_Consistent>
1

> <s_lp_Variant>
AV-unprocessed.smi:201-1

> <Gold.Version>
5.8.1

> <Gold.Id.Protein>
6NUR|6NUR_protein|mol2

> <Gold.PLP.Fitness>
52.8572

> <Gold.PLP.PLP>
-45.3547

> <Gold.PLP.part.hbond>
-4.3207

> <Gold.PLP.part.metal>
0.0000

> <Gold.PLP.part.buried>
-6.5367

> <Gold.PLP.part.nonpolar>
-34.0191

> <Gold.PLP.part.repulsive>
0.0715

> <Gold.PLP.ligand.clash>
0.0000

> <Gold.PLP.ligand.torsion>
1.3348

> <Gold.PLP.Chemscore.Hbond>
3.0000

> <Gold.PLP.Chemscore.CHOScore>
0.0000

> <Gold.PLP.Chemscore.Metal>
0.0000

> <Gold.Chemscore.Hbonds>
donor molecule, donor type, donor heavy atom, donor atom, acceptor molecule, acceptor atom, score
      P1  H  6896  6907       L1    14  1.00
      P1  H  6931  6943       L1    23  1.00
      P1  H  6933  6945       L1    10  0.81

> <Gold.PLP.Chemscore.Internal.Correction>
1.1721

> <Gold.Rescore>
     Score         DG    S(hbond)    S(metal)    S(lipo)     H(rot)  DE(clash)    DE(int)     intcor
      9.65     -14.19       2.72        0.00      99.09       4.68       0.55       3.99       ----

> <Gold.Chemscore.Fitness>
9.6490

> <Gold.Chemscore.DG>
-14.1857

> <Gold.Chemscore.ZeroCoef>
-5.4800

> <Gold.Chemscore.Hbond>
2.7202

> <Gold.Chemscore.Metal>
0.0000

> <Gold.Chemscore.Lipo>
99.0911

> <Gold.Chemscore.Internal_Hbond>
0.0000

> <Gold.Chemscore.DEClash>
0.5487

> <Gold.Chemscore.DEInternal>
3.9880

> <Gold.Chemscore.Rot>
4.6771

> <Gold.Chemscore.Internal.Correction>
   9.000000E+99

> <Gold.Chemscore.Hbonds>
donor molecule, donor type, donor heavy atom, donor atom, acceptor molecule, acceptor atom, score
      P1  H  6896  6907       L1    14  0.65
      P1  H  6931  6943       L1    23  0.93
      P1  H  6933  6945       L1    10  0.46

> <Gold.Chemscore.Hbond.Weighted>
-9.0853

> <Gold.Chemscore.Metal.Weighted>
-0.0000

> <Gold.Chemscore.Lipo.Weighted>
-11.5937

> <Gold.Chemscore.Internal_Hbond.Weighted>
0.0000

> <Gold.Chemscore.DEClash.Weighted>
0.5487

> <Gold.Chemscore.DEInternal.Weighted>
3.9880

> <Gold.Chemscore.Rot.Weighted>
11.9733

> <Gold.Chemscore.Internal.Correction.Weighted>
   9.000000E+99

> <Gold.Protein.RotatedTorsions>
[ 6907 6896 6895 6894 ] final  -36.48 input  -60.11 | X-H torsion
[ 7974 7965 7964 7962 ] final  -60.66 input  175.53 | X-H torsion
[ 8008 7997 7996 7995 ] final  120.59 input   59.86 | X-H torsion
[ 10167 10162 10161 10158 ] final    9.06 input  -65.29 | X-H torsion
[ 10718 10713 10712 10709 ] final  -59.27 input   66.30 | X-H torsion
[ 10763 10752 10751 10750 ] final  163.74 input  -60.55 | X-H torsion
[ 11005 11000 10999 10996 ] final  143.65 input  -57.11 | X-H torsion

> <Gold.Protein.ActiveResidues>
 VAL166  LYS551  ARG553  GLY616  TRP617  ASP618  TYR619  PRO620  LYS621  CYS622 
 ASP623  PHE694  ASN695  SER759  ASP760  ASP761  ALA762  ILE779  LEU786  VAL792 
 PHE793  MET794  SER795  GLU796  ALA797  LYS798  CYS799  TRP800  GLU811  SER814 

> <Gold.Protein.RotatedAtoms>
  151.0266  134.9509  159.8088 H   0  0  0  0  0  0  0  0  0  0  0  0  # atno 6907 bound_to 6896
  152.5337  134.2834  159.9026 H   0  0  0  0  0  0  0  0  0  0  0  0  # atno 6908 bound_to 6896
  151.2843  133.4153  159.2663 H   0  0  0  0  0  0  0  0  0  0  0  0  # atno 6909 bound_to 6896
  145.8129  140.8588  143.0172 H   0  0  0  0  0  0  0  0  0  0  0  0  # atno 7974 bound_to 7965
  156.2649  140.2827  156.1173 H   0  0  0  0  0  0  0  0  0  0  0  0  # atno 8008 bound_to 7997
  155.1193  140.0392  157.2763 H   0  0  0  0  0  0  0  0  0  0  0  0  # atno 8009 bound_to 7997
  154.6683  140.2582  155.7040 H   0  0  0  0  0  0  0  0  0  0  0  0  # atno 8010 bound_to 7997
  140.6277  143.8063  150.7255 H   0  0  0  0  0  0  0  0  0  0  0  0  # atno 10167 bound_to 10162
  156.1074  130.4179  150.0692 H   0  0  0  0  0  0  0  0  0  0  0  0  # atno 10718 bound_to 10713
  154.2983  135.2759  155.2623 H   0  0  0  0  0  0  0  0  0  0  0  0  # atno 10763 bound_to 10752
  154.5071  135.5792  153.6579 H   0  0  0  0  0  0  0  0  0  0  0  0  # atno 10764 bound_to 10752
  152.9904  135.6172  154.3152 H   0  0  0  0  0  0  0  0  0  0  0  0  # atno 10765 bound_to 10752
  140.0570  134.9225  157.1118 H   0  0  0  0  0  0  0  0  0  0  0  0  # atno 11005 bound_to 11000
  144.6755  140.0421  143.7480 LP  0  0  0  0  0  0  0  0  0  0  0  0  # atno 17320 bound_to 7965
  145.9758  139.2904  143.1071 LP  0  0  0  0  0  0  0  0  0  0  0  0  # atno 17321 bound_to 7965
  140.1668  143.4228  152.2029 LP  0  0  0  0  0  0  0  0  0  0  0  0  # atno 17342 bound_to 10162
  139.5495  144.7326  151.4478 LP  0  0  0  0  0  0  0  0  0  0  0  0  # atno 17343 bound_to 10162
  156.8664  130.9509  151.3613 LP  0  0  0  0  0  0  0  0  0  0  0  0  # atno 17370 bound_to 10713
  157.6252  130.8686  149.9177 LP  0  0  0  0  0  0  0  0  0  0  0  0  # atno 17371 bound_to 10713
  140.3828  134.2269  155.7170 LP  0  0  0  0  0  0  0  0  0  0  0  0  # atno 17394 bound_to 11000
  141.1956  133.8100  157.0706 LP  0  0  0  0  0  0  0  0  0  0  0  0  # atno 17395 bound_to 11000

$$$$
