AV-unprocessed.smi:1762|AV-procd|sdf|7109|dock2
  -GOLD-   22720 8333D 1   1.00000     0.00000
 Structure written by MMmdl.
 53 54  0  0  0  0  0  0  0  0  2 V2000
  152.5883  145.0043  158.4726 C   0  0  0  0  0  0  0  0  0  0  0  0
  151.6159  144.0540  159.1938 C   0  0  1  0  0  0  0  0  0  0  0  0
  150.5923  143.3944  158.2484 C   0  0  0  0  0  0  0  0  0  0  0  0
  151.1712  142.3463  157.3982 N   0  0  0  0  0  0  0  0  0  0  0  0
  150.1782  141.7400  156.4670 C   0  0  2  0  0  0  0  0  0  0  0  0
  148.8816  141.2809  157.1751 C   0  0  0  0  0  0  0  0  0  0  0  0
  148.9023  140.3364  157.9649 O   0  0  0  0  0  0  0  0  0  0  0  0
  147.7683  141.9815  156.9060 N   0  0  0  0  0  0  0  0  0  0  0  0
  146.4606  141.7289  157.4979 C   0  0  0  0  0  0  0  0  0  0  0  0
  145.8673  143.0051  158.1188 C   0  0  0  0  0  0  0  0  0  0  0  0
  146.1982  143.1337  159.5926 C   0  0  0  0  0  0  0  0  0  0  0  0
  145.7529  142.1927  160.5462 C   0  0  0  0  0  0  0  0  0  0  0  0
  146.0913  142.3744  161.9035 C   0  0  0  0  0  0  0  0  0  0  0  0
  146.8648  143.4925  162.2783 C   0  0  0  0  0  0  0  0  0  0  0  0
  147.2811  144.4021  161.2850 C   0  0  0  0  0  0  0  0  0  0  0  0
  146.9371  144.1932  159.9950 N   0  3  0  0  0  0  0  0  0  0  0  0
  150.7401  140.6039  155.5471 C   0  0  0  0  0  0  0  0  0  0  0  0
  149.8790  140.3446  154.2942 C   0  0  0  0  0  0  0  0  0  0  0  0
  151.0211  139.2815  156.2876 C   0  0  0  0  0  0  0  0  0  0  0  0
  151.8669  141.3777  158.2622 C   0  0  0  0  0  0  0  0  0  0  0  0
  152.9180  142.0383  159.1727 C   0  0  2  0  0  0  0  0  0  0  0  0
  153.5621  141.0353  160.1365 C   0  0  0  0  0  0  0  0  0  0  0  0
  152.3041  143.0606  159.9498 O   0  0  0  0  0  0  0  0  0  0  0  0
  152.0490  145.8298  158.0075 H   0  0  0  0  0  0  0  0  0  0  0  0
  153.1483  144.5002  157.6851 H   0  0  0  0  0  0  0  0  0  0  0  0
  153.3057  145.4318  159.1732 H   0  0  0  0  0  0  0  0  0  0  0  0
  151.0639  144.6560  159.9163 H   0  0  0  0  0  0  0  0  0  0  0  0
  149.7816  142.9726  158.8449 H   0  0  0  0  0  0  0  0  0  0  0  0
  150.1523  144.1896  157.6501 H   0  0  0  0  0  0  0  0  0  0  0  0
  149.8689  142.5363  155.7864 H   0  0  0  0  0  0  0  0  0  0  0  0
  147.8364  142.7456  156.2493 H   0  0  0  0  0  0  0  0  0  0  0  0
  145.8023  141.3518  156.7148 H   0  0  0  0  0  0  0  0  0  0  0  0
  146.5381  140.9385  158.2466 H   0  0  0  0  0  0  0  0  0  0  0  0
  146.2384  143.8885  157.5972 H   0  0  0  0  0  0  0  0  0  0  0  0
  144.7830  143.0112  157.9969 H   0  0  0  0  0  0  0  0  0  0  0  0
  145.1590  141.3422  160.2433 H   0  0  0  0  0  0  0  0  0  0  0  0
  145.7611  141.6648  162.6480 H   0  0  0  0  0  0  0  0  0  0  0  0
  147.1349  143.6495  163.3126 H   0  0  0  0  0  0  0  0  0  0  0  0
  147.8745  145.2831  161.4816 H   0  0  0  0  0  0  0  0  0  0  0  0
  151.6908  140.9466  155.1420 H   0  0  0  0  0  0  0  0  0  0  0  0
  148.9237  139.8801  154.5405 H   0  0  0  0  0  0  0  0  0  0  0  0
  150.3924  139.6762  153.6025 H   0  0  0  0  0  0  0  0  0  0  0  0
  149.6735  141.2718  153.7585 H   0  0  0  0  0  0  0  0  0  0  0  0
  150.1049  138.8098  156.6418 H   0  0  0  0  0  0  0  0  0  0  0  0
  151.6724  139.4336  157.1482 H   0  0  0  0  0  0  0  0  0  0  0  0
  151.5185  138.5683  155.6300 H   0  0  0  0  0  0  0  0  0  0  0  0
  151.1382  140.8400  158.8715 H   0  0  0  0  0  0  0  0  0  0  0  0
  152.3960  140.6274  157.6759 H   0  0  0  0  0  0  0  0  0  0  0  0
  153.7075  142.4729  158.5590 H   0  0  0  0  0  0  0  0  0  0  0  0
  154.0611  140.2324  159.5933 H   0  0  0  0  0  0  0  0  0  0  0  0
  152.8178  140.5840  160.7932 H   0  0  0  0  0  0  0  0  0  0  0  0
  154.3075  141.5237  160.7643 H   0  0  0  0  0  0  0  0  0  0  0  0
  147.2493  144.8641  159.2927 H   0  0  0  0  0  0  0  0  0  0  0  0
  1  2  1  0  0  0  0
  1 24  1  0  0  0  0
  1 25  1  0  0  0  0
  1 26  1  0  0  0  0
  2 23  1  0  0  0  0
  2  3  1  0  0  0  0
  2 27  1  0  0  0  0
  3  4  1  0  0  0  0
  3 28  1  0  0  0  0
  3 29  1  0  0  0  0
  4  5  1  0  0  0  0
  4 20  1  0  0  0  0
  5  6  1  0  0  0  0
  5 17  1  0  0  0  0
  5 30  1  0  0  0  0
  6  7  2  0  0  0  0
  6  8  1  0  0  0  0
  8  9  1  0  0  0  0
  8 31  1  0  0  0  0
  9 10  1  0  0  0  0
  9 32  1  0  0  0  0
  9 33  1  0  0  0  0
 10 11  1  0  0  0  0
 10 34  1  0  0  0  0
 10 35  1  0  0  0  0
 11 16  1  0  0  0  0
 11 12  2  0  0  0  0
 12 13  1  0  0  0  0
 12 36  1  0  0  0  0
 13 14  2  0  0  0  0
 13 37  1  0  0  0  0
 14 15  1  0  0  0  0
 14 38  1  0  0  0  0
 15 16  2  0  0  0  0
 15 39  1  0  0  0  0
 16 53  1  0  0  0  0
 17 18  1  0  0  0  0
 17 19  1  0  0  0  0
 17 40  1  0  0  0  0
 18 41  1  0  0  0  0
 18 42  1  0  0  0  0
 18 43  1  0  0  0  0
 19 44  1  0  0  0  0
 19 45  1  0  0  0  0
 19 46  1  0  0  0  0
 20 21  1  0  0  0  0
 20 47  1  0  0  0  0
 20 48  1  0  0  0  0
 21 22  1  0  0  0  0
 21 23  1  0  0  0  0
 21 49  1  0  0  0  0
 22 50  1  0  0  0  0
 22 51  1  0  0  0  0
 22 52  1  0  0  0  0
M  CHG  1  16   1
M  END
> <s_m_source_file>
AV-unprocessed.smi

> <i_m_source_file_index>
1762

> <i_lp_mmshare_version>
43012

> <i_f3d_flags>
0

> <s_epik_input>
W0NIM11bQ0BASF0xW0NIMl1OKFtDSDJdW0NASF0oTzEpW0NIM10pW0NAQEhdKFtDSF0oW0NIM10pW0NIM10pQyg9TylbTkhdW0NIMl1bQ0gyXWMyW2NIXVtjSF1bY0hdW2NIXW4y

> <s_epik_cmdline>
J2VwaWtfcHl0aG9uJywgJy1waCcsICc3LjAnLCAnLXRuJywgJzgnLCAnLW1hJywgJzIwMCcsICctbWV0YWxfYmluZGluZycsICctaW1hZScsICc8aW5maWxlLm1hZT4nLCAnLW9tYWUnLCAnPG91dGZpbGUubWFlPic=

> <r_epik_Ionization_Penalty>
1.86475

> <r_epik_Ionization_Penalty_Charging>
1.85347

> <r_epik_Ionization_Penalty_Neutral>
0.0112771

> <r_epik_State_Penalty>
1.99714

> <r_epik_Charging_Adjusted_Penalty>
3.85061

> <i_epik_Tot_Q>
1

> <i_epik_Tot_abs_Q>
1

> <r_epik_Metal_State_Penalty>
2.02271

> <b_epik_Metal_Only>
0

> <s_lp_Force_Field>
OPLS_2005

> <r_lp_Energy>
35.2583

> <b_lp_Chiralities_Consistent>
1

> <s_lp_Variant>
AV-unprocessed.smi:1762-11

> <Gold.Version>
5.8.1

> <Gold.Id.Protein>
6NUR|6NUR_protein|mol2

> <Gold.PLP.Fitness>
51.4682

> <Gold.PLP.PLP>
-43.6566

> <Gold.PLP.part.hbond>
-2.1823

> <Gold.PLP.part.metal>
0.0000

> <Gold.PLP.part.buried>
-4.0627

> <Gold.PLP.part.nonpolar>
-35.8144

> <Gold.PLP.part.repulsive>
0.1635

> <Gold.PLP.ligand.clash>
0.0000

> <Gold.PLP.ligand.torsion>
0.5701

> <Gold.PLP.Chemscore.Hbond>
2.8437

> <Gold.PLP.Chemscore.CHOScore>
0.0000

> <Gold.PLP.Chemscore.Metal>
0.0000

> <Gold.Chemscore.Hbonds>
donor molecule, donor type, donor heavy atom, donor atom, acceptor molecule, acceptor atom, score
      L1  H     8    31       P1  8028  0.33
      L1  H    16    53       P1  8029  0.33

> <Gold.PLP.Chemscore.Internal.Correction>
0.4206

> <Gold.Rescore>
     Score         DG    S(hbond)    S(metal)    S(lipo)     H(rot)  DE(clash)    DE(int)     intcor
     15.65     -19.10       1.41        0.00     113.77       1.72       0.53       2.92       ----

> <Gold.Chemscore.Fitness>
15.6458

> <Gold.Chemscore.DG>
-19.0968

> <Gold.Chemscore.ZeroCoef>
-5.4800

> <Gold.Chemscore.Hbond>
1.4079

> <Gold.Chemscore.Metal>
0.0000

> <Gold.Chemscore.Lipo>
113.7695

> <Gold.Chemscore.Internal_Hbond>
0.0000

> <Gold.Chemscore.DEClash>
0.5306

> <Gold.Chemscore.DEInternal>
2.9204

> <Gold.Chemscore.Rot>
1.7174

> <Gold.Chemscore.Internal.Correction>
   9.000000E+99

> <Gold.Chemscore.Hbonds>
donor molecule, donor type, donor heavy atom, donor atom, acceptor molecule, acceptor atom, score
      L1  H     8    31       P1  8028  0.15
      L1  H    16    53       P1  8029  0.18

> <Gold.Chemscore.Hbond.Weighted>
-4.7023

> <Gold.Chemscore.Metal.Weighted>
-0.0000

> <Gold.Chemscore.Lipo.Weighted>
-13.3110

> <Gold.Chemscore.Internal_Hbond.Weighted>
0.0000

> <Gold.Chemscore.DEClash.Weighted>
0.5306

> <Gold.Chemscore.DEInternal.Weighted>
2.9204

> <Gold.Chemscore.Rot.Weighted>
4.3966

> <Gold.Chemscore.Internal.Correction.Weighted>
   9.000000E+99

> <Gold.Protein.RotatedTorsions>
[ 6907 6896 6895 6894 ] final  -17.27 input  -60.11 | X-H torsion
[ 7974 7965 7964 7962 ] final  -59.52 input  175.53 | X-H torsion
[ 8008 7997 7996 7995 ] final  -14.51 input   59.86 | X-H torsion
[ 10167 10162 10161 10158 ] final  -38.22 input  -65.29 | X-H torsion
[ 10718 10713 10712 10709 ] final  166.51 input   66.30 | X-H torsion
[ 10763 10752 10751 10750 ] final  126.17 input  -60.55 | X-H torsion
[ 11005 11000 10999 10996 ] final  -51.02 input  -57.11 | X-H torsion

> <Gold.Protein.ActiveResidues>
 VAL166  LYS551  ARG553  GLY616  TRP617  ASP618  TYR619  PRO620  LYS621  CYS622 
 ASP623  PHE694  ASN695  SER759  ASP760  ASP761  ALA762  ILE779  LEU786  VAL792 
 PHE793  MET794  SER795  GLU796  ALA797  LYS798  CYS799  TRP800  GLU811  SER814 

> <Gold.Protein.RotatedAtoms>
  151.2960  135.0755  159.9220 H   0  0  0  0  0  0  0  0  0  0  0  0  # atno 6907 bound_to 6896
  152.5307  133.9883  159.7849 H   0  0  0  0  0  0  0  0  0  0  0  0  # atno 6908 bound_to 6896
  151.0161  133.5869  159.2707 H   0  0  0  0  0  0  0  0  0  0  0  0  # atno 6909 bound_to 6896
  145.8265  140.8507  143.0106 H   0  0  0  0  0  0  0  0  0  0  0  0  # atno 7974 bound_to 7965
  154.5204  140.2221  155.8986 H   0  0  0  0  0  0  0  0  0  0  0  0  # atno 8008 bound_to 7997
  156.1656  140.3133  155.8847 H   0  0  0  0  0  0  0  0  0  0  0  0  # atno 8009 bound_to 7997
  155.3664  140.0464  157.3036 H   0  0  0  0  0  0  0  0  0  0  0  0  # atno 8010 bound_to 7997
  140.7098  143.3291  151.2610 H   0  0  0  0  0  0  0  0  0  0  0  0  # atno 10167 bound_to 10162
  157.0648  131.0350  151.2634 H   0  0  0  0  0  0  0  0  0  0  0  0  # atno 10718 bound_to 10713
  153.6891  135.3302  155.3197 H   0  0  0  0  0  0  0  0  0  0  0  0  # atno 10763 bound_to 10752
  154.8445  135.4427  154.1527 H   0  0  0  0  0  0  0  0  0  0  0  0  # atno 10764 bound_to 10752
  153.2564  135.6986  153.7702 H   0  0  0  0  0  0  0  0  0  0  0  0  # atno 10765 bound_to 10752
  141.0848  133.6645  156.3817 H   0  0  0  0  0  0  0  0  0  0  0  0  # atno 11005 bound_to 11000
  144.6743  140.0609  143.7476 LP  0  0  0  0  0  0  0  0  0  0  0  0  # atno 17320 bound_to 7965
  145.9618  139.2806  143.1151 LP  0  0  0  0  0  0  0  0  0  0  0  0  # atno 17321 bound_to 7965
  139.6768  143.9923  152.2786 LP  0  0  0  0  0  0  0  0  0  0  0  0  # atno 17342 bound_to 10162
  139.9540  144.6602  150.8144 LP  0  0  0  0  0  0  0  0  0  0  0  0  # atno 17343 bound_to 10162
  157.4926  130.7831  149.7523 LP  0  0  0  0  0  0  0  0  0  0  0  0  # atno 17370 bound_to 10713
  155.9968  130.3904  150.2766 LP  0  0  0  0  0  0  0  0  0  0  0  0  # atno 17371 bound_to 10713
  140.5387  134.6142  157.5373 LP  0  0  0  0  0  0  0  0  0  0  0  0  # atno 17394 bound_to 11000
  139.9665  134.7363  156.0127 LP  0  0  0  0  0  0  0  0  0  0  0  0  # atno 17395 bound_to 11000

$$$$
