AV-unprocessed.smi:2237|AV-procd|sdf|9049|dock5
  -GOLD-   2272012253D 1   1.00000     0.00000
 Structure written by MMmdl.
 55 57  0  0  0  0  0  0  0  0  3 V2000
  153.4212  142.1513  161.0050 C   0  0  0  0  0  0  0  0  0  0  0  0
  152.5357  143.1420  160.2786 C   0  0  0  0  0  0  0  0  0  0  0  0
  152.3412  144.4443  160.7793 C   0  0  0  0  0  0  0  0  0  0  0  0
  151.5023  145.3129  160.0585 C   0  0  0  0  0  0  0  0  0  0  0  0
  150.8980  144.8478  158.8748 C   0  0  0  0  0  0  0  0  0  0  0  0
  151.1458  143.5261  158.4410 C   0  0  0  0  0  0  0  0  0  0  0  0
  150.4918  143.1552  157.2360 N   0  0  0  0  0  0  0  0  0  0  0  0
  150.5106  141.9634  156.6137 C   0  0  0  0  0  0  0  0  0  0  0  0
  151.1096  140.9618  157.0063 O   0  0  0  0  0  0  0  0  0  0  0  0
  149.7800  141.9904  155.4890 N   0  0  0  0  0  0  0  0  0  0  0  0
  149.6015  140.8642  154.5773 C   0  0  2  0  0  0  0  0  0  0  0  0
  148.2429  140.1917  154.8407 C   0  0  0  0  0  0  0  0  0  0  0  0
  148.0786  138.9320  153.9711 C   0  0  0  0  0  0  0  0  0  0  0  0
  149.1658  137.9430  154.2216 N   0  3  2  0  0  0  0  0  0  0  0  0
  149.1181  137.2238  155.5428 C   0  0  2  0  0  0  0  0  0  0  0  0
  150.4108  136.4209  155.8263 C   0  0  0  0  0  0  0  0  0  0  0  0
  150.5444  135.1952  154.9030 C   0  0  0  0  0  0  0  0  0  0  0  0
  149.3698  134.2974  155.0329 N   0  3  2  0  0  0  0  0  0  0  0  0
  149.5087  133.0652  154.2267 C   0  0  0  0  0  0  0  0  0  0  0  0
  148.0920  135.0044  154.7705 C   0  0  0  0  0  0  0  0  0  0  0  0
  147.9407  136.2284  155.6928 C   0  0  0  0  0  0  0  0  0  0  0  0
  150.4824  138.5681  153.9025 C   0  0  0  0  0  0  0  0  0  0  0  0
  150.7446  139.8410  154.7337 C   0  0  0  0  0  0  0  0  0  0  0  0
  151.9558  142.6954  159.1437 N   0  0  0  0  0  0  0  0  0  0  0  0
  153.9464  142.6245  161.8351 H   0  0  0  0  0  0  0  0  0  0  0  0
  154.1657  141.7352  160.3255 H   0  0  0  0  0  0  0  0  0  0  0  0
  152.8224  141.3313  161.4026 H   0  0  0  0  0  0  0  0  0  0  0  0
  152.8190  144.7712  161.6911 H   0  0  0  0  0  0  0  0  0  0  0  0
  151.3243  146.3195  160.4066 H   0  0  0  0  0  0  0  0  0  0  0  0
  150.2510  145.5030  158.3097 H   0  0  0  0  0  0  0  0  0  0  0  0
  149.9487  143.8837  156.7971 H   0  0  0  0  0  0  0  0  0  0  0  0
  149.3227  142.8559  155.2419 H   0  0  0  0  0  0  0  0  0  0  0  0
  149.6008  141.2348  153.5502 H   0  0  0  0  0  0  0  0  0  0  0  0
  148.1473  139.9315  155.8956 H   0  0  0  0  0  0  0  0  0  0  0  0
  147.4363  140.8932  154.6244 H   0  0  0  0  0  0  0  0  0  0  0  0
  147.0887  138.4958  154.0887 H   0  0  0  0  0  0  0  0  0  0  0  0
  148.1225  139.2223  152.9203 H   0  0  0  0  0  0  0  0  0  0  0  0
  149.0024  137.9712  156.3271 H   0  0  0  0  0  0  0  0  0  0  0  0
  151.3054  137.0371  155.7647 H   0  0  0  0  0  0  0  0  0  0  0  0
  150.3869  136.0729  156.8603 H   0  0  0  0  0  0  0  0  0  0  0  0
  150.6533  135.5121  153.8647 H   0  0  0  0  0  0  0  0  0  0  0  0
  151.4496  134.6441  155.1612 H   0  0  0  0  0  0  0  0  0  0  0  0
  149.5513  133.2956  153.1612 H   0  0  0  0  0  0  0  0  0  0  0  0
  148.6653  132.3951  154.3978 H   0  0  0  0  0  0  0  0  0  0  0  0
  150.4185  132.5284  154.4974 H   0  0  0  0  0  0  0  0  0  0  0  0
  148.0466  135.3061  153.7230 H   0  0  0  0  0  0  0  0  0  0  0  0
  147.2597  134.3196  154.9380 H   0  0  0  0  0  0  0  0  0  0  0  0
  147.9167  135.8751  156.7250 H   0  0  0  0  0  0  0  0  0  0  0  0
  146.9729  136.7074  155.5529 H   0  0  0  0  0  0  0  0  0  0  0  0
  151.3066  137.8677  154.0148 H   0  0  0  0  0  0  0  0  0  0  0  0
  150.4814  138.8339  152.8443 H   0  0  0  0  0  0  0  0  0  0  0  0
  151.6879  140.2883  154.4177 H   0  0  0  0  0  0  0  0  0  0  0  0
  150.8763  139.5831  155.7848 H   0  0  0  0  0  0  0  0  0  0  0  0
  149.0293  137.2226  153.5269 H   0  0  0  0  0  0  0  0  0  0  0  0
  149.3402  134.0012  155.9985 H   0  0  0  0  0  0  0  0  0  0  0  0
  1  2  1  0  0  0  0
  1 25  1  0  0  0  0
  1 26  1  0  0  0  0
  1 27  1  0  0  0  0
  2 24  1  0  0  0  0
  2  3  2  0  0  0  0
  3  4  1  0  0  0  0
  3 28  1  0  0  0  0
  4  5  2  0  0  0  0
  4 29  1  0  0  0  0
  5  6  1  0  0  0  0
  5 30  1  0  0  0  0
  6  7  1  0  0  0  0
  6 24  2  0  0  0  0
  7  8  1  0  0  0  0
  7 31  1  0  0  0  0
  8  9  2  0  0  0  0
  8 10  1  0  0  0  0
 10 11  1  0  0  0  0
 10 32  1  0  0  0  0
 11 23  1  0  0  0  0
 11 12  1  0  0  0  0
 11 33  1  0  0  0  0
 12 13  1  0  0  0  0
 12 34  1  0  0  0  0
 12 35  1  0  0  0  0
 13 14  1  0  0  0  0
 13 36  1  0  0  0  0
 13 37  1  0  0  0  0
 14 15  1  0  0  0  0
 14 22  1  0  0  0  0
 14 54  1  0  0  0  0
 15 21  1  0  0  0  0
 15 16  1  0  0  0  0
 15 38  1  0  0  0  0
 16 17  1  0  0  0  0
 16 39  1  0  0  0  0
 16 40  1  0  0  0  0
 17 18  1  0  0  0  0
 17 41  1  0  0  0  0
 17 42  1  0  0  0  0
 18 19  1  0  0  0  0
 18 20  1  0  0  0  0
 18 55  1  0  0  0  0
 19 43  1  0  0  0  0
 19 44  1  0  0  0  0
 19 45  1  0  0  0  0
 20 21  1  0  0  0  0
 20 46  1  0  0  0  0
 20 47  1  0  0  0  0
 21 48  1  0  0  0  0
 21 49  1  0  0  0  0
 22 23  1  0  0  0  0
 22 50  1  0  0  0  0
 22 51  1  0  0  0  0
 23 52  1  0  0  0  0
 23 53  1  0  0  0  0
M  CHG  1  14   1
M  CHG  1  18   1
M  END
> <s_m_source_file>
AV-unprocessed.smi

> <i_m_source_file_index>
2237

> <i_lp_mmshare_version>
43012

> <i_f3d_flags>
0

> <s_epik_input>
W0NIM11jMVtjSF1bY0hdW2NIXWMobjEpW05IXUMoPU8pW05IXVtDSF0yW0NIMl1bQ0gyXU4oW0NIMl1bQ0gyXTIpW0NIXTNbQ0gyXVtDSDJdTihbQ0gzXSlbQ0gyXVtDSDJdMw==

> <s_epik_cmdline>
J2VwaWtfcHl0aG9uJywgJy1waCcsICc3LjAnLCAnLXRuJywgJzgnLCAnLW1hJywgJzIwMCcsICctbWV0YWxfYmluZGluZycsICctaW1hZScsICc8aW5maWxlLm1hZT4nLCAnLW9tYWUnLCAnPG91dGZpbGUubWFlPic=

> <r_epik_Ionization_Penalty>
0.180851

> <r_epik_Ionization_Penalty_Charging>
0.180787

> <r_epik_Ionization_Penalty_Neutral>
6.38624e-05

> <r_epik_State_Penalty>
0.153592

> <r_epik_Charging_Adjusted_Penalty>
0.334379

> <i_epik_Tot_Q>
2

> <i_epik_Tot_abs_Q>
2

> <r_epik_Metal_State_Penalty>
0.153595

> <b_epik_Metal_Only>
0

> <s_lp_Force_Field>
OPLS_2005

> <r_lp_Energy>
48.731

> <b_lp_Chiralities_Consistent>
1

> <s_lp_Variant>
AV-unprocessed.smi:2237-4

> <Gold.Version>
5.8.1

> <Gold.Id.Protein>
6NUR|6NUR_protein|mol2

> <Gold.PLP.Fitness>
50.2766

> <Gold.PLP.PLP>
-45.9180

> <Gold.PLP.part.hbond>
-3.0000

> <Gold.PLP.part.metal>
0.0000

> <Gold.PLP.part.buried>
-4.4525

> <Gold.PLP.part.nonpolar>
-38.6501

> <Gold.PLP.part.repulsive>
0.2082

> <Gold.PLP.ligand.clash>
6.6685

> <Gold.PLP.ligand.torsion>
0.5100

> <Gold.PLP.Chemscore.Hbond>
4.0000

> <Gold.PLP.Chemscore.CHOScore>
0.0000

> <Gold.PLP.Chemscore.Metal>
0.0000

> <Gold.Chemscore.Hbonds>
donor molecule, donor type, donor heavy atom, donor atom, acceptor molecule, acceptor atom, score
      L1  H     7    31       P1  8028  1.00
      L1  H    10    32       P1  8028  1.00
      L1  H    14    54       P1  7948  2.00

> <Gold.PLP.Chemscore.Internal.Correction>
0.0472

> <Gold.Rescore>
     Score         DG    S(hbond)    S(metal)    S(lipo)     H(rot)  DE(clash)    DE(int)     intcor
     21.15     -24.92       2.90        0.00     110.22       1.23       0.26       3.51       ----

> <Gold.Chemscore.Fitness>
21.1479

> <Gold.Chemscore.DG>
-24.9165

> <Gold.Chemscore.ZeroCoef>
-5.4800

> <Gold.Chemscore.Hbond>
2.9007

> <Gold.Chemscore.Metal>
0.0000

> <Gold.Chemscore.Lipo>
110.2192

> <Gold.Chemscore.Internal_Hbond>
0.0000

> <Gold.Chemscore.DEClash>
0.2616

> <Gold.Chemscore.DEInternal>
3.5070

> <Gold.Chemscore.Rot>
1.2295

> <Gold.Chemscore.Internal.Correction>
   9.000000E+99

> <Gold.Chemscore.Hbonds>
donor molecule, donor type, donor heavy atom, donor atom, acceptor molecule, acceptor atom, score
      L1  H     7    31       P1  8028  0.99
      L1  H    10    32       P1  8028  0.94
      L1  H    14    54       P1  7948  0.99

> <Gold.Chemscore.Hbond.Weighted>
-9.6883

> <Gold.Chemscore.Metal.Weighted>
-0.0000

> <Gold.Chemscore.Lipo.Weighted>
-12.8956

> <Gold.Chemscore.Internal_Hbond.Weighted>
0.0000

> <Gold.Chemscore.DEClash.Weighted>
0.2616

> <Gold.Chemscore.DEInternal.Weighted>
3.5070

> <Gold.Chemscore.Rot.Weighted>
3.1474

> <Gold.Chemscore.Internal.Correction.Weighted>
   9.000000E+99

> <Gold.Protein.RotatedTorsions>
[ 6907 6896 6895 6894 ] final  -29.22 input  -60.11 | X-H torsion
[ 7974 7965 7964 7962 ] final  129.88 input  175.53 | X-H torsion
[ 8008 7997 7996 7995 ] final   25.10 input   59.86 | X-H torsion
[ 10167 10162 10161 10158 ] final  -22.43 input  -65.29 | X-H torsion
[ 10718 10713 10712 10709 ] final   77.53 input   66.30 | X-H torsion
[ 10763 10752 10751 10750 ] final  -27.95 input  -60.55 | X-H torsion
[ 11005 11000 10999 10996 ] final  -32.73 input  -57.11 | X-H torsion

> <Gold.Protein.ActiveResidues>
 VAL166  LYS551  ARG553  GLY616  TRP617  ASP618  TYR619  PRO620  LYS621  CYS622 
 ASP623  PHE694  ASN695  SER759  ASP760  ASP761  ALA762  ILE779  LEU786  VAL792 
 PHE793  MET794  SER795  GLU796  ALA797  LYS798  CYS799  TRP800  GLU811  SER814 

> <Gold.Protein.RotatedAtoms>
  151.1221  135.0085  159.8543 H   0  0  0  0  0  0  0  0  0  0  0  0  # atno 6907 bound_to 6896
  152.5448  134.1710  159.8607 H   0  0  0  0  0  0  0  0  0  0  0  0  # atno 6908 bound_to 6896
  151.1769  133.4704  159.2627 H   0  0  0  0  0  0  0  0  0  0  0  0  # atno 6909 bound_to 6896
  145.0239  139.4107  143.5184 H   0  0  0  0  0  0  0  0  0  0  0  0  # atno 7974 bound_to 7965
  155.0065  140.3131  155.4846 H   0  0  0  0  0  0  0  0  0  0  0  0  # atno 8008 bound_to 7997
  156.2916  140.2222  156.5118 H   0  0  0  0  0  0  0  0  0  0  0  0  # atno 8009 bound_to 7997
  154.7572  140.0462  157.0931 H   0  0  0  0  0  0  0  0  0  0  0  0  # atno 8010 bound_to 7997
  140.7286  143.4536  151.0481 H   0  0  0  0  0  0  0  0  0  0  0  0  # atno 10167 bound_to 10162
  157.6713  130.9826  150.1654 H   0  0  0  0  0  0  0  0  0  0  0  0  # atno 10718 bound_to 10713
  153.7404  135.6933  153.4968 H   0  0  0  0  0  0  0  0  0  0  0  0  # atno 10763 bound_to 10752
  153.2073  135.4415  155.0337 H   0  0  0  0  0  0  0  0  0  0  0  0  # atno 10764 bound_to 10752
  154.8222  135.3428  154.6930 H   0  0  0  0  0  0  0  0  0  0  0  0  # atno 10765 bound_to 10752
  140.9576  133.7183  156.1318 H   0  0  0  0  0  0  0  0  0  0  0  0  # atno 11005 bound_to 11000
  146.3489  139.9752  142.8702 LP  0  0  0  0  0  0  0  0  0  0  0  0  # atno 17320 bound_to 7965
  145.1859  140.9789  143.4239 LP  0  0  0  0  0  0  0  0  0  0  0  0  # atno 17321 bound_to 7965
  139.8214  143.7815  152.3177 LP  0  0  0  0  0  0  0  0  0  0  0  0  # atno 17342 bound_to 10162
  139.7899  144.7414  150.9970 LP  0  0  0  0  0  0  0  0  0  0  0  0  # atno 17343 bound_to 10162
  156.2421  130.3692  149.8326 LP  0  0  0  0  0  0  0  0  0  0  0  0  # atno 17370 bound_to 10713
  156.6123  130.8592  151.3457 LP  0  0  0  0  0  0  0  0  0  0  0  0  # atno 17371 bound_to 10713
  140.7513  134.4041  157.5541 LP  0  0  0  0  0  0  0  0  0  0  0  0  # atno 17394 bound_to 11000
  139.8867  134.8902  156.2568 LP  0  0  0  0  0  0  0  0  0  0  0  0  # atno 17395 bound_to 11000

$$$$
