AV-unprocessed.smi:1393|AV-procd|sdf|5663|dock5
  -GOLD-   22720 5283D 1   1.00000     0.00000
 Structure written by MMmdl.
 39 40  0  0  0  0  0  0  0  0  1 V2000
  150.7398  140.7717  157.6701 O   0  0  0  0  0  0  0  0  0  0  0  0
  150.6470  141.9197  157.2326 C   0  0  0  0  0  0  0  0  0  0  0  0
  151.5508  143.0447  157.7578 C   0  0  0  0  0  0  0  0  0  0  0  0
  152.1341  142.7650  159.0813 N   0  0  0  0  0  0  0  0  0  0  0  0
  151.8468  143.6817  160.1082 C   0  0  0  0  0  0  0  0  0  0  0  0
  152.3222  143.5215  161.3504 C   0  0  0  0  0  0  0  0  0  0  0  0
  153.1450  142.3682  161.6223 C   0  0  0  0  0  0  0  0  0  0  0  0
  153.4386  141.4684  160.6549 C   0  0  0  0  0  0  0  0  0  0  0  0
  154.2956  140.2349  160.9298 C   0  0  0  0  0  0  0  0  0  0  0  0
  155.4594  140.3241  160.2849 F   0  0  0  0  0  0  0  0  0  0  0  0
  154.5590  140.0947  162.2298 F   0  0  0  0  0  0  0  0  0  0  0  0
  153.6756  139.1275  160.5197 F   0  0  0  0  0  0  0  0  0  0  0  0
  152.9131  141.6578  159.2872 C   0  0  0  0  0  0  0  0  0  0  0  0
  153.1561  140.8693  158.3719 O   0  0  0  0  0  0  0  0  0  0  0  0
  149.7630  142.2778  156.2890 N   0  0  0  0  0  0  0  0  0  0  0  0
  148.7921  141.3936  155.6439 C   0  0  2  0  0  0  0  0  0  0  0  0
  147.8793  140.7201  156.7031 C   0  0  0  0  0  0  0  0  0  0  0  0
  147.2854  139.3485  156.3190 C   0  0  0  0  0  0  0  0  0  0  0  0
  146.4897  139.3144  154.9984 C   0  0  0  0  0  0  0  0  0  0  0  0
  147.2105  139.8579  153.7425 C   0  0  0  0  0  0  0  0  0  0  0  0
  148.6678  139.7524  153.7985 N   0  0  0  0  0  0  0  0  0  0  0  0
  149.4636  140.4394  154.6363 C   0  0  0  0  0  0  0  0  0  0  0  0
  150.6863  140.3022  154.6161 O   0  0  0  0  0  0  0  0  0  0  0  0
  152.3423  143.2343  157.0302 H   0  0  0  0  0  0  0  0  0  0  0  0
  150.9659  143.9652  157.7858 H   0  0  0  0  0  0  0  0  0  0  0  0
  151.2170  144.5123  159.8243 H   0  0  0  0  0  0  0  0  0  0  0  0
  152.0913  144.2336  162.1290 H   0  0  0  0  0  0  0  0  0  0  0  0
  153.5230  142.2334  162.6246 H   0  0  0  0  0  0  0  0  0  0  0  0
  149.7499  143.2444  155.9966 H   0  0  0  0  0  0  0  0  0  0  0  0
  148.1585  142.0388  155.0340 H   0  0  0  0  0  0  0  0  0  0  0  0
  148.4419  140.5816  157.6276 H   0  0  0  0  0  0  0  0  0  0  0  0
  147.0686  141.4046  156.9561 H   0  0  0  0  0  0  0  0  0  0  0  0
  148.0854  138.6078  156.2769 H   0  0  0  0  0  0  0  0  0  0  0  0
  146.6342  139.0119  157.1261 H   0  0  0  0  0  0  0  0  0  0  0  0
  146.2085  138.2773  154.8117 H   0  0  0  0  0  0  0  0  0  0  0  0
  145.5497  139.8522  155.1248 H   0  0  0  0  0  0  0  0  0  0  0  0
  146.8594  139.3221  152.8605 H   0  0  0  0  0  0  0  0  0  0  0  0
  146.9325  140.8988  153.5734 H   0  0  0  0  0  0  0  0  0  0  0  0
  149.1055  139.1180  153.1461 H   0  0  0  0  0  0  0  0  0  0  0  0
  1  2  2  0  0  0  0
  2  3  1  0  0  0  0
  2 15  1  0  0  0  0
  3  4  1  0  0  0  0
  3 24  1  0  0  0  0
  3 25  1  0  0  0  0
  4 13  1  0  0  0  0
  4  5  1  0  0  0  0
  5  6  2  0  0  0  0
  5 26  1  0  0  0  0
  6  7  1  0  0  0  0
  6 27  1  0  0  0  0
  7  8  2  0  0  0  0
  7 28  1  0  0  0  0
  8  9  1  0  0  0  0
  8 13  1  0  0  0  0
  9 10  1  0  0  0  0
  9 11  1  0  0  0  0
  9 12  1  0  0  0  0
 13 14  2  0  0  0  0
 15 16  1  0  0  0  0
 15 29  1  0  0  0  0
 16 22  1  0  0  0  0
 16 17  1  0  0  0  0
 16 30  1  0  0  0  0
 17 18  1  0  0  0  0
 17 31  1  0  0  0  0
 17 32  1  0  0  0  0
 18 19  1  0  0  0  0
 18 33  1  0  0  0  0
 18 34  1  0  0  0  0
 19 20  1  0  0  0  0
 19 35  1  0  0  0  0
 19 36  1  0  0  0  0
 20 21  1  0  0  0  0
 20 37  1  0  0  0  0
 20 38  1  0  0  0  0
 21 22  1  0  0  0  0
 21 39  1  0  0  0  0
 22 23  2  0  0  0  0
M  END
> <s_m_source_file>
AV-unprocessed.smi

> <i_m_source_file_index>
1393

> <i_lp_mmshare_version>
43012

> <i_f3d_flags>
0

> <s_epik_input>
RkMoRikoRiljKGMxPU8pW2NIXVtjSF1bY0hdbjFbQ0gyXUMoPU8pW05IXVtDQEBIXTJbQ0gyXVtDSDJdW0NIMl1bQ0gyXVtOSF1DMj1P

> <s_epik_cmdline>
J2VwaWtfcHl0aG9uJywgJy1waCcsICc3LjAnLCAnLXRuJywgJzgnLCAnLW1hJywgJzIwMCcsICctbWV0YWxfYmluZGluZycsICctaW1hZScsICc8aW5maWxlLm1hZT4nLCAnLW9tYWUnLCAnPG91dGZpbGUubWFlPic=

> <r_lp_tautomer_probability>
1

> <r_epik_Ionization_Penalty>
5.5009e-08

> <r_epik_Ionization_Penalty_Charging>
1.68727e-09

> <r_epik_Ionization_Penalty_Neutral>
5.33217e-08

> <r_epik_State_Penalty>
-0

> <r_epik_Charging_Adjusted_Penalty>
1.68727e-09

> <i_epik_Tot_Q>
0

> <i_epik_Tot_abs_Q>
0

> <r_epik_Metal_State_Penalty>
-0

> <b_epik_Metal_Only>
0

> <s_lp_Force_Field>
OPLS_2005

> <r_lp_Energy>
24.6208

> <b_lp_Chiralities_Consistent>
1

> <s_lp_Variant>
AV-unprocessed.smi:1393-1

> <Gold.Version>
5.8.1

> <Gold.Id.Protein>
6NUR|6NUR_protein|mol2

> <Gold.PLP.Fitness>
51.1453

> <Gold.PLP.PLP>
-43.7051

> <Gold.PLP.part.hbond>
-3.8937

> <Gold.PLP.part.metal>
0.0000

> <Gold.PLP.part.buried>
-3.0051

> <Gold.PLP.part.nonpolar>
-36.5897

> <Gold.PLP.part.repulsive>
0.2822

> <Gold.PLP.ligand.clash>
0.1678

> <Gold.PLP.ligand.torsion>
0.5608

> <Gold.PLP.Chemscore.Hbond>
2.7795

> <Gold.PLP.Chemscore.CHOScore>
0.0000

> <Gold.PLP.Chemscore.Metal>
0.0000

> <Gold.Chemscore.Hbonds>
donor molecule, donor type, donor heavy atom, donor atom, acceptor molecule, acceptor atom, score
      L1  H    15    29       P1  8028  1.00
      L1  H    21    39       P1  7957  0.14
      P1  H  7989  7998       L1    23  1.00
      P1  H  7997  8008       L1    14  0.47

> <Gold.PLP.Chemscore.Internal.Correction>
0.3912

> <Gold.Rescore>
     Score         DG    S(hbond)    S(metal)    S(lipo)     H(rot)  DE(clash)    DE(int)     intcor
      9.96     -19.14       2.76        0.00      75.48       1.72       0.37       8.81       ----

> <Gold.Chemscore.Fitness>
9.9583

> <Gold.Chemscore.DG>
-19.1353

> <Gold.Chemscore.ZeroCoef>
-5.4800

> <Gold.Chemscore.Hbond>
2.7636

> <Gold.Chemscore.Metal>
0.0000

> <Gold.Chemscore.Lipo>
75.4791

> <Gold.Chemscore.Internal_Hbond>
0.0000

> <Gold.Chemscore.DEClash>
0.3708

> <Gold.Chemscore.DEInternal>
8.8061

> <Gold.Chemscore.Rot>
1.7212

> <Gold.Chemscore.Internal.Correction>
   9.000000E+99

> <Gold.Chemscore.Hbonds>
donor molecule, donor type, donor heavy atom, donor atom, acceptor molecule, acceptor atom, score
      L1  H    15    29       P1  8028  0.95
      L1  H    21    39       P1  7957  0.14
      P1  H  7989  7998       L1    23  0.96
      P1  H  7997  8008       L1    14  0.46

> <Gold.Chemscore.Hbond.Weighted>
-9.2305

> <Gold.Chemscore.Metal.Weighted>
-0.0000

> <Gold.Chemscore.Lipo.Weighted>
-8.8311

> <Gold.Chemscore.Internal_Hbond.Weighted>
0.0000

> <Gold.Chemscore.DEClash.Weighted>
0.3708

> <Gold.Chemscore.DEInternal.Weighted>
8.8061

> <Gold.Chemscore.Rot.Weighted>
4.4062

> <Gold.Chemscore.Internal.Correction.Weighted>
   9.000000E+99

> <Gold.Protein.RotatedTorsions>
[ 6907 6896 6895 6894 ] final  138.85 input  -60.11 | X-H torsion
[ 7974 7965 7964 7962 ] final    0.14 input  175.53 | X-H torsion
[ 8008 7997 7996 7995 ] final  -88.16 input   59.86 | X-H torsion
[ 10167 10162 10161 10158 ] final -166.69 input  -65.29 | X-H torsion
[ 10718 10713 10712 10709 ] final   23.99 input   66.30 | X-H torsion
[ 10763 10752 10751 10750 ] final  -66.23 input  -60.55 | X-H torsion
[ 11005 11000 10999 10996 ] final -118.12 input  -57.11 | X-H torsion

> <Gold.Protein.ActiveResidues>
 VAL166  LYS551  ARG553  GLY616  TRP617  ASP618  TYR619  PRO620  LYS621  CYS622 
 ASP623  PHE694  ASN695  SER759  ASP760  ASP761  ALA762  ILE779  LEU786  VAL792 
 PHE793  MET794  SER795  GLU796  ALA797  LYS798  CYS799  TRP800  GLU811  SER814 

> <Gold.Protein.RotatedAtoms>
  152.2618  133.5304  159.5386 H   0  0  0  0  0  0  0  0  0  0  0  0  # atno 6907 bound_to 6896
  150.7128  134.0818  159.3910 H   0  0  0  0  0  0  0  0  0  0  0  0  # atno 6908 bound_to 6896
  151.8736  135.0480  160.0532 H   0  0  0  0  0  0  0  0  0  0  0  0  # atno 6909 bound_to 6896
  146.2432  140.1183  142.8341 H   0  0  0  0  0  0  0  0  0  0  0  0  # atno 7974 bound_to 7965
  154.6716  140.0557  157.0171 H   0  0  0  0  0  0  0  0  0  0  0  0  # atno 8008 bound_to 7997
  155.1080  140.3235  155.4510 H   0  0  0  0  0  0  0  0  0  0  0  0  # atno 8009 bound_to 7997
  156.2659  140.2019  156.6205 H   0  0  0  0  0  0  0  0  0  0  0  0  # atno 8010 bound_to 7997
  139.6098  144.0837  152.1830 H   0  0  0  0  0  0  0  0  0  0  0  0  # atno 10167 bound_to 10162
  157.1736  130.6771  149.6087 H   0  0  0  0  0  0  0  0  0  0  0  0  # atno 10718 bound_to 10713
  154.3568  135.6124  153.5670 H   0  0  0  0  0  0  0  0  0  0  0  0  # atno 10763 bound_to 10752
  152.9795  135.5805  154.4680 H   0  0  0  0  0  0  0  0  0  0  0  0  # atno 10764 bound_to 10752
  154.4410  135.2850  155.1825 H   0  0  0  0  0  0  0  0  0  0  0  0  # atno 10765 bound_to 10752
  141.0308  133.9984  157.3146 H   0  0  0  0  0  0  0  0  0  0  0  0  # atno 11005 bound_to 11000
  145.0428  140.8959  143.5042 LP  0  0  0  0  0  0  0  0  0  0  0  0  # atno 17320 bound_to 7965
  145.1266  139.2659  143.5561 LP  0  0  0  0  0  0  0  0  0  0  0  0  # atno 17321 bound_to 7965
  140.0453  144.5975  150.7378 LP  0  0  0  0  0  0  0  0  0  0  0  0  # atno 17342 bound_to 10162
  140.7311  143.2691  151.3948 LP  0  0  0  0  0  0  0  0  0  0  0  0  # atno 17343 bound_to 10162
  155.9734  130.4670  150.6311 LP  0  0  0  0  0  0  0  0  0  0  0  0  # atno 17370 bound_to 10713
  157.4020  131.0811  151.1300 LP  0  0  0  0  0  0  0  0  0  0  0  0  # atno 17371 bound_to 10713
  139.9206  135.0200  156.8051 LP  0  0  0  0  0  0  0  0  0  0  0  0  # atno 17394 bound_to 11000
  140.6410  133.9818  155.7708 LP  0  0  0  0  0  0  0  0  0  0  0  0  # atno 17395 bound_to 11000

$$$$
