AV-unprocessed.smi:3029|AV-procd|sdf|11532|dock5
  -GOLD-   2272016473D 1   1.00000     0.00000
 Structure written by MMmdl.
 41 42  0  0  0  0  0  0  0  0  3 V2000
  147.4773  141.3327  154.5334 O   0  0  0  0  0  0  0  0  0  0  0  0
  148.5019  140.6509  154.5028 C   0  0  0  0  0  0  0  0  0  0  0  0
  149.6935  141.0088  155.2794 C   0  0  0  0  0  0  0  0  0  0  0  0
  150.8163  140.2651  155.2377 C   0  0  0  0  0  0  0  0  0  0  0  0
  150.8791  139.0741  154.4132 C   0  0  0  0  0  0  0  0  0  0  0  0
  152.0811  138.2719  154.3549 N   0  3  0  0  0  0  0  0  0  0  0  0
  152.0203  137.1417  153.8800 O   0  0  0  0  0  0  0  0  0  0  0  0
  153.1275  138.7478  154.7834 O   0  5  0  0  0  0  0  0  0  0  0  0
  149.7822  138.7461  153.7029 C   0  0  0  0  0  0  0  0  0  0  0  0
  148.6055  139.5187  153.7419 N   0  0  0  0  0  0  0  0  0  0  0  0
  147.4893  139.0591  152.9007 C   0  0  0  0  0  0  0  0  0  0  0  0
  146.3752  138.3974  153.7322 C   0  0  0  0  0  0  0  0  0  0  0  0
  145.2293  138.0887  152.8890 N   0  0  0  0  0  0  0  0  0  0  0  0
  144.4496  136.9620  153.3869 C   0  0  1  0  0  0  0  0  0  0  0  0
  143.3471  137.5177  154.3182 C   0  0  0  0  0  0  0  0  0  0  0  0
  142.3858  136.4217  154.7923 C   0  0  0  0  0  0  0  0  0  0  0  0
  141.7608  135.6992  153.5954 C   0  0  0  0  0  0  0  0  0  0  0  0
  142.8499  135.1073  152.6917 C   0  0  0  0  0  0  0  0  0  0  0  0
  143.8500  136.1742  152.1855 C   0  0  2  0  0  0  0  0  0  0  0  0
  144.9269  135.5047  151.2911 C   0  0  0  0  0  0  0  0  0  0  0  0
  145.6604  134.6474  152.0020 F   0  0  0  0  0  0  0  0  0  0  0  0
  144.3393  134.8386  150.2968 F   0  0  0  0  0  0  0  0  0  0  0  0
  145.7396  136.4049  150.7383 F   0  0  0  0  0  0  0  0  0  0  0  0
  149.6687  141.8930  155.8991 H   0  0  0  0  0  0  0  0  0  0  0  0
  151.6688  140.5699  155.8271 H   0  0  0  0  0  0  0  0  0  0  0  0
  149.7262  137.8832  153.0547 H   0  0  0  0  0  0  0  0  0  0  0  0
  147.0733  139.9213  152.3774 H   0  0  0  0  0  0  0  0  0  0  0  0
  147.8187  138.3873  152.1062 H   0  0  0  0  0  0  0  0  0  0  0  0
  146.7482  137.4890  154.2072 H   0  0  0  0  0  0  0  0  0  0  0  0
  146.0685  139.0743  154.5291 H   0  0  0  0  0  0  0  0  0  0  0  0
  144.6430  138.9017  152.7627 H   0  0  0  0  0  0  0  0  0  0  0  0
  145.0952  136.2859  153.9494 H   0  0  0  0  0  0  0  0  0  0  0  0
  143.7880  137.9999  155.1906 H   0  0  0  0  0  0  0  0  0  0  0  0
  142.7761  138.2884  153.7977 H   0  0  0  0  0  0  0  0  0  0  0  0
  142.9211  135.7068  155.4183 H   0  0  0  0  0  0  0  0  0  0  0  0
  141.6036  136.8564  155.4154 H   0  0  0  0  0  0  0  0  0  0  0  0
  141.0967  134.9079  153.9444 H   0  0  0  0  0  0  0  0  0  0  0  0
  141.1435  136.3935  153.0239 H   0  0  0  0  0  0  0  0  0  0  0  0
  143.3863  134.3320  153.2400 H   0  0  0  0  0  0  0  0  0  0  0  0
  142.3737  134.6089  151.8473 H   0  0  0  0  0  0  0  0  0  0  0  0
  143.2894  136.8751  151.5643 H   0  0  0  0  0  0  0  0  0  0  0  0
  1  2  2  0  0  0  0
  2 10  1  0  0  0  0
  2  3  1  0  0  0  0
  3  4  2  0  0  0  0
  3 24  1  0  0  0  0
  4  5  1  0  0  0  0
  4 25  1  0  0  0  0
  5  6  1  0  0  0  0
  5  9  2  0  0  0  0
  6  7  2  0  0  0  0
  6  8  1  0  0  0  0
  9 10  1  0  0  0  0
  9 26  1  0  0  0  0
 10 11  1  0  0  0  0
 11 12  1  0  0  0  0
 11 27  1  0  0  0  0
 11 28  1  0  0  0  0
 12 13  1  0  0  0  0
 12 29  1  0  0  0  0
 12 30  1  0  0  0  0
 13 14  1  0  0  0  0
 13 31  1  0  0  0  0
 14 19  1  0  0  0  0
 14 15  1  0  0  0  0
 14 32  1  0  0  0  0
 15 16  1  0  0  0  0
 15 33  1  0  0  0  0
 15 34  1  0  0  0  0
 16 17  1  0  0  0  0
 16 35  1  0  0  0  0
 16 36  1  0  0  0  0
 17 18  1  0  0  0  0
 17 37  1  0  0  0  0
 17 38  1  0  0  0  0
 18 19  1  0  0  0  0
 18 39  1  0  0  0  0
 18 40  1  0  0  0  0
 19 20  1  0  0  0  0
 19 41  1  0  0  0  0
 20 21  1  0  0  0  0
 20 22  1  0  0  0  0
 20 23  1  0  0  0  0
M  CHG  1   6   1
M  CHG  1   8  -1
M  END
> <s_m_source_file>
AV-unprocessed.smi

> <i_m_source_file_index>
3029

> <i_lp_mmshare_version>
43012

> <i_f3d_flags>
0

> <s_epik_input>
Tz1jMVtjSF1bY0hdYyhbTitdKD1PKVtPLV0pW2NIXW4xW0NIMl1bQ0gyXVtOSF1bQ0BASF0yW0NIMl1bQ0gyXVtDSDJdW0NIMl1bQ0BIXTJDKEYpKEYpRg==

> <s_epik_cmdline>
J2VwaWtfcHl0aG9uJywgJy1waCcsICc3LjAnLCAnLXRuJywgJzgnLCAnLW1hJywgJzIwMCcsICctbWV0YWxfYmluZGluZycsICctaW1hZScsICc8aW5maWxlLm1hZT4nLCAnLW9tYWUnLCAnPG91dGZpbGUubWFlPic=

> <r_lp_tautomer_probability>
1

> <r_epik_Ionization_Penalty>
1.65565

> <r_epik_Ionization_Penalty_Charging>
3.32684e-10

> <r_epik_Ionization_Penalty_Neutral>
1.65565

> <r_epik_State_Penalty>
1.75811

> <r_epik_Charging_Adjusted_Penalty>
1.75811

> <i_epik_Tot_Q>
0

> <i_epik_Tot_abs_Q>
2

> <r_epik_Metal_State_Penalty>
1.75811

> <b_epik_Metal_Only>
0

> <s_lp_Force_Field>
OPLS_2005

> <r_lp_Energy>
36.7279

> <b_lp_Chiralities_Consistent>
1

> <s_lp_Variant>
AV-unprocessed.smi:3029-8

> <Gold.Version>
5.8.1

> <Gold.Id.Protein>
6NUR|6NUR_protein|mol2

> <Gold.PLP.Fitness>
51.5295

> <Gold.PLP.PLP>
-41.3854

> <Gold.PLP.part.hbond>
-3.0000

> <Gold.PLP.part.metal>
0.0000

> <Gold.PLP.part.buried>
-2.1121

> <Gold.PLP.part.nonpolar>
-36.3439

> <Gold.PLP.part.repulsive>
0.2783

> <Gold.PLP.ligand.clash>
0.0000

> <Gold.PLP.ligand.torsion>
0.9001

> <Gold.PLP.Chemscore.Hbond>
2.9600

> <Gold.PLP.Chemscore.CHOScore>
1.0000

> <Gold.PLP.Chemscore.Metal>
0.0000

> <Gold.Chemscore.Hbonds>
donor molecule, donor type, donor heavy atom, donor atom, acceptor molecule, acceptor atom, score
      L1  H    13    31       P1 10175  1.00
      P1  H  7997  8010       L1     8  0.10
      P1  H 10752 10763       L1     7  0.93
      L1  C     9    26       P1  7948  1.00

> <Gold.PLP.Chemscore.Internal.Correction>
0.0643

> <Gold.Rescore>
     Score         DG    S(hbond)    S(metal)    S(lipo)     H(rot)  DE(clash)    DE(int)     intcor
     12.30     -15.02       1.97        0.00      65.98       1.86       0.31       2.41       ----

> <Gold.Chemscore.Fitness>
12.2981

> <Gold.Chemscore.DG>
-15.0188

> <Gold.Chemscore.ZeroCoef>
-5.4800

> <Gold.Chemscore.Hbond>
1.9692

> <Gold.Chemscore.Metal>
0.0000

> <Gold.Chemscore.Lipo>
65.9775

> <Gold.Chemscore.Internal_Hbond>
0.0000

> <Gold.Chemscore.DEClash>
0.3080

> <Gold.Chemscore.DEInternal>
2.4128

> <Gold.Chemscore.Rot>
1.8584

> <Gold.Chemscore.Internal.Correction>
   9.000000E+99

> <Gold.Chemscore.Hbonds>
donor molecule, donor type, donor heavy atom, donor atom, acceptor molecule, acceptor atom, score
      L1  H    13    31       P1 10175  1.00
      P1  H  7997  8010       L1     8  0.11
      P1  H 10752 10763       L1     7  0.91

> <Gold.Chemscore.Hbond.Weighted>
-6.5770

> <Gold.Chemscore.Metal.Weighted>
-0.0000

> <Gold.Chemscore.Lipo.Weighted>
-7.7194

> <Gold.Chemscore.Internal_Hbond.Weighted>
0.0000

> <Gold.Chemscore.DEClash.Weighted>
0.3080

> <Gold.Chemscore.DEInternal.Weighted>
2.4128

> <Gold.Chemscore.Rot.Weighted>
4.7576

> <Gold.Chemscore.Internal.Correction.Weighted>
   9.000000E+99

> <Gold.Protein.RotatedTorsions>
[ 6907 6896 6895 6894 ] final  170.77 input  -60.11 | X-H torsion
[ 7974 7965 7964 7962 ] final   70.62 input  175.53 | X-H torsion
[ 8008 7997 7996 7995 ] final   77.17 input   59.86 | X-H torsion
[ 10167 10162 10161 10158 ] final -122.38 input  -65.29 | X-H torsion
[ 10718 10713 10712 10709 ] final   -8.73 input   66.30 | X-H torsion
[ 10763 10752 10751 10750 ] final   43.52 input  -60.55 | X-H torsion
[ 11005 11000 10999 10996 ] final -177.61 input  -57.11 | X-H torsion

> <Gold.Protein.ActiveResidues>
 VAL166  LYS551  ARG553  GLY616  TRP617  ASP618  TYR619  PRO620  LYS621  CYS622 
 ASP623  PHE694  ASN695  SER759  ASP760  ASP761  ALA762  ILE779  LEU786  VAL792 
 PHE793  MET794  SER795  GLU796  ALA797  LYS798  CYS799  TRP800  GLU811  SER814 

> <Gold.Protein.RotatedAtoms>
  151.8108  133.3381  159.3554 H   0  0  0  0  0  0  0  0  0  0  0  0  # atno 6907 bound_to 6896
  150.7326  134.5665  159.5878 H   0  0  0  0  0  0  0  0  0  0  0  0  # atno 6908 bound_to 6896
  152.3076  134.7537  160.0395 H   0  0  0  0  0  0  0  0  0  0  0  0  # atno 6909 bound_to 6896
  145.7759  139.2864  143.1294 H   0  0  0  0  0  0  0  0  0  0  0  0  # atno 7974 bound_to 7965
  155.8378  140.3463  155.5612 H   0  0  0  0  0  0  0  0  0  0  0  0  # atno 8008 bound_to 7997
  155.8173  140.0907  157.1889 H   0  0  0  0  0  0  0  0  0  0  0  0  # atno 8009 bound_to 7997
  154.4004  140.1436  156.3446 H   0  0  0  0  0  0  0  0  0  0  0  0  # atno 8010 bound_to 7997
  140.0149  143.5403  152.2246 H   0  0  0  0  0  0  0  0  0  0  0  0  # atno 10167 bound_to 10162
  156.6984  130.5086  149.5924 H   0  0  0  0  0  0  0  0  0  0  0  0  # atno 10718 bound_to 10713
  152.9859  135.6099  154.3125 H   0  0  0  0  0  0  0  0  0  0  0  0  # atno 10763 bound_to 10752
  154.2839  135.2776  155.2687 H   0  0  0  0  0  0  0  0  0  0  0  0  # atno 10764 bound_to 10752
  154.5013  135.5866  153.6589 H   0  0  0  0  0  0  0  0  0  0  0  0  # atno 10765 bound_to 10752
  140.4390  134.6449  157.4748 H   0  0  0  0  0  0  0  0  0  0  0  0  # atno 11005 bound_to 11000
  146.0123  140.8424  142.9964 LP  0  0  0  0  0  0  0  0  0  0  0  0  # atno 17320 bound_to 7965
  144.6804  140.2508  143.7332 LP  0  0  0  0  0  0  0  0  0  0  0  0  # atno 17321 bound_to 7965
  139.6179  144.7623  151.2805 LP  0  0  0  0  0  0  0  0  0  0  0  0  # atno 17342 bound_to 10162
  140.7366  143.6702  150.8088 LP  0  0  0  0  0  0  0  0  0  0  0  0  # atno 17343 bound_to 10162
  156.1747  130.6460  151.0880 LP  0  0  0  0  0  0  0  0  0  0  0  0  # atno 17370 bound_to 10713
  157.6982  131.0786  150.6902 LP  0  0  0  0  0  0  0  0  0  0  0  0  # atno 17371 bound_to 10713
  140.0083  134.6730  155.9421 LP  0  0  0  0  0  0  0  0  0  0  0  0  # atno 17394 bound_to 11000
  141.1714  133.6537  156.4664 LP  0  0  0  0  0  0  0  0  0  0  0  0  # atno 17395 bound_to 11000

$$$$
