AV-unprocessed.smi:3116|AV-procd|sdf|11865|dock1
  -GOLD-   2272017243D 1   1.00000     0.00000
 Structure written by MMmdl.
 34 34  0  0  0  0  0  0  0  0  2 V2000
  148.9608  133.5052  154.1091 C   0  0  0  0  0  0  0  0  0  0  0  0
  148.6376  134.7914  154.8844 C   0  0  1  0  0  0  0  0  0  0  0  0
  149.5351  135.8815  154.4348 N   0  3  0  0  0  0  0  0  0  0  0  0
  149.2399  137.2338  154.9707 C   0  0  1  0  0  0  0  0  0  0  0  0
  149.4828  137.2467  156.4921 C   0  0  0  0  0  0  0  0  0  0  0  0
  150.0879  138.2956  154.2220 C   0  0  2  0  0  0  0  0  0  0  0  0
  151.5667  138.3173  154.6543 C   0  0  0  0  0  0  0  0  0  0  0  0
  149.5060  139.6249  154.3775 N   0  0  0  0  0  0  0  0  0  0  0  0
  148.2539  140.0745  154.0047 C   0  0  0  0  0  0  0  0  0  0  0  0
  148.1858  141.4019  154.3167 C   0  0  0  0  0  0  0  0  0  0  0  0
  149.4645  141.6847  154.8711 C   0  0  0  0  0  0  0  0  0  0  0  0
  150.2538  140.6229  154.8984 N   0  0  0  0  0  0  0  0  0  0  0  0
  147.1605  135.1627  154.6901 C   0  0  0  0  0  0  0  0  0  0  0  0
  146.7613  135.4443  153.4472 N   0  0  0  0  0  0  0  0  0  0  0  0
  146.3921  135.2090  155.6489 O   0  0  0  0  0  0  0  0  0  0  0  0
  148.3294  132.6767  154.4334 H   0  0  0  0  0  0  0  0  0  0  0  0
  149.9971  133.2041  154.2666 H   0  0  0  0  0  0  0  0  0  0  0  0
  148.8135  133.6350  153.0358 H   0  0  0  0  0  0  0  0  0  0  0  0
  148.8181  134.5990  155.9428 H   0  0  0  0  0  0  0  0  0  0  0  0
  150.4861  135.6495  154.6824 H   0  0  0  0  0  0  0  0  0  0  0  0
  148.1884  137.4610  154.7886 H   0  0  0  0  0  0  0  0  0  0  0  0
  149.1820  138.1932  156.9404 H   0  0  0  0  0  0  0  0  0  0  0  0
  150.5357  137.0860  156.7257 H   0  0  0  0  0  0  0  0  0  0  0  0
  148.9112  136.4687  156.9979 H   0  0  0  0  0  0  0  0  0  0  0  0
  150.0725  138.0551  153.1569 H   0  0  0  0  0  0  0  0  0  0  0  0
  152.0821  137.3997  154.3721 H   0  0  0  0  0  0  0  0  0  0  0  0
  151.6685  138.4378  155.7332 H   0  0  0  0  0  0  0  0  0  0  0  0
  152.1020  139.1385  154.1760 H   0  0  0  0  0  0  0  0  0  0  0  0
  147.5223  139.4222  153.5511 H   0  0  0  0  0  0  0  0  0  0  0  0
  147.3517  142.0710  154.1657 H   0  0  0  0  0  0  0  0  0  0  0  0
  149.8420  142.6244  155.2469 H   0  0  0  0  0  0  0  0  0  0  0  0
  145.7982  135.6865  153.2641 H   0  0  0  0  0  0  0  0  0  0  0  0
  147.4268  135.4059  152.6880 H   0  0  0  0  0  0  0  0  0  0  0  0
  149.4706  135.9213  153.4266 H   0  0  0  0  0  0  0  0  0  0  0  0
  1  2  1  0  0  0  0
  1 16  1  0  0  0  0
  1 17  1  0  0  0  0
  1 18  1  0  0  0  0
  2  3  1  0  0  0  0
  2 13  1  0  0  0  0
  2 19  1  0  0  0  0
  3  4  1  0  0  0  0
  3 20  1  0  0  0  0
  3 34  1  0  0  0  0
  4  5  1  0  0  0  0
  4  6  1  0  0  0  0
  4 21  1  0  0  0  0
  5 22  1  0  0  0  0
  5 23  1  0  0  0  0
  5 24  1  0  0  0  0
  6  7  1  0  0  0  0
  6  8  1  0  0  0  0
  6 25  1  0  0  0  0
  7 26  1  0  0  0  0
  7 27  1  0  0  0  0
  7 28  1  0  0  0  0
  8 12  1  0  0  0  0
  8  9  1  0  0  0  0
  9 10  2  0  0  0  0
  9 29  1  0  0  0  0
 10 11  1  0  0  0  0
 10 30  1  0  0  0  0
 11 12  2  0  0  0  0
 11 31  1  0  0  0  0
 13 14  1  0  0  0  0
 13 15  2  0  0  0  0
 14 32  1  0  0  0  0
 14 33  1  0  0  0  0
M  CHG  1   3   1
M  END
> <s_m_source_file>
AV-unprocessed.smi

> <i_m_source_file_index>
3116

> <i_lp_mmshare_version>
43012

> <i_f3d_flags>
0

> <s_epik_input>
W05IMl1DKD1PKVtDQEhdKFtDSDNdKVtOSF1bQ0BIXShbQ0gzXSlbQ0BIXShbQ0gzXSluMVtjSF1bY0hdW2NIXW4x

> <s_epik_cmdline>
J2VwaWtfcHl0aG9uJywgJy1waCcsICc3LjAnLCAnLXRuJywgJzgnLCAnLW1hJywgJzIwMCcsICctbWV0YWxfYmluZGluZycsICctaW1hZScsICc8aW5maWxlLm1hZT4nLCAnLW9tYWUnLCAnPG91dGZpbGUubWFlPic=

> <r_lp_tautomer_probability>
1

> <r_epik_Ionization_Penalty>
0.15658

> <r_epik_Ionization_Penalty_Charging>
0.156568

> <r_epik_Ionization_Penalty_Neutral>
1.19778e-05

> <r_epik_State_Penalty>
0.145866

> <r_epik_Charging_Adjusted_Penalty>
0.302434

> <i_epik_Tot_Q>
1

> <i_epik_Tot_abs_Q>
1

> <r_epik_Metal_State_Penalty>
0.146064

> <b_epik_Metal_Only>
0

> <s_lp_Force_Field>
OPLS_2005

> <r_lp_Energy>
9.00386

> <b_lp_Chiralities_Consistent>
1

> <s_lp_Variant>
AV-unprocessed.smi:3116-4

> <Gold.Version>
5.8.1

> <Gold.Id.Protein>
6NUR|6NUR_protein|mol2

> <Gold.PLP.Fitness>
39.0916

> <Gold.PLP.PLP>
-24.9615

> <Gold.PLP.part.hbond>
-3.1813

> <Gold.PLP.part.metal>
0.0000

> <Gold.PLP.part.buried>
-1.7353

> <Gold.PLP.part.nonpolar>
-20.4394

> <Gold.PLP.part.repulsive>
0.1408

> <Gold.PLP.ligand.clash>
0.0000

> <Gold.PLP.ligand.torsion>
0.3762

> <Gold.PLP.Chemscore.Hbond>
3.9200

> <Gold.PLP.Chemscore.CHOScore>
1.0000

> <Gold.PLP.Chemscore.Metal>
0.0000

> <Gold.Chemscore.Hbonds>
donor molecule, donor type, donor heavy atom, donor atom, acceptor molecule, acceptor atom, score
      L1  H     3    34       P1  7948  2.00
      L1  H    14    33       P1  7948  0.94
      P1  H  7989  7998       L1    12  0.91
      L1  C    11    31       P1  8028  1.00

> <Gold.PLP.Chemscore.Internal.Correction>
0.1225

> <Gold.Rescore>
     Score         DG    S(hbond)    S(metal)    S(lipo)     H(rot)  DE(clash)    DE(int)     intcor
     12.10     -12.65       2.27        0.00      49.99       2.45       0.00       0.55       ----

> <Gold.Chemscore.Fitness>
12.0991

> <Gold.Chemscore.DG>
-12.6487

> <Gold.Chemscore.ZeroCoef>
-5.4800

> <Gold.Chemscore.Hbond>
2.2704

> <Gold.Chemscore.Metal>
0.0000

> <Gold.Chemscore.Lipo>
49.9873

> <Gold.Chemscore.Internal_Hbond>
0.0000

> <Gold.Chemscore.DEClash>
0.0015

> <Gold.Chemscore.DEInternal>
0.5481

> <Gold.Chemscore.Rot>
2.4465

> <Gold.Chemscore.Internal.Correction>
   9.000000E+99

> <Gold.Chemscore.Hbonds>
donor molecule, donor type, donor heavy atom, donor atom, acceptor molecule, acceptor atom, score
      L1  H     3    34       P1  7948  0.35
      L1  H    14    33       P1  7948  0.91
      P1  H  7989  7998       L1    12  0.18

> <Gold.Chemscore.Hbond.Weighted>
-7.5833

> <Gold.Chemscore.Metal.Weighted>
-0.0000

> <Gold.Chemscore.Lipo.Weighted>
-5.8485

> <Gold.Chemscore.Internal_Hbond.Weighted>
0.0000

> <Gold.Chemscore.DEClash.Weighted>
0.0015

> <Gold.Chemscore.DEInternal.Weighted>
0.5481

> <Gold.Chemscore.Rot.Weighted>
6.2631

> <Gold.Chemscore.Internal.Correction.Weighted>
   9.000000E+99

> <Gold.Protein.RotatedTorsions>
[ 6907 6896 6895 6894 ] final -111.06 input  -60.11 | X-H torsion
[ 7974 7965 7964 7962 ] final   43.41 input  175.53 | X-H torsion
[ 8008 7997 7996 7995 ] final  -82.10 input   59.86 | X-H torsion
[ 10167 10162 10161 10158 ] final   51.34 input  -65.29 | X-H torsion
[ 10718 10713 10712 10709 ] final  -21.37 input   66.30 | X-H torsion
[ 10763 10752 10751 10750 ] final -120.58 input  -60.55 | X-H torsion
[ 11005 11000 10999 10996 ] final -149.99 input  -57.11 | X-H torsion

> <Gold.Protein.ActiveResidues>
 VAL166  LYS551  ARG553  GLY616  TRP617  ASP618  TYR619  PRO620  LYS621  CYS622 
 ASP623  PHE694  ASN695  SER759  ASP760  ASP761  ALA762  ILE779  LEU786  VAL792 
 PHE793  MET794  SER795  GLU796  ALA797  LYS798  CYS799  TRP800  GLU811  SER814 

> <Gold.Protein.RotatedAtoms>
  150.7665  133.9291  159.3421 H   0  0  0  0  0  0  0  0  0  0  0  0  # atno 6907 bound_to 6896
  151.7188  135.0896  160.0290 H   0  0  0  0  0  0  0  0  0  0  0  0  # atno 6908 bound_to 6896
  152.3663  133.6323  159.6089 H   0  0  0  0  0  0  0  0  0  0  0  0  # atno 6909 bound_to 6896
  146.0657  139.5190  142.9629 H   0  0  0  0  0  0  0  0  0  0  0  0  # atno 7974 bound_to 7965
  154.6051  140.0638  156.9420 H   0  0  0  0  0  0  0  0  0  0  0  0  # atno 8008 bound_to 7997
  155.2066  140.3319  155.4316 H   0  0  0  0  0  0  0  0  0  0  0  0  # atno 8009 bound_to 7997
  156.2342  140.1855  156.7146 H   0  0  0  0  0  0  0  0  0  0  0  0  # atno 8010 bound_to 7997
  140.2629  144.3353  150.6312 H   0  0  0  0  0  0  0  0  0  0  0  0  # atno 10167 bound_to 10162
  156.5191  130.4628  149.6606 H   0  0  0  0  0  0  0  0  0  0  0  0  # atno 10718 bound_to 10713
  154.8647  135.4198  154.2482 H   0  0  0  0  0  0  0  0  0  0  0  0  # atno 10763 bound_to 10752
  153.3434  135.6995  153.6854 H   0  0  0  0  0  0  0  0  0  0  0  0  # atno 10764 bound_to 10752
  153.5823  135.3570  155.2852 H   0  0  0  0  0  0  0  0  0  0  0  0  # atno 10765 bound_to 10752
  140.7449  134.3472  157.5139 H   0  0  0  0  0  0  0  0  0  0  0  0  # atno 11005 bound_to 11000
  145.6481  141.0269  143.1775 LP  0  0  0  0  0  0  0  0  0  0  0  0  # atno 17320 bound_to 7965
  144.7201  139.8059  143.7385 LP  0  0  0  0  0  0  0  0  0  0  0  0  # atno 17321 bound_to 7965
  140.5951  143.2167  151.7179 LP  0  0  0  0  0  0  0  0  0  0  0  0  # atno 17342 bound_to 10162
  139.5011  144.3879  152.0310 LP  0  0  0  0  0  0  0  0  0  0  0  0  # atno 17343 bound_to 10162
  156.3167  130.7258  151.2162 LP  0  0  0  0  0  0  0  0  0  0  0  0  # atno 17370 bound_to 10713
  157.7439  131.0467  150.4905 LP  0  0  0  0  0  0  0  0  0  0  0  0  # atno 17371 bound_to 10713
  139.8799  134.9104  156.3014 LP  0  0  0  0  0  0  0  0  0  0  0  0  # atno 17394 bound_to 11000
  140.9803  133.7271  156.0663 LP  0  0  0  0  0  0  0  0  0  0  0  0  # atno 17395 bound_to 11000

$$$$
