AV-unprocessed.smi:1212|AV-procd|sdf|5083|dock3
  -GOLD-   22720 4133D 1   1.00000     0.00000
 Structure written by MMmdl.
 38 39  0  0  0  0  0  0  0  0  2 V2000
  154.0952  134.5941  164.8815 C   0  0  0  0  0  0  0  0  0  0  0  0
  154.7969  135.8167  164.3986 C   0  0  0  0  0  0  0  0  0  0  0  0
  156.0995  136.0277  164.6025 N   0  0  0  0  0  0  0  0  0  0  0  0
  156.5249  137.2321  164.0609 N   0  0  0  0  0  0  0  0  0  0  0  0
  155.5430  137.9097  163.4493 C   0  0  0  0  0  0  0  0  0  0  0  0
  155.7469  139.1007  162.8624 N   0  5  0  0  0  0  0  0  0  0  0  0
  154.9650  139.4869  161.8283 C   0  0  0  0  0  0  0  0  0  0  0  0
  154.1009  138.8049  161.2718 O   0  0  0  0  0  0  0  0  0  0  0  0
  155.1949  140.7417  161.4149 N   0  0  0  0  0  0  0  0  0  0  0  0
  154.5030  141.4200  160.3248 C   0  0  0  0  0  0  0  0  0  0  0  0
  153.0831  141.8497  160.7373 C   0  0  0  0  0  0  0  0  0  0  0  0
  152.7016  143.1153  160.1005 N   0  0  0  0  0  0  0  0  0  0  0  0
  152.7052  143.1207  158.6292 C   0  0  0  0  0  0  0  0  0  0  0  0
  151.2924  143.1844  158.0052 C   0  0  0  0  0  0  0  0  0  0  0  0
  150.2238  143.9424  158.8178 C   0  0  0  0  0  0  0  0  0  0  0  0
  150.6301  145.3609  159.2704 C   0  0  0  0  0  0  0  0  0  0  0  0
  151.9488  145.4822  160.0723 C   0  0  0  0  0  0  0  0  0  0  0  0
  152.3580  144.2065  160.8274 C   0  0  0  0  0  0  0  0  0  0  0  0
  152.3597  144.2217  162.0587 O   0  0  0  0  0  0  0  0  0  0  0  0
  153.9793  137.0970  163.5184 S   0  0  0  0  0  0  0  0  0  0  0  0
  154.5500  133.7048  164.4446 H   0  0  0  0  0  0  0  0  0  0  0  0
  153.0428  134.6228  164.5984 H   0  0  0  0  0  0  0  0  0  0  0  0
  154.1634  134.5275  165.9675 H   0  0  0  0  0  0  0  0  0  0  0  0
  155.9105  141.2654  161.8976 H   0  0  0  0  0  0  0  0  0  0  0  0
  155.0932  142.2915  160.0408 H   0  0  0  0  0  0  0  0  0  0  0  0
  154.4680  140.7716  159.4474 H   0  0  0  0  0  0  0  0  0  0  0  0
  152.3628  141.0731  160.4765 H   0  0  0  0  0  0  0  0  0  0  0  0
  153.0215  141.9394  161.8232 H   0  0  0  0  0  0  0  0  0  0  0  0
  153.3025  143.9615  158.2763 H   0  0  0  0  0  0  0  0  0  0  0  0
  153.2298  142.2473  158.2386 H   0  0  0  0  0  0  0  0  0  0  0  0
  151.3684  143.6161  157.0067 H   0  0  0  0  0  0  0  0  0  0  0  0
  150.9341  142.1650  157.8569 H   0  0  0  0  0  0  0  0  0  0  0  0
  149.3129  144.0099  158.2222 H   0  0  0  0  0  0  0  0  0  0  0  0
  149.9456  143.3496  159.6905 H   0  0  0  0  0  0  0  0  0  0  0  0
  150.6975  146.0055  158.3935 H   0  0  0  0  0  0  0  0  0  0  0  0
  149.8176  145.7709  159.8711 H   0  0  0  0  0  0  0  0  0  0  0  0
  152.7636  145.7759  159.4107 H   0  0  0  0  0  0  0  0  0  0  0  0
  151.8590  146.3041  160.7840 H   0  0  0  0  0  0  0  0  0  0  0  0
  1  2  1  0  0  0  0
  1 21  1  0  0  0  0
  1 22  1  0  0  0  0
  1 23  1  0  0  0  0
  2 20  1  0  0  0  0
  2  3  2  0  0  0  0
  3  4  1  0  0  0  0
  4  5  2  0  0  0  0
  5  6  1  0  0  0  0
  5 20  1  0  0  0  0
  6  7  1  0  0  0  0
  7  8  2  0  0  0  0
  7  9  1  0  0  0  0
  9 10  1  0  0  0  0
  9 24  1  0  0  0  0
 10 11  1  0  0  0  0
 10 25  1  0  0  0  0
 10 26  1  0  0  0  0
 11 12  1  0  0  0  0
 11 27  1  0  0  0  0
 11 28  1  0  0  0  0
 12 18  1  0  0  0  0
 12 13  1  0  0  0  0
 13 14  1  0  0  0  0
 13 29  1  0  0  0  0
 13 30  1  0  0  0  0
 14 15  1  0  0  0  0
 14 31  1  0  0  0  0
 14 32  1  0  0  0  0
 15 16  1  0  0  0  0
 15 33  1  0  0  0  0
 15 34  1  0  0  0  0
 16 17  1  0  0  0  0
 16 35  1  0  0  0  0
 16 36  1  0  0  0  0
 17 18  1  0  0  0  0
 17 37  1  0  0  0  0
 17 38  1  0  0  0  0
 18 19  2  0  0  0  0
M  CHG  1   6  -1
M  END
> <s_m_source_file>
AV-unprocessed.smi

> <i_m_source_file_index>
1212

> <i_lp_mmshare_version>
43012

> <i_f3d_flags>
0

> <s_epik_input>
W0NIM11jMW5uYyhzMSlbTkhdQyg9TylbTkhdW0NIMl1bQ0gyXU4yW0NIMl1bQ0gyXVtDSDJdW0NIMl1bQ0gyXUMyPU8=

> <s_epik_cmdline>
J2VwaWtfcHl0aG9uJywgJy1waCcsICc3LjAnLCAnLXRuJywgJzgnLCAnLW1hJywgJzIwMCcsICctbWV0YWxfYmluZGluZycsICctaW1hZScsICc8aW5maWxlLm1hZT4nLCAnLW9tYWUnLCAnPG91dGZpbGUubWFlPic=

> <r_lp_tautomer_probability>
1

> <r_epik_Ionization_Penalty>
3.37178

> <r_epik_Ionization_Penalty_Charging>
3.23409

> <r_epik_Ionization_Penalty_Neutral>
0.137695

> <r_epik_State_Penalty>
3.23156

> <r_epik_Charging_Adjusted_Penalty>
6.46564

> <i_epik_Tot_Q>
-1

> <i_epik_Tot_abs_Q>
1

> <r_epik_Metal_State_Penalty>
0.474775

> <b_epik_Metal_Only>
1

> <s_lp_Force_Field>
OPLS_2005

> <r_lp_Energy>
19.6793

> <b_lp_Chiralities_Consistent>
1

> <s_lp_Variant>
AV-unprocessed.smi:1212-2

> <Gold.Version>
5.8.1

> <Gold.Id.Protein>
6NUR|6NUR_protein|mol2

> <Gold.PLP.Fitness>
42.2413

> <Gold.PLP.PLP>
-43.1895

> <Gold.PLP.part.hbond>
-1.0000

> <Gold.PLP.part.metal>
0.0000

> <Gold.PLP.part.buried>
-6.6215

> <Gold.PLP.part.nonpolar>
-35.9537

> <Gold.PLP.part.repulsive>
0.3013

> <Gold.PLP.ligand.clash>
0.0000

> <Gold.PLP.ligand.torsion>
0.4981

> <Gold.PLP.Chemscore.Hbond>
0.0000

> <Gold.PLP.Chemscore.CHOScore>
0.0000

> <Gold.PLP.Chemscore.Metal>
0.0000

> <Gold.PLP.Chemscore.Internal.Correction>
0.0481

> <Gold.Rescore>
     Score         DG    S(hbond)    S(metal)    S(lipo)     H(rot)  DE(clash)    DE(int)     intcor
     10.51     -12.22       0.00        0.00      93.16       1.63       0.01       1.70       ----

> <Gold.Chemscore.Fitness>
10.5117

> <Gold.Chemscore.DG>
-12.2181

> <Gold.Chemscore.ZeroCoef>
-5.4800

> <Gold.Chemscore.Hbond>
0.0000

> <Gold.Chemscore.Metal>
0.0000

> <Gold.Chemscore.Lipo>
93.1574

> <Gold.Chemscore.Internal_Hbond>
0.0000

> <Gold.Chemscore.DEClash>
0.0057

> <Gold.Chemscore.DEInternal>
1.7007

> <Gold.Chemscore.Rot>
1.6255

> <Gold.Chemscore.Internal.Correction>
   9.000000E+99

> <Gold.Chemscore.Hbond.Weighted>
-0.0000

> <Gold.Chemscore.Metal.Weighted>
-0.0000

> <Gold.Chemscore.Lipo.Weighted>
-10.8994

> <Gold.Chemscore.Internal_Hbond.Weighted>
0.0000

> <Gold.Chemscore.DEClash.Weighted>
0.0057

> <Gold.Chemscore.DEInternal.Weighted>
1.7007

> <Gold.Chemscore.Rot.Weighted>
4.1613

> <Gold.Chemscore.Internal.Correction.Weighted>
   9.000000E+99

> <Gold.Protein.RotatedTorsions>
[ 6907 6896 6895 6894 ] final  -16.19 input  -60.11 | X-H torsion
[ 7974 7965 7964 7962 ] final -171.86 input  175.53 | X-H torsion
[ 8008 7997 7996 7995 ] final   75.17 input   59.86 | X-H torsion
[ 10167 10162 10161 10158 ] final  125.21 input  -65.29 | X-H torsion
[ 10718 10713 10712 10709 ] final  104.61 input   66.30 | X-H torsion
[ 10763 10752 10751 10750 ] final  104.06 input  -60.55 | X-H torsion
[ 11005 11000 10999 10996 ] final  134.42 input  -57.11 | X-H torsion

> <Gold.Protein.ActiveResidues>
 VAL166  LYS551  ARG553  GLY616  TRP617  ASP618  TYR619  PRO620  LYS621  CYS622 
 ASP623  PHE694  ASN695  SER759  ASP760  ASP761  ALA762  ILE779  LEU786  VAL792 
 PHE793  MET794  SER795  GLU796  ALA797  LYS798  CYS799  TRP800  GLU811  SER814 

> <Gold.Protein.RotatedAtoms>
  151.3124  135.0797  159.9276 H   0  0  0  0  0  0  0  0  0  0  0  0  # atno 6907 bound_to 6896
  152.5275  133.9722  159.7777 H   0  0  0  0  0  0  0  0  0  0  0  0  # atno 6908 bound_to 6896
  151.0028  133.5988  159.2723 H   0  0  0  0  0  0  0  0  0  0  0  0  # atno 6909 bound_to 6896
  144.7152  140.1859  143.6353 H   0  0  0  0  0  0  0  0  0  0  0  0  # atno 7974 bound_to 7965
  155.8090  140.3474  155.5446 H   0  0  0  0  0  0  0  0  0  0  0  0  # atno 8008 bound_to 7997
  155.8460  140.0949  157.1725 H   0  0  0  0  0  0  0  0  0  0  0  0  # atno 8009 bound_to 7997
  154.4006  140.1385  156.3774 H   0  0  0  0  0  0  0  0  0  0  0  0  # atno 8010 bound_to 7997
  139.5698  144.6932  151.3810 H   0  0  0  0  0  0  0  0  0  0  0  0  # atno 10167 bound_to 10162
  157.6734  131.0808  150.5732 H   0  0  0  0  0  0  0  0  0  0  0  0  # atno 10718 bound_to 10713
  153.3610  135.3955  155.1718 H   0  0  0  0  0  0  0  0  0  0  0  0  # atno 10763 bound_to 10752
  154.8679  135.3679  154.5100 H   0  0  0  0  0  0  0  0  0  0  0  0  # atno 10764 bound_to 10752
  153.5559  135.7082  153.5630 H   0  0  0  0  0  0  0  0  0  0  0  0  # atno 10765 bound_to 10752
  139.9914  134.9513  156.9864 H   0  0  0  0  0  0  0  0  0  0  0  0  # atno 11005 bound_to 11000
  145.8813  139.2325  143.1603 LP  0  0  0  0  0  0  0  0  0  0  0  0  # atno 17320 bound_to 7965
  145.9992  140.8535  143.0027 LP  0  0  0  0  0  0  0  0  0  0  0  0  # atno 17321 bound_to 7965
  140.6982  143.7696  150.7361 LP  0  0  0  0  0  0  0  0  0  0  0  0  # atno 17342 bound_to 10162
  140.1199  143.4621  152.2319 LP  0  0  0  0  0  0  0  0  0  0  0  0  # atno 17343 bound_to 10162
  156.6034  130.4360  149.5888 LP  0  0  0  0  0  0  0  0  0  0  0  0  # atno 17370 bound_to 10713
  156.2488  130.6895  151.1625 LP  0  0  0  0  0  0  0  0  0  0  0  0  # atno 17371 bound_to 10713
  140.4901  134.1201  155.7231 LP  0  0  0  0  0  0  0  0  0  0  0  0  # atno 17394 bound_to 11000
  141.1569  133.8866  157.1954 LP  0  0  0  0  0  0  0  0  0  0  0  0  # atno 17395 bound_to 11000

$$$$
