AV-unprocessed.smi:671|AV-procd|sdf|3287|dock5
  -GOLD-   22720 0243D 1   1.00000     0.00000
 Structure written by MMmdl.
 50 51  0  0  0  0  0  0  0  0  2 V2000
  147.2674  141.7574  154.0051 C   0  0  0  0  0  0  0  0  0  0  0  0
  148.4903  141.3789  154.7715 C   0  0  0  0  0  0  0  0  0  0  0  0
  149.1223  142.1876  155.6633 N   0  3  0  0  0  0  0  0  0  0  0  0
  150.1852  141.5589  156.1855 N   0  0  0  0  0  0  0  0  0  0  0  0
  151.0086  142.2573  157.1728 C   0  0  0  0  0  0  0  0  0  0  0  0
  150.3023  140.3085  155.6548 C   0  0  0  0  0  0  0  0  0  0  0  0
  151.3794  139.3386  156.0189 C   0  0  0  0  0  0  0  0  0  0  0  0
  149.2282  140.1899  154.7619 C   0  0  0  0  0  0  0  0  0  0  0  0
  148.8984  138.9926  153.9159 C   0  0  0  0  0  0  0  0  0  0  0  0
  147.3790  138.7677  153.7537 C   0  0  2  0  0  0  0  0  0  0  0  0
  146.6616  138.5876  155.1004 C   0  0  0  0  0  0  0  0  0  0  0  0
  147.1315  137.5859  152.9245 N   0  0  0  0  0  0  0  0  0  0  0  0
  145.9555  137.1330  152.4517 C   0  0  0  0  0  0  0  0  0  0  0  0
  144.8967  137.7115  152.6866 O   0  0  0  0  0  0  0  0  0  0  0  0
  146.0425  136.0140  151.7126 N   0  0  0  0  0  0  0  0  0  0  0  0
  144.9200  135.3074  151.1032 C   0  0  1  0  0  0  0  0  0  0  0  0
  145.4300  134.1733  150.1929 C   0  0  0  0  0  0  0  0  0  0  0  0
  145.0071  132.8636  150.8597 C   0  0  0  0  0  0  0  0  0  0  0  0
  143.7480  133.2292  151.6380 C   0  0  0  0  0  0  0  0  0  0  0  0
  144.0337  134.6347  152.1753 C   0  0  2  0  0  0  0  0  0  0  0  0
  142.7636  135.4261  152.5175 C   0  0  0  0  0  0  0  0  0  0  0  0
  146.4476  141.0807  154.2467 H   0  0  0  0  0  0  0  0  0  0  0  0
  147.4613  141.6982  152.9338 H   0  0  0  0  0  0  0  0  0  0  0  0
  146.9593  142.7751  154.2466 H   0  0  0  0  0  0  0  0  0  0  0  0
  151.3413  141.5479  157.9310 H   0  0  0  0  0  0  0  0  0  0  0  0
  150.4293  143.0482  157.6513 H   0  0  0  0  0  0  0  0  0  0  0  0
  151.8752  142.6889  156.6715 H   0  0  0  0  0  0  0  0  0  0  0  0
  151.3962  138.4933  155.3322 H   0  0  0  0  0  0  0  0  0  0  0  0
  151.2151  138.9601  157.0278 H   0  0  0  0  0  0  0  0  0  0  0  0
  152.3537  139.8265  155.9849 H   0  0  0  0  0  0  0  0  0  0  0  0
  149.3544  139.1251  152.9342 H   0  0  0  0  0  0  0  0  0  0  0  0
  149.3633  138.0926  154.3184 H   0  0  0  0  0  0  0  0  0  0  0  0
  146.9363  139.6383  153.2668 H   0  0  0  0  0  0  0  0  0  0  0  0
  146.7533  139.4777  155.7225 H   0  0  0  0  0  0  0  0  0  0  0  0
  147.0702  137.7455  155.6601 H   0  0  0  0  0  0  0  0  0  0  0  0
  145.5964  138.4043  154.9550 H   0  0  0  0  0  0  0  0  0  0  0  0
  147.9517  137.0613  152.6555 H   0  0  0  0  0  0  0  0  0  0  0  0
  146.9584  135.6152  151.5690 H   0  0  0  0  0  0  0  0  0  0  0  0
  144.3302  135.9939  150.4921 H   0  0  0  0  0  0  0  0  0  0  0  0
  144.9471  134.2531  149.2181 H   0  0  0  0  0  0  0  0  0  0  0  0
  146.5063  134.2083  150.0177 H   0  0  0  0  0  0  0  0  0  0  0  0
  144.8392  132.0620  150.1398 H   0  0  0  0  0  0  0  0  0  0  0  0
  145.7825  132.5327  151.5510 H   0  0  0  0  0  0  0  0  0  0  0  0
  142.8949  133.2514  150.9581 H   0  0  0  0  0  0  0  0  0  0  0  0
  143.5234  132.5150  152.4306 H   0  0  0  0  0  0  0  0  0  0  0  0
  144.6169  134.5134  153.0905 H   0  0  0  0  0  0  0  0  0  0  0  0
  142.1352  135.5686  151.6378 H   0  0  0  0  0  0  0  0  0  0  0  0
  143.0117  136.4116  152.9125 H   0  0  0  0  0  0  0  0  0  0  0  0
  142.1704  134.9073  153.2705 H   0  0  0  0  0  0  0  0  0  0  0  0
  148.8834  143.1312  155.9413 H   0  0  0  0  0  0  0  0  0  0  0  0
  1  2  1  0  0  0  0
  1 22  1  0  0  0  0
  1 23  1  0  0  0  0
  1 24  1  0  0  0  0
  2  8  1  0  0  0  0
  2  3  2  0  0  0  0
  3  4  1  0  0  0  0
  3 50  1  0  0  0  0
  4  5  1  0  0  0  0
  4  6  1  0  0  0  0
  5 25  1  0  0  0  0
  5 26  1  0  0  0  0
  5 27  1  0  0  0  0
  6  7  1  0  0  0  0
  6  8  2  0  0  0  0
  7 28  1  0  0  0  0
  7 29  1  0  0  0  0
  7 30  1  0  0  0  0
  8  9  1  0  0  0  0
  9 10  1  0  0  0  0
  9 31  1  0  0  0  0
  9 32  1  0  0  0  0
 10 11  1  0  0  0  0
 10 12  1  0  0  0  0
 10 33  1  0  0  0  0
 11 34  1  0  0  0  0
 11 35  1  0  0  0  0
 11 36  1  0  0  0  0
 12 13  1  0  0  0  0
 12 37  1  0  0  0  0
 13 14  2  0  0  0  0
 13 15  1  0  0  0  0
 15 16  1  0  0  0  0
 15 38  1  0  0  0  0
 16 20  1  0  0  0  0
 16 17  1  0  0  0  0
 16 39  1  0  0  0  0
 17 18  1  0  0  0  0
 17 40  1  0  0  0  0
 17 41  1  0  0  0  0
 18 19  1  0  0  0  0
 18 42  1  0  0  0  0
 18 43  1  0  0  0  0
 19 20  1  0  0  0  0
 19 44  1  0  0  0  0
 19 45  1  0  0  0  0
 20 21  1  0  0  0  0
 20 46  1  0  0  0  0
 21 47  1  0  0  0  0
 21 48  1  0  0  0  0
 21 49  1  0  0  0  0
M  CHG  1   3   1
M  END
> <s_m_source_file>
AV-unprocessed.smi

> <i_m_source_file_index>
671

> <i_lp_mmshare_version>
43012

> <i_f3d_flags>
0

> <s_epik_input>
W0NIM11jMW5uKFtDSDNdKWMoW0NIM10pYzFbQ0gyXVtDQEhdKFtDSDNdKVtOSF1DKD1PKVtOSF1bQ0BASF0yW0NIMl1bQ0gyXVtDSDJdW0NASF0yW0NIM10=

> <s_epik_cmdline>
J2VwaWtfcHl0aG9uJywgJy1waCcsICc3LjAnLCAnLXRuJywgJzgnLCAnLW1hJywgJzIwMCcsICctbWV0YWxfYmluZGluZycsICctaW1hZScsICc8aW5maWxlLm1hZT4nLCAnLW9tYWUnLCAnPG91dGZpbGUubWFlPic=

> <r_lp_tautomer_probability>
1

> <r_epik_Ionization_Penalty>
2.28705

> <r_epik_Ionization_Penalty_Charging>
2.28698

> <r_epik_Ionization_Penalty_Neutral>
6.23157e-05

> <r_epik_State_Penalty>
2.43671

> <r_epik_Charging_Adjusted_Penalty>
4.72369

> <i_epik_Tot_Q>
1

> <i_epik_Tot_abs_Q>
1

> <r_epik_Metal_State_Penalty>
2.44911

> <b_epik_Metal_Only>
0

> <s_lp_Force_Field>
OPLS_2005

> <r_lp_Energy>
34.681

> <b_lp_Chiralities_Consistent>
1

> <s_lp_Variant>
AV-unprocessed.smi:671-15

> <Gold.Version>
5.8.1

> <Gold.Id.Protein>
6NUR|6NUR_protein|mol2

> <Gold.PLP.Fitness>
47.2913

> <Gold.PLP.PLP>
-37.3036

> <Gold.PLP.part.hbond>
-2.6714

> <Gold.PLP.part.metal>
0.0000

> <Gold.PLP.part.buried>
-2.5985

> <Gold.PLP.part.nonpolar>
-34.1652

> <Gold.PLP.part.repulsive>
1.0337

> <Gold.PLP.ligand.clash>
0.0000

> <Gold.PLP.ligand.torsion>
0.4348

> <Gold.PLP.Chemscore.Hbond>
3.6152

> <Gold.PLP.Chemscore.CHOScore>
0.0000

> <Gold.PLP.Chemscore.Metal>
0.0000

> <Gold.Chemscore.Hbonds>
donor molecule, donor type, donor heavy atom, donor atom, acceptor molecule, acceptor atom, score
      L1  H     3    50       P1  8028  2.00
      L1  H    12    37       P1  7948  0.98
      L1  H    15    38       P1  7948  0.68

> <Gold.PLP.Chemscore.Internal.Correction>
0.0119

> <Gold.Rescore>
     Score         DG    S(hbond)    S(metal)    S(lipo)     H(rot)  DE(clash)    DE(int)     intcor
     19.66     -19.92       2.66        0.00      80.53       1.51       0.04       0.22       ----

> <Gold.Chemscore.Fitness>
19.6643

> <Gold.Chemscore.DG>
-19.9226

> <Gold.Chemscore.ZeroCoef>
-5.4800

> <Gold.Chemscore.Hbond>
2.6572

> <Gold.Chemscore.Metal>
0.0000

> <Gold.Chemscore.Lipo>
80.5325

> <Gold.Chemscore.Internal_Hbond>
0.0000

> <Gold.Chemscore.DEClash>
0.0417

> <Gold.Chemscore.DEInternal>
0.2166

> <Gold.Chemscore.Rot>
1.5057

> <Gold.Chemscore.Internal.Correction>
   9.000000E+99

> <Gold.Chemscore.Hbonds>
donor molecule, donor type, donor heavy atom, donor atom, acceptor molecule, acceptor atom, score
      L1  H     3    50       P1  8028  0.94
      L1  H    12    37       P1  7948  0.91
      L1  H    15    38       P1  7948  0.66

> <Gold.Chemscore.Hbond.Weighted>
-8.8750

> <Gold.Chemscore.Metal.Weighted>
-0.0000

> <Gold.Chemscore.Lipo.Weighted>
-9.4223

> <Gold.Chemscore.Internal_Hbond.Weighted>
0.0000

> <Gold.Chemscore.DEClash.Weighted>
0.0417

> <Gold.Chemscore.DEInternal.Weighted>
0.2166

> <Gold.Chemscore.Rot.Weighted>
3.8547

> <Gold.Chemscore.Internal.Correction.Weighted>
   9.000000E+99

> <Gold.Protein.RotatedTorsions>
[ 6907 6896 6895 6894 ] final -129.97 input  -60.11 | X-H torsion
[ 7974 7965 7964 7962 ] final  -26.66 input  175.53 | X-H torsion
[ 8008 7997 7996 7995 ] final -104.61 input   59.86 | X-H torsion
[ 10167 10162 10161 10158 ] final  163.42 input  -65.29 | X-H torsion
[ 10718 10713 10712 10709 ] final   29.11 input   66.30 | X-H torsion
[ 10763 10752 10751 10750 ] final   89.95 input  -60.55 | X-H torsion
[ 11005 11000 10999 10996 ] final  107.97 input  -57.11 | X-H torsion

> <Gold.Protein.ActiveResidues>
 VAL166  LYS551  ARG553  GLY616  TRP617  ASP618  TYR619  PRO620  LYS621  CYS622 
 ASP623  PHE694  ASN695  SER759  ASP760  ASP761  ALA762  ILE779  LEU786  VAL792 
 PHE793  MET794  SER795  GLU796  ALA797  LYS798  CYS799  TRP800  GLU811  SER814 

> <Gold.Protein.RotatedAtoms>
  150.9346  133.6727  159.2803 H   0  0  0  0  0  0  0  0  0  0  0  0  # atno 6907 bound_to 6896
  151.4137  135.0987  159.9602 H   0  0  0  0  0  0  0  0  0  0  0  0  # atno 6908 bound_to 6896
  152.5042  133.8813  159.7402 H   0  0  0  0  0  0  0  0  0  0  0  0  # atno 6909 bound_to 6896
  146.1411  140.5049  142.8652 H   0  0  0  0  0  0  0  0  0  0  0  0  # atno 7974 bound_to 7965
  154.8878  140.0417  157.1820 H   0  0  0  0  0  0  0  0  0  0  0  0  # atno 8008 bound_to 7997
  154.8572  140.2938  155.5540 H   0  0  0  0  0  0  0  0  0  0  0  0  # atno 8009 bound_to 7997
  156.2997  140.2453  156.3541 H   0  0  0  0  0  0  0  0  0  0  0  0  # atno 8010 bound_to 7997
  139.4873  144.4339  151.9036 H   0  0  0  0  0  0  0  0  0  0  0  0  # atno 10167 bound_to 10162
  157.2422  130.7075  149.6364 H   0  0  0  0  0  0  0  0  0  0  0  0  # atno 10718 bound_to 10713
  153.1925  135.4451  155.0167 H   0  0  0  0  0  0  0  0  0  0  0  0  # atno 10763 bound_to 10752
  154.8099  135.3290  154.7336 H   0  0  0  0  0  0  0  0  0  0  0  0  # atno 10764 bound_to 10752
  153.7789  135.6979  153.4947 H   0  0  0  0  0  0  0  0  0  0  0  0  # atno 10765 bound_to 10752
  139.8836  134.9417  156.5901 H   0  0  0  0  0  0  0  0  0  0  0  0  # atno 11005 bound_to 11000
  144.7793  140.5806  143.6616 LP  0  0  0  0  0  0  0  0  0  0  0  0  # atno 17320 bound_to 7965
  145.5045  139.1482  143.3639 LP  0  0  0  0  0  0  0  0  0  0  0  0  # atno 17321 bound_to 7965
  140.3788  144.2763  150.5911 LP  0  0  0  0  0  0  0  0  0  0  0  0  # atno 17342 bound_to 10162
  140.5252  143.2256  151.8326 LP  0  0  0  0  0  0  0  0  0  0  0  0  # atno 17343 bound_to 10162
  155.9669  130.4454  150.5501 LP  0  0  0  0  0  0  0  0  0  0  0  0  # atno 17370 bound_to 10713
  157.3366  131.0709  151.1820 LP  0  0  0  0  0  0  0  0  0  0  0  0  # atno 17371 bound_to 10713
  140.7962  133.8542  155.8687 LP  0  0  0  0  0  0  0  0  0  0  0  0  # atno 17394 bound_to 11000
  140.9634  134.1626  157.4636 LP  0  0  0  0  0  0  0  0  0  0  0  0  # atno 17395 bound_to 11000

$$$$
