AV-unprocessed.smi:1576|AV-procd|sdf|6343|dock8
  -GOLD-   22720 6563D 1   1.00000     0.00000
 Structure written by MMmdl.
 45 47  0  0  0  0  0  0  0  0  1 V2000
  147.9812  135.9927  156.1513 O   0  0  0  0  0  0  0  0  0  0  0  0
  148.2002  136.1887  154.9563 C   0  0  0  0  0  0  0  0  0  0  0  0
  148.9334  137.1965  154.4536 N   0  0  0  0  0  0  0  0  0  0  0  0
  149.5371  138.2826  155.1431 C   0  0  0  0  0  0  0  0  0  0  0  0
  149.4037  138.3328  156.5441 C   0  0  0  0  0  0  0  0  0  0  0  0
  150.0115  139.3831  157.2571 C   0  0  0  0  0  0  0  0  0  0  0  0
  150.7501  140.3600  156.5494 C   0  0  0  0  0  0  0  0  0  0  0  0
  151.3696  141.4207  157.2450 N   0  0  0  0  0  0  0  0  0  0  0  0
  150.8873  142.7794  156.9826 C   0  0  0  0  0  0  0  0  0  0  0  0
  151.8831  143.8322  157.4984 C   0  0  0  0  0  0  0  0  0  0  0  0
  152.2134  143.5995  158.9799 C   0  0  0  0  0  0  0  0  0  0  0  0
  152.7184  142.1635  159.1861 C   0  0  0  0  0  0  0  0  0  0  0  0
  151.7100  141.1377  158.6408 C   0  0  0  0  0  0  0  0  0  0  0  0
  150.8927  140.3026  155.2027 N   0  0  0  0  0  0  0  0  0  0  0  0
  150.3055  139.2957  154.5220 C   0  0  0  0  0  0  0  0  0  0  0  0
  147.7447  135.3890  153.9817 N   0  0  0  0  0  0  0  0  0  0  0  0
  146.9204  134.1990  154.1831 C   0  0  2  0  0  0  0  0  0  0  0  0
  147.5402  132.9781  153.4703 C   0  0  0  0  0  0  0  0  0  0  0  0
  147.2172  133.0516  151.9723 C   0  0  0  0  0  0  0  0  0  0  0  0
  145.5936  133.8922  151.8467 S   0  0  0  0  0  0  0  0  0  0  0  0
  145.7342  135.0728  150.9808 O   0  0  0  0  0  0  0  0  0  0  0  0
  144.5393  132.8959  151.6035 O   0  0  0  0  0  0  0  0  0  0  0  0
  145.5175  134.4268  153.5993 C   0  0  0  0  0  0  0  0  0  0  0  0
  149.1037  137.1681  153.4590 H   0  0  0  0  0  0  0  0  0  0  0  0
  148.8426  137.5749  157.0712 H   0  0  0  0  0  0  0  0  0  0  0  0
  149.9198  139.4194  158.3325 H   0  0  0  0  0  0  0  0  0  0  0  0
  150.7386  142.9255  155.9118 H   0  0  0  0  0  0  0  0  0  0  0  0
  149.9184  142.9146  157.4649 H   0  0  0  0  0  0  0  0  0  0  0  0
  152.7997  143.7865  156.9086 H   0  0  0  0  0  0  0  0  0  0  0  0
  151.4735  144.8328  157.3570 H   0  0  0  0  0  0  0  0  0  0  0  0
  152.9634  144.3159  159.3166 H   0  0  0  0  0  0  0  0  0  0  0  0
  151.3229  143.7681  159.5867 H   0  0  0  0  0  0  0  0  0  0  0  0
  153.6763  142.0368  158.6798 H   0  0  0  0  0  0  0  0  0  0  0  0
  152.9008  141.9795  160.2452 H   0  0  0  0  0  0  0  0  0  0  0  0
  150.7947  141.1673  159.2334 H   0  0  0  0  0  0  0  0  0  0  0  0
  152.1246  140.1376  158.7594 H   0  0  0  0  0  0  0  0  0  0  0  0
  150.4869  139.3075  153.4588 H   0  0  0  0  0  0  0  0  0  0  0  0
  147.9828  135.6201  153.0281 H   0  0  0  0  0  0  0  0  0  0  0  0
  146.8375  134.0086  155.2548 H   0  0  0  0  0  0  0  0  0  0  0  0
  148.6125  132.8884  153.6480 H   0  0  0  0  0  0  0  0  0  0  0  0
  147.0833  132.0753  153.8774 H   0  0  0  0  0  0  0  0  0  0  0  0
  147.9535  133.6613  151.4484 H   0  0  0  0  0  0  0  0  0  0  0  0
  147.1740  132.0718  151.4967 H   0  0  0  0  0  0  0  0  0  0  0  0
  144.7897  133.7922  154.1056 H   0  0  0  0  0  0  0  0  0  0  0  0
  145.1734  135.4592  153.6679 H   0  0  0  0  0  0  0  0  0  0  0  0
  1  2  2  0  0  0  0
  2  3  1  0  0  0  0
  2 16  1  0  0  0  0
  3  4  1  0  0  0  0
  3 24  1  0  0  0  0
  4 15  1  0  0  0  0
  4  5  2  0  0  0  0
  5  6  1  0  0  0  0
  5 25  1  0  0  0  0
  6  7  2  0  0  0  0
  6 26  1  0  0  0  0
  7  8  1  0  0  0  0
  7 14  1  0  0  0  0
  8 13  1  0  0  0  0
  8  9  1  0  0  0  0
  9 10  1  0  0  0  0
  9 27  1  0  0  0  0
  9 28  1  0  0  0  0
 10 11  1  0  0  0  0
 10 29  1  0  0  0  0
 10 30  1  0  0  0  0
 11 12  1  0  0  0  0
 11 31  1  0  0  0  0
 11 32  1  0  0  0  0
 12 13  1  0  0  0  0
 12 33  1  0  0  0  0
 12 34  1  0  0  0  0
 13 35  1  0  0  0  0
 13 36  1  0  0  0  0
 14 15  2  0  0  0  0
 15 37  1  0  0  0  0
 16 17  1  0  0  0  0
 16 38  1  0  0  0  0
 17 23  1  0  0  0  0
 17 18  1  0  0  0  0
 17 39  1  0  0  0  0
 18 19  1  0  0  0  0
 18 40  1  0  0  0  0
 18 41  1  0  0  0  0
 19 20  1  0  0  0  0
 19 42  1  0  0  0  0
 19 43  1  0  0  0  0
 20 21  2  0  0  0  0
 20 22  2  0  0  0  0
 20 23  1  0  0  0  0
 23 44  1  0  0  0  0
 23 45  1  0  0  0  0
M  END
> <s_m_source_file>
AV-unprocessed.smi

> <i_m_source_file_index>
1576

> <i_lp_mmshare_version>
43012

> <i_f3d_flags>
0

> <s_epik_input>
Tz1TMSg9TylbQ0gyXVtDSDJdW0NASF0oW0NIMl0xKVtOSF1DKD1PKVtOSF1jMltjSF1bY0hdYyhuW2NIXTIpTjNbQ0gyXVtDSDJdW0NIMl1bQ0gyXVtDSDJdMw==

> <s_epik_cmdline>
J2VwaWtfcHl0aG9uJywgJy1waCcsICc3LjAnLCAnLXRuJywgJzgnLCAnLW1hJywgJzIwMCcsICctbWV0YWxfYmluZGluZycsICctaW1hZScsICc8aW5maWxlLm1hZT4nLCAnLW9tYWUnLCAnPG91dGZpbGUubWFlPic=

> <r_lp_tautomer_probability>
1

> <r_epik_Ionization_Penalty>
0.0900267

> <r_epik_Ionization_Penalty_Charging>
0

> <r_epik_Ionization_Penalty_Neutral>
0.0900267

> <r_epik_State_Penalty>
0.0748882

> <r_epik_Charging_Adjusted_Penalty>
0.0748882

> <i_epik_Tot_Q>
0

> <i_epik_Tot_abs_Q>
0

> <r_epik_Metal_State_Penalty>
0.0662821

> <b_epik_Metal_Only>
0

> <s_lp_Force_Field>
OPLS_2005

> <r_lp_Energy>
21.2293

> <b_lp_Chiralities_Consistent>
1

> <s_lp_Variant>
AV-unprocessed.smi:1576-1

> <Gold.Version>
5.8.1

> <Gold.Id.Protein>
6NUR|6NUR_protein|mol2

> <Gold.PLP.Fitness>
41.7680

> <Gold.PLP.PLP>
-32.0529

> <Gold.PLP.part.hbond>
-3.0000

> <Gold.PLP.part.metal>
0.0000

> <Gold.PLP.part.buried>
-4.0085

> <Gold.PLP.part.nonpolar>
-26.3854

> <Gold.PLP.part.repulsive>
0.4126

> <Gold.PLP.ligand.clash>
0.0000

> <Gold.PLP.ligand.torsion>
0.4395

> <Gold.PLP.Chemscore.Hbond>
2.3920

> <Gold.PLP.Chemscore.CHOScore>
1.0000

> <Gold.PLP.Chemscore.Metal>
0.0000

> <Gold.Chemscore.Hbonds>
donor molecule, donor type, donor heavy atom, donor atom, acceptor molecule, acceptor atom, score
      L1  H     3    24       P1  7948  0.98
      L1  H    16    38       P1  7948  1.00
      P1  H  7989  7998       L1    14  0.35
      L1  C    15    37       P1  7957  0.94

> <Gold.PLP.Chemscore.Internal.Correction>
0.4180

> <Gold.Rescore>
     Score         DG    S(hbond)    S(metal)    S(lipo)     H(rot)  DE(clash)    DE(int)     intcor
     16.79     -18.62       1.91        0.00      84.89       1.24       0.07       1.76       ----

> <Gold.Chemscore.Fitness>
16.7910

> <Gold.Chemscore.DG>
-18.6237

> <Gold.Chemscore.ZeroCoef>
-5.4800

> <Gold.Chemscore.Hbond>
1.9093

> <Gold.Chemscore.Metal>
0.0000

> <Gold.Chemscore.Lipo>
84.8922

> <Gold.Chemscore.Internal_Hbond>
0.0000

> <Gold.Chemscore.DEClash>
0.0695

> <Gold.Chemscore.DEInternal>
1.7632

> <Gold.Chemscore.Rot>
1.2366

> <Gold.Chemscore.Internal.Correction>
   9.000000E+99

> <Gold.Chemscore.Hbonds>
donor molecule, donor type, donor heavy atom, donor atom, acceptor molecule, acceptor atom, score
      L1  H     3    24       P1  7948  0.93
      L1  H    16    38       P1  7948  0.97
      P1  H  7989  7998       L1    14  0.01

> <Gold.Chemscore.Hbond.Weighted>
-6.3770

> <Gold.Chemscore.Metal.Weighted>
-0.0000

> <Gold.Chemscore.Lipo.Weighted>
-9.9324

> <Gold.Chemscore.Internal_Hbond.Weighted>
0.0000

> <Gold.Chemscore.DEClash.Weighted>
0.0695

> <Gold.Chemscore.DEInternal.Weighted>
1.7632

> <Gold.Chemscore.Rot.Weighted>
3.1657

> <Gold.Chemscore.Internal.Correction.Weighted>
   9.000000E+99

> <Gold.Protein.RotatedTorsions>
[ 6907 6896 6895 6894 ] final  -31.20 input  -60.11 | X-H torsion
[ 7974 7965 7964 7962 ] final  -31.25 input  175.53 | X-H torsion
[ 8008 7997 7996 7995 ] final    2.80 input   59.86 | X-H torsion
[ 10167 10162 10161 10158 ] final -100.95 input  -65.29 | X-H torsion
[ 10718 10713 10712 10709 ] final  -72.36 input   66.30 | X-H torsion
[ 10763 10752 10751 10750 ] final  -86.33 input  -60.55 | X-H torsion
[ 11005 11000 10999 10996 ] final  -83.81 input  -57.11 | X-H torsion

> <Gold.Protein.ActiveResidues>
 VAL166  LYS551  ARG553  GLY616  TRP617  ASP618  TYR619  PRO620  LYS621  CYS622 
 ASP623  PHE694  ASN695  SER759  ASP760  ASP761  ALA762  ILE779  LEU786  VAL792 
 PHE793  MET794  SER795  GLU796  ALA797  LYS798  CYS799  TRP800  GLU811  SER814 

> <Gold.Protein.RotatedAtoms>
  151.0953  134.9940  159.8422 H   0  0  0  0  0  0  0  0  0  0  0  0  # atno 6907 bound_to 6896
  152.5432  134.2015  159.8724 H   0  0  0  0  0  0  0  0  0  0  0  0  # atno 6908 bound_to 6896
  151.2055  133.4542  159.2630 H   0  0  0  0  0  0  0  0  0  0  0  0  # atno 6909 bound_to 6896
  146.1082  140.5643  142.8790 H   0  0  0  0  0  0  0  0  0  0  0  0  # atno 7974 bound_to 7965
  154.6960  140.2663  155.6766 H   0  0  0  0  0  0  0  0  0  0  0  0  # atno 8008 bound_to 7997
  156.2749  140.2781  156.1478 H   0  0  0  0  0  0  0  0  0  0  0  0  # atno 8009 bound_to 7997
  155.0830  140.0373  157.2635 H   0  0  0  0  0  0  0  0  0  0  0  0  # atno 8010 bound_to 7997
  140.2464  143.3503  152.0755 H   0  0  0  0  0  0  0  0  0  0  0  0  # atno 10167 bound_to 10162
  156.0323  130.4370  150.2582 H   0  0  0  0  0  0  0  0  0  0  0  0  # atno 10718 bound_to 10713
  154.6212  135.5453  153.7578 H   0  0  0  0  0  0  0  0  0  0  0  0  # atno 10763 bound_to 10752
  153.0239  135.6413  154.1437 H   0  0  0  0  0  0  0  0  0  0  0  0  # atno 10764 bound_to 10752
  154.1371  135.2910  155.3150 H   0  0  0  0  0  0  0  0  0  0  0  0  # atno 10765 bound_to 10752
  141.1655  133.7313  156.8775 H   0  0  0  0  0  0  0  0  0  0  0  0  # atno 11005 bound_to 11000
  144.7488  140.5139  143.6816 LP  0  0  0  0  0  0  0  0  0  0  0  0  # atno 17320 bound_to 7965
  145.5718  139.1484  143.3284 LP  0  0  0  0  0  0  0  0  0  0  0  0  # atno 17321 bound_to 7965
  139.5060  144.6806  151.6018 LP  0  0  0  0  0  0  0  0  0  0  0  0  # atno 17342 bound_to 10162
  140.6074  143.9499  150.6428 LP  0  0  0  0  0  0  0  0  0  0  0  0  # atno 17343 bound_to 10162
  157.0683  131.0109  151.3199 LP  0  0  0  0  0  0  0  0  0  0  0  0  # atno 17370 bound_to 10713
  157.5018  130.7885  149.7613 LP  0  0  0  0  0  0  0  0  0  0  0  0  # atno 17371 bound_to 10713
  140.1738  134.9081  157.2866 LP  0  0  0  0  0  0  0  0  0  0  0  0  # atno 17394 bound_to 11000
  140.2472  134.3726  155.7456 LP  0  0  0  0  0  0  0  0  0  0  0  0  # atno 17395 bound_to 11000

$$$$
