AV-unprocessed.smi:607|AV-procd|sdf|3043|dock9
  -GOLD-   2262023563D 1   1.00000     0.00000
 Structure written by MMmdl.
 42 43  0  0  0  0  0  0  0  0  1 V2000
  153.2373  138.4002  159.7415 C   0  0  0  0  0  0  0  0  0  0  0  0
  152.6410  139.7310  159.3806 C   0  0  0  0  0  0  0  0  0  0  0  0
  153.0672  140.8177  160.0005 N   0  0  0  0  0  0  0  0  0  0  0  0
  152.3556  141.8241  159.4574 N   0  0  0  0  0  0  0  0  0  0  0  0
  152.5779  143.1805  159.9196 C   0  0  0  0  0  0  0  0  0  0  0  0
  151.4794  141.3743  158.4887 C   0  0  0  0  0  0  0  0  0  0  0  0
  150.5892  142.3167  157.7410 C   0  0  0  0  0  0  0  0  0  0  0  0
  151.6337  140.0121  158.4101 C   0  0  0  0  0  0  0  0  0  0  0  0
  150.9369  139.0042  157.5173 C   0  0  1  0  0  0  0  0  0  0  0  0
  151.9140  138.3538  156.5196 C   0  0  0  0  0  0  0  0  0  0  0  0
  150.1754  137.9829  158.3783 C   0  0  0  0  0  0  0  0  0  0  0  0
  150.5794  137.6745  159.4997 O   0  0  0  0  0  0  0  0  0  0  0  0
  149.0609  137.4670  157.8330 N   0  0  0  0  0  0  0  0  0  0  0  0
  148.1251  136.5363  158.4674 C   0  0  0  0  0  0  0  0  0  0  0  0
  147.8720  136.9207  159.8691 C   0  0  0  0  0  0  0  0  0  0  0  0
  147.6748  137.2224  160.9687 N   0  0  0  0  0  0  0  0  0  0  0  0
  146.8196  136.5277  157.6584 C   0  0  0  0  0  0  0  0  0  0  0  0
  147.0119  135.5057  156.5295 C   0  0  0  0  0  0  0  0  0  0  0  0
  148.2142  134.6396  156.9267 C   0  0  0  0  0  0  0  0  0  0  0  0
  148.6063  135.0810  158.3395 C   0  0  0  0  0  0  0  0  0  0  0  0
  153.8303  138.0045  158.9168 H   0  0  0  0  0  0  0  0  0  0  0  0
  152.4582  137.6732  159.9705 H   0  0  0  0  0  0  0  0  0  0  0  0
  153.8879  138.4705  160.6142 H   0  0  0  0  0  0  0  0  0  0  0  0
  152.9479  143.7920  159.0963 H   0  0  0  0  0  0  0  0  0  0  0  0
  153.3102  143.1980  160.7282 H   0  0  0  0  0  0  0  0  0  0  0  0
  151.6406  143.6016  160.2844 H   0  0  0  0  0  0  0  0  0  0  0  0
  150.1077  141.8307  156.8936 H   0  0  0  0  0  0  0  0  0  0  0  0
  151.1567  143.1621  157.3512 H   0  0  0  0  0  0  0  0  0  0  0  0
  149.8065  142.7054  158.3926 H   0  0  0  0  0  0  0  0  0  0  0  0
  150.1753  139.5058  156.9193 H   0  0  0  0  0  0  0  0  0  0  0  0
  152.7194  137.8186  157.0227 H   0  0  0  0  0  0  0  0  0  0  0  0
  152.3717  139.1093  155.8804 H   0  0  0  0  0  0  0  0  0  0  0  0
  151.4019  137.6450  155.8677 H   0  0  0  0  0  0  0  0  0  0  0  0
  148.8140  137.7821  156.9059 H   0  0  0  0  0  0  0  0  0  0  0  0
  146.0008  136.1914  158.2968 H   0  0  0  0  0  0  0  0  0  0  0  0
  146.5427  137.5145  157.2845 H   0  0  0  0  0  0  0  0  0  0  0  0
  146.1122  134.9055  156.3911 H   0  0  0  0  0  0  0  0  0  0  0  0
  147.2136  136.0123  155.5850 H   0  0  0  0  0  0  0  0  0  0  0  0
  147.9884  133.5737  156.8830 H   0  0  0  0  0  0  0  0  0  0  0  0
  149.0414  134.8264  156.2410 H   0  0  0  0  0  0  0  0  0  0  0  0
  149.6706  134.9490  158.5355 H   0  0  0  0  0  0  0  0  0  0  0  0
  148.0727  134.4615  159.0619 H   0  0  0  0  0  0  0  0  0  0  0  0
  1  2  1  0  0  0  0
  1 21  1  0  0  0  0
  1 22  1  0  0  0  0
  1 23  1  0  0  0  0
  2  8  1  0  0  0  0
  2  3  2  0  0  0  0
  3  4  1  0  0  0  0
  4  5  1  0  0  0  0
  4  6  1  0  0  0  0
  5 24  1  0  0  0  0
  5 25  1  0  0  0  0
  5 26  1  0  0  0  0
  6  7  1  0  0  0  0
  6  8  2  0  0  0  0
  7 27  1  0  0  0  0
  7 28  1  0  0  0  0
  7 29  1  0  0  0  0
  8  9  1  0  0  0  0
  9 10  1  0  0  0  0
  9 11  1  0  0  0  0
  9 30  1  0  0  0  0
 10 31  1  0  0  0  0
 10 32  1  0  0  0  0
 10 33  1  0  0  0  0
 11 12  2  0  0  0  0
 11 13  1  0  0  0  0
 13 14  1  0  0  0  0
 13 34  1  0  0  0  0
 14 20  1  0  0  0  0
 14 15  1  0  0  0  0
 14 17  1  0  0  0  0
 15 16  3  0  0  0  0
 17 18  1  0  0  0  0
 17 35  1  0  0  0  0
 17 36  1  0  0  0  0
 18 19  1  0  0  0  0
 18 37  1  0  0  0  0
 18 38  1  0  0  0  0
 19 20  1  0  0  0  0
 19 39  1  0  0  0  0
 19 40  1  0  0  0  0
 20 41  1  0  0  0  0
 20 42  1  0  0  0  0
M  END
> <s_m_source_file>
AV-unprocessed.smi

> <i_m_source_file_index>
607

> <i_lp_mmshare_version>
43012

> <i_f3d_flags>
0

> <s_epik_input>
W0NIM11jMW5uKFtDSDNdKWMoW0NIM10pYzFbQ0BIXShbQ0gzXSlDKD1PKVtOSF1DMihDI04pW0NIMl1bQ0gyXVtDSDJdW0NIMl0y

> <s_epik_cmdline>
J2VwaWtfcHl0aG9uJywgJy1waCcsICc3LjAnLCAnLXRuJywgJzgnLCAnLW1hJywgJzIwMCcsICctbWV0YWxfYmluZGluZycsICctaW1hZScsICc8aW5maWxlLm1hZT4nLCAnLW9tYWUnLCAnPG91dGZpbGUubWFlPic=

> <r_lp_tautomer_probability>
1

> <r_epik_Ionization_Penalty>
0.00342632

> <r_epik_Ionization_Penalty_Charging>
0

> <r_epik_Ionization_Penalty_Neutral>
0.00342632

> <r_epik_State_Penalty>
0.00242724

> <r_epik_Charging_Adjusted_Penalty>
0.00242724

> <i_epik_Tot_Q>
0

> <i_epik_Tot_abs_Q>
0

> <r_epik_Metal_State_Penalty>
-0

> <b_epik_Metal_Only>
0

> <s_lp_Force_Field>
OPLS_2005

> <r_lp_Energy>
13.7926

> <b_lp_Chiralities_Consistent>
1

> <s_lp_Variant>
AV-unprocessed.smi:607-2

> <Gold.Version>
5.8.1

> <Gold.Id.Protein>
6NUR|6NUR_protein|mol2

> <Gold.PLP.Fitness>
29.2434

> <Gold.PLP.PLP>
-26.0528

> <Gold.PLP.part.hbond>
-2.7330

> <Gold.PLP.part.metal>
0.0000

> <Gold.PLP.part.buried>
-4.5630

> <Gold.PLP.part.nonpolar>
-18.5135

> <Gold.PLP.part.repulsive>
0.0748

> <Gold.PLP.ligand.clash>
0.0000

> <Gold.PLP.ligand.torsion>
1.1505

> <Gold.PLP.Chemscore.Hbond>
1.7920

> <Gold.PLP.Chemscore.CHOScore>
0.0000

> <Gold.PLP.Chemscore.Metal>
0.0000

> <Gold.Chemscore.Hbonds>
donor molecule, donor type, donor heavy atom, donor atom, acceptor molecule, acceptor atom, score
      P1  H  6931  6943       L1    16  0.86
      P1  H  6934  6947       L1    16  0.90

> <Gold.PLP.Chemscore.Internal.Correction>
0.1156

> <Gold.Rescore>
     Score         DG    S(hbond)    S(metal)    S(lipo)     H(rot)  DE(clash)    DE(int)     intcor
     11.04     -13.66       1.54        0.00      55.90       1.37       0.08       2.54       ----

> <Gold.Chemscore.Fitness>
11.0390

> <Gold.Chemscore.DG>
-13.6612

> <Gold.Chemscore.ZeroCoef>
-5.4800

> <Gold.Chemscore.Hbond>
1.5429

> <Gold.Chemscore.Metal>
0.0000

> <Gold.Chemscore.Lipo>
55.9000

> <Gold.Chemscore.Internal_Hbond>
0.0000

> <Gold.Chemscore.DEClash>
0.0811

> <Gold.Chemscore.DEInternal>
2.5411

> <Gold.Chemscore.Rot>
1.3720

> <Gold.Chemscore.Internal.Correction>
   9.000000E+99

> <Gold.Chemscore.Hbonds>
donor molecule, donor type, donor heavy atom, donor atom, acceptor molecule, acceptor atom, score
      P1  H  6931  6943       L1    16  0.81
      P1  H  6934  6947       L1    16  0.49

> <Gold.Chemscore.Hbond.Weighted>
-5.1531

> <Gold.Chemscore.Metal.Weighted>
-0.0000

> <Gold.Chemscore.Lipo.Weighted>
-6.5403

> <Gold.Chemscore.Internal_Hbond.Weighted>
0.0000

> <Gold.Chemscore.DEClash.Weighted>
0.0811

> <Gold.Chemscore.DEInternal.Weighted>
2.5411

> <Gold.Chemscore.Rot.Weighted>
3.5123

> <Gold.Chemscore.Internal.Correction.Weighted>
   9.000000E+99

> <Gold.Protein.RotatedTorsions>
[ 6907 6896 6895 6894 ] final  121.44 input  -60.11 | X-H torsion
[ 7974 7965 7964 7962 ] final -177.62 input  175.53 | X-H torsion
[ 8008 7997 7996 7995 ] final   12.42 input   59.86 | X-H torsion
[ 10167 10162 10161 10158 ] final -153.50 input  -65.29 | X-H torsion
[ 10718 10713 10712 10709 ] final  -27.86 input   66.30 | X-H torsion
[ 10763 10752 10751 10750 ] final -105.43 input  -60.55 | X-H torsion
[ 11005 11000 10999 10996 ] final  163.91 input  -57.11 | X-H torsion

> <Gold.Protein.ActiveResidues>
 VAL166  LYS551  ARG553  GLY616  TRP617  ASP618  TYR619  PRO620  LYS621  CYS622 
 ASP623  PHE694  ASN695  SER759  ASP760  ASP761  ALA762  ILE779  LEU786  VAL792 
 PHE793  MET794  SER795  GLU796  ALA797  LYS798  CYS799  TRP800  GLU811  SER814 

> <Gold.Protein.RotatedAtoms>
  152.4322  133.7297  159.6579 H   0  0  0  0  0  0  0  0  0  0  0  0  # atno 6907 bound_to 6896
  150.8202  133.8256  159.3148 H   0  0  0  0  0  0  0  0  0  0  0  0  # atno 6908 bound_to 6896
  151.5941  135.1054  160.0097 H   0  0  0  0  0  0  0  0  0  0  0  0  # atno 6909 bound_to 6896
  144.7128  140.0991  143.6417 H   0  0  0  0  0  0  0  0  0  0  0  0  # atno 7974 bound_to 7965
  154.8204  140.2883  155.5791 H   0  0  0  0  0  0  0  0  0  0  0  0  # atno 8008 bound_to 7997
  156.2997  140.2551  156.3040 H   0  0  0  0  0  0  0  0  0  0  0  0  # atno 8009 bound_to 7997
  154.9345  140.0382  157.2054 H   0  0  0  0  0  0  0  0  0  0  0  0  # atno 8010 bound_to 7997
  139.7091  143.9137  152.2461 H   0  0  0  0  0  0  0  0  0  0  0  0  # atno 10167 bound_to 10162
  156.4327  130.4448  149.7106 H   0  0  0  0  0  0  0  0  0  0  0  0  # atno 10718 bound_to 10713
  154.7946  135.4749  154.0131 H   0  0  0  0  0  0  0  0  0  0  0  0  # atno 10763 bound_to 10752
  153.1683  135.6820  153.8651 H   0  0  0  0  0  0  0  0  0  0  0  0  # atno 10764 bound_to 10752
  153.8241  135.3200  155.3391 H   0  0  0  0  0  0  0  0  0  0  0  0  # atno 10765 bound_to 10752
  140.2406  134.8054  157.3407 H   0  0  0  0  0  0  0  0  0  0  0  0  # atno 11005 bound_to 11000
  145.9553  139.2762  143.1188 LP  0  0  0  0  0  0  0  0  0  0  0  0  # atno 17320 bound_to 7965
  145.9279  140.9069  143.0371 LP  0  0  0  0  0  0  0  0  0  0  0  0  # atno 17321 bound_to 7965
  139.9001  144.6916  150.8674 LP  0  0  0  0  0  0  0  0  0  0  0  0  # atno 17342 bound_to 10162
  140.7729  143.3520  151.1995 LP  0  0  0  0  0  0  0  0  0  0  0  0  # atno 17343 bound_to 10162
  156.4002  130.7671  151.2678 LP  0  0  0  0  0  0  0  0  0  0  0  0  # atno 17370 bound_to 10713
  157.7508  131.0242  150.3866 LP  0  0  0  0  0  0  0  0  0  0  0  0  # atno 17371 bound_to 10713
  140.1657  134.4672  155.7864 LP  0  0  0  0  0  0  0  0  0  0  0  0  # atno 17394 bound_to 11000
  141.2211  133.6920  156.7621 LP  0  0  0  0  0  0  0  0  0  0  0  0  # atno 17395 bound_to 11000

$$$$
