AV-unprocessed.smi:113|AV-procd|sdf|1093|dock2
  -GOLD-   2262018193D 1   1.00000     0.00000
 Structure written by MMmdl.
 52 55  0  0  0  0  0  0  0  0  1 V2000
  152.7703  137.5436  158.2005 C   0  0  0  0  0  0  0  0  0  0  0  0
  152.4626  139.0264  158.2196 C   0  0  0  0  0  0  0  0  0  0  0  0
  151.6638  139.6052  157.2179 C   0  0  0  0  0  0  0  0  0  0  0  0
  151.3941  140.9918  157.2704 C   0  0  0  0  0  0  0  0  0  0  0  0
  150.5313  141.6723  156.2014 C   0  0  0  0  0  0  0  0  0  0  0  0
  149.2084  141.1097  155.9674 N   0  0  0  0  0  0  0  0  0  0  0  0
  148.8291  140.8495  154.6281 C   0  0  0  0  0  0  0  0  0  0  0  0
  149.5800  141.1019  153.6832 O   0  0  0  0  0  0  0  0  0  0  0  0
  147.5044  140.2471  154.4633 C   0  0  0  0  0  0  0  0  0  0  0  0
  147.0301  139.9329  153.0531 C   0  0  0  0  0  0  0  0  0  0  0  0
  146.7459  139.9811  155.5538 C   0  0  0  0  0  0  0  0  0  0  0  0
  147.1359  140.2520  156.8538 N   0  0  0  0  0  0  0  0  0  0  0  0
  146.2241  139.8565  157.9979 C   0  0  2  0  0  0  0  0  0  0  0  0
  144.8889  139.2566  157.5435 C   0  0  0  0  0  0  0  0  0  0  0  0
  143.9611  139.7674  158.6262 C   0  0  2  0  0  0  0  0  0  0  0  0
  142.6278  139.8278  158.1629 O   0  0  0  0  0  0  0  0  0  0  0  0
  144.5370  141.1539  158.9321 C   0  0  1  0  0  0  0  0  0  0  0  0
  144.2282  141.6415  160.3560 C   0  0  0  0  0  0  0  0  0  0  0  0
  144.8364  140.7901  161.3036 O   0  0  0  0  0  0  0  0  0  0  0  0
  145.9467  140.9862  158.7727 O   0  0  0  0  0  0  0  0  0  0  0  0
  148.4129  140.8066  157.0955 C   0  0  0  0  0  0  0  0  0  0  0  0
  148.8211  141.0004  158.2421 O   0  0  0  0  0  0  0  0  0  0  0  0
  151.9479  141.7365  158.3468 C   0  0  0  0  0  0  0  0  0  0  0  0
  151.7230  143.1283  158.4761 C   0  0  0  0  0  0  0  0  0  0  0  0
  152.2836  143.8479  159.5462 C   0  0  0  0  0  0  0  0  0  0  0  0
  153.0737  143.1840  160.4990 C   0  0  0  0  0  0  0  0  0  0  0  0
  153.2995  141.8011  160.3795 C   0  0  0  0  0  0  0  0  0  0  0  0
  152.7470  141.0584  159.3141 C   0  0  0  0  0  0  0  0  0  0  0  0
  152.9890  139.7312  159.2400 N   0  0  0  0  0  0  0  0  0  0  0  0
  152.7768  137.1632  157.1785 H   0  0  0  0  0  0  0  0  0  0  0  0
  152.0154  136.9964  158.7653 H   0  0  0  0  0  0  0  0  0  0  0  0
  153.7464  137.3386  158.6421 H   0  0  0  0  0  0  0  0  0  0  0  0
  151.2711  138.9815  156.4293 H   0  0  0  0  0  0  0  0  0  0  0  0
  150.3985  142.7284  156.4415 H   0  0  0  0  0  0  0  0  0  0  0  0
  151.0540  141.6788  155.2441 H   0  0  0  0  0  0  0  0  0  0  0  0
  146.0336  139.4902  153.0486 H   0  0  0  0  0  0  0  0  0  0  0  0
  147.7091  139.2290  152.5702 H   0  0  0  0  0  0  0  0  0  0  0  0
  146.9935  140.8418  152.4514 H   0  0  0  0  0  0  0  0  0  0  0  0
  145.7763  139.5317  155.3935 H   0  0  0  0  0  0  0  0  0  0  0  0
  146.7894  139.1589  158.6167 H   0  0  0  0  0  0  0  0  0  0  0  0
  144.5980  139.6338  156.5637 H   0  0  0  0  0  0  0  0  0  0  0  0
  144.9453  138.1690  157.4940 H   0  0  0  0  0  0  0  0  0  0  0  0
  144.0253  139.1221  159.5038 H   0  0  0  0  0  0  0  0  0  0  0  0
  142.5521  139.2823  157.3946 H   0  0  0  0  0  0  0  0  0  0  0  0
  144.1772  141.8680  158.1894 H   0  0  0  0  0  0  0  0  0  0  0  0
  144.6374  142.6409  160.5067 H   0  0  0  0  0  0  0  0  0  0  0  0
  143.1538  141.7016  160.5314 H   0  0  0  0  0  0  0  0  0  0  0  0
  145.7271  141.0762  161.4367 H   0  0  0  0  0  0  0  0  0  0  0  0
  151.1196  143.6683  157.7629 H   0  0  0  0  0  0  0  0  0  0  0  0
  152.1065  144.9097  159.6355 H   0  0  0  0  0  0  0  0  0  0  0  0
  153.5060  143.7340  161.3219 H   0  0  0  0  0  0  0  0  0  0  0  0
  153.9080  141.3015  161.1193 H   0  0  0  0  0  0  0  0  0  0  0  0
  1  2  1  0  0  0  0
  1 30  1  0  0  0  0
  1 31  1  0  0  0  0
  1 32  1  0  0  0  0
  2 29  1  0  0  0  0
  2  3  2  0  0  0  0
  3  4  1  0  0  0  0
  3 33  1  0  0  0  0
  4  5  1  0  0  0  0
  4 23  2  0  0  0  0
  5  6  1  0  0  0  0
  5 34  1  0  0  0  0
  5 35  1  0  0  0  0
  6 21  1  0  0  0  0
  6  7  1  0  0  0  0
  7  8  2  0  0  0  0
  7  9  1  0  0  0  0
  9 10  1  0  0  0  0
  9 11  2  0  0  0  0
 10 36  1  0  0  0  0
 10 37  1  0  0  0  0
 10 38  1  0  0  0  0
 11 12  1  0  0  0  0
 11 39  1  0  0  0  0
 12 13  1  0  0  0  0
 12 21  1  0  0  0  0
 13 20  1  0  0  0  0
 13 14  1  0  0  0  0
 13 40  1  0  0  0  0
 14 15  1  0  0  0  0
 14 41  1  0  0  0  0
 14 42  1  0  0  0  0
 15 16  1  0  0  0  0
 15 17  1  0  0  0  0
 15 43  1  0  0  0  0
 16 44  1  0  0  0  0
 17 18  1  0  0  0  0
 17 20  1  0  0  0  0
 17 45  1  0  0  0  0
 18 19  1  0  0  0  0
 18 46  1  0  0  0  0
 18 47  1  0  0  0  0
 19 48  1  0  0  0  0
 21 22  2  0  0  0  0
 23 28  1  0  0  0  0
 23 24  1  0  0  0  0
 24 25  2  0  0  0  0
 24 49  1  0  0  0  0
 25 26  1  0  0  0  0
 25 50  1  0  0  0  0
 26 27  2  0  0  0  0
 26 51  1  0  0  0  0
 27 28  1  0  0  0  0
 27 52  1  0  0  0  0
 28 29  2  0  0  0  0
M  END
> <s_m_source_file>
AV-unprocessed.smi

> <i_m_source_file_index>
113

> <i_lp_mmshare_version>
43012

> <i_f3d_flags>
0

> <s_epik_input>
W2NIXTFbY0hdW2NIXVtjSF1jKGMxMiluYyhbQ0gzXSlbY0hdYzJbQ0gyXW4zYyg9TyljKFtDSDNdKVtjSF1uKGMzPU8pW0NAQEhdNFtDSDJdW0NAQEhdKFtPSF0pW0NASF0oTzQpW0NIMl1bT0hd

> <s_epik_cmdline>
J2VwaWtfcHl0aG9uJywgJy1waCcsICc3LjAnLCAnLXRuJywgJzgnLCAnLW1hJywgJzIwMCcsICctbWV0YWxfYmluZGluZycsICctaW1hZScsICc8aW5maWxlLm1hZT4nLCAnLW9tYWUnLCAnPG91dGZpbGUubWFlPic=

> <r_lp_tautomer_probability>
1

> <r_epik_Ionization_Penalty>
0.214728

> <r_epik_Ionization_Penalty_Charging>
3.04883e-08

> <r_epik_Ionization_Penalty_Neutral>
0.214728

> <r_epik_State_Penalty>
0.204913

> <r_epik_Charging_Adjusted_Penalty>
0.204913

> <i_epik_Tot_Q>
0

> <i_epik_Tot_abs_Q>
0

> <r_epik_Metal_State_Penalty>
0.000244761

> <b_epik_Metal_Only>
0

> <s_epik_Chemistry_Notes>
This compound contains an acetal/aminal-like group ( X-CH(R)-Y where X, Y are N, S, or O) that may be acid/base labile, releasing an aldehyde.

> <s_lp_Force_Field>
OPLS_2005

> <r_lp_Energy>
34.9534

> <b_lp_Chiralities_Consistent>
1

> <s_lp_Variant>
AV-unprocessed.smi:113-3

> <Gold.Version>
5.8.1

> <Gold.Id.Protein>
6NUR|6NUR_protein|mol2

> <Gold.PLP.Fitness>
45.9073

> <Gold.PLP.PLP>
-41.3373

> <Gold.PLP.part.hbond>
-6.0307

> <Gold.PLP.part.metal>
0.0000

> <Gold.PLP.part.buried>
-5.7468

> <Gold.PLP.part.nonpolar>
-32.0821

> <Gold.PLP.part.repulsive>
2.6983

> <Gold.PLP.ligand.clash>
0.0000

> <Gold.PLP.ligand.torsion>
0.2004

> <Gold.PLP.Chemscore.Hbond>
1.6344

> <Gold.PLP.Chemscore.CHOScore>
0.0000

> <Gold.PLP.Chemscore.Metal>
0.0000

> <Gold.Chemscore.Hbonds>
donor molecule, donor type, donor heavy atom, donor atom, acceptor molecule, acceptor atom, score
      P1  H  6934  6946       L1    20  0.39
      P1  H  7989  7998       L1     8  0.29
      P1  H  8011  8017       L1     8  0.96

> <Gold.PLP.Chemscore.Internal.Correction>
0.0675

> <Gold.Rescore>
     Score         DG    S(hbond)    S(metal)    S(lipo)     H(rot)  DE(clash)    DE(int)     intcor
     10.86     -15.20       1.42        0.00     107.17       2.95       1.44       2.91       ----

> <Gold.Chemscore.Fitness>
10.8552

> <Gold.Chemscore.DG>
-15.2017

> <Gold.Chemscore.ZeroCoef>
-5.4800

> <Gold.Chemscore.Hbond>
1.4152

> <Gold.Chemscore.Metal>
0.0000

> <Gold.Chemscore.Lipo>
107.1709

> <Gold.Chemscore.Internal_Hbond>
0.0000

> <Gold.Chemscore.DEClash>
1.4377

> <Gold.Chemscore.DEInternal>
2.9089

> <Gold.Chemscore.Rot>
2.9469

> <Gold.Chemscore.Internal.Correction>
   9.000000E+99

> <Gold.Chemscore.Hbonds>
donor molecule, donor type, donor heavy atom, donor atom, acceptor molecule, acceptor atom, score
      P1  H  6934  6946       L1    20  0.22
      P1  H  7989  7998       L1     8  0.26
      P1  H  8011  8017       L1     8  0.92

> <Gold.Chemscore.Hbond.Weighted>
-4.7267

> <Gold.Chemscore.Metal.Weighted>
-0.0000

> <Gold.Chemscore.Lipo.Weighted>
-12.5390

> <Gold.Chemscore.Internal_Hbond.Weighted>
0.0000

> <Gold.Chemscore.DEClash.Weighted>
1.4377

> <Gold.Chemscore.DEInternal.Weighted>
2.9089

> <Gold.Chemscore.Rot.Weighted>
7.5439

> <Gold.Chemscore.Internal.Correction.Weighted>
   9.000000E+99

> <Gold.Protein.RotatedTorsions>
[ 6907 6896 6895 6894 ] final   61.71 input  -60.11 | X-H torsion
[ 7974 7965 7964 7962 ] final   -6.43 input  175.53 | X-H torsion
[ 8008 7997 7996 7995 ] final   49.23 input   59.86 | X-H torsion
[ 10167 10162 10161 10158 ] final  -60.25 input  -65.29 | X-H torsion
[ 10718 10713 10712 10709 ] final -166.71 input   66.30 | X-H torsion
[ 10763 10752 10751 10750 ] final  175.89 input  -60.55 | X-H torsion
[ 11005 11000 10999 10996 ] final -119.85 input  -57.11 | X-H torsion

> <Gold.Protein.ActiveResidues>
 VAL166  LYS551  ARG553  GLY616  TRP617  ASP618  TYR619  PRO620  LYS621  CYS622 
 ASP623  PHE694  ASN695  SER759  ASP760  ASP761  ALA762  ILE779  LEU786  VAL792 
 PHE793  MET794  SER795  GLU796  ALA797  LYS798  CYS799  TRP800  GLU811  SER814 

> <Gold.Protein.RotatedAtoms>
  152.4112  134.6122  160.0028 H   0  0  0  0  0  0  0  0  0  0  0  0  # atno 6907 bound_to 6896
  151.6298  133.3327  159.3114 H   0  0  0  0  0  0  0  0  0  0  0  0  # atno 6908 bound_to 6896
  150.8002  134.7131  159.6660 H   0  0  0  0  0  0  0  0  0  0  0  0  # atno 6909 bound_to 6896
  146.2331  140.2170  142.8336 H   0  0  0  0  0  0  0  0  0  0  0  0  # atno 7974 bound_to 7965
  155.3988  140.3437  155.4255 H   0  0  0  0  0  0  0  0  0  0  0  0  # atno 8008 bound_to 7997
  156.1515  140.1572  156.8793 H   0  0  0  0  0  0  0  0  0  0  0  0  # atno 8009 bound_to 7997
  154.5057  140.0803  156.7870 H   0  0  0  0  0  0  0  0  0  0  0  0  # atno 8010 bound_to 7997
  140.6083  143.2380  151.5768 H   0  0  0  0  0  0  0  0  0  0  0  0  # atno 10167 bound_to 10162
  156.6719  130.9087  151.3045 H   0  0  0  0  0  0  0  0  0  0  0  0  # atno 10718 bound_to 10713
  154.4737  135.2772  155.1623 H   0  0  0  0  0  0  0  0  0  0  0  0  # atno 10763 bound_to 10752
  154.3362  135.6180  153.5578 H   0  0  0  0  0  0  0  0  0  0  0  0  # atno 10764 bound_to 10752
  152.9867  135.5777  154.5123 H   0  0  0  0  0  0  0  0  0  0  0  0  # atno 10765 bound_to 10752
  141.0186  134.0158  157.3314 H   0  0  0  0  0  0  0  0  0  0  0  0  # atno 11005 bound_to 11000
  144.9662  140.8324  143.5483 LP  0  0  0  0  0  0  0  0  0  0  0  0  # atno 17320 bound_to 7965
  145.2146  139.2188  143.5125 LP  0  0  0  0  0  0  0  0  0  0  0  0  # atno 17321 bound_to 7965
  139.5342  144.2829  152.1215 LP  0  0  0  0  0  0  0  0  0  0  0  0  # atno 17342 bound_to 10162
  140.2023  144.4646  150.6425 LP  0  0  0  0  0  0  0  0  0  0  0  0  # atno 17343 bound_to 10162
  157.7074  130.9401  150.0976 LP  0  0  0  0  0  0  0  0  0  0  0  0  # atno 17370 bound_to 10713
  156.1932  130.3656  149.8882 LP  0  0  0  0  0  0  0  0  0  0  0  0  # atno 17371 bound_to 10713
  139.9132  135.0193  156.7777 LP  0  0  0  0  0  0  0  0  0  0  0  0  # atno 17394 bound_to 11000
  140.6612  133.9644  155.7805 LP  0  0  0  0  0  0  0  0  0  0  0  0  # atno 17395 bound_to 11000

$$$$
