AV-unprocessed.smi:3019|AV-procd|sdf|11489|dock10
  -GOLD-   2272016433D 1   1.00000     0.00000
 Structure written by MMmdl.
 30 31  0  0  0  0  0  0  0  0  1 V2000
  152.0522  144.6010  158.1067 C   0  0  0  0  0  0  0  0  0  0  0  0
  151.6374  143.2186  158.6318 C   0  0  0  0  0  0  0  0  0  0  0  0
  152.6945  142.6180  159.5700 C   0  0  0  0  0  0  0  0  0  0  0  0
  151.2965  142.2815  157.5139 C   0  0  0  0  0  0  0  0  0  0  0  0
  150.3176  142.5356  156.6424 N   0  0  0  0  0  0  0  0  0  0  0  0
  150.2278  141.5185  155.7596 N   0  0  0  0  0  0  0  0  0  0  0  0
  151.2026  140.7074  156.1690 C   0  0  0  0  0  0  0  0  0  0  0  0
  151.4480  139.3961  155.4897 C   0  0  2  0  0  0  0  0  0  0  0  0
  150.4335  139.1308  154.3598 C   0  0  0  0  0  0  0  0  0  0  0  0
  150.6414  137.7986  153.7942 N   0  0  0  0  0  0  0  0  0  0  0  0
  150.5894  136.7716  154.8338 C   0  0  0  0  0  0  0  0  0  0  0  0
  151.5959  137.0916  155.9540 C   0  0  0  0  0  0  0  0  0  0  0  0
  151.3235  138.3834  156.4862 O   0  0  0  0  0  0  0  0  0  0  0  0
  151.8966  141.1199  157.2742 N   0  0  0  0  0  0  0  0  0  0  0  0
  151.2643  145.0407  157.4942 H   0  0  0  0  0  0  0  0  0  0  0  0
  152.9532  144.5391  157.4951 H   0  0  0  0  0  0  0  0  0  0  0  0
  152.2551  145.2889  158.9278 H   0  0  0  0  0  0  0  0  0  0  0  0
  150.7311  143.3613  159.2224 H   0  0  0  0  0  0  0  0  0  0  0  0
  152.3585  141.6652  159.9801 H   0  0  0  0  0  0  0  0  0  0  0  0
  152.9001  143.2843  160.4080 H   0  0  0  0  0  0  0  0  0  0  0  0
  153.6352  142.4420  159.0467 H   0  0  0  0  0  0  0  0  0  0  0  0
  152.4656  139.3907  155.0931 H   0  0  0  0  0  0  0  0  0  0  0  0
  149.4181  139.2100  154.7503 H   0  0  0  0  0  0  0  0  0  0  0  0
  150.5302  139.8878  153.5812 H   0  0  0  0  0  0  0  0  0  0  0  0
  149.5832  136.7169  155.2510 H   0  0  0  0  0  0  0  0  0  0  0  0
  150.8046  135.7931  154.4046 H   0  0  0  0  0  0  0  0  0  0  0  0
  151.5122  136.3567  156.7547 H   0  0  0  0  0  0  0  0  0  0  0  0
  152.6214  137.0438  155.5841 H   0  0  0  0  0  0  0  0  0  0  0  0
  149.9294  137.6111  153.0956 H   0  0  0  0  0  0  0  0  0  0  0  0
  149.7108  143.3426  156.6179 H   0  0  0  0  0  0  0  0  0  0  0  0
  1  2  1  0  0  0  0
  1 15  1  0  0  0  0
  1 16  1  0  0  0  0
  1 17  1  0  0  0  0
  2  3  1  0  0  0  0
  2  4  1  0  0  0  0
  2 18  1  0  0  0  0
  3 19  1  0  0  0  0
  3 20  1  0  0  0  0
  3 21  1  0  0  0  0
  4 14  2  0  0  0  0
  4  5  1  0  0  0  0
  5  6  1  0  0  0  0
  5 30  1  0  0  0  0
  6  7  2  0  0  0  0
  7  8  1  0  0  0  0
  7 14  1  0  0  0  0
  8 13  1  0  0  0  0
  8  9  1  0  0  0  0
  8 22  1  0  0  0  0
  9 10  1  0  0  0  0
  9 23  1  0  0  0  0
  9 24  1  0  0  0  0
 10 11  1  0  0  0  0
 10 29  1  0  0  0  0
 11 12  1  0  0  0  0
 11 25  1  0  0  0  0
 11 26  1  0  0  0  0
 12 13  1  0  0  0  0
 12 27  1  0  0  0  0
 12 28  1  0  0  0  0
M  END
> <s_m_source_file>
AV-unprocessed.smi

> <i_m_source_file_index>
3019

> <i_lp_mmshare_version>
43012

> <i_f3d_flags>
0

> <s_epik_input>
W0NIM11bQ0hdKFtDSDNdKWMxbltuSF1jKG4xKVtDQEBIXTJbQ0gyXVtOSF1bQ0gyXVtDSDJdTzI=

> <s_epik_cmdline>
J2VwaWtfcHl0aG9uJywgJy1waCcsICc3LjAnLCAnLXRuJywgJzgnLCAnLW1hJywgJzIwMCcsICctbWV0YWxfYmluZGluZycsICctaW1hZScsICc8aW5maWxlLm1hZT4nLCAnLW9tYWUnLCAnPG91dGZpbGUubWFlPic=

> <r_lp_tautomer_probability>
0.948284

> <r_epik_Ionization_Penalty>
1.10045

> <r_epik_Ionization_Penalty_Charging>
0

> <r_epik_Ionization_Penalty_Neutral>
1.10045

> <r_epik_State_Penalty>
1.2625

> <r_epik_Charging_Adjusted_Penalty>
1.2625

> <i_epik_Tot_Q>
0

> <i_epik_Tot_abs_Q>
0

> <r_epik_Metal_State_Penalty>
1.57133

> <b_epik_Metal_Only>
0

> <s_lp_Force_Field>
OPLS_2005

> <r_lp_Energy>
11.1222

> <b_lp_Chiralities_Consistent>
1

> <s_lp_Variant>
AV-unprocessed.smi:3019-5

> <Gold.Version>
5.8.1

> <Gold.Id.Protein>
6NUR|6NUR_protein|mol2

> <Gold.PLP.Fitness>
34.9282

> <Gold.PLP.PLP>
-29.1575

> <Gold.PLP.part.hbond>
-3.0000

> <Gold.PLP.part.metal>
0.0000

> <Gold.PLP.part.buried>
-3.2731

> <Gold.PLP.part.nonpolar>
-23.4210

> <Gold.PLP.part.repulsive>
0.1395

> <Gold.PLP.ligand.clash>
0.0000

> <Gold.PLP.ligand.torsion>
0.0690

> <Gold.PLP.Chemscore.Hbond>
1.9516

> <Gold.PLP.Chemscore.CHOScore>
0.0000

> <Gold.PLP.Chemscore.Metal>
0.0000

> <Gold.Chemscore.Hbonds>
donor molecule, donor type, donor heavy atom, donor atom, acceptor molecule, acceptor atom, score
      L1  H     5    30       P1  8028  1.00
      L1  H    10    29       P1  7948  0.92

> <Gold.PLP.Chemscore.Internal.Correction>
0.0539

> <Gold.Rescore>
     Score         DG    S(hbond)    S(metal)    S(lipo)     H(rot)  DE(clash)    DE(int)     intcor
     15.13     -15.24       1.75        0.00      61.03       1.26       0.03       0.08       ----

> <Gold.Chemscore.Fitness>
15.1306

> <Gold.Chemscore.DG>
-15.2440

> <Gold.Chemscore.ZeroCoef>
-5.4800

> <Gold.Chemscore.Hbond>
1.7510

> <Gold.Chemscore.Metal>
0.0000

> <Gold.Chemscore.Lipo>
61.0340

> <Gold.Chemscore.Internal_Hbond>
0.0000

> <Gold.Chemscore.DEClash>
0.0323

> <Gold.Chemscore.DEInternal>
0.0812

> <Gold.Chemscore.Rot>
1.2598

> <Gold.Chemscore.Internal.Correction>
   9.000000E+99

> <Gold.Chemscore.Hbonds>
donor molecule, donor type, donor heavy atom, donor atom, acceptor molecule, acceptor atom, score
      L1  H     5    30       P1  8028  0.95
      L1  H    10    29       P1  7948  0.29

> <Gold.Chemscore.Hbond.Weighted>
-5.8482

> <Gold.Chemscore.Metal.Weighted>
-0.0000

> <Gold.Chemscore.Lipo.Weighted>
-7.1410

> <Gold.Chemscore.Internal_Hbond.Weighted>
0.0000

> <Gold.Chemscore.DEClash.Weighted>
0.0323

> <Gold.Chemscore.DEInternal.Weighted>
0.0812

> <Gold.Chemscore.Rot.Weighted>
3.2251

> <Gold.Chemscore.Internal.Correction.Weighted>
   9.000000E+99

> <Gold.Protein.RotatedTorsions>
[ 6907 6896 6895 6894 ] final -163.11 input  -60.11 | X-H torsion
[ 7974 7965 7964 7962 ] final -159.26 input  175.53 | X-H torsion
[ 8008 7997 7996 7995 ] final   11.65 input   59.86 | X-H torsion
[ 10167 10162 10161 10158 ] final  -24.52 input  -65.29 | X-H torsion
[ 10718 10713 10712 10709 ] final   47.89 input   66.30 | X-H torsion
[ 10763 10752 10751 10750 ] final  158.87 input  -60.55 | X-H torsion
[ 11005 11000 10999 10996 ] final  -92.36 input  -57.11 | X-H torsion

> <Gold.Protein.ActiveResidues>
 VAL166  LYS551  ARG553  GLY616  TRP617  ASP618  TYR619  PRO620  LYS621  CYS622 
 ASP623  PHE694  ASN695  SER759  ASP760  ASP761  ALA762  ILE779  LEU786  VAL792 
 PHE793  MET794  SER795  GLU796  ALA797  LYS798  CYS799  TRP800  GLU811  SER814 

> <Gold.Protein.RotatedAtoms>
  151.3909  133.3789  159.2720 H   0  0  0  0  0  0  0  0  0  0  0  0  # atno 6907 bound_to 6896
  150.9506  134.8907  159.7680 H   0  0  0  0  0  0  0  0  0  0  0  0  # atno 6908 bound_to 6896
  152.5110  134.3864  159.9421 H   0  0  0  0  0  0  0  0  0  0  0  0  # atno 6909 bound_to 6896
  144.7472  140.3710  143.6076 H   0  0  0  0  0  0  0  0  0  0  0  0  # atno 7974 bound_to 7965
  154.8099  140.2866  155.5861 H   0  0  0  0  0  0  0  0  0  0  0  0  # atno 8008 bound_to 7997
  156.2987  140.2570  156.2914 H   0  0  0  0  0  0  0  0  0  0  0  0  # atno 8009 bound_to 7997
  154.9460  140.0380  157.2110 H   0  0  0  0  0  0  0  0  0  0  0  0  # atno 8010 bound_to 7997
  140.7288  143.4346  151.0749 H   0  0  0  0  0  0  0  0  0  0  0  0  # atno 10167 bound_to 10162
  157.4631  130.8209  149.7907 H   0  0  0  0  0  0  0  0  0  0  0  0  # atno 10718 bound_to 10713
  154.2228  135.2781  155.2918 H   0  0  0  0  0  0  0  0  0  0  0  0  # atno 10763 bound_to 10752
  154.5688  135.5625  153.7078 H   0  0  0  0  0  0  0  0  0  0  0  0  # atno 10764 bound_to 10752
  153.0038  135.6316  154.2369 H   0  0  0  0  0  0  0  0  0  0  0  0  # atno 10765 bound_to 10752
  141.1523  133.7816  157.0009 H   0  0  0  0  0  0  0  0  0  0  0  0  # atno 11005 bound_to 11000
  145.7078  139.1677  143.2556 LP  0  0  0  0  0  0  0  0  0  0  0  0  # atno 17320 bound_to 7965
  146.1369  140.7111  142.9385 LP  0  0  0  0  0  0  0  0  0  0  0  0  # atno 17321 bound_to 7965
  139.8006  143.8089  152.3162 LP  0  0  0  0  0  0  0  0  0  0  0  0  # atno 17342 bound_to 10162
  139.8104  144.7338  150.9705 LP  0  0  0  0  0  0  0  0  0  0  0  0  # atno 17343 bound_to 10162
  156.0038  130.3866  150.2507 LP  0  0  0  0  0  0  0  0  0  0  0  0  # atno 17370 bound_to 10713
  157.0686  131.0110  151.3198 LP  0  0  0  0  0  0  0  0  0  0  0  0  # atno 17371 bound_to 10713
  140.0940  134.9575  157.1821 LP  0  0  0  0  0  0  0  0  0  0  0  0  # atno 17394 bound_to 11000
  140.3407  134.2707  155.7212 LP  0  0  0  0  0  0  0  0  0  0  0  0  # atno 17395 bound_to 11000

$$$$
