AV-unprocessed.smi:2467|AV-procd|sdf|9726|dock4
  -GOLD-   2272013363D 1   1.00000     0.00000
 Structure written by MMmdl.
 46 47  0  0  0  0  0  0  0  0  1 V2000
  146.8056  138.8325  152.4874 C   0  0  0  0  0  0  0  0  0  0  0  0
  147.0838  140.3082  152.8122 C   0  0  0  0  0  0  0  0  0  0  0  0
  147.6872  140.5501  154.2191 C   0  0  0  0  0  0  0  0  0  0  0  0
  147.4402  142.0060  154.6882 C   0  0  0  0  0  0  0  0  0  0  0  0
  146.0238  142.5364  154.4177 C   0  0  0  0  0  0  0  0  0  0  0  0
  149.1932  140.1816  154.2840 C   0  0  1  0  0  0  0  0  0  0  0  0
  149.8593  140.4506  155.6520 C   0  0  0  0  0  0  0  0  0  0  0  0
  151.3453  140.0653  155.6101 C   0  0  1  0  0  0  0  0  0  0  0  0
  151.9348  140.2107  156.9374 N   0  0  0  0  0  0  0  0  0  0  0  0
  151.7669  141.2620  157.7566 C   0  0  0  0  0  0  0  0  0  0  0  0
  151.0661  142.2289  157.4611 O   0  0  0  0  0  0  0  0  0  0  0  0
  152.4132  141.2091  158.9413 N   0  0  0  0  0  0  0  0  0  0  0  0
  152.4652  142.1235  160.0346 C   0  0  0  0  0  0  0  0  0  0  0  0
  153.2694  141.6958  161.1156 C   0  0  0  0  0  0  0  0  0  0  0  0
  153.3941  142.5108  162.2572 C   0  0  0  0  0  0  0  0  0  0  0  0
  152.7087  143.7378  162.2912 C   0  0  0  0  0  0  0  0  0  0  0  0
  151.9280  144.0913  161.1758 C   0  0  0  0  0  0  0  0  0  0  0  0
  151.8079  143.3107  160.0809 N   0  0  0  0  0  0  0  0  0  0  0  0
  151.4785  138.6174  155.1102 C   0  0  0  0  0  0  0  0  0  0  0  0
  150.7273  138.4300  153.7825 C   0  0  0  0  0  0  0  0  0  0  0  0
  149.3630  138.8105  153.9296 O   0  0  0  0  0  0  0  0  0  0  0  0
  146.4620  138.7264  151.4582 H   0  0  0  0  0  0  0  0  0  0  0  0
  146.0345  138.4073  153.1283 H   0  0  0  0  0  0  0  0  0  0  0  0
  147.7068  138.2285  152.5966 H   0  0  0  0  0  0  0  0  0  0  0  0
  147.7592  140.6759  152.0429 H   0  0  0  0  0  0  0  0  0  0  0  0
  146.1663  140.8866  152.6981 H   0  0  0  0  0  0  0  0  0  0  0  0
  147.1652  139.8905  154.9139 H   0  0  0  0  0  0  0  0  0  0  0  0
  147.6681  142.0982  155.7508 H   0  0  0  0  0  0  0  0  0  0  0  0
  148.1300  142.6787  154.1813 H   0  0  0  0  0  0  0  0  0  0  0  0
  145.9593  143.5957  154.6671 H   0  0  0  0  0  0  0  0  0  0  0  0
  145.2703  142.0221  155.0127 H   0  0  0  0  0  0  0  0  0  0  0  0
  145.7563  142.4297  153.3661 H   0  0  0  0  0  0  0  0  0  0  0  0
  149.7261  140.7893  153.5532 H   0  0  0  0  0  0  0  0  0  0  0  0
  149.7545  141.5030  155.9184 H   0  0  0  0  0  0  0  0  0  0  0  0
  149.3694  139.8795  156.4398 H   0  0  0  0  0  0  0  0  0  0  0  0
  151.8538  140.7333  154.9121 H   0  0  0  0  0  0  0  0  0  0  0  0
  152.5278  139.4579  157.2580 H   0  0  0  0  0  0  0  0  0  0  0  0
  152.9341  140.3573  159.0899 H   0  0  0  0  0  0  0  0  0  0  0  0
  153.7898  140.7496  161.0753 H   0  0  0  0  0  0  0  0  0  0  0  0
  154.0045  142.1986  163.0917 H   0  0  0  0  0  0  0  0  0  0  0  0
  152.7794  144.3902  163.1490 H   0  0  0  0  0  0  0  0  0  0  0  0
  151.3855  145.0250  161.1609 H   0  0  0  0  0  0  0  0  0  0  0  0
  152.5288  138.3526  154.9830 H   0  0  0  0  0  0  0  0  0  0  0  0
  151.0704  137.9301  155.8528 H   0  0  0  0  0  0  0  0  0  0  0  0
  151.1941  139.0130  152.9871 H   0  0  0  0  0  0  0  0  0  0  0  0
  150.7685  137.3851  153.4746 H   0  0  0  0  0  0  0  0  0  0  0  0
  1  2  1  0  0  0  0
  1 22  1  0  0  0  0
  1 23  1  0  0  0  0
  1 24  1  0  0  0  0
  2  3  1  0  0  0  0
  2 25  1  0  0  0  0
  2 26  1  0  0  0  0
  3  4  1  0  0  0  0
  3  6  1  0  0  0  0
  3 27  1  0  0  0  0
  4  5  1  0  0  0  0
  4 28  1  0  0  0  0
  4 29  1  0  0  0  0
  5 30  1  0  0  0  0
  5 31  1  0  0  0  0
  5 32  1  0  0  0  0
  6 21  1  0  0  0  0
  6  7  1  0  0  0  0
  6 33  1  0  0  0  0
  7  8  1  0  0  0  0
  7 34  1  0  0  0  0
  7 35  1  0  0  0  0
  8  9  1  0  0  0  0
  8 19  1  0  0  0  0
  8 36  1  0  0  0  0
  9 10  1  0  0  0  0
  9 37  1  0  0  0  0
 10 11  2  0  0  0  0
 10 12  1  0  0  0  0
 12 13  1  0  0  0  0
 12 38  1  0  0  0  0
 13 18  1  0  0  0  0
 13 14  2  0  0  0  0
 14 15  1  0  0  0  0
 14 39  1  0  0  0  0
 15 16  2  0  0  0  0
 15 40  1  0  0  0  0
 16 17  1  0  0  0  0
 16 41  1  0  0  0  0
 17 18  2  0  0  0  0
 17 42  1  0  0  0  0
 19 20  1  0  0  0  0
 19 43  1  0  0  0  0
 19 44  1  0  0  0  0
 20 21  1  0  0  0  0
 20 45  1  0  0  0  0
 20 46  1  0  0  0  0
M  END
> <s_m_source_file>
AV-unprocessed.smi

> <i_m_source_file_index>
2467

> <i_lp_mmshare_version>
43012

> <i_f3d_flags>
0

> <s_epik_input>
W0NIM11bQ0gyXVtDSF0oW0NIMl1bQ0gzXSlbQ0BASF0xW0NIMl1bQ0BIXShbQ0gyXVtDSDJdTzEpW05IXUMoPU8pW05IXWMyW2NIXVtjSF1bY0hdW2NIXW4y

> <s_epik_cmdline>
J2VwaWtfcHl0aG9uJywgJy1waCcsICc3LjAnLCAnLXRuJywgJzgnLCAnLW1hJywgJzIwMCcsICctbWV0YWxfYmluZGluZycsICctaW1hZScsICc8aW5maWxlLm1hZT4nLCAnLW9tYWUnLCAnPG91dGZpbGUubWFlPic=

> <r_lp_tautomer_probability>
1

> <r_epik_Ionization_Penalty>
4.80427e-05

> <r_epik_Ionization_Penalty_Charging>
0

> <r_epik_Ionization_Penalty_Neutral>
4.80427e-05

> <r_epik_State_Penalty>
-0

> <r_epik_Charging_Adjusted_Penalty>
0

> <i_epik_Tot_Q>
0

> <i_epik_Tot_abs_Q>
0

> <r_epik_Metal_State_Penalty>
-0

> <b_epik_Metal_Only>
0

> <s_lp_Force_Field>
OPLS_2005

> <r_lp_Energy>
20.6132

> <b_lp_Chiralities_Consistent>
1

> <s_lp_Variant>
AV-unprocessed.smi:2467-2

> <Gold.Version>
5.8.1

> <Gold.Id.Protein>
6NUR|6NUR_protein|mol2

> <Gold.PLP.Fitness>
46.0785

> <Gold.PLP.PLP>
-46.8763

> <Gold.PLP.part.hbond>
0.0000

> <Gold.PLP.part.metal>
0.0000

> <Gold.PLP.part.buried>
-4.1954

> <Gold.PLP.part.nonpolar>
-41.8720

> <Gold.PLP.part.repulsive>
1.0501

> <Gold.PLP.ligand.clash>
0.0000

> <Gold.PLP.ligand.torsion>
0.4497

> <Gold.PLP.Chemscore.Hbond>
0.0000

> <Gold.PLP.Chemscore.CHOScore>
0.0000

> <Gold.PLP.Chemscore.Metal>
0.0000

> <Gold.PLP.Chemscore.Internal.Correction>
0.1016

> <Gold.Rescore>
     Score         DG    S(hbond)    S(metal)    S(lipo)     H(rot)  DE(clash)    DE(int)     intcor
     10.81     -15.46       0.00        0.00     117.77       1.49       0.45       4.19       ----

> <Gold.Chemscore.Fitness>
10.8124

> <Gold.Chemscore.DG>
-15.4561

> <Gold.Chemscore.ZeroCoef>
-5.4800

> <Gold.Chemscore.Hbond>
0.0000

> <Gold.Chemscore.Metal>
0.0000

> <Gold.Chemscore.Lipo>
117.7709

> <Gold.Chemscore.Internal_Hbond>
0.0000

> <Gold.Chemscore.DEClash>
0.4517

> <Gold.Chemscore.DEInternal>
4.1920

> <Gold.Chemscore.Rot>
1.4856

> <Gold.Chemscore.Internal.Correction>
   9.000000E+99

> <Gold.Chemscore.Hbond.Weighted>
-0.0000

> <Gold.Chemscore.Metal.Weighted>
-0.0000

> <Gold.Chemscore.Lipo.Weighted>
-13.7792

> <Gold.Chemscore.Internal_Hbond.Weighted>
0.0000

> <Gold.Chemscore.DEClash.Weighted>
0.4517

> <Gold.Chemscore.DEInternal.Weighted>
4.1920

> <Gold.Chemscore.Rot.Weighted>
3.8031

> <Gold.Chemscore.Internal.Correction.Weighted>
   9.000000E+99

> <Gold.Protein.RotatedTorsions>
[ 6907 6896 6895 6894 ] final   49.28 input  -60.11 | X-H torsion
[ 7974 7965 7964 7962 ] final   14.96 input  175.53 | X-H torsion
[ 8008 7997 7996 7995 ] final   86.42 input   59.86 | X-H torsion
[ 10167 10162 10161 10158 ] final -100.62 input  -65.29 | X-H torsion
[ 10718 10713 10712 10709 ] final  -18.80 input   66.30 | X-H torsion
[ 10763 10752 10751 10750 ] final  172.52 input  -60.55 | X-H torsion
[ 11005 11000 10999 10996 ] final  -76.75 input  -57.11 | X-H torsion

> <Gold.Protein.ActiveResidues>
 VAL166  LYS551  ARG553  GLY616  TRP617  ASP618  TYR619  PRO620  LYS621  CYS622 
 ASP623  PHE694  ASN695  SER759  ASP760  ASP761  ALA762  ILE779  LEU786  VAL792 
 PHE793  MET794  SER795  GLU796  ALA797  LYS798  CYS799  TRP800  GLU811  SER814 

> <Gold.Protein.RotatedAtoms>
  152.2889  134.7743  160.0381 H   0  0  0  0  0  0  0  0  0  0  0  0  # atno 6907 bound_to 6896
  151.8296  133.3401  159.3617 H   0  0  0  0  0  0  0  0  0  0  0  0  # atno 6908 bound_to 6896
  150.7222  134.5424  159.5798 H   0  0  0  0  0  0  0  0  0  0  0  0  # atno 6909 bound_to 6896
  146.2291  139.8964  142.8546 H   0  0  0  0  0  0  0  0  0  0  0  0  # atno 7974 bound_to 7965
  155.9625  140.3392  155.6503 H   0  0  0  0  0  0  0  0  0  0  0  0  # atno 8008 bound_to 7997
  155.6779  140.0734  157.2514 H   0  0  0  0  0  0  0  0  0  0  0  0  # atno 8009 bound_to 7997
  154.4146  140.1679  156.1938 H   0  0  0  0  0  0  0  0  0  0  0  0  # atno 8010 bound_to 7997
  140.2500  143.3479  152.0723 H   0  0  0  0  0  0  0  0  0  0  0  0  # atno 10167 bound_to 10162
  156.5545  130.4710  149.6436 H   0  0  0  0  0  0  0  0  0  0  0  0  # atno 10718 bound_to 10713
  154.4271  135.2759  155.1937 H   0  0  0  0  0  0  0  0  0  0  0  0  # atno 10763 bound_to 10752
  154.3858  135.6077  153.5819 H   0  0  0  0  0  0  0  0  0  0  0  0  # atno 10764 bound_to 10752
  152.9835  135.5891  154.4577 H   0  0  0  0  0  0  0  0  0  0  0  0  # atno 10765 bound_to 10752
  141.1656  133.6995  156.7716 H   0  0  0  0  0  0  0  0  0  0  0  0  # atno 11005 bound_to 11000
  145.2366  140.9993  143.3960 LP  0  0  0  0  0  0  0  0  0  0  0  0  # atno 17320 bound_to 7965
  144.9486  139.4108  143.6413 LP  0  0  0  0  0  0  0  0  0  0  0  0  # atno 17321 bound_to 7965
  139.5049  144.6785  151.6068 LP  0  0  0  0  0  0  0  0  0  0  0  0  # atno 17342 bound_to 10162
  140.6048  143.9544  150.6411 LP  0  0  0  0  0  0  0  0  0  0  0  0  # atno 17343 bound_to 10162
  156.2854  130.7094  151.1930 LP  0  0  0  0  0  0  0  0  0  0  0  0  # atno 17370 bound_to 10713
  157.7381  131.0544  150.5316 LP  0  0  0  0  0  0  0  0  0  0  0  0  # atno 17371 bound_to 10713
  140.2460  134.8577  157.3621 LP  0  0  0  0  0  0  0  0  0  0  0  0  # atno 17394 bound_to 11000
  140.1749  134.4562  155.7808 LP  0  0  0  0  0  0  0  0  0  0  0  0  # atno 17395 bound_to 11000

$$$$
