AV-unprocessed.smi:609|AV-procd|sdf|3048|dock7
  -GOLD-   2262023563D 1   1.00000     0.00000
 Structure written by MMmdl.
 42 44  0  0  0  0  0  0  0  0  1 V2000
  152.2580  143.5007  160.5968 C   0  0  0  0  0  0  0  0  0  0  0  0
  152.1375  142.4880  159.4716 C   0  0  0  0  0  0  0  0  0  0  0  0
  151.2516  142.7505  158.4023 C   0  0  0  0  0  0  0  0  0  0  0  0
  151.1105  141.8344  157.3370 C   0  0  0  0  0  0  0  0  0  0  0  0
  150.3163  141.8883  156.2043 N   0  0  0  0  0  0  0  0  0  0  0  0
  150.6305  140.7452  155.6020 C   0  0  0  0  0  0  0  0  0  0  0  0
  151.5359  139.9561  156.2110 N   0  0  0  0  0  0  0  0  0  0  0  0
  152.0294  138.6735  155.7422 C   0  0  0  0  0  0  0  0  0  0  0  0
  150.9722  137.8968  154.9361 C   0  0  1  0  0  0  0  0  0  0  0  0
  151.5908  136.8260  154.2487 O   0  0  0  0  0  0  0  0  0  0  0  0
  149.8562  137.3413  155.8411 C   0  0  0  0  0  0  0  0  0  0  0  0
  148.8000  136.1185  155.0009 S   0  0  0  0  0  0  0  0  0  0  0  0
  149.6651  134.6302  155.4011 C   0  0  0  0  0  0  0  0  0  0  0  0
  150.5796  134.5136  156.3610 N   0  0  0  0  0  0  0  0  0  0  0  0
  150.9887  133.1857  156.3105 C   0  0  0  0  0  0  0  0  0  0  0  0
  150.3054  132.5381  155.3106 C   0  0  0  0  0  0  0  0  0  0  0  0
  149.4623  133.4787  154.7343 N   0  0  0  0  0  0  0  0  0  0  0  0
  148.5479  133.2453  153.6338 C   0  0  0  0  0  0  0  0  0  0  0  0
  151.8854  140.6383  157.3714 C   0  0  0  0  0  0  0  0  0  0  0  0
  152.7705  140.3660  158.4295 C   0  0  0  0  0  0  0  0  0  0  0  0
  152.8999  141.2923  159.4855 C   0  0  0  0  0  0  0  0  0  0  0  0
  153.8594  140.9898  160.6228 C   0  0  0  0  0  0  0  0  0  0  0  0
  151.6033  144.3573  160.4340 H   0  0  0  0  0  0  0  0  0  0  0  0
  153.2807  143.8709  160.6707 H   0  0  0  0  0  0  0  0  0  0  0  0
  151.9838  143.0475  161.5496 H   0  0  0  0  0  0  0  0  0  0  0  0
  150.6712  143.6613  158.3910 H   0  0  0  0  0  0  0  0  0  0  0  0
  150.1780  140.4642  154.6622 H   0  0  0  0  0  0  0  0  0  0  0  0
  152.9259  138.8389  155.1431 H   0  0  0  0  0  0  0  0  0  0  0  0
  152.3397  138.0919  156.6114 H   0  0  0  0  0  0  0  0  0  0  0  0
  150.5437  138.5667  154.1906 H   0  0  0  0  0  0  0  0  0  0  0  0
  151.1665  136.7233  153.4104 H   0  0  0  0  0  0  0  0  0  0  0  0
  150.2943  136.8656  156.7192 H   0  0  0  0  0  0  0  0  0  0  0  0
  149.2285  138.1500  156.2160 H   0  0  0  0  0  0  0  0  0  0  0  0
  151.7357  132.8033  156.9902 H   0  0  0  0  0  0  0  0  0  0  0  0
  150.3492  131.5141  154.9699 H   0  0  0  0  0  0  0  0  0  0  0  0
  148.6095  132.2072  153.3061 H   0  0  0  0  0  0  0  0  0  0  0  0
  148.8042  133.8954  152.7970 H   0  0  0  0  0  0  0  0  0  0  0  0
  147.5265  133.4554  153.9526 H   0  0  0  0  0  0  0  0  0  0  0  0
  153.3469  139.4527  158.4260 H   0  0  0  0  0  0  0  0  0  0  0  0
  154.3636  140.0343  160.4747 H   0  0  0  0  0  0  0  0  0  0  0  0
  153.3250  140.9423  161.5718 H   0  0  0  0  0  0  0  0  0  0  0  0
  154.6240  141.7636  160.6933 H   0  0  0  0  0  0  0  0  0  0  0  0
  1  2  1  0  0  0  0
  1 23  1  0  0  0  0
  1 24  1  0  0  0  0
  1 25  1  0  0  0  0
  2 21  1  0  0  0  0
  2  3  2  0  0  0  0
  3  4  1  0  0  0  0
  3 26  1  0  0  0  0
  4 19  2  0  0  0  0
  4  5  1  0  0  0  0
  5  6  2  0  0  0  0
  6  7  1  0  0  0  0
  6 27  1  0  0  0  0
  7  8  1  0  0  0  0
  7 19  1  0  0  0  0
  8  9  1  0  0  0  0
  8 28  1  0  0  0  0
  8 29  1  0  0  0  0
  9 10  1  0  0  0  0
  9 11  1  0  0  0  0
  9 30  1  0  0  0  0
 10 31  1  0  0  0  0
 11 12  1  0  0  0  0
 11 32  1  0  0  0  0
 11 33  1  0  0  0  0
 12 13  1  0  0  0  0
 13 17  1  0  0  0  0
 13 14  2  0  0  0  0
 14 15  1  0  0  0  0
 15 16  2  0  0  0  0
 15 34  1  0  0  0  0
 16 17  1  0  0  0  0
 16 35  1  0  0  0  0
 17 18  1  0  0  0  0
 18 36  1  0  0  0  0
 18 37  1  0  0  0  0
 18 38  1  0  0  0  0
 19 20  1  0  0  0  0
 20 21  2  0  0  0  0
 20 39  1  0  0  0  0
 21 22  1  0  0  0  0
 22 40  1  0  0  0  0
 22 41  1  0  0  0  0
 22 42  1  0  0  0  0
M  END
> <s_m_source_file>
AV-unprocessed.smi

> <i_m_source_file_index>
609

> <i_lp_mmshare_version>
43012

> <i_f3d_flags>
0

> <s_epik_input>
W0NIM11jKFtjSF0xKWMoW0NIM10pW2NIXWMoYzEyKW4oW2NIXW4yKVtDSDJdW0NASF0oW09IXSlbQ0gyXVNjM25bY0hdW2NIXW4zW0NIM10=

> <s_epik_cmdline>
J2VwaWtfcHl0aG9uJywgJy1waCcsICc3LjAnLCAnLXRuJywgJzgnLCAnLW1hJywgJzIwMCcsICctbWV0YWxfYmluZGluZycsICctaW1hZScsICc8aW5maWxlLm1hZT4nLCAnLW9tYWUnLCAnPG91dGZpbGUubWFlPic=

> <r_lp_tautomer_probability>
1

> <r_epik_Ionization_Penalty>
1.15618

> <r_epik_Ionization_Penalty_Charging>
1.04908

> <r_epik_Ionization_Penalty_Neutral>
0.107097

> <r_epik_State_Penalty>
1.19446

> <r_epik_Charging_Adjusted_Penalty>
2.24354

> <i_epik_Tot_Q>
0

> <i_epik_Tot_abs_Q>
0

> <r_epik_Metal_State_Penalty>
0.487262

> <b_epik_Metal_Only>
0

> <s_lp_Force_Field>
OPLS_2005

> <r_lp_Energy>
7.62781

> <b_lp_Chiralities_Consistent>
1

> <s_lp_Variant>
AV-unprocessed.smi:609-4

> <Gold.Version>
5.8.1

> <Gold.Id.Protein>
6NUR|6NUR_protein|mol2

> <Gold.PLP.Fitness>
48.4163

> <Gold.PLP.PLP>
-44.2984

> <Gold.PLP.part.hbond>
-2.0000

> <Gold.PLP.part.metal>
0.0000

> <Gold.PLP.part.buried>
-3.7663

> <Gold.PLP.part.nonpolar>
-37.8814

> <Gold.PLP.part.repulsive>
0.1025

> <Gold.PLP.ligand.clash>
0.0000

> <Gold.PLP.ligand.torsion>
0.9623

> <Gold.PLP.Chemscore.Hbond>
1.9913

> <Gold.PLP.Chemscore.CHOScore>
0.0000

> <Gold.PLP.Chemscore.Metal>
0.0000

> <Gold.Chemscore.Hbonds>
donor molecule, donor type, donor heavy atom, donor atom, acceptor molecule, acceptor atom, score
      L1  H    10    31       P1  7949  0.93
      P1  H 10752 10764       L1    10  1.00

> <Gold.PLP.Chemscore.Internal.Correction>
0.0686

> <Gold.Rescore>
     Score         DG    S(hbond)    S(metal)    S(lipo)     H(rot)  DE(clash)    DE(int)     intcor
     16.13     -17.13       1.63        0.00     105.61       2.41       0.07       0.93       ----

> <Gold.Chemscore.Fitness>
16.1295

> <Gold.Chemscore.DG>
-17.1303

> <Gold.Chemscore.ZeroCoef>
-5.4800

> <Gold.Chemscore.Hbond>
1.6337

> <Gold.Chemscore.Metal>
0.0000

> <Gold.Chemscore.Lipo>
105.6138

> <Gold.Chemscore.Internal_Hbond>
0.0000

> <Gold.Chemscore.DEClash>
0.0725

> <Gold.Chemscore.DEInternal>
0.9283

> <Gold.Chemscore.Rot>
2.4074

> <Gold.Chemscore.Internal.Correction>
   9.000000E+99

> <Gold.Chemscore.Hbonds>
donor molecule, donor type, donor heavy atom, donor atom, acceptor molecule, acceptor atom, score
      L1  H    10    31       P1  7949  0.42
      P1  H 10752 10764       L1    10  0.65

> <Gold.Chemscore.Hbond.Weighted>
-5.4565

> <Gold.Chemscore.Metal.Weighted>
-0.0000

> <Gold.Chemscore.Lipo.Weighted>
-12.3568

> <Gold.Chemscore.Internal_Hbond.Weighted>
0.0000

> <Gold.Chemscore.DEClash.Weighted>
0.0725

> <Gold.Chemscore.DEInternal.Weighted>
0.9283

> <Gold.Chemscore.Rot.Weighted>
6.1630

> <Gold.Chemscore.Internal.Correction.Weighted>
   9.000000E+99

> <Gold.Protein.RotatedTorsions>
[ 6907 6896 6895 6894 ] final -125.06 input  -60.11 | X-H torsion
[ 7974 7965 7964 7962 ] final    5.30 input  175.53 | X-H torsion
[ 8008 7997 7996 7995 ] final  -28.90 input   59.86 | X-H torsion
[ 10167 10162 10161 10158 ] final   23.91 input  -65.29 | X-H torsion
[ 10718 10713 10712 10709 ] final  -21.58 input   66.30 | X-H torsion
[ 10763 10752 10751 10750 ] final  -73.11 input  -60.55 | X-H torsion
[ 11005 11000 10999 10996 ] final   51.66 input  -57.11 | X-H torsion

> <Gold.Protein.ActiveResidues>
 VAL166  LYS551  ARG553  GLY616  TRP617  ASP618  TYR619  PRO620  LYS621  CYS622 
 ASP623  PHE694  ASN695  SER759  ASP760  ASP761  ALA762  ILE779  LEU786  VAL792 
 PHE793  MET794  SER795  GLU796  ALA797  LYS798  CYS799  TRP800  GLU811  SER814 

> <Gold.Protein.RotatedAtoms>
  150.8830  133.7346  159.2926 H   0  0  0  0  0  0  0  0  0  0  0  0  # atno 6907 bound_to 6896
  151.4921  135.1056  159.9816 H   0  0  0  0  0  0  0  0  0  0  0  0  # atno 6908 bound_to 6896
  152.4772  133.8120  159.7064 H   0  0  0  0  0  0  0  0  0  0  0  0  # atno 6909 bound_to 6896
  146.2441  140.0405  142.8382 H   0  0  0  0  0  0  0  0  0  0  0  0  # atno 7974 bound_to 7965
  154.4312  140.1833  156.1162 H   0  0  0  0  0  0  0  0  0  0  0  0  # atno 8008 bound_to 7997
  156.0179  140.3344  155.6982 H   0  0  0  0  0  0  0  0  0  0  0  0  # atno 8009 bound_to 7997
  155.6019  140.0641  157.2721 H   0  0  0  0  0  0  0  0  0  0  0  0  # atno 8010 bound_to 7997
  140.5231  143.9969  150.6426 H   0  0  0  0  0  0  0  0  0  0  0  0  # atno 10167 bound_to 10162
  156.5162  130.4621  149.6621 H   0  0  0  0  0  0  0  0  0  0  0  0  # atno 10718 bound_to 10713
  154.4549  135.5908  153.6217 H   0  0  0  0  0  0  0  0  0  0  0  0  # atno 10763 bound_to 10752
  152.9817  135.6030  154.3558 H   0  0  0  0  0  0  0  0  0  0  0  0  # atno 10764 bound_to 10752
  154.3423  135.2841  155.2395 H   0  0  0  0  0  0  0  0  0  0  0  0  # atno 10765 bound_to 10752
  140.0914  134.5205  155.8849 H   0  0  0  0  0  0  0  0  0  0  0  0  # atno 11005 bound_to 11000
  145.1074  140.9383  143.4677 LP  0  0  0  0  0  0  0  0  0  0  0  0  # atno 17320 bound_to 7965
  145.0611  139.3105  143.5880 LP  0  0  0  0  0  0  0  0  0  0  0  0  # atno 17321 bound_to 7965
  140.3323  143.3070  152.0674 LP  0  0  0  0  0  0  0  0  0  0  0  0  # atno 17342 bound_to 10162
  139.4929  144.6500  151.6696 LP  0  0  0  0  0  0  0  0  0  0  0  0  # atno 17343 bound_to 10162
  156.3193  130.7271  151.2180 LP  0  0  0  0  0  0  0  0  0  0  0  0  # atno 17370 bound_to 10713
  157.7443  131.0460  150.4872 LP  0  0  0  0  0  0  0  0  0  0  0  0  # atno 17371 bound_to 10713
  141.2079  133.6668  156.6334 LP  0  0  0  0  0  0  0  0  0  0  0  0  # atno 17394 bound_to 11000
  140.3347  134.7899  157.4353 LP  0  0  0  0  0  0  0  0  0  0  0  0  # atno 17395 bound_to 11000

$$$$
