AV-unprocessed.smi:155|AV-procd|sdf|1274|dock3
  -GOLD-   2262018533D 1   1.00000     0.00000
 Structure written by MMmdl.
 63 66  0  0  0  0  0  0  0  0  2 V2000
  152.4444  143.8979  160.3115 C   0  0  0  0  0  0  0  0  0  0  0  0
  151.5879  143.9607  159.1326 N   0  0  0  0  0  0  0  0  0  0  0  0
  152.3756  144.5058  158.0340 C   0  0  0  0  0  0  0  0  0  0  0  0
  151.0838  142.6414  158.7471 C   0  0  0  0  0  0  0  0  0  0  0  0
  150.3343  142.6504  157.3951 C   0  0  0  0  0  0  0  0  0  0  0  0
  150.5141  141.3988  156.6131 N   0  3  1  0  0  0  0  0  0  0  0  0
  149.8986  141.4461  155.2604 C   0  0  0  0  0  0  0  0  0  0  0  0
  149.1117  140.1526  154.9869 C   0  0  0  0  0  0  0  0  0  0  0  0
  149.9911  138.9042  154.7791 C   0  0  0  0  0  0  0  0  0  0  0  0
  150.9553  138.6897  155.8580 N   0  0  0  0  0  0  0  0  0  0  0  0
  150.6063  138.0758  157.0298 C   0  0  0  0  0  0  0  0  0  0  0  0
  151.5542  137.9921  158.0029 N   0  0  0  0  0  0  0  0  0  0  0  0
  151.2887  137.4272  159.1824 C   0  0  0  0  0  0  0  0  0  0  0  0
  150.1472  136.8896  159.6068 N   0  0  0  0  0  0  0  0  0  0  0  0
  149.1846  136.9589  158.6453 C   0  0  0  0  0  0  0  0  0  0  0  0
  149.3235  137.5213  157.3408 C   0  0  0  0  0  0  0  0  0  0  0  0
  148.1121  137.3993  156.6654 N   0  0  0  0  0  0  0  0  0  0  0  0
  147.3142  136.8102  157.5120 C   0  0  0  0  0  0  0  0  0  0  0  0
  147.8782  136.5123  158.7283 N   0  0  0  0  0  0  0  0  0  0  0  0
  147.2262  135.8632  159.8521 C   0  0  0  0  0  0  0  0  0  0  0  0
  148.0730  135.9248  161.1378 C   0  0  1  0  0  0  0  0  0  0  0  0
  147.9260  137.1772  161.7807 O   0  0  0  0  0  0  0  0  0  0  0  0
  147.7543  134.7803  162.1208 C   0  0  1  0  0  0  0  0  0  0  0  0
  146.3621  134.8239  162.7742 C   0  0  0  0  0  0  0  0  0  0  0  0
  145.7522  133.4795  162.4173 C   0  0  0  0  0  0  0  0  0  0  0  0
  146.9748  132.6165  162.1323 C   0  0  0  0  0  0  0  0  0  0  0  0
  147.8523  133.5147  161.4739 O   0  0  0  0  0  0  0  0  0  0  0  0
  152.1243  139.5755  155.8400 C   0  0  0  0  0  0  0  0  0  0  0  0
  151.9185  140.9017  156.6076 C   0  0  0  0  0  0  0  0  0  0  0  0
  151.8815  143.6005  161.1940 H   0  0  0  0  0  0  0  0  0  0  0  0
  152.8720  144.8778  160.5275 H   0  0  0  0  0  0  0  0  0  0  0  0
  153.2655  143.1941  160.1704 H   0  0  0  0  0  0  0  0  0  0  0  0
  151.7668  144.6068  157.1347 H   0  0  0  0  0  0  0  0  0  0  0  0
  153.2285  143.8668  157.7993 H   0  0  0  0  0  0  0  0  0  0  0  0
  152.7520  145.4981  158.2857 H   0  0  0  0  0  0  0  0  0  0  0  0
  151.9500  141.9912  158.6154 H   0  0  0  0  0  0  0  0  0  0  0  0
  150.5015  142.1962  159.5534 H   0  0  0  0  0  0  0  0  0  0  0  0
  149.2786  142.8368  157.5971 H   0  0  0  0  0  0  0  0  0  0  0  0
  150.6746  143.4898  156.7875 H   0  0  0  0  0  0  0  0  0  0  0  0
  149.1945  142.2754  155.1885 H   0  0  0  0  0  0  0  0  0  0  0  0
  150.6498  141.6300  154.4907 H   0  0  0  0  0  0  0  0  0  0  0  0
  148.4034  139.9879  155.7983 H   0  0  0  0  0  0  0  0  0  0  0  0
  148.5044  140.2921  154.0921 H   0  0  0  0  0  0  0  0  0  0  0  0
  149.3828  138.0157  154.6195 H   0  0  0  0  0  0  0  0  0  0  0  0
  150.5472  139.0219  153.8485 H   0  0  0  0  0  0  0  0  0  0  0  0
  152.1063  137.4072  159.8880 H   0  0  0  0  0  0  0  0  0  0  0  0
  146.2871  136.5757  157.2717 H   0  0  0  0  0  0  0  0  0  0  0  0
  146.2537  136.3314  160.0087 H   0  0  0  0  0  0  0  0  0  0  0  0
  147.0300  134.8253  159.5801 H   0  0  0  0  0  0  0  0  0  0  0  0
  149.1242  135.8432  160.8592 H   0  0  0  0  0  0  0  0  0  0  0  0
  147.0197  137.4388  161.7196 H   0  0  0  0  0  0  0  0  0  0  0  0
  148.5022  134.7860  162.9153 H   0  0  0  0  0  0  0  0  0  0  0  0
  146.4629  134.9205  163.8557 H   0  0  0  0  0  0  0  0  0  0  0  0
  145.7418  135.6516  162.4289 H   0  0  0  0  0  0  0  0  0  0  0  0
  145.1186  133.0742  163.2067 H   0  0  0  0  0  0  0  0  0  0  0  0
  145.1504  133.5754  161.5126 H   0  0  0  0  0  0  0  0  0  0  0  0
  147.4334  132.2683  163.0591 H   0  0  0  0  0  0  0  0  0  0  0  0
  146.7451  131.7500  161.5118 H   0  0  0  0  0  0  0  0  0  0  0  0
  153.0135  139.0575  156.2012 H   0  0  0  0  0  0  0  0  0  0  0  0
  152.3488  139.8131  154.7998 H   0  0  0  0  0  0  0  0  0  0  0  0
  152.5855  141.6640  156.2028 H   0  0  0  0  0  0  0  0  0  0  0  0
  152.2337  140.7396  157.6371 H   0  0  0  0  0  0  0  0  0  0  0  0
  149.9737  140.7068  157.1124 H   0  0  0  0  0  0  0  0  0  0  0  0
  1  2  1  0  0  0  0
  1 30  1  0  0  0  0
  1 31  1  0  0  0  0
  1 32  1  0  0  0  0
  2  3  1  0  0  0  0
  2  4  1  0  0  0  0
  3 33  1  0  0  0  0
  3 34  1  0  0  0  0
  3 35  1  0  0  0  0
  4  5  1  0  0  0  0
  4 36  1  0  0  0  0
  4 37  1  0  0  0  0
  5  6  1  0  0  0  0
  5 38  1  0  0  0  0
  5 39  1  0  0  0  0
  6 29  1  0  0  0  0
  6  7  1  0  0  0  0
  6 63  1  0  0  0  0
  7  8  1  0  0  0  0
  7 40  1  0  0  0  0
  7 41  1  0  0  0  0
  8  9  1  0  0  0  0
  8 42  1  0  0  0  0
  8 43  1  0  0  0  0
  9 10  1  0  0  0  0
  9 44  1  0  0  0  0
  9 45  1  0  0  0  0
 10 11  1  0  0  0  0
 10 28  1  0  0  0  0
 11 16  1  0  0  0  0
 11 12  2  0  0  0  0
 12 13  1  0  0  0  0
 13 14  2  0  0  0  0
 13 46  1  0  0  0  0
 14 15  1  0  0  0  0
 15 19  1  0  0  0  0
 15 16  2  0  0  0  0
 16 17  1  0  0  0  0
 17 18  2  0  0  0  0
 18 19  1  0  0  0  0
 18 47  1  0  0  0  0
 19 20  1  0  0  0  0
 20 21  1  0  0  0  0
 20 48  1  0  0  0  0
 20 49  1  0  0  0  0
 21 22  1  0  0  0  0
 21 23  1  0  0  0  0
 21 50  1  0  0  0  0
 22 51  1  0  0  0  0
 23 27  1  0  0  0  0
 23 24  1  0  0  0  0
 23 52  1  0  0  0  0
 24 25  1  0  0  0  0
 24 53  1  0  0  0  0
 24 54  1  0  0  0  0
 25 26  1  0  0  0  0
 25 55  1  0  0  0  0
 25 56  1  0  0  0  0
 26 27  1  0  0  0  0
 26 57  1  0  0  0  0
 26 58  1  0  0  0  0
 28 29  1  0  0  0  0
 28 59  1  0  0  0  0
 28 60  1  0  0  0  0
 29 61  1  0  0  0  0
 29 62  1  0  0  0  0
M  CHG  1   6   1
M  END
> <s_m_source_file>
AV-unprocessed.smi

> <i_m_source_file_index>
155

> <i_lp_mmshare_version>
43012

> <i_f3d_flags>
0

> <s_epik_input>
W0NIM11OKFtDSDNdKVtDSDJdW0NIMl1OMVtDSDJdW0NIMl1bQ0gyXU4oW0NIMl1bQ0gyXTEpYyhuW2NIXW4yKWMoYzIzKW5bY0hdbjNbQ0gyXVtDQEhdKFtPSF0pW0NAQEhdNFtDSDJdW0NIMl1bQ0gyXU80

> <s_epik_cmdline>
J2VwaWtfcHl0aG9uJywgJy1waCcsICc3LjAnLCAnLXRuJywgJzgnLCAnLW1hJywgJzIwMCcsICctbWV0YWxfYmluZGluZycsICctaW1hZScsICc8aW5maWxlLm1hZT4nLCAnLW9tYWUnLCAnPG91dGZpbGUubWFlPic=

> <r_epik_Ionization_Penalty>
0.0619615

> <r_epik_Ionization_Penalty_Charging>
0.0161638

> <r_epik_Ionization_Penalty_Neutral>
0.0457976

> <r_epik_State_Penalty>
0.403408

> <r_epik_Charging_Adjusted_Penalty>
0.419572

> <i_epik_Tot_Q>
1

> <i_epik_Tot_abs_Q>
1

> <r_epik_Metal_State_Penalty>
0.404222

> <b_epik_Metal_Only>
0

> <s_lp_Force_Field>
OPLS_2005

> <r_lp_Energy>
52.3262

> <b_lp_Chiralities_Consistent>
1

> <s_lp_Variant>
AV-unprocessed.smi:155-8

> <Gold.Version>
5.8.1

> <Gold.Id.Protein>
6NUR|6NUR_protein|mol2

> <Gold.PLP.Fitness>
49.4000

> <Gold.PLP.PLP>
-46.0927

> <Gold.PLP.part.hbond>
-2.7143

> <Gold.PLP.part.metal>
0.0000

> <Gold.PLP.part.buried>
-5.8978

> <Gold.PLP.part.nonpolar>
-37.0231

> <Gold.PLP.part.repulsive>
0.0923

> <Gold.PLP.ligand.clash>
0.0000

> <Gold.PLP.ligand.torsion>
0.7985

> <Gold.PLP.Chemscore.Hbond>
1.5070

> <Gold.PLP.Chemscore.CHOScore>
0.0000

> <Gold.PLP.Chemscore.Metal>
0.0000

> <Gold.Chemscore.Hbonds>
donor molecule, donor type, donor heavy atom, donor atom, acceptor molecule, acceptor atom, score
      P1  H  6896  6907       L1    14  0.62
      P1  H  6931  6943       L1    22  1.00

> <Gold.PLP.Chemscore.Internal.Correction>
0.3834

> <Gold.Rescore>
     Score         DG    S(hbond)    S(metal)    S(lipo)     H(rot)  DE(clash)    DE(int)     intcor
     12.34     -15.61       0.94        0.00     117.26       2.63       0.30       2.97       ----

> <Gold.Chemscore.Fitness>
12.3393

> <Gold.Chemscore.DG>
-15.6072

> <Gold.Chemscore.ZeroCoef>
-5.4800

> <Gold.Chemscore.Hbond>
0.9422

> <Gold.Chemscore.Metal>
0.0000

> <Gold.Chemscore.Lipo>
117.2583

> <Gold.Chemscore.Internal_Hbond>
0.0000

> <Gold.Chemscore.DEClash>
0.3001

> <Gold.Chemscore.DEInternal>
2.9678

> <Gold.Chemscore.Rot>
2.6324

> <Gold.Chemscore.Internal.Correction>
   9.000000E+99

> <Gold.Chemscore.Hbonds>
donor molecule, donor type, donor heavy atom, donor atom, acceptor molecule, acceptor atom, score
      P1  H  6896  6907       L1    14  0.06
      P1  H  6931  6943       L1    22  0.91

> <Gold.Chemscore.Hbond.Weighted>
-3.1469

> <Gold.Chemscore.Metal.Weighted>
-0.0000

> <Gold.Chemscore.Lipo.Weighted>
-13.7192

> <Gold.Chemscore.Internal_Hbond.Weighted>
0.0000

> <Gold.Chemscore.DEClash.Weighted>
0.3001

> <Gold.Chemscore.DEInternal.Weighted>
2.9678

> <Gold.Chemscore.Rot.Weighted>
6.7389

> <Gold.Chemscore.Internal.Correction.Weighted>
   9.000000E+99

> <Gold.Protein.RotatedTorsions>
[ 6907 6896 6895 6894 ] final  -43.89 input  -60.11 | X-H torsion
[ 7974 7965 7964 7962 ] final   27.99 input  175.53 | X-H torsion
[ 8008 7997 7996 7995 ] final -144.14 input   59.86 | X-H torsion
[ 10167 10162 10161 10158 ] final  -43.13 input  -65.29 | X-H torsion
[ 10718 10713 10712 10709 ] final  -93.65 input   66.30 | X-H torsion
[ 10763 10752 10751 10750 ] final -124.83 input  -60.55 | X-H torsion
[ 11005 11000 10999 10996 ] final   56.08 input  -57.11 | X-H torsion

> <Gold.Protein.ActiveResidues>
 VAL166  LYS551  ARG553  GLY616  TRP617  ASP618  TYR619  PRO620  LYS621  CYS622 
 ASP623  PHE694  ASN695  SER759  ASP760  ASP761  ALA762  ILE779  LEU786  VAL792 
 PHE793  MET794  SER795  GLU796  ALA797  LYS798  CYS799  TRP800  GLU811  SER814 

> <Gold.Protein.RotatedAtoms>
  150.9389  134.8799  159.7599 H   0  0  0  0  0  0  0  0  0  0  0  0  # atno 6907 bound_to 6896
  152.5071  134.3971  159.9413 H   0  0  0  0  0  0  0  0  0  0  0  0  # atno 6908 bound_to 6896
  151.3993  133.3723  159.2765 H   0  0  0  0  0  0  0  0  0  0  0  0  # atno 6909 bound_to 6896
  146.1754  139.7117  142.8938 H   0  0  0  0  0  0  0  0  0  0  0  0  # atno 7974 bound_to 7965
  155.5221  140.0592  157.2905 H   0  0  0  0  0  0  0  0  0  0  0  0  # atno 8008 bound_to 7997
  154.4514  140.1951  156.0454 H   0  0  0  0  0  0  0  0  0  0  0  0  # atno 8009 bound_to 7997
  156.0712  140.3260  155.7582 H   0  0  0  0  0  0  0  0  0  0  0  0  # atno 8010 bound_to 7997
  140.6945  143.3000  151.3308 H   0  0  0  0  0  0  0  0  0  0  0  0  # atno 10167 bound_to 10162
  156.0016  130.5035  150.5808 H   0  0  0  0  0  0  0  0  0  0  0  0  # atno 10718 bound_to 10713
  154.8728  135.4050  154.3169 H   0  0  0  0  0  0  0  0  0  0  0  0  # atno 10763 bound_to 10752
  153.4004  135.7018  153.6436 H   0  0  0  0  0  0  0  0  0  0  0  0  # atno 10764 bound_to 10752
  153.5181  135.3693  155.2590 H   0  0  0  0  0  0  0  0  0  0  0  0  # atno 10765 bound_to 10752
  140.0557  134.5674  155.9211 H   0  0  0  0  0  0  0  0  0  0  0  0  # atno 11005 bound_to 11000
  145.4226  141.0408  143.2955 LP  0  0  0  0  0  0  0  0  0  0  0  0  # atno 17320 bound_to 7965
  144.8228  139.5762  143.6979 LP  0  0  0  0  0  0  0  0  0  0  0  0  # atno 17321 bound_to 7965
  139.6384  144.0587  152.2534 LP  0  0  0  0  0  0  0  0  0  0  0  0  # atno 17342 bound_to 10162
  140.0084  144.6242  150.7668 LP  0  0  0  0  0  0  0  0  0  0  0  0  # atno 17343 bound_to 10162
  157.3688  131.0762  151.1575 LP  0  0  0  0  0  0  0  0  0  0  0  0  # atno 17370 bound_to 10713
  157.2335  130.6536  149.5860 LP  0  0  0  0  0  0  0  0  0  0  0  0  # atno 17371 bound_to 10713
  141.1950  133.6585  156.5625 LP  0  0  0  0  0  0  0  0  0  0  0  0  # atno 17394 bound_to 11000
  140.3848  134.7491  157.4684 LP  0  0  0  0  0  0  0  0  0  0  0  0  # atno 17395 bound_to 11000

$$$$
