AV-unprocessed.smi:2995|AV-procd|sdf|11406|dock1
  -GOLD-   2272016333D 1   1.00000     0.00000
 Structure written by MMmdl.
 49 51  0  0  0  0  0  0  0  0  2 V2000
  147.3945  133.2582  152.6893 C   0  0  0  0  0  0  0  0  0  0  0  0
  148.2893  132.4453  153.6081 C   0  0  0  0  0  0  0  0  0  0  0  0
  148.0856  131.0557  153.7369 C   0  0  0  0  0  0  0  0  0  0  0  0
  148.9305  130.3252  154.5941 C   0  0  0  0  0  0  0  0  0  0  0  0
  149.9353  130.8864  155.2970 N   0  0  0  0  0  0  0  0  0  0  0  0
  150.1275  132.2169  155.1746 C   0  0  0  0  0  0  0  0  0  0  0  0
  149.3283  133.0521  154.3542 C   0  0  0  0  0  0  0  0  0  0  0  0
  149.5575  134.4493  154.2173 N   0  0  0  0  0  0  0  0  0  0  0  0
  150.3860  135.2242  154.9376 C   0  0  0  0  0  0  0  0  0  0  0  0
  151.1002  134.8340  155.8612 O   0  0  0  0  0  0  0  0  0  0  0  0
  150.3231  136.5044  154.5431 N   0  0  0  0  0  0  0  0  0  0  0  0
  151.0728  137.6026  155.1465 C   0  0  2  0  0  0  0  0  0  0  0  0
  150.8814  137.6233  156.6717 C   0  0  0  0  0  0  0  0  0  0  0  0
  151.5996  138.8254  157.3053 C   0  0  0  0  0  0  0  0  0  0  0  0
  151.1414  140.1145  156.7157 N   0  3  1  0  0  0  0  0  0  0  0  0
  151.7431  141.3025  157.3890 C   0  0  0  0  0  0  0  0  0  0  0  0
  151.6904  141.2346  158.9232 C   0  0  0  0  0  0  0  0  0  0  0  0
  151.8278  142.6827  159.4072 C   0  0  0  0  0  0  0  0  0  0  0  0
  151.4505  143.5723  158.2153 C   0  0  0  0  0  0  0  0  0  0  0  0
  151.0107  142.6210  157.0996 C   0  0  0  0  0  0  0  0  0  0  0  0
  151.3315  140.1229  155.2377 C   0  0  0  0  0  0  0  0  0  0  0  0
  150.6077  138.9443  154.5641 C   0  0  0  0  0  0  0  0  0  0  0  0
  146.6371  132.6322  152.2167 H   0  0  0  0  0  0  0  0  0  0  0  0
  147.9843  133.7276  151.9016 H   0  0  0  0  0  0  0  0  0  0  0  0
  146.8822  134.0398  153.2511 H   0  0  0  0  0  0  0  0  0  0  0  0
  147.2991  130.5547  153.1919 H   0  0  0  0  0  0  0  0  0  0  0  0
  148.7994  129.2598  154.7133 H   0  0  0  0  0  0  0  0  0  0  0  0
  150.9619  132.6063  155.7371 H   0  0  0  0  0  0  0  0  0  0  0  0
  148.9625  134.9244  153.5547 H   0  0  0  0  0  0  0  0  0  0  0  0
  149.7080  136.7362  153.7766 H   0  0  0  0  0  0  0  0  0  0  0  0
  152.1336  137.4793  154.9190 H   0  0  0  0  0  0  0  0  0  0  0  0
  149.8182  137.6664  156.9134 H   0  0  0  0  0  0  0  0  0  0  0  0
  151.2604  136.7003  157.1125 H   0  0  0  0  0  0  0  0  0  0  0  0
  151.4089  138.8041  158.3776 H   0  0  0  0  0  0  0  0  0  0  0  0
  152.6786  138.7286  157.1741 H   0  0  0  0  0  0  0  0  0  0  0  0
  152.7840  141.4021  157.0751 H   0  0  0  0  0  0  0  0  0  0  0  0
  150.7258  140.8389  159.2452 H   0  0  0  0  0  0  0  0  0  0  0  0
  152.4673  140.5964  159.3454 H   0  0  0  0  0  0  0  0  0  0  0  0
  151.1883  142.8698  160.2708 H   0  0  0  0  0  0  0  0  0  0  0  0
  152.8546  142.8873  159.7130 H   0  0  0  0  0  0  0  0  0  0  0  0
  150.6676  144.2886  158.4667 H   0  0  0  0  0  0  0  0  0  0  0  0
  152.3232  144.1427  157.8943 H   0  0  0  0  0  0  0  0  0  0  0  0
  151.2389  143.0285  156.1142 H   0  0  0  0  0  0  0  0  0  0  0  0
  149.9315  142.4699  157.1571 H   0  0  0  0  0  0  0  0  0  0  0  0
  150.9443  141.0451  154.8061 H   0  0  0  0  0  0  0  0  0  0  0  0
  152.3978  140.0895  155.0080 H   0  0  0  0  0  0  0  0  0  0  0  0
  150.7904  138.9680  153.4890 H   0  0  0  0  0  0  0  0  0  0  0  0
  149.5306  139.0563  154.6979 H   0  0  0  0  0  0  0  0  0  0  0  0
  150.1459  140.1690  156.8780 H   0  0  0  0  0  0  0  0  0  0  0  0
  1  2  1  0  0  0  0
  1 23  1  0  0  0  0
  1 24  1  0  0  0  0
  1 25  1  0  0  0  0
  2  7  1  0  0  0  0
  2  3  2  0  0  0  0
  3  4  1  0  0  0  0
  3 26  1  0  0  0  0
  4  5  2  0  0  0  0
  4 27  1  0  0  0  0
  5  6  1  0  0  0  0
  6  7  2  0  0  0  0
  6 28  1  0  0  0  0
  7  8  1  0  0  0  0
  8  9  1  0  0  0  0
  8 29  1  0  0  0  0
  9 10  2  0  0  0  0
  9 11  1  0  0  0  0
 11 12  1  0  0  0  0
 11 30  1  0  0  0  0
 12 22  1  0  0  0  0
 12 13  1  0  0  0  0
 12 31  1  0  0  0  0
 13 14  1  0  0  0  0
 13 32  1  0  0  0  0
 13 33  1  0  0  0  0
 14 15  1  0  0  0  0
 14 34  1  0  0  0  0
 14 35  1  0  0  0  0
 15 16  1  0  0  0  0
 15 21  1  0  0  0  0
 15 49  1  0  0  0  0
 16 20  1  0  0  0  0
 16 17  1  0  0  0  0
 16 36  1  0  0  0  0
 17 18  1  0  0  0  0
 17 37  1  0  0  0  0
 17 38  1  0  0  0  0
 18 19  1  0  0  0  0
 18 39  1  0  0  0  0
 18 40  1  0  0  0  0
 19 20  1  0  0  0  0
 19 41  1  0  0  0  0
 19 42  1  0  0  0  0
 20 43  1  0  0  0  0
 20 44  1  0  0  0  0
 21 22  1  0  0  0  0
 21 45  1  0  0  0  0
 21 46  1  0  0  0  0
 22 47  1  0  0  0  0
 22 48  1  0  0  0  0
M  CHG  1  15   1
M  END
> <s_m_source_file>
AV-unprocessed.smi

> <i_m_source_file_index>
2995

> <i_lp_mmshare_version>
43012

> <i_f3d_flags>
0

> <s_epik_input>
W0NIM11jMVtjSF1bY0hdbltjSF1jMVtOSF1DKD1PKVtOSF1bQ0hdMltDSDJdW0NIMl1OKFtDSDJdW0NIMl0yKVtDSF0zW0NIMl1bQ0gyXVtDSDJdW0NIMl0z

> <s_epik_cmdline>
J2VwaWtfcHl0aG9uJywgJy1waCcsICc3LjAnLCAnLXRuJywgJzgnLCAnLW1hJywgJzIwMCcsICctbWV0YWxfYmluZGluZycsICctaW1hZScsICc8aW5maWxlLm1hZT4nLCAnLW9tYWUnLCAnPG91dGZpbGUubWFlPic=

> <r_epik_Ionization_Penalty>
0.0196897

> <r_epik_Ionization_Penalty_Charging>
0.00179121

> <r_epik_Ionization_Penalty_Neutral>
0.0178985

> <r_epik_State_Penalty>
0.014187

> <r_epik_Charging_Adjusted_Penalty>
0.0159782

> <i_epik_Tot_Q>
1

> <i_epik_Tot_abs_Q>
1

> <r_epik_Metal_State_Penalty>
0.013703

> <b_epik_Metal_Only>
0

> <s_lp_Force_Field>
OPLS_2005

> <r_lp_Energy>
41.253

> <b_lp_Chiralities_Consistent>
1

> <s_lp_Variant>
AV-unprocessed.smi:2995-1

> <Gold.Version>
5.8.1

> <Gold.Id.Protein>
6NUR|6NUR_protein|mol2

> <Gold.PLP.Fitness>
45.7999

> <Gold.PLP.PLP>
-38.7788

> <Gold.PLP.part.hbond>
-3.9111

> <Gold.PLP.part.metal>
0.0000

> <Gold.PLP.part.buried>
-1.0624

> <Gold.PLP.part.nonpolar>
-33.4906

> <Gold.PLP.part.repulsive>
0.2472

> <Gold.PLP.ligand.clash>
0.0000

> <Gold.PLP.ligand.torsion>
0.2264

> <Gold.PLP.Chemscore.Hbond>
2.4801

> <Gold.PLP.Chemscore.CHOScore>
0.0000

> <Gold.PLP.Chemscore.Metal>
0.0000

> <Gold.Chemscore.Hbonds>
donor molecule, donor type, donor heavy atom, donor atom, acceptor molecule, acceptor atom, score
      L1  H     8    29       P1  7948  0.70
      L1  H    11    30       P1  7948  0.81
      P1  H 10752 10764       L1    10  0.34

> <Gold.PLP.Chemscore.Internal.Correction>
0.0338

> <Gold.Rescore>
     Score         DG    S(hbond)    S(metal)    S(lipo)     H(rot)  DE(clash)    DE(int)     intcor
     15.45     -18.33       1.13        0.00     103.34       1.17       0.17       2.71       ----

> <Gold.Chemscore.Fitness>
15.4516

> <Gold.Chemscore.DG>
-18.3292

> <Gold.Chemscore.ZeroCoef>
-5.4800

> <Gold.Chemscore.Hbond>
1.1261

> <Gold.Chemscore.Metal>
0.0000

> <Gold.Chemscore.Lipo>
103.3413

> <Gold.Chemscore.Internal_Hbond>
0.0000

> <Gold.Chemscore.DEClash>
0.1663

> <Gold.Chemscore.DEInternal>
2.7114

> <Gold.Chemscore.Rot>
1.1731

> <Gold.Chemscore.Internal.Correction>
   9.000000E+99

> <Gold.Chemscore.Hbonds>
donor molecule, donor type, donor heavy atom, donor atom, acceptor molecule, acceptor atom, score
      L1  H     8    29       P1  7948  0.24
      L1  H    11    30       P1  7948  0.50
      P1  H 10752 10764       L1    10  0.08

> <Gold.Chemscore.Hbond.Weighted>
-3.7613

> <Gold.Chemscore.Metal.Weighted>
-0.0000

> <Gold.Chemscore.Lipo.Weighted>
-12.0909

> <Gold.Chemscore.Internal_Hbond.Weighted>
0.0000

> <Gold.Chemscore.DEClash.Weighted>
0.1663

> <Gold.Chemscore.DEInternal.Weighted>
2.7114

> <Gold.Chemscore.Rot.Weighted>
3.0030

> <Gold.Chemscore.Internal.Correction.Weighted>
   9.000000E+99

> <Gold.Protein.RotatedTorsions>
[ 6907 6896 6895 6894 ] final  -21.48 input  -60.11 | X-H torsion
[ 7974 7965 7964 7962 ] final   69.20 input  175.53 | X-H torsion
[ 8008 7997 7996 7995 ] final  -15.91 input   59.86 | X-H torsion
[ 10167 10162 10161 10158 ] final  -49.24 input  -65.29 | X-H torsion
[ 10718 10713 10712 10709 ] final  149.97 input   66.30 | X-H torsion
[ 10763 10752 10751 10750 ] final  -31.08 input  -60.55 | X-H torsion
[ 11005 11000 10999 10996 ] final  -37.92 input  -57.11 | X-H torsion

> <Gold.Protein.ActiveResidues>
 VAL166  LYS551  ARG553  GLY616  TRP617  ASP618  TYR619  PRO620  LYS621  CYS622 
 ASP623  PHE694  ASN695  SER759  ASP760  ASP761  ALA762  ILE779  LEU786  VAL792 
 PHE793  MET794  SER795  GLU796  ALA797  LYS798  CYS799  TRP800  GLU811  SER814 

> <Gold.Protein.RotatedAtoms>
  151.2327  135.0560  159.8993 H   0  0  0  0  0  0  0  0  0  0  0  0  # atno 6907 bound_to 6896
  152.5403  134.0519  159.8124 H   0  0  0  0  0  0  0  0  0  0  0  0  # atno 6908 bound_to 6896
  151.0701  133.5424  159.2659 H   0  0  0  0  0  0  0  0  0  0  0  0  # atno 6909 bound_to 6896
  145.7933  139.2945  143.1197 H   0  0  0  0  0  0  0  0  0  0  0  0  # atno 7974 bound_to 7965
  154.5093  140.2183  155.9187 H   0  0  0  0  0  0  0  0  0  0  0  0  # atno 8008 bound_to 7997
  156.1533  140.3157  155.8650 H   0  0  0  0  0  0  0  0  0  0  0  0  # atno 8009 bound_to 7997
  155.3896  140.0477  157.3032 H   0  0  0  0  0  0  0  0  0  0  0  0  # atno 8010 bound_to 7997
  140.6694  143.2706  151.4186 H   0  0  0  0  0  0  0  0  0  0  0  0  # atno 10167 bound_to 10162
  157.2894  131.0850  151.1473 H   0  0  0  0  0  0  0  0  0  0  0  0  # atno 10718 bound_to 10713
  153.7914  135.6897  153.4871 H   0  0  0  0  0  0  0  0  0  0  0  0  # atno 10763 bound_to 10752
  153.1747  135.4529  154.9948 H   0  0  0  0  0  0  0  0  0  0  0  0  # atno 10764 bound_to 10752
  154.8043  135.3350  154.7410 H   0  0  0  0  0  0  0  0  0  0  0  0  # atno 10765 bound_to 10752
  140.9989  133.6966  156.1985 H   0  0  0  0  0  0  0  0  0  0  0  0  # atno 11005 bound_to 11000
  145.9954  140.8566  143.0045 LP  0  0  0  0  0  0  0  0  0  0  0  0  # atno 17320 bound_to 7965
  144.6779  140.2276  143.7359 LP  0  0  0  0  0  0  0  0  0  0  0  0  # atno 17321 bound_to 7965
  139.5956  144.1404  152.2140 LP  0  0  0  0  0  0  0  0  0  0  0  0  # atno 17342 bound_to 10162
  140.0772  144.5730  150.7148 LP  0  0  0  0  0  0  0  0  0  0  0  0  # atno 17343 bound_to 10162
  157.2876  130.6780  149.6097 LP  0  0  0  0  0  0  0  0  0  0  0  0  # atno 17370 bound_to 10713
  155.9666  130.4431  150.5406 LP  0  0  0  0  0  0  0  0  0  0  0  0  # atno 17371 bound_to 10713
  140.6922  134.4654  157.5588 LP  0  0  0  0  0  0  0  0  0  0  0  0  # atno 17394 bound_to 11000
  139.9028  134.8516  156.1824 LP  0  0  0  0  0  0  0  0  0  0  0  0  # atno 17395 bound_to 11000

$$$$
