AV-unprocessed.smi:2684|AV-procd|sdf|10379|dock3
  -GOLD-   2272014413D 1   1.00000     0.00000
 Structure written by MMmdl.
 45 46  0  0  0  0  0  0  0  0  2 V2000
  152.0936  142.7741  158.1410 C   0  0  0  0  0  0  0  0  0  0  0  0
  151.5537  141.7251  157.2125 C   0  0  0  0  0  0  0  0  0  0  0  0
  151.9616  140.3658  157.0975 C   0  0  0  0  0  0  0  0  0  0  0  0
  151.2868  139.7035  156.1716 N   0  0  0  0  0  0  0  0  0  0  0  0
  150.4310  140.6141  155.6614 N   0  0  0  0  0  0  0  0  0  0  0  0
  149.5299  140.2369  154.5872 C   0  0  0  0  0  0  0  0  0  0  0  0
  149.5781  138.7297  154.2456 C   0  0  1  0  0  0  0  0  0  0  0  0
  149.2499  137.8875  155.4856 C   0  0  0  0  0  0  0  0  0  0  0  0
  148.6302  138.3889  153.1593 N   0  3  0  0  0  0  0  0  0  0  0  0
  147.2145  138.7171  153.4333 C   0  0  0  0  0  0  0  0  0  0  0  0
  146.3208  137.4712  153.3785 C   0  0  0  0  0  0  0  0  0  0  0  0
  145.2888  137.4423  154.0463 O   0  0  0  0  0  0  0  0  0  0  0  0
  146.6796  136.4163  152.6247 N   0  0  0  0  0  0  0  0  0  0  0  0
  145.9744  135.1483  152.4393 C   0  0  0  0  0  0  0  0  0  0  0  0
  146.9426  133.9807  152.6817 C   0  0  0  0  0  0  0  0  0  0  0  0
  146.2617  132.6362  152.3770 C   0  0  0  0  0  0  0  0  0  0  0  0
  145.7738  132.6307  151.0401 O   0  0  0  0  0  0  0  0  0  0  0  0
  144.7845  133.6269  150.8067 C   0  0  0  0  0  0  0  0  0  0  0  0
  145.3848  135.0254  151.0221 C   0  0  0  0  0  0  0  0  0  0  0  0
  150.5629  141.8399  156.2793 C   0  0  0  0  0  0  0  0  0  0  0  0
  152.4469  142.3417  159.0772 H   0  0  0  0  0  0  0  0  0  0  0  0
  151.3375  143.5167  158.3965 H   0  0  0  0  0  0  0  0  0  0  0  0
  152.9319  143.3099  157.6967 H   0  0  0  0  0  0  0  0  0  0  0  0
  152.7268  139.8449  157.6543 H   0  0  0  0  0  0  0  0  0  0  0  0
  148.5193  140.5210  154.8849 H   0  0  0  0  0  0  0  0  0  0  0  0
  149.7706  140.8341  153.7064 H   0  0  0  0  0  0  0  0  0  0  0  0
  150.5884  138.4601  153.9333 H   0  0  0  0  0  0  0  0  0  0  0  0
  149.9527  138.0897  156.2947 H   0  0  0  0  0  0  0  0  0  0  0  0
  149.3051  136.8215  155.2629 H   0  0  0  0  0  0  0  0  0  0  0  0
  148.2465  138.0988  155.8572 H   0  0  0  0  0  0  0  0  0  0  0  0
  148.8971  138.9033  152.3318 H   0  0  0  0  0  0  0  0  0  0  0  0
  147.1407  139.2088  154.3976 H   0  0  0  0  0  0  0  0  0  0  0  0
  146.8657  139.4312  152.6868 H   0  0  0  0  0  0  0  0  0  0  0  0
  147.5602  136.4962  152.1358 H   0  0  0  0  0  0  0  0  0  0  0  0
  145.1763  135.0628  153.1768 H   0  0  0  0  0  0  0  0  0  0  0  0
  147.8222  134.0876  152.0450 H   0  0  0  0  0  0  0  0  0  0  0  0
  147.2990  133.9918  153.7124 H   0  0  0  0  0  0  0  0  0  0  0  0
  146.9749  131.8201  152.4949 H   0  0  0  0  0  0  0  0  0  0  0  0
  145.4434  132.4458  153.0729 H   0  0  0  0  0  0  0  0  0  0  0  0
  144.4210  133.5290  149.7837 H   0  0  0  0  0  0  0  0  0  0  0  0
  143.9289  133.4668  151.4651 H   0  0  0  0  0  0  0  0  0  0  0  0
  144.6180  135.7802  150.8500 H   0  0  0  0  0  0  0  0  0  0  0  0
  146.1650  135.1998  150.2798 H   0  0  0  0  0  0  0  0  0  0  0  0
  149.9552  142.6879  156.0002 H   0  0  0  0  0  0  0  0  0  0  0  0
  148.7100  137.4027  152.9575 H   0  0  0  0  0  0  0  0  0  0  0  0
  1  2  1  0  0  0  0
  1 21  1  0  0  0  0
  1 22  1  0  0  0  0
  1 23  1  0  0  0  0
  2 20  2  0  0  0  0
  2  3  1  0  0  0  0
  3  4  2  0  0  0  0
  3 24  1  0  0  0  0
  4  5  1  0  0  0  0
  5  6  1  0  0  0  0
  5 20  1  0  0  0  0
  6  7  1  0  0  0  0
  6 25  1  0  0  0  0
  6 26  1  0  0  0  0
  7  8  1  0  0  0  0
  7  9  1  0  0  0  0
  7 27  1  0  0  0  0
  8 28  1  0  0  0  0
  8 29  1  0  0  0  0
  8 30  1  0  0  0  0
  9 10  1  0  0  0  0
  9 31  1  0  0  0  0
  9 45  1  0  0  0  0
 10 11  1  0  0  0  0
 10 32  1  0  0  0  0
 10 33  1  0  0  0  0
 11 12  2  0  0  0  0
 11 13  1  0  0  0  0
 13 14  1  0  0  0  0
 13 34  1  0  0  0  0
 14 19  1  0  0  0  0
 14 15  1  0  0  0  0
 14 35  1  0  0  0  0
 15 16  1  0  0  0  0
 15 36  1  0  0  0  0
 15 37  1  0  0  0  0
 16 17  1  0  0  0  0
 16 38  1  0  0  0  0
 16 39  1  0  0  0  0
 17 18  1  0  0  0  0
 18 19  1  0  0  0  0
 18 40  1  0  0  0  0
 18 41  1  0  0  0  0
 19 42  1  0  0  0  0
 19 43  1  0  0  0  0
 20 44  1  0  0  0  0
M  CHG  1   9   1
M  END
> <s_m_source_file>
AV-unprocessed.smi

> <i_m_source_file_index>
2684

> <i_lp_mmshare_version>
43012

> <i_f3d_flags>
0

> <s_epik_input>
W0NIM11jMVtjSF1ubihbY0hdMSlbQ0gyXVtDQEhdKFtDSDNdKVtOSF1bQ0gyXUMoPU8pW05IXVtDSF0yW0NIMl1bQ0gyXU9bQ0gyXVtDSDJdMg==

> <s_epik_cmdline>
J2VwaWtfcHl0aG9uJywgJy1waCcsICc3LjAnLCAnLXRuJywgJzgnLCAnLW1hJywgJzIwMCcsICctbWV0YWxfYmluZGluZycsICctaW1hZScsICc8aW5maWxlLm1hZT4nLCAnLW9tYWUnLCAnPG91dGZpbGUubWFlPic=

> <r_lp_tautomer_probability>
1

> <r_epik_Ionization_Penalty>
0.128576

> <r_epik_Ionization_Penalty_Charging>
0.128567

> <r_epik_Ionization_Penalty_Neutral>
8.60003e-06

> <r_epik_State_Penalty>
0.117991

> <r_epik_Charging_Adjusted_Penalty>
0.246558

> <i_epik_Tot_Q>
1

> <i_epik_Tot_abs_Q>
1

> <r_epik_Metal_State_Penalty>
0.118015

> <b_epik_Metal_Only>
0

> <s_lp_Force_Field>
OPLS_2005

> <r_lp_Energy>
10.4868

> <b_lp_Chiralities_Consistent>
1

> <s_lp_Variant>
AV-unprocessed.smi:2684-2

> <Gold.Version>
5.8.1

> <Gold.Id.Protein>
6NUR|6NUR_protein|mol2

> <Gold.PLP.Fitness>
46.9281

> <Gold.PLP.PLP>
-33.5997

> <Gold.PLP.part.hbond>
-3.0000

> <Gold.PLP.part.metal>
0.0000

> <Gold.PLP.part.buried>
-3.9921

> <Gold.PLP.part.nonpolar>
-27.2024

> <Gold.PLP.part.repulsive>
0.4780

> <Gold.PLP.ligand.clash>
0.0000

> <Gold.PLP.ligand.torsion>
0.8722

> <Gold.PLP.Chemscore.Hbond>
4.0000

> <Gold.PLP.Chemscore.CHOScore>
1.0000

> <Gold.PLP.Chemscore.Metal>
0.0000

> <Gold.Chemscore.Hbonds>
donor molecule, donor type, donor heavy atom, donor atom, acceptor molecule, acceptor atom, score
      L1  H     9    31       P1  7957  1.00
      L1  H     9    45       P1  7948  1.89
      L1  H    13    34       P1  7948  0.75
      L1  C    20    44       P1  8028  1.00

> <Gold.PLP.Chemscore.Internal.Correction>
0.0728

> <Gold.Rescore>
     Score         DG    S(hbond)    S(metal)    S(lipo)     H(rot)  DE(clash)    DE(int)     intcor
     18.11     -18.76       2.97        0.00      73.33       2.04       0.02       0.63       ----

> <Gold.Chemscore.Fitness>
18.1139

> <Gold.Chemscore.DG>
-18.7622

> <Gold.Chemscore.ZeroCoef>
-5.4800

> <Gold.Chemscore.Hbond>
2.9743

> <Gold.Chemscore.Metal>
0.0000

> <Gold.Chemscore.Lipo>
73.3306

> <Gold.Chemscore.Internal_Hbond>
0.0000

> <Gold.Chemscore.DEClash>
0.0211

> <Gold.Chemscore.DEInternal>
0.6272

> <Gold.Chemscore.Rot>
2.0437

> <Gold.Chemscore.Internal.Correction>
   9.000000E+99

> <Gold.Chemscore.Hbonds>
donor molecule, donor type, donor heavy atom, donor atom, acceptor molecule, acceptor atom, score
      L1  H     9    31       P1  7957  0.97
      L1  H     9    45       P1  7948  0.90
      L1  H    13    34       P1  7948  0.74

> <Gold.Chemscore.Hbond.Weighted>
-9.9343

> <Gold.Chemscore.Metal.Weighted>
-0.0000

> <Gold.Chemscore.Lipo.Weighted>
-8.5797

> <Gold.Chemscore.Internal_Hbond.Weighted>
0.0000

> <Gold.Chemscore.DEClash.Weighted>
0.0211

> <Gold.Chemscore.DEInternal.Weighted>
0.6272

> <Gold.Chemscore.Rot.Weighted>
5.2318

> <Gold.Chemscore.Internal.Correction.Weighted>
   9.000000E+99

> <Gold.Protein.RotatedTorsions>
[ 6907 6896 6895 6894 ] final  157.95 input  -60.11 | X-H torsion
[ 7974 7965 7964 7962 ] final  113.65 input  175.53 | X-H torsion
[ 8008 7997 7996 7995 ] final  147.81 input   59.86 | X-H torsion
[ 10167 10162 10161 10158 ] final -111.54 input  -65.29 | X-H torsion
[ 10718 10713 10712 10709 ] final   54.82 input   66.30 | X-H torsion
[ 10763 10752 10751 10750 ] final  -55.08 input  -60.55 | X-H torsion
[ 11005 11000 10999 10996 ] final  -67.00 input  -57.11 | X-H torsion

> <Gold.Protein.ActiveResidues>
 VAL166  LYS551  ARG553  GLY616  TRP617  ASP618  TYR619  PRO620  LYS621  CYS622 
 ASP623  PHE694  ASN695  SER759  ASP760  ASP761  ALA762  ILE779  LEU786  VAL792 
 PHE793  MET794  SER795  GLU796  ALA797  LYS798  CYS799  TRP800  GLU811  SER814 

> <Gold.Protein.RotatedAtoms>
  152.0076  133.3849  159.4206 H   0  0  0  0  0  0  0  0  0  0  0  0  # atno 6907 bound_to 6896
  150.6903  134.3766  159.5025 H   0  0  0  0  0  0  0  0  0  0  0  0  # atno 6908 bound_to 6896
  152.1522  134.8979  160.0598 H   0  0  0  0  0  0  0  0  0  0  0  0  # atno 6909 bound_to 6896
  145.2143  139.2891  143.4252 H   0  0  0  0  0  0  0  0  0  0  0  0  # atno 7974 bound_to 7965
  156.2812  140.2145  156.5598 H   0  0  0  0  0  0  0  0  0  0  0  0  # atno 8008 bound_to 7997
  154.7222  140.0502  157.0673 H   0  0  0  0  0  0  0  0  0  0  0  0  # atno 8009 bound_to 7997
  155.0463  140.3151  155.4710 H   0  0  0  0  0  0  0  0  0  0  0  0  # atno 8010 bound_to 7997
  140.1325  143.4348  152.1618 H   0  0  0  0  0  0  0  0  0  0  0  0  # atno 10167 bound_to 10162
  157.5291  130.8618  149.8662 H   0  0  0  0  0  0  0  0  0  0  0  0  # atno 10718 bound_to 10713
  154.1851  135.6437  153.5045 H   0  0  0  0  0  0  0  0  0  0  0  0  # atno 10763 bound_to 10752
  153.0049  135.5415  154.6473 H   0  0  0  0  0  0  0  0  0  0  0  0  # atno 10764 bound_to 10752
  154.5848  135.2928  155.0669 H   0  0  0  0  0  0  0  0  0  0  0  0  # atno 10765 bound_to 10752
  141.1497  133.6710  156.6225 H   0  0  0  0  0  0  0  0  0  0  0  0  # atno 11005 bound_to 11000
  146.3390  140.2429  142.8596 LP  0  0  0  0  0  0  0  0  0  0  0  0  # atno 17320 bound_to 7965
  144.9826  140.8473  143.5388 LP  0  0  0  0  0  0  0  0  0  0  0  0  # atno 17321 bound_to 7965
  139.5512  144.7339  151.4428 LP  0  0  0  0  0  0  0  0  0  0  0  0  # atno 17342 bound_to 10162
  140.6809  143.8085  150.7120 LP  0  0  0  0  0  0  0  0  0  0  0  0  # atno 17343 bound_to 10162
  156.0409  130.3739  150.1439 LP  0  0  0  0  0  0  0  0  0  0  0  0  # atno 17370 bound_to 10713
  156.9624  130.9809  151.3476 LP  0  0  0  0  0  0  0  0  0  0  0  0  # atno 17371 bound_to 10713
  140.3529  134.7753  157.4480 LP  0  0  0  0  0  0  0  0  0  0  0  0  # atno 17394 bound_to 11000
  140.0846  134.5684  155.8505 LP  0  0  0  0  0  0  0  0  0  0  0  0  # atno 17395 bound_to 11000

$$$$
