AV-unprocessed.smi:2470|AV-procd|sdf|9736|dock7
  -GOLD-   2272013373D 1   1.00000     0.00000
 Structure written by MMmdl.
 33 34  0  0  0  0  0  0  0  0  1 V2000
  151.8760  138.8892  155.3615 C   0  0  0  0  0  0  0  0  0  0  0  0
  150.6391  138.3956  154.8599 O   0  0  0  0  0  0  0  0  0  0  0  0
  149.6666  139.3094  154.5109 C   0  0  0  0  0  0  0  0  0  0  0  0
  148.4612  138.8511  153.9413 C   0  0  0  0  0  0  0  0  0  0  0  0
  147.4905  139.8195  153.6003 C   0  0  0  0  0  0  0  0  0  0  0  0
  146.2888  139.3152  153.0362 N   0  0  0  0  0  0  0  0  0  0  0  0
  145.8078  138.0611  153.0946 C   0  0  0  0  0  0  0  0  0  0  0  0
  146.3366  137.1232  153.6920 O   0  0  0  0  0  0  0  0  0  0  0  0
  144.6569  137.9522  152.4140 N   0  0  0  0  0  0  0  0  0  0  0  0
  143.8701  136.7315  152.2655 C   0  0  1  0  0  0  0  0  0  0  0  0
  144.7512  135.6148  151.6838 C   0  0  0  0  0  0  0  0  0  0  0  0
  143.2308  136.2931  153.5694 C   0  0  0  0  0  0  0  0  0  0  0  0
  142.0744  135.3224  153.5827 C   0  0  0  0  0  0  0  0  0  0  0  0
  141.8531  136.7697  153.9617 C   0  0  0  0  0  0  0  0  0  0  0  0
  147.7388  141.1340  153.8227 N   0  0  0  0  0  0  0  0  0  0  0  0
  148.9116  141.4655  154.3657 C   0  0  0  0  0  0  0  0  0  0  0  0
  149.8872  140.6295  154.7224 N   0  0  0  0  0  0  0  0  0  0  0  0
  152.5363  138.0505  155.5816 H   0  0  0  0  0  0  0  0  0  0  0  0
  151.7348  139.4509  156.2859 H   0  0  0  0  0  0  0  0  0  0  0  0
  152.3798  139.5234  154.6305 H   0  0  0  0  0  0  0  0  0  0  0  0
  148.2930  137.7968  153.7767 H   0  0  0  0  0  0  0  0  0  0  0  0
  145.7366  139.9842  152.5205 H   0  0  0  0  0  0  0  0  0  0  0  0
  144.2985  138.7770  151.9557 H   0  0  0  0  0  0  0  0  0  0  0  0
  143.0600  136.9223  151.5586 H   0  0  0  0  0  0  0  0  0  0  0  0
  144.1789  134.6976  151.5414 H   0  0  0  0  0  0  0  0  0  0  0  0
  145.5881  135.3846  152.3440 H   0  0  0  0  0  0  0  0  0  0  0  0
  145.1600  135.8972  150.7132 H   0  0  0  0  0  0  0  0  0  0  0  0
  143.9428  136.1810  154.3854 H   0  0  0  0  0  0  0  0  0  0  0  0
  141.6800  134.9887  152.6249 H   0  0  0  0  0  0  0  0  0  0  0  0
  142.0491  134.5833  154.3809 H   0  0  0  0  0  0  0  0  0  0  0  0
  141.6802  136.9949  155.0121 H   0  0  0  0  0  0  0  0  0  0  0  0
  141.3119  137.3964  153.2554 H   0  0  0  0  0  0  0  0  0  0  0  0
  149.0888  142.5174  154.5341 H   0  0  0  0  0  0  0  0  0  0  0  0
  1  2  1  0  0  0  0
  1 18  1  0  0  0  0
  1 19  1  0  0  0  0
  1 20  1  0  0  0  0
  2  3  1  0  0  0  0
  3 17  1  0  0  0  0
  3  4  2  0  0  0  0
  4  5  1  0  0  0  0
  4 21  1  0  0  0  0
  5  6  1  0  0  0  0
  5 15  2  0  0  0  0
  6  7  1  0  0  0  0
  6 22  1  0  0  0  0
  7  8  2  0  0  0  0
  7  9  1  0  0  0  0
  9 10  1  0  0  0  0
  9 23  1  0  0  0  0
 10 11  1  0  0  0  0
 10 12  1  0  0  0  0
 10 24  1  0  0  0  0
 11 25  1  0  0  0  0
 11 26  1  0  0  0  0
 11 27  1  0  0  0  0
 12 14  1  0  0  0  0
 12 13  1  0  0  0  0
 12 28  1  0  0  0  0
 13 14  1  0  0  0  0
 13 29  1  0  0  0  0
 13 30  1  0  0  0  0
 14 31  1  0  0  0  0
 14 32  1  0  0  0  0
 15 16  1  0  0  0  0
 16 17  2  0  0  0  0
 16 33  1  0  0  0  0
M  END
> <s_m_source_file>
AV-unprocessed.smi

> <i_m_source_file_index>
2470

> <i_lp_mmshare_version>
43012

> <i_f3d_flags>
0

> <s_epik_input>
W0NIM11PYzFbY0hdYyhuW2NIXW4xKVtOSF1DKD1PKVtOSF1bQ0BIXShbQ0gzXSlbQ0hdMltDSDJdW0NIMl0y

> <s_epik_cmdline>
J2VwaWtfcHl0aG9uJywgJy1waCcsICc3LjAnLCAnLXRuJywgJzgnLCAnLW1hJywgJzIwMCcsICctbWV0YWxfYmluZGluZycsICctaW1hZScsICc8aW5maWxlLm1hZT4nLCAnLW9tYWUnLCAnPG91dGZpbGUubWFlPic=

> <r_lp_tautomer_probability>
1

> <r_epik_Ionization_Penalty>
2.81207e-05

> <r_epik_Ionization_Penalty_Charging>
0

> <r_epik_Ionization_Penalty_Neutral>
2.81207e-05

> <r_epik_State_Penalty>
-0

> <r_epik_Charging_Adjusted_Penalty>
0

> <i_epik_Tot_Q>
0

> <i_epik_Tot_abs_Q>
0

> <r_epik_Metal_State_Penalty>
-0

> <b_epik_Metal_Only>
0

> <s_lp_Force_Field>
OPLS_2005

> <r_lp_Energy>
11.1381

> <b_lp_Chiralities_Consistent>
1

> <s_lp_Variant>
AV-unprocessed.smi:2470-2

> <Gold.Version>
5.8.1

> <Gold.Id.Protein>
6NUR|6NUR_protein|mol2

> <Gold.PLP.Fitness>
38.5719

> <Gold.PLP.PLP>
-28.5849

> <Gold.PLP.part.hbond>
-4.0000

> <Gold.PLP.part.metal>
0.0000

> <Gold.PLP.part.buried>
-2.6288

> <Gold.PLP.part.nonpolar>
-22.0480

> <Gold.PLP.part.repulsive>
0.5870

> <Gold.PLP.ligand.clash>
0.0049

> <Gold.PLP.ligand.torsion>
0.6834

> <Gold.PLP.Chemscore.Hbond>
2.4289

> <Gold.PLP.Chemscore.CHOScore>
1.0000

> <Gold.PLP.Chemscore.Metal>
0.0000

> <Gold.Chemscore.Hbonds>
donor molecule, donor type, donor heavy atom, donor atom, acceptor molecule, acceptor atom, score
      L1  H     6    22       P1 10175  0.57
      L1  H     9    23       P1 10175  0.77
      P1  H  7989  7998       L1    17  0.57
      L1  C    16    33       P1  8028  1.00

> <Gold.PLP.Chemscore.Internal.Correction>
1.0721

> <Gold.Rescore>
     Score         DG    S(hbond)    S(metal)    S(lipo)     H(rot)  DE(clash)    DE(int)     intcor
      9.74     -13.18       2.33        0.00      34.66       1.61       0.10       3.34       ----

> <Gold.Chemscore.Fitness>
9.7398

> <Gold.Chemscore.DG>
-13.1779

> <Gold.Chemscore.ZeroCoef>
-5.4800

> <Gold.Chemscore.Hbond>
2.3255

> <Gold.Chemscore.Metal>
0.0000

> <Gold.Chemscore.Lipo>
34.6570

> <Gold.Chemscore.Internal_Hbond>
0.0000

> <Gold.Chemscore.DEClash>
0.0986

> <Gold.Chemscore.DEInternal>
3.3395

> <Gold.Chemscore.Rot>
1.6109

> <Gold.Chemscore.Internal.Correction>
   9.000000E+99

> <Gold.Chemscore.Hbonds>
donor molecule, donor type, donor heavy atom, donor atom, acceptor molecule, acceptor atom, score
      L1  H     6    22       P1 10175  0.52
      L1  H     9    23       P1 10175  0.76
      P1  H  7989  7998       L1    17  0.10

> <Gold.Chemscore.Hbond.Weighted>
-7.7670

> <Gold.Chemscore.Metal.Weighted>
-0.0000

> <Gold.Chemscore.Lipo.Weighted>
-4.0549

> <Gold.Chemscore.Internal_Hbond.Weighted>
0.0000

> <Gold.Chemscore.DEClash.Weighted>
0.0986

> <Gold.Chemscore.DEInternal.Weighted>
3.3395

> <Gold.Chemscore.Rot.Weighted>
4.1240

> <Gold.Chemscore.Internal.Correction.Weighted>
   9.000000E+99

> <Gold.Protein.RotatedTorsions>
[ 6907 6896 6895 6894 ] final  -54.95 input  -60.11 | X-H torsion
[ 7974 7965 7964 7962 ] final   75.85 input  175.53 | X-H torsion
[ 8008 7997 7996 7995 ] final   19.35 input   59.86 | X-H torsion
[ 10167 10162 10161 10158 ] final   46.70 input  -65.29 | X-H torsion
[ 10718 10713 10712 10709 ] final   -5.86 input   66.30 | X-H torsion
[ 10763 10752 10751 10750 ] final -159.44 input  -60.55 | X-H torsion
[ 11005 11000 10999 10996 ] final  123.23 input  -57.11 | X-H torsion

> <Gold.Protein.ActiveResidues>
 VAL166  LYS551  ARG553  GLY616  TRP617  ASP618  TYR619  PRO620  LYS621  CYS622 
 ASP623  PHE694  ASN695  SER759  ASP760  ASP761  ALA762  ILE779  LEU786  VAL792 
 PHE793  MET794  SER795  GLU796  ALA797  LYS798  CYS799  TRP800  GLU811  SER814 

> <Gold.Protein.RotatedAtoms>
  150.8293  134.7539  159.6839 H   0  0  0  0  0  0  0  0  0  0  0  0  # atno 6907 bound_to 6896
  152.4400  134.5606  159.9903 H   0  0  0  0  0  0  0  0  0  0  0  0  # atno 6908 bound_to 6896
  151.5771  133.3345  159.3037 H   0  0  0  0  0  0  0  0  0  0  0  0  # atno 6909 bound_to 6896
  145.7103  139.2612  143.1654 H   0  0  0  0  0  0  0  0  0  0  0  0  # atno 7974 bound_to 7965
  154.9194  140.3025  155.5224 H   0  0  0  0  0  0  0  0  0  0  0  0  # atno 8008 bound_to 7997
  156.3010  140.2374  156.4178 H   0  0  0  0  0  0  0  0  0  0  0  0  # atno 8009 bound_to 7997
  154.8346  140.0417  157.1489 H   0  0  0  0  0  0  0  0  0  0  0  0  # atno 8010 bound_to 7997
  140.3112  144.2817  150.6199 H   0  0  0  0  0  0  0  0  0  0  0  0  # atno 10167 bound_to 10162
  156.7404  130.5208  149.5825 H   0  0  0  0  0  0  0  0  0  0  0  0  # atno 10718 bound_to 10713
  154.7474  135.3083  154.8619 H   0  0  0  0  0  0  0  0  0  0  0  0  # atno 10763 bound_to 10752
  153.9416  135.6774  153.4748 H   0  0  0  0  0  0  0  0  0  0  0  0  # atno 10764 bound_to 10752
  153.1071  135.4884  154.8896 H   0  0  0  0  0  0  0  0  0  0  0  0  # atno 10765 bound_to 10752
  139.9303  134.9641  156.8229 H   0  0  0  0  0  0  0  0  0  0  0  0  # atno 11005 bound_to 11000
  146.0718  140.7860  142.9684 LP  0  0  0  0  0  0  0  0  0  0  0  0  # atno 17320 bound_to 7965
  144.6944  140.3354  143.7208 LP  0  0  0  0  0  0  0  0  0  0  0  0  # atno 17321 bound_to 7965
  140.5566  143.2198  151.7837 LP  0  0  0  0  0  0  0  0  0  0  0  0  # atno 17342 bound_to 10162
  139.4893  144.4405  151.9769 LP  0  0  0  0  0  0  0  0  0  0  0  0  # atno 17343 bound_to 10162
  156.1468  130.6283  151.0542 LP  0  0  0  0  0  0  0  0  0  0  0  0  # atno 17370 bound_to 10713
  157.6821  131.0835  150.7343 LP  0  0  0  0  0  0  0  0  0  0  0  0  # atno 17371 bound_to 10713
  140.6220  133.9985  155.7622 LP  0  0  0  0  0  0  0  0  0  0  0  0  # atno 17394 bound_to 11000
  141.0888  133.9949  157.3271 LP  0  0  0  0  0  0  0  0  0  0  0  0  # atno 17395 bound_to 11000

$$$$
