AV-unprocessed.smi:2853|AV-procd|sdf|10973|dock7
  -GOLD-   2272015423D 1   1.00000     0.00000
 Structure written by MMmdl.
 43 44  0  0  0  0  0  0  0  0  1 V2000
  150.6841  129.3000  154.1225 C   0  0  0  0  0  0  0  0  0  0  0  0
  150.1975  130.6913  153.9032 C   0  0  0  0  0  0  0  0  0  0  0  0
  149.2268  131.0104  153.0486 N   0  0  0  0  0  0  0  0  0  0  0  0
  148.9584  132.3821  153.0208 C   0  0  0  0  0  0  0  0  0  0  0  0
  147.8872  132.8904  152.0951 C   0  0  0  0  0  0  0  0  0  0  0  0
  146.5528  132.1267  152.2214 C   0  0  0  0  0  0  0  0  0  0  0  0
  146.7073  130.6225  151.9377 C   0  0  0  0  0  0  0  0  0  0  0  0
  145.4811  132.7448  151.3111 C   0  0  0  0  0  0  0  0  0  0  0  0
  149.7439  133.1292  153.8722 C   0  0  0  0  0  0  0  0  0  0  0  0
  149.6803  134.4822  153.9915 N   0  0  0  0  0  0  0  0  0  0  0  0
  150.2511  135.2836  154.9075 C   0  0  0  0  0  0  0  0  0  0  0  0
  150.8689  134.9043  155.9019 O   0  0  0  0  0  0  0  0  0  0  0  0
  150.0440  136.5759  154.6024 N   0  0  0  0  0  0  0  0  0  0  0  0
  150.4924  137.7727  155.3276 C   0  0  1  0  0  0  0  0  0  0  0  0
  149.8216  137.7495  156.7138 C   0  0  0  0  0  0  0  0  0  0  0  0
  152.0225  137.8486  155.4717 C   0  0  0  0  0  0  0  0  0  0  0  0
  152.4109  139.1173  154.7148 C   0  0  0  0  0  0  0  0  0  0  0  0
  151.2531  139.9282  154.8148 O   0  0  0  0  0  0  0  0  0  0  0  0
  150.1398  139.0796  154.5839 C   0  0  0  0  0  0  0  0  0  0  0  0
  150.8547  132.0833  154.7438 S   0  0  0  0  0  0  0  0  0  0  0  0
  150.0591  128.5847  153.5869 H   0  0  0  0  0  0  0  0  0  0  0  0
  150.6583  129.0588  155.1853 H   0  0  0  0  0  0  0  0  0  0  0  0
  151.7097  129.2043  153.7660 H   0  0  0  0  0  0  0  0  0  0  0  0
  147.7124  133.9472  152.3018 H   0  0  0  0  0  0  0  0  0  0  0  0
  148.2300  132.8557  151.0604 H   0  0  0  0  0  0  0  0  0  0  0  0
  146.2001  132.2358  153.2482 H   0  0  0  0  0  0  0  0  0  0  0  0
  147.0936  130.4465  150.9332 H   0  0  0  0  0  0  0  0  0  0  0  0
  145.7497  130.1076  152.0204 H   0  0  0  0  0  0  0  0  0  0  0  0
  147.3890  130.1492  152.6445 H   0  0  0  0  0  0  0  0  0  0  0  0
  145.7643  132.6734  150.2604 H   0  0  0  0  0  0  0  0  0  0  0  0
  145.3269  133.7989  151.5438 H   0  0  0  0  0  0  0  0  0  0  0  0
  144.5223  132.2396  151.4324 H   0  0  0  0  0  0  0  0  0  0  0  0
  149.1562  134.9488  153.2660 H   0  0  0  0  0  0  0  0  0  0  0  0
  149.5164  136.7585  153.7615 H   0  0  0  0  0  0  0  0  0  0  0  0
  150.0877  138.6311  157.2985 H   0  0  0  0  0  0  0  0  0  0  0  0
  150.1224  136.8709  157.2858 H   0  0  0  0  0  0  0  0  0  0  0  0
  148.7344  137.7312  156.6282 H   0  0  0  0  0  0  0  0  0  0  0  0
  152.3069  137.9563  156.5192 H   0  0  0  0  0  0  0  0  0  0  0  0
  152.5511  136.9733  155.0926 H   0  0  0  0  0  0  0  0  0  0  0  0
  153.2855  139.6095  155.1405 H   0  0  0  0  0  0  0  0  0  0  0  0
  152.6164  138.9011  153.6654 H   0  0  0  0  0  0  0  0  0  0  0  0
  150.0346  138.9396  153.5077 H   0  0  0  0  0  0  0  0  0  0  0  0
  149.2174  139.5395  154.9401 H   0  0  0  0  0  0  0  0  0  0  0  0
  1  2  1  0  0  0  0
  1 21  1  0  0  0  0
  1 22  1  0  0  0  0
  1 23  1  0  0  0  0
  2 20  1  0  0  0  0
  2  3  2  0  0  0  0
  3  4  1  0  0  0  0
  4  5  1  0  0  0  0
  4  9  2  0  0  0  0
  5  6  1  0  0  0  0
  5 24  1  0  0  0  0
  5 25  1  0  0  0  0
  6  7  1  0  0  0  0
  6  8  1  0  0  0  0
  6 26  1  0  0  0  0
  7 27  1  0  0  0  0
  7 28  1  0  0  0  0
  7 29  1  0  0  0  0
  8 30  1  0  0  0  0
  8 31  1  0  0  0  0
  8 32  1  0  0  0  0
  9 10  1  0  0  0  0
  9 20  1  0  0  0  0
 10 11  1  0  0  0  0
 10 33  1  0  0  0  0
 11 12  2  0  0  0  0
 11 13  1  0  0  0  0
 13 14  1  0  0  0  0
 13 34  1  0  0  0  0
 14 19  1  0  0  0  0
 14 15  1  0  0  0  0
 14 16  1  0  0  0  0
 15 35  1  0  0  0  0
 15 36  1  0  0  0  0
 15 37  1  0  0  0  0
 16 17  1  0  0  0  0
 16 38  1  0  0  0  0
 16 39  1  0  0  0  0
 17 18  1  0  0  0  0
 17 40  1  0  0  0  0
 17 41  1  0  0  0  0
 18 19  1  0  0  0  0
 19 42  1  0  0  0  0
 19 43  1  0  0  0  0
M  END
> <s_m_source_file>
AV-unprocessed.smi

> <i_m_source_file_index>
2853

> <i_lp_mmshare_version>
43012

> <i_f3d_flags>
0

> <s_epik_input>
W0NIM11jMW5jKFtDSDJdW0NIXShbQ0gzXSlbQ0gzXSljKHMxKVtOSF1DKD1PKVtOSF1bQ0BAXTIoW0NIM10pW0NIMl1bQ0gyXU9bQ0gyXTI=

> <s_epik_cmdline>
J2VwaWtfcHl0aG9uJywgJy1waCcsICc3LjAnLCAnLXRuJywgJzgnLCAnLW1hJywgJzIwMCcsICctbWV0YWxfYmluZGluZycsICctaW1hZScsICc8aW5maWxlLm1hZT4nLCAnLW9tYWUnLCAnPG91dGZpbGUubWFlPic=

> <r_epik_Ionization_Penalty>
0.000723394

> <r_epik_Ionization_Penalty_Charging>
0

> <r_epik_Ionization_Penalty_Neutral>
0.000723394

> <r_epik_State_Penalty>
0.000446791

> <r_epik_Charging_Adjusted_Penalty>
0.000446791

> <i_epik_Tot_Q>
0

> <i_epik_Tot_abs_Q>
0

> <r_epik_Metal_State_Penalty>
-0

> <b_epik_Metal_Only>
0

> <s_lp_Force_Field>
OPLS_2005

> <r_lp_Energy>
15.1609

> <b_lp_Chiralities_Consistent>
1

> <s_lp_Variant>
AV-unprocessed.smi:2853-1

> <Gold.Version>
5.8.1

> <Gold.Id.Protein>
6NUR|6NUR_protein|mol2

> <Gold.PLP.Fitness>
44.9928

> <Gold.PLP.PLP>
-36.2493

> <Gold.PLP.part.hbond>
-3.0000

> <Gold.PLP.part.metal>
0.0000

> <Gold.PLP.part.buried>
-4.5578

> <Gold.PLP.part.nonpolar>
-29.3227

> <Gold.PLP.part.repulsive>
0.6656

> <Gold.PLP.ligand.clash>
0.0000

> <Gold.PLP.ligand.torsion>
0.1378

> <Gold.PLP.Chemscore.Hbond>
3.0000

> <Gold.PLP.Chemscore.CHOScore>
0.0000

> <Gold.PLP.Chemscore.Metal>
0.0000

> <Gold.Chemscore.Hbonds>
donor molecule, donor type, donor heavy atom, donor atom, acceptor molecule, acceptor atom, score
      L1  H    10    33       P1  7948  0.75
      L1  H    13    34       P1  7948  0.99
      P1  H  7989  7998       L1    18  0.70

> <Gold.PLP.Chemscore.Internal.Correction>
0.0192

> <Gold.Rescore>
     Score         DG    S(hbond)    S(metal)    S(lipo)     H(rot)  DE(clash)    DE(int)     intcor
     15.17     -17.85       2.21        0.00      70.60       1.28       0.03       2.64       ----

> <Gold.Chemscore.Fitness>
15.1735

> <Gold.Chemscore.DG>
-17.8498

> <Gold.Chemscore.ZeroCoef>
-5.4800

> <Gold.Chemscore.Hbond>
2.2077

> <Gold.Chemscore.Metal>
0.0000

> <Gold.Chemscore.Lipo>
70.6042

> <Gold.Chemscore.Internal_Hbond>
0.0000

> <Gold.Chemscore.DEClash>
0.0338

> <Gold.Chemscore.DEInternal>
2.6425

> <Gold.Chemscore.Rot>
1.2753

> <Gold.Chemscore.Internal.Correction>
   9.000000E+99

> <Gold.Chemscore.Hbonds>
donor molecule, donor type, donor heavy atom, donor atom, acceptor molecule, acceptor atom, score
      L1  H    10    33       P1  7948  0.09
      L1  H    13    34       P1  7948  0.75
      P1  H  7989  7998       L1    18  0.06

> <Gold.Chemscore.Hbond.Weighted>
-7.3737

> <Gold.Chemscore.Metal.Weighted>
-0.0000

> <Gold.Chemscore.Lipo.Weighted>
-8.2607

> <Gold.Chemscore.Internal_Hbond.Weighted>
0.0000

> <Gold.Chemscore.DEClash.Weighted>
0.0338

> <Gold.Chemscore.DEInternal.Weighted>
2.6425

> <Gold.Chemscore.Rot.Weighted>
3.2646

> <Gold.Chemscore.Internal.Correction.Weighted>
   9.000000E+99

> <Gold.Protein.RotatedTorsions>
[ 6907 6896 6895 6894 ] final  146.37 input  -60.11 | X-H torsion
[ 7974 7965 7964 7962 ] final  166.74 input  175.53 | X-H torsion
[ 8008 7997 7996 7995 ] final   75.65 input   59.86 | X-H torsion
[ 10167 10162 10161 10158 ] final  131.47 input  -65.29 | X-H torsion
[ 10718 10713 10712 10709 ] final  -81.65 input   66.30 | X-H torsion
[ 10763 10752 10751 10750 ] final  159.56 input  -60.55 | X-H torsion
[ 11005 11000 10999 10996 ] final  143.46 input  -57.11 | X-H torsion

> <Gold.Protein.ActiveResidues>
 VAL166  LYS551  ARG553  GLY616  TRP617  ASP618  TYR619  PRO620  LYS621  CYS622 
 ASP623  PHE694  ASN695  SER759  ASP760  ASP761  ALA762  ILE779  LEU786  VAL792 
 PHE793  MET794  SER795  GLU796  ALA797  LYS798  CYS799  TRP800  GLU811  SER814 

> <Gold.Protein.RotatedAtoms>
  152.1688  133.4630  159.4898 H   0  0  0  0  0  0  0  0  0  0  0  0  # atno 6907 bound_to 6896
  150.6917  134.1979  159.4320 H   0  0  0  0  0  0  0  0  0  0  0  0  # atno 6908 bound_to 6896
  151.9885  134.9991  160.0611 H   0  0  0  0  0  0  0  0  0  0  0  0  # atno 6909 bound_to 6896
  144.7450  139.8660  143.6385 H   0  0  0  0  0  0  0  0  0  0  0  0  # atno 7974 bound_to 7965
  155.8159  140.3471  155.5485 H   0  0  0  0  0  0  0  0  0  0  0  0  # atno 8008 bound_to 7997
  155.8392  140.0939  157.1765 H   0  0  0  0  0  0  0  0  0  0  0  0  # atno 8009 bound_to 7997
  154.4005  140.1397  156.3696 H   0  0  0  0  0  0  0  0  0  0  0  0  # atno 8010 bound_to 7997
  139.5382  144.6704  151.4712 H   0  0  0  0  0  0  0  0  0  0  0  0  # atno 10167 bound_to 10162
  156.0046  130.4610  150.3985 H   0  0  0  0  0  0  0  0  0  0  0  0  # atno 10718 bound_to 10713
  154.2337  135.2777  155.2880 H   0  0  0  0  0  0  0  0  0  0  0  0  # atno 10763 bound_to 10752
  154.5602  135.5649  153.7004 H   0  0  0  0  0  0  0  0  0  0  0  0  # atno 10764 bound_to 10752
  153.0014  135.6296  154.2479 H   0  0  0  0  0  0  0  0  0  0  0  0  # atno 10765 bound_to 10752
  140.0556  134.9232  157.1093 H   0  0  0  0  0  0  0  0  0  0  0  0  # atno 11005 bound_to 11000
  146.1314  139.4351  143.0166 LP  0  0  0  0  0  0  0  0  0  0  0  0  # atno 17320 bound_to 7965
  145.7157  141.0092  143.1429 LP  0  0  0  0  0  0  0  0  0  0  0  0  # atno 17321 bound_to 7965
  140.6600  143.8519  150.6877 LP  0  0  0  0  0  0  0  0  0  0  0  0  # atno 17342 bound_to 10162
  140.1910  143.4036  152.1863 LP  0  0  0  0  0  0  0  0  0  0  0  0  # atno 17343 bound_to 10162
  157.2056  131.0448  151.2627 LP  0  0  0  0  0  0  0  0  0  0  0  0  # atno 17370 bound_to 10713
  157.3936  130.7295  149.6715 LP  0  0  0  0  0  0  0  0  0  0  0  0  # atno 17371 bound_to 10713
  140.3850  134.2246  155.7169 LP  0  0  0  0  0  0  0  0  0  0  0  0  # atno 17394 bound_to 11000
  141.1950  133.8115  157.0733 LP  0  0  0  0  0  0  0  0  0  0  0  0  # atno 17395 bound_to 11000

$$$$
