AV-unprocessed.smi:2552|AV-procd|sdf|10015|dock5
  -GOLD-   2272014 63D 1   1.00000     0.00000
 Structure written by MMmdl.
 34 36  0  0  0  0  0  0  0  0  1 V2000
  151.7835  135.7491  156.7935 C   0  0  0  0  0  0  0  0  0  0  0  0
  151.4195  137.0011  156.1342 N   0  0  0  0  0  0  0  0  0  0  0  0
  151.2475  136.9063  154.7480 N   0  0  0  0  0  0  0  0  0  0  0  0
  150.9246  137.9411  154.0367 C   0  0  0  0  0  0  0  0  0  0  0  0
  150.7439  139.2188  154.7189 C   0  0  0  0  0  0  0  0  0  0  0  0
  150.4075  140.5404  154.3156 C   0  0  0  0  0  0  0  0  0  0  0  0
  150.3726  141.3829  155.3463 N   0  0  0  0  0  0  0  0  0  0  0  0
  150.6858  140.6413  156.4405 N   0  0  0  0  0  0  0  0  0  0  0  0
  150.7563  141.2738  157.7488 C   0  0  0  0  0  0  0  0  0  0  0  0
  152.2057  141.5854  158.1733 C   0  0  2  0  0  0  0  0  0  0  0  0
  152.9077  140.3627  158.2773 O   0  0  0  0  0  0  0  0  0  0  0  0
  152.2707  142.4020  159.4591 C   0  0  0  0  0  0  0  0  0  0  0  0
  152.4285  141.7569  160.7061 C   0  0  0  0  0  0  0  0  0  0  0  0
  152.4692  142.5078  161.8965 C   0  0  0  0  0  0  0  0  0  0  0  0
  152.3503  143.9095  161.8494 C   0  0  0  0  0  0  0  0  0  0  0  0
  152.1878  144.5591  160.6110 C   0  0  0  0  0  0  0  0  0  0  0  0
  152.1454  143.8099  159.4189 C   0  0  0  0  0  0  0  0  0  0  0  0
  151.9745  144.4515  158.2377 F   0  0  0  0  0  0  0  0  0  0  0  0
  150.9043  139.3333  156.0601 C   0  0  0  0  0  0  0  0  0  0  0  0
  151.2707  138.1458  156.8664 C   0  0  0  0  0  0  0  0  0  0  0  0
  151.4217  138.2106  158.0865 O   0  0  0  0  0  0  0  0  0  0  0  0
  151.0320  135.4721  157.5344 H   0  0  0  0  0  0  0  0  0  0  0  0
  152.7442  135.8475  157.3010 H   0  0  0  0  0  0  0  0  0  0  0  0
  151.8679  134.9235  156.0848 H   0  0  0  0  0  0  0  0  0  0  0  0
  150.7910  137.8653  152.9577 H   0  0  0  0  0  0  0  0  0  0  0  0
  150.1924  140.9129  153.3251 H   0  0  0  0  0  0  0  0  0  0  0  0
  150.1581  142.1866  157.7351 H   0  0  0  0  0  0  0  0  0  0  0  0
  150.2826  140.6087  158.4716 H   0  0  0  0  0  0  0  0  0  0  0  0
  152.6980  142.1436  157.3772 H   0  0  0  0  0  0  0  0  0  0  0  0
  152.2925  139.6542  158.1645 H   0  0  0  0  0  0  0  0  0  0  0  0
  152.5134  140.6812  160.7542 H   0  0  0  0  0  0  0  0  0  0  0  0
  152.5891  142.0076  162.8463 H   0  0  0  0  0  0  0  0  0  0  0  0
  152.3807  144.4856  162.7623 H   0  0  0  0  0  0  0  0  0  0  0  0
  152.0921  145.6341  160.5753 H   0  0  0  0  0  0  0  0  0  0  0  0
  1  2  1  0  0  0  0
  1 22  1  0  0  0  0
  1 23  1  0  0  0  0
  1 24  1  0  0  0  0
  2 20  1  0  0  0  0
  2  3  1  0  0  0  0
  3  4  2  0  0  0  0
  4  5  1  0  0  0  0
  4 25  1  0  0  0  0
  5 19  2  0  0  0  0
  5  6  1  0  0  0  0
  6  7  2  0  0  0  0
  6 26  1  0  0  0  0
  7  8  1  0  0  0  0
  8  9  1  0  0  0  0
  8 19  1  0  0  0  0
  9 10  1  0  0  0  0
  9 27  1  0  0  0  0
  9 28  1  0  0  0  0
 10 11  1  0  0  0  0
 10 12  1  0  0  0  0
 10 29  1  0  0  0  0
 11 30  1  0  0  0  0
 12 17  1  0  0  0  0
 12 13  2  0  0  0  0
 13 14  1  0  0  0  0
 13 31  1  0  0  0  0
 14 15  2  0  0  0  0
 14 32  1  0  0  0  0
 15 16  1  0  0  0  0
 15 33  1  0  0  0  0
 16 17  2  0  0  0  0
 16 34  1  0  0  0  0
 17 18  1  0  0  0  0
 19 20  1  0  0  0  0
 20 21  2  0  0  0  0
M  END
> <s_m_source_file>
AV-unprocessed.smi

> <i_m_source_file_index>
2552

> <i_lp_mmshare_version>
43012

> <i_f3d_flags>
0

> <s_epik_input>
W2NIXTFubihbQ0gzXSljKD1PKWMoYzEyKW4obltjSF0yKVtDSDJdW0NASF0oW09IXSljM1tjSF1bY0hdW2NIXVtjSF1jM0Y=

> <s_epik_cmdline>
J2VwaWtfcHl0aG9uJywgJy1waCcsICc3LjAnLCAnLXRuJywgJzgnLCAnLW1hJywgJzIwMCcsICctbWV0YWxfYmluZGluZycsICctaW1hZScsICc8aW5maWxlLm1hZT4nLCAnLW9tYWUnLCAnPG91dGZpbGUubWFlPic=

> <r_lp_tautomer_probability>
1

> <r_epik_Ionization_Penalty>
6.28011e-06

> <r_epik_Ionization_Penalty_Charging>
1.65421e-10

> <r_epik_Ionization_Penalty_Neutral>
6.27995e-06

> <r_epik_State_Penalty>
-0

> <r_epik_Charging_Adjusted_Penalty>
1.65421e-10

> <i_epik_Tot_Q>
0

> <i_epik_Tot_abs_Q>
0

> <r_epik_Metal_State_Penalty>
-0

> <b_epik_Metal_Only>
0

> <s_lp_Force_Field>
OPLS_2005

> <r_lp_Energy>
28.555

> <b_lp_Chiralities_Consistent>
1

> <s_lp_Variant>
AV-unprocessed.smi:2552-1

> <Gold.Version>
5.8.1

> <Gold.Id.Protein>
6NUR|6NUR_protein|mol2

> <Gold.PLP.Fitness>
51.6843

> <Gold.PLP.PLP>
-41.8647

> <Gold.PLP.part.hbond>
-2.2469

> <Gold.PLP.part.metal>
0.0000

> <Gold.PLP.part.buried>
-0.4680

> <Gold.PLP.part.nonpolar>
-39.5154

> <Gold.PLP.part.repulsive>
0.1847

> <Gold.PLP.ligand.clash>
0.0000

> <Gold.PLP.ligand.torsion>
1.0035

> <Gold.PLP.Chemscore.Hbond>
1.8160

> <Gold.PLP.Chemscore.CHOScore>
2.1210

> <Gold.PLP.Chemscore.Metal>
0.0000

> <Gold.Chemscore.Hbonds>
donor molecule, donor type, donor heavy atom, donor atom, acceptor molecule, acceptor atom, score
      P1  H  7997  8010       L1    11  0.71
      P1  H 10752 10764       L1     3  0.66
      L1  C     4    25       P1  7948  0.19
      L1  C     4    25       P1  7949  0.80
      L1  C     6    26       P1  7957  1.00

> <Gold.PLP.Chemscore.Internal.Correction>
0.0154

> <Gold.Rescore>
     Score         DG    S(hbond)    S(metal)    S(lipo)     H(rot)  DE(clash)    DE(int)     intcor
     14.37     -17.15       1.14        0.00     111.50       2.02       0.23       2.54       ----

> <Gold.Chemscore.Fitness>
14.3750

> <Gold.Chemscore.DG>
-17.1541

> <Gold.Chemscore.ZeroCoef>
-5.4800

> <Gold.Chemscore.Hbond>
1.1361

> <Gold.Chemscore.Metal>
0.0000

> <Gold.Chemscore.Lipo>
111.5025

> <Gold.Chemscore.Internal_Hbond>
0.0000

> <Gold.Chemscore.DEClash>
0.2345

> <Gold.Chemscore.DEInternal>
2.5445

> <Gold.Chemscore.Rot>
2.0181

> <Gold.Chemscore.Internal.Correction>
   9.000000E+99

> <Gold.Chemscore.Hbonds>
donor molecule, donor type, donor heavy atom, donor atom, acceptor molecule, acceptor atom, score
      P1  H  7997  8010       L1    11  0.46
      P1  H 10752 10764       L1     3  0.13

> <Gold.Chemscore.Hbond.Weighted>
-3.7946

> <Gold.Chemscore.Metal.Weighted>
-0.0000

> <Gold.Chemscore.Lipo.Weighted>
-13.0458

> <Gold.Chemscore.Internal_Hbond.Weighted>
0.0000

> <Gold.Chemscore.DEClash.Weighted>
0.2345

> <Gold.Chemscore.DEInternal.Weighted>
2.5445

> <Gold.Chemscore.Rot.Weighted>
5.1663

> <Gold.Chemscore.Internal.Correction.Weighted>
   9.000000E+99

> <Gold.Protein.RotatedTorsions>
[ 6907 6896 6895 6894 ] final  -17.54 input  -60.11 | X-H torsion
[ 7974 7965 7964 7962 ] final -103.51 input  175.53 | X-H torsion
[ 8008 7997 7996 7995 ] final   37.79 input   59.86 | X-H torsion
[ 10167 10162 10161 10158 ] final -125.45 input  -65.29 | X-H torsion
[ 10718 10713 10712 10709 ] final   32.20 input   66.30 | X-H torsion
[ 10763 10752 10751 10750 ] final  -74.89 input  -60.55 | X-H torsion
[ 11005 11000 10999 10996 ] final    7.18 input  -57.11 | X-H torsion

> <Gold.Protein.ActiveResidues>
 VAL166  LYS551  ARG553  GLY616  TRP617  ASP618  TYR619  PRO620  LYS621  CYS622 
 ASP623  PHE694  ASN695  SER759  ASP760  ASP761  ALA762  ILE779  LEU786  VAL792 
 PHE793  MET794  SER795  GLU796  ALA797  LYS798  CYS799  TRP800  GLU811  SER814 

> <Gold.Protein.RotatedAtoms>
  151.2918  135.0744  159.9206 H   0  0  0  0  0  0  0  0  0  0  0  0  # atno 6907 bound_to 6896
  152.5315  133.9924  159.7867 H   0  0  0  0  0  0  0  0  0  0  0  0  # atno 6908 bound_to 6896
  151.0195  133.5838  159.2703 H   0  0  0  0  0  0  0  0  0  0  0  0  # atno 6909 bound_to 6896
  145.2550  140.9250  143.3073 H   0  0  0  0  0  0  0  0  0  0  0  0  # atno 7974 bound_to 7965
  155.2096  140.3322  155.4331 H   0  0  0  0  0  0  0  0  0  0  0  0  # atno 8008 bound_to 7997
  156.2375  140.1879  156.7127 H   0  0  0  0  0  0  0  0  0  0  0  0  # atno 8009 bound_to 7997
  154.6087  140.0612  156.9450 H   0  0  0  0  0  0  0  0  0  0  0  0  # atno 8010 bound_to 7997
  139.9820  143.5732  152.2374 H   0  0  0  0  0  0  0  0  0  0  0  0  # atno 10167 bound_to 10162
  157.2822  130.7260  149.6563 H   0  0  0  0  0  0  0  0  0  0  0  0  # atno 10718 bound_to 10713
  154.4792  135.5849  153.6377 H   0  0  0  0  0  0  0  0  0  0  0  0  # atno 10763 bound_to 10752
  152.9845  135.6085  154.3268 H   0  0  0  0  0  0  0  0  0  0  0  0  # atno 10764 bound_to 10752
  154.3158  135.2844  155.2523 H   0  0  0  0  0  0  0  0  0  0  0  0  # atno 10765 bound_to 10752
  140.5511  134.0282  155.7937 H   0  0  0  0  0  0  0  0  0  0  0  0  # atno 11005 bound_to 11000
  144.9469  139.4126  143.6421 LP  0  0  0  0  0  0  0  0  0  0  0  0  # atno 17320 bound_to 7965
  146.3292  139.8457  142.8882 LP  0  0  0  0  0  0  0  0  0  0  0  0  # atno 17321 bound_to 7965
  139.6403  144.7654  151.2353 LP  0  0  0  0  0  0  0  0  0  0  0  0  # atno 17342 bound_to 10162
  140.7485  143.6329  150.8406 LP  0  0  0  0  0  0  0  0  0  0  0  0  # atno 17343 bound_to 10162
  155.9664  130.4334  150.5007 LP  0  0  0  0  0  0  0  0  0  0  0  0  # atno 17370 bound_to 10713
  157.2953  131.0634  151.2106 LP  0  0  0  0  0  0  0  0  0  0  0  0  # atno 17371 bound_to 10713
  141.1171  133.9522  157.2802 LP  0  0  0  0  0  0  0  0  0  0  0  0  # atno 17394 bound_to 11000
  139.9455  135.0185  156.8838 LP  0  0  0  0  0  0  0  0  0  0  0  0  # atno 17395 bound_to 11000

$$$$
