AV-unprocessed.smi:2243|AV-procd|sdf|9068|dock2
  -GOLD-   2272012273D 1   1.00000     0.00000
 Structure written by MMmdl.
 34 35  0  0  0  0  0  0  0  0  1 V2000
  151.6760  144.4103  157.7525 C   0  0  0  0  0  0  0  0  0  0  0  0
  151.6745  142.9500  157.2689 C   0  0  2  0  0  0  0  0  0  0  0  0
  150.3926  142.6952  156.6098 N   0  0  0  0  0  0  0  0  0  0  0  0
  150.1271  141.7219  155.7241 C   0  0  0  0  0  0  0  0  0  0  0  0
  150.9890  140.9105  155.3716 O   0  0  0  0  0  0  0  0  0  0  0  0
  148.8003  141.7984  155.3246 N   0  0  0  0  0  0  0  0  0  0  0  0
  148.3474  140.9989  154.4076 C   0  0  0  0  0  0  0  0  0  0  0  0
  148.9354  139.9859  153.6548 N   0  0  0  0  0  0  0  0  0  0  0  0
  147.9833  139.4635  152.8249 C   0  0  0  0  0  0  0  0  0  0  0  0
  146.8451  140.1153  153.0425 C   0  0  0  0  0  0  0  0  0  0  0  0
  147.0371  141.0607  154.0049 O   0  0  0  0  0  0  0  0  0  0  0  0
  151.9110  141.9242  158.4093 C   0  0  0  0  0  0  0  0  0  0  0  0
  153.1406  142.2703  159.2736 C   0  0  0  0  0  0  0  0  0  0  0  0
  153.3926  141.1966  160.3447 C   0  0  0  0  0  0  0  0  0  0  0  0
  153.5541  139.9238  159.7318 O   0  0  0  0  0  0  0  0  0  0  0  0
  152.3916  139.5037  159.0288 C   0  0  0  0  0  0  0  0  0  0  0  0
  152.0868  140.4829  157.8843 C   0  0  0  0  0  0  0  0  0  0  0  0
  152.6522  144.7103  158.1317 H   0  0  0  0  0  0  0  0  0  0  0  0
  150.9441  144.5673  158.5455 H   0  0  0  0  0  0  0  0  0  0  0  0
  151.4320  145.0919  156.9368 H   0  0  0  0  0  0  0  0  0  0  0  0
  152.4888  142.8467  156.5499 H   0  0  0  0  0  0  0  0  0  0  0  0
  149.6352  143.3178  156.8514 H   0  0  0  0  0  0  0  0  0  0  0  0
  149.8917  139.6617  153.6822 H   0  0  0  0  0  0  0  0  0  0  0  0
  148.2289  138.6585  152.1481 H   0  0  0  0  0  0  0  0  0  0  0  0
  145.8574  140.0296  152.6142 H   0  0  0  0  0  0  0  0  0  0  0  0
  151.0337  141.9346  159.0583 H   0  0  0  0  0  0  0  0  0  0  0  0
  154.0237  142.3633  158.6403 H   0  0  0  0  0  0  0  0  0  0  0  0
  153.0078  143.2318  159.7686 H   0  0  0  0  0  0  0  0  0  0  0  0
  154.2976  141.4331  160.9044 H   0  0  0  0  0  0  0  0  0  0  0  0
  152.5733  141.1650  161.0647 H   0  0  0  0  0  0  0  0  0  0  0  0
  152.5648  138.5043  158.6294 H   0  0  0  0  0  0  0  0  0  0  0  0
  151.5450  139.4298  159.7134 H   0  0  0  0  0  0  0  0  0  0  0  0
  151.1901  140.1467  157.3635 H   0  0  0  0  0  0  0  0  0  0  0  0
  152.8984  140.4526  157.1560 H   0  0  0  0  0  0  0  0  0  0  0  0
  1  2  1  0  0  0  0
  1 18  1  0  0  0  0
  1 19  1  0  0  0  0
  1 20  1  0  0  0  0
  2  3  1  0  0  0  0
  2 12  1  0  0  0  0
  2 21  1  0  0  0  0
  3 22  1  0  0  0  0
  3  4  1  0  0  0  0
  4  6  1  0  0  0  0
  4  5  2  0  0  0  0
  6  7  2  0  0  0  0
  7 11  1  0  0  0  0
  7  8  1  0  0  0  0
  8 23  1  0  0  0  0
  8  9  1  0  0  0  0
  9 24  1  0  0  0  0
  9 10  2  0  0  0  0
 10 25  1  0  0  0  0
 10 11  1  0  0  0  0
 12 17  1  0  0  0  0
 12 13  1  0  0  0  0
 12 26  1  0  0  0  0
 13 14  1  0  0  0  0
 13 27  1  0  0  0  0
 13 28  1  0  0  0  0
 14 15  1  0  0  0  0
 14 29  1  0  0  0  0
 14 30  1  0  0  0  0
 15 16  1  0  0  0  0
 16 17  1  0  0  0  0
 16 31  1  0  0  0  0
 16 32  1  0  0  0  0
 17 33  1  0  0  0  0
 17 34  1  0  0  0  0
M  END
> <s_m_source_file>
AV-unprocessed.smi

> <i_m_source_file_index>
2243

> <i_lp_mmshare_version>
43012

> <i_f3d_flags>
0

> <s_epik_input>
W0NIMl0xW0NIMl1PW0NIMl1bQ0gyXVtDSF0xW0NASF0oW0NIM10pW05IXUMoPU8pW05IXWMybltjSF1bY0hdbzI=

> <s_epik_cmdline>
J2VwaWtfcHl0aG9uJywgJy1waCcsICc3LjAnLCAnLXRuJywgJzgnLCAnLW1hJywgJzIwMCcsICctbWV0YWxfYmluZGluZycsICctaW1hZScsICc8aW5maWxlLm1hZT4nLCAnLW9tYWUnLCAnPG91dGZpbGUubWFlPic=

> <r_lp_tautomer_probability>
0.107061

> <r_epik_Ionization_Penalty>
1.44639

> <r_epik_Ionization_Penalty_Charging>
1.44602

> <r_epik_Ionization_Penalty_Neutral>
0.000368208

> <r_epik_State_Penalty>
2.61815

> <r_epik_Charging_Adjusted_Penalty>
4.06418

> <i_epik_Tot_Q>
0

> <i_epik_Tot_abs_Q>
0

> <r_epik_Metal_State_Penalty>
3.54171

> <b_epik_Metal_Only>
0

> <s_lp_Force_Field>
OPLS_2005

> <r_lp_Energy>
34.9147

> <b_lp_Chiralities_Consistent>
1

> <s_lp_Variant>
AV-unprocessed.smi:2243-7

> <Gold.Version>
5.8.1

> <Gold.Id.Protein>
6NUR|6NUR_protein|mol2

> <Gold.PLP.Fitness>
39.1232

> <Gold.PLP.PLP>
-29.6189

> <Gold.PLP.part.hbond>
-3.0000

> <Gold.PLP.part.metal>
0.0000

> <Gold.PLP.part.buried>
-1.1708

> <Gold.PLP.part.nonpolar>
-25.9207

> <Gold.PLP.part.repulsive>
1.1679

> <Gold.PLP.ligand.clash>
0.0000

> <Gold.PLP.ligand.torsion>
0.3298

> <Gold.PLP.Chemscore.Hbond>
1.2483

> <Gold.PLP.Chemscore.CHOScore>
2.1319

> <Gold.PLP.Chemscore.Metal>
0.0000

> <Gold.Chemscore.Hbonds>
donor molecule, donor type, donor heavy atom, donor atom, acceptor molecule, acceptor atom, score
      L1  H     3    22       P1  8028  0.51
      P1  H  7989  7998       L1     5  0.74
      L1  C     9    24       P1  7948  1.00
      L1  C     9    24       P1  7957  0.17
      L1  C    10    25       P1 10175  1.00

> <Gold.PLP.Chemscore.Internal.Correction>
0.0232

> <Gold.Rescore>
     Score         DG    S(hbond)    S(metal)    S(lipo)     H(rot)  DE(clash)    DE(int)     intcor
     13.07     -15.04       1.22        0.00      75.94       1.32       0.27       1.71       ----

> <Gold.Chemscore.Fitness>
13.0661

> <Gold.Chemscore.DG>
-15.0447

> <Gold.Chemscore.ZeroCoef>
-5.4800

> <Gold.Chemscore.Hbond>
1.2153

> <Gold.Chemscore.Metal>
0.0000

> <Gold.Chemscore.Lipo>
75.9408

> <Gold.Chemscore.Internal_Hbond>
0.0000

> <Gold.Chemscore.DEClash>
0.2655

> <Gold.Chemscore.DEInternal>
1.7130

> <Gold.Chemscore.Rot>
1.3201

> <Gold.Chemscore.Internal.Correction>
   9.000000E+99

> <Gold.Chemscore.Hbonds>
donor molecule, donor type, donor heavy atom, donor atom, acceptor molecule, acceptor atom, score
      L1  H     3    22       P1  8028  0.50
      P1  H  7989  7998       L1     5  0.71

> <Gold.Chemscore.Hbond.Weighted>
-4.0590

> <Gold.Chemscore.Metal.Weighted>
-0.0000

> <Gold.Chemscore.Lipo.Weighted>
-8.8851

> <Gold.Chemscore.Internal_Hbond.Weighted>
0.0000

> <Gold.Chemscore.DEClash.Weighted>
0.2655

> <Gold.Chemscore.DEInternal.Weighted>
1.7130

> <Gold.Chemscore.Rot.Weighted>
3.3794

> <Gold.Chemscore.Internal.Correction.Weighted>
   9.000000E+99

> <Gold.Protein.RotatedTorsions>
[ 6907 6896 6895 6894 ] final    9.82 input  -60.11 | X-H torsion
[ 7974 7965 7964 7962 ] final  171.12 input  175.53 | X-H torsion
[ 8008 7997 7996 7995 ] final   31.46 input   59.86 | X-H torsion
[ 10167 10162 10161 10158 ] final  113.76 input  -65.29 | X-H torsion
[ 10718 10713 10712 10709 ] final   27.78 input   66.30 | X-H torsion
[ 10763 10752 10751 10750 ] final   23.28 input  -60.55 | X-H torsion
[ 11005 11000 10999 10996 ] final  -58.05 input  -57.11 | X-H torsion

> <Gold.Protein.ActiveResidues>
 VAL166  LYS551  ARG553  GLY616  TRP617  ASP618  TYR619  PRO620  LYS621  CYS622 
 ASP623  PHE694  ASN695  SER759  ASP760  ASP761  ALA762  ILE779  LEU786  VAL792 
 PHE793  MET794  SER795  GLU796  ALA797  LYS798  CYS799  TRP800  GLU811  SER814 

> <Gold.Protein.RotatedAtoms>
  151.7283  135.0880  160.0295 H   0  0  0  0  0  0  0  0  0  0  0  0  # atno 6907 bound_to 6896
  152.3557  133.6230  159.5986 H   0  0  0  0  0  0  0  0  0  0  0  0  # atno 6908 bound_to 6896
  150.7570  133.9419  159.3500 H   0  0  0  0  0  0  0  0  0  0  0  0  # atno 6909 bound_to 6896
  144.7304  139.9303  143.6424 H   0  0  0  0  0  0  0  0  0  0  0  0  # atno 7974 bound_to 7965
  155.1067  140.3235  155.4532 H   0  0  0  0  0  0  0  0  0  0  0  0  # atno 8008 bound_to 7997
  156.2702  140.2051  156.6139 H   0  0  0  0  0  0  0  0  0  0  0  0  # atno 8009 bound_to 7997
  154.6787  140.0528  157.0230 H   0  0  0  0  0  0  0  0  0  0  0  0  # atno 8010 bound_to 7997
  139.6437  144.7125  151.2184 H   0  0  0  0  0  0  0  0  0  0  0  0  # atno 10167 bound_to 10162
  157.2248  130.6996  149.6286 H   0  0  0  0  0  0  0  0  0  0  0  0  # atno 10718 bound_to 10713
  153.0851  135.6630  153.9966 H   0  0  0  0  0  0  0  0  0  0  0  0  # atno 10763 bound_to 10752
  153.9578  135.2977  155.3436 H   0  0  0  0  0  0  0  0  0  0  0  0  # atno 10764 bound_to 10752
  154.7257  135.5145  153.8955 H   0  0  0  0  0  0  0  0  0  0  0  0  # atno 10765 bound_to 10752
  141.1191  133.6611  156.4861 H   0  0  0  0  0  0  0  0  0  0  0  0  # atno 11005 bound_to 11000
  146.0863  139.3851  143.0433 LP  0  0  0  0  0  0  0  0  0  0  0  0  # atno 17320 bound_to 7965
  145.7773  140.9871  143.1118 LP  0  0  0  0  0  0  0  0  0  0  0  0  # atno 17321 bound_to 7965
  140.7504  143.6267  150.8462 LP  0  0  0  0  0  0  0  0  0  0  0  0  # atno 17342 bound_to 10162
  139.9907  143.5850  152.2911 LP  0  0  0  0  0  0  0  0  0  0  0  0  # atno 17343 bound_to 10162
  155.9679  130.4508  150.5711 LP  0  0  0  0  0  0  0  0  0  0  0  0  # atno 17370 bound_to 10713
  157.3539  131.0738  151.1691 LP  0  0  0  0  0  0  0  0  0  0  0  0  # atno 17371 bound_to 10713
  140.4561  134.6884  157.5063 LP  0  0  0  0  0  0  0  0  0  0  0  0  # atno 17394 bound_to 11000
  140.0134  134.6656  155.9346 LP  0  0  0  0  0  0  0  0  0  0  0  0  # atno 17395 bound_to 11000

$$$$
