AV-unprocessed.smi:3170|AV-procd|sdf|12110|dock3
  -GOLD-   2272017543D 1   1.00000     0.00000
 Structure written by MMmdl.
 35 36  0  0  0  0  0  0  0  0  1 V2000
  146.0438  138.6593  153.9119 O   0  0  0  0  0  0  0  0  0  0  0  0
  146.8163  137.8668  153.3728 C   0  0  0  0  0  0  0  0  0  0  0  0
  146.4286  136.8736  152.5611 N   0  0  0  0  0  0  0  0  0  0  0  0
  145.0471  136.5878  152.1854 C   0  0  0  0  0  0  0  0  0  0  0  0
  144.9314  135.9726  150.7775 C   0  0  0  0  0  0  0  0  0  0  0  0
  145.1702  134.5416  150.7801 N   0  0  0  0  0  0  0  0  0  0  0  0
  146.3562  133.8902  151.0904 C   0  0  0  0  0  0  0  0  0  0  0  0
  146.1116  132.5424  150.9531 C   0  0  0  0  0  0  0  0  0  0  0  0
  144.7901  132.3431  150.5606 N   0  0  0  0  0  0  0  0  0  0  0  0
  144.2953  133.5715  150.4813 C   0  0  0  0  0  0  0  0  0  0  0  0
  148.1464  137.8976  153.5218 N   0  0  0  0  0  0  0  0  0  0  0  0
  148.8592  138.8733  154.3359 C   0  0  0  0  0  0  0  0  0  0  0  0
  150.3800  138.6782  154.2256 C   0  0  1  0  0  0  0  0  0  0  0  0
  151.1773  139.4737  155.2384 C   0  0  0  0  0  0  0  0  0  0  0  0
  152.5209  138.7513  155.2197 C   0  0  0  0  0  0  0  0  0  0  0  0
  152.2264  137.3890  154.9229 O   0  0  0  0  0  0  0  0  0  0  0  0
  150.8659  137.2581  154.5209 C   0  0  0  0  0  0  0  0  0  0  0  0
  147.1399  136.2765  152.1655 H   0  0  0  0  0  0  0  0  0  0  0  0
  144.6244  135.9073  152.9252 H   0  0  0  0  0  0  0  0  0  0  0  0
  144.4587  137.5048  152.2407 H   0  0  0  0  0  0  0  0  0  0  0  0
  143.9321  136.1497  150.3785 H   0  0  0  0  0  0  0  0  0  0  0  0
  145.6288  136.4461  150.0852 H   0  0  0  0  0  0  0  0  0  0  0  0
  147.2509  134.4245  151.3741 H   0  0  0  0  0  0  0  0  0  0  0  0
  146.7796  131.7074  151.1046 H   0  0  0  0  0  0  0  0  0  0  0  0
  143.2736  133.7712  150.1928 H   0  0  0  0  0  0  0  0  0  0  0  0
  148.7018  137.2072  153.0382 H   0  0  0  0  0  0  0  0  0  0  0  0
  148.5879  139.8760  154.0028 H   0  0  0  0  0  0  0  0  0  0  0  0
  148.5441  138.7862  155.3771 H   0  0  0  0  0  0  0  0  0  0  0  0
  150.7123  138.9623  153.2253 H   0  0  0  0  0  0  0  0  0  0  0  0
  151.2602  140.5310  154.9853 H   0  0  0  0  0  0  0  0  0  0  0  0
  150.7254  139.3932  156.2281 H   0  0  0  0  0  0  0  0  0  0  0  0
  153.1556  139.1487  154.4268 H   0  0  0  0  0  0  0  0  0  0  0  0
  153.0581  138.8474  156.1634 H   0  0  0  0  0  0  0  0  0  0  0  0
  150.3045  136.8209  155.3477 H   0  0  0  0  0  0  0  0  0  0  0  0
  150.7686  136.5958  153.6604 H   0  0  0  0  0  0  0  0  0  0  0  0
  1  2  2  0  0  0  0
  2  3  1  0  0  0  0
  2 11  1  0  0  0  0
  3  4  1  0  0  0  0
  3 18  1  0  0  0  0
  4  5  1  0  0  0  0
  4 19  1  0  0  0  0
  4 20  1  0  0  0  0
  5  6  1  0  0  0  0
  5 21  1  0  0  0  0
  5 22  1  0  0  0  0
  6 10  1  0  0  0  0
  6  7  1  0  0  0  0
  7  8  2  0  0  0  0
  7 23  1  0  0  0  0
  8  9  1  0  0  0  0
  8 24  1  0  0  0  0
  9 10  2  0  0  0  0
 10 25  1  0  0  0  0
 11 12  1  0  0  0  0
 11 26  1  0  0  0  0
 12 13  1  0  0  0  0
 12 27  1  0  0  0  0
 12 28  1  0  0  0  0
 13 17  1  0  0  0  0
 13 14  1  0  0  0  0
 13 29  1  0  0  0  0
 14 15  1  0  0  0  0
 14 30  1  0  0  0  0
 14 31  1  0  0  0  0
 15 16  1  0  0  0  0
 15 32  1  0  0  0  0
 15 33  1  0  0  0  0
 16 17  1  0  0  0  0
 17 34  1  0  0  0  0
 17 35  1  0  0  0  0
M  END
> <s_m_source_file>
AV-unprocessed.smi

> <i_m_source_file_index>
3170

> <i_lp_mmshare_version>
43012

> <i_f3d_flags>
0

> <s_epik_input>
W0NIMl0xT1tDSDJdW0NIMl1bQ0BIXTFbQ0gyXVtOSF1DKD1PKVtOSF1bQ0gyXVtDSDJdbjJbY0hdW2NIXW5bY0hdMg==

> <s_epik_cmdline>
J2VwaWtfcHl0aG9uJywgJy1waCcsICc3LjAnLCAnLXRuJywgJzgnLCAnLW1hJywgJzIwMCcsICctbWV0YWxfYmluZGluZycsICctaW1hZScsICc8aW5maWxlLm1hZT4nLCAnLW9tYWUnLCAnPG91dGZpbGUubWFlPic=

> <r_lp_tautomer_probability>
1

> <r_epik_Ionization_Penalty>
0.621287

> <r_epik_Ionization_Penalty_Charging>
0.621234

> <r_epik_Ionization_Penalty_Neutral>
5.30999e-05

> <r_epik_State_Penalty>
0.637278

> <r_epik_Charging_Adjusted_Penalty>
1.25851

> <i_epik_Tot_Q>
0

> <i_epik_Tot_abs_Q>
0

> <r_epik_Metal_State_Penalty>
0.306756

> <b_epik_Metal_Only>
0

> <s_lp_Force_Field>
OPLS_2005

> <r_lp_Energy>
18.1747

> <b_lp_Chiralities_Consistent>
1

> <s_lp_Variant>
AV-unprocessed.smi:3170-4

> <Gold.Version>
5.8.1

> <Gold.Id.Protein>
6NUR|6NUR_protein|mol2

> <Gold.PLP.Fitness>
47.4064

> <Gold.PLP.PLP>
-31.4092

> <Gold.PLP.part.hbond>
-2.8481

> <Gold.PLP.part.metal>
0.0000

> <Gold.PLP.part.buried>
-2.7943

> <Gold.PLP.part.nonpolar>
-26.9986

> <Gold.PLP.part.repulsive>
0.4280

> <Gold.PLP.ligand.clash>
0.0000

> <Gold.PLP.ligand.torsion>
0.3779

> <Gold.PLP.Chemscore.Hbond>
2.5680

> <Gold.PLP.Chemscore.CHOScore>
3.0000

> <Gold.PLP.Chemscore.Metal>
0.0000

> <Gold.Chemscore.Hbonds>
donor molecule, donor type, donor heavy atom, donor atom, acceptor molecule, acceptor atom, score
      L1  H     3    18       P1  7948  0.83
      L1  H    11    26       P1  7948  1.00
      P1  H 10752 10764       L1    16  0.74
      L1  C     7    23       P1  7948  1.00
      L1  C     8    24       P1 10747  1.00
      L1  C    10    25       P1 10186  1.00

> <Gold.PLP.Chemscore.Internal.Correction>
0.0490

> <Gold.Rescore>
     Score         DG    S(hbond)    S(metal)    S(lipo)     H(rot)  DE(clash)    DE(int)     intcor
     12.09     -12.76       1.75        0.00      61.37       2.25       0.33       0.34       ----

> <Gold.Chemscore.Fitness>
12.0868

> <Gold.Chemscore.DG>
-12.7580

> <Gold.Chemscore.ZeroCoef>
-5.4800

> <Gold.Chemscore.Hbond>
1.7517

> <Gold.Chemscore.Metal>
0.0000

> <Gold.Chemscore.Lipo>
61.3713

> <Gold.Chemscore.Internal_Hbond>
0.0000

> <Gold.Chemscore.DEClash>
0.3329

> <Gold.Chemscore.DEInternal>
0.3382

> <Gold.Chemscore.Rot>
2.2474

> <Gold.Chemscore.Internal.Correction>
   9.000000E+99

> <Gold.Chemscore.Hbonds>
donor molecule, donor type, donor heavy atom, donor atom, acceptor molecule, acceptor atom, score
      L1  H     3    18       P1  7948  0.83
      L1  H    11    26       P1  7948  0.91
      P1  H 10752 10764       L1    16  0.29

> <Gold.Chemscore.Hbond.Weighted>
-5.8508

> <Gold.Chemscore.Metal.Weighted>
-0.0000

> <Gold.Chemscore.Lipo.Weighted>
-7.1804

> <Gold.Chemscore.Internal_Hbond.Weighted>
0.0000

> <Gold.Chemscore.DEClash.Weighted>
0.3329

> <Gold.Chemscore.DEInternal.Weighted>
0.3382

> <Gold.Chemscore.Rot.Weighted>
5.7532

> <Gold.Chemscore.Internal.Correction.Weighted>
   9.000000E+99

> <Gold.Protein.RotatedTorsions>
[ 6907 6896 6895 6894 ] final  -62.58 input  -60.11 | X-H torsion
[ 7974 7965 7964 7962 ] final    3.79 input  175.53 | X-H torsion
[ 8008 7997 7996 7995 ] final -164.61 input   59.86 | X-H torsion
[ 10167 10162 10161 10158 ] final   27.62 input  -65.29 | X-H torsion
[ 10718 10713 10712 10709 ] final  -90.87 input   66.30 | X-H torsion
[ 10763 10752 10751 10750 ] final  -59.78 input  -60.55 | X-H torsion
[ 11005 11000 10999 10996 ] final  172.73 input  -57.11 | X-H torsion

> <Gold.Protein.ActiveResidues>
 VAL166  LYS551  ARG553  GLY616  TRP617  ASP618  TYR619  PRO620  LYS621  CYS622 
 ASP623  PHE694  ASN695  SER759  ASP760  ASP761  ALA762  ILE779  LEU786  VAL792 
 PHE793  MET794  SER795  GLU796  ALA797  LYS798  CYS799  TRP800  GLU811  SER814 

> <Gold.Protein.RotatedAtoms>
  150.7706  134.6551  159.6308 H   0  0  0  0  0  0  0  0  0  0  0  0  # atno 6907 bound_to 6896
  152.3757  134.6664  160.0170 H   0  0  0  0  0  0  0  0  0  0  0  0  # atno 6908 bound_to 6896
  151.7010  133.3275  159.3303 H   0  0  0  0  0  0  0  0  0  0  0  0  # atno 6909 bound_to 6896
  146.2445  140.0633  142.8367 H   0  0  0  0  0  0  0  0  0  0  0  0  # atno 7974 bound_to 7965
  155.8380  140.0944  157.1752 H   0  0  0  0  0  0  0  0  0  0  0  0  # atno 8008 bound_to 7997
  154.3981  140.1406  156.3755 H   0  0  0  0  0  0  0  0  0  0  0  0  # atno 8009 bound_to 7997
  155.8095  140.3450  155.5452 H   0  0  0  0  0  0  0  0  0  0  0  0  # atno 8010 bound_to 7997
  140.4923  144.0447  150.6301 H   0  0  0  0  0  0  0  0  0  0  0  0  # atno 10167 bound_to 10162
  155.9990  130.4926  150.5388 H   0  0  0  0  0  0  0  0  0  0  0  0  # atno 10718 bound_to 10713
  154.2591  135.6311  153.5268 H   0  0  0  0  0  0  0  0  0  0  0  0  # atno 10763 bound_to 10752
  152.9899  135.5583  154.5724 H   0  0  0  0  0  0  0  0  0  0  0  0  # atno 10764 bound_to 10752
  154.5269  135.2886  155.1189 H   0  0  0  0  0  0  0  0  0  0  0  0  # atno 10765 bound_to 10752
  140.3328  134.7342  157.4147 H   0  0  0  0  0  0  0  0  0  0  0  0  # atno 11005 bound_to 11000
  145.0881  140.9266  143.4785 LP  0  0  0  0  0  0  0  0  0  0  0  0  # atno 17320 bound_to 7965
  145.0800  139.2967  143.5788 LP  0  0  0  0  0  0  0  0  0  0  0  0  # atno 17321 bound_to 7965
  140.3720  143.2849  152.0268 LP  0  0  0  0  0  0  0  0  0  0  0  0  # atno 17342 bound_to 10162
  139.4854  144.6222  151.7232 LP  0  0  0  0  0  0  0  0  0  0  0  0  # atno 17343 bound_to 10162
  157.3328  131.0702  151.1848 LP  0  0  0  0  0  0  0  0  0  0  0  0  # atno 17370 bound_to 10713
  157.2723  130.6710  149.6025 LP  0  0  0  0  0  0  0  0  0  0  0  0  # atno 17371 bound_to 10713
  140.0846  134.5684  155.8505 LP  0  0  0  0  0  0  0  0  0  0  0  0  # atno 17394 bound_to 11000
  141.2059  133.6650  156.6208 LP  0  0  0  0  0  0  0  0  0  0  0  0  # atno 17395 bound_to 11000

$$$$
