AV-unprocessed.smi:798|AV-procd|sdf|3780|dock2
  -GOLD-   22720 1213D 1   1.00000     0.00000
 Structure written by MMmdl.
 33 35  0  0  0  0  0  0  0  0  2 V2000
  153.8036  141.0602  160.9890 O   0  0  0  0  0  0  0  0  0  0  0  0
  153.6198  140.8408  159.7896 C   0  0  0  0  0  0  0  0  0  0  0  0
  154.2699  139.9277  159.0333 N   0  5  0  0  0  0  0  0  0  0  0  0
  154.4923  138.6932  159.5136 C   0  0  0  0  0  0  0  0  0  0  0  0
  155.3209  137.8262  158.9096 N   0  0  0  0  0  0  0  0  0  0  0  0
  155.4042  136.6045  159.5640 N   0  0  0  0  0  0  0  0  0  0  0  0
  154.6259  136.5788  160.6459 C   0  0  0  0  0  0  0  0  0  0  0  0
  153.7193  138.0431  160.9624 S   0  0  0  0  0  0  0  0  0  0  0  0
  152.6912  141.5341  159.1157 N   0  0  0  0  0  0  0  0  0  0  0  0
  151.8274  142.5840  159.6612 C   0  0  1  0  0  0  0  0  0  0  0  0
  152.5244  143.9670  159.6842 C   0  0  1  0  0  0  0  0  0  0  0  0
  153.1416  144.3100  158.3115 C   0  0  0  0  0  0  0  0  0  0  0  0
  151.8990  144.5582  157.4380 C   0  0  0  0  0  0  0  0  0  0  0  0
  150.7336  144.3572  158.4296 C   0  0  2  0  0  0  0  0  0  0  0  0
  151.3350  144.9219  159.7111 C   0  0  0  0  0  0  0  0  0  0  0  0
  150.5493  142.8698  158.8192 C   0  0  1  0  0  0  0  0  0  0  0  0
  150.2289  141.9019  157.6576 C   0  0  0  0  0  0  0  0  0  0  0  0
  149.0805  142.3343  156.9585 O   0  0  0  0  0  0  0  0  0  0  0  0
  154.5827  135.6913  161.2593 H   0  0  0  0  0  0  0  0  0  0  0  0
  152.5747  141.3161  158.1372 H   0  0  0  0  0  0  0  0  0  0  0  0
  151.5364  142.3276  160.6819 H   0  0  0  0  0  0  0  0  0  0  0  0
  153.2228  144.0859  160.5131 H   0  0  0  0  0  0  0  0  0  0  0  0
  153.7403  145.2191  158.3811 H   0  0  0  0  0  0  0  0  0  0  0  0
  153.7886  143.5297  157.9111 H   0  0  0  0  0  0  0  0  0  0  0  0
  151.9046  145.5809  157.0586 H   0  0  0  0  0  0  0  0  0  0  0  0
  151.8520  143.8951  156.5754 H   0  0  0  0  0  0  0  0  0  0  0  0
  149.8082  144.8407  158.1152 H   0  0  0  0  0  0  0  0  0  0  0  0
  150.6957  144.7931  160.5864 H   0  0  0  0  0  0  0  0  0  0  0  0
  151.6196  145.9727  159.6309 H   0  0  0  0  0  0  0  0  0  0  0  0
  149.7007  142.8186  159.5041 H   0  0  0  0  0  0  0  0  0  0  0  0
  151.0600  141.8041  156.9600 H   0  0  0  0  0  0  0  0  0  0  0  0
  150.0268  140.9038  158.0473 H   0  0  0  0  0  0  0  0  0  0  0  0
  149.2892  143.1408  156.5124 H   0  0  0  0  0  0  0  0  0  0  0  0
  1  2  2  0  0  0  0
  2  3  1  0  0  0  0
  2  9  1  0  0  0  0
  3  4  1  0  0  0  0
  4  8  1  0  0  0  0
  4  5  2  0  0  0  0
  5  6  1  0  0  0  0
  6  7  2  0  0  0  0
  7  8  1  0  0  0  0
  7 19  1  0  0  0  0
  9 10  1  0  0  0  0
  9 20  1  0  0  0  0
 10 16  1  0  0  0  0
 10 11  1  0  0  0  0
 10 21  1  0  0  0  0
 11 15  1  0  0  0  0
 11 12  1  0  0  0  0
 11 22  1  0  0  0  0
 12 13  1  0  0  0  0
 12 23  1  0  0  0  0
 12 24  1  0  0  0  0
 13 14  1  0  0  0  0
 13 25  1  0  0  0  0
 13 26  1  0  0  0  0
 14 15  1  0  0  0  0
 14 16  1  0  0  0  0
 14 27  1  0  0  0  0
 15 28  1  0  0  0  0
 15 29  1  0  0  0  0
 16 17  1  0  0  0  0
 16 30  1  0  0  0  0
 17 18  1  0  0  0  0
 17 31  1  0  0  0  0
 17 32  1  0  0  0  0
 18 33  1  0  0  0  0
M  CHG  1   3  -1
M  END
> <s_m_source_file>
AV-unprocessed.smi

> <i_m_source_file_index>
798

> <i_lp_mmshare_version>
43012

> <i_f3d_flags>
0

> <s_epik_input>
W0NIMl0xW0NIMl1bQ0BASF0oW0NIMl0yKVtDQEBIXShbQ0gyXVtPSF0pW0NAQEhdKFtDQEhdMTIpW05IXUMoPU8pW05IXWMzbm5bY0hdczM=

> <s_epik_cmdline>
J2VwaWtfcHl0aG9uJywgJy1waCcsICc3LjAnLCAnLXRuJywgJzgnLCAnLW1hJywgJzIwMCcsICctbWV0YWxfYmluZGluZycsICctaW1hZScsICc8aW5maWxlLm1hZT4nLCAnLW9tYWUnLCAnPG91dGZpbGUubWFlPic=

> <r_lp_tautomer_probability>
1

> <r_epik_Ionization_Penalty>
4.53732

> <r_epik_Ionization_Penalty_Charging>
4.48632

> <r_epik_Ionization_Penalty_Neutral>
0.0510007

> <r_epik_State_Penalty>
4.48602

> <r_epik_Charging_Adjusted_Penalty>
8.97234

> <i_epik_Tot_Q>
-1

> <i_epik_Tot_abs_Q>
1

> <r_epik_Metal_State_Penalty>
0.812492

> <b_epik_Metal_Only>
1

> <s_lp_Force_Field>
OPLS_2005

> <r_lp_Energy>
48.4262

> <b_lp_Chiralities_Consistent>
1

> <s_lp_Variant>
AV-unprocessed.smi:798-12

> <Gold.Version>
5.8.1

> <Gold.Id.Protein>
6NUR|6NUR_protein|mol2

> <Gold.PLP.Fitness>
40.2315

> <Gold.PLP.PLP>
-32.5813

> <Gold.PLP.part.hbond>
-2.0000

> <Gold.PLP.part.metal>
0.0000

> <Gold.PLP.part.buried>
-5.1171

> <Gold.PLP.part.nonpolar>
-25.8543

> <Gold.PLP.part.repulsive>
0.0943

> <Gold.PLP.ligand.clash>
0.0000

> <Gold.PLP.ligand.torsion>
0.7049

> <Gold.PLP.Chemscore.Hbond>
3.0000

> <Gold.PLP.Chemscore.CHOScore>
0.0000

> <Gold.PLP.Chemscore.Metal>
0.0000

> <Gold.Chemscore.Hbonds>
donor molecule, donor type, donor heavy atom, donor atom, acceptor molecule, acceptor atom, score
      L1  H    18    33       P1  8028  1.00
      P1  H  7997  8009       L1     3  2.00

> <Gold.PLP.Chemscore.Internal.Correction>
0.0600

> <Gold.Rescore>
     Score         DG    S(hbond)    S(metal)    S(lipo)     H(rot)  DE(clash)    DE(int)     intcor
     17.22     -18.04       1.86        0.00      96.35       1.92       0.06       0.76       ----

> <Gold.Chemscore.Fitness>
17.2244

> <Gold.Chemscore.DG>
-18.0444

> <Gold.Chemscore.ZeroCoef>
-5.4800

> <Gold.Chemscore.Hbond>
1.8588

> <Gold.Chemscore.Metal>
0.0000

> <Gold.Chemscore.Lipo>
96.3506

> <Gold.Chemscore.Internal_Hbond>
0.0000

> <Gold.Chemscore.DEClash>
0.0611

> <Gold.Chemscore.DEInternal>
0.7590

> <Gold.Chemscore.Rot>
1.9207

> <Gold.Chemscore.Internal.Correction>
   9.000000E+99

> <Gold.Chemscore.Hbonds>
donor molecule, donor type, donor heavy atom, donor atom, acceptor molecule, acceptor atom, score
      L1  H    18    33       P1  8028  0.97
      P1  H  7997  8009       L1     3  0.63

> <Gold.Chemscore.Hbond.Weighted>
-6.2083

> <Gold.Chemscore.Metal.Weighted>
-0.0000

> <Gold.Chemscore.Lipo.Weighted>
-11.2730

> <Gold.Chemscore.Internal_Hbond.Weighted>
0.0000

> <Gold.Chemscore.DEClash.Weighted>
0.0611

> <Gold.Chemscore.DEInternal.Weighted>
0.7590

> <Gold.Chemscore.Rot.Weighted>
4.9169

> <Gold.Chemscore.Internal.Correction.Weighted>
   9.000000E+99

> <Gold.Protein.RotatedTorsions>
[ 6907 6896 6895 6894 ] final  164.30 input  -60.11 | X-H torsion
[ 7974 7965 7964 7962 ] final -148.38 input  175.53 | X-H torsion
[ 8008 7997 7996 7995 ] final  121.69 input   59.86 | X-H torsion
[ 10167 10162 10161 10158 ] final  138.37 input  -65.29 | X-H torsion
[ 10718 10713 10712 10709 ] final  -74.86 input   66.30 | X-H torsion
[ 10763 10752 10751 10750 ] final  151.45 input  -60.55 | X-H torsion
[ 11005 11000 10999 10996 ] final  115.80 input  -57.11 | X-H torsion

> <Gold.Protein.ActiveResidues>
 VAL166  LYS551  ARG553  GLY616  TRP617  ASP618  TYR619  PRO620  LYS621  CYS622 
 ASP623  PHE694  ASN695  SER759  ASP760  ASP761  ALA762  ILE779  LEU786  VAL792 
 PHE793  MET794  SER795  GLU796  ALA797  LYS798  CYS799  TRP800  GLU811  SER814 

> <Gold.Protein.RotatedAtoms>
  151.9120  133.3563  159.3866 H   0  0  0  0  0  0  0  0  0  0  0  0  # atno 6907 bound_to 6896
  150.7056  134.4723  159.5440 H   0  0  0  0  0  0  0  0  0  0  0  0  # atno 6908 bound_to 6896
  152.2330  134.8303  160.0522 H   0  0  0  0  0  0  0  0  0  0  0  0  # atno 6909 bound_to 6896
  144.8033  140.5203  143.5692 H   0  0  0  0  0  0  0  0  0  0  0  0  # atno 7974 bound_to 7965
  156.2697  140.2802  156.1349 H   0  0  0  0  0  0  0  0  0  0  0  0  # atno 8008 bound_to 7997
  155.1015  140.0389  157.2716 H   0  0  0  0  0  0  0  0  0  0  0  0  # atno 8009 bound_to 7997
  154.6811  140.2609  155.6913 H   0  0  0  0  0  0  0  0  0  0  0  0  # atno 8010 bound_to 7997
  139.5113  144.6357  151.5702 H   0  0  0  0  0  0  0  0  0  0  0  0  # atno 10167 bound_to 10162
  156.0227  130.4427  150.2956 H   0  0  0  0  0  0  0  0  0  0  0  0  # atno 10718 bound_to 10713
  154.1040  135.2843  155.3245 H   0  0  0  0  0  0  0  0  0  0  0  0  # atno 10763 bound_to 10752
  154.6536  135.5360  153.7935 H   0  0  0  0  0  0  0  0  0  0  0  0  # atno 10764 bound_to 10752
  153.0369  135.6516  154.1202 H   0  0  0  0  0  0  0  0  0  0  0  0  # atno 10765 bound_to 10752
  139.9021  134.9589  156.7100 H   0  0  0  0  0  0  0  0  0  0  0  0  # atno 11005 bound_to 11000
  145.5500  139.1476  143.3399 LP  0  0  0  0  0  0  0  0  0  0  0  0  # atno 17320 bound_to 7965
  146.2319  140.5639  142.8972 LP  0  0  0  0  0  0  0  0  0  0  0  0  # atno 17321 bound_to 7965
  140.6106  143.9444  150.6450 LP  0  0  0  0  0  0  0  0  0  0  0  0  # atno 17342 bound_to 10162
  140.2685  143.3473  152.1259 LP  0  0  0  0  0  0  0  0  0  0  0  0  # atno 17343 bound_to 10162
  157.1060  131.0208  151.3067 LP  0  0  0  0  0  0  0  0  0  0  0  0  # atno 17370 bound_to 10713
  157.4742  130.7727  149.7352 LP  0  0  0  0  0  0  0  0  0  0  0  0  # atno 17371 bound_to 10713
  140.7083  133.9246  155.8068 LP  0  0  0  0  0  0  0  0  0  0  0  0  # atno 17394 bound_to 11000
  141.0320  134.0743  157.4003 LP  0  0  0  0  0  0  0  0  0  0  0  0  # atno 17395 bound_to 11000

$$$$
