AV-unprocessed.smi:2931|AV-procd|sdf|11244|dock1
  -GOLD-   2272016133D 1   1.00000     0.00000
 Structure written by MMmdl.
 42 43  0  0  0  0  0  0  0  0  2 V2000
  146.9613  141.6802  155.2065 C   0  0  0  0  0  0  0  0  0  0  0  0
  148.0900  140.8084  155.5953 N   0  3  1  0  0  0  0  0  0  0  0  0
  147.7605  139.3661  155.4716 C   0  0  0  0  0  0  0  0  0  0  0  0
  148.9086  138.4849  155.9953 C   0  0  0  0  0  0  0  0  0  0  0  0
  150.2433  138.8351  155.3134 C   0  0  0  0  0  0  0  0  0  0  0  0
  150.5411  140.3411  155.4264 C   0  0  2  0  0  0  0  0  0  0  0  0
  150.8288  140.6831  156.8191 N   0  0  0  0  0  0  0  0  0  0  0  0
  151.8982  140.2737  157.5143 C   0  0  0  0  0  0  0  0  0  0  0  0
  152.7550  139.5070  157.0757 O   0  0  0  0  0  0  0  0  0  0  0  0
  151.9442  140.8413  158.7267 N   0  0  0  0  0  0  0  0  0  0  0  0
  153.0504  140.7172  159.6711 C   0  0  0  0  0  0  0  0  0  0  0  0
  153.1571  141.9150  160.6394 C   0  0  0  0  0  0  0  0  0  0  0  0
  152.5487  143.1986  160.0977 C   0  0  0  0  0  0  0  0  0  0  0  0
  152.9037  143.6827  158.8207 C   0  0  0  0  0  0  0  0  0  0  0  0
  152.3016  144.8711  158.3616 C   0  0  0  0  0  0  0  0  0  0  0  0
  151.3937  145.5673  159.0776 N   0  0  0  0  0  0  0  0  0  0  0  0
  151.0605  145.0998  160.3002 C   0  0  0  0  0  0  0  0  0  0  0  0
  151.6065  143.9247  160.8547 C   0  0  0  0  0  0  0  0  0  0  0  0
  149.3431  141.1485  154.8757 C   0  0  0  0  0  0  0  0  0  0  0  0
  146.7014  141.5399  154.1566 H   0  0  0  0  0  0  0  0  0  0  0  0
  147.2143  142.7297  155.3597 H   0  0  0  0  0  0  0  0  0  0  0  0
  146.0806  141.4599  155.8106 H   0  0  0  0  0  0  0  0  0  0  0  0
  146.8507  139.1498  156.0328 H   0  0  0  0  0  0  0  0  0  0  0  0
  147.5528  139.1280  154.4271 H   0  0  0  0  0  0  0  0  0  0  0  0
  149.0003  138.6104  157.0749 H   0  0  0  0  0  0  0  0  0  0  0  0
  148.6735  137.4329  155.8311 H   0  0  0  0  0  0  0  0  0  0  0  0
  151.0548  138.2498  155.7478 H   0  0  0  0  0  0  0  0  0  0  0  0
  150.1940  138.5547  154.2603 H   0  0  0  0  0  0  0  0  0  0  0  0
  151.4282  140.5653  154.8314 H   0  0  0  0  0  0  0  0  0  0  0  0
  150.1788  141.3056  157.2766 H   0  0  0  0  0  0  0  0  0  0  0  0
  151.1876  141.4532  158.9957 H   0  0  0  0  0  0  0  0  0  0  0  0
  152.8756  139.8070  160.2456 H   0  0  0  0  0  0  0  0  0  0  0  0
  153.9908  140.5696  159.1384 H   0  0  0  0  0  0  0  0  0  0  0  0
  152.6736  141.6674  161.5850 H   0  0  0  0  0  0  0  0  0  0  0  0
  154.2055  142.0959  160.8800 H   0  0  0  0  0  0  0  0  0  0  0  0
  153.6194  143.1575  158.2050 H   0  0  0  0  0  0  0  0  0  0  0  0
  152.5519  145.2705  157.3901 H   0  0  0  0  0  0  0  0  0  0  0  0
  150.3347  145.6783  160.8524 H   0  0  0  0  0  0  0  0  0  0  0  0
  151.3049  143.5892  161.8363 H   0  0  0  0  0  0  0  0  0  0  0  0
  149.2149  140.9460  153.8111 H   0  0  0  0  0  0  0  0  0  0  0  0
  149.5355  142.2187  154.9622 H   0  0  0  0  0  0  0  0  0  0  0  0
  148.2649  140.9853  156.5743 H   0  0  0  0  0  0  0  0  0  0  0  0
  1  2  1  0  0  0  0
  1 20  1  0  0  0  0
  1 21  1  0  0  0  0
  1 22  1  0  0  0  0
  2 19  1  0  0  0  0
  2  3  1  0  0  0  0
  2 42  1  0  0  0  0
  3  4  1  0  0  0  0
  3 23  1  0  0  0  0
  3 24  1  0  0  0  0
  4  5  1  0  0  0  0
  4 25  1  0  0  0  0
  4 26  1  0  0  0  0
  5  6  1  0  0  0  0
  5 27  1  0  0  0  0
  5 28  1  0  0  0  0
  6  7  1  0  0  0  0
  6 19  1  0  0  0  0
  6 29  1  0  0  0  0
  7  8  1  0  0  0  0
  7 30  1  0  0  0  0
  8  9  2  0  0  0  0
  8 10  1  0  0  0  0
 10 11  1  0  0  0  0
 10 31  1  0  0  0  0
 11 12  1  0  0  0  0
 11 32  1  0  0  0  0
 11 33  1  0  0  0  0
 12 13  1  0  0  0  0
 12 34  1  0  0  0  0
 12 35  1  0  0  0  0
 13 18  1  0  0  0  0
 13 14  2  0  0  0  0
 14 15  1  0  0  0  0
 14 36  1  0  0  0  0
 15 16  2  0  0  0  0
 15 37  1  0  0  0  0
 16 17  1  0  0  0  0
 17 18  2  0  0  0  0
 17 38  1  0  0  0  0
 18 39  1  0  0  0  0
 19 40  1  0  0  0  0
 19 41  1  0  0  0  0
M  CHG  1   2   1
M  END
> <s_m_source_file>
AV-unprocessed.smi

> <i_m_source_file_index>
2931

> <i_lp_mmshare_version>
43012

> <i_f3d_flags>
0

> <s_epik_input>
W0NIM11OMVtDSDJdW0NIMl1bQ0gyXVtDQEhdKFtDSDJdMSlbTkhdQyg9TylbTkhdW0NIMl1bQ0gyXWMyW2NIXVtjSF1uW2NIXVtjSF0y

> <s_epik_cmdline>
J2VwaWtfcHl0aG9uJywgJy1waCcsICc3LjAnLCAnLXRuJywgJzgnLCAnLW1hJywgJzIwMCcsICctbWV0YWxfYmluZGluZycsICctaW1hZScsICc8aW5maWxlLm1hZT4nLCAnLW9tYWUnLCAnPG91dGZpbGUubWFlPic=

> <r_epik_Ionization_Penalty>
0.0573876

> <r_epik_Ionization_Penalty_Charging>
0.00229982

> <r_epik_Ionization_Penalty_Neutral>
0.0550878

> <r_epik_State_Penalty>
0.0473925

> <r_epik_Charging_Adjusted_Penalty>
0.0496923

> <i_epik_Tot_Q>
1

> <i_epik_Tot_abs_Q>
1

> <r_epik_Metal_State_Penalty>
0.0433388

> <b_epik_Metal_Only>
0

> <s_lp_Force_Field>
OPLS_2005

> <r_lp_Energy>
20.0995

> <b_lp_Chiralities_Consistent>
1

> <s_lp_Variant>
AV-unprocessed.smi:2931-3

> <Gold.Version>
5.8.1

> <Gold.Id.Protein>
6NUR|6NUR_protein|mol2

> <Gold.PLP.Fitness>
42.8357

> <Gold.PLP.PLP>
-40.9026

> <Gold.PLP.part.hbond>
-2.0000

> <Gold.PLP.part.metal>
0.0000

> <Gold.PLP.part.buried>
-3.3689

> <Gold.PLP.part.nonpolar>
-35.5370

> <Gold.PLP.part.repulsive>
0.3712

> <Gold.PLP.ligand.clash>
0.0000

> <Gold.PLP.ligand.torsion>
0.5434

> <Gold.PLP.Chemscore.Hbond>
1.0000

> <Gold.PLP.Chemscore.CHOScore>
0.0000

> <Gold.PLP.Chemscore.Metal>
0.0000

> <Gold.Chemscore.Hbonds>
donor molecule, donor type, donor heavy atom, donor atom, acceptor molecule, acceptor atom, score
      P1  H  7997  8008       L1     9  1.00

> <Gold.PLP.Chemscore.Internal.Correction>
0.0199

> <Gold.Rescore>
     Score         DG    S(hbond)    S(metal)    S(lipo)     H(rot)  DE(clash)    DE(int)     intcor
     16.94     -17.44       0.98        0.00     108.24       1.56       0.02       0.48       ----

> <Gold.Chemscore.Fitness>
16.9365

> <Gold.Chemscore.DG>
-17.4392

> <Gold.Chemscore.ZeroCoef>
-5.4800

> <Gold.Chemscore.Hbond>
0.9840

> <Gold.Chemscore.Metal>
0.0000

> <Gold.Chemscore.Lipo>
108.2393

> <Gold.Chemscore.Internal_Hbond>
0.0000

> <Gold.Chemscore.DEClash>
0.0243

> <Gold.Chemscore.DEInternal>
0.4783

> <Gold.Chemscore.Rot>
1.5592

> <Gold.Chemscore.Internal.Correction>
   9.000000E+99

> <Gold.Chemscore.Hbonds>
donor molecule, donor type, donor heavy atom, donor atom, acceptor molecule, acceptor atom, score
      P1  H  7997  8008       L1     9  0.99

> <Gold.Chemscore.Hbond.Weighted>
-3.2867

> <Gold.Chemscore.Metal.Weighted>
-0.0000

> <Gold.Chemscore.Lipo.Weighted>
-12.6640

> <Gold.Chemscore.Internal_Hbond.Weighted>
0.0000

> <Gold.Chemscore.DEClash.Weighted>
0.0243

> <Gold.Chemscore.DEInternal.Weighted>
0.4783

> <Gold.Chemscore.Rot.Weighted>
3.9915

> <Gold.Chemscore.Internal.Correction.Weighted>
   9.000000E+99

> <Gold.Protein.RotatedTorsions>
[ 6907 6896 6895 6894 ] final  -48.48 input  -60.11 | X-H torsion
[ 7974 7965 7964 7962 ] final  -13.95 input  175.53 | X-H torsion
[ 8008 7997 7996 7995 ] final  -48.83 input   59.86 | X-H torsion
[ 10167 10162 10161 10158 ] final  122.61 input  -65.29 | X-H torsion
[ 10718 10713 10712 10709 ] final  -37.19 input   66.30 | X-H torsion
[ 10763 10752 10751 10750 ] final  140.74 input  -60.55 | X-H torsion
[ 11005 11000 10999 10996 ] final   -7.62 input  -57.11 | X-H torsion

> <Gold.Protein.ActiveResidues>
 VAL166  LYS551  ARG553  GLY616  TRP617  ASP618  TYR619  PRO620  LYS621  CYS622 
 ASP623  PHE694  ASN695  SER759  ASP760  ASP761  ALA762  ILE779  LEU786  VAL792 
 PHE793  MET794  SER795  GLU796  ALA797  LYS798  CYS799  TRP800  GLU811  SER814 

> <Gold.Protein.RotatedAtoms>
  150.8902  134.8304  159.7287 H   0  0  0  0  0  0  0  0  0  0  0  0  # atno 6907 bound_to 6896
  152.4832  134.4660  159.9630 H   0  0  0  0  0  0  0  0  0  0  0  0  # atno 6908 bound_to 6896
  151.4724  133.3527  159.2861 H   0  0  0  0  0  0  0  0  0  0  0  0  # atno 6909 bound_to 6896
  146.2094  140.3278  142.8396 H   0  0  0  0  0  0  0  0  0  0  0  0  # atno 7974 bound_to 7965
  154.4034  140.1312  156.4404 H   0  0  0  0  0  0  0  0  0  0  0  0  # atno 8008 bound_to 7997
  155.7465  140.3489  155.5109 H   0  0  0  0  0  0  0  0  0  0  0  0  # atno 8009 bound_to 7997
  155.8990  140.1016  157.1354 H   0  0  0  0  0  0  0  0  0  0  0  0  # atno 8010 bound_to 7997
  139.5849  144.7002  151.3435 H   0  0  0  0  0  0  0  0  0  0  0  0  # atno 10167 bound_to 10162
  156.3181  130.4262  149.7986 H   0  0  0  0  0  0  0  0  0  0  0  0  # atno 10718 bound_to 10713
  153.9277  135.2993  155.3446 H   0  0  0  0  0  0  0  0  0  0  0  0  # atno 10763 bound_to 10752
  154.7543  135.4965  153.9349 H   0  0  0  0  0  0  0  0  0  0  0  0  # atno 10764 bound_to 10752
  153.1108  135.6758  153.9608 H   0  0  0  0  0  0  0  0  0  0  0  0  # atno 10765 bound_to 10752
  140.7148  133.8878  155.8777 H   0  0  0  0  0  0  0  0  0  0  0  0  # atno 11005 bound_to 11000
  144.8874  140.7479  143.5948 LP  0  0  0  0  0  0  0  0  0  0  0  0  # atno 17320 bound_to 7965
  145.3200  139.1791  143.4593 LP  0  0  0  0  0  0  0  0  0  0  0  0  # atno 17321 bound_to 7965
  140.7122  143.7361  150.7588 LP  0  0  0  0  0  0  0  0  0  0  0  0  # atno 17342 bound_to 10162
  140.0903  143.4884  152.2482 LP  0  0  0  0  0  0  0  0  0  0  0  0  # atno 17343 bound_to 10162
  156.5304  130.8255  151.3235 LP  0  0  0  0  0  0  0  0  0  0  0  0  # atno 17370 bound_to 10713
  157.7406  130.9853  150.2388 LP  0  0  0  0  0  0  0  0  0  0  0  0  # atno 17371 bound_to 10713
  141.0054  134.1093  157.4275 LP  0  0  0  0  0  0  0  0  0  0  0  0  # atno 17394 bound_to 11000
  139.8863  135.0080  156.6487 LP  0  0  0  0  0  0  0  0  0  0  0  0  # atno 17395 bound_to 11000

$$$$
