AV-unprocessed.smi:203|AV-procd|sdf|1596|dock5
  -GOLD-   2262019503D 1   1.00000     0.00000
 Structure written by MMmdl.
 57 61  0  0  0  0  0  0  0  0  1 V2000
  153.4793  136.4179  160.2432 O   0  0  0  0  0  0  0  0  0  0  0  0
  153.8448  137.5613  159.9812 C   0  0  0  0  0  0  0  0  0  0  0  0
  153.2873  138.3760  158.8264 C   0  0  0  0  0  0  0  0  0  0  0  0
  153.8627  139.7862  159.0649 C   0  0  1  0  0  0  0  0  0  0  0  0
  152.7920  140.8464  159.4763 C   0  0  1  0  0  0  0  0  0  0  0  0
  153.4011  142.0437  160.2539 C   0  0  0  0  0  0  0  0  0  0  0  0
  152.3320  143.0722  160.6455 C   0  0  0  0  0  0  0  0  0  0  0  0
  151.5747  143.5380  159.3979 C   0  0  0  0  0  0  0  0  0  0  0  0
  150.9765  142.3350  158.6574 C   0  0  0  0  0  0  0  0  0  0  0  0
  152.0030  141.3442  158.3347 N   0  0  0  0  0  0  0  0  0  0  0  0
  151.5061  140.4157  157.4872 C   0  0  0  0  0  0  0  0  0  0  0  0
  151.9561  140.4428  156.2089 N   0  0  0  0  0  0  0  0  0  0  0  0
  151.5026  139.5507  155.3231 C   0  0  0  0  0  0  0  0  0  0  0  0
  150.6145  138.5706  155.5043 N   0  0  0  0  0  0  0  0  0  0  0  0
  150.1563  138.5468  156.7888 C   0  0  0  0  0  0  0  0  0  0  0  0
  150.5437  139.4269  157.8375 C   0  0  0  0  0  0  0  0  0  0  0  0
  149.8637  139.1023  159.0051 N   0  0  0  0  0  0  0  0  0  0  0  0
  149.1186  138.0854  158.6667 C   0  0  0  0  0  0  0  0  0  0  0  0
  149.2297  137.6885  157.3535 N   0  0  0  0  0  0  0  0  0  0  0  0
  148.5172  136.5947  156.7154 C   0  0  0  0  0  0  0  0  0  0  0  0
  149.2517  135.2446  156.8632 C   0  0  1  0  0  0  0  0  0  0  0  0
  149.1218  134.8160  158.2053 O   0  0  0  0  0  0  0  0  0  0  0  0
  148.6737  134.1364  155.9596 C   0  0  1  0  0  0  0  0  0  0  0  0
  148.7414  134.4266  154.4595 C   0  0  0  0  0  0  0  0  0  0  0  0
  148.6684  133.0444  153.8359 C   0  0  0  0  0  0  0  0  0  0  0  0
  149.1523  132.1165  154.9531 C   0  0  0  0  0  0  0  0  0  0  0  0
  149.4828  132.9718  156.0404 O   0  0  0  0  0  0  0  0  0  0  0  0
  154.9818  139.5863  160.1118 C   0  0  0  0  0  0  0  0  0  0  0  0
  154.7672  138.2549  160.6447 N   0  0  0  0  0  0  0  0  0  0  0  0
  153.6545  137.9563  157.8892 H   0  0  0  0  0  0  0  0  0  0  0  0
  152.1978  138.3496  158.8011 H   0  0  0  0  0  0  0  0  0  0  0  0
  154.3233  140.0948  158.1261 H   0  0  0  0  0  0  0  0  0  0  0  0
  152.0934  140.3542  160.1534 H   0  0  0  0  0  0  0  0  0  0  0  0
  153.9064  141.7046  161.1575 H   0  0  0  0  0  0  0  0  0  0  0  0
  154.1601  142.5413  159.6498 H   0  0  0  0  0  0  0  0  0  0  0  0
  151.6355  142.6287  161.3582 H   0  0  0  0  0  0  0  0  0  0  0  0
  152.7940  143.9238  161.1457 H   0  0  0  0  0  0  0  0  0  0  0  0
  150.7851  144.2366  159.6756 H   0  0  0  0  0  0  0  0  0  0  0  0
  152.2518  144.0784  158.7351 H   0  0  0  0  0  0  0  0  0  0  0  0
  150.2063  141.8696  159.2740 H   0  0  0  0  0  0  0  0  0  0  0  0
  150.4877  142.6782  157.7440 H   0  0  0  0  0  0  0  0  0  0  0  0
  151.9091  139.6344  154.3259 H   0  0  0  0  0  0  0  0  0  0  0  0
  148.4601  137.5951  159.3689 H   0  0  0  0  0  0  0  0  0  0  0  0
  147.5143  136.5313  157.1394 H   0  0  0  0  0  0  0  0  0  0  0  0
  148.3936  136.8519  155.6632 H   0  0  0  0  0  0  0  0  0  0  0  0
  150.3100  135.3853  156.6400 H   0  0  0  0  0  0  0  0  0  0  0  0
  148.7778  133.9358  158.2074 H   0  0  0  0  0  0  0  0  0  0  0  0
  147.6463  133.8950  156.2406 H   0  0  0  0  0  0  0  0  0  0  0  0
  147.9435  135.0857  154.1164 H   0  0  0  0  0  0  0  0  0  0  0  0
  149.6966  134.8904  154.2091 H   0  0  0  0  0  0  0  0  0  0  0  0
  147.6422  132.7978  153.5605 H   0  0  0  0  0  0  0  0  0  0  0  0
  149.2852  132.9731  152.9397 H   0  0  0  0  0  0  0  0  0  0  0  0
  148.3599  131.4301  155.2552 H   0  0  0  0  0  0  0  0  0  0  0  0
  150.0195  131.5257  154.6562 H   0  0  0  0  0  0  0  0  0  0  0  0
  155.9645  139.6247  159.6401 H   0  0  0  0  0  0  0  0  0  0  0  0
  154.9688  140.3328  160.9064 H   0  0  0  0  0  0  0  0  0  0  0  0
  155.2680  137.9046  161.4487 H   0  0  0  0  0  0  0  0  0  0  0  0
  1  2  2  0  0  0  0
  2 29  1  0  0  0  0
  2  3  1  0  0  0  0
  3  4  1  0  0  0  0
  3 30  1  0  0  0  0
  3 31  1  0  0  0  0
  4  5  1  0  0  0  0
  4 28  1  0  0  0  0
  4 32  1  0  0  0  0
  5 10  1  0  0  0  0
  5  6  1  0  0  0  0
  5 33  1  0  0  0  0
  6  7  1  0  0  0  0
  6 34  1  0  0  0  0
  6 35  1  0  0  0  0
  7  8  1  0  0  0  0
  7 36  1  0  0  0  0
  7 37  1  0  0  0  0
  8  9  1  0  0  0  0
  8 38  1  0  0  0  0
  8 39  1  0  0  0  0
  9 10  1  0  0  0  0
  9 40  1  0  0  0  0
  9 41  1  0  0  0  0
 10 11  1  0  0  0  0
 11 16  1  0  0  0  0
 11 12  2  0  0  0  0
 12 13  1  0  0  0  0
 13 14  2  0  0  0  0
 13 42  1  0  0  0  0
 14 15  1  0  0  0  0
 15 19  1  0  0  0  0
 15 16  2  0  0  0  0
 16 17  1  0  0  0  0
 17 18  2  0  0  0  0
 18 19  1  0  0  0  0
 18 43  1  0  0  0  0
 19 20  1  0  0  0  0
 20 21  1  0  0  0  0
 20 44  1  0  0  0  0
 20 45  1  0  0  0  0
 21 22  1  0  0  0  0
 21 23  1  0  0  0  0
 21 46  1  0  0  0  0
 22 47  1  0  0  0  0
 23 27  1  0  0  0  0
 23 24  1  0  0  0  0
 23 48  1  0  0  0  0
 24 25  1  0  0  0  0
 24 49  1  0  0  0  0
 24 50  1  0  0  0  0
 25 26  1  0  0  0  0
 25 51  1  0  0  0  0
 25 52  1  0  0  0  0
 26 27  1  0  0  0  0
 26 53  1  0  0  0  0
 26 54  1  0  0  0  0
 28 29  1  0  0  0  0
 28 55  1  0  0  0  0
 28 56  1  0  0  0  0
 29 57  1  0  0  0  0
M  END
> <s_m_source_file>
AV-unprocessed.smi

> <i_m_source_file_index>
203

> <i_lp_mmshare_version>
43012

> <i_f3d_flags>
0

> <s_epik_input>
Tz1DMVtDSDJdW0NASF0oW0NIMl1bTkhdMSlbQ0BASF0yW0NIMl1bQ0gyXVtDSDJdW0NIMl1OMmMobltjSF1uMyljKGMzNCluW2NIXW40W0NIMl1bQ0BIXShbT0hdKVtDQEBIXTVbQ0gyXVtDSDJdW0NIMl1PNQ==

> <s_epik_cmdline>
J2VwaWtfcHl0aG9uJywgJy1waCcsICc3LjAnLCAnLXRuJywgJzgnLCAnLW1hJywgJzIwMCcsICctbWV0YWxfYmluZGluZycsICctaW1hZScsICc8aW5maWxlLm1hZT4nLCAnLW9tYWUnLCAnPG91dGZpbGUubWFlPic=

> <r_lp_tautomer_probability>
1

> <r_epik_Ionization_Penalty>
0.00175146

> <r_epik_Ionization_Penalty_Charging>
0

> <r_epik_Ionization_Penalty_Neutral>
0.00175146

> <r_epik_State_Penalty>
0.00109045

> <r_epik_Charging_Adjusted_Penalty>
0.00109045

> <i_epik_Tot_Q>
0

> <i_epik_Tot_abs_Q>
0

> <r_epik_Metal_State_Penalty>
-0

> <b_epik_Metal_Only>
0

> <s_lp_Force_Field>
OPLS_2005

> <r_lp_Energy>
57.4119

> <b_lp_Chiralities_Consistent>
1

> <s_lp_Variant>
AV-unprocessed.smi:203-15

> <Gold.Version>
5.8.1

> <Gold.Id.Protein>
6NUR|6NUR_protein|mol2

> <Gold.PLP.Fitness>
47.9849

> <Gold.PLP.PLP>
-40.5895

> <Gold.PLP.part.hbond>
-3.6853

> <Gold.PLP.part.metal>
0.0000

> <Gold.PLP.part.buried>
-3.9078

> <Gold.PLP.part.nonpolar>
-32.6842

> <Gold.PLP.part.repulsive>
0.0379

> <Gold.PLP.ligand.clash>
0.0000

> <Gold.PLP.ligand.torsion>
1.0031

> <Gold.PLP.Chemscore.Hbond>
3.0000

> <Gold.PLP.Chemscore.CHOScore>
0.0000

> <Gold.PLP.Chemscore.Metal>
0.0000

> <Gold.Chemscore.Hbonds>
donor molecule, donor type, donor heavy atom, donor atom, acceptor molecule, acceptor atom, score
      P1  H  6896  6907       L1    22  0.84
      P1  H  6896  6908       L1     1  1.00
      P1  H  7997  8008       L1    12  0.08

> <Gold.PLP.Chemscore.Internal.Correction>
0.4017

> <Gold.Rescore>
     Score         DG    S(hbond)    S(metal)    S(lipo)     H(rot)  DE(clash)    DE(int)     intcor
     15.73     -17.52       2.50        0.00      90.93       2.72       0.03       1.77       ----

> <Gold.Chemscore.Fitness>
15.7286

> <Gold.Chemscore.DG>
-17.5246

> <Gold.Chemscore.ZeroCoef>
-5.4800

> <Gold.Chemscore.Hbond>
2.5035

> <Gold.Chemscore.Metal>
0.0000

> <Gold.Chemscore.Lipo>
90.9272

> <Gold.Chemscore.Internal_Hbond>
0.0000

> <Gold.Chemscore.DEClash>
0.0279

> <Gold.Chemscore.DEInternal>
1.7681

> <Gold.Chemscore.Rot>
2.7171

> <Gold.Chemscore.Internal.Correction>
   9.000000E+99

> <Gold.Chemscore.Hbonds>
donor molecule, donor type, donor heavy atom, donor atom, acceptor molecule, acceptor atom, score
      P1  H  6896  6907       L1    22  0.13
      P1  H  6896  6908       L1     1  0.99
      P1  H  7997  8008       L1    12  0.04

> <Gold.Chemscore.Hbond.Weighted>
-8.3618

> <Gold.Chemscore.Metal.Weighted>
-0.0000

> <Gold.Chemscore.Lipo.Weighted>
-10.6385

> <Gold.Chemscore.Internal_Hbond.Weighted>
0.0000

> <Gold.Chemscore.DEClash.Weighted>
0.0279

> <Gold.Chemscore.DEInternal.Weighted>
1.7681

> <Gold.Chemscore.Rot.Weighted>
6.9557

> <Gold.Chemscore.Internal.Correction.Weighted>
   9.000000E+99

> <Gold.Protein.RotatedTorsions>
[ 6907 6896 6895 6894 ] final  -74.66 input  -60.11 | X-H torsion
[ 7974 7965 7964 7962 ] final   -8.61 input  175.53 | X-H torsion
[ 8008 7997 7996 7995 ] final  -42.54 input   59.86 | X-H torsion
[ 10167 10162 10161 10158 ] final  170.50 input  -65.29 | X-H torsion
[ 10718 10713 10712 10709 ] final  -62.90 input   66.30 | X-H torsion
[ 10763 10752 10751 10750 ] final   28.07 input  -60.55 | X-H torsion
[ 11005 11000 10999 10996 ] final  -27.11 input  -57.11 | X-H torsion

> <Gold.Protein.ActiveResidues>
 VAL166  LYS551  ARG553  GLY616  TRP617  ASP618  TYR619  PRO620  LYS621  CYS622 
 ASP623  PHE694  ASN695  SER759  ASP760  ASP761  ALA762  ILE779  LEU786  VAL792 
 PHE793  MET794  SER795  GLU796  ALA797  LYS798  CYS799  TRP800  GLU811  SER814 

> <Gold.Protein.RotatedAtoms>
  150.7085  134.4836  159.5481 H   0  0  0  0  0  0  0  0  0  0  0  0  # atno 6907 bound_to 6896
  152.2468  134.8170  160.0461 H   0  0  0  0  0  0  0  0  0  0  0  0  # atno 6908 bound_to 6896
  151.8932  133.3485  159.3842 H   0  0  0  0  0  0  0  0  0  0  0  0  # atno 6909 bound_to 6896
  146.2275  140.2493  142.8346 H   0  0  0  0  0  0  0  0  0  0  0  0  # atno 7974 bound_to 7965
  154.3999  140.1471  156.3371 H   0  0  0  0  0  0  0  0  0  0  0  0  # atno 8008 bound_to 7997
  155.8390  140.3463  155.5599 H   0  0  0  0  0  0  0  0  0  0  0  0  # atno 8009 bound_to 7997
  155.8107  140.0883  157.1896 H   0  0  0  0  0  0  0  0  0  0  0  0  # atno 8010 bound_to 7997
  139.5020  144.3589  151.9845 H   0  0  0  0  0  0  0  0  0  0  0  0  # atno 10167 bound_to 10162
  156.0825  130.4214  150.1200 H   0  0  0  0  0  0  0  0  0  0  0  0  # atno 10718 bound_to 10713
  153.0515  135.6522  154.0682 H   0  0  0  0  0  0  0  0  0  0  0  0  # atno 10763 bound_to 10752
  154.0369  135.2907  155.3362 H   0  0  0  0  0  0  0  0  0  0  0  0  # atno 10764 bound_to 10752
  154.6806  135.5321  153.8324 H   0  0  0  0  0  0  0  0  0  0  0  0  # atno 10765 bound_to 10752
  140.9090  133.7474  156.0644 H   0  0  0  0  0  0  0  0  0  0  0  0  # atno 11005 bound_to 11000
  144.9424  140.8092  143.5622 LP  0  0  0  0  0  0  0  0  0  0  0  0  # atno 17320 bound_to 7965
  145.2446  139.2057  143.4974 LP  0  0  0  0  0  0  0  0  0  0  0  0  # atno 17321 bound_to 7965
  140.3026  144.3630  150.6056 LP  0  0  0  0  0  0  0  0  0  0  0  0  # atno 17342 bound_to 10162
  140.5862  143.2170  151.7338 LP  0  0  0  0  0  0  0  0  0  0  0  0  # atno 17343 bound_to 10162
  156.9228  130.9688  151.3546 LP  0  0  0  0  0  0  0  0  0  0  0  0  # atno 17370 bound_to 10713
  157.5948  130.8469  149.8712 LP  0  0  0  0  0  0  0  0  0  0  0  0  # atno 17371 bound_to 10713
  140.8135  134.3372  157.5404 LP  0  0  0  0  0  0  0  0  0  0  0  0  # atno 17394 bound_to 11000
  139.8754  134.9268  156.3408 LP  0  0  0  0  0  0  0  0  0  0  0  0  # atno 17395 bound_to 11000

$$$$
