AV-unprocessed.smi:2083|AV-procd|sdf|8501|dock5
  -GOLD-   2272011213D 1   1.00000     0.00000
 Structure written by MMmdl.
 44 45  0  0  0  0  0  0  0  0  3 V2000
  150.5468  140.8724  156.9667 C   0  0  0  0  0  0  0  0  0  0  0  0
  151.1068  139.6328  156.3575 C   0  0  0  0  0  0  0  0  0  0  0  0
  150.5455  138.6241  155.6275 C   0  0  0  0  0  0  0  0  0  0  0  0
  151.6452  137.7622  155.3655 C   0  0  0  0  0  0  0  0  0  0  0  0
  151.5954  136.6067  154.6851 N   0  5  0  0  0  0  0  0  0  0  0  0
  150.7916  135.6031  155.1037 C   0  0  0  0  0  0  0  0  0  0  0  0
  150.9941  134.8535  156.0616 O   0  0  0  0  0  0  0  0  0  0  0  0
  149.6903  135.4516  154.3537 N   0  0  0  0  0  0  0  0  0  0  0  0
  148.6404  134.4535  154.5424 C   0  0  0  0  0  0  0  0  0  0  0  0
  147.2218  135.0754  154.5933 C   0  0  1  0  0  0  0  0  0  0  0  0
  147.2596  136.4997  155.2004 C   0  0  0  0  0  0  0  0  0  0  0  0
  146.6031  135.0067  153.2287 N   0  3  2  0  0  0  0  0  0  0  0  0
  145.5194  135.9909  152.9403 C   0  0  0  0  0  0  0  0  0  0  0  0
  145.0720  135.9252  151.4701 C   0  0  0  0  0  0  0  0  0  0  0  0
  144.6457  134.5068  151.0739 C   0  0  0  0  0  0  0  0  0  0  0  0
  145.7454  133.4867  151.4112 C   0  0  1  0  0  0  0  0  0  0  0  0
  146.9499  133.5604  150.4563 C   0  0  0  0  0  0  0  0  0  0  0  0
  146.1631  133.6224  152.8885 C   0  0  0  0  0  0  0  0  0  0  0  0
  152.7717  138.2019  155.9008 N   0  0  0  0  0  0  0  0  0  0  0  0
  152.4364  139.4050  156.5335 O   0  0  0  0  0  0  0  0  0  0  0  0
  149.7431  140.6298  157.6620 H   0  0  0  0  0  0  0  0  0  0  0  0
  150.1420  141.5301  156.1976 H   0  0  0  0  0  0  0  0  0  0  0  0
  151.3120  141.4229  157.5145 H   0  0  0  0  0  0  0  0  0  0  0  0
  149.5137  138.5197  155.3274 H   0  0  0  0  0  0  0  0  0  0  0  0
  149.5730  136.0932  153.5831 H   0  0  0  0  0  0  0  0  0  0  0  0
  148.6838  133.6865  153.7672 H   0  0  0  0  0  0  0  0  0  0  0  0
  148.8757  133.9400  155.4731 H   0  0  0  0  0  0  0  0  0  0  0  0
  146.6068  134.4758  155.2666 H   0  0  0  0  0  0  0  0  0  0  0  0
  147.6861  136.4967  156.2030 H   0  0  0  0  0  0  0  0  0  0  0  0
  146.2628  136.9261  155.3116 H   0  0  0  0  0  0  0  0  0  0  0  0
  147.8608  137.1778  154.5938 H   0  0  0  0  0  0  0  0  0  0  0  0
  144.6719  135.8086  153.6030 H   0  0  0  0  0  0  0  0  0  0  0  0
  145.8604  137.0100  153.1192 H   0  0  0  0  0  0  0  0  0  0  0  0
  144.2458  136.6176  151.3046 H   0  0  0  0  0  0  0  0  0  0  0  0
  145.8836  136.2631  150.8248 H   0  0  0  0  0  0  0  0  0  0  0  0
  143.7342  134.2453  151.6132 H   0  0  0  0  0  0  0  0  0  0  0  0
  144.3954  134.4669  150.0130 H   0  0  0  0  0  0  0  0  0  0  0  0
  145.3131  132.4932  151.2839 H   0  0  0  0  0  0  0  0  0  0  0  0
  147.4704  134.5155  150.5278 H   0  0  0  0  0  0  0  0  0  0  0  0
  146.6369  133.4297  149.4201 H   0  0  0  0  0  0  0  0  0  0  0  0
  147.6733  132.7759  150.6807 H   0  0  0  0  0  0  0  0  0  0  0  0
  146.9474  132.8972  153.1014 H   0  0  0  0  0  0  0  0  0  0  0  0
  145.3225  133.3541  153.5308 H   0  0  0  0  0  0  0  0  0  0  0  0
  147.3481  135.2383  152.5871 H   0  0  0  0  0  0  0  0  0  0  0  0
  1  2  1  0  0  0  0
  1 21  1  0  0  0  0
  1 22  1  0  0  0  0
  1 23  1  0  0  0  0
  2 20  1  0  0  0  0
  2  3  2  0  0  0  0
  3  4  1  0  0  0  0
  3 24  1  0  0  0  0
  4  5  1  0  0  0  0
  4 19  2  0  0  0  0
  5  6  1  0  0  0  0
  6  7  2  0  0  0  0
  6  8  1  0  0  0  0
  8  9  1  0  0  0  0
  8 25  1  0  0  0  0
  9 10  1  0  0  0  0
  9 26  1  0  0  0  0
  9 27  1  0  0  0  0
 10 11  1  0  0  0  0
 10 12  1  0  0  0  0
 10 28  1  0  0  0  0
 11 29  1  0  0  0  0
 11 30  1  0  0  0  0
 11 31  1  0  0  0  0
 12 18  1  0  0  0  0
 12 13  1  0  0  0  0
 12 44  1  0  0  0  0
 13 14  1  0  0  0  0
 13 32  1  0  0  0  0
 13 33  1  0  0  0  0
 14 15  1  0  0  0  0
 14 34  1  0  0  0  0
 14 35  1  0  0  0  0
 15 16  1  0  0  0  0
 15 36  1  0  0  0  0
 15 37  1  0  0  0  0
 16 17  1  0  0  0  0
 16 18  1  0  0  0  0
 16 38  1  0  0  0  0
 17 39  1  0  0  0  0
 17 40  1  0  0  0  0
 17 41  1  0  0  0  0
 18 42  1  0  0  0  0
 18 43  1  0  0  0  0
 19 20  1  0  0  0  0
M  CHG  1   5  -1
M  CHG  1  12   1
M  END
> <s_m_source_file>
AV-unprocessed.smi

> <i_m_source_file_index>
2083

> <i_lp_mmshare_version>
43012

> <i_f3d_flags>
0

> <s_epik_input>
W0NIM11jMVtjSF1jKG5vMSlbTkhdQyg9TylbTkhdW0NIMl1bQ0BIXShbQ0gzXSlOMltDSDJdW0NIMl1bQ0gyXVtDQEBIXShbQ0gzXSlbQ0gyXTI=

> <s_epik_cmdline>
J2VwaWtfcHl0aG9uJywgJy1waCcsICc3LjAnLCAnLXRuJywgJzgnLCAnLW1hJywgJzIwMCcsICctbWV0YWxfYmluZGluZycsICctaW1hZScsICc8aW5maWxlLm1hZT4nLCAnLW9tYWUnLCAnPG91dGZpbGUubWFlPic=

> <r_epik_Ionization_Penalty>
6.22434

> <r_epik_Ionization_Penalty_Charging>
6.22425

> <r_epik_Ionization_Penalty_Neutral>
9.62407e-05

> <r_epik_State_Penalty>
6.22423

> <r_epik_Charging_Adjusted_Penalty>
12.4485

> <i_epik_Tot_Q>
0

> <i_epik_Tot_abs_Q>
2

> <r_epik_Metal_State_Penalty>
2.16764

> <b_epik_Metal_Only>
1

> <s_lp_Force_Field>
OPLS_2005

> <r_lp_Energy>
14.1674

> <b_lp_Chiralities_Consistent>
1

> <s_lp_Variant>
AV-unprocessed.smi:2083-12

> <Gold.Version>
5.8.1

> <Gold.Id.Protein>
6NUR|6NUR_protein|mol2

> <Gold.PLP.Fitness>
45.7099

> <Gold.PLP.PLP>
-31.8177

> <Gold.PLP.part.hbond>
-4.1379

> <Gold.PLP.part.metal>
0.0000

> <Gold.PLP.part.buried>
-3.0807

> <Gold.PLP.part.nonpolar>
-22.6654

> <Gold.PLP.part.repulsive>
0.2135

> <Gold.PLP.ligand.clash>
0.0000

> <Gold.PLP.ligand.torsion>
2.1404

> <Gold.PLP.Chemscore.Hbond>
6.0000

> <Gold.PLP.Chemscore.CHOScore>
0.0000

> <Gold.PLP.Chemscore.Metal>
0.0000

> <Gold.Chemscore.Hbonds>
donor molecule, donor type, donor heavy atom, donor atom, acceptor molecule, acceptor atom, score
      L1  H     8    25       P1  7948  0.86
      L1  H    12    44       P1  7948  2.00
      P1  H  7997  8010       L1    20  0.65
      P1  H 10752 10765       L1     5  1.89

> <Gold.PLP.Chemscore.Internal.Correction>
0.1729

> <Gold.Rescore>
     Score         DG    S(hbond)    S(metal)    S(lipo)     H(rot)  DE(clash)    DE(int)     intcor
     15.90     -18.30       3.01        0.00      56.82       1.52       0.21       2.19       ----

> <Gold.Chemscore.Fitness>
15.9029

> <Gold.Chemscore.DG>
-18.3043

> <Gold.Chemscore.ZeroCoef>
-5.4800

> <Gold.Chemscore.Hbond>
3.0135

> <Gold.Chemscore.Metal>
0.0000

> <Gold.Chemscore.Lipo>
56.8206

> <Gold.Chemscore.Internal_Hbond>
0.0000

> <Gold.Chemscore.DEClash>
0.2065

> <Gold.Chemscore.DEInternal>
2.1949

> <Gold.Chemscore.Rot>
1.5190

> <Gold.Chemscore.Internal.Correction>
   9.000000E+99

> <Gold.Chemscore.Hbonds>
donor molecule, donor type, donor heavy atom, donor atom, acceptor molecule, acceptor atom, score
      L1  H     8    25       P1  7948  0.34
      L1  H    12    44       P1  7948  0.95
      P1  H  7997  8010       L1    20  0.05
      P1  H 10752 10765       L1     5  0.27

> <Gold.Chemscore.Hbond.Weighted>
-10.0650

> <Gold.Chemscore.Metal.Weighted>
-0.0000

> <Gold.Chemscore.Lipo.Weighted>
-6.6480

> <Gold.Chemscore.Internal_Hbond.Weighted>
0.0000

> <Gold.Chemscore.DEClash.Weighted>
0.2065

> <Gold.Chemscore.DEInternal.Weighted>
2.1949

> <Gold.Chemscore.Rot.Weighted>
3.8886

> <Gold.Chemscore.Internal.Correction.Weighted>
   9.000000E+99

> <Gold.Protein.RotatedTorsions>
[ 6907 6896 6895 6894 ] final    7.97 input  -60.11 | X-H torsion
[ 7974 7965 7964 7962 ] final   -2.96 input  175.53 | X-H torsion
[ 8008 7997 7996 7995 ] final   72.70 input   59.86 | X-H torsion
[ 10167 10162 10161 10158 ] final -105.64 input  -65.29 | X-H torsion
[ 10718 10713 10712 10709 ] final  -27.32 input   66.30 | X-H torsion
[ 10763 10752 10751 10750 ] final  150.22 input  -60.55 | X-H torsion
[ 11005 11000 10999 10996 ] final   35.70 input  -57.11 | X-H torsion

> <Gold.Protein.ActiveResidues>
 VAL166  LYS551  ARG553  GLY616  TRP617  ASP618  TYR619  PRO620  LYS621  CYS622 
 ASP623  PHE694  ASN695  SER759  ASP760  ASP761  ALA762  ILE779  LEU786  VAL792 
 PHE793  MET794  SER795  GLU796  ALA797  LYS798  CYS799  TRP800  GLU811  SER814 

> <Gold.Protein.RotatedAtoms>
  151.6985  135.0934  160.0246 H   0  0  0  0  0  0  0  0  0  0  0  0  # atno 6907 bound_to 6896
  152.3735  133.6446  159.6114 H   0  0  0  0  0  0  0  0  0  0  0  0  # atno 6908 bound_to 6896
  150.7691  133.9148  159.3421 H   0  0  0  0  0  0  0  0  0  0  0  0  # atno 6909 bound_to 6896
  146.2397  140.1649  142.8332 H   0  0  0  0  0  0  0  0  0  0  0  0  # atno 7974 bound_to 7965
  155.7727  140.3484  155.5256 H   0  0  0  0  0  0  0  0  0  0  0  0  # atno 8008 bound_to 7997
  155.8805  140.1001  157.1509 H   0  0  0  0  0  0  0  0  0  0  0  0  # atno 8009 bound_to 7997
  154.4024  140.1323  156.4178 H   0  0  0  0  0  0  0  0  0  0  0  0  # atno 8010 bound_to 7997
  140.1964  143.3852  152.1165 H   0  0  0  0  0  0  0  0  0  0  0  0  # atno 10167 bound_to 10162
  156.4397  130.4461  149.7061 H   0  0  0  0  0  0  0  0  0  0  0  0  # atno 10718 bound_to 10713
  154.0840  135.2857  155.3285 H   0  0  0  0  0  0  0  0  0  0  0  0  # atno 10763 bound_to 10752
  154.6665  135.5315  153.8086 H   0  0  0  0  0  0  0  0  0  0  0  0  # atno 10764 bound_to 10752
  153.0438  135.6547  154.1013 H   0  0  0  0  0  0  0  0  0  0  0  0  # atno 10765 bound_to 10752
  140.2400  134.3426  155.7929 H   0  0  0  0  0  0  0  0  0  0  0  0  # atno 11005 bound_to 11000
  145.0058  140.8672  143.5254 LP  0  0  0  0  0  0  0  0  0  0  0  0  # atno 17320 bound_to 7965
  145.1676  139.2423  143.5359 LP  0  0  0  0  0  0  0  0  0  0  0  0  # atno 17321 bound_to 7965
  139.5235  144.7072  151.5318 LP  0  0  0  0  0  0  0  0  0  0  0  0  # atno 17342 bound_to 10162
  140.6421  143.8869  150.6701 LP  0  0  0  0  0  0  0  0  0  0  0  0  # atno 17343 bound_to 10162
  156.3931  130.7637  151.2639 LP  0  0  0  0  0  0  0  0  0  0  0  0  # atno 17370 bound_to 10713
  157.7506  131.0262  150.3951 LP  0  0  0  0  0  0  0  0  0  0  0  0  # atno 17371 bound_to 10713
  141.2211  133.7293  156.8869 LP  0  0  0  0  0  0  0  0  0  0  0  0  # atno 17394 bound_to 11000
  140.1663  134.9131  157.2778 LP  0  0  0  0  0  0  0  0  0  0  0  0  # atno 17395 bound_to 11000

$$$$
