AV-unprocessed.smi:1408|AV-procd|sdf|5726|dock9
  -GOLD-   22720 5363D 1   1.00000     0.00000
 Structure written by MMmdl.
 41 42  0  0  0  0  0  0  0  0  1 V2000
  147.5067  132.2143  153.0114 C   0  0  0  0  0  0  0  0  0  0  0  0
  146.2098  132.6324  152.3373 C   0  0  0  0  0  0  0  0  0  0  0  0
  145.3371  131.6391  151.8440 C   0  0  0  0  0  0  0  0  0  0  0  0
  144.1388  132.0269  151.2205 C   0  0  0  0  0  0  0  0  0  0  0  0
  143.8621  133.4007  151.1163 C   0  0  0  0  0  0  0  0  0  0  0  0
  144.6900  134.3563  151.5852 N   0  0  0  0  0  0  0  0  0  0  0  0
  145.8511  133.9993  152.1895 C   0  0  0  0  0  0  0  0  0  0  0  0
  146.7732  134.9533  152.7067 N   0  0  0  0  0  0  0  0  0  0  0  0
  147.0400  135.2495  153.9913 C   0  0  0  0  0  0  0  0  0  0  0  0
  146.5203  134.7136  154.9705 O   0  0  0  0  0  0  0  0  0  0  0  0
  147.9608  136.2203  154.0836 N   0  0  0  0  0  0  0  0  0  0  0  0
  148.4614  136.7895  155.3318 C   0  0  0  0  0  0  0  0  0  0  0  0
  148.1801  138.2985  155.3676 C   0  0  0  0  0  0  0  0  0  0  0  0
  148.7398  138.9427  156.6483 C   0  0  0  0  0  0  0  0  0  0  0  0
  150.1756  138.6466  156.8272 N   0  0  0  0  0  0  0  0  0  0  0  0
  151.3682  139.8503  156.4293 S   0  0  0  0  0  0  0  0  0  0  0  0
  150.9073  141.2963  157.4686 C   0  0  0  0  0  0  0  0  0  0  0  0
  152.6764  139.3560  156.8850 O   0  0  0  0  0  0  0  0  0  0  0  0
  151.1798  140.2210  155.0183 O   0  0  0  0  0  0  0  0  0  0  0  0
  150.5226  137.2126  156.7570 C   0  0  0  0  0  0  0  0  0  0  0  0
  149.9740  136.5537  155.4786 C   0  0  0  0  0  0  0  0  0  0  0  0
  147.6133  131.1292  153.0298 H   0  0  0  0  0  0  0  0  0  0  0  0
  147.5337  132.5711  154.0413 H   0  0  0  0  0  0  0  0  0  0  0  0
  148.3641  132.6261  152.4783 H   0  0  0  0  0  0  0  0  0  0  0  0
  145.5805  130.5912  151.9405 H   0  0  0  0  0  0  0  0  0  0  0  0
  143.4503  131.2910  150.8324 H   0  0  0  0  0  0  0  0  0  0  0  0
  142.9523  133.7423  150.6449 H   0  0  0  0  0  0  0  0  0  0  0  0
  147.2844  135.4775  152.0126 H   0  0  0  0  0  0  0  0  0  0  0  0
  148.3362  136.6023  153.2280 H   0  0  0  0  0  0  0  0  0  0  0  0
  147.9422  136.3229  156.1715 H   0  0  0  0  0  0  0  0  0  0  0  0
  148.6130  138.7788  154.4906 H   0  0  0  0  0  0  0  0  0  0  0  0
  147.1057  138.4775  155.3129 H   0  0  0  0  0  0  0  0  0  0  0  0
  148.5720  140.0193  156.6360 H   0  0  0  0  0  0  0  0  0  0  0  0
  148.1997  138.5581  157.5141 H   0  0  0  0  0  0  0  0  0  0  0  0
  151.6096  142.1079  157.2800 H   0  0  0  0  0  0  0  0  0  0  0  0
  150.9542  141.0261  158.5221 H   0  0  0  0  0  0  0  0  0  0  0  0
  149.9034  141.6316  157.2136 H   0  0  0  0  0  0  0  0  0  0  0  0
  151.6023  137.0792  156.8187 H   0  0  0  0  0  0  0  0  0  0  0  0
  150.1019  136.7146  157.6313 H   0  0  0  0  0  0  0  0  0  0  0  0
  150.1862  135.4843  155.5064 H   0  0  0  0  0  0  0  0  0  0  0  0
  150.4965  136.9434  154.6056 H   0  0  0  0  0  0  0  0  0  0  0  0
  1  2  1  0  0  0  0
  1 22  1  0  0  0  0
  1 23  1  0  0  0  0
  1 24  1  0  0  0  0
  2  7  1  0  0  0  0
  2  3  2  0  0  0  0
  3  4  1  0  0  0  0
  3 25  1  0  0  0  0
  4  5  2  0  0  0  0
  4 26  1  0  0  0  0
  5  6  1  0  0  0  0
  5 27  1  0  0  0  0
  6  7  2  0  0  0  0
  7  8  1  0  0  0  0
  8  9  1  0  0  0  0
  8 28  1  0  0  0  0
  9 10  2  0  0  0  0
  9 11  1  0  0  0  0
 11 12  1  0  0  0  0
 11 29  1  0  0  0  0
 12 21  1  0  0  0  0
 12 13  1  0  0  0  0
 12 30  1  0  0  0  0
 13 14  1  0  0  0  0
 13 31  1  0  0  0  0
 13 32  1  0  0  0  0
 14 15  1  0  0  0  0
 14 33  1  0  0  0  0
 14 34  1  0  0  0  0
 15 16  1  0  0  0  0
 15 20  1  0  0  0  0
 16 17  1  0  0  0  0
 16 18  2  0  0  0  0
 16 19  2  0  0  0  0
 17 35  1  0  0  0  0
 17 36  1  0  0  0  0
 17 37  1  0  0  0  0
 20 21  1  0  0  0  0
 20 38  1  0  0  0  0
 20 39  1  0  0  0  0
 21 40  1  0  0  0  0
 21 41  1  0  0  0  0
M  END
> <s_m_source_file>
AV-unprocessed.smi

> <i_m_source_file_index>
1408

> <i_lp_mmshare_version>
43012

> <i_f3d_flags>
0

> <s_epik_input>
W0NIM11jMVtjSF1bY0hdW2NIXW5jMVtOSF1DKD1PKVtOSF1bQ0hdMltDSDJdW0NIMl1OKFMoPU8pKD1PKVtDSDNdKVtDSDJdW0NIMl0y

> <s_epik_cmdline>
J2VwaWtfcHl0aG9uJywgJy1waCcsICc3LjAnLCAnLXRuJywgJzgnLCAnLW1hJywgJzIwMCcsICctbWV0YWxfYmluZGluZycsICctaW1hZScsICc8aW5maWxlLm1hZT4nLCAnLW9tYWUnLCAnPG91dGZpbGUubWFlPic=

> <r_lp_tautomer_probability>
1

> <r_epik_Ionization_Penalty>
5.70787e-05

> <r_epik_Ionization_Penalty_Charging>
0

> <r_epik_Ionization_Penalty_Neutral>
5.70787e-05

> <r_epik_State_Penalty>
-0

> <r_epik_Charging_Adjusted_Penalty>
0

> <i_epik_Tot_Q>
0

> <i_epik_Tot_abs_Q>
0

> <r_epik_Metal_State_Penalty>
-0

> <b_epik_Metal_Only>
0

> <s_lp_Force_Field>
OPLS_2005

> <r_lp_Energy>
5.75517

> <b_lp_Chiralities_Consistent>
1

> <s_lp_Variant>
AV-unprocessed.smi:1408-1

> <Gold.Version>
5.8.1

> <Gold.Id.Protein>
6NUR|6NUR_protein|mol2

> <Gold.PLP.Fitness>
37.0259

> <Gold.PLP.PLP>
-24.7016

> <Gold.PLP.part.hbond>
-3.6234

> <Gold.PLP.part.metal>
0.0000

> <Gold.PLP.part.buried>
-4.0560

> <Gold.PLP.part.nonpolar>
-17.3167

> <Gold.PLP.part.repulsive>
0.2167

> <Gold.PLP.ligand.clash>
0.0000

> <Gold.PLP.ligand.torsion>
1.8112

> <Gold.PLP.Chemscore.Hbond>
3.6320

> <Gold.PLP.Chemscore.CHOScore>
1.0000

> <Gold.PLP.Chemscore.Metal>
0.0000

> <Gold.Chemscore.Hbonds>
donor molecule, donor type, donor heavy atom, donor atom, acceptor molecule, acceptor atom, score
      L1  H     8    28       P1  7948  0.75
      L1  H    11    29       P1  7948  0.88
      P1  H  7989  7998       L1    19  1.00
      P1  H  7997  8008       L1    18  1.00
      L1  C     5    27       P1 10186  1.00

> <Gold.PLP.Chemscore.Internal.Correction>
2.0506

> <Gold.Rescore>
     Score         DG    S(hbond)    S(metal)    S(lipo)     H(rot)  DE(clash)    DE(int)     intcor
     19.65     -21.51       3.90        0.00      47.61       1.00       0.01       1.85       ----

> <Gold.Chemscore.Fitness>
19.6495

> <Gold.Chemscore.DG>
-21.5060

> <Gold.Chemscore.ZeroCoef>
-5.4800

> <Gold.Chemscore.Hbond>
3.8970

> <Gold.Chemscore.Metal>
0.0000

> <Gold.Chemscore.Lipo>
47.6063

> <Gold.Chemscore.Internal_Hbond>
0.0000

> <Gold.Chemscore.DEClash>
0.0067

> <Gold.Chemscore.DEInternal>
1.8498

> <Gold.Chemscore.Rot>
1.0000

> <Gold.Chemscore.Internal.Correction>
   9.000000E+99

> <Gold.Chemscore.Hbonds>
donor molecule, donor type, donor heavy atom, donor atom, acceptor molecule, acceptor atom, score
      L1  H     8    28       P1  7948  0.76
      L1  H    11    29       P1  7948  0.82
      P1  H  7989  7998       L1    19  0.99
      P1  H  7997  8008       L1    18  1.00

> <Gold.Chemscore.Hbond.Weighted>
-13.0160

> <Gold.Chemscore.Metal.Weighted>
-0.0000

> <Gold.Chemscore.Lipo.Weighted>
-5.5699

> <Gold.Chemscore.Internal_Hbond.Weighted>
0.0000

> <Gold.Chemscore.DEClash.Weighted>
0.0067

> <Gold.Chemscore.DEInternal.Weighted>
1.8498

> <Gold.Chemscore.Rot.Weighted>
2.5600

> <Gold.Chemscore.Internal.Correction.Weighted>
   9.000000E+99

> <Gold.Protein.RotatedTorsions>
[ 6907 6896 6895 6894 ] final -150.37 input  -60.11 | X-H torsion
[ 7974 7965 7964 7962 ] final   49.14 input  175.53 | X-H torsion
[ 8008 7997 7996 7995 ] final  -48.22 input   59.86 | X-H torsion
[ 10167 10162 10161 10158 ] final -124.98 input  -65.29 | X-H torsion
[ 10718 10713 10712 10709 ] final   74.19 input   66.30 | X-H torsion
[ 10763 10752 10751 10750 ] final   -9.90 input  -60.55 | X-H torsion
[ 11005 11000 10999 10996 ] final  -65.92 input  -57.11 | X-H torsion

> <Gold.Protein.ActiveResidues>
 VAL166  LYS551  ARG553  GLY616  TRP617  ASP618  TYR619  PRO620  LYS621  CYS622 
 ASP623  PHE694  ASN695  SER759  ASP760  ASP761  ALA762  ILE779  LEU786  VAL792 
 PHE793  MET794  SER795  GLU796  ALA797  LYS798  CYS799  TRP800  GLU811  SER814 

> <Gold.Protein.RotatedAtoms>
  151.1976  133.4630  159.2595 H   0  0  0  0  0  0  0  0  0  0  0  0  # atno 6907 bound_to 6896
  151.1101  135.0022  159.8500 H   0  0  0  0  0  0  0  0  0  0  0  0  # atno 6908 bound_to 6896
  152.5450  134.1896  159.8721 H   0  0  0  0  0  0  0  0  0  0  0  0  # atno 6909 bound_to 6896
  146.0138  139.4573  142.9940 H   0  0  0  0  0  0  0  0  0  0  0  0  # atno 7974 bound_to 7965
  154.4026  140.1327  156.4303 H   0  0  0  0  0  0  0  0  0  0  0  0  # atno 8008 bound_to 7997
  155.7557  140.3487  155.5153 H   0  0  0  0  0  0  0  0  0  0  0  0  # atno 8009 bound_to 7997
  155.8907  140.1002  157.1411 H   0  0  0  0  0  0  0  0  0  0  0  0  # atno 8010 bound_to 7997
  139.9870  143.5681  152.2356 H   0  0  0  0  0  0  0  0  0  0  0  0  # atno 10167 bound_to 10162
  157.6581  130.9665  150.1175 H   0  0  0  0  0  0  0  0  0  0  0  0  # atno 10718 bound_to 10713
  153.4615  135.7016  153.6048 H   0  0  0  0  0  0  0  0  0  0  0  0  # atno 10763 bound_to 10752
  153.4340  135.3796  155.2188 H   0  0  0  0  0  0  0  0  0  0  0  0  # atno 10764 bound_to 10752
  154.8727  135.3958  154.4041 H   0  0  0  0  0  0  0  0  0  0  0  0  # atno 10765 bound_to 10752
  141.1468  133.6690  156.6060 H   0  0  0  0  0  0  0  0  0  0  0  0  # atno 11005 bound_to 11000
  145.7301  141.0045  143.1356 LP  0  0  0  0  0  0  0  0  0  0  0  0  # atno 17320 bound_to 7965
  144.6963  139.8974  143.7456 LP  0  0  0  0  0  0  0  0  0  0  0  0  # atno 17321 bound_to 7965
  139.6368  144.7651  151.2422 LP  0  0  0  0  0  0  0  0  0  0  0  0  # atno 17342 bound_to 10162
  140.7468  143.6385  150.8356 LP  0  0  0  0  0  0  0  0  0  0  0  0  # atno 17343 bound_to 10162
  156.2055  130.3663  149.8734 LP  0  0  0  0  0  0  0  0  0  0  0  0  # atno 17370 bound_to 10713
  156.6627  130.8788  151.3550 LP  0  0  0  0  0  0  0  0  0  0  0  0  # atno 17371 bound_to 10713
  140.3651  134.7654  157.4561 LP  0  0  0  0  0  0  0  0  0  0  0  0  # atno 17394 bound_to 11000
  140.0754  134.5804  155.8597 LP  0  0  0  0  0  0  0  0  0  0  0  0  # atno 17395 bound_to 11000

$$$$
