AV-unprocessed.smi:3116|AV-procd|sdf|11862|dock9
  -GOLD-   2272017243D 1   1.00000     0.00000
 Structure written by MMmdl.
 34 34  0  0  0  0  0  0  0  0  2 V2000
  146.5213  138.7014  151.1392 C   0  0  0  0  0  0  0  0  0  0  0  0
  146.7599  138.9316  152.6427 C   0  0  2  0  0  0  0  0  0  0  0  0
  148.2079  138.9699  152.9540 N   0  3  0  0  0  0  0  0  0  0  0  0
  148.5784  139.6240  154.2303 C   0  0  2  0  0  0  0  0  0  0  0  0
  147.9324  141.0208  154.2810 C   0  0  0  0  0  0  0  0  0  0  0  0
  150.1221  139.6585  154.3845 C   0  0  2  0  0  0  0  0  0  0  0  0
  150.7559  138.2552  154.3221 C   0  0  0  0  0  0  0  0  0  0  0  0
  150.5365  140.3391  155.6047 N   0  0  0  0  0  0  0  0  0  0  0  0
  150.3410  141.6593  155.9548 C   0  0  0  0  0  0  0  0  0  0  0  0
  150.9021  141.8430  157.1858 C   0  0  0  0  0  0  0  0  0  0  0  0
  151.4278  140.5621  157.5127 C   0  0  0  0  0  0  0  0  0  0  0  0
  151.2086  139.6649  156.5653 N   0  0  0  0  0  0  0  0  0  0  0  0
  146.0639  137.8379  153.4617 C   0  0  0  0  0  0  0  0  0  0  0  0
  144.7300  137.7952  153.4081 N   0  0  0  0  0  0  0  0  0  0  0  0
  146.7161  137.0340  154.1257 O   0  0  0  0  0  0  0  0  0  0  0  0
  145.4559  138.6596  150.9084 H   0  0  0  0  0  0  0  0  0  0  0  0
  146.9699  137.7655  150.8033 H   0  0  0  0  0  0  0  0  0  0  0  0
  146.9467  139.5051  150.5380 H   0  0  0  0  0  0  0  0  0  0  0  0
  146.3237  139.8879  152.9369 H   0  0  0  0  0  0  0  0  0  0  0  0
  148.5328  138.0148  152.9992 H   0  0  0  0  0  0  0  0  0  0  0  0
  148.1689  139.0498  155.0628 H   0  0  0  0  0  0  0  0  0  0  0  0
  148.0915  141.5072  155.2435 H   0  0  0  0  0  0  0  0  0  0  0  0
  146.8540  140.9587  154.1313 H   0  0  0  0  0  0  0  0  0  0  0  0
  148.3377  141.6733  153.5068 H   0  0  0  0  0  0  0  0  0  0  0  0
  150.5281  140.2386  153.5538 H   0  0  0  0  0  0  0  0  0  0  0  0
  150.5768  137.7768  153.3591 H   0  0  0  0  0  0  0  0  0  0  0  0
  150.3551  137.6001  155.0964 H   0  0  0  0  0  0  0  0  0  0  0  0
  151.8364  138.3078  154.4598 H   0  0  0  0  0  0  0  0  0  0  0  0
  149.8235  142.3512  155.3068 H   0  0  0  0  0  0  0  0  0  0  0  0
  150.9337  142.7543  157.7644 H   0  0  0  0  0  0  0  0  0  0  0  0
  151.9585  140.2600  158.4035 H   0  0  0  0  0  0  0  0  0  0  0  0
  144.2214  137.0995  153.9344 H   0  0  0  0  0  0  0  0  0  0  0  0
  144.2305  138.4678  152.8436 H   0  0  0  0  0  0  0  0  0  0  0  0
  148.6881  139.4284  152.1930 H   0  0  0  0  0  0  0  0  0  0  0  0
  1  2  1  0  0  0  0
  1 16  1  0  0  0  0
  1 17  1  0  0  0  0
  1 18  1  0  0  0  0
  2  3  1  0  0  0  0
  2 13  1  0  0  0  0
  2 19  1  0  0  0  0
  3  4  1  0  0  0  0
  3 20  1  0  0  0  0
  3 34  1  0  0  0  0
  4  5  1  0  0  0  0
  4  6  1  0  0  0  0
  4 21  1  0  0  0  0
  5 22  1  0  0  0  0
  5 23  1  0  0  0  0
  5 24  1  0  0  0  0
  6  7  1  0  0  0  0
  6  8  1  0  0  0  0
  6 25  1  0  0  0  0
  7 26  1  0  0  0  0
  7 27  1  0  0  0  0
  7 28  1  0  0  0  0
  8 12  1  0  0  0  0
  8  9  1  0  0  0  0
  9 10  2  0  0  0  0
  9 29  1  0  0  0  0
 10 11  1  0  0  0  0
 10 30  1  0  0  0  0
 11 12  2  0  0  0  0
 11 31  1  0  0  0  0
 13 14  1  0  0  0  0
 13 15  2  0  0  0  0
 14 32  1  0  0  0  0
 14 33  1  0  0  0  0
M  CHG  1   3   1
M  END
> <s_m_source_file>
AV-unprocessed.smi

> <i_m_source_file_index>
3116

> <i_lp_mmshare_version>
43012

> <i_f3d_flags>
0

> <s_epik_input>
W05IMl1DKD1PKVtDQEhdKFtDSDNdKVtOSF1bQ0BIXShbQ0gzXSlbQ0BIXShbQ0gzXSluMVtjSF1bY0hdW2NIXW4x

> <s_epik_cmdline>
J2VwaWtfcHl0aG9uJywgJy1waCcsICc3LjAnLCAnLXRuJywgJzgnLCAnLW1hJywgJzIwMCcsICctbWV0YWxfYmluZGluZycsICctaW1hZScsICc8aW5maWxlLm1hZT4nLCAnLW9tYWUnLCAnPG91dGZpbGUubWFlPic=

> <r_lp_tautomer_probability>
1

> <r_epik_Ionization_Penalty>
0.15658

> <r_epik_Ionization_Penalty_Charging>
0.156568

> <r_epik_Ionization_Penalty_Neutral>
1.19778e-05

> <r_epik_State_Penalty>
0.145866

> <r_epik_Charging_Adjusted_Penalty>
0.302434

> <i_epik_Tot_Q>
1

> <i_epik_Tot_abs_Q>
1

> <r_epik_Metal_State_Penalty>
0.146064

> <b_epik_Metal_Only>
0

> <s_lp_Force_Field>
OPLS_2005

> <r_lp_Energy>
9.5332

> <b_lp_Chiralities_Consistent>
1

> <s_lp_Variant>
AV-unprocessed.smi:3116-1

> <Gold.Version>
5.8.1

> <Gold.Id.Protein>
6NUR|6NUR_protein|mol2

> <Gold.PLP.Fitness>
40.8167

> <Gold.PLP.PLP>
-29.3423

> <Gold.PLP.part.hbond>
-2.8455

> <Gold.PLP.part.metal>
0.0000

> <Gold.PLP.part.buried>
0.6563

> <Gold.PLP.part.nonpolar>
-27.7451

> <Gold.PLP.part.repulsive>
0.1729

> <Gold.PLP.ligand.clash>
0.0000

> <Gold.PLP.ligand.torsion>
0.3752

> <Gold.PLP.Chemscore.Hbond>
3.1050

> <Gold.PLP.Chemscore.CHOScore>
0.9412

> <Gold.PLP.Chemscore.Metal>
0.0000

> <Gold.Chemscore.Hbonds>
donor molecule, donor type, donor heavy atom, donor atom, acceptor molecule, acceptor atom, score
      L1  H     3    20       P1  7948  1.31
      L1  H     3    34       P1  7957  0.93
      L1  H    14    33       P1 10175  0.84
      L1  C     9    29       P1  8028  0.91

> <Gold.PLP.Chemscore.Internal.Correction>
0.0861

> <Gold.Rescore>
     Score         DG    S(hbond)    S(metal)    S(lipo)     H(rot)  DE(clash)    DE(int)     intcor
     15.08     -16.35       2.77        0.00      67.36       2.45       0.66       0.60       ----

> <Gold.Chemscore.Fitness>
15.0817

> <Gold.Chemscore.DG>
-16.3484

> <Gold.Chemscore.ZeroCoef>
-5.4800

> <Gold.Chemscore.Hbond>
2.7696

> <Gold.Chemscore.Metal>
0.0000

> <Gold.Chemscore.Lipo>
67.3609

> <Gold.Chemscore.Internal_Hbond>
0.0000

> <Gold.Chemscore.DEClash>
0.6648

> <Gold.Chemscore.DEInternal>
0.6019

> <Gold.Chemscore.Rot>
2.4465

> <Gold.Chemscore.Internal.Correction>
   9.000000E+99

> <Gold.Chemscore.Hbonds>
donor molecule, donor type, donor heavy atom, donor atom, acceptor molecule, acceptor atom, score
      L1  H     3    20       P1  7948  0.64
      L1  H     3    34       P1  7957  0.89
      L1  H    14    33       P1 10175  0.79

> <Gold.Chemscore.Hbond.Weighted>
-9.2503

> <Gold.Chemscore.Metal.Weighted>
-0.0000

> <Gold.Chemscore.Lipo.Weighted>
-7.8812

> <Gold.Chemscore.Internal_Hbond.Weighted>
0.0000

> <Gold.Chemscore.DEClash.Weighted>
0.6648

> <Gold.Chemscore.DEInternal.Weighted>
0.6019

> <Gold.Chemscore.Rot.Weighted>
6.2631

> <Gold.Chemscore.Internal.Correction.Weighted>
   9.000000E+99

> <Gold.Protein.RotatedTorsions>
[ 6907 6896 6895 6894 ] final  117.79 input  -60.11 | X-H torsion
[ 7974 7965 7964 7962 ] final    6.06 input  175.53 | X-H torsion
[ 8008 7997 7996 7995 ] final -157.67 input   59.86 | X-H torsion
[ 10167 10162 10161 10158 ] final   27.56 input  -65.29 | X-H torsion
[ 10718 10713 10712 10709 ] final -156.04 input   66.30 | X-H torsion
[ 10763 10752 10751 10750 ] final   73.74 input  -60.55 | X-H torsion
[ 11005 11000 10999 10996 ] final -121.89 input  -57.11 | X-H torsion

> <Gold.Protein.ActiveResidues>
 VAL166  LYS551  ARG553  GLY616  TRP617  ASP618  TYR619  PRO620  LYS621  CYS622 
 ASP623  PHE694  ASN695  SER759  ASP760  ASP761  ALA762  ILE779  LEU786  VAL792 
 PHE793  MET794  SER795  GLU796  ALA797  LYS798  CYS799  TRP800  GLU811  SER814 

> <Gold.Protein.RotatedAtoms>
  152.4588  133.7778  159.6833 H   0  0  0  0  0  0  0  0  0  0  0  0  # atno 6907 bound_to 6896
  150.8524  133.7757  159.3027 H   0  0  0  0  0  0  0  0  0  0  0  0  # atno 6908 bound_to 6896
  151.5348  135.1071  159.9963 H   0  0  0  0  0  0  0  0  0  0  0  0  # atno 6909 bound_to 6896
  146.2437  140.0290  142.8391 H   0  0  0  0  0  0  0  0  0  0  0  0  # atno 7974 bound_to 7965
  155.7359  140.0808  157.2268 H   0  0  0  0  0  0  0  0  0  0  0  0  # atno 8008 bound_to 7997
  154.4027  140.1586  156.2616 H   0  0  0  0  0  0  0  0  0  0  0  0  # atno 8009 bound_to 7997
  155.9065  140.3406  155.6069 H   0  0  0  0  0  0  0  0  0  0  0  0  # atno 8010 bound_to 7997
  140.4927  144.0440  150.6303 H   0  0  0  0  0  0  0  0  0  0  0  0  # atno 10167 bound_to 10162
  156.5211  130.8478  151.2682 H   0  0  0  0  0  0  0  0  0  0  0  0  # atno 10718 bound_to 10713
  153.0541  135.5052  154.7938 H   0  0  0  0  0  0  0  0  0  0  0  0  # atno 10763 bound_to 10752
  154.6778  135.2963  154.9657 H   0  0  0  0  0  0  0  0  0  0  0  0  # atno 10764 bound_to 10752
  154.0454  135.6711  153.4847 H   0  0  0  0  0  0  0  0  0  0  0  0  # atno 10765 bound_to 10752
  141.0037  134.0366  157.3505 H   0  0  0  0  0  0  0  0  0  0  0  0  # atno 11005 bound_to 11000
  145.1172  140.9440  143.4622 LP  0  0  0  0  0  0  0  0  0  0  0  0  # atno 17320 bound_to 7965
  145.0517  139.3176  143.5925 LP  0  0  0  0  0  0  0  0  0  0  0  0  # atno 17321 bound_to 7965
  140.3714  143.2852  152.0274 LP  0  0  0  0  0  0  0  0  0  0  0  0  # atno 17342 bound_to 10162
  139.4855  144.6227  151.7225 LP  0  0  0  0  0  0  0  0  0  0  0  0  # atno 17343 bound_to 10162
  157.7436  130.9917  150.2610 LP  0  0  0  0  0  0  0  0  0  0  0  0  # atno 17370 bound_to 10713
  156.3148  130.3777  149.7628 LP  0  0  0  0  0  0  0  0  0  0  0  0  # atno 17371 bound_to 10713
  139.9052  135.0177  156.7452 LP  0  0  0  0  0  0  0  0  0  0  0  0  # atno 17394 bound_to 11000
  140.6848  133.9442  155.7931 LP  0  0  0  0  0  0  0  0  0  0  0  0  # atno 17395 bound_to 11000

$$$$
