AV-unprocessed.smi:2385|AV-procd|sdf|9463|dock6
  -GOLD-   2272013 93D 1   1.00000     0.00000
 Structure written by MMmdl.
 50 52  0  0  0  0  0  0  0  0  2 V2000
  152.0683  144.7279  159.8521 C   0  0  0  0  0  0  0  0  0  0  0  0
  151.4798  143.5411  159.1187 C   0  0  0  0  0  0  0  0  0  0  0  0
  152.1261  142.2907  159.1215 C   0  0  0  0  0  0  0  0  0  0  0  0
  151.5347  141.2198  158.4241 C   0  0  0  0  0  0  0  0  0  0  0  0
  150.3156  141.4238  157.7392 C   0  0  0  0  0  0  0  0  0  0  0  0
  149.8032  140.2799  157.0711 N   0  0  0  0  0  0  0  0  0  0  0  0
  148.7396  140.2025  156.2519 C   0  0  0  0  0  0  0  0  0  0  0  0
  148.0266  141.1508  155.9230 O   0  0  0  0  0  0  0  0  0  0  0  0
  148.5470  138.9422  155.8278 N   0  0  0  0  0  0  0  0  0  0  0  0
  147.4966  138.4535  154.9315 C   0  0  2  0  0  0  0  0  0  0  0  0
  147.3714  136.9174  154.9391 C   0  0  0  0  0  0  0  0  0  0  0  0
  146.2367  136.4562  154.0092 C   0  0  0  0  0  0  0  0  0  0  0  0
  146.4347  136.9679  152.6274 N   0  3  1  0  0  0  0  0  0  0  0  0
  145.4504  136.4169  151.6603 C   0  0  0  0  0  0  0  0  0  0  0  0
  145.8958  135.0542  151.0962 C   0  0  2  0  0  0  0  0  0  0  0  0
  144.8074  134.2320  150.4326 C   0  0  0  0  0  0  0  0  0  0  0  0
  145.3994  132.8251  150.4593 C   0  0  0  0  0  0  0  0  0  0  0  0
  146.2653  132.7837  151.5897 O   0  0  0  0  0  0  0  0  0  0  0  0
  146.3643  134.0775  152.1743 C   0  0  0  0  0  0  0  0  0  0  0  0
  146.5074  138.4532  152.6004 C   0  0  0  0  0  0  0  0  0  0  0  0
  147.6537  138.9669  153.4866 C   0  0  0  0  0  0  0  0  0  0  0  0
  149.7021  142.6334  157.7397 N   0  0  0  0  0  0  0  0  0  0  0  0
  150.2688  143.6592  158.4095 C   0  0  0  0  0  0  0  0  0  0  0  0
  152.7646  144.4042  160.6264 H   0  0  0  0  0  0  0  0  0  0  0  0
  151.2810  145.3135  160.3277 H   0  0  0  0  0  0  0  0  0  0  0  0
  152.6041  145.3728  159.1555 H   0  0  0  0  0  0  0  0  0  0  0  0
  153.0581  142.1499  159.6489 H   0  0  0  0  0  0  0  0  0  0  0  0
  152.0164  140.2527  158.4191 H   0  0  0  0  0  0  0  0  0  0  0  0
  150.3003  139.4190  157.2452 H   0  0  0  0  0  0  0  0  0  0  0  0
  149.1962  138.2446  156.1620 H   0  0  0  0  0  0  0  0  0  0  0  0
  146.5662  138.8626  155.3277 H   0  0  0  0  0  0  0  0  0  0  0  0
  148.3027  136.4528  154.6144 H   0  0  0  0  0  0  0  0  0  0  0  0
  147.1851  136.5607  155.9527 H   0  0  0  0  0  0  0  0  0  0  0  0
  146.2109  135.3658  153.9980 H   0  0  0  0  0  0  0  0  0  0  0  0
  145.2721  136.7949  154.3906 H   0  0  0  0  0  0  0  0  0  0  0  0
  144.4936  136.2653  152.1623 H   0  0  0  0  0  0  0  0  0  0  0  0
  145.2497  137.1313  150.8600 H   0  0  0  0  0  0  0  0  0  0  0  0
  146.7132  135.2000  150.3876 H   0  0  0  0  0  0  0  0  0  0  0  0
  143.8922  134.2605  151.0259 H   0  0  0  0  0  0  0  0  0  0  0  0
  144.5721  134.5653  149.4214 H   0  0  0  0  0  0  0  0  0  0  0  0
  144.6309  132.0540  150.5181 H   0  0  0  0  0  0  0  0  0  0  0  0
  145.9927  132.6432  149.5625 H   0  0  0  0  0  0  0  0  0  0  0  0
  147.3800  134.2831  152.5135 H   0  0  0  0  0  0  0  0  0  0  0  0
  145.7048  134.1146  153.0427 H   0  0  0  0  0  0  0  0  0  0  0  0
  146.6580  138.8051  151.5806 H   0  0  0  0  0  0  0  0  0  0  0  0
  145.5577  138.8712  152.9385 H   0  0  0  0  0  0  0  0  0  0  0  0
  147.6687  140.0573  153.4754 H   0  0  0  0  0  0  0  0  0  0  0  0
  148.6022  138.6400  153.0595 H   0  0  0  0  0  0  0  0  0  0  0  0
  149.7387  144.5998  158.3777 H   0  0  0  0  0  0  0  0  0  0  0  0
  147.3383  136.6248  152.3339 H   0  0  0  0  0  0  0  0  0  0  0  0
  1  2  1  0  0  0  0
  1 24  1  0  0  0  0
  1 25  1  0  0  0  0
  1 26  1  0  0  0  0
  2 23  1  0  0  0  0
  2  3  2  0  0  0  0
  3  4  1  0  0  0  0
  3 27  1  0  0  0  0
  4  5  2  0  0  0  0
  4 28  1  0  0  0  0
  5  6  1  0  0  0  0
  5 22  1  0  0  0  0
  6  7  1  0  0  0  0
  6 29  1  0  0  0  0
  7  8  2  0  0  0  0
  7  9  1  0  0  0  0
  9 10  1  0  0  0  0
  9 30  1  0  0  0  0
 10 21  1  0  0  0  0
 10 11  1  0  0  0  0
 10 31  1  0  0  0  0
 11 12  1  0  0  0  0
 11 32  1  0  0  0  0
 11 33  1  0  0  0  0
 12 13  1  0  0  0  0
 12 34  1  0  0  0  0
 12 35  1  0  0  0  0
 13 14  1  0  0  0  0
 13 20  1  0  0  0  0
 13 50  1  0  0  0  0
 14 15  1  0  0  0  0
 14 36  1  0  0  0  0
 14 37  1  0  0  0  0
 15 19  1  0  0  0  0
 15 16  1  0  0  0  0
 15 38  1  0  0  0  0
 16 17  1  0  0  0  0
 16 39  1  0  0  0  0
 16 40  1  0  0  0  0
 17 18  1  0  0  0  0
 17 41  1  0  0  0  0
 17 42  1  0  0  0  0
 18 19  1  0  0  0  0
 19 43  1  0  0  0  0
 19 44  1  0  0  0  0
 20 21  1  0  0  0  0
 20 45  1  0  0  0  0
 20 46  1  0  0  0  0
 21 47  1  0  0  0  0
 21 48  1  0  0  0  0
 22 23  2  0  0  0  0
 23 49  1  0  0  0  0
M  CHG  1  13   1
M  END
> <s_m_source_file>
AV-unprocessed.smi

> <i_m_source_file_index>
2385

> <i_lp_mmshare_version>
43012

> <i_f3d_flags>
0

> <s_epik_input>
W0NIM11jMVtjSF1bY0hdYyhuW2NIXTEpW05IXUMoPU8pW05IXVtDSF0yW0NIMl1bQ0gyXU4oW0NIMl1bQ0gyXTIpW0NIMl1bQ0BASF0zW0NIMl1bQ0gyXU9bQ0gyXTM=

> <s_epik_cmdline>
J2VwaWtfcHl0aG9uJywgJy1waCcsICc3LjAnLCAnLXRuJywgJzgnLCAnLW1hJywgJzIwMCcsICctbWV0YWxfYmluZGluZycsICctaW1hZScsICc8aW5maWxlLm1hZT4nLCAnLW9tYWUnLCAnPG91dGZpbGUubWFlPic=

> <r_epik_Ionization_Penalty>
0.00752367

> <r_epik_Ionization_Penalty_Charging>
0.00747775

> <r_epik_Ionization_Penalty_Neutral>
4.59207e-05

> <r_epik_State_Penalty>
0.00558817

> <r_epik_Charging_Adjusted_Penalty>
0.0130659

> <i_epik_Tot_Q>
1

> <i_epik_Tot_abs_Q>
1

> <r_epik_Metal_State_Penalty>
-0

> <b_epik_Metal_Only>
0

> <s_lp_Force_Field>
OPLS_2005

> <r_lp_Energy>
37.2882

> <b_lp_Chiralities_Consistent>
1

> <s_lp_Variant>
AV-unprocessed.smi:2385-1

> <Gold.Version>
5.8.1

> <Gold.Id.Protein>
6NUR|6NUR_protein|mol2

> <Gold.PLP.Fitness>
40.9161

> <Gold.PLP.PLP>
-32.9629

> <Gold.PLP.part.hbond>
-1.0000

> <Gold.PLP.part.metal>
0.0000

> <Gold.PLP.part.buried>
-5.3535

> <Gold.PLP.part.nonpolar>
-28.1374

> <Gold.PLP.part.repulsive>
1.0107

> <Gold.PLP.ligand.clash>
0.0000

> <Gold.PLP.ligand.torsion>
0.5969

> <Gold.PLP.Chemscore.Hbond>
2.0000

> <Gold.PLP.Chemscore.CHOScore>
1.0357

> <Gold.PLP.Chemscore.Metal>
0.0000

> <Gold.Chemscore.Hbonds>
donor molecule, donor type, donor heavy atom, donor atom, acceptor molecule, acceptor atom, score
      L1  H    13    50       P1  7948  2.00
      L1  C    23    49       P1  8028  0.05
      L1  C    23    49       P1  8029  1.00

> <Gold.PLP.Chemscore.Internal.Correction>
0.0398

> <Gold.Rescore>
     Score         DG    S(hbond)    S(metal)    S(lipo)     H(rot)  DE(clash)    DE(int)     intcor
     14.84     -16.78       1.00        0.00      98.77       1.41       0.05       1.89       ----

> <Gold.Chemscore.Fitness>
14.8378

> <Gold.Chemscore.DG>
-16.7780

> <Gold.Chemscore.ZeroCoef>
-5.4800

> <Gold.Chemscore.Hbond>
1.0000

> <Gold.Chemscore.Metal>
0.0000

> <Gold.Chemscore.Lipo>
98.7715

> <Gold.Chemscore.Internal_Hbond>
0.0000

> <Gold.Chemscore.DEClash>
0.0472

> <Gold.Chemscore.DEInternal>
1.8929

> <Gold.Chemscore.Rot>
1.4056

> <Gold.Chemscore.Internal.Correction>
   9.000000E+99

> <Gold.Chemscore.Hbonds>
donor molecule, donor type, donor heavy atom, donor atom, acceptor molecule, acceptor atom, score
      L1  H    13    50       P1  7948  1.00

> <Gold.Chemscore.Hbond.Weighted>
-3.3400

> <Gold.Chemscore.Metal.Weighted>
-0.0000

> <Gold.Chemscore.Lipo.Weighted>
-11.5563

> <Gold.Chemscore.Internal_Hbond.Weighted>
0.0000

> <Gold.Chemscore.DEClash.Weighted>
0.0472

> <Gold.Chemscore.DEInternal.Weighted>
1.8929

> <Gold.Chemscore.Rot.Weighted>
3.5982

> <Gold.Chemscore.Internal.Correction.Weighted>
   9.000000E+99

> <Gold.Protein.RotatedTorsions>
[ 6907 6896 6895 6894 ] final -170.18 input  -60.11 | X-H torsion
[ 7974 7965 7964 7962 ] final    0.18 input  175.53 | X-H torsion
[ 8008 7997 7996 7995 ] final  -33.05 input   59.86 | X-H torsion
[ 10167 10162 10161 10158 ] final -108.19 input  -65.29 | X-H torsion
[ 10718 10713 10712 10709 ] final -112.38 input   66.30 | X-H torsion
[ 10763 10752 10751 10750 ] final   46.35 input  -60.55 | X-H torsion
[ 11005 11000 10999 10996 ] final -134.48 input  -57.11 | X-H torsion

> <Gold.Protein.ActiveResidues>
 VAL166  LYS551  ARG553  GLY616  TRP617  ASP618  TYR619  PRO620  LYS621  CYS622 
 ASP623  PHE694  ASN695  SER759  ASP760  ASP761  ALA762  ILE779  LEU786  VAL792 
 PHE793  MET794  SER795  GLU796  ALA797  LYS798  CYS799  TRP800  GLU811  SER814 

> <Gold.Protein.RotatedAtoms>
  151.5035  133.3499  159.2872 H   0  0  0  0  0  0  0  0  0  0  0  0  # atno 6907 bound_to 6896
  150.8757  134.8142  159.7199 H   0  0  0  0  0  0  0  0  0  0  0  0  # atno 6908 bound_to 6896
  152.4729  134.4926  159.9752 H   0  0  0  0  0  0  0  0  0  0  0  0  # atno 6909 bound_to 6896
  146.2432  140.1176  142.8341 H   0  0  0  0  0  0  0  0  0  0  0  0  # atno 7974 bound_to 7965
  154.4161  140.1721  156.1825 H   0  0  0  0  0  0  0  0  0  0  0  0  # atno 8008 bound_to 7997
  155.9670  140.3389  155.6517 H   0  0  0  0  0  0  0  0  0  0  0  0  # atno 8009 bound_to 7997
  155.6675  140.0708  157.2523 H   0  0  0  0  0  0  0  0  0  0  0  0  # atno 8010 bound_to 7997
  140.1688  143.4059  152.1370 H   0  0  0  0  0  0  0  0  0  0  0  0  # atno 10167 bound_to 10162
  156.0702  130.5917  150.8501 H   0  0  0  0  0  0  0  0  0  0  0  0  # atno 10718 bound_to 10713
  152.9812  135.6011  154.3585 H   0  0  0  0  0  0  0  0  0  0  0  0  # atno 10763 bound_to 10752
  154.3269  135.2769  155.2493 H   0  0  0  0  0  0  0  0  0  0  0  0  # atno 10764 bound_to 10752
  154.4635  135.5960  153.6327 H   0  0  0  0  0  0  0  0  0  0  0  0  # atno 10765 bound_to 10752
  140.8986  134.1719  157.4477 H   0  0  0  0  0  0  0  0  0  0  0  0  # atno 11005 bound_to 11000
  145.0434  140.8963  143.5039 LP  0  0  0  0  0  0  0  0  0  0  0  0  # atno 17320 bound_to 7965
  145.1260  139.2662  143.5564 LP  0  0  0  0  0  0  0  0  0  0  0  0  # atno 17321 bound_to 7965
  139.5347  144.7197  151.4934 LP  0  0  0  0  0  0  0  0  0  0  0  0  # atno 17342 bound_to 10162
  140.6595  143.8528  150.6872 LP  0  0  0  0  0  0  0  0  0  0  0  0  # atno 17343 bound_to 10162
  157.5769  131.0946  150.9332 LP  0  0  0  0  0  0  0  0  0  0  0  0  # atno 17370 bound_to 10713
  156.9536  130.5429  149.5283 LP  0  0  0  0  0  0  0  0  0  0  0  0  # atno 17371 bound_to 10713
  139.8739  134.9888  156.5431 LP  0  0  0  0  0  0  0  0  0  0  0  0  # atno 17394 bound_to 11000
  140.8258  133.8318  155.8938 LP  0  0  0  0  0  0  0  0  0  0  0  0  # atno 17395 bound_to 11000

$$$$
