AV-unprocessed.smi:1224|AV-procd|sdf|5132|dock8
  -GOLD-   22720 4193D 1   1.00000     0.00000
 Structure written by MMmdl.
 43 45  0  0  0  0  0  0  0  0  1 V2000
  152.9142  143.4618  161.1582 C   0  0  0  0  0  0  0  0  0  0  0  0
  152.2995  142.9854  159.8538 C   0  0  0  0  0  0  0  0  0  0  0  0
  152.7158  141.7496  159.3089 C   0  0  0  0  0  0  0  0  0  0  0  0
  152.1684  141.2705  158.0985 C   0  0  0  0  0  0  0  0  0  0  0  0
  152.4245  140.1064  157.3942 N   0  0  0  0  0  0  0  0  0  0  0  0
  151.6033  140.2355  156.3558 C   0  0  0  0  0  0  0  0  0  0  0  0
  150.8454  141.3477  156.3040 N   0  0  0  0  0  0  0  0  0  0  0  0
  149.8844  141.7090  155.2770 C   0  0  0  0  0  0  0  0  0  0  0  0
  149.2118  140.4781  154.6401 C   0  0  2  0  0  0  0  0  0  0  0  0
  150.1285  139.8594  153.7586 O   0  0  0  0  0  0  0  0  0  0  0  0
  147.9566  140.8648  153.8411 C   0  0  0  0  0  0  0  0  0  0  0  0
  147.5682  139.8014  152.9195 N   0  0  0  0  0  0  0  0  0  0  0  0
  146.8707  138.6996  153.5722 C   0  0  0  0  0  0  0  0  0  0  0  0
  146.1997  137.8056  152.5842 C   0  0  0  0  0  0  0  0  0  0  0  0
  145.4383  136.6936  152.8409 C   0  0  0  0  0  0  0  0  0  0  0  0
  144.9395  136.0701  151.6596 C   0  0  0  0  0  0  0  0  0  0  0  0
  145.3270  136.7150  150.5152 C   0  0  0  0  0  0  0  0  0  0  0  0
  146.3154  138.1059  150.8683 S   0  0  0  0  0  0  0  0  0  0  0  0
  151.1856  142.0683  157.4431 C   0  0  0  0  0  0  0  0  0  0  0  0
  150.7626  143.2990  157.9751 C   0  0  0  0  0  0  0  0  0  0  0  0
  151.3196  143.7626  159.1854 C   0  0  0  0  0  0  0  0  0  0  0  0
  150.8549  145.0920  159.7530 C   0  0  0  0  0  0  0  0  0  0  0  0
  153.6506  142.7513  161.5344 H   0  0  0  0  0  0  0  0  0  0  0  0
  152.1451  143.5822  161.9213 H   0  0  0  0  0  0  0  0  0  0  0  0
  153.4162  144.4191  161.0168 H   0  0  0  0  0  0  0  0  0  0  0  0
  153.4613  141.1565  159.8179 H   0  0  0  0  0  0  0  0  0  0  0  0
  151.5470  139.4770  155.5887 H   0  0  0  0  0  0  0  0  0  0  0  0
  149.1332  142.3563  155.7314 H   0  0  0  0  0  0  0  0  0  0  0  0
  150.3907  142.3053  154.5164 H   0  0  0  0  0  0  0  0  0  0  0  0
  148.9478  139.7710  155.4284 H   0  0  0  0  0  0  0  0  0  0  0  0
  149.7456  139.8460  152.8945 H   0  0  0  0  0  0  0  0  0  0  0  0
  147.1356  141.0413  154.5375 H   0  0  0  0  0  0  0  0  0  0  0  0
  148.1153  141.8037  153.3085 H   0  0  0  0  0  0  0  0  0  0  0  0
  148.3975  139.4446  152.4555 H   0  0  0  0  0  0  0  0  0  0  0  0
  147.5721  138.1203  154.1740 H   0  0  0  0  0  0  0  0  0  0  0  0
  146.1235  139.0909  154.2633 H   0  0  0  0  0  0  0  0  0  0  0  0
  145.2229  136.3111  153.8275 H   0  0  0  0  0  0  0  0  0  0  0  0
  144.3225  135.1843  151.6902 H   0  0  0  0  0  0  0  0  0  0  0  0
  145.0935  136.4600  149.4919 H   0  0  0  0  0  0  0  0  0  0  0  0
  150.0146  143.8796  157.4557 H   0  0  0  0  0  0  0  0  0  0  0  0
  150.1157  145.5646  159.1055 H   0  0  0  0  0  0  0  0  0  0  0  0
  151.6952  145.7787  159.8576 H   0  0  0  0  0  0  0  0  0  0  0  0
  150.3993  144.9492  160.7330 H   0  0  0  0  0  0  0  0  0  0  0  0
  1  2  1  0  0  0  0
  1 23  1  0  0  0  0
  1 24  1  0  0  0  0
  1 25  1  0  0  0  0
  2 21  1  0  0  0  0
  2  3  2  0  0  0  0
  3  4  1  0  0  0  0
  3 26  1  0  0  0  0
  4 19  2  0  0  0  0
  4  5  1  0  0  0  0
  5  6  2  0  0  0  0
  6  7  1  0  0  0  0
  6 27  1  0  0  0  0
  7  8  1  0  0  0  0
  7 19  1  0  0  0  0
  8  9  1  0  0  0  0
  8 28  1  0  0  0  0
  8 29  1  0  0  0  0
  9 10  1  0  0  0  0
  9 11  1  0  0  0  0
  9 30  1  0  0  0  0
 10 31  1  0  0  0  0
 11 12  1  0  0  0  0
 11 32  1  0  0  0  0
 11 33  1  0  0  0  0
 12 13  1  0  0  0  0
 12 34  1  0  0  0  0
 13 14  1  0  0  0  0
 13 35  1  0  0  0  0
 13 36  1  0  0  0  0
 14 18  1  0  0  0  0
 14 15  2  0  0  0  0
 15 16  1  0  0  0  0
 15 37  1  0  0  0  0
 16 17  2  0  0  0  0
 16 38  1  0  0  0  0
 17 18  1  0  0  0  0
 17 39  1  0  0  0  0
 19 20  1  0  0  0  0
 20 21  2  0  0  0  0
 20 40  1  0  0  0  0
 21 22  1  0  0  0  0
 22 41  1  0  0  0  0
 22 42  1  0  0  0  0
 22 43  1  0  0  0  0
M  END
> <s_m_source_file>
AV-unprocessed.smi

> <i_m_source_file_index>
1224

> <i_lp_mmshare_version>
43012

> <i_f3d_flags>
0

> <s_epik_input>
W0NIM11jKFtjSF0xKWMoW0NIM10pW2NIXWMoYzEyKW4oW2NIXW4yKVtDSDJdW0NASF0oW09IXSlbQ0gyXVtOSF1bQ0gyXWMzW2NIXVtjSF1bY0hdczM=

> <s_epik_cmdline>
J2VwaWtfcHl0aG9uJywgJy1waCcsICc3LjAnLCAnLXRuJywgJzgnLCAnLW1hJywgJzIwMCcsICctbWV0YWxfYmluZGluZycsICctaW1hZScsICc8aW5maWxlLm1hZT4nLCAnLW9tYWUnLCAnPG91dGZpbGUubWFlPic=

> <r_epik_Ionization_Penalty>
1.55566

> <r_epik_Ionization_Penalty_Charging>
0

> <r_epik_Ionization_Penalty_Neutral>
1.55566

> <r_epik_State_Penalty>
1.63945

> <r_epik_Charging_Adjusted_Penalty>
1.63945

> <i_epik_Tot_Q>
0

> <i_epik_Tot_abs_Q>
0

> <r_epik_Metal_State_Penalty>
1.52326

> <b_epik_Metal_Only>
0

> <s_lp_Force_Field>
OPLS_2005

> <r_lp_Energy>
13.7285

> <b_lp_Chiralities_Consistent>
1

> <s_lp_Variant>
AV-unprocessed.smi:1224-5

> <Gold.Version>
5.8.1

> <Gold.Id.Protein>
6NUR|6NUR_protein|mol2

> <Gold.PLP.Fitness>
57.2752

> <Gold.PLP.PLP>
-44.7271

> <Gold.PLP.part.hbond>
-4.0000

> <Gold.PLP.part.metal>
0.0000

> <Gold.PLP.part.buried>
6.9724

> <Gold.PLP.part.nonpolar>
-47.6839

> <Gold.PLP.part.repulsive>
0.0000

> <Gold.PLP.ligand.clash>
0.0000

> <Gold.PLP.ligand.torsion>
0.7660

> <Gold.PLP.Chemscore.Hbond>
3.6640

> <Gold.PLP.Chemscore.CHOScore>
1.0000

> <Gold.PLP.Chemscore.Metal>
0.0000

> <Gold.Chemscore.Hbonds>
donor molecule, donor type, donor heavy atom, donor atom, acceptor molecule, acceptor atom, score
      L1  H    10    31       P1  7957  1.00
      L1  H    12    34       P1  7957  0.75
      P1  H  7989  7998       L1    10  0.86
      P1  H  7997  8010       L1     5  0.84
      L1  C    17    39       P1  7921  0.65

> <Gold.PLP.Chemscore.Internal.Correction>
0.0882

> <Gold.Rescore>
     Score         DG    S(hbond)    S(metal)    S(lipo)     H(rot)  DE(clash)    DE(int)     intcor
     21.19     -25.33       2.93        0.00     136.81       2.32       3.23       0.91       ----

> <Gold.Chemscore.Fitness>
21.1920

> <Gold.Chemscore.DG>
-25.3335

> <Gold.Chemscore.ZeroCoef>
-5.4800

> <Gold.Chemscore.Hbond>
2.9277

> <Gold.Chemscore.Metal>
0.0000

> <Gold.Chemscore.Lipo>
136.8149

> <Gold.Chemscore.Internal_Hbond>
0.0000

> <Gold.Chemscore.DEClash>
3.2326

> <Gold.Chemscore.DEInternal>
0.9090

> <Gold.Chemscore.Rot>
2.3173

> <Gold.Chemscore.Internal.Correction>
   9.000000E+99

> <Gold.Chemscore.Hbonds>
donor molecule, donor type, donor heavy atom, donor atom, acceptor molecule, acceptor atom, score
      L1  H    10    31       P1  7957  0.99
      L1  H    12    34       P1  7957  0.74
      P1  H  7989  7998       L1    10  0.22
      P1  H  7997  8010       L1     5  0.35

> <Gold.Chemscore.Hbond.Weighted>
-9.7786

> <Gold.Chemscore.Metal.Weighted>
-0.0000

> <Gold.Chemscore.Lipo.Weighted>
-16.0073

> <Gold.Chemscore.Internal_Hbond.Weighted>
0.0000

> <Gold.Chemscore.DEClash.Weighted>
3.2326

> <Gold.Chemscore.DEInternal.Weighted>
0.9090

> <Gold.Chemscore.Rot.Weighted>
5.9324

> <Gold.Chemscore.Internal.Correction.Weighted>
   9.000000E+99

> <Gold.Protein.RotatedTorsions>
[ 6907 6896 6895 6894 ] final  -32.81 input  -60.11 | X-H torsion
[ 7974 7965 7964 7962 ] final  172.07 input  175.53 | X-H torsion
[ 8008 7997 7996 7995 ] final   62.99 input   59.86 | X-H torsion
[ 10167 10162 10161 10158 ] final -147.84 input  -65.29 | X-H torsion
[ 10718 10713 10712 10709 ] final   89.97 input   66.30 | X-H torsion
[ 10763 10752 10751 10750 ] final  175.66 input  -60.55 | X-H torsion
[ 11005 11000 10999 10996 ] final    4.95 input  -57.11 | X-H torsion

> <Gold.Protein.ActiveResidues>
 VAL166  LYS551  ARG553  GLY616  TRP617  ASP618  TYR619  PRO620  LYS621  CYS622 
 ASP623  PHE694  ASN695  SER759  ASP760  ASP761  ALA762  ILE779  LEU786  VAL792 
 PHE793  MET794  SER795  GLU796  ALA797  LYS798  CYS799  TRP800  GLU811  SER814 

> <Gold.Protein.RotatedAtoms>
  151.0738  134.9815  159.8321 H   0  0  0  0  0  0  0  0  0  0  0  0  # atno 6907 bound_to 6896
  152.5411  134.2266  159.8818 H   0  0  0  0  0  0  0  0  0  0  0  0  # atno 6908 bound_to 6896
  151.2292  133.4416  159.2637 H   0  0  0  0  0  0  0  0  0  0  0  0  # atno 6909 bound_to 6896
  144.7278  139.9444  143.6430 H   0  0  0  0  0  0  0  0  0  0  0  0  # atno 7974 bound_to 7965
  155.6232  140.3496  155.4658 H   0  0  0  0  0  0  0  0  0  0  0  0  # atno 8008 bound_to 7997
  156.0063  140.1223  157.0522 H   0  0  0  0  0  0  0  0  0  0  0  0  # atno 8009 bound_to 7997
  154.4265  140.1090  156.5752 H   0  0  0  0  0  0  0  0  0  0  0  0  # atno 8010 bound_to 7997
  139.7586  143.8411  152.2602 H   0  0  0  0  0  0  0  0  0  0  0  0  # atno 10167 bound_to 10162
  157.6957  131.0353  150.3507 H   0  0  0  0  0  0  0  0  0  0  0  0  # atno 10718 bound_to 10713
  154.4706  135.2771  155.1645 H   0  0  0  0  0  0  0  0  0  0  0  0  # atno 10763 bound_to 10752
  154.3395  135.6173  153.5593 H   0  0  0  0  0  0  0  0  0  0  0  0  # atno 10764 bound_to 10752
  152.9864  135.5785  154.5087 H   0  0  0  0  0  0  0  0  0  0  0  0  # atno 10765 bound_to 10752
  140.5761  134.0056  155.8028 H   0  0  0  0  0  0  0  0  0  0  0  0  # atno 11005 bound_to 11000
  146.0760  139.3748  143.0494 LP  0  0  0  0  0  0  0  0  0  0  0  0  # atno 17320 bound_to 7965
  145.7905  140.9816  143.1051 LP  0  0  0  0  0  0  0  0  0  0  0  0  # atno 17321 bound_to 7965
  139.8410  144.7210  150.9331 LP  0  0  0  0  0  0  0  0  0  0  0  0  # atno 17342 bound_to 10162
  140.7805  143.3983  151.1192 LP  0  0  0  0  0  0  0  0  0  0  0  0  # atno 17343 bound_to 10162
  156.3956  130.3906  149.6997 LP  0  0  0  0  0  0  0  0  0  0  0  0  # atno 17370 bound_to 10713
  156.4332  130.7825  151.2845 LP  0  0  0  0  0  0  0  0  0  0  0  0  # atno 17371 bound_to 10713
  141.1025  133.9745  157.3054 LP  0  0  0  0  0  0  0  0  0  0  0  0  # atno 17394 bound_to 11000
  139.9339  135.0198  156.8490 LP  0  0  0  0  0  0  0  0  0  0  0  0  # atno 17395 bound_to 11000

$$$$
