AV-unprocessed.smi:1865|AV-procd|sdf|7554|dock9
  -GOLD-   22720 9273D 1   1.00000     0.00000
 Structure written by MMmdl.
 40 41  0  0  0  0  0  0  0  0  1 V2000
  154.7653  139.2231  158.8017 O   0  0  0  0  0  0  0  0  0  0  0  0
  154.1971  139.5175  159.8538 C   0  0  0  0  0  0  0  0  0  0  0  0
  154.0526  140.9828  160.2765 C   0  0  0  0  0  0  0  0  0  0  0  0
  153.1562  141.7980  159.3247 C   0  0  0  0  0  0  0  0  0  0  0  0
  153.0101  143.2705  159.7482 C   0  0  0  0  0  0  0  0  0  0  0  0
  152.4514  143.4462  161.1615 C   0  0  0  0  0  0  0  0  0  0  0  0
  151.9678  144.8975  161.2067 C   0  0  0  0  0  0  0  0  0  0  0  0
  151.5958  145.2646  159.7626 C   0  0  0  0  0  0  0  0  0  0  0  0
  152.0376  144.0845  158.8868 C   0  0  0  0  0  0  0  0  0  0  0  0
  153.6832  138.6041  160.6917 N   0  0  0  0  0  0  0  0  0  0  0  0
  153.7291  137.1608  160.4892 C   0  0  0  0  0  0  0  0  0  0  0  0
  155.1716  136.6291  160.5047 C   0  0  0  0  0  0  0  0  0  0  0  0
  155.6416  136.3013  161.9082 C   0  0  0  0  0  0  0  0  0  0  0  0
  155.6446  137.2833  162.9199 C   0  0  0  0  0  0  0  0  0  0  0  0
  156.0960  136.9303  164.2062 C   0  0  0  0  0  0  0  0  0  0  0  0
  156.5270  135.6068  164.4259 C   0  0  0  0  0  0  0  0  0  0  0  0
  156.5296  134.6584  163.4642 N   0  0  0  0  0  0  0  0  0  0  0  0
  156.0947  135.0051  162.2337 C   0  0  0  0  0  0  0  0  0  0  0  0
  153.6459  141.0285  161.2880 H   0  0  0  0  0  0  0  0  0  0  0  0
  155.0501  141.4208  160.3201 H   0  0  0  0  0  0  0  0  0  0  0  0
  153.5485  141.7506  158.3077 H   0  0  0  0  0  0  0  0  0  0  0  0
  152.1653  141.3421  159.2899 H   0  0  0  0  0  0  0  0  0  0  0  0
  153.9892  143.7515  159.7129 H   0  0  0  0  0  0  0  0  0  0  0  0
  151.6048  142.7750  161.3142 H   0  0  0  0  0  0  0  0  0  0  0  0
  153.1893  143.2292  161.9344 H   0  0  0  0  0  0  0  0  0  0  0  0
  151.1322  145.0267  161.8953 H   0  0  0  0  0  0  0  0  0  0  0  0
  152.7770  145.5436  161.5495 H   0  0  0  0  0  0  0  0  0  0  0  0
  150.5251  145.4433  159.6582 H   0  0  0  0  0  0  0  0  0  0  0  0
  152.1089  146.1796  159.4648 H   0  0  0  0  0  0  0  0  0  0  0  0
  152.4876  144.4134  157.9496 H   0  0  0  0  0  0  0  0  0  0  0  0
  151.1667  143.4774  158.6356 H   0  0  0  0  0  0  0  0  0  0  0  0
  153.2347  138.9326  161.5347 H   0  0  0  0  0  0  0  0  0  0  0  0
  153.1265  136.6585  161.2484 H   0  0  0  0  0  0  0  0  0  0  0  0
  153.2632  136.9410  159.5281 H   0  0  0  0  0  0  0  0  0  0  0  0
  155.2484  135.7351  159.8842 H   0  0  0  0  0  0  0  0  0  0  0  0
  155.8520  137.3638  160.0715 H   0  0  0  0  0  0  0  0  0  0  0  0
  155.3090  138.2895  162.7156 H   0  0  0  0  0  0  0  0  0  0  0  0
  156.1121  137.6563  165.0056 H   0  0  0  0  0  0  0  0  0  0  0  0
  156.8797  135.3017  165.4000 H   0  0  0  0  0  0  0  0  0  0  0  0
  156.1110  134.2254  161.4863 H   0  0  0  0  0  0  0  0  0  0  0  0
  1  2  2  0  0  0  0
  2  3  1  0  0  0  0
  2 10  1  0  0  0  0
  3  4  1  0  0  0  0
  3 19  1  0  0  0  0
  3 20  1  0  0  0  0
  4  5  1  0  0  0  0
  4 21  1  0  0  0  0
  4 22  1  0  0  0  0
  5  9  1  0  0  0  0
  5  6  1  0  0  0  0
  5 23  1  0  0  0  0
  6  7  1  0  0  0  0
  6 24  1  0  0  0  0
  6 25  1  0  0  0  0
  7  8  1  0  0  0  0
  7 26  1  0  0  0  0
  7 27  1  0  0  0  0
  8  9  1  0  0  0  0
  8 28  1  0  0  0  0
  8 29  1  0  0  0  0
  9 30  1  0  0  0  0
  9 31  1  0  0  0  0
 10 11  1  0  0  0  0
 10 32  1  0  0  0  0
 11 12  1  0  0  0  0
 11 33  1  0  0  0  0
 11 34  1  0  0  0  0
 12 13  1  0  0  0  0
 12 35  1  0  0  0  0
 12 36  1  0  0  0  0
 13 18  1  0  0  0  0
 13 14  2  0  0  0  0
 14 15  1  0  0  0  0
 14 37  1  0  0  0  0
 15 16  2  0  0  0  0
 15 38  1  0  0  0  0
 16 17  1  0  0  0  0
 16 39  1  0  0  0  0
 17 18  2  0  0  0  0
 18 40  1  0  0  0  0
M  END
> <s_m_source_file>
AV-unprocessed.smi

> <i_m_source_file_index>
1865

> <i_lp_mmshare_version>
43012

> <i_f3d_flags>
0

> <s_epik_input>
W0NIMl0xW0NIMl1bQ0gyXVtDSDJdW0NIXTFbQ0gyXVtDSDJdQyg9TylbTkhdW0NIMl1bQ0gyXWMyW2NIXVtjSF1bY0hdbltjSF0y

> <s_epik_cmdline>
J2VwaWtfcHl0aG9uJywgJy1waCcsICc3LjAnLCAnLXRuJywgJzgnLCAnLW1hJywgJzIwMCcsICctbWV0YWxfYmluZGluZycsICctaW1hZScsICc8aW5maWxlLm1hZT4nLCAnLW9tYWUnLCAnPG91dGZpbGUubWFlPic=

> <r_epik_Ionization_Penalty>
0.0133844

> <r_epik_Ionization_Penalty_Charging>
0

> <r_epik_Ionization_Penalty_Neutral>
0.0133844

> <r_epik_State_Penalty>
0.0104136

> <r_epik_Charging_Adjusted_Penalty>
0.0104136

> <i_epik_Tot_Q>
0

> <i_epik_Tot_abs_Q>
0

> <r_epik_Metal_State_Penalty>
0.0101831

> <b_epik_Metal_Only>
0

> <s_lp_Force_Field>
OPLS_2005

> <r_lp_Energy>
19.5978

> <b_lp_Chiralities_Consistent>
1

> <s_lp_Variant>
AV-unprocessed.smi:1865-1

> <Gold.Version>
5.8.1

> <Gold.Id.Protein>
6NUR|6NUR_protein|mol2

> <Gold.PLP.Fitness>
46.4766

> <Gold.PLP.PLP>
-43.8505

> <Gold.PLP.part.hbond>
-1.0000

> <Gold.PLP.part.metal>
0.0000

> <Gold.PLP.part.buried>
-3.8255

> <Gold.PLP.part.nonpolar>
-39.8246

> <Gold.PLP.part.repulsive>
0.0836

> <Gold.PLP.ligand.clash>
0.0000

> <Gold.PLP.ligand.torsion>
0.2061

> <Gold.PLP.Chemscore.Hbond>
1.0000

> <Gold.PLP.Chemscore.CHOScore>
0.0000

> <Gold.PLP.Chemscore.Metal>
0.0000

> <Gold.Chemscore.Hbonds>
donor molecule, donor type, donor heavy atom, donor atom, acceptor molecule, acceptor atom, score
      P1  H  7997  8010       L1     1  1.00

> <Gold.PLP.Chemscore.Internal.Correction>
0.0383

> <Gold.Rescore>
     Score         DG    S(hbond)    S(metal)    S(lipo)     H(rot)  DE(clash)    DE(int)     intcor
     19.48     -20.25       0.98        0.00     132.45       1.56       0.19       0.58       ----

> <Gold.Chemscore.Fitness>
19.4779

> <Gold.Chemscore.DG>
-20.2455

> <Gold.Chemscore.ZeroCoef>
-5.4800

> <Gold.Chemscore.Hbond>
0.9778

> <Gold.Chemscore.Metal>
0.0000

> <Gold.Chemscore.Lipo>
132.4511

> <Gold.Chemscore.Internal_Hbond>
0.0000

> <Gold.Chemscore.DEClash>
0.1914

> <Gold.Chemscore.DEInternal>
0.5762

> <Gold.Chemscore.Rot>
1.5614

> <Gold.Chemscore.Internal.Correction>
   9.000000E+99

> <Gold.Chemscore.Hbonds>
donor molecule, donor type, donor heavy atom, donor atom, acceptor molecule, acceptor atom, score
      P1  H  7997  8010       L1     1  0.96

> <Gold.Chemscore.Hbond.Weighted>
-3.2658

> <Gold.Chemscore.Metal.Weighted>
-0.0000

> <Gold.Chemscore.Lipo.Weighted>
-15.4968

> <Gold.Chemscore.Internal_Hbond.Weighted>
0.0000

> <Gold.Chemscore.DEClash.Weighted>
0.1914

> <Gold.Chemscore.DEInternal.Weighted>
0.5762

> <Gold.Chemscore.Rot.Weighted>
3.9971

> <Gold.Chemscore.Internal.Correction.Weighted>
   9.000000E+99

> <Gold.Protein.RotatedTorsions>
[ 6907 6896 6895 6894 ] final  -14.20 input  -60.11 | X-H torsion
[ 7974 7965 7964 7962 ] final  -71.65 input  175.53 | X-H torsion
[ 8008 7997 7996 7995 ] final  -19.24 input   59.86 | X-H torsion
[ 10167 10162 10161 10158 ] final   73.27 input  -65.29 | X-H torsion
[ 10718 10713 10712 10709 ] final -177.18 input   66.30 | X-H torsion
[ 10763 10752 10751 10750 ] final   43.13 input  -60.55 | X-H torsion
[ 11005 11000 10999 10996 ] final  154.61 input  -57.11 | X-H torsion

> <Gold.Protein.ActiveResidues>
 VAL166  LYS551  ARG553  GLY616  TRP617  ASP618  TYR619  PRO620  LYS621  CYS622 
 ASP623  PHE694  ASN695  SER759  ASP760  ASP761  ALA762  ILE779  LEU786  VAL792 
 PHE793  MET794  SER795  GLU796  ALA797  LYS798  CYS799  TRP800  GLU811  SER814 

> <Gold.Protein.RotatedAtoms>
  151.3431  135.0868  159.9377 H   0  0  0  0  0  0  0  0  0  0  0  0  # atno 6907 bound_to 6896
  152.5206  133.9427  159.7644 H   0  0  0  0  0  0  0  0  0  0  0  0  # atno 6908 bound_to 6896
  150.9788  133.6214  159.2755 H   0  0  0  0  0  0  0  0  0  0  0  0  # atno 6909 bound_to 6896
  145.6753  140.9207  143.0861 H   0  0  0  0  0  0  0  0  0  0  0  0  # atno 7974 bound_to 7965
  154.4850  140.2094  155.9676 H   0  0  0  0  0  0  0  0  0  0  0  0  # atno 8008 bound_to 7997
  156.1223  140.3211  155.8195 H   0  0  0  0  0  0  0  0  0  0  0  0  # atno 8009 bound_to 7997
  155.4446  140.0512  157.2998 H   0  0  0  0  0  0  0  0  0  0  0  0  # atno 8010 bound_to 7997
  140.0263  144.5501  150.7542 H   0  0  0  0  0  0  0  0  0  0  0  0  # atno 10167 bound_to 10162
  156.8256  130.9635  151.3109 H   0  0  0  0  0  0  0  0  0  0  0  0  # atno 10718 bound_to 10713
  152.9867  135.6111  154.3061 H   0  0  0  0  0  0  0  0  0  0  0  0  # atno 10763 bound_to 10752
  154.2779  135.2778  155.2712 H   0  0  0  0  0  0  0  0  0  0  0  0  # atno 10764 bound_to 10752
  154.5064  135.5853  153.6627 H   0  0  0  0  0  0  0  0  0  0  0  0  # atno 10765 bound_to 10752
  140.1505  134.8678  157.2448 H   0  0  0  0  0  0  0  0  0  0  0  0  # atno 11005 bound_to 11000
  144.7043  139.8625  143.7434 LP  0  0  0  0  0  0  0  0  0  0  0  0  # atno 17320 bound_to 7965
  146.1011  139.4006  143.0346 LP  0  0  0  0  0  0  0  0  0  0  0  0  # atno 17321 bound_to 7965
  140.7321  143.2702  151.3914 LP  0  0  0  0  0  0  0  0  0  0  0  0  # atno 17342 bound_to 10162
  139.6106  144.1107  152.2294 LP  0  0  0  0  0  0  0  0  0  0  0  0  # atno 17343 bound_to 10162
  157.6434  130.8824  149.9491 LP  0  0  0  0  0  0  0  0  0  0  0  0  # atno 17370 bound_to 10713
  156.0963  130.3659  150.0299 LP  0  0  0  0  0  0  0  0  0  0  0  0  # atno 17371 bound_to 10713
  140.2611  134.3570  155.7406 LP  0  0  0  0  0  0  0  0  0  0  0  0  # atno 17394 bound_to 11000
  141.2198  133.7370  156.9081 LP  0  0  0  0  0  0  0  0  0  0  0  0  # atno 17395 bound_to 11000

$$$$
