AV-unprocessed.smi:2061|AV-procd|sdf|8394|dock10
  -GOLD-   2272011 83D 1   1.00000     0.00000
 Structure written by MMmdl.
 45 46  0  0  0  0  0  0  0  0  3 V2000
  151.3465  140.0254  158.9297 C   0  0  0  0  0  0  0  0  0  0  0  0
  150.8785  138.6607  158.5566 C   0  0  0  0  0  0  0  0  0  0  0  0
  150.6252  138.0598  157.3558 C   0  0  0  0  0  0  0  0  0  0  0  0
  150.2079  136.7546  157.7306 C   0  0  0  0  0  0  0  0  0  0  0  0
  149.8440  135.7988  156.7449 N   0  0  0  0  0  0  0  0  0  0  0  0
  149.7439  134.4620  156.8646 C   0  0  0  0  0  0  0  0  0  0  0  0
  149.9939  133.9126  157.9442 O   0  0  0  0  0  0  0  0  0  0  0  0
  149.3549  133.8670  155.7034 N   0  5  0  0  0  0  0  0  0  0  0  0
  148.5690  134.5283  154.6616 C   0  0  0  0  0  0  0  0  0  0  0  0
  147.9825  133.4856  153.6651 C   0  0  2  0  0  0  0  0  0  0  0  0
  149.0704  132.4560  153.2418 C   0  0  0  0  0  0  0  0  0  0  0  0
  147.3260  134.2028  152.5144 N   0  3  1  0  0  0  0  0  0  0  0  0
  147.1623  133.4687  151.2288 C   0  0  0  0  0  0  0  0  0  0  0  0
  145.9505  132.5131  151.2687 C   0  0  2  0  0  0  0  0  0  0  0  0
  145.7287  131.8095  149.9257 C   0  0  0  0  0  0  0  0  0  0  0  0
  144.7824  133.2669  151.5687 O   0  0  0  0  0  0  0  0  0  0  0  0
  144.8525  133.8983  152.8417 C   0  0  2  0  0  0  0  0  0  0  0  0
  143.5167  134.6067  153.0917 C   0  0  0  0  0  0  0  0  0  0  0  0
  146.0409  134.8831  152.8521 C   0  0  0  0  0  0  0  0  0  0  0  0
  150.2106  136.5758  159.0434 N   0  0  0  0  0  0  0  0  0  0  0  0
  150.6402  137.7956  159.5790 O   0  0  0  0  0  0  0  0  0  0  0  0
  151.2598  140.7107  158.0865 H   0  0  0  0  0  0  0  0  0  0  0  0
  152.3905  140.0028  159.2419 H   0  0  0  0  0  0  0  0  0  0  0  0
  150.7548  140.4266  159.7526 H   0  0  0  0  0  0  0  0  0  0  0  0
  150.7212  138.4871  156.3687 H   0  0  0  0  0  0  0  0  0  0  0  0
  149.6211  136.1743  155.8352 H   0  0  0  0  0  0  0  0  0  0  0  0
  147.7505  135.0966  155.1049 H   0  0  0  0  0  0  0  0  0  0  0  0
  149.1575  135.2575  154.1031 H   0  0  0  0  0  0  0  0  0  0  0  0
  147.2056  132.9187  154.1798 H   0  0  0  0  0  0  0  0  0  0  0  0
  149.5035  131.9345  154.0980 H   0  0  0  0  0  0  0  0  0  0  0  0
  149.8958  132.9196  152.6979 H   0  0  0  0  0  0  0  0  0  0  0  0
  148.6638  131.6680  152.6108 H   0  0  0  0  0  0  0  0  0  0  0  0
  146.9912  134.2138  150.4504 H   0  0  0  0  0  0  0  0  0  0  0  0
  148.0735  132.9559  150.9240 H   0  0  0  0  0  0  0  0  0  0  0  0
  146.0835  131.7509  152.0366 H   0  0  0  0  0  0  0  0  0  0  0  0
  146.5925  131.2025  149.6534 H   0  0  0  0  0  0  0  0  0  0  0  0
  145.5596  132.5301  149.1249 H   0  0  0  0  0  0  0  0  0  0  0  0
  144.8611  131.1509  149.9696 H   0  0  0  0  0  0  0  0  0  0  0  0
  144.9850  133.1381  153.6128 H   0  0  0  0  0  0  0  0  0  0  0  0
  143.5101  135.0985  154.0647 H   0  0  0  0  0  0  0  0  0  0  0  0
  142.6896  133.8968  153.0730 H   0  0  0  0  0  0  0  0  0  0  0  0
  143.3222  135.3642  152.3318 H   0  0  0  0  0  0  0  0  0  0  0  0
  146.0975  135.3944  153.8132 H   0  0  0  0  0  0  0  0  0  0  0  0
  145.8692  135.6636  152.1095 H   0  0  0  0  0  0  0  0  0  0  0  0
  147.9810  134.9425  152.3035 H   0  0  0  0  0  0  0  0  0  0  0  0
  1  2  1  0  0  0  0
  1 22  1  0  0  0  0
  1 23  1  0  0  0  0
  1 24  1  0  0  0  0
  2 21  1  0  0  0  0
  2  3  2  0  0  0  0
  3  4  1  0  0  0  0
  3 25  1  0  0  0  0
  4  5  1  0  0  0  0
  4 20  2  0  0  0  0
  5  6  1  0  0  0  0
  5 26  1  0  0  0  0
  6  7  2  0  0  0  0
  6  8  1  0  0  0  0
  8  9  1  0  0  0  0
  9 10  1  0  0  0  0
  9 27  1  0  0  0  0
  9 28  1  0  0  0  0
 10 11  1  0  0  0  0
 10 12  1  0  0  0  0
 10 29  1  0  0  0  0
 11 30  1  0  0  0  0
 11 31  1  0  0  0  0
 11 32  1  0  0  0  0
 12 19  1  0  0  0  0
 12 13  1  0  0  0  0
 12 45  1  0  0  0  0
 13 14  1  0  0  0  0
 13 33  1  0  0  0  0
 13 34  1  0  0  0  0
 14 15  1  0  0  0  0
 14 16  1  0  0  0  0
 14 35  1  0  0  0  0
 15 36  1  0  0  0  0
 15 37  1  0  0  0  0
 15 38  1  0  0  0  0
 16 17  1  0  0  0  0
 17 18  1  0  0  0  0
 17 19  1  0  0  0  0
 17 39  1  0  0  0  0
 18 40  1  0  0  0  0
 18 41  1  0  0  0  0
 18 42  1  0  0  0  0
 19 43  1  0  0  0  0
 19 44  1  0  0  0  0
 20 21  1  0  0  0  0
M  CHG  1   8  -1
M  CHG  1  12   1
M  END
> <s_m_source_file>
AV-unprocessed.smi

> <i_m_source_file_index>
2061

> <i_lp_mmshare_version>
43012

> <i_f3d_flags>
0

> <s_epik_input>
W0NIM11jMVtjSF1jKG5vMSlbTkhdQyg9TylbTkhdW0NIMl1bQ0BIXShbQ0gzXSlOMltDSDJdW0NAQEhdKFtDSDNdKU9bQ0BASF0oW0NIM10pW0NIMl0y

> <s_epik_cmdline>
J2VwaWtfcHl0aG9uJywgJy1waCcsICc3LjAnLCAnLXRuJywgJzgnLCAnLW1hJywgJzIwMCcsICctbWV0YWxfYmluZGluZycsICctaW1hZScsICc8aW5maWxlLm1hZT4nLCAnLW9tYWUnLCAnPG91dGZpbGUubWFlPic=

> <r_epik_Ionization_Penalty>
6.8073

> <r_epik_Ionization_Penalty_Charging>
6.80729

> <r_epik_Ionization_Penalty_Neutral>
5.65391e-06

> <r_epik_State_Penalty>
7.47323

> <r_epik_Charging_Adjusted_Penalty>
14.2805

> <i_epik_Tot_Q>
0

> <i_epik_Tot_abs_Q>
2

> <r_epik_Metal_State_Penalty>
3.40035

> <b_epik_Metal_Only>
1

> <s_lp_Force_Field>
OPLS_2005

> <r_lp_Energy>
21.662

> <b_lp_Chiralities_Consistent>
1

> <s_lp_Variant>
AV-unprocessed.smi:2061-35

> <Gold.Version>
5.8.1

> <Gold.Id.Protein>
6NUR|6NUR_protein|mol2

> <Gold.PLP.Fitness>
37.3338

> <Gold.PLP.PLP>
-27.5031

> <Gold.PLP.part.hbond>
-3.8310

> <Gold.PLP.part.metal>
0.0000

> <Gold.PLP.part.buried>
-5.6126

> <Gold.PLP.part.nonpolar>
-18.1871

> <Gold.PLP.part.repulsive>
0.2101

> <Gold.PLP.ligand.clash>
0.0000

> <Gold.PLP.ligand.torsion>
0.7580

> <Gold.PLP.Chemscore.Hbond>
3.7440

> <Gold.PLP.Chemscore.CHOScore>
0.0000

> <Gold.PLP.Chemscore.Metal>
0.0000

> <Gold.Chemscore.Hbonds>
donor molecule, donor type, donor heavy atom, donor atom, acceptor molecule, acceptor atom, score
      L1  H    12    45       P1  7948  2.00
      P1  H  6896  6907       L1    20  1.00
      P1  H  6896  6909       L1     7  0.75

> <Gold.PLP.Chemscore.Internal.Correction>
0.1146

> <Gold.Rescore>
     Score         DG    S(hbond)    S(metal)    S(lipo)     H(rot)  DE(clash)    DE(int)     intcor
     14.87     -17.10       2.47        0.00      62.75       1.56       0.00       2.23       ----

> <Gold.Chemscore.Fitness>
14.8698

> <Gold.Chemscore.DG>
-17.0951

> <Gold.Chemscore.ZeroCoef>
-5.4800

> <Gold.Chemscore.Hbond>
2.4712

> <Gold.Chemscore.Metal>
0.0000

> <Gold.Chemscore.Lipo>
62.7523

> <Gold.Chemscore.Internal_Hbond>
0.0000

> <Gold.Chemscore.DEClash>
0.0000

> <Gold.Chemscore.DEInternal>
2.2252

> <Gold.Chemscore.Rot>
1.5550

> <Gold.Chemscore.Internal.Correction>
   9.000000E+99

> <Gold.Chemscore.Hbonds>
donor molecule, donor type, donor heavy atom, donor atom, acceptor molecule, acceptor atom, score
      L1  H    12    45       P1  7948  0.74
      P1  H  6896  6907       L1    20  0.64
      P1  H  6896  6909       L1     7  0.74

> <Gold.Chemscore.Hbond.Weighted>
-8.2539

> <Gold.Chemscore.Metal.Weighted>
-0.0000

> <Gold.Chemscore.Lipo.Weighted>
-7.3420

> <Gold.Chemscore.Internal_Hbond.Weighted>
0.0000

> <Gold.Chemscore.DEClash.Weighted>
0.0000

> <Gold.Chemscore.DEInternal.Weighted>
2.2252

> <Gold.Chemscore.Rot.Weighted>
3.9809

> <Gold.Chemscore.Internal.Correction.Weighted>
   9.000000E+99

> <Gold.Protein.RotatedTorsions>
[ 6907 6896 6895 6894 ] final  -18.57 input  -60.11 | X-H torsion
[ 7974 7965 7964 7962 ] final  -14.40 input  175.53 | X-H torsion
[ 8008 7997 7996 7995 ] final  -69.43 input   59.86 | X-H torsion
[ 10167 10162 10161 10158 ] final  123.95 input  -65.29 | X-H torsion
[ 10718 10713 10712 10709 ] final  111.12 input   66.30 | X-H torsion
[ 10763 10752 10751 10750 ] final  156.18 input  -60.55 | X-H torsion
[ 11005 11000 10999 10996 ] final -103.13 input  -57.11 | X-H torsion

> <Gold.Protein.ActiveResidues>
 VAL166  LYS551  ARG553  GLY616  TRP617  ASP618  TYR619  PRO620  LYS621  CYS622 
 ASP623  PHE694  ASN695  SER759  ASP760  ASP761  ALA762  ILE779  LEU786  VAL792 
 PHE793  MET794  SER795  GLU796  ALA797  LYS798  CYS799  TRP800  GLU811  SER814 

> <Gold.Protein.RotatedAtoms>
  151.2761  135.0699  159.9151 H   0  0  0  0  0  0  0  0  0  0  0  0  # atno 6907 bound_to 6896
  152.5342  134.0079  159.7935 H   0  0  0  0  0  0  0  0  0  0  0  0  # atno 6908 bound_to 6896
  151.0325  133.5727  159.2690 H   0  0  0  0  0  0  0  0  0  0  0  0  # atno 6909 bound_to 6896
  146.2075  140.3343  142.8402 H   0  0  0  0  0  0  0  0  0  0  0  0  # atno 7974 bound_to 7965
  154.4938  140.0853  156.7652 H   0  0  0  0  0  0  0  0  0  0  0  0  # atno 8008 bound_to 7997
  155.4166  140.3444  155.4249 H   0  0  0  0  0  0  0  0  0  0  0  0  # atno 8009 bound_to 7997
  156.1366  140.1517  156.8973 H   0  0  0  0  0  0  0  0  0  0  0  0  # atno 8010 bound_to 7997
  139.5769  144.6968  151.3629 H   0  0  0  0  0  0  0  0  0  0  0  0  # atno 10167 bound_to 10162
  157.6460  131.0945  150.6702 H   0  0  0  0  0  0  0  0  0  0  0  0  # atno 10718 bound_to 10713
  154.1803  135.2800  155.3054 H   0  0  0  0  0  0  0  0  0  0  0  0  # atno 10763 bound_to 10752
  154.6008  135.5530  153.7375 H   0  0  0  0  0  0  0  0  0  0  0  0  # atno 10764 bound_to 10752
  153.0140  135.6391  154.1942 H   0  0  0  0  0  0  0  0  0  0  0  0  # atno 10765 bound_to 10752
  141.1159  133.8615  157.1447 H   0  0  0  0  0  0  0  0  0  0  0  0  # atno 11005 bound_to 11000
  144.8830  140.7425  143.5975 LP  0  0  0  0  0  0  0  0  0  0  0  0  # atno 17320 bound_to 7965
  145.3264  139.1773  143.4560 LP  0  0  0  0  0  0  0  0  0  0  0  0  # atno 17321 bound_to 7965
  140.7051  143.7534  150.7468 LP  0  0  0  0  0  0  0  0  0  0  0  0  # atno 17342 bound_to 10162
  140.1056  143.4747  152.2400 LP  0  0  0  0  0  0  0  0  0  0  0  0  # atno 17343 bound_to 10162
  156.7019  130.4626  149.5570 LP  0  0  0  0  0  0  0  0  0  0  0  0  # atno 17370 bound_to 10713
  156.1789  130.6486  151.0928 LP  0  0  0  0  0  0  0  0  0  0  0  0  # atno 17371 bound_to 10713
  140.0081  134.9999  157.0337 LP  0  0  0  0  0  0  0  0  0  0  0  0  # atno 17394 bound_to 11000
  140.4646  134.1449  155.7195 LP  0  0  0  0  0  0  0  0  0  0  0  0  # atno 17395 bound_to 11000

$$$$
