AV-unprocessed.smi:867|AV-procd|sdf|4000|dock5
  -GOLD-   22720 1483D 1   1.00000     0.00000
 Structure written by MMmdl.
 54 57  0  0  0  0  0  0  0  0  3 V2000
  148.7622  138.6299  154.2049 O   0  0  0  0  0  0  0  0  0  0  0  0
  147.8558  139.3599  154.6075 C   0  0  0  0  0  0  0  0  0  0  0  0
  146.5866  138.9309  154.7141 N   0  0  0  0  0  0  0  0  0  0  0  0
  146.1267  137.5849  154.3933 C   0  0  0  0  0  0  0  0  0  0  0  0
  145.1564  137.5881  153.2009 C   0  0  0  0  0  0  0  0  0  0  0  0
  144.7990  136.1846  152.7528 C   0  0  0  0  0  0  0  0  0  0  0  0
  145.1429  135.7366  151.4580 C   0  0  0  0  0  0  0  0  0  0  0  0
  144.7947  134.4277  151.0641 C   0  0  0  0  0  0  0  0  0  0  0  0
  144.1096  133.5964  151.9738 C   0  0  0  0  0  0  0  0  0  0  0  0
  143.7965  134.0602  153.2039 N   0  3  0  0  0  0  0  0  0  0  0  0
  144.1122  135.3067  153.6193 C   0  0  0  0  0  0  0  0  0  0  0  0
  148.0382  140.6686  154.9133 N   0  0  0  0  0  0  0  0  0  0  0  0
  147.2859  141.4367  155.9119 C   0  0  0  0  0  0  0  0  0  0  0  0
  148.1729  141.6349  157.1539 C   0  0  0  0  0  0  0  0  0  0  0  0
  149.4669  142.3038  156.8207 N   0  3  0  0  0  0  0  0  0  0  0  0
  150.3227  142.4978  158.0324 C   0  0  2  0  0  0  0  0  0  0  0  0
  149.8661  143.7123  158.8853 C   0  0  0  0  0  0  0  0  0  0  0  0
  151.1452  144.5502  159.0423 C   0  0  1  0  0  0  0  0  0  0  0  0
  152.1402  143.8099  159.9512 C   0  0  0  0  0  0  0  0  0  0  0  0
  152.6204  142.6593  159.0498 C   0  0  0  0  0  0  0  0  0  0  0  0
  151.8083  142.8693  157.7561 C   0  0  2  0  0  0  0  0  0  0  0  0
  151.7779  144.3910  157.6665 C   0  0  0  0  0  0  0  0  0  0  0  0
  150.1610  141.6288  155.6840 C   0  0  0  0  0  0  0  0  0  0  0  0
  149.2235  141.4102  154.4821 C   0  0  0  0  0  0  0  0  0  0  0  0
  145.8874  139.5907  155.0231 H   0  0  0  0  0  0  0  0  0  0  0  0
  147.0001  136.9748  154.1612 H   0  0  0  0  0  0  0  0  0  0  0  0
  145.6577  137.1333  155.2693 H   0  0  0  0  0  0  0  0  0  0  0  0
  144.2381  138.1172  153.4599 H   0  0  0  0  0  0  0  0  0  0  0  0
  145.5961  138.1293  152.3622 H   0  0  0  0  0  0  0  0  0  0  0  0
  145.6659  136.3880  150.7725 H   0  0  0  0  0  0  0  0  0  0  0  0
  145.0488  134.0675  150.0778 H   0  0  0  0  0  0  0  0  0  0  0  0
  143.8042  132.5834  151.7562 H   0  0  0  0  0  0  0  0  0  0  0  0
  143.8058  135.5614  154.6237 H   0  0  0  0  0  0  0  0  0  0  0  0
  147.0129  142.4048  155.4891 H   0  0  0  0  0  0  0  0  0  0  0  0
  146.3447  140.9729  156.2072 H   0  0  0  0  0  0  0  0  0  0  0  0
  147.6137  142.2118  157.8891 H   0  0  0  0  0  0  0  0  0  0  0  0
  148.3781  140.6658  157.6119 H   0  0  0  0  0  0  0  0  0  0  0  0
  150.2803  141.5794  158.6207 H   0  0  0  0  0  0  0  0  0  0  0  0
  149.1176  144.3163  158.3713 H   0  0  0  0  0  0  0  0  0  0  0  0
  149.4455  143.4103  159.8452 H   0  0  0  0  0  0  0  0  0  0  0  0
  150.9580  145.5804  159.3467 H   0  0  0  0  0  0  0  0  0  0  0  0
  152.9748  144.4564  160.2255 H   0  0  0  0  0  0  0  0  0  0  0  0
  151.6742  143.4541  160.8710 H   0  0  0  0  0  0  0  0  0  0  0  0
  153.6894  142.7525  158.8528 H   0  0  0  0  0  0  0  0  0  0  0  0
  152.4511  141.6792  159.4971 H   0  0  0  0  0  0  0  0  0  0  0  0
  152.2844  142.3728  156.9140 H   0  0  0  0  0  0  0  0  0  0  0  0
  151.1538  144.7657  156.8535 H   0  0  0  0  0  0  0  0  0  0  0  0
  152.7697  144.8413  157.5933 H   0  0  0  0  0  0  0  0  0  0  0  0
  150.9988  142.2253  155.3300 H   0  0  0  0  0  0  0  0  0  0  0  0
  150.5637  140.6724  156.0211 H   0  0  0  0  0  0  0  0  0  0  0  0
  149.7610  140.9096  153.6750 H   0  0  0  0  0  0  0  0  0  0  0  0
  148.9128  142.3724  154.0718 H   0  0  0  0  0  0  0  0  0  0  0  0
  149.2302  143.2275  156.4882 H   0  0  0  0  0  0  0  0  0  0  0  0
  143.2994  133.4424  153.8463 H   0  0  0  0  0  0  0  0  0  0  0  0
  1  2  2  0  0  0  0
  2  3  1  0  0  0  0
  2 12  1  0  0  0  0
  3  4  1  0  0  0  0
  3 25  1  0  0  0  0
  4  5  1  0  0  0  0
  4 26  1  0  0  0  0
  4 27  1  0  0  0  0
  5  6  1  0  0  0  0
  5 28  1  0  0  0  0
  5 29  1  0  0  0  0
  6 11  1  0  0  0  0
  6  7  2  0  0  0  0
  7  8  1  0  0  0  0
  7 30  1  0  0  0  0
  8  9  2  0  0  0  0
  8 31  1  0  0  0  0
  9 10  1  0  0  0  0
  9 32  1  0  0  0  0
 10 11  2  0  0  0  0
 10 54  1  0  0  0  0
 11 33  1  0  0  0  0
 12 24  1  0  0  0  0
 12 13  1  0  0  0  0
 13 14  1  0  0  0  0
 13 34  1  0  0  0  0
 13 35  1  0  0  0  0
 14 15  1  0  0  0  0
 14 36  1  0  0  0  0
 14 37  1  0  0  0  0
 15 16  1  0  0  0  0
 15 23  1  0  0  0  0
 15 53  1  0  0  0  0
 16 21  1  0  0  0  0
 16 17  1  0  0  0  0
 16 38  1  0  0  0  0
 17 18  1  0  0  0  0
 17 39  1  0  0  0  0
 17 40  1  0  0  0  0
 18 22  1  0  0  0  0
 18 19  1  0  0  0  0
 18 41  1  0  0  0  0
 19 20  1  0  0  0  0
 19 42  1  0  0  0  0
 19 43  1  0  0  0  0
 20 21  1  0  0  0  0
 20 44  1  0  0  0  0
 20 45  1  0  0  0  0
 21 22  1  0  0  0  0
 21 46  1  0  0  0  0
 22 47  1  0  0  0  0
 22 48  1  0  0  0  0
 23 24  1  0  0  0  0
 23 49  1  0  0  0  0
 23 50  1  0  0  0  0
 24 51  1  0  0  0  0
 24 52  1  0  0  0  0
M  CHG  1  10   1
M  CHG  1  15   1
M  END
> <s_m_source_file>
AV-unprocessed.smi

> <i_m_source_file_index>
867

> <i_lp_mmshare_version>
43012

> <i_f3d_flags>
0

> <s_epik_input>
W0NIMl0xW0NIMl1bQ0BASF0oW0NIMl0yKVtDQEBIXShbQ0gyXVtDQEhdMTIpTihbQ0gyXVtDSDJdMylbQ0gyXVtDSDJdTjNDKD1PKVtOSF1bQ0gyXVtDSDJdYzRbY0hdW2NIXVtjSF1uW2NIXTQ=

> <s_epik_cmdline>
J2VwaWtfcHl0aG9uJywgJy1waCcsICc3LjAnLCAnLXRuJywgJzgnLCAnLW1hJywgJzIwMCcsICctbWV0YWxfYmluZGluZycsICctaW1hZScsICc8aW5maWxlLm1hZT4nLCAnLW9tYWUnLCAnPG91dGZpbGUubWFlPic=

> <r_epik_Ionization_Penalty>
2.25108

> <r_epik_Ionization_Penalty_Charging>
2.25105

> <r_epik_Ionization_Penalty_Neutral>
2.64641e-05

> <r_epik_State_Penalty>
2.39519

> <r_epik_Charging_Adjusted_Penalty>
4.64625

> <i_epik_Tot_Q>
2

> <i_epik_Tot_abs_Q>
2

> <r_epik_Metal_State_Penalty>
2.40865

> <b_epik_Metal_Only>
0

> <s_lp_Force_Field>
OPLS_2005

> <r_lp_Energy>
104.696

> <b_lp_Chiralities_Consistent>
1

> <s_lp_Variant>
AV-unprocessed.smi:867-7

> <Gold.Version>
5.8.1

> <Gold.Id.Protein>
6NUR|6NUR_protein|mol2

> <Gold.PLP.Fitness>
52.7632

> <Gold.PLP.PLP>
-42.0582

> <Gold.PLP.part.hbond>
-2.0000

> <Gold.PLP.part.metal>
0.0000

> <Gold.PLP.part.buried>
-6.7511

> <Gold.PLP.part.nonpolar>
-34.4164

> <Gold.PLP.part.repulsive>
0.2046

> <Gold.PLP.ligand.clash>
0.0000

> <Gold.PLP.ligand.torsion>
0.7031

> <Gold.PLP.Chemscore.Hbond>
4.0000

> <Gold.PLP.Chemscore.CHOScore>
0.0000

> <Gold.PLP.Chemscore.Metal>
0.0000

> <Gold.Chemscore.Hbonds>
donor molecule, donor type, donor heavy atom, donor atom, acceptor molecule, acceptor atom, score
      L1  H    10    54       P1 10957  2.00
      L1  H    15    53       P1  8028  2.00

> <Gold.PLP.Chemscore.Internal.Correction>
0.1112

> <Gold.Rescore>
     Score         DG    S(hbond)    S(metal)    S(lipo)     H(rot)  DE(clash)    DE(int)     intcor
     21.58     -22.42       1.99        0.00     119.87       1.46       0.15       0.69       ----

> <Gold.Chemscore.Fitness>
21.5831

> <Gold.Chemscore.DG>
-22.4190

> <Gold.Chemscore.ZeroCoef>
-5.4800

> <Gold.Chemscore.Hbond>
1.9895

> <Gold.Chemscore.Metal>
0.0000

> <Gold.Chemscore.Lipo>
119.8692

> <Gold.Chemscore.Internal_Hbond>
0.0000

> <Gold.Chemscore.DEClash>
0.1461

> <Gold.Chemscore.DEInternal>
0.6899

> <Gold.Chemscore.Rot>
1.4572

> <Gold.Chemscore.Internal.Correction>
   9.000000E+99

> <Gold.Chemscore.Hbonds>
donor molecule, donor type, donor heavy atom, donor atom, acceptor molecule, acceptor atom, score
      L1  H    10    54       P1 10957  0.94
      L1  H    15    53       P1  8028  1.00

> <Gold.Chemscore.Hbond.Weighted>
-6.6449

> <Gold.Chemscore.Metal.Weighted>
-0.0000

> <Gold.Chemscore.Lipo.Weighted>
-14.0247

> <Gold.Chemscore.Internal_Hbond.Weighted>
0.0000

> <Gold.Chemscore.DEClash.Weighted>
0.1461

> <Gold.Chemscore.DEInternal.Weighted>
0.6899

> <Gold.Chemscore.Rot.Weighted>
3.7305

> <Gold.Chemscore.Internal.Correction.Weighted>
   9.000000E+99

> <Gold.Protein.RotatedTorsions>
[ 6907 6896 6895 6894 ] final   42.97 input  -60.11 | X-H torsion
[ 7974 7965 7964 7962 ] final  120.84 input  175.53 | X-H torsion
[ 8008 7997 7996 7995 ] final  -82.41 input   59.86 | X-H torsion
[ 10167 10162 10161 10158 ] final -158.25 input  -65.29 | X-H torsion
[ 10718 10713 10712 10709 ] final  -58.24 input   66.30 | X-H torsion
[ 10763 10752 10751 10750 ] final   62.77 input  -60.55 | X-H torsion
[ 11005 11000 10999 10996 ] final -129.47 input  -57.11 | X-H torsion

> <Gold.Protein.ActiveResidues>
 VAL166  LYS551  ARG553  GLY616  TRP617  ASP618  TYR619  PRO620  LYS621  CYS622 
 ASP623  PHE694  ASN695  SER759  ASP760  ASP761  ALA762  ILE779  LEU786  VAL792 
 PHE793  MET794  SER795  GLU796  ALA797  LYS798  CYS799  TRP800  GLU811  SER814 

> <Gold.Protein.RotatedAtoms>
  152.2145  134.8471  160.0493 H   0  0  0  0  0  0  0  0  0  0  0  0  # atno 6907 bound_to 6896
  151.9277  133.3597  159.3928 H   0  0  0  0  0  0  0  0  0  0  0  0  # atno 6908 bound_to 6896
  150.6984  134.4495  159.5373 H   0  0  0  0  0  0  0  0  0  0  0  0  # atno 6909 bound_to 6896
  145.1263  139.3356  143.4688 H   0  0  0  0  0  0  0  0  0  0  0  0  # atno 7974 bound_to 7965
  154.6083  140.0633  156.9460 H   0  0  0  0  0  0  0  0  0  0  0  0  # atno 8008 bound_to 7997
  155.2016  140.3315  155.4324 H   0  0  0  0  0  0  0  0  0  0  0  0  # atno 8009 bound_to 7997
  156.2361  140.1863  156.7099 H   0  0  0  0  0  0  0  0  0  0  0  0  # atno 8010 bound_to 7997
  139.6707  143.9750  152.2282 H   0  0  0  0  0  0  0  0  0  0  0  0  # atno 10167 bound_to 10162
  156.1150  130.4171  150.0550 H   0  0  0  0  0  0  0  0  0  0  0  0  # atno 10718 bound_to 10713
  152.9994  135.5453  154.6246 H   0  0  0  0  0  0  0  0  0  0  0  0  # atno 10763 bound_to 10752
  154.5538  135.2828  155.0986 H   0  0  0  0  0  0  0  0  0  0  0  0  # atno 10764 bound_to 10752
  154.2216  135.6449  153.5199 H   0  0  0  0  0  0  0  0  0  0  0  0  # atno 10765 bound_to 10752
  140.9429  134.1169  157.4134 H   0  0  0  0  0  0  0  0  0  0  0  0  # atno 11005 bound_to 11000
  146.3517  140.1244  142.8599 LP  0  0  0  0  0  0  0  0  0  0  0  0  # atno 17320 bound_to 7965
  145.0684  140.9138  143.4897 LP  0  0  0  0  0  0  0  0  0  0  0  0  # atno 17321 bound_to 7965
  139.9514  144.6618  150.8168 LP  0  0  0  0  0  0  0  0  0  0  0  0  # atno 17342 bound_to 10162
  140.7617  143.3180  151.2688 LP  0  0  0  0  0  0  0  0  0  0  0  0  # atno 17343 bound_to 10162
  156.8503  130.9456  151.3626 LP  0  0  0  0  0  0  0  0  0  0  0  0  # atno 17370 bound_to 10713
  157.6333  130.8746  149.9313 LP  0  0  0  0  0  0  0  0  0  0  0  0  # atno 17371 bound_to 10713
  139.8825  135.0042  156.6235 LP  0  0  0  0  0  0  0  0  0  0  0  0  # atno 17394 bound_to 11000
  140.7709  133.8739  155.8491 LP  0  0  0  0  0  0  0  0  0  0  0  0  # atno 17395 bound_to 11000

$$$$
