AV-unprocessed.smi:311|AV-procd|sdf|2304|dock7
  -GOLD-   2262022203D 1   1.00000     0.00000
 Structure written by MMmdl.
 44 46  0  0  0  0  0  0  0  0  2 V2000
  150.6102  134.9112  156.1928 C   0  0  0  0  0  0  0  0  0  0  0  0
  150.2411  133.4554  156.2090 C   0  0  0  0  0  0  0  0  0  0  0  0
  150.2715  132.7866  157.3490 N   0  0  0  0  0  0  0  0  0  0  0  0
  149.8720  131.4831  157.0394 O   0  0  0  0  0  0  0  0  0  0  0  0
  149.6081  131.4186  155.7098 C   0  0  0  0  0  0  0  0  0  0  0  0
  149.1533  130.0992  155.1842 C   0  0  0  0  0  0  0  0  0  0  0  0
  149.8211  132.6354  155.1219 C   0  0  0  0  0  0  0  0  0  0  0  0
  149.6430  133.0324  153.6782 C   0  0  0  0  0  0  0  0  0  0  0  0
  148.1606  132.9601  153.3159 C   0  0  0  0  0  0  0  0  0  0  0  0
  147.5294  131.9206  153.5043 O   0  0  0  0  0  0  0  0  0  0  0  0
  147.6277  134.0625  152.7666 N   0  0  0  0  0  0  0  0  0  0  0  0
  146.2729  134.1682  152.2358 C   0  0  1  0  0  0  0  0  0  0  0  0
  145.7129  135.5960  152.2947 C   0  0  0  0  0  0  0  0  0  0  0  0
  144.8949  135.7676  150.9988 C   0  0  0  0  0  0  0  0  0  0  0  0
  144.9513  134.4721  150.2821 N   0  3  2  0  0  0  0  0  0  0  0  0
  143.7301  133.6513  150.5124 C   0  0  0  0  0  0  0  0  0  0  0  0
  143.8819  132.2218  149.9761 C   0  0  0  0  0  0  0  0  0  0  0  0
  145.0915  131.5398  150.6205 C   0  0  0  0  0  0  0  0  0  0  0  0
  146.3511  132.3601  150.3268 C   0  0  0  0  0  0  0  0  0  0  0  0
  146.2151  133.8444  150.7372 C   0  0  2  0  0  0  0  0  0  0  0  0
  151.1767  135.1622  155.2960 H   0  0  0  0  0  0  0  0  0  0  0  0
  151.2215  135.1818  157.0546 H   0  0  0  0  0  0  0  0  0  0  0  0
  149.7181  135.5376  156.2065 H   0  0  0  0  0  0  0  0  0  0  0  0
  148.5201  130.2255  154.3058 H   0  0  0  0  0  0  0  0  0  0  0  0
  148.5790  129.5573  155.9363 H   0  0  0  0  0  0  0  0  0  0  0  0
  150.0067  129.4828  154.9016 H   0  0  0  0  0  0  0  0  0  0  0  0
  150.0081  134.0444  153.4988 H   0  0  0  0  0  0  0  0  0  0  0  0
  150.2062  132.3832  153.0070 H   0  0  0  0  0  0  0  0  0  0  0  0
  148.2262  134.8686  152.6569 H   0  0  0  0  0  0  0  0  0  0  0  0
  145.5942  133.5129  152.7846 H   0  0  0  0  0  0  0  0  0  0  0  0
  145.0985  135.7397  153.1841 H   0  0  0  0  0  0  0  0  0  0  0  0
  146.5128  136.3374  152.3263 H   0  0  0  0  0  0  0  0  0  0  0  0
  143.8717  136.0925  151.1937 H   0  0  0  0  0  0  0  0  0  0  0  0
  145.3596  136.5283  150.3704 H   0  0  0  0  0  0  0  0  0  0  0  0
  143.5027  133.6133  151.5790 H   0  0  0  0  0  0  0  0  0  0  0  0
  142.8810  134.1381  150.0311 H   0  0  0  0  0  0  0  0  0  0  0  0
  142.9777  131.6487  150.1837 H   0  0  0  0  0  0  0  0  0  0  0  0
  143.9966  132.2403  148.8914 H   0  0  0  0  0  0  0  0  0  0  0  0
  144.9437  131.4465  151.6970 H   0  0  0  0  0  0  0  0  0  0  0  0
  145.2048  130.5271  150.2321 H   0  0  0  0  0  0  0  0  0  0  0  0
  147.2179  131.9064  150.8070 H   0  0  0  0  0  0  0  0  0  0  0  0
  146.5506  132.3132  149.2555 H   0  0  0  0  0  0  0  0  0  0  0  0
  147.0257  134.3901  150.2495 H   0  0  0  0  0  0  0  0  0  0  0  0
  145.0144  134.6415  149.2883 H   0  0  0  0  0  0  0  0  0  0  0  0
  1  2  1  0  0  0  0
  1 21  1  0  0  0  0
  1 22  1  0  0  0  0
  1 23  1  0  0  0  0
  2  7  1  0  0  0  0
  2  3  2  0  0  0  0
  3  4  1  0  0  0  0
  4  5  1  0  0  0  0
  5  6  1  0  0  0  0
  5  7  2  0  0  0  0
  6 24  1  0  0  0  0
  6 25  1  0  0  0  0
  6 26  1  0  0  0  0
  7  8  1  0  0  0  0
  8  9  1  0  0  0  0
  8 27  1  0  0  0  0
  8 28  1  0  0  0  0
  9 10  2  0  0  0  0
  9 11  1  0  0  0  0
 11 12  1  0  0  0  0
 11 29  1  0  0  0  0
 12 20  1  0  0  0  0
 12 13  1  0  0  0  0
 12 30  1  0  0  0  0
 13 14  1  0  0  0  0
 13 31  1  0  0  0  0
 13 32  1  0  0  0  0
 14 15  1  0  0  0  0
 14 33  1  0  0  0  0
 14 34  1  0  0  0  0
 15 20  1  0  0  0  0
 15 16  1  0  0  0  0
 15 44  1  0  0  0  0
 16 17  1  0  0  0  0
 16 35  1  0  0  0  0
 16 36  1  0  0  0  0
 17 18  1  0  0  0  0
 17 37  1  0  0  0  0
 17 38  1  0  0  0  0
 18 19  1  0  0  0  0
 18 39  1  0  0  0  0
 18 40  1  0  0  0  0
 19 20  1  0  0  0  0
 19 41  1  0  0  0  0
 19 42  1  0  0  0  0
 20 43  1  0  0  0  0
M  CHG  1  15   1
M  END
> <s_m_source_file>
AV-unprocessed.smi

> <i_m_source_file_index>
311

> <i_lp_mmshare_version>
43012

> <i_f3d_flags>
0

> <s_epik_input>
W0NIM11jMW5vYyhbQ0gzXSljMVtDSDJdQyg9TylbTkhdW0NASF0oW0NIMl1bQ0gyXTIpW0NAQEhdKE4yMylbQ0gyXVtDSDJdW0NIMl1bQ0gyXTM=

> <s_epik_cmdline>
J2VwaWtfcHl0aG9uJywgJy1waCcsICc3LjAnLCAnLXRuJywgJzgnLCAnLW1hJywgJzIwMCcsICctbWV0YWxfYmluZGluZycsICctaW1hZScsICc8aW5maWxlLm1hZT4nLCAnLW9tYWUnLCAnPG91dGZpbGUubWFlPic=

> <r_epik_Ionization_Penalty>
0.00173669

> <r_epik_Ionization_Penalty_Charging>
0.0017366

> <r_epik_Ionization_Penalty_Neutral>
9.2145e-08

> <r_epik_State_Penalty>
0.00117499

> <r_epik_Charging_Adjusted_Penalty>
0.00291159

> <i_epik_Tot_Q>
1

> <i_epik_Tot_abs_Q>
1

> <r_epik_Metal_State_Penalty>
-0

> <b_epik_Metal_Only>
0

> <s_lp_Force_Field>
OPLS_2005

> <r_lp_Energy>
30.3664

> <b_lp_Chiralities_Consistent>
1

> <s_lp_Variant>
AV-unprocessed.smi:311-8

> <Gold.Version>
5.8.1

> <Gold.Id.Protein>
6NUR|6NUR_protein|mol2

> <Gold.PLP.Fitness>
40.8586

> <Gold.PLP.PLP>
-32.7737

> <Gold.PLP.part.hbond>
-3.0000

> <Gold.PLP.part.metal>
0.0000

> <Gold.PLP.part.buried>
-1.5689

> <Gold.PLP.part.nonpolar>
-28.7832

> <Gold.PLP.part.repulsive>
0.1155

> <Gold.PLP.ligand.clash>
0.0000

> <Gold.PLP.ligand.torsion>
0.4518

> <Gold.PLP.Chemscore.Hbond>
2.9920

> <Gold.PLP.Chemscore.CHOScore>
0.0000

> <Gold.PLP.Chemscore.Metal>
0.0000

> <Gold.Chemscore.Hbonds>
donor molecule, donor type, donor heavy atom, donor atom, acceptor molecule, acceptor atom, score
      L1  H    11    29       P1  7948  1.00
      L1  H    15    44       P1  7921  0.99
      P1  H  6896  6907       L1     3  0.70

> <Gold.PLP.Chemscore.Internal.Correction>
0.0125

> <Gold.Rescore>
     Score         DG    S(hbond)    S(metal)    S(lipo)     H(rot)  DE(clash)    DE(int)     intcor
     19.66     -21.20       2.68        0.00      87.55       1.36       1.04       0.50       ----

> <Gold.Chemscore.Fitness>
19.6622

> <Gold.Chemscore.DG>
-21.2030

> <Gold.Chemscore.ZeroCoef>
-5.4800

> <Gold.Chemscore.Hbond>
2.6804

> <Gold.Chemscore.Metal>
0.0000

> <Gold.Chemscore.Lipo>
87.5514

> <Gold.Chemscore.Internal_Hbond>
0.0000

> <Gold.Chemscore.DEClash>
1.0422

> <Gold.Chemscore.DEInternal>
0.4985

> <Gold.Chemscore.Rot>
1.3567

> <Gold.Chemscore.Internal.Correction>
   9.000000E+99

> <Gold.Chemscore.Hbonds>
donor molecule, donor type, donor heavy atom, donor atom, acceptor molecule, acceptor atom, score
      L1  H    11    29       P1  7948  0.65
      L1  H    15    44       P1  7921  0.91
      P1  H  6896  6907       L1     3  0.68

> <Gold.Chemscore.Hbond.Weighted>
-8.9526

> <Gold.Chemscore.Metal.Weighted>
-0.0000

> <Gold.Chemscore.Lipo.Weighted>
-10.2435

> <Gold.Chemscore.Internal_Hbond.Weighted>
0.0000

> <Gold.Chemscore.DEClash.Weighted>
1.0422

> <Gold.Chemscore.DEInternal.Weighted>
0.4985

> <Gold.Chemscore.Rot.Weighted>
3.4731

> <Gold.Chemscore.Internal.Correction.Weighted>
   9.000000E+99

> <Gold.Protein.RotatedTorsions>
[ 6907 6896 6895 6894 ] final -148.82 input  -60.11 | X-H torsion
[ 7974 7965 7964 7962 ] final -175.48 input  175.53 | X-H torsion
[ 8008 7997 7996 7995 ] final   84.57 input   59.86 | X-H torsion
[ 10167 10162 10161 10158 ] final   94.68 input  -65.29 | X-H torsion
[ 10718 10713 10712 10709 ] final  -91.37 input   66.30 | X-H torsion
[ 10763 10752 10751 10750 ] final  -55.15 input  -60.55 | X-H torsion
[ 11005 11000 10999 10996 ] final  149.83 input  -57.11 | X-H torsion

> <Gold.Protein.ActiveResidues>
 VAL166  LYS551  ARG553  GLY616  TRP617  ASP618  TYR619  PRO620  LYS621  CYS622 
 ASP623  PHE694  ASN695  SER759  ASP760  ASP761  ALA762  ILE779  LEU786  VAL792 
 PHE793  MET794  SER795  GLU796  ALA797  LYS798  CYS799  TRP800  GLU811  SER814 

> <Gold.Protein.RotatedAtoms>
  151.1753  133.4758  159.2593 H   0  0  0  0  0  0  0  0  0  0  0  0  # atno 6907 bound_to 6896
  151.1314  135.0132  159.8594 H   0  0  0  0  0  0  0  0  0  0  0  0  # atno 6908 bound_to 6896
  152.5460  134.1656  159.8628 H   0  0  0  0  0  0  0  0  0  0  0  0  # atno 6909 bound_to 6896
  144.7128  140.1314  143.6398 H   0  0  0  0  0  0  0  0  0  0  0  0  # atno 7974 bound_to 7965
  155.9388  140.3409  155.6310 H   0  0  0  0  0  0  0  0  0  0  0  0  # atno 8008 bound_to 7997
  155.7066  140.0766  157.2407 H   0  0  0  0  0  0  0  0  0  0  0  0  # atno 8009 bound_to 7997
  154.4098  140.1630  156.2237 H   0  0  0  0  0  0  0  0  0  0  0  0  # atno 8010 bound_to 7997
  139.8060  144.6794  150.9702 H   0  0  0  0  0  0  0  0  0  0  0  0  # atno 10167 bound_to 10162
  155.9993  130.4945  150.5464 H   0  0  0  0  0  0  0  0  0  0  0  0  # atno 10718 bound_to 10713
  154.1861  135.6435  153.5047 H   0  0  0  0  0  0  0  0  0  0  0  0  # atno 10763 bound_to 10752
  153.0047  135.5417  154.6463 H   0  0  0  0  0  0  0  0  0  0  0  0  # atno 10764 bound_to 10752
  154.5840  135.2928  155.0676 H   0  0  0  0  0  0  0  0  0  0  0  0  # atno 10765 bound_to 10752
  140.1079  134.8943  157.1893 H   0  0  0  0  0  0  0  0  0  0  0  0  # atno 11005 bound_to 11000
  145.9283  139.2589  143.1340 LP  0  0  0  0  0  0  0  0  0  0  0  0  # atno 17320 bound_to 7965
  145.9549  140.8880  143.0240 LP  0  0  0  0  0  0  0  0  0  0  0  0  # atno 17321 bound_to 7965
  140.7819  143.4233  151.0808 LP  0  0  0  0  0  0  0  0  0  0  0  0  # atno 17342 bound_to 10162
  139.7902  143.8229  152.3150 LP  0  0  0  0  0  0  0  0  0  0  0  0  # atno 17343 bound_to 10162
  157.3393  131.0714  151.1800 LP  0  0  0  0  0  0  0  0  0  0  0  0  # atno 17370 bound_to 10713
  157.2654  130.6679  149.5994 LP  0  0  0  0  0  0  0  0  0  0  0  0  # atno 17371 bound_to 10713
  140.3131  134.3001  155.7262 LP  0  0  0  0  0  0  0  0  0  0  0  0  # atno 17394 bound_to 11000
  141.2123  133.7663  156.9805 LP  0  0  0  0  0  0  0  0  0  0  0  0  # atno 17395 bound_to 11000

$$$$
