AV-unprocessed.smi:2181|AV-procd|sdf|8862|dock4
  -GOLD-   2272012 53D 1   1.00000     0.00000
 Structure written by MMmdl.
 38 39  0  0  0  0  0  0  0  0  1 V2000
  150.4157  134.8671  156.6395 C   0  0  0  0  0  0  0  0  0  0  0  0
  150.4434  133.4059  156.2921 C   0  0  0  0  0  0  0  0  0  0  0  0
  150.6982  132.5214  157.2414 N   0  0  0  0  0  0  0  0  0  0  0  0
  150.6407  131.2682  156.6243 O   0  0  0  0  0  0  0  0  0  0  0  0
  150.3487  131.4493  155.3114 C   0  0  0  0  0  0  0  0  0  0  0  0
  150.2307  130.2204  154.4749 C   0  0  0  0  0  0  0  0  0  0  0  0
  150.2109  132.7811  155.0318 C   0  0  0  0  0  0  0  0  0  0  0  0
  149.8811  133.4309  153.7121 C   0  0  0  0  0  0  0  0  0  0  0  0
  148.5229  132.9332  153.2197 C   0  0  0  0  0  0  0  0  0  0  0  0
  148.1592  131.7844  153.4690 O   0  0  0  0  0  0  0  0  0  0  0  0
  147.7823  133.8132  152.5277 N   0  0  0  0  0  0  0  0  0  0  0  0
  146.4549  133.5662  151.9655 C   0  0  1  0  0  0  0  0  0  0  0  0
  146.5267  132.4368  150.9130 C   0  0  0  0  0  0  0  0  0  0  0  0
  145.3726  132.4554  149.8976 C   0  0  0  0  0  0  0  0  0  0  0  0
  143.9773  132.2356  150.5012 C   0  0  0  0  0  0  0  0  0  0  0  0
  143.5297  133.3611  151.4497 C   0  0  0  0  0  0  0  0  0  0  0  0
  144.1255  133.2463  152.7751 N   0  0  0  0  0  0  0  0  0  0  0  0
  145.4286  133.3170  153.0869 C   0  0  0  0  0  0  0  0  0  0  0  0
  145.8005  133.1758  154.2519 O   0  0  0  0  0  0  0  0  0  0  0  0
  149.4594  135.1423  157.0845 H   0  0  0  0  0  0  0  0  0  0  0  0
  150.5617  135.4904  155.7577 H   0  0  0  0  0  0  0  0  0  0  0  0
  151.2006  135.1207  157.3526 H   0  0  0  0  0  0  0  0  0  0  0  0
  149.1832  129.9654  154.3134 H   0  0  0  0  0  0  0  0  0  0  0  0
  150.7169  129.3705  154.9540 H   0  0  0  0  0  0  0  0  0  0  0  0
  150.6959  130.3686  153.5004 H   0  0  0  0  0  0  0  0  0  0  0  0
  149.8556  134.5180  153.7931 H   0  0  0  0  0  0  0  0  0  0  0  0
  150.6370  133.2050  152.9588 H   0  0  0  0  0  0  0  0  0  0  0  0
  148.1698  134.7321  152.3686 H   0  0  0  0  0  0  0  0  0  0  0  0
  146.1472  134.4870  151.4662 H   0  0  0  0  0  0  0  0  0  0  0  0
  147.4553  132.5231  150.3472 H   0  0  0  0  0  0  0  0  0  0  0  0
  146.5751  131.4657  151.4079 H   0  0  0  0  0  0  0  0  0  0  0  0
  145.3871  133.3981  149.3491 H   0  0  0  0  0  0  0  0  0  0  0  0
  145.5542  131.6783  149.1547 H   0  0  0  0  0  0  0  0  0  0  0  0
  143.2625  132.1769  149.6799 H   0  0  0  0  0  0  0  0  0  0  0  0
  143.9295  131.2705  151.0074 H   0  0  0  0  0  0  0  0  0  0  0  0
  143.7361  134.3435  151.0225 H   0  0  0  0  0  0  0  0  0  0  0  0
  142.4489  133.3065  151.5819 H   0  0  0  0  0  0  0  0  0  0  0  0
  143.4825  133.0855  153.5371 H   0  0  0  0  0  0  0  0  0  0  0  0
  1  2  1  0  0  0  0
  1 20  1  0  0  0  0
  1 21  1  0  0  0  0
  1 22  1  0  0  0  0
  2  7  1  0  0  0  0
  2  3  2  0  0  0  0
  3  4  1  0  0  0  0
  4  5  1  0  0  0  0
  5  6  1  0  0  0  0
  5  7  2  0  0  0  0
  6 23  1  0  0  0  0
  6 24  1  0  0  0  0
  6 25  1  0  0  0  0
  7  8  1  0  0  0  0
  8  9  1  0  0  0  0
  8 26  1  0  0  0  0
  8 27  1  0  0  0  0
  9 10  2  0  0  0  0
  9 11  1  0  0  0  0
 11 12  1  0  0  0  0
 11 28  1  0  0  0  0
 12 18  1  0  0  0  0
 12 13  1  0  0  0  0
 12 29  1  0  0  0  0
 13 14  1  0  0  0  0
 13 30  1  0  0  0  0
 13 31  1  0  0  0  0
 14 15  1  0  0  0  0
 14 32  1  0  0  0  0
 14 33  1  0  0  0  0
 15 16  1  0  0  0  0
 15 34  1  0  0  0  0
 15 35  1  0  0  0  0
 16 17  1  0  0  0  0
 16 36  1  0  0  0  0
 16 37  1  0  0  0  0
 17 18  1  0  0  0  0
 17 38  1  0  0  0  0
 18 19  2  0  0  0  0
M  END
> <s_m_source_file>
AV-unprocessed.smi

> <i_m_source_file_index>
2181

> <i_lp_mmshare_version>
43012

> <i_f3d_flags>
0

> <s_epik_input>
W0NIM11jMW5vYyhbQ0gzXSljMVtDSDJdQyg9TylbTkhdW0NAQEhdMltDSDJdW0NIMl1bQ0gyXVtDSDJdW05IXUMyPU8=

> <s_epik_cmdline>
J2VwaWtfcHl0aG9uJywgJy1waCcsICc3LjAnLCAnLXRuJywgJzgnLCAnLW1hJywgJzIwMCcsICctbWV0YWxfYmluZGluZycsICctaW1hZScsICc8aW5maWxlLm1hZT4nLCAnLW9tYWUnLCAnPG91dGZpbGUubWFlPic=

> <r_lp_tautomer_probability>
1

> <r_epik_Ionization_Penalty>
5.91376e-08

> <r_epik_Ionization_Penalty_Charging>
0

> <r_epik_Ionization_Penalty_Neutral>
5.91376e-08

> <r_epik_State_Penalty>
-0

> <r_epik_Charging_Adjusted_Penalty>
0

> <i_epik_Tot_Q>
0

> <i_epik_Tot_abs_Q>
0

> <r_epik_Metal_State_Penalty>
-0

> <b_epik_Metal_Only>
0

> <s_lp_Force_Field>
OPLS_2005

> <r_lp_Energy>
4.12188

> <b_lp_Chiralities_Consistent>
1

> <s_lp_Variant>
AV-unprocessed.smi:2181-2

> <Gold.Version>
5.8.1

> <Gold.Id.Protein>
6NUR|6NUR_protein|mol2

> <Gold.PLP.Fitness>
39.2652

> <Gold.PLP.PLP>
-31.3099

> <Gold.PLP.part.hbond>
-3.0000

> <Gold.PLP.part.metal>
0.0000

> <Gold.PLP.part.buried>
-2.9852

> <Gold.PLP.part.nonpolar>
-24.5687

> <Gold.PLP.part.repulsive>
0.2154

> <Gold.PLP.ligand.clash>
0.0000

> <Gold.PLP.ligand.torsion>
0.3798

> <Gold.PLP.Chemscore.Hbond>
2.8960

> <Gold.PLP.Chemscore.CHOScore>
0.0000

> <Gold.PLP.Chemscore.Metal>
0.0000

> <Gold.Chemscore.Hbonds>
donor molecule, donor type, donor heavy atom, donor atom, acceptor molecule, acceptor atom, score
      L1  H    11    28       P1  7948  1.00
      L1  H    17    38       P1 10957  0.93
      P1  H  6896  6909       L1     3  0.52

> <Gold.PLP.Chemscore.Internal.Correction>
0.0269

> <Gold.Rescore>
     Score         DG    S(hbond)    S(metal)    S(lipo)     H(rot)  DE(clash)    DE(int)     intcor
     13.45     -19.00       2.78        0.00      68.95       1.49       0.11       5.44       ----

> <Gold.Chemscore.Fitness>
13.4537

> <Gold.Chemscore.DG>
-18.9998

> <Gold.Chemscore.ZeroCoef>
-5.4800

> <Gold.Chemscore.Hbond>
2.7783

> <Gold.Chemscore.Metal>
0.0000

> <Gold.Chemscore.Lipo>
68.9509

> <Gold.Chemscore.Internal_Hbond>
0.0000

> <Gold.Chemscore.DEClash>
0.1087

> <Gold.Chemscore.DEInternal>
5.4374

> <Gold.Chemscore.Rot>
1.4949

> <Gold.Chemscore.Internal.Correction>
   9.000000E+99

> <Gold.Chemscore.Hbonds>
donor molecule, donor type, donor heavy atom, donor atom, acceptor molecule, acceptor atom, score
      L1  H    11    28       P1  7948  0.40
      L1  H    17    38       P1 10957  0.81
      P1  H  6896  6909       L1     3  0.43

> <Gold.Chemscore.Hbond.Weighted>
-9.2795

> <Gold.Chemscore.Metal.Weighted>
-0.0000

> <Gold.Chemscore.Lipo.Weighted>
-8.0673

> <Gold.Chemscore.Internal_Hbond.Weighted>
0.0000

> <Gold.Chemscore.DEClash.Weighted>
0.1087

> <Gold.Chemscore.DEInternal.Weighted>
5.4374

> <Gold.Chemscore.Rot.Weighted>
3.8269

> <Gold.Chemscore.Internal.Correction.Weighted>
   9.000000E+99

> <Gold.Protein.RotatedTorsions>
[ 6907 6896 6895 6894 ] final  -24.71 input  -60.11 | X-H torsion
[ 7974 7965 7964 7962 ] final  130.37 input  175.53 | X-H torsion
[ 8008 7997 7996 7995 ] final  -26.11 input   59.86 | X-H torsion
[ 10167 10162 10161 10158 ] final   32.94 input  -65.29 | X-H torsion
[ 10718 10713 10712 10709 ] final  131.57 input   66.30 | X-H torsion
[ 10763 10752 10751 10750 ] final  139.71 input  -60.55 | X-H torsion
[ 11005 11000 10999 10996 ] final  -29.50 input  -57.11 | X-H torsion

> <Gold.Protein.ActiveResidues>
 VAL166  LYS551  ARG553  GLY616  TRP617  ASP618  TYR619  PRO620  LYS621  CYS622 
 ASP623  PHE694  ASN695  SER759  ASP760  ASP761  ALA762  ILE779  LEU786  VAL792 
 PHE793  MET794  SER795  GLU796  ALA797  LYS798  CYS799  TRP800  GLU811  SER814 

> <Gold.Protein.RotatedAtoms>
  151.1857  135.0380  159.8810 H   0  0  0  0  0  0  0  0  0  0  0  0  # atno 6907 bound_to 6896
  152.5442  134.1013  159.8329 H   0  0  0  0  0  0  0  0  0  0  0  0  # atno 6908 bound_to 6896
  151.1135  133.5108  159.2637 H   0  0  0  0  0  0  0  0  0  0  0  0  # atno 6909 bound_to 6896
  145.0187  139.4152  143.5208 H   0  0  0  0  0  0  0  0  0  0  0  0  # atno 7974 bound_to 7965
  154.4442  140.1908  156.0723 H   0  0  0  0  0  0  0  0  0  0  0  0  # atno 8008 bound_to 7997
  156.0501  140.3309  155.7315 H   0  0  0  0  0  0  0  0  0  0  0  0  # atno 8009 bound_to 7997
  155.5569  140.0600  157.2828 H   0  0  0  0  0  0  0  0  0  0  0  0  # atno 8010 bound_to 7997
  140.4453  144.1128  150.6181 H   0  0  0  0  0  0  0  0  0  0  0  0  # atno 10167 bound_to 10162
  157.4955  131.1092  150.9499 H   0  0  0  0  0  0  0  0  0  0  0  0  # atno 10718 bound_to 10713
  153.9106  135.3011  155.3448 H   0  0  0  0  0  0  0  0  0  0  0  0  # atno 10763 bound_to 10752
  154.7625  135.4927  153.9494 H   0  0  0  0  0  0  0  0  0  0  0  0  # atno 10764 bound_to 10752
  153.1195  135.6779  153.9462 H   0  0  0  0  0  0  0  0  0  0  0  0  # atno 10765 bound_to 10752
  140.9301  133.7343  156.0924 H   0  0  0  0  0  0  0  0  0  0  0  0  # atno 11005 bound_to 11000
  146.3482  139.9672  142.8710 LP  0  0  0  0  0  0  0  0  0  0  0  0  # atno 17320 bound_to 7965
  145.1925  140.9818  143.4202 LP  0  0  0  0  0  0  0  0  0  0  0  0  # atno 17321 bound_to 7965
  140.4271  143.2585  151.9642 LP  0  0  0  0  0  0  0  0  0  0  0  0  # atno 17342 bound_to 10162
  139.4792  144.5778  151.7983 LP  0  0  0  0  0  0  0  0  0  0  0  0  # atno 17343 bound_to 10162
  157.0187  130.5665  149.5329 LP  0  0  0  0  0  0  0  0  0  0  0  0  # atno 17370 bound_to 10713
  156.0198  130.5293  150.8242 LP  0  0  0  0  0  0  0  0  0  0  0  0  # atno 17371 bound_to 10713
  140.7873  134.3657  157.5473 LP  0  0  0  0  0  0  0  0  0  0  0  0  # atno 17394 bound_to 11000
  139.8794  134.9119  156.3047 LP  0  0  0  0  0  0  0  0  0  0  0  0  # atno 17395 bound_to 11000

$$$$
