AV-unprocessed.smi:837|AV-procd|sdf|3899|dock5
  -GOLD-   22720 1353D 1   1.00000     0.00000
 Structure written by MMmdl.
 50 52  0  0  0  0  0  0  0  0  2 V2000
  147.4854  136.2441  155.9056 C   0  0  0  0  0  0  0  0  0  0  0  0
  147.8601  134.8218  155.4358 C   0  0  1  0  0  0  0  0  0  0  0  0
  147.1040  134.4748  154.1349 C   0  0  0  0  0  0  0  0  0  0  0  0
  147.3925  133.0400  153.6658 C   0  0  0  0  0  0  0  0  0  0  0  0
  148.8980  132.7997  153.4893 C   0  0  0  0  0  0  0  0  0  0  0  0
  149.6627  133.1275  154.7819 C   0  0  0  0  0  0  0  0  0  0  0  0
  149.3909  134.5726  155.2648 C   0  0  1  0  0  0  0  0  0  0  0  0
  150.0114  135.5413  154.3760 N   0  0  0  0  0  0  0  0  0  0  0  0
  150.9705  136.2583  154.9742 C   0  0  0  0  0  0  0  0  0  0  0  0
  151.6353  137.1424  154.4357 O   0  0  0  0  0  0  0  0  0  0  0  0
  151.0675  135.8526  156.2534 N   0  0  0  0  0  0  0  0  0  0  0  0
  151.9793  136.4470  157.2388 C   0  0  0  0  0  0  0  0  0  0  0  0
  152.0147  137.9798  157.1662 C   0  0  0  0  0  0  0  0  0  0  0  0
  152.9869  138.5675  156.6904 O   0  0  0  0  0  0  0  0  0  0  0  0
  150.9375  138.6163  157.6488 N   0  0  0  0  0  0  0  0  0  0  0  0
  150.7780  140.0659  157.7206 C   0  0  0  0  0  0  0  0  0  0  0  0
  151.5748  140.7048  158.8773 C   0  0  0  0  0  0  0  0  0  0  0  0
  151.6273  142.2222  158.8156 C   0  0  0  0  0  0  0  0  0  0  0  0
  152.4682  142.9492  159.6878 C   0  0  0  0  0  0  0  0  0  0  0  0
  152.4854  144.3575  159.6185 C   0  0  0  0  0  0  0  0  0  0  0  0
  151.6621  145.0081  158.6770 C   0  0  0  0  0  0  0  0  0  0  0  0
  150.8723  144.2798  157.8575 N   0  3  0  0  0  0  0  0  0  0  0  0
  150.8276  142.9296  157.8923 C   0  0  0  0  0  0  0  0  0  0  0  0
  150.1895  134.8774  156.5263 C   0  0  0  0  0  0  0  0  0  0  0  0
  150.0190  134.3098  157.6054 O   0  0  0  0  0  0  0  0  0  0  0  0
  147.8069  137.0032  155.1921 H   0  0  0  0  0  0  0  0  0  0  0  0
  147.9303  136.4844  156.8711 H   0  0  0  0  0  0  0  0  0  0  0  0
  146.4059  136.3419  156.0216 H   0  0  0  0  0  0  0  0  0  0  0  0
  147.5018  134.1342  156.2040 H   0  0  0  0  0  0  0  0  0  0  0  0
  146.0306  134.5923  154.2870 H   0  0  0  0  0  0  0  0  0  0  0  0
  147.3785  135.1771  153.3467 H   0  0  0  0  0  0  0  0  0  0  0  0
  146.9925  132.3319  154.3925 H   0  0  0  0  0  0  0  0  0  0  0  0
  146.8738  132.8451  152.7267 H   0  0  0  0  0  0  0  0  0  0  0  0
  149.0768  131.7621  153.2064 H   0  0  0  0  0  0  0  0  0  0  0  0
  149.2751  133.4112  152.6687 H   0  0  0  0  0  0  0  0  0  0  0  0
  149.3644  132.4192  155.5566 H   0  0  0  0  0  0  0  0  0  0  0  0
  150.7306  132.9695  154.6227 H   0  0  0  0  0  0  0  0  0  0  0  0
  149.7355  135.6505  153.4108 H   0  0  0  0  0  0  0  0  0  0  0  0
  151.6954  136.1556  158.2511 H   0  0  0  0  0  0  0  0  0  0  0  0
  152.9845  136.0498  157.0857 H   0  0  0  0  0  0  0  0  0  0  0  0
  150.1782  138.0553  158.0074 H   0  0  0  0  0  0  0  0  0  0  0  0
  151.0517  140.5243  156.7690 H   0  0  0  0  0  0  0  0  0  0  0  0
  149.7153  140.2642  157.8621 H   0  0  0  0  0  0  0  0  0  0  0  0
  151.1405  140.4048  159.8320 H   0  0  0  0  0  0  0  0  0  0  0  0
  152.5940  140.3167  158.8798 H   0  0  0  0  0  0  0  0  0  0  0  0
  153.0869  142.4359  160.4101 H   0  0  0  0  0  0  0  0  0  0  0  0
  153.1184  144.9287  160.2821 H   0  0  0  0  0  0  0  0  0  0  0  0
  151.6113  146.0805  158.5564 H   0  0  0  0  0  0  0  0  0  0  0  0
  150.1546  142.4604  157.1891 H   0  0  0  0  0  0  0  0  0  0  0  0
  150.2833  144.7705  157.1841 H   0  0  0  0  0  0  0  0  0  0  0  0
  1  2  1  0  0  0  0
  1 26  1  0  0  0  0
  1 27  1  0  0  0  0
  1 28  1  0  0  0  0
  2  7  1  0  0  0  0
  2  3  1  0  0  0  0
  2 29  1  0  0  0  0
  3  4  1  0  0  0  0
  3 30  1  0  0  0  0
  3 31  1  0  0  0  0
  4  5  1  0  0  0  0
  4 32  1  0  0  0  0
  4 33  1  0  0  0  0
  5  6  1  0  0  0  0
  5 34  1  0  0  0  0
  5 35  1  0  0  0  0
  6  7  1  0  0  0  0
  6 36  1  0  0  0  0
  6 37  1  0  0  0  0
  7 24  1  0  0  0  0
  7  8  1  0  0  0  0
  8  9  1  0  0  0  0
  8 38  1  0  0  0  0
  9 10  2  0  0  0  0
  9 11  1  0  0  0  0
 11 12  1  0  0  0  0
 11 24  1  0  0  0  0
 12 13  1  0  0  0  0
 12 39  1  0  0  0  0
 12 40  1  0  0  0  0
 13 14  2  0  0  0  0
 13 15  1  0  0  0  0
 15 16  1  0  0  0  0
 15 41  1  0  0  0  0
 16 17  1  0  0  0  0
 16 42  1  0  0  0  0
 16 43  1  0  0  0  0
 17 18  1  0  0  0  0
 17 44  1  0  0  0  0
 17 45  1  0  0  0  0
 18 23  1  0  0  0  0
 18 19  2  0  0  0  0
 19 20  1  0  0  0  0
 19 46  1  0  0  0  0
 20 21  2  0  0  0  0
 20 47  1  0  0  0  0
 21 22  1  0  0  0  0
 21 48  1  0  0  0  0
 22 23  2  0  0  0  0
 22 50  1  0  0  0  0
 23 49  1  0  0  0  0
 24 25  2  0  0  0  0
M  CHG  1  22   1
M  END
> <s_m_source_file>
AV-unprocessed.smi

> <i_m_source_file_index>
837

> <i_lp_mmshare_version>
43012

> <i_f3d_flags>
0

> <s_epik_input>
W0NIMl0xW0NIMl1bQ0gyXVtDSDJdW0NAQEhdKFtDSDNdKVtDQEBdMTJbTkhdQyg9TylOKEMyPU8pW0NIMl1DKD1PKVtOSF1bQ0gyXVtDSDJdYzNbY0hdW2NIXVtjSF1uW2NIXTM=

> <s_epik_cmdline>
J2VwaWtfcHl0aG9uJywgJy1waCcsICc3LjAnLCAnLXRuJywgJzgnLCAnLW1hJywgJzIwMCcsICctbWV0YWxfYmluZGluZycsICctaW1hZScsICc8aW5maWxlLm1hZT4nLCAnLW9tYWUnLCAnPG91dGZpbGUubWFlPic=

> <r_lp_tautomer_probability>
1

> <r_epik_Ionization_Penalty>
2.28139

> <r_epik_Ionization_Penalty_Charging>
2.28135

> <r_epik_Ionization_Penalty_Neutral>
4.65525e-05

> <r_epik_State_Penalty>
2.43066

> <r_epik_Charging_Adjusted_Penalty>
4.71201

> <i_epik_Tot_Q>
1

> <i_epik_Tot_abs_Q>
1

> <r_epik_Metal_State_Penalty>
2.4646

> <b_epik_Metal_Only>
0

> <s_lp_Force_Field>
OPLS_2005

> <r_lp_Energy>
30.2127

> <b_lp_Chiralities_Consistent>
1

> <s_lp_Variant>
AV-unprocessed.smi:837-8

> <Gold.Version>
5.8.1

> <Gold.Id.Protein>
6NUR|6NUR_protein|mol2

> <Gold.PLP.Fitness>
53.1883

> <Gold.PLP.PLP>
-40.3687

> <Gold.PLP.part.hbond>
-5.7382

> <Gold.PLP.part.metal>
0.0000

> <Gold.PLP.part.buried>
-5.2267

> <Gold.PLP.part.nonpolar>
-30.6987

> <Gold.PLP.part.repulsive>
0.3029

> <Gold.PLP.ligand.clash>
0.0000

> <Gold.PLP.ligand.torsion>
0.5790

> <Gold.PLP.Chemscore.Hbond>
4.6456

> <Gold.PLP.Chemscore.CHOScore>
0.0000

> <Gold.PLP.Chemscore.Metal>
0.0000

> <Gold.Chemscore.Hbonds>
donor molecule, donor type, donor heavy atom, donor atom, acceptor molecule, acceptor atom, score
      L1  H     8    38       P1  7948  0.60
      L1  H    22    50       P1  8028  2.00
      P1  H  6896  6909       L1    25  0.72
      P1  H  7997  8008       L1    14  0.96
      P1  H 10752 10765       L1    10  0.33

> <Gold.PLP.Chemscore.Internal.Correction>
0.0408

> <Gold.Rescore>
     Score         DG    S(hbond)    S(metal)    S(lipo)     H(rot)  DE(clash)    DE(int)     intcor
     16.85     -20.34       2.63        0.00      95.04       1.96       0.62       2.88       ----

> <Gold.Chemscore.Fitness>
16.8503

> <Gold.Chemscore.DG>
-20.3424

> <Gold.Chemscore.ZeroCoef>
-5.4800

> <Gold.Chemscore.Hbond>
2.6256

> <Gold.Chemscore.Metal>
0.0000

> <Gold.Chemscore.Lipo>
95.0438

> <Gold.Chemscore.Internal_Hbond>
0.0000

> <Gold.Chemscore.DEClash>
0.6164

> <Gold.Chemscore.DEInternal>
2.8756

> <Gold.Chemscore.Rot>
1.9638

> <Gold.Chemscore.Internal.Correction>
   9.000000E+99

> <Gold.Chemscore.Hbonds>
donor molecule, donor type, donor heavy atom, donor atom, acceptor molecule, acceptor atom, score
      L1  H     8    38       P1  7948  0.04
      L1  H    22    50       P1  8028  0.31
      P1  H  6896  6909       L1    25  0.71
      P1  H  7997  8008       L1    14  0.90
      P1  H 10752 10765       L1    10  0.01

> <Gold.Chemscore.Hbond.Weighted>
-8.7696

> <Gold.Chemscore.Metal.Weighted>
-0.0000

> <Gold.Chemscore.Lipo.Weighted>
-11.1201

> <Gold.Chemscore.Internal_Hbond.Weighted>
0.0000

> <Gold.Chemscore.DEClash.Weighted>
0.6164

> <Gold.Chemscore.DEInternal.Weighted>
2.8756

> <Gold.Chemscore.Rot.Weighted>
5.0274

> <Gold.Chemscore.Internal.Correction.Weighted>
   9.000000E+99

> <Gold.Protein.RotatedTorsions>
[ 6907 6896 6895 6894 ] final   -8.15 input  -60.11 | X-H torsion
[ 7974 7965 7964 7962 ] final -166.45 input  175.53 | X-H torsion
[ 8008 7997 7996 7995 ] final  -52.48 input   59.86 | X-H torsion
[ 10167 10162 10161 10158 ] final  -17.20 input  -65.29 | X-H torsion
[ 10718 10713 10712 10709 ] final  -33.88 input   66.30 | X-H torsion
[ 10763 10752 10751 10750 ] final  145.65 input  -60.55 | X-H torsion
[ 11005 11000 10999 10996 ] final   56.46 input  -57.11 | X-H torsion

> <Gold.Protein.ActiveResidues>
 VAL166  LYS551  ARG553  GLY616  TRP617  ASP618  TYR619  PRO620  LYS621  CYS622 
 ASP623  PHE694  ASN695  SER759  ASP760  ASP761  ALA762  ILE779  LEU786  VAL792 
 PHE793  MET794  SER795  GLU796  ALA797  LYS798  CYS799  TRP800  GLU811  SER814 

> <Gold.Protein.RotatedAtoms>
  151.4382  135.1017  159.9662 H   0  0  0  0  0  0  0  0  0  0  0  0  # atno 6907 bound_to 6896
  152.4932  133.8554  159.7233 H   0  0  0  0  0  0  0  0  0  0  0  0  # atno 6908 bound_to 6896
  150.9107  133.6943  159.2883 H   0  0  0  0  0  0  0  0  0  0  0  0  # atno 6909 bound_to 6896
  144.7245  140.2665  143.6257 H   0  0  0  0  0  0  0  0  0  0  0  0  # atno 7974 bound_to 7965
  154.4108  140.1223  156.4998 H   0  0  0  0  0  0  0  0  0  0  0  0  # atno 8008 bound_to 7997
  155.6906  140.3495  155.4872 H   0  0  0  0  0  0  0  0  0  0  0  0  # atno 8009 bound_to 7997
  155.9472  140.1098  157.0997 H   0  0  0  0  0  0  0  0  0  0  0  0  # atno 8010 bound_to 7997
  140.7244  143.5040  150.9834 H   0  0  0  0  0  0  0  0  0  0  0  0  # atno 10167 bound_to 10162
  156.3573  130.4318  149.7653 H   0  0  0  0  0  0  0  0  0  0  0  0  # atno 10718 bound_to 10713
  154.0088  135.2916  155.3394 H   0  0  0  0  0  0  0  0  0  0  0  0  # atno 10763 bound_to 10752
  154.7115  135.5147  153.8677 H   0  0  0  0  0  0  0  0  0  0  0  0  # atno 10764 bound_to 10752
  153.0732  135.6655  154.0322 H   0  0  0  0  0  0  0  0  0  0  0  0  # atno 10765 bound_to 10752
  140.0528  134.5713  155.9244 H   0  0  0  0  0  0  0  0  0  0  0  0  # atno 11005 bound_to 11000
  145.8085  139.1993  143.2007 LP  0  0  0  0  0  0  0  0  0  0  0  0  # atno 17320 bound_to 7965
  146.0616  140.7964  142.9732 LP  0  0  0  0  0  0  0  0  0  0  0  0  # atno 17321 bound_to 7965
  139.8750  143.7144  152.3163 LP  0  0  0  0  0  0  0  0  0  0  0  0  # atno 17342 bound_to 10162
  139.7406  144.7560  151.0658 LP  0  0  0  0  0  0  0  0  0  0  0  0  # atno 17343 bound_to 10162
  156.4830  130.8050  151.3063 LP  0  0  0  0  0  0  0  0  0  0  0  0  # atno 17370 bound_to 10713
  157.7469  130.9999  150.2908 LP  0  0  0  0  0  0  0  0  0  0  0  0  # atno 17371 bound_to 10713
  141.1938  133.6580  156.5565 LP  0  0  0  0  0  0  0  0  0  0  0  0  # atno 17394 bound_to 11000
  140.3891  134.7456  157.4710 LP  0  0  0  0  0  0  0  0  0  0  0  0  # atno 17395 bound_to 11000

$$$$
