AV-unprocessed.smi:3306|AV-procd|sdf|12701|dock5
  -GOLD-   2272019 33D 1   1.00000     0.00000
 Structure written by MMmdl.
 45 46  0  0  0  0  0  0  0  0  3 V2000
  145.4537  131.9390  149.3946 C   0  0  0  0  0  0  0  0  0  0  0  0
  145.0395  132.0864  150.8681 C   0  0  0  0  0  0  0  0  0  0  0  0
  143.5966  132.6103  151.0042 C   0  0  0  0  0  0  0  0  0  0  0  0
  146.0400  132.8875  151.6333 N   0  3  2  0  0  0  0  0  0  0  0  0
  147.3304  132.1786  151.8408 C   0  0  0  0  0  0  0  0  0  0  0  0
  148.3947  133.1310  152.4128 C   0  0  0  0  0  0  0  0  0  0  0  0
  147.9232  133.7722  153.7286 C   0  0  1  0  0  0  0  0  0  0  0  0
  148.9513  134.7100  154.2352 N   0  3  0  0  0  0  0  0  0  0  0  0
  150.2730  134.1079  154.5083 C   0  0  0  0  0  0  0  0  0  0  0  0
  150.9736  134.8229  155.6718 C   0  0  0  0  0  0  0  0  0  0  0  0
  151.4824  136.1962  155.2766 C   0  0  0  0  0  0  0  0  0  0  0  0
  150.6056  137.1668  154.7473 C   0  0  0  0  0  0  0  0  0  0  0  0
  151.1318  138.4259  154.3976 C   0  0  0  0  0  0  0  0  0  0  0  0
  152.5059  138.6646  154.5929 C   0  0  0  0  0  0  0  0  0  0  0  0
  153.2966  137.6299  155.1312 C   0  0  0  0  0  0  0  0  0  0  0  0
  152.8021  136.4187  155.4686 N   0  0  0  0  0  0  0  0  0  0  0  0
  146.5695  134.4699  153.4896 C   0  0  0  0  0  0  0  0  0  0  0  0
  145.5378  133.4934  152.8972 C   0  0  0  0  0  0  0  0  0  0  0  0
  144.7981  131.2383  148.8766 H   0  0  0  0  0  0  0  0  0  0  0  0
  146.4718  131.5580  149.3069 H   0  0  0  0  0  0  0  0  0  0  0  0
  145.4021  132.8855  148.8568 H   0  0  0  0  0  0  0  0  0  0  0  0
  145.0573  131.0773  151.2825 H   0  0  0  0  0  0  0  0  0  0  0  0
  142.8947  131.9296  150.5213 H   0  0  0  0  0  0  0  0  0  0  0  0
  143.4709  133.5854  150.5332 H   0  0  0  0  0  0  0  0  0  0  0  0
  143.2927  132.6979  152.0469 H   0  0  0  0  0  0  0  0  0  0  0  0
  147.1869  131.3333  152.5150 H   0  0  0  0  0  0  0  0  0  0  0  0
  147.6889  131.7720  150.8945 H   0  0  0  0  0  0  0  0  0  0  0  0
  149.3246  132.5846  152.5755 H   0  0  0  0  0  0  0  0  0  0  0  0
  148.6173  133.9073  151.6787 H   0  0  0  0  0  0  0  0  0  0  0  0
  147.7931  132.9775  154.4655 H   0  0  0  0  0  0  0  0  0  0  0  0
  149.0902  135.4201  153.5302 H   0  0  0  0  0  0  0  0  0  0  0  0
  150.1564  133.0504  154.7457 H   0  0  0  0  0  0  0  0  0  0  0  0
  150.8890  134.1728  153.6104 H   0  0  0  0  0  0  0  0  0  0  0  0
  150.2879  134.9318  156.5134 H   0  0  0  0  0  0  0  0  0  0  0  0
  151.8089  134.2206  156.0319 H   0  0  0  0  0  0  0  0  0  0  0  0
  149.5553  136.9556  154.6091 H   0  0  0  0  0  0  0  0  0  0  0  0
  150.4934  139.1940  153.9869 H   0  0  0  0  0  0  0  0  0  0  0  0
  152.9436  139.6179  154.3357 H   0  0  0  0  0  0  0  0  0  0  0  0
  154.3534  137.7790  155.2960 H   0  0  0  0  0  0  0  0  0  0  0  0
  146.1763  134.8766  154.4214 H   0  0  0  0  0  0  0  0  0  0  0  0
  146.7002  135.3166  152.8139 H   0  0  0  0  0  0  0  0  0  0  0  0
  144.6058  134.0282  152.7179 H   0  0  0  0  0  0  0  0  0  0  0  0
  145.3204  132.7114  153.6261 H   0  0  0  0  0  0  0  0  0  0  0  0
  146.2624  133.6631  151.0257 H   0  0  0  0  0  0  0  0  0  0  0  0
  148.6097  135.1575  155.0740 H   0  0  0  0  0  0  0  0  0  0  0  0
  1  2  1  0  0  0  0
  1 19  1  0  0  0  0
  1 20  1  0  0  0  0
  1 21  1  0  0  0  0
  2  3  1  0  0  0  0
  2  4  1  0  0  0  0
  2 22  1  0  0  0  0
  3 23  1  0  0  0  0
  3 24  1  0  0  0  0
  3 25  1  0  0  0  0
  4 18  1  0  0  0  0
  4  5  1  0  0  0  0
  4 44  1  0  0  0  0
  5  6  1  0  0  0  0
  5 26  1  0  0  0  0
  5 27  1  0  0  0  0
  6  7  1  0  0  0  0
  6 28  1  0  0  0  0
  6 29  1  0  0  0  0
  7  8  1  0  0  0  0
  7 17  1  0  0  0  0
  7 30  1  0  0  0  0
  8  9  1  0  0  0  0
  8 31  1  0  0  0  0
  8 45  1  0  0  0  0
  9 10  1  0  0  0  0
  9 32  1  0  0  0  0
  9 33  1  0  0  0  0
 10 11  1  0  0  0  0
 10 34  1  0  0  0  0
 10 35  1  0  0  0  0
 11 16  1  0  0  0  0
 11 12  2  0  0  0  0
 12 13  1  0  0  0  0
 12 36  1  0  0  0  0
 13 14  2  0  0  0  0
 13 37  1  0  0  0  0
 14 15  1  0  0  0  0
 14 38  1  0  0  0  0
 15 16  2  0  0  0  0
 15 39  1  0  0  0  0
 17 18  1  0  0  0  0
 17 40  1  0  0  0  0
 17 41  1  0  0  0  0
 18 42  1  0  0  0  0
 18 43  1  0  0  0  0
M  CHG  1   4   1
M  CHG  1   8   1
M  END
> <s_m_source_file>
AV-unprocessed.smi

> <i_m_source_file_index>
3306

> <i_lp_mmshare_version>
43012

> <i_f3d_flags>
0

> <s_epik_input>
W0NIM11bQ0hdKFtDSDNdKU4xW0NIMl1bQ0gyXVtDSF0oW0NIMl1bQ0gyXTEpW05IXVtDSDJdW0NIMl1jMltjSF1bY0hdW2NIXVtjSF1uMg==

> <s_epik_cmdline>
J2VwaWtfcHl0aG9uJywgJy1waCcsICc3LjAnLCAnLXRuJywgJzgnLCAnLW1hJywgJzIwMCcsICctbWV0YWxfYmluZGluZycsICctaW1hZScsICc8aW5maWxlLm1hZT4nLCAnLW9tYWUnLCAnPG91dGZpbGUubWFlPic=

> <r_epik_Ionization_Penalty>
0.0800465

> <r_epik_Ionization_Penalty_Charging>
0.0790817

> <r_epik_Ionization_Penalty_Neutral>
0.000964829

> <r_epik_State_Penalty>
0.0665964

> <r_epik_Charging_Adjusted_Penalty>
0.145678

> <i_epik_Tot_Q>
2

> <i_epik_Tot_abs_Q>
2

> <r_epik_Metal_State_Penalty>
0.0683331

> <b_epik_Metal_Only>
0

> <s_lp_Force_Field>
OPLS_2005

> <r_lp_Energy>
27.4923

> <b_lp_Chiralities_Consistent>
1

> <s_lp_Variant>
AV-unprocessed.smi:3306-1

> <Gold.Version>
5.8.1

> <Gold.Id.Protein>
6NUR|6NUR_protein|mol2

> <Gold.PLP.Fitness>
40.3334

> <Gold.PLP.PLP>
-32.4160

> <Gold.PLP.part.hbond>
-2.0000

> <Gold.PLP.part.metal>
0.0000

> <Gold.PLP.part.buried>
-0.7581

> <Gold.PLP.part.nonpolar>
-29.8817

> <Gold.PLP.part.repulsive>
0.0282

> <Gold.PLP.ligand.clash>
0.0000

> <Gold.PLP.ligand.torsion>
0.6196

> <Gold.PLP.Chemscore.Hbond>
3.0000

> <Gold.PLP.Chemscore.CHOScore>
0.0000

> <Gold.PLP.Chemscore.Metal>
0.0000

> <Gold.Chemscore.Hbonds>
donor molecule, donor type, donor heavy atom, donor atom, acceptor molecule, acceptor atom, score
      L1  H     8    31       P1  7948  2.00

> <Gold.PLP.Chemscore.Internal.Correction>
0.1566

> <Gold.Rescore>
     Score         DG    S(hbond)    S(metal)    S(lipo)     H(rot)  DE(clash)    DE(int)     intcor
     16.49     -18.44       1.69        0.00      94.64       1.47       0.34       1.62       ----

> <Gold.Chemscore.Fitness>
16.4886

> <Gold.Chemscore.DG>
-18.4397

> <Gold.Chemscore.ZeroCoef>
-5.4800

> <Gold.Chemscore.Hbond>
1.6901

> <Gold.Chemscore.Metal>
0.0000

> <Gold.Chemscore.Lipo>
94.6376

> <Gold.Chemscore.Internal_Hbond>
0.0000

> <Gold.Chemscore.DEClash>
0.3352

> <Gold.Chemscore.DEInternal>
1.6158

> <Gold.Chemscore.Rot>
1.4679

> <Gold.Chemscore.Internal.Correction>
   9.000000E+99

> <Gold.Chemscore.Hbonds>
donor molecule, donor type, donor heavy atom, donor atom, acceptor molecule, acceptor atom, score
      L1  H     8    31       P1  7948  0.55

> <Gold.Chemscore.Hbond.Weighted>
-5.6450

> <Gold.Chemscore.Metal.Weighted>
-0.0000

> <Gold.Chemscore.Lipo.Weighted>
-11.0726

> <Gold.Chemscore.Internal_Hbond.Weighted>
0.0000

> <Gold.Chemscore.DEClash.Weighted>
0.3352

> <Gold.Chemscore.DEInternal.Weighted>
1.6158

> <Gold.Chemscore.Rot.Weighted>
3.7579

> <Gold.Chemscore.Internal.Correction.Weighted>
   9.000000E+99

> <Gold.Protein.RotatedTorsions>
[ 6907 6896 6895 6894 ] final  -78.38 input  -60.11 | X-H torsion
[ 7974 7965 7964 7962 ] final   17.57 input  175.53 | X-H torsion
[ 8008 7997 7996 7995 ] final  124.54 input   59.86 | X-H torsion
[ 10167 10162 10161 10158 ] final   13.75 input  -65.29 | X-H torsion
[ 10718 10713 10712 10709 ] final  104.55 input   66.30 | X-H torsion
[ 10763 10752 10751 10750 ] final  -36.70 input  -60.55 | X-H torsion
[ 11005 11000 10999 10996 ] final   98.59 input  -57.11 | X-H torsion

> <Gold.Protein.ActiveResidues>
 VAL166  LYS551  ARG553  GLY616  TRP617  ASP618  TYR619  PRO620  LYS621  CYS622 
 ASP623  PHE694  ASN695  SER759  ASP760  ASP761  ALA762  ILE779  LEU786  VAL792 
 PHE793  MET794  SER795  GLU796  ALA797  LYS798  CYS799  TRP800  GLU811  SER814 

> <Gold.Protein.RotatedAtoms>
  150.6974  134.4280  159.5235 H   0  0  0  0  0  0  0  0  0  0  0  0  # atno 6907 bound_to 6896
  152.2012  134.8583  160.0517 H   0  0  0  0  0  0  0  0  0  0  0  0  # atno 6908 bound_to 6896
  151.9503  133.3629  159.4034 H   0  0  0  0  0  0  0  0  0  0  0  0  # atno 6909 bound_to 6896
  146.2214  139.8583  142.8609 H   0  0  0  0  0  0  0  0  0  0  0  0  # atno 7974 bound_to 7965
  156.2805  140.2737  156.1805 H   0  0  0  0  0  0  0  0  0  0  0  0  # atno 8008 bound_to 7997
  155.0561  140.0386  157.2578 H   0  0  0  0  0  0  0  0  0  0  0  0  # atno 8009 bound_to 7997
  154.7155  140.2677  155.6595 H   0  0  0  0  0  0  0  0  0  0  0  0  # atno 8010 bound_to 7997
  140.5982  143.8659  150.6938 H   0  0  0  0  0  0  0  0  0  0  0  0  # atno 10167 bound_to 10162
  157.6736  131.0806  150.5723 H   0  0  0  0  0  0  0  0  0  0  0  0  # atno 10718 bound_to 10713
  153.8841  135.6818  153.4765 H   0  0  0  0  0  0  0  0  0  0  0  0  # atno 10763 bound_to 10752
  153.1217  135.4737  154.9204 H   0  0  0  0  0  0  0  0  0  0  0  0  # atno 10764 bound_to 10752
  154.7654  135.3223  154.8248 H   0  0  0  0  0  0  0  0  0  0  0  0  # atno 10765 bound_to 10752
  139.8772  134.9056  156.4479 H   0  0  0  0  0  0  0  0  0  0  0  0  # atno 11005 bound_to 11000
  145.2730  141.0115  143.3761 LP  0  0  0  0  0  0  0  0  0  0  0  0  # atno 17320 bound_to 7965
  144.9209  139.4413  143.6542 LP  0  0  0  0  0  0  0  0  0  0  0  0  # atno 17321 bound_to 7965
  140.2199  143.3817  152.1651 LP  0  0  0  0  0  0  0  0  0  0  0  0  # atno 17342 bound_to 10162
  139.5272  144.7117  151.5185 LP  0  0  0  0  0  0  0  0  0  0  0  0  # atno 17343 bound_to 10162
  156.6025  130.4358  149.5891 LP  0  0  0  0  0  0  0  0  0  0  0  0  # atno 17370 bound_to 10713
  156.2495  130.6899  151.1631 LP  0  0  0  0  0  0  0  0  0  0  0  0  # atno 17371 bound_to 10713
  140.8953  133.7818  155.9618 LP  0  0  0  0  0  0  0  0  0  0  0  0  # atno 17394 bound_to 11000
  140.8710  134.2727  157.5191 LP  0  0  0  0  0  0  0  0  0  0  0  0  # atno 17395 bound_to 11000

$$$$
