AV-unprocessed.smi:897|AV-procd|sdf|4079|dock6
  -GOLD-   22720 1563D 1   1.00000     0.00000
 Structure written by MMmdl.
 35 37  0  0  0  0  0  0  0  0  1 V2000
  152.2814  144.4963  158.5389 C   0  0  0  0  0  0  0  0  0  0  0  0
  152.4073  143.0609  159.0041 C   0  0  0  0  0  0  0  0  0  0  0  0
  153.1672  142.7314  160.1417 C   0  0  0  0  0  0  0  0  0  0  0  0
  153.2523  141.3790  160.5298 C   0  0  0  0  0  0  0  0  0  0  0  0
  154.0759  141.0106  161.7544 C   0  0  0  0  0  0  0  0  0  0  0  0
  152.5645  140.4039  159.7608 C   0  0  0  0  0  0  0  0  0  0  0  0
  152.6226  138.9912  160.1326 C   0  0  0  0  0  0  0  0  0  0  0  0
  152.6687  137.8730  160.4266 N   0  0  0  0  0  0  0  0  0  0  0  0
  151.8208  140.8382  158.6287 C   0  0  0  0  0  0  0  0  0  0  0  0
  151.1246  139.9094  157.8325 N   0  0  0  0  0  0  0  0  0  0  0  0
  149.9367  140.2872  157.0740 C   0  0  2  0  0  0  0  0  0  0  0  0
  149.1397  139.0798  156.5630 C   0  0  0  0  0  0  0  0  0  0  0  0
  149.0944  139.3450  155.0533 C   0  0  1  0  0  0  0  0  0  0  0  0
  148.2143  140.5517  154.6999 C   0  0  0  0  0  0  0  0  0  0  0  0
  149.0823  141.7193  155.1684 C   0  0  0  0  0  0  0  0  0  0  0  0
  150.2994  140.9924  155.7561 C   0  0  2  0  0  0  0  0  0  0  0  0
  150.3850  139.8956  154.8601 O   0  0  0  0  0  0  0  0  0  0  0  0
  151.7529  142.1418  158.2663 N   0  0  0  0  0  0  0  0  0  0  0  0
  152.9146  145.1605  159.1280 H   0  0  0  0  0  0  0  0  0  0  0  0
  151.2493  144.8354  158.6340 H   0  0  0  0  0  0  0  0  0  0  0  0
  152.5780  144.5850  157.4934 H   0  0  0  0  0  0  0  0  0  0  0  0
  153.6753  143.5010  160.7044 H   0  0  0  0  0  0  0  0  0  0  0  0
  153.4453  140.5485  162.5144 H   0  0  0  0  0  0  0  0  0  0  0  0
  154.5449  141.8896  162.1969 H   0  0  0  0  0  0  0  0  0  0  0  0
  154.8672  140.3099  161.4871 H   0  0  0  0  0  0  0  0  0  0  0  0
  151.3249  138.9252  157.9393 H   0  0  0  0  0  0  0  0  0  0  0  0
  149.3177  140.9465  157.6843 H   0  0  0  0  0  0  0  0  0  0  0  0
  149.6582  138.1406  156.7627 H   0  0  0  0  0  0  0  0  0  0  0  0
  148.1452  139.0165  157.0055 H   0  0  0  0  0  0  0  0  0  0  0  0
  148.8910  138.4565  154.4550 H   0  0  0  0  0  0  0  0  0  0  0  0
  148.0451  140.6094  153.6241 H   0  0  0  0  0  0  0  0  0  0  0  0
  147.2449  140.5163  155.1983 H   0  0  0  0  0  0  0  0  0  0  0  0
  149.3758  142.3409  154.3218 H   0  0  0  0  0  0  0  0  0  0  0  0
  148.5817  142.3545  155.9000 H   0  0  0  0  0  0  0  0  0  0  0  0
  151.1954  141.6125  155.8043 H   0  0  0  0  0  0  0  0  0  0  0  0
  1  2  1  0  0  0  0
  1 19  1  0  0  0  0
  1 20  1  0  0  0  0
  1 21  1  0  0  0  0
  2 18  1  0  0  0  0
  2  3  2  0  0  0  0
  3  4  1  0  0  0  0
  3 22  1  0  0  0  0
  4  5  1  0  0  0  0
  4  6  2  0  0  0  0
  5 23  1  0  0  0  0
  5 24  1  0  0  0  0
  5 25  1  0  0  0  0
  6  7  1  0  0  0  0
  6  9  1  0  0  0  0
  7  8  3  0  0  0  0
  9 10  1  0  0  0  0
  9 18  2  0  0  0  0
 10 11  1  0  0  0  0
 10 26  1  0  0  0  0
 11 16  1  0  0  0  0
 11 12  1  0  0  0  0
 11 27  1  0  0  0  0
 12 13  1  0  0  0  0
 12 28  1  0  0  0  0
 12 29  1  0  0  0  0
 13 17  1  0  0  0  0
 13 14  1  0  0  0  0
 13 30  1  0  0  0  0
 14 15  1  0  0  0  0
 14 31  1  0  0  0  0
 14 32  1  0  0  0  0
 15 16  1  0  0  0  0
 15 33  1  0  0  0  0
 15 34  1  0  0  0  0
 16 17  1  0  0  0  0
 16 35  1  0  0  0  0
M  END
> <s_m_source_file>
AV-unprocessed.smi

> <i_m_source_file_index>
897

> <i_lp_mmshare_version>
43012

> <i_f3d_flags>
0

> <s_epik_input>
W0NIM11jMVtjSF1jKFtDSDNdKWMoQyNOKWMobjEpW05IXVtDQEhdKFtDSDJdW0NAQEhdMjMpW0NAQEhdKE8zKVtDSDJdW0NIMl0y

> <s_epik_cmdline>
J2VwaWtfcHl0aG9uJywgJy1waCcsICc3LjAnLCAnLXRuJywgJzgnLCAnLW1hJywgJzIwMCcsICctbWV0YWxfYmluZGluZycsICctaW1hZScsICc8aW5maWxlLm1hZT4nLCAnLW9tYWUnLCAnPG91dGZpbGUubWFlPic=

> <r_lp_tautomer_probability>
1

> <r_epik_Ionization_Penalty>
0.000502654

> <r_epik_Ionization_Penalty_Charging>
0

> <r_epik_Ionization_Penalty_Neutral>
0.000502654

> <r_epik_State_Penalty>
-0

> <r_epik_Charging_Adjusted_Penalty>
0

> <i_epik_Tot_Q>
0

> <i_epik_Tot_abs_Q>
0

> <r_epik_Metal_State_Penalty>
-0

> <b_epik_Metal_Only>
0

> <s_lp_Force_Field>
OPLS_2005

> <r_lp_Energy>
43.6406

> <b_lp_Chiralities_Consistent>
1

> <s_lp_Variant>
AV-unprocessed.smi:897-1

> <Gold.Version>
5.8.1

> <Gold.Id.Protein>
6NUR|6NUR_protein|mol2

> <Gold.PLP.Fitness>
40.6806

> <Gold.PLP.PLP>
-38.4362

> <Gold.PLP.part.hbond>
-1.0000

> <Gold.PLP.part.metal>
0.0000

> <Gold.PLP.part.buried>
-3.6413

> <Gold.PLP.part.nonpolar>
-34.2456

> <Gold.PLP.part.repulsive>
0.1532

> <Gold.PLP.ligand.clash>
0.0000

> <Gold.PLP.ligand.torsion>
0.3879

> <Gold.PLP.Chemscore.Hbond>
1.0000

> <Gold.PLP.Chemscore.CHOScore>
0.0000

> <Gold.PLP.Chemscore.Metal>
0.0000

> <Gold.Chemscore.Hbonds>
donor molecule, donor type, donor heavy atom, donor atom, acceptor molecule, acceptor atom, score
      P1  H  7989  7998       L1    17  0.65

> <Gold.PLP.Chemscore.Internal.Correction>
0.0202

> <Gold.Rescore>
     Score         DG    S(hbond)    S(metal)    S(lipo)     H(rot)  DE(clash)    DE(int)     intcor
     17.13     -17.52       0.91        0.00      98.69       1.00       0.02       0.37       ----

> <Gold.Chemscore.Fitness>
17.1297

> <Gold.Chemscore.DG>
-17.5210

> <Gold.Chemscore.ZeroCoef>
-5.4800

> <Gold.Chemscore.Hbond>
0.9146

> <Gold.Chemscore.Metal>
0.0000

> <Gold.Chemscore.Lipo>
98.6868

> <Gold.Chemscore.Internal_Hbond>
0.0000

> <Gold.Chemscore.DEClash>
0.0177

> <Gold.Chemscore.DEInternal>
0.3736

> <Gold.Chemscore.Rot>
1.0000

> <Gold.Chemscore.Internal.Correction>
   9.000000E+99

> <Gold.Chemscore.Hbonds>
donor molecule, donor type, donor heavy atom, donor atom, acceptor molecule, acceptor atom, score
      P1  H  7989  7998       L1    17  0.08

> <Gold.Chemscore.Hbond.Weighted>
-3.0547

> <Gold.Chemscore.Metal.Weighted>
-0.0000

> <Gold.Chemscore.Lipo.Weighted>
-11.5464

> <Gold.Chemscore.Internal_Hbond.Weighted>
0.0000

> <Gold.Chemscore.DEClash.Weighted>
0.0177

> <Gold.Chemscore.DEInternal.Weighted>
0.3736

> <Gold.Chemscore.Rot.Weighted>
2.5600

> <Gold.Chemscore.Internal.Correction.Weighted>
   9.000000E+99

> <Gold.Protein.RotatedTorsions>
[ 6907 6896 6895 6894 ] final  128.64 input  -60.11 | X-H torsion
[ 7974 7965 7964 7962 ] final  151.60 input  175.53 | X-H torsion
[ 8008 7997 7996 7995 ] final  -47.79 input   59.86 | X-H torsion
[ 10167 10162 10161 10158 ] final  -72.73 input  -65.29 | X-H torsion
[ 10718 10713 10712 10709 ] final  110.83 input   66.30 | X-H torsion
[ 10763 10752 10751 10750 ] final -176.05 input  -60.55 | X-H torsion
[ 11005 11000 10999 10996 ] final -120.24 input  -57.11 | X-H torsion

> <Gold.Protein.ActiveResidues>
 VAL166  LYS551  ARG553  GLY616  TRP617  ASP618  TYR619  PRO620  LYS621  CYS622 
 ASP623  PHE694  ASN695  SER759  ASP760  ASP761  ALA762  ILE779  LEU786  VAL792 
 PHE793  MET794  SER795  GLU796  ALA797  LYS798  CYS799  TRP800  GLU811  SER814 

> <Gold.Protein.RotatedAtoms>
  152.3700  133.6407  159.6079 H   0  0  0  0  0  0  0  0  0  0  0  0  # atno 6907 bound_to 6896
  150.7662  133.9285  159.3428 H   0  0  0  0  0  0  0  0  0  0  0  0  # atno 6908 bound_to 6896
  151.7110  135.0914  160.0319 H   0  0  0  0  0  0  0  0  0  0  0  0  # atno 6909 bound_to 6896
  144.8281  139.6559  143.6071 H   0  0  0  0  0  0  0  0  0  0  0  0  # atno 7974 bound_to 7965
  154.4021  140.1337  156.4233 H   0  0  0  0  0  0  0  0  0  0  0  0  # atno 8008 bound_to 7997
  155.7622  140.3486  155.5183 H   0  0  0  0  0  0  0  0  0  0  0  0  # atno 8009 bound_to 7997
  155.8848  140.0993  157.1450 H   0  0  0  0  0  0  0  0  0  0  0  0  # atno 8010 bound_to 7997
  140.5168  143.2337  151.7498 H   0  0  0  0  0  0  0  0  0  0  0  0  # atno 10167 bound_to 10162
  157.6475  131.0940  150.6660 H   0  0  0  0  0  0  0  0  0  0  0  0  # atno 10718 bound_to 10713
  154.5771  135.2833  155.0770 H   0  0  0  0  0  0  0  0  0  0  0  0  # atno 10763 bound_to 10752
  154.2120  135.6406  153.5122 H   0  0  0  0  0  0  0  0  0  0  0  0  # atno 10764 bound_to 10752
  153.0076  135.5494  154.6413 H   0  0  0  0  0  0  0  0  0  0  0  0  # atno 10765 bound_to 10752
  141.0158  134.0198  157.3352 H   0  0  0  0  0  0  0  0  0  0  0  0  # atno 11005 bound_to 11000
  146.2585  139.6357  142.9378 LP  0  0  0  0  0  0  0  0  0  0  0  0  # atno 17320 bound_to 7965
  145.4956  141.0438  143.2569 LP  0  0  0  0  0  0  0  0  0  0  0  0  # atno 17321 bound_to 7965
  139.4912  144.4312  151.9870 LP  0  0  0  0  0  0  0  0  0  0  0  0  # atno 17342 bound_to 10162
  140.3406  144.3207  150.5968 LP  0  0  0  0  0  0  0  0  0  0  0  0  # atno 17343 bound_to 10162
  156.6975  130.4613  149.5582 LP  0  0  0  0  0  0  0  0  0  0  0  0  # atno 17370 bound_to 10713
  156.1818  130.6504  151.0960 LP  0  0  0  0  0  0  0  0  0  0  0  0  # atno 17371 bound_to 10713
  139.9116  135.0191  156.7714 LP  0  0  0  0  0  0  0  0  0  0  0  0  # atno 17394 bound_to 11000
  140.6657  133.9604  155.7829 LP  0  0  0  0  0  0  0  0  0  0  0  0  # atno 17395 bound_to 11000

$$$$
