AV-unprocessed.smi:391|AV-procd|sdf|2479|dock5
  -GOLD-   2262022423D 1   1.00000     0.00000
 Structure written by MMmdl.
 36 37  0  0  0  0  0  0  0  0  1 V2000
  149.7546  144.3992  159.7680 C   0  0  0  0  0  0  0  0  0  0  0  0
  150.9643  143.9686  158.9282 C   0  0  0  0  0  0  0  0  0  0  0  0
  152.0771  145.0285  158.9517 C   0  0  0  0  0  0  0  0  0  0  0  0
  150.5353  143.7101  157.5570 N   0  0  0  0  0  0  0  0  0  0  0  0
  150.5369  142.5124  156.9521 C   0  0  0  0  0  0  0  0  0  0  0  0
  150.8990  141.4748  157.5090 O   0  0  0  0  0  0  0  0  0  0  0  0
  150.0476  142.5007  155.4959 C   0  0  0  0  0  0  0  0  0  0  0  0
  149.6758  141.1546  155.0075 N   0  0  0  0  0  0  0  0  0  0  0  0
  150.6499  140.1239  155.0315 C   0  0  0  0  0  0  0  0  0  0  0  0
  151.7838  140.3307  155.4668 O   0  0  0  0  0  0  0  0  0  0  0  0
  150.2146  138.8350  154.4981 C   0  0  0  0  0  0  0  0  0  0  0  0
  151.1738  137.7808  154.4793 C   0  0  0  0  0  0  0  0  0  0  0  0
  151.9343  136.9083  154.4679 N   0  0  0  0  0  0  0  0  0  0  0  0
  148.9577  138.6605  154.0409 C   0  0  0  0  0  0  0  0  0  0  0  0
  148.0155  139.6656  154.0601 N   0  0  0  0  0  0  0  0  0  0  0  0
  146.7381  139.5050  153.4247 C   0  0  0  0  0  0  0  0  0  0  0  0
  146.2381  138.1253  153.0430 C   0  0  0  0  0  0  0  0  0  0  0  0
  146.6902  139.0871  151.9715 C   0  0  0  0  0  0  0  0  0  0  0  0
  148.3688  140.9606  154.4983 C   0  0  0  0  0  0  0  0  0  0  0  0
  147.5696  141.8982  154.4312 O   0  0  0  0  0  0  0  0  0  0  0  0
  150.0401  144.5719  160.8060 H   0  0  0  0  0  0  0  0  0  0  0  0
  148.9807  143.6310  159.7635 H   0  0  0  0  0  0  0  0  0  0  0  0
  149.3129  145.3208  159.3872 H   0  0  0  0  0  0  0  0  0  0  0  0
  151.3548  143.0447  159.3587 H   0  0  0  0  0  0  0  0  0  0  0  0
  152.4085  145.2257  159.9715 H   0  0  0  0  0  0  0  0  0  0  0  0
  151.7353  145.9723  158.5252 H   0  0  0  0  0  0  0  0  0  0  0  0
  152.9480  144.7022  158.3824 H   0  0  0  0  0  0  0  0  0  0  0  0
  150.2177  144.5064  157.0234 H   0  0  0  0  0  0  0  0  0  0  0  0
  149.2149  143.2007  155.4120 H   0  0  0  0  0  0  0  0  0  0  0  0
  150.8214  142.9339  154.8595 H   0  0  0  0  0  0  0  0  0  0  0  0
  148.6735  137.6947  153.6480 H   0  0  0  0  0  0  0  0  0  0  0  0
  145.9738  140.2143  153.7375 H   0  0  0  0  0  0  0  0  0  0  0  0
  146.8799  137.2695  153.2443 H   0  0  0  0  0  0  0  0  0  0  0  0
  145.1704  137.9376  153.1344 H   0  0  0  0  0  0  0  0  0  0  0  0
  145.9237  139.5391  151.3456 H   0  0  0  0  0  0  0  0  0  0  0  0
  147.6304  138.8659  151.4697 H   0  0  0  0  0  0  0  0  0  0  0  0
  1  2  1  0  0  0  0
  1 21  1  0  0  0  0
  1 22  1  0  0  0  0
  1 23  1  0  0  0  0
  2  3  1  0  0  0  0
  2  4  1  0  0  0  0
  2 24  1  0  0  0  0
  3 25  1  0  0  0  0
  3 26  1  0  0  0  0
  3 27  1  0  0  0  0
  4  5  1  0  0  0  0
  4 28  1  0  0  0  0
  5  6  2  0  0  0  0
  5  7  1  0  0  0  0
  7  8  1  0  0  0  0
  7 29  1  0  0  0  0
  7 30  1  0  0  0  0
  8 19  1  0  0  0  0
  8  9  1  0  0  0  0
  9 10  2  0  0  0  0
  9 11  1  0  0  0  0
 11 12  1  0  0  0  0
 11 14  2  0  0  0  0
 12 13  3  0  0  0  0
 14 15  1  0  0  0  0
 14 31  1  0  0  0  0
 15 16  1  0  0  0  0
 15 19  1  0  0  0  0
 16 18  1  0  0  0  0
 16 17  1  0  0  0  0
 16 32  1  0  0  0  0
 17 18  1  0  0  0  0
 17 33  1  0  0  0  0
 17 34  1  0  0  0  0
 18 35  1  0  0  0  0
 18 36  1  0  0  0  0
 19 20  2  0  0  0  0
M  END
> <s_m_source_file>
AV-unprocessed.smi

> <i_m_source_file_index>
391

> <i_lp_mmshare_version>
43012

> <i_f3d_flags>
0

> <s_epik_input>
W0NIM11bQ0hdKFtDSDNdKVtOSF1DKD1PKVtDSDJdbjFjKD1PKWMoQyNOKVtjSF1uKGMxPU8pW0NIXTJbQ0gyXVtDSDJdMg==

> <s_epik_cmdline>
J2VwaWtfcHl0aG9uJywgJy1waCcsICc3LjAnLCAnLXRuJywgJzgnLCAnLW1hJywgJzIwMCcsICctbWV0YWxfYmluZGluZycsICctaW1hZScsICc8aW5maWxlLm1hZT4nLCAnLW9tYWUnLCAnPG91dGZpbGUubWFlPic=

> <r_lp_tautomer_probability>
1

> <r_epik_Ionization_Penalty>
2.07526e-08

> <r_epik_Ionization_Penalty_Charging>
8.22213e-11

> <r_epik_Ionization_Penalty_Neutral>
2.06703e-08

> <r_epik_State_Penalty>
-0

> <r_epik_Charging_Adjusted_Penalty>
8.22213e-11

> <i_epik_Tot_Q>
0

> <i_epik_Tot_abs_Q>
0

> <r_epik_Metal_State_Penalty>
-0

> <b_epik_Metal_Only>
0

> <s_lp_Force_Field>
OPLS_2005

> <r_lp_Energy>
27.641

> <b_lp_Chiralities_Consistent>
1

> <s_lp_Variant>
AV-unprocessed.smi:391-1

> <Gold.Version>
5.8.1

> <Gold.Id.Protein>
6NUR|6NUR_protein|mol2

> <Gold.PLP.Fitness>
44.7666

> <Gold.PLP.PLP>
-37.3763

> <Gold.PLP.part.hbond>
-2.8968

> <Gold.PLP.part.metal>
0.0000

> <Gold.PLP.part.buried>
0.6119

> <Gold.PLP.part.nonpolar>
-36.3161

> <Gold.PLP.part.repulsive>
0.3252

> <Gold.PLP.ligand.clash>
0.0000

> <Gold.PLP.ligand.torsion>
0.4275

> <Gold.PLP.Chemscore.Hbond>
1.6720

> <Gold.PLP.Chemscore.CHOScore>
1.0000

> <Gold.PLP.Chemscore.Metal>
0.0000

> <Gold.Chemscore.Hbonds>
donor molecule, donor type, donor heavy atom, donor atom, acceptor molecule, acceptor atom, score
      L1  H     4    28       P1  8028  0.69
      P1  H 10752 10765       L1    13  1.00
      L1  C    14    31       P1  7948  1.00

> <Gold.PLP.Chemscore.Internal.Correction>
0.2293

> <Gold.Rescore>
     Score         DG    S(hbond)    S(metal)    S(lipo)     H(rot)  DE(clash)    DE(int)     intcor
      8.29     -13.39       1.39        0.00      67.80       1.82       1.42       3.68       ----

> <Gold.Chemscore.Fitness>
8.2914

> <Gold.Chemscore.DG>
-13.3870

> <Gold.Chemscore.ZeroCoef>
-5.4800

> <Gold.Chemscore.Hbond>
1.3899

> <Gold.Chemscore.Metal>
0.0000

> <Gold.Chemscore.Lipo>
67.8022

> <Gold.Chemscore.Internal_Hbond>
0.0000

> <Gold.Chemscore.DEClash>
1.4177

> <Gold.Chemscore.DEInternal>
3.6779

> <Gold.Chemscore.Rot>
1.8234

> <Gold.Chemscore.Internal.Correction>
   9.000000E+99

> <Gold.Chemscore.Hbonds>
donor molecule, donor type, donor heavy atom, donor atom, acceptor molecule, acceptor atom, score
      L1  H     4    28       P1  8028  0.49
      P1  H 10752 10765       L1    13  0.97

> <Gold.Chemscore.Hbond.Weighted>
-4.6421

> <Gold.Chemscore.Metal.Weighted>
-0.0000

> <Gold.Chemscore.Lipo.Weighted>
-7.9329

> <Gold.Chemscore.Internal_Hbond.Weighted>
0.0000

> <Gold.Chemscore.DEClash.Weighted>
1.4177

> <Gold.Chemscore.DEInternal.Weighted>
3.6779

> <Gold.Chemscore.Rot.Weighted>
4.6680

> <Gold.Chemscore.Internal.Correction.Weighted>
   9.000000E+99

> <Gold.Protein.RotatedTorsions>
[ 6907 6896 6895 6894 ] final   80.08 input  -60.11 | X-H torsion
[ 7974 7965 7964 7962 ] final  -33.82 input  175.53 | X-H torsion
[ 8008 7997 7996 7995 ] final  153.56 input   59.86 | X-H torsion
[ 10167 10162 10161 10158 ] final  -61.95 input  -65.29 | X-H torsion
[ 10718 10713 10712 10709 ] final  168.71 input   66.30 | X-H torsion
[ 10763 10752 10751 10750 ] final  162.47 input  -60.55 | X-H torsion
[ 11005 11000 10999 10996 ] final   92.24 input  -57.11 | X-H torsion

> <Gold.Protein.ActiveResidues>
 VAL166  LYS551  ARG553  GLY616  TRP617  ASP618  TYR619  PRO620  LYS621  CYS622 
 ASP623  PHE694  ASN695  SER759  ASP760  ASP761  ALA762  ILE779  LEU786  VAL792 
 PHE793  MET794  SER795  GLU796  ALA797  LYS798  CYS799  TRP800  GLU811  SER814 

> <Gold.Protein.RotatedAtoms>
  152.5222  134.3413  159.9217 H   0  0  0  0  0  0  0  0  0  0  0  0  # atno 6907 bound_to 6896
  151.3363  133.3974  159.2675 H   0  0  0  0  0  0  0  0  0  0  0  0  # atno 6908 bound_to 6896
  150.9839  134.9207  159.7918 H   0  0  0  0  0  0  0  0  0  0  0  0  # atno 6909 bound_to 6896
  146.0880  140.5963  142.8877 H   0  0  0  0  0  0  0  0  0  0  0  0  # atno 7974 bound_to 7965
  156.2575  140.1990  156.6509 H   0  0  0  0  0  0  0  0  0  0  0  0  # atno 8008 bound_to 7997
  154.6538  140.0569  157.0010 H   0  0  0  0  0  0  0  0  0  0  0  0  # atno 8009 bound_to 7997
  155.1379  140.3240  155.4461 H   0  0  0  0  0  0  0  0  0  0  0  0  # atno 8010 bound_to 7997
  140.5971  143.2353  151.6011 H   0  0  0  0  0  0  0  0  0  0  0  0  # atno 10167 bound_to 10162
  157.0331  131.0265  151.2738 H   0  0  0  0  0  0  0  0  0  0  0  0  # atno 10718 bound_to 10713
  154.2789  135.2764  155.2706 H   0  0  0  0  0  0  0  0  0  0  0  0  # atno 10763 bound_to 10752
  154.5236  135.5749  153.6704 H   0  0  0  0  0  0  0  0  0  0  0  0  # atno 10764 bound_to 10752
  152.9932  135.6210  154.2947 H   0  0  0  0  0  0  0  0  0  0  0  0  # atno 10765 bound_to 10752
  139.8826  134.8721  156.3544 H   0  0  0  0  0  0  0  0  0  0  0  0  # atno 11005 bound_to 11000
  144.7339  140.4753  143.6917 LP  0  0  0  0  0  0  0  0  0  0  0  0  # atno 17320 bound_to 7965
  145.6093  139.1511  143.3085 LP  0  0  0  0  0  0  0  0  0  0  0  0  # atno 17321 bound_to 7965
  139.5266  144.3042  152.1048 LP  0  0  0  0  0  0  0  0  0  0  0  0  # atno 17342 bound_to 10162
  140.2216  144.4460  150.6339 LP  0  0  0  0  0  0  0  0  0  0  0  0  # atno 17343 bound_to 10162
  157.5162  130.7969  149.7759 LP  0  0  0  0  0  0  0  0  0  0  0  0  # atno 17370 bound_to 10713
  156.0063  130.3854  150.2421 LP  0  0  0  0  0  0  0  0  0  0  0  0  # atno 17371 bound_to 10713
  140.9572  133.7412  156.0352 LP  0  0  0  0  0  0  0  0  0  0  0  0  # atno 17394 bound_to 11000
  140.8034  134.3483  157.5433 LP  0  0  0  0  0  0  0  0  0  0  0  0  # atno 17395 bound_to 11000

$$$$
