AV-unprocessed.smi:3335|AV-procd|sdf|12849|dock10
  -GOLD-   2272019243D 1   1.00000     0.00000
 Structure written by MMmdl.
 46 47  0  0  0  0  0  0  0  0  1 V2000
  152.8025  143.4555  159.1280 C   0  0  0  0  0  0  0  0  0  0  0  0
  151.9421  142.3721  158.5443 C   0  0  0  0  0  0  0  0  0  0  0  0
  151.9617  140.9824  158.8518 C   0  0  0  0  0  0  0  0  0  0  0  0
  151.0723  140.2900  158.1597 N   0  0  0  0  0  0  0  0  0  0  0  0
  150.4538  141.2092  157.3847 N   0  0  0  0  0  0  0  0  0  0  0  0
  149.3966  140.8064  156.4655 C   0  0  2  0  0  0  0  0  0  0  0  0
  148.1967  140.2490  157.2556 C   0  0  0  0  0  0  0  0  0  0  0  0
  149.9143  139.8237  155.3793 C   0  0  2  0  0  0  0  0  0  0  0  0
  148.8213  139.3681  154.3936 C   0  0  0  0  0  0  0  0  0  0  0  0
  150.4356  138.6206  156.0293 N   0  0  0  0  0  0  0  0  0  0  0  0
  150.9964  137.6158  155.1067 C   0  0  1  0  0  0  0  0  0  0  0  0
  152.2141  138.2060  154.3799 C   0  0  0  0  0  0  0  0  0  0  0  0
  151.3938  136.3008  155.8146 C   0  0  0  0  0  0  0  0  0  0  0  0
  152.3668  136.3067  156.5706 O   0  0  0  0  0  0  0  0  0  0  0  0
  150.6726  135.1800  155.5938 N   0  0  0  0  0  0  0  0  0  0  0  0
  150.9633  133.9029  156.2439 C   0  0  0  0  0  0  0  0  0  0  0  0
  149.7879  132.9856  155.9066 C   0  0  0  0  0  0  0  0  0  0  0  0
  149.2450  133.5455  154.6002 C   0  0  0  0  0  0  0  0  0  0  0  0
  149.5307  135.0445  154.6895 C   0  0  0  0  0  0  0  0  0  0  0  0
  150.9599  142.4742  157.6003 C   0  0  0  0  0  0  0  0  0  0  0  0
  152.6607  143.5436  160.2052 H   0  0  0  0  0  0  0  0  0  0  0  0
  152.5792  144.4305  158.6942 H   0  0  0  0  0  0  0  0  0  0  0  0
  153.8618  143.2630  158.9570 H   0  0  0  0  0  0  0  0  0  0  0  0
  152.5933  140.4589  159.5545 H   0  0  0  0  0  0  0  0  0  0  0  0
  149.0631  141.7170  155.9647 H   0  0  0  0  0  0  0  0  0  0  0  0
  147.3325  140.0942  156.6100 H   0  0  0  0  0  0  0  0  0  0  0  0
  147.8899  140.9401  158.0413 H   0  0  0  0  0  0  0  0  0  0  0  0
  148.4353  139.2945  157.7266 H   0  0  0  0  0  0  0  0  0  0  0  0
  150.6902  140.3279  154.8008 H   0  0  0  0  0  0  0  0  0  0  0  0
  148.4369  140.2016  153.8057 H   0  0  0  0  0  0  0  0  0  0  0  0
  147.9785  138.9132  154.9153 H   0  0  0  0  0  0  0  0  0  0  0  0
  149.2080  138.6356  153.6845 H   0  0  0  0  0  0  0  0  0  0  0  0
  149.7266  138.2176  156.6254 H   0  0  0  0  0  0  0  0  0  0  0  0
  150.2341  137.4198  154.3547 H   0  0  0  0  0  0  0  0  0  0  0  0
  152.6282  137.4981  153.6609 H   0  0  0  0  0  0  0  0  0  0  0  0
  153.0081  138.4739  155.0786 H   0  0  0  0  0  0  0  0  0  0  0  0
  151.9405  139.1065  153.8289 H   0  0  0  0  0  0  0  0  0  0  0  0
  151.8920  133.5006  155.8368 H   0  0  0  0  0  0  0  0  0  0  0  0
  151.0842  134.0097  157.3231 H   0  0  0  0  0  0  0  0  0  0  0  0
  150.0772  131.9371  155.8311 H   0  0  0  0  0  0  0  0  0  0  0  0
  149.0255  133.0675  156.6825 H   0  0  0  0  0  0  0  0  0  0  0  0
  149.7973  133.1172  153.7628 H   0  0  0  0  0  0  0  0  0  0  0  0
  148.1875  133.3246  154.4512 H   0  0  0  0  0  0  0  0  0  0  0  0
  148.6746  135.5693  155.1163 H   0  0  0  0  0  0  0  0  0  0  0  0
  149.7330  135.4614  153.7019 H   0  0  0  0  0  0  0  0  0  0  0  0
  150.5839  143.3351  157.0671 H   0  0  0  0  0  0  0  0  0  0  0  0
  1  2  1  0  0  0  0
  1 21  1  0  0  0  0
  1 22  1  0  0  0  0
  1 23  1  0  0  0  0
  2 20  2  0  0  0  0
  2  3  1  0  0  0  0
  3  4  2  0  0  0  0
  3 24  1  0  0  0  0
  4  5  1  0  0  0  0
  5  6  1  0  0  0  0
  5 20  1  0  0  0  0
  6  7  1  0  0  0  0
  6  8  1  0  0  0  0
  6 25  1  0  0  0  0
  7 26  1  0  0  0  0
  7 27  1  0  0  0  0
  7 28  1  0  0  0  0
  8  9  1  0  0  0  0
  8 10  1  0  0  0  0
  8 29  1  0  0  0  0
  9 30  1  0  0  0  0
  9 31  1  0  0  0  0
  9 32  1  0  0  0  0
 10 11  1  0  0  0  0
 10 33  1  0  0  0  0
 11 12  1  0  0  0  0
 11 13  1  0  0  0  0
 11 34  1  0  0  0  0
 12 35  1  0  0  0  0
 12 36  1  0  0  0  0
 12 37  1  0  0  0  0
 13 14  2  0  0  0  0
 13 15  1  0  0  0  0
 15 19  1  0  0  0  0
 15 16  1  0  0  0  0
 16 17  1  0  0  0  0
 16 38  1  0  0  0  0
 16 39  1  0  0  0  0
 17 18  1  0  0  0  0
 17 40  1  0  0  0  0
 17 41  1  0  0  0  0
 18 19  1  0  0  0  0
 18 42  1  0  0  0  0
 18 43  1  0  0  0  0
 19 44  1  0  0  0  0
 19 45  1  0  0  0  0
 20 46  1  0  0  0  0
M  END
> <s_m_source_file>
AV-unprocessed.smi

> <i_m_source_file_index>
3335

> <i_lp_mmshare_version>
43012

> <i_f3d_flags>
0

> <s_epik_input>
W0NIM11jMVtjSF1ubihbY0hdMSlbQ0BIXShbQ0gzXSlbQ0BIXShbQ0gzXSlbTkhdW0NASF0oW0NIM10pQyg9TylOMltDSDJdW0NIMl1bQ0gyXVtDSDJdMg==

> <s_epik_cmdline>
J2VwaWtfcHl0aG9uJywgJy1waCcsICc3LjAnLCAnLXRuJywgJzgnLCAnLW1hJywgJzIwMCcsICctbWV0YWxfYmluZGluZycsICctaW1hZScsICc8aW5maWxlLm1hZT4nLCAnLW9tYWUnLCAnPG91dGZpbGUubWFlPic=

> <r_lp_tautomer_probability>
1

> <r_epik_Ionization_Penalty>
0.918803

> <r_epik_Ionization_Penalty_Charging>
0

> <r_epik_Ionization_Penalty_Neutral>
0.918803

> <r_epik_State_Penalty>
0.958258

> <r_epik_Charging_Adjusted_Penalty>
0.958258

> <i_epik_Tot_Q>
0

> <i_epik_Tot_abs_Q>
0

> <r_epik_Metal_State_Penalty>
0.956786

> <b_epik_Metal_Only>
0

> <s_lp_Force_Field>
OPLS_2005

> <r_lp_Energy>
37.1763

> <b_lp_Chiralities_Consistent>
1

> <s_lp_Variant>
AV-unprocessed.smi:3335-13

> <Gold.Version>
5.8.1

> <Gold.Id.Protein>
6NUR|6NUR_protein|mol2

> <Gold.PLP.Fitness>
37.6941

> <Gold.PLP.PLP>
-32.3272

> <Gold.PLP.part.hbond>
-1.0000

> <Gold.PLP.part.metal>
0.0000

> <Gold.PLP.part.buried>
-3.1185

> <Gold.PLP.part.nonpolar>
-29.0543

> <Gold.PLP.part.repulsive>
0.0000

> <Gold.PLP.ligand.clash>
0.0000

> <Gold.PLP.ligand.torsion>
0.1996

> <Gold.PLP.Chemscore.Hbond>
0.8968

> <Gold.PLP.Chemscore.CHOScore>
1.0000

> <Gold.PLP.Chemscore.Metal>
0.0000

> <Gold.Chemscore.Hbonds>
donor molecule, donor type, donor heavy atom, donor atom, acceptor molecule, acceptor atom, score
      P1  H 10752 10764       L1    14  0.75
      L1  C    20    46       P1  8028  0.84

> <Gold.PLP.Chemscore.Internal.Correction>
0.0756

> <Gold.Rescore>
     Score         DG    S(hbond)    S(metal)    S(lipo)     H(rot)  DE(clash)    DE(int)     intcor
     12.28     -12.53       0.00        0.00      95.65       1.62       0.08       0.17       ----

> <Gold.Chemscore.Fitness>
12.2760

> <Gold.Chemscore.DG>
-12.5265

> <Gold.Chemscore.ZeroCoef>
-5.4800

> <Gold.Chemscore.Hbond>
0.0012

> <Gold.Chemscore.Metal>
0.0000

> <Gold.Chemscore.Lipo>
95.6481

> <Gold.Chemscore.Internal_Hbond>
0.0000

> <Gold.Chemscore.DEClash>
0.0790

> <Gold.Chemscore.DEInternal>
0.1715

> <Gold.Chemscore.Rot>
1.6204

> <Gold.Chemscore.Internal.Correction>
   9.000000E+99

> <Gold.Chemscore.Hbonds>
donor molecule, donor type, donor heavy atom, donor atom, acceptor molecule, acceptor atom, score
      P1  H 10752 10764       L1    14  0.09

> <Gold.Chemscore.Hbond.Weighted>
-0.0038

> <Gold.Chemscore.Metal.Weighted>
-0.0000

> <Gold.Chemscore.Lipo.Weighted>
-11.1908

> <Gold.Chemscore.Internal_Hbond.Weighted>
0.0000

> <Gold.Chemscore.DEClash.Weighted>
0.0790

> <Gold.Chemscore.DEInternal.Weighted>
0.1715

> <Gold.Chemscore.Rot.Weighted>
4.1482

> <Gold.Chemscore.Internal.Correction.Weighted>
   9.000000E+99

> <Gold.Protein.RotatedTorsions>
[ 6907 6896 6895 6894 ] final  103.34 input  -60.11 | X-H torsion
[ 7974 7965 7964 7962 ] final   10.90 input  175.53 | X-H torsion
[ 8008 7997 7996 7995 ] final   76.48 input   59.86 | X-H torsion
[ 10167 10162 10161 10158 ] final -106.70 input  -65.29 | X-H torsion
[ 10718 10713 10712 10709 ] final  100.56 input   66.30 | X-H torsion
[ 10763 10752 10751 10750 ] final   -0.03 input  -60.55 | X-H torsion
[ 11005 11000 10999 10996 ] final   96.62 input  -57.11 | X-H torsion

> <Gold.Protein.ActiveResidues>
 VAL166  LYS551  ARG553  GLY616  TRP617  ASP618  TYR619  PRO620  LYS621  CYS622 
 ASP623  PHE694  ASN695  SER759  ASP760  ASP761  ALA762  ILE779  LEU786  VAL792 
 PHE793  MET794  SER795  GLU796  ALA797  LYS798  CYS799  TRP800  GLU811  SER814 

> <Gold.Protein.RotatedAtoms>
  152.5298  133.9841  159.7819 H   0  0  0  0  0  0  0  0  0  0  0  0  # atno 6907 bound_to 6896
  151.0089  133.5976  159.2692 H   0  0  0  0  0  0  0  0  0  0  0  0  # atno 6908 bound_to 6896
  151.3058  135.0787  159.9308 H   0  0  0  0  0  0  0  0  0  0  0  0  # atno 6909 bound_to 6896
  146.2380  139.9565  142.8464 H   0  0  0  0  0  0  0  0  0  0  0  0  # atno 7974 bound_to 7965
  155.8280  140.3467  155.5554 H   0  0  0  0  0  0  0  0  0  0  0  0  # atno 8008 bound_to 7997
  155.8273  140.0921  157.1834 H   0  0  0  0  0  0  0  0  0  0  0  0  # atno 8009 bound_to 7997
  154.4004  140.1419  156.3558 H   0  0  0  0  0  0  0  0  0  0  0  0  # atno 8010 bound_to 7997
  140.1849  143.3937  152.1252 H   0  0  0  0  0  0  0  0  0  0  0  0  # atno 10167 bound_to 10162
  157.6851  131.0702  150.5120 H   0  0  0  0  0  0  0  0  0  0  0  0  # atno 10718 bound_to 10713
  153.3267  135.6972  153.6983 H   0  0  0  0  0  0  0  0  0  0  0  0  # atno 10763 bound_to 10752
  153.5802  135.3499  155.2872 H   0  0  0  0  0  0  0  0  0  0  0  0  # atno 10764 bound_to 10752
  154.8609  135.4293  154.2445 H   0  0  0  0  0  0  0  0  0  0  0  0  # atno 10765 bound_to 10752
  139.8780  134.8960  156.4185 H   0  0  0  0  0  0  0  0  0  0  0  0  # atno 11005 bound_to 11000
  145.1811  140.9767  143.4265 LP  0  0  0  0  0  0  0  0  0  0  0  0  # atno 17320 bound_to 7965
  144.9941  139.3661  143.6200 LP  0  0  0  0  0  0  0  0  0  0  0  0  # atno 17321 bound_to 7965
  139.5280  144.7126  151.5158 LP  0  0  0  0  0  0  0  0  0  0  0  0  # atno 17342 bound_to 10162
  140.6495  143.8726  150.6771 LP  0  0  0  0  0  0  0  0  0  0  0  0  # atno 17343 bound_to 10162
  156.5436  130.4214  149.6141 LP  0  0  0  0  0  0  0  0  0  0  0  0  # atno 17370 bound_to 10713
  156.2963  130.7152  151.2013 LP  0  0  0  0  0  0  0  0  0  0  0  0  # atno 17371 bound_to 10713
  140.9150  133.7685  155.9837 LP  0  0  0  0  0  0  0  0  0  0  0  0  # atno 17394 bound_to 11000
  140.8504  134.2961  157.5278 LP  0  0  0  0  0  0  0  0  0  0  0  0  # atno 17395 bound_to 11000

$$$$
