AV-unprocessed.smi:3218|AV-procd|sdf|12293|dock4
  -GOLD-   2272018133D 1   1.00000     0.00000
 Structure written by MMmdl.
 38 39  0  0  0  0  0  0  0  0  2 V2000
  140.9933  136.0135  152.9397 C   0  0  0  0  0  0  0  0  0  0  0  0
  142.4907  136.0208  152.8243 C   0  0  0  0  0  0  0  0  0  0  0  0
  143.4028  135.0049  153.2283 C   0  0  0  0  0  0  0  0  0  0  0  0
  144.6648  135.3204  152.9848 N   0  0  0  0  0  0  0  0  0  0  0  0
  144.6032  136.5454  152.4210 N   0  0  0  0  0  0  0  0  0  0  0  0
  145.8243  137.2151  152.0115 C   0  0  0  0  0  0  0  0  0  0  0  0
  146.2594  138.2978  153.0121 C   0  0  0  0  0  0  0  0  0  0  0  0
  147.7276  138.4559  153.0427 N   0  3  0  0  0  0  0  0  0  0  0  0
  148.2619  138.8699  154.3537 C   0  0  0  0  0  0  0  0  0  0  0  0
  148.2777  140.4012  154.4821 C   0  0  0  0  0  0  0  0  0  0  0  0
  148.9653  140.8330  155.6961 N   0  0  0  0  0  0  0  0  0  0  0  0
  148.2559  141.5604  156.7352 C   0  0  0  0  0  0  0  0  0  0  0  0
  149.3416  141.9928  157.7312 C   0  0  0  0  0  0  0  0  0  0  0  0
  150.5874  141.1754  157.3722 C   0  0  0  0  0  0  0  0  0  0  0  0
  150.2411  140.5853  156.0157 C   0  0  0  0  0  0  0  0  0  0  0  0
  151.0523  139.9672  155.3283 O   0  0  0  0  0  0  0  0  0  0  0  0
  143.3033  136.9917  152.3112 C   0  0  0  0  0  0  0  0  0  0  0  0
  140.6533  135.3717  153.7528 H   0  0  0  0  0  0  0  0  0  0  0  0
  140.5222  135.6513  152.0258 H   0  0  0  0  0  0  0  0  0  0  0  0
  140.5977  137.0109  153.1328 H   0  0  0  0  0  0  0  0  0  0  0  0
  143.1857  134.0519  153.6880 H   0  0  0  0  0  0  0  0  0  0  0  0
  146.6079  136.4620  151.9209 H   0  0  0  0  0  0  0  0  0  0  0  0
  145.6843  137.6394  151.0160 H   0  0  0  0  0  0  0  0  0  0  0  0
  145.7918  139.2505  152.7594 H   0  0  0  0  0  0  0  0  0  0  0  0
  145.9152  138.0287  154.0114 H   0  0  0  0  0  0  0  0  0  0  0  0
  148.1519  137.5772  152.7824 H   0  0  0  0  0  0  0  0  0  0  0  0
  147.6489  138.4283  155.1405 H   0  0  0  0  0  0  0  0  0  0  0  0
  149.2719  138.4752  154.4709 H   0  0  0  0  0  0  0  0  0  0  0  0
  148.7684  140.8430  153.6136 H   0  0  0  0  0  0  0  0  0  0  0  0
  147.2582  140.7903  154.4902 H   0  0  0  0  0  0  0  0  0  0  0  0
  147.7182  142.4169  156.3267 H   0  0  0  0  0  0  0  0  0  0  0  0
  147.5321  140.8970  157.2105 H   0  0  0  0  0  0  0  0  0  0  0  0
  149.5527  143.0569  157.6171 H   0  0  0  0  0  0  0  0  0  0  0  0
  149.0298  141.8298  158.7633 H   0  0  0  0  0  0  0  0  0  0  0  0
  151.4852  141.7924  157.3215 H   0  0  0  0  0  0  0  0  0  0  0  0
  150.7549  140.3692  158.0871 H   0  0  0  0  0  0  0  0  0  0  0  0
  143.0659  137.9536  151.8808 H   0  0  0  0  0  0  0  0  0  0  0  0
  147.9846  139.1518  152.3564 H   0  0  0  0  0  0  0  0  0  0  0  0
  1  2  1  0  0  0  0
  1 18  1  0  0  0  0
  1 19  1  0  0  0  0
  1 20  1  0  0  0  0
  2 17  2  0  0  0  0
  2  3  1  0  0  0  0
  3  4  2  0  0  0  0
  3 21  1  0  0  0  0
  4  5  1  0  0  0  0
  5  6  1  0  0  0  0
  5 17  1  0  0  0  0
  6  7  1  0  0  0  0
  6 22  1  0  0  0  0
  6 23  1  0  0  0  0
  7  8  1  0  0  0  0
  7 24  1  0  0  0  0
  7 25  1  0  0  0  0
  8  9  1  0  0  0  0
  8 26  1  0  0  0  0
  8 38  1  0  0  0  0
  9 10  1  0  0  0  0
  9 27  1  0  0  0  0
  9 28  1  0  0  0  0
 10 11  1  0  0  0  0
 10 29  1  0  0  0  0
 10 30  1  0  0  0  0
 11 15  1  0  0  0  0
 11 12  1  0  0  0  0
 12 13  1  0  0  0  0
 12 31  1  0  0  0  0
 12 32  1  0  0  0  0
 13 14  1  0  0  0  0
 13 33  1  0  0  0  0
 13 34  1  0  0  0  0
 14 15  1  0  0  0  0
 14 35  1  0  0  0  0
 14 36  1  0  0  0  0
 15 16  2  0  0  0  0
 17 37  1  0  0  0  0
M  CHG  1   8   1
M  END
> <s_m_source_file>
AV-unprocessed.smi

> <i_m_source_file_index>
3218

> <i_lp_mmshare_version>
43012

> <i_f3d_flags>
0

> <s_epik_input>
W0NIM11jMVtjSF1ubihbY0hdMSlbQ0gyXVtDSDJdW05IXVtDSDJdW0NIMl1OMltDSDJdW0NIMl1bQ0gyXUMyPU8=

> <s_epik_cmdline>
J2VwaWtfcHl0aG9uJywgJy1waCcsICc3LjAnLCAnLXRuJywgJzgnLCAnLW1hJywgJzIwMCcsICctbWV0YWxfYmluZGluZycsICctaW1hZScsICc8aW5maWxlLm1hZT4nLCAnLW9tYWUnLCAnPG91dGZpbGUubWFlPic=

> <r_lp_tautomer_probability>
1

> <r_epik_Ionization_Penalty>
0.00826456

> <r_epik_Ionization_Penalty_Charging>
0.00825899

> <r_epik_Ionization_Penalty_Neutral>
5.57245e-06

> <r_epik_State_Penalty>
0.00621436

> <r_epik_Charging_Adjusted_Penalty>
0.0144734

> <i_epik_Tot_Q>
1

> <i_epik_Tot_abs_Q>
1

> <r_epik_Metal_State_Penalty>
0.00623755

> <b_epik_Metal_Only>
0

> <s_lp_Force_Field>
OPLS_2005

> <r_lp_Energy>
17.5309

> <b_lp_Chiralities_Consistent>
1

> <s_lp_Variant>
AV-unprocessed.smi:3218-1

> <Gold.Version>
5.8.1

> <Gold.Id.Protein>
6NUR|6NUR_protein|mol2

> <Gold.PLP.Fitness>
48.8416

> <Gold.PLP.PLP>
-30.5591

> <Gold.PLP.part.hbond>
-3.0000

> <Gold.PLP.part.metal>
0.0000

> <Gold.PLP.part.buried>
-3.0695

> <Gold.PLP.part.nonpolar>
-24.8400

> <Gold.PLP.part.repulsive>
0.1819

> <Gold.PLP.ligand.clash>
0.0000

> <Gold.PLP.ligand.torsion>
0.8300

> <Gold.PLP.Chemscore.Hbond>
3.9280

> <Gold.PLP.Chemscore.CHOScore>
2.7026

> <Gold.PLP.Chemscore.Metal>
0.0000

> <Gold.Chemscore.Hbonds>
donor molecule, donor type, donor heavy atom, donor atom, acceptor molecule, acceptor atom, score
      L1  H     8    26       P1  7948  2.00
      L1  H     8    38       P1  7957  0.58
      P1  H  7989  7998       L1    16  0.78
      L1  C     3    21       P1 10957  0.86
      L1  C    17    37       P1 10171  0.85
      L1  C    17    37       P1 10175  0.83

> <Gold.PLP.Chemscore.Internal.Correction>
0.0509

> <Gold.Rescore>
     Score         DG    S(hbond)    S(metal)    S(lipo)     H(rot)  DE(clash)    DE(int)     intcor
     15.92     -16.45       2.88        0.00      56.12       2.03       0.10       0.44       ----

> <Gold.Chemscore.Fitness>
15.9156

> <Gold.Chemscore.DG>
-16.4498

> <Gold.Chemscore.ZeroCoef>
-5.4800

> <Gold.Chemscore.Hbond>
2.8758

> <Gold.Chemscore.Metal>
0.0000

> <Gold.Chemscore.Lipo>
56.1232

> <Gold.Chemscore.Internal_Hbond>
0.0000

> <Gold.Chemscore.DEClash>
0.0960

> <Gold.Chemscore.DEInternal>
0.4382

> <Gold.Chemscore.Rot>
2.0319

> <Gold.Chemscore.Internal.Correction>
   9.000000E+99

> <Gold.Chemscore.Hbonds>
donor molecule, donor type, donor heavy atom, donor atom, acceptor molecule, acceptor atom, score
      L1  H     8    26       P1  7948  1.00
      L1  H     8    38       P1  7957  0.57
      P1  H  7989  7998       L1    16  0.72

> <Gold.Chemscore.Hbond.Weighted>
-9.6051

> <Gold.Chemscore.Metal.Weighted>
-0.0000

> <Gold.Chemscore.Lipo.Weighted>
-6.5664

> <Gold.Chemscore.Internal_Hbond.Weighted>
0.0000

> <Gold.Chemscore.DEClash.Weighted>
0.0960

> <Gold.Chemscore.DEInternal.Weighted>
0.4382

> <Gold.Chemscore.Rot.Weighted>
5.2017

> <Gold.Chemscore.Internal.Correction.Weighted>
   9.000000E+99

> <Gold.Protein.RotatedTorsions>
[ 6907 6896 6895 6894 ] final -113.72 input  -60.11 | X-H torsion
[ 7974 7965 7964 7962 ] final -130.59 input  175.53 | X-H torsion
[ 8008 7997 7996 7995 ] final   63.22 input   59.86 | X-H torsion
[ 10167 10162 10161 10158 ] final -130.73 input  -65.29 | X-H torsion
[ 10718 10713 10712 10709 ] final   89.49 input   66.30 | X-H torsion
[ 10763 10752 10751 10750 ] final  112.76 input  -60.55 | X-H torsion
[ 11005 11000 10999 10996 ] final -107.74 input  -57.11 | X-H torsion

> <Gold.Protein.ActiveResidues>
 VAL166  LYS551  ARG553  GLY616  TRP617  ASP618  TYR619  PRO620  LYS621  CYS622 
 ASP623  PHE694  ASN695  SER759  ASP760  ASP761  ALA762  ILE779  LEU786  VAL792 
 PHE793  MET794  SER795  GLU796  ALA797  LYS798  CYS799  TRP800  GLU811  SER814 

> <Gold.Protein.RotatedAtoms>
  150.7849  133.8904  159.3311 H   0  0  0  0  0  0  0  0  0  0  0  0  # atno 6907 bound_to 6896
  151.6757  135.0967  160.0216 H   0  0  0  0  0  0  0  0  0  0  0  0  # atno 6908 bound_to 6896
  152.3911  133.6641  159.6273 H   0  0  0  0  0  0  0  0  0  0  0  0  # atno 6909 bound_to 6896
  144.9460  140.7292  143.4817 H   0  0  0  0  0  0  0  0  0  0  0  0  # atno 7974 bound_to 7965
  155.6268  140.3496  155.4670 H   0  0  0  0  0  0  0  0  0  0  0  0  # atno 8008 bound_to 7997
  156.0035  140.1218  157.0548 H   0  0  0  0  0  0  0  0  0  0  0  0  # atno 8009 bound_to 7997
  154.4256  140.1096  156.5716 H   0  0  0  0  0  0  0  0  0  0  0  0  # atno 8010 bound_to 7997
  139.9263  143.6324  152.2541 H   0  0  0  0  0  0  0  0  0  0  0  0  # atno 10167 bound_to 10162
  157.6955  131.0335  150.3434 H   0  0  0  0  0  0  0  0  0  0  0  0  # atno 10718 bound_to 10713
  153.4826  135.3676  155.2450 H   0  0  0  0  0  0  0  0  0  0  0  0  # atno 10763 bound_to 10752
  154.8755  135.3958  154.3682 H   0  0  0  0  0  0  0  0  0  0  0  0  # atno 10764 bound_to 10752
  153.4288  135.7082  153.6310 H   0  0  0  0  0  0  0  0  0  0  0  0  # atno 10765 bound_to 10752
  141.0938  133.9007  157.2011 H   0  0  0  0  0  0  0  0  0  0  0  0  # atno 11005 bound_to 11000
  145.2917  139.1881  143.4736 LP  0  0  0  0  0  0  0  0  0  0  0  0  # atno 17320 bound_to 7965
  146.3303  140.2895  142.8614 LP  0  0  0  0  0  0  0  0  0  0  0  0  # atno 17321 bound_to 7965
  139.6820  144.7655  151.1592 LP  0  0  0  0  0  0  0  0  0  0  0  0  # atno 17342 bound_to 10162
  140.7649  143.5712  150.8994 LP  0  0  0  0  0  0  0  0  0  0  0  0  # atno 17343 bound_to 10162
  156.3892  130.3895  149.7043 LP  0  0  0  0  0  0  0  0  0  0  0  0  # atno 17370 bound_to 10713
  156.4398  130.7856  151.2877 LP  0  0  0  0  0  0  0  0  0  0  0  0  # atno 17371 bound_to 10713
  139.9770  135.0110  156.9656 LP  0  0  0  0  0  0  0  0  0  0  0  0  # atno 17394 bound_to 11000
  140.5188  134.0928  155.7287 LP  0  0  0  0  0  0  0  0  0  0  0  0  # atno 17395 bound_to 11000

$$$$
