AV-unprocessed.smi:966|AV-procd|sdf|4283|dock3
  -GOLD-   22720 2193D 1   1.00000     0.00000
 Structure written by MMmdl.
 30 31  0  0  0  0  0  0  0  0  2 V2000
  153.4278  142.9242  163.5034 C   0  0  0  0  0  0  0  0  0  0  0  0
  152.9956  142.9877  162.0496 C   0  0  0  0  0  0  0  0  0  0  0  0
  152.1561  144.0772  161.6050 C   0  0  0  0  0  0  0  0  0  0  0  0
  151.7611  144.1163  160.2818 C   0  0  0  0  0  0  0  0  0  0  0  0
  151.0565  144.9672  159.6895 O   0  5  0  0  0  0  0  0  0  0  0  0
  152.1704  143.0924  159.3629 N   0  0  0  0  0  0  0  0  0  0  0  0
  151.7389  143.1052  157.9343 C   0  0  0  0  0  0  0  0  0  0  0  0
  150.9641  141.8274  157.5537 C   0  0  2  0  0  0  0  0  0  0  0  0
  150.6911  141.7047  156.0551 C   0  0  0  0  0  0  0  0  0  0  0  0
  149.4676  140.8179  156.0367 C   0  0  0  0  0  0  0  0  0  0  0  0
  148.6923  141.3462  157.2386 C   0  0  0  0  0  0  0  0  0  0  0  0
  149.6747  141.8014  158.1646 O   0  0  0  0  0  0  0  0  0  0  0  0
  152.9930  142.0673  159.7541 C   0  0  0  0  0  0  0  0  0  0  0  0
  153.3843  141.2018  158.9669 O   0  0  0  0  0  0  0  0  0  0  0  0
  153.3876  142.0470  161.1658 C   0  0  0  0  0  0  0  0  0  0  0  0
  154.2231  140.9559  161.5573 C   0  0  0  0  0  0  0  0  0  0  0  0
  154.9194  140.0853  161.8718 N   0  0  0  0  0  0  0  0  0  0  0  0
  153.0110  143.7535  164.0755 H   0  0  0  0  0  0  0  0  0  0  0  0
  154.5144  142.9739  163.5803 H   0  0  0  0  0  0  0  0  0  0  0  0
  153.0899  141.9946  163.9622 H   0  0  0  0  0  0  0  0  0  0  0  0
  151.8513  144.8527  162.2927 H   0  0  0  0  0  0  0  0  0  0  0  0
  151.1283  143.9776  157.6966 H   0  0  0  0  0  0  0  0  0  0  0  0
  152.5915  143.2339  157.2658 H   0  0  0  0  0  0  0  0  0  0  0  0
  151.5029  140.9383  157.8841 H   0  0  0  0  0  0  0  0  0  0  0  0
  150.4498  142.6784  155.6259 H   0  0  0  0  0  0  0  0  0  0  0  0
  151.5333  141.2861  155.5036 H   0  0  0  0  0  0  0  0  0  0  0  0
  148.9053  140.8771  155.1045 H   0  0  0  0  0  0  0  0  0  0  0  0
  149.7548  139.7783  156.2000 H   0  0  0  0  0  0  0  0  0  0  0  0
  148.0732  142.1957  156.9481 H   0  0  0  0  0  0  0  0  0  0  0  0
  148.0439  140.5902  157.6817 H   0  0  0  0  0  0  0  0  0  0  0  0
  1  2  1  0  0  0  0
  1 18  1  0  0  0  0
  1 19  1  0  0  0  0
  1 20  1  0  0  0  0
  2 15  2  0  0  0  0
  2  3  1  0  0  0  0
  3  4  2  0  0  0  0
  3 21  1  0  0  0  0
  4  5  1  0  0  0  0
  4  6  1  0  0  0  0
  6  7  1  0  0  0  0
  6 13  1  0  0  0  0
  7  8  1  0  0  0  0
  7 22  1  0  0  0  0
  7 23  1  0  0  0  0
  8 12  1  0  0  0  0
  8  9  1  0  0  0  0
  8 24  1  0  0  0  0
  9 10  1  0  0  0  0
  9 25  1  0  0  0  0
  9 26  1  0  0  0  0
 10 11  1  0  0  0  0
 10 27  1  0  0  0  0
 10 28  1  0  0  0  0
 11 12  1  0  0  0  0
 11 29  1  0  0  0  0
 11 30  1  0  0  0  0
 13 14  2  0  0  0  0
 13 15  1  0  0  0  0
 15 16  1  0  0  0  0
 16 17  3  0  0  0  0
M  CHG  1   5  -1
M  END
> <s_m_source_file>
AV-unprocessed.smi

> <i_m_source_file_index>
966

> <i_lp_mmshare_version>
43012

> <i_f3d_flags>
0

> <s_epik_input>
W0NIM11jMVtjSF1jKFtPSF0pbihjKD1PKWMxQyNOKVtDSDJdW0NAQEhdMltDSDJdW0NIMl1bQ0gyXU8y

> <s_epik_cmdline>
J2VwaWtfcHl0aG9uJywgJy1waCcsICc3LjAnLCAnLXRuJywgJzgnLCAnLW1hJywgJzIwMCcsICctbWV0YWxfYmluZGluZycsICctaW1hZScsICc8aW5maWxlLm1hZT4nLCAnLW9tYWUnLCAnPG91dGZpbGUubWFlPic=

> <r_lp_tautomer_probability>
1

> <r_epik_Ionization_Penalty>
3.48555e-06

> <r_epik_Ionization_Penalty_Charging>
3.48554e-06

> <r_epik_Ionization_Penalty_Neutral>
1.71861e-11

> <r_epik_State_Penalty>
-0

> <r_epik_Charging_Adjusted_Penalty>
3.48554e-06

> <i_epik_Tot_Q>
-1

> <i_epik_Tot_abs_Q>
1

> <r_epik_Metal_State_Penalty>
-0

> <b_epik_Metal_Only>
0

> <s_lp_Force_Field>
OPLS_2005

> <r_lp_Energy>
36.1557

> <b_lp_Chiralities_Consistent>
1

> <s_lp_Variant>
AV-unprocessed.smi:966-1

> <Gold.Version>
5.8.1

> <Gold.Id.Protein>
6NUR|6NUR_protein|mol2

> <Gold.PLP.Fitness>
40.9035

> <Gold.PLP.PLP>
-40.9994

> <Gold.PLP.part.hbond>
-0.2235

> <Gold.PLP.part.metal>
0.0000

> <Gold.PLP.part.buried>
-5.3095

> <Gold.PLP.part.nonpolar>
-35.3733

> <Gold.PLP.part.repulsive>
0.2153

> <Gold.PLP.ligand.clash>
0.0000

> <Gold.PLP.ligand.torsion>
0.0488

> <Gold.PLP.Chemscore.Hbond>
0.0000

> <Gold.PLP.Chemscore.CHOScore>
0.0000

> <Gold.PLP.Chemscore.Metal>
0.0000

> <Gold.PLP.Chemscore.Internal.Correction>
0.0018

> <Gold.Rescore>
     Score         DG    S(hbond)    S(metal)    S(lipo)     H(rot)  DE(clash)    DE(int)     intcor
     11.71     -11.98       0.00        0.00      82.93       1.25       0.12       0.15       ----

> <Gold.Chemscore.Fitness>
11.7116

> <Gold.Chemscore.DG>
-11.9791

> <Gold.Chemscore.ZeroCoef>
-5.4800

> <Gold.Chemscore.Hbond>
0.0000

> <Gold.Chemscore.Metal>
0.0000

> <Gold.Chemscore.Lipo>
82.9289

> <Gold.Chemscore.Internal_Hbond>
0.0000

> <Gold.Chemscore.DEClash>
0.1162

> <Gold.Chemscore.DEInternal>
0.1513

> <Gold.Chemscore.Rot>
1.2514

> <Gold.Chemscore.Internal.Correction>
   9.000000E+99

> <Gold.Chemscore.Hbond.Weighted>
-0.0000

> <Gold.Chemscore.Metal.Weighted>
-0.0000

> <Gold.Chemscore.Lipo.Weighted>
-9.7027

> <Gold.Chemscore.Internal_Hbond.Weighted>
0.0000

> <Gold.Chemscore.DEClash.Weighted>
0.1162

> <Gold.Chemscore.DEInternal.Weighted>
0.1513

> <Gold.Chemscore.Rot.Weighted>
3.2036

> <Gold.Chemscore.Internal.Correction.Weighted>
   9.000000E+99

> <Gold.Protein.RotatedTorsions>
[ 6907 6896 6895 6894 ] final  -81.14 input  -60.11 | X-H torsion
[ 7974 7965 7964 7962 ] final  130.36 input  175.53 | X-H torsion
[ 8008 7997 7996 7995 ] final -125.26 input   59.86 | X-H torsion
[ 10167 10162 10161 10158 ] final -118.46 input  -65.29 | X-H torsion
[ 10718 10713 10712 10709 ] final  -39.33 input   66.30 | X-H torsion
[ 10763 10752 10751 10750 ] final   28.50 input  -60.55 | X-H torsion
[ 11005 11000 10999 10996 ] final   56.50 input  -57.11 | X-H torsion

> <Gold.Protein.ActiveResidues>
 VAL166  LYS551  ARG553  GLY616  TRP617  ASP618  TYR619  PRO620  LYS621  CYS622 
 ASP623  PHE694  ASN695  SER759  ASP760  ASP761  ALA762  ILE779  LEU786  VAL792 
 PHE793  MET794  SER795  GLU796  ALA797  LYS798  CYS799  TRP800  GLU811  SER814 

> <Gold.Protein.RotatedAtoms>
  150.6917  134.3863  159.5055 H   0  0  0  0  0  0  0  0  0  0  0  0  # atno 6907 bound_to 6896
  152.1657  134.8872  160.0547 H   0  0  0  0  0  0  0  0  0  0  0  0  # atno 6908 bound_to 6896
  151.9917  133.3758  159.4184 H   0  0  0  0  0  0  0  0  0  0  0  0  # atno 6909 bound_to 6896
  145.0187  139.4152  143.5208 H   0  0  0  0  0  0  0  0  0  0  0  0  # atno 7974 bound_to 7965
  155.2103  140.0418  157.2932 H   0  0  0  0  0  0  0  0  0  0  0  0  # atno 8008 bound_to 7997
  154.6016  140.2453  155.7756 H   0  0  0  0  0  0  0  0  0  0  0  0  # atno 8009 bound_to 7997
  156.2324  140.2933  156.0233 H   0  0  0  0  0  0  0  0  0  0  0  0  # atno 8010 bound_to 7997
  140.0572  143.5002  152.2051 H   0  0  0  0  0  0  0  0  0  0  0  0  # atno 10167 bound_to 10162
  156.2937  130.4231  149.8213 H   0  0  0  0  0  0  0  0  0  0  0  0  # atno 10718 bound_to 10713
  153.0488  135.6511  154.0747 H   0  0  0  0  0  0  0  0  0  0  0  0  # atno 10763 bound_to 10752
  154.0440  135.2901  155.3352 H   0  0  0  0  0  0  0  0  0  0  0  0  # atno 10764 bound_to 10752
  154.6763  135.5337  153.8270 H   0  0  0  0  0  0  0  0  0  0  0  0  # atno 10765 bound_to 10752
  140.0524  134.5718  155.9248 H   0  0  0  0  0  0  0  0  0  0  0  0  # atno 11005 bound_to 11000
  146.3482  139.9673  142.8710 LP  0  0  0  0  0  0  0  0  0  0  0  0  # atno 17320 bound_to 7965
  145.1924  140.9818  143.4203 LP  0  0  0  0  0  0  0  0  0  0  0  0  # atno 17321 bound_to 7965
  139.5916  144.7552  151.3387 LP  0  0  0  0  0  0  0  0  0  0  0  0  # atno 17342 bound_to 10162
  140.7189  143.7191  150.7710 LP  0  0  0  0  0  0  0  0  0  0  0  0  # atno 17343 bound_to 10162
  156.5616  130.8386  151.3330 LP  0  0  0  0  0  0  0  0  0  0  0  0  # atno 17370 bound_to 10713
  157.7349  130.9754  150.2055 LP  0  0  0  0  0  0  0  0  0  0  0  0  # atno 17371 bound_to 10713
  141.1936  133.6580  156.5557 LP  0  0  0  0  0  0  0  0  0  0  0  0  # atno 17394 bound_to 11000
  140.3897  134.7451  157.4713 LP  0  0  0  0  0  0  0  0  0  0  0  0  # atno 17395 bound_to 11000

$$$$
