AV-unprocessed.smi:260|AV-procd|sdf|1977|dock7
  -GOLD-   2262021143D 1   1.00000     0.00000
 Structure written by MMmdl.
 53 56  0  0  0  0  0  0  0  0  1 V2000
  143.2359  136.3593  161.7570 C   0  0  0  0  0  0  0  0  0  0  0  0
  144.5670  135.8238  161.9984 N   0  0  0  0  0  0  0  0  0  0  0  0
  145.7093  136.4693  161.7128 C   0  0  0  0  0  0  0  0  0  0  0  0
  145.7096  137.5956  161.2127 O   0  0  0  0  0  0  0  0  0  0  0  0
  147.0528  135.7544  162.0292 C   0  0  1  0  0  0  0  0  0  0  0  0
  147.8033  136.4156  163.2089 C   0  0  0  0  0  0  0  0  0  0  0  0
  146.8055  134.2536  162.2864 C   0  0  0  0  0  0  0  0  0  0  0  0
  146.8050  133.6041  160.9004 C   0  0  0  0  0  0  0  0  0  0  0  0
  147.6576  134.4555  160.0895 N   0  0  0  0  0  0  0  0  0  0  0  0
  147.8276  134.2883  158.7520 C   0  0  0  0  0  0  0  0  0  0  0  0
  149.0190  134.6508  158.2062 N   0  0  0  0  0  0  0  0  0  0  0  0
  149.2402  134.5094  156.8969 C   0  0  0  0  0  0  0  0  0  0  0  0
  148.4210  134.0299  155.9606 N   0  0  0  0  0  0  0  0  0  0  0  0
  147.2249  133.6559  156.4973 C   0  0  0  0  0  0  0  0  0  0  0  0
  146.8457  133.7469  157.8683 C   0  0  0  0  0  0  0  0  0  0  0  0
  145.5491  133.2649  158.0218 N   0  0  0  0  0  0  0  0  0  0  0  0
  145.1845  132.9176  156.8185 C   0  0  0  0  0  0  0  0  0  0  0  0
  146.1300  133.1214  155.8416 N   0  0  0  0  0  0  0  0  0  0  0  0
  145.9874  132.8310  154.4257 C   0  0  0  0  0  0  0  0  0  0  0  0
  146.1534  134.0879  153.5499 C   0  0  1  0  0  0  0  0  0  0  0  0
  147.5267  134.4165  153.4597 O   0  0  0  0  0  0  0  0  0  0  0  0
  145.5967  133.8839  152.1290 C   0  0  2  0  0  0  0  0  0  0  0  0
  144.0953  133.5965  152.0688 C   0  0  0  0  0  0  0  0  0  0  0  0
  143.9274  132.8206  150.7713 C   0  0  0  0  0  0  0  0  0  0  0  0
  145.3525  132.4023  150.4000 C   0  0  0  0  0  0  0  0  0  0  0  0
  146.1379  132.7097  151.5430 O   0  0  0  0  0  0  0  0  0  0  0  0
  147.9499  135.7131  160.7705 C   0  0  0  0  0  0  0  0  0  0  0  0
  142.4823  135.6395  162.0763 H   0  0  0  0  0  0  0  0  0  0  0  0
  143.0857  136.5626  160.6960 H   0  0  0  0  0  0  0  0  0  0  0  0
  143.0826  137.2840  162.3149 H   0  0  0  0  0  0  0  0  0  0  0  0
  144.6274  134.9026  162.4076 H   0  0  0  0  0  0  0  0  0  0  0  0
  148.7660  135.9336  163.3831 H   0  0  0  0  0  0  0  0  0  0  0  0
  147.2391  136.3413  164.1394 H   0  0  0  0  0  0  0  0  0  0  0  0
  148.0036  137.4705  163.0163 H   0  0  0  0  0  0  0  0  0  0  0  0
  147.6233  133.8363  162.8754 H   0  0  0  0  0  0  0  0  0  0  0  0
  145.8827  134.0521  162.8326 H   0  0  0  0  0  0  0  0  0  0  0  0
  147.1790  132.5808  160.9409 H   0  0  0  0  0  0  0  0  0  0  0  0
  145.7978  133.5894  160.4822 H   0  0  0  0  0  0  0  0  0  0  0  0
  150.2128  134.8257  156.5500 H   0  0  0  0  0  0  0  0  0  0  0  0
  144.2087  132.5042  156.6087 H   0  0  0  0  0  0  0  0  0  0  0  0
  146.7158  132.0687  154.1463 H   0  0  0  0  0  0  0  0  0  0  0  0
  145.0022  132.3896  154.2704 H   0  0  0  0  0  0  0  0  0  0  0  0
  145.6381  134.9257  154.0216 H   0  0  0  0  0  0  0  0  0  0  0  0
  147.6071  135.2536  153.0279 H   0  0  0  0  0  0  0  0  0  0  0  0
  145.8388  134.7394  151.4951 H   0  0  0  0  0  0  0  0  0  0  0  0
  143.7970  132.9680  152.9091 H   0  0  0  0  0  0  0  0  0  0  0  0
  143.4930  134.5050  152.0994 H   0  0  0  0  0  0  0  0  0  0  0  0
  143.2774  131.9573  150.9175 H   0  0  0  0  0  0  0  0  0  0  0  0
  143.4918  133.4405  149.9869 H   0  0  0  0  0  0  0  0  0  0  0  0
  145.4266  131.3449  150.1451 H   0  0  0  0  0  0  0  0  0  0  0  0
  145.7134  132.9834  149.5500 H   0  0  0  0  0  0  0  0  0  0  0  0
  147.7706  136.5760  160.1266 H   0  0  0  0  0  0  0  0  0  0  0  0
  149.0073  135.7215  161.0367 H   0  0  0  0  0  0  0  0  0  0  0  0
  1  2  1  0  0  0  0
  1 28  1  0  0  0  0
  1 29  1  0  0  0  0
  1 30  1  0  0  0  0
  2  3  1  0  0  0  0
  2 31  1  0  0  0  0
  3  4  2  0  0  0  0
  3  5  1  0  0  0  0
  5 27  1  0  0  0  0
  5  6  1  0  0  0  0
  5  7  1  0  0  0  0
  6 32  1  0  0  0  0
  6 33  1  0  0  0  0
  6 34  1  0  0  0  0
  7  8  1  0  0  0  0
  7 35  1  0  0  0  0
  7 36  1  0  0  0  0
  8  9  1  0  0  0  0
  8 37  1  0  0  0  0
  8 38  1  0  0  0  0
  9 10  1  0  0  0  0
  9 27  1  0  0  0  0
 10 15  1  0  0  0  0
 10 11  2  0  0  0  0
 11 12  1  0  0  0  0
 12 13  2  0  0  0  0
 12 39  1  0  0  0  0
 13 14  1  0  0  0  0
 14 18  1  0  0  0  0
 14 15  2  0  0  0  0
 15 16  1  0  0  0  0
 16 17  2  0  0  0  0
 17 18  1  0  0  0  0
 17 40  1  0  0  0  0
 18 19  1  0  0  0  0
 19 20  1  0  0  0  0
 19 41  1  0  0  0  0
 19 42  1  0  0  0  0
 20 21  1  0  0  0  0
 20 22  1  0  0  0  0
 20 43  1  0  0  0  0
 21 44  1  0  0  0  0
 22 26  1  0  0  0  0
 22 23  1  0  0  0  0
 22 45  1  0  0  0  0
 23 24  1  0  0  0  0
 23 46  1  0  0  0  0
 23 47  1  0  0  0  0
 24 25  1  0  0  0  0
 24 48  1  0  0  0  0
 24 49  1  0  0  0  0
 25 26  1  0  0  0  0
 25 50  1  0  0  0  0
 25 51  1  0  0  0  0
 27 52  1  0  0  0  0
 27 53  1  0  0  0  0
M  END
> <s_m_source_file>
AV-unprocessed.smi

> <i_m_source_file_index>
260

> <i_lp_mmshare_version>
43012

> <i_f3d_flags>
0

> <s_epik_input>
W0NIM11bTkhdQyg9TylbQ0BAXTEoW0NIM10pW0NIMl1bQ0gyXU4oW0NIMl0xKWMobltjSF1uMiljKGMyMyluW2NIXW4zW0NIMl1bQ0BIXShbT0hdKVtDQEBIXTRbQ0gyXVtDSDJdW0NIMl1PNA==

> <s_epik_cmdline>
J2VwaWtfcHl0aG9uJywgJy1waCcsICc3LjAnLCAnLXRuJywgJzgnLCAnLW1hJywgJzIwMCcsICctbWV0YWxfYmluZGluZycsICctaW1hZScsICc8aW5maWxlLm1hZT4nLCAnLW9tYWUnLCAnPG91dGZpbGUubWFlPic=

> <r_lp_tautomer_probability>
1

> <r_epik_Ionization_Penalty>
0.00115068

> <r_epik_Ionization_Penalty_Charging>
0

> <r_epik_Ionization_Penalty_Neutral>
0.00115068

> <r_epik_State_Penalty>
0.000668876

> <r_epik_Charging_Adjusted_Penalty>
0.000668876

> <i_epik_Tot_Q>
0

> <i_epik_Tot_abs_Q>
0

> <r_epik_Metal_State_Penalty>
-0

> <b_epik_Metal_Only>
0

> <s_lp_Force_Field>
OPLS_2005

> <r_lp_Energy>
48.4888

> <b_lp_Chiralities_Consistent>
1

> <s_lp_Variant>
AV-unprocessed.smi:260-3

> <Gold.Version>
5.8.1

> <Gold.Id.Protein>
6NUR|6NUR_protein|mol2

> <Gold.PLP.Fitness>
46.4473

> <Gold.PLP.PLP>
-36.5248

> <Gold.PLP.part.hbond>
-3.0000

> <Gold.PLP.part.metal>
0.0000

> <Gold.PLP.part.buried>
-6.6740

> <Gold.PLP.part.nonpolar>
-27.3242

> <Gold.PLP.part.repulsive>
0.1728

> <Gold.PLP.ligand.clash>
0.0214

> <Gold.PLP.ligand.torsion>
1.1283

> <Gold.PLP.Chemscore.Hbond>
3.0000

> <Gold.PLP.Chemscore.CHOScore>
1.0000

> <Gold.PLP.Chemscore.Metal>
0.0000

> <Gold.Chemscore.Hbonds>
donor molecule, donor type, donor heavy atom, donor atom, acceptor molecule, acceptor atom, score
      L1  H    21    44       P1  7948  0.74
      P1  H  6896  6907       L1    11  0.91
      P1  H  6934  6947       L1     4  0.96
      L1  C    17    40       P1 10957  1.00

> <Gold.PLP.Chemscore.Internal.Correction>
0.2005

> <Gold.Rescore>
     Score         DG    S(hbond)    S(metal)    S(lipo)     H(rot)  DE(clash)    DE(int)     intcor
     16.39     -17.26       2.75        0.00      77.55       2.53       0.02       0.86       ----

> <Gold.Chemscore.Fitness>
16.3855

> <Gold.Chemscore.DG>
-17.2650

> <Gold.Chemscore.ZeroCoef>
-5.4800

> <Gold.Chemscore.Hbond>
2.7480

> <Gold.Chemscore.Metal>
0.0000

> <Gold.Chemscore.Lipo>
77.5462

> <Gold.Chemscore.Internal_Hbond>
0.0000

> <Gold.Chemscore.DEClash>
0.0174

> <Gold.Chemscore.DEInternal>
0.8621

> <Gold.Chemscore.Rot>
2.5259

> <Gold.Chemscore.Internal.Correction>
   9.000000E+99

> <Gold.Chemscore.Hbonds>
donor molecule, donor type, donor heavy atom, donor atom, acceptor molecule, acceptor atom, score
      L1  H    21    44       P1  7948  0.70
      P1  H  6896  6907       L1    11  0.66
      P1  H  6934  6947       L1     4  0.86

> <Gold.Chemscore.Hbond.Weighted>
-9.1784

> <Gold.Chemscore.Metal.Weighted>
-0.0000

> <Gold.Chemscore.Lipo.Weighted>
-9.0729

> <Gold.Chemscore.Internal_Hbond.Weighted>
0.0000

> <Gold.Chemscore.DEClash.Weighted>
0.0174

> <Gold.Chemscore.DEInternal.Weighted>
0.8621

> <Gold.Chemscore.Rot.Weighted>
6.4663

> <Gold.Chemscore.Internal.Correction.Weighted>
   9.000000E+99

> <Gold.Protein.RotatedTorsions>
[ 6907 6896 6895 6894 ] final  -99.63 input  -60.11 | X-H torsion
[ 7974 7965 7964 7962 ] final   88.66 input  175.53 | X-H torsion
[ 8008 7997 7996 7995 ] final  157.64 input   59.86 | X-H torsion
[ 10167 10162 10161 10158 ] final  154.77 input  -65.29 | X-H torsion
[ 10718 10713 10712 10709 ] final    9.52 input   66.30 | X-H torsion
[ 10763 10752 10751 10750 ] final  -15.91 input  -60.55 | X-H torsion
[ 11005 11000 10999 10996 ] final   79.88 input  -57.11 | X-H torsion

> <Gold.Protein.ActiveResidues>
 VAL166  LYS551  ARG553  GLY616  TRP617  ASP618  TYR619  PRO620  LYS621  CYS622 
 ASP623  PHE694  ASN695  SER759  ASP760  ASP761  ALA762  ILE779  LEU786  VAL792 
 PHE793  MET794  SER795  GLU796  ALA797  LYS798  CYS799  TRP800  GLU811  SER814 

> <Gold.Protein.RotatedAtoms>
  150.7087  134.1011  159.3965 H   0  0  0  0  0  0  0  0  0  0  0  0  # atno 6907 bound_to 6896
  151.8997  135.0381  160.0514 H   0  0  0  0  0  0  0  0  0  0  0  0  # atno 6908 bound_to 6896
  152.2424  133.5111  159.5314 H   0  0  0  0  0  0  0  0  0  0  0  0  # atno 6909 bound_to 6896
  145.5427  139.2290  143.2557 H   0  0  0  0  0  0  0  0  0  0  0  0  # atno 7974 bound_to 7965
  156.2351  140.1880  156.7140 H   0  0  0  0  0  0  0  0  0  0  0  0  # atno 8008 bound_to 7997
  154.6092  140.0624  156.9499 H   0  0  0  0  0  0  0  0  0  0  0  0  # atno 8009 bound_to 7997
  155.2044  140.3295  155.4341 H   0  0  0  0  0  0  0  0  0  0  0  0  # atno 8010 bound_to 7997
  139.4822  144.5157  151.7955 H   0  0  0  0  0  0  0  0  0  0  0  0  # atno 10167 bound_to 10162
  156.9675  130.5956  149.5666 H   0  0  0  0  0  0  0  0  0  0  0  0  # atno 10718 bound_to 10713
  153.5506  135.7011  153.5593 H   0  0  0  0  0  0  0  0  0  0  0  0  # atno 10763 bound_to 10752
  153.3519  135.3993  155.1652 H   0  0  0  0  0  0  0  0  0  0  0  0  # atno 10764 bound_to 10752
  154.8662  135.3767  154.5016 H   0  0  0  0  0  0  0  0  0  0  0  0  # atno 10765 bound_to 10752
  139.9155  134.7877  156.1837 H   0  0  0  0  0  0  0  0  0  0  0  0  # atno 11005 bound_to 11000
  146.1970  140.6247  142.9119 LP  0  0  0  0  0  0  0  0  0  0  0  0  # atno 17320 bound_to 7965
  144.7569  140.5328  143.6763 LP  0  0  0  0  0  0  0  0  0  0  0  0  # atno 17321 bound_to 7965
  140.4665  144.1648  150.5912 LP  0  0  0  0  0  0  0  0  0  0  0  0  # atno 17342 bound_to 10162
  140.4428  143.2519  151.9450 LP  0  0  0  0  0  0  0  0  0  0  0  0  # atno 17343 bound_to 10162
  156.0296  130.5388  150.8499 LP  0  0  0  0  0  0  0  0  0  0  0  0  # atno 17370 bound_to 10713
  157.5615  131.0946  150.9552 LP  0  0  0  0  0  0  0  0  0  0  0  0  # atno 17371 bound_to 10713
  141.0626  133.6834  156.1983 LP  0  0  0  0  0  0  0  0  0  0  0  0  # atno 17394 bound_to 11000
  140.6636  134.4942  157.5584 LP  0  0  0  0  0  0  0  0  0  0  0  0  # atno 17395 bound_to 11000

$$$$
