AV-unprocessed.smi:1503|AV-procd|sdf|6068|dock1
  -GOLD-   22720 6183D 1   1.00000     0.00000
 Structure written by MMmdl.
 44 45  0  0  0  0  0  0  0  0  1 V2000
  148.7911  133.2877  153.3119 C   0  0  0  0  0  0  0  0  0  0  0  0
  149.3268  133.8392  154.4111 C   0  0  0  0  0  0  0  0  0  0  0  0
  148.6760  134.9418  155.2235 C   0  0  0  0  0  0  0  0  0  0  0  0
  148.7325  136.2224  154.5289 N   0  0  0  0  0  0  0  0  0  0  0  0
  148.2909  137.3907  155.0204 C   0  0  0  0  0  0  0  0  0  0  0  0
  147.7714  137.5022  156.1313 O   0  0  0  0  0  0  0  0  0  0  0  0
  148.4633  138.6131  154.1142 C   0  0  0  0  0  0  0  0  0  0  0  0
  149.9376  139.0127  153.9148 C   0  0  0  0  0  0  0  0  0  0  0  0
  150.4253  139.9675  155.0012 C   0  0  0  0  0  0  0  0  0  0  0  0
  151.3660  139.6273  155.9260 C   0  0  0  0  0  0  0  0  0  0  0  0
  152.0408  138.2672  155.9561 C   0  0  0  0  0  0  0  0  0  0  0  0
  151.7771  140.5296  156.9150 N   0  0  0  0  0  0  0  0  0  0  0  0
  151.2653  141.7193  156.9687 C   0  0  0  0  0  0  0  0  0  0  0  0
  151.5835  142.7057  157.9049 N   0  0  0  0  0  0  0  0  0  0  0  0
  151.6082  144.1265  157.5479 C   0  0  0  0  0  0  0  0  0  0  0  0
  151.4277  145.0178  158.7880 C   0  0  0  0  0  0  0  0  0  0  0  0
  152.4177  144.6982  159.7561 O   0  0  0  0  0  0  0  0  0  0  0  0
  152.3030  143.3496  160.1886 C   0  0  0  0  0  0  0  0  0  0  0  0
  152.5110  142.4025  158.9948 C   0  0  0  0  0  0  0  0  0  0  0  0
  150.2896  142.1056  156.0432 N   0  0  0  0  0  0  0  0  0  0  0  0
  149.8279  141.3115  155.0521 C   0  0  0  0  0  0  0  0  0  0  0  0
  148.9733  141.7248  154.2697 O   0  0  0  0  0  0  0  0  0  0  0  0
  149.9013  143.0346  156.1126 H   0  0  0  0  0  0  0  0  0  0  0  0
  147.8345  133.6128  152.9296 H   0  0  0  0  0  0  0  0  0  0  0  0
  149.3050  132.5010  152.7794 H   0  0  0  0  0  0  0  0  0  0  0  0
  150.2839  133.4834  154.7649 H   0  0  0  0  0  0  0  0  0  0  0  0
  147.6318  134.6958  155.4191 H   0  0  0  0  0  0  0  0  0  0  0  0
  149.1707  135.0140  156.1931 H   0  0  0  0  0  0  0  0  0  0  0  0
  149.1436  136.2220  153.6066 H   0  0  0  0  0  0  0  0  0  0  0  0
  148.0078  138.4082  153.1440 H   0  0  0  0  0  0  0  0  0  0  0  0
  147.9060  139.4422  154.5513 H   0  0  0  0  0  0  0  0  0  0  0  0
  150.5748  138.1268  153.9055 H   0  0  0  0  0  0  0  0  0  0  0  0
  150.0668  139.4653  152.9316 H   0  0  0  0  0  0  0  0  0  0  0  0
  152.4556  138.0209  154.9783 H   0  0  0  0  0  0  0  0  0  0  0  0
  151.3248  137.4941  156.2355 H   0  0  0  0  0  0  0  0  0  0  0  0
  152.8574  138.2464  156.6789 H   0  0  0  0  0  0  0  0  0  0  0  0
  152.5639  144.3475  157.0710 H   0  0  0  0  0  0  0  0  0  0  0  0
  150.8337  144.3768  156.8229 H   0  0  0  0  0  0  0  0  0  0  0  0
  151.5286  146.0675  158.5123 H   0  0  0  0  0  0  0  0  0  0  0  0
  150.4301  144.8950  159.2130 H   0  0  0  0  0  0  0  0  0  0  0  0
  153.0547  143.1583  160.9543 H   0  0  0  0  0  0  0  0  0  0  0  0
  151.3287  143.1839  160.6510 H   0  0  0  0  0  0  0  0  0  0  0  0
  152.3821  141.3731  159.3326 H   0  0  0  0  0  0  0  0  0  0  0  0
  153.5328  142.4895  158.6229 H   0  0  0  0  0  0  0  0  0  0  0  0
  1  2  2  0  0  0  0
  1 24  1  0  0  0  0
  1 25  1  0  0  0  0
  2  3  1  0  0  0  0
  2 26  1  0  0  0  0
  3  4  1  0  0  0  0
  3 27  1  0  0  0  0
  3 28  1  0  0  0  0
  4  5  1  0  0  0  0
  4 29  1  0  0  0  0
  5  6  2  0  0  0  0
  5  7  1  0  0  0  0
  7  8  1  0  0  0  0
  7 30  1  0  0  0  0
  7 31  1  0  0  0  0
  8  9  1  0  0  0  0
  8 32  1  0  0  0  0
  8 33  1  0  0  0  0
  9 21  1  0  0  0  0
  9 10  2  0  0  0  0
 10 11  1  0  0  0  0
 10 12  1  0  0  0  0
 11 34  1  0  0  0  0
 11 35  1  0  0  0  0
 11 36  1  0  0  0  0
 12 13  2  0  0  0  0
 13 14  1  0  0  0  0
 13 20  1  0  0  0  0
 14 19  1  0  0  0  0
 14 15  1  0  0  0  0
 15 16  1  0  0  0  0
 15 37  1  0  0  0  0
 15 38  1  0  0  0  0
 16 17  1  0  0  0  0
 16 39  1  0  0  0  0
 16 40  1  0  0  0  0
 17 18  1  0  0  0  0
 18 19  1  0  0  0  0
 18 41  1  0  0  0  0
 18 42  1  0  0  0  0
 19 43  1  0  0  0  0
 19 44  1  0  0  0  0
 20 23  1  0  0  0  0
 20 21  1  0  0  0  0
 21 22  2  0  0  0  0
M  END
> <s_m_source_file>
AV-unprocessed.smi

> <i_m_source_file_index>
1503

> <i_lp_mmshare_version>
43012

> <i_f3d_flags>
0

> <s_epik_input>
W0NIMl09W0NIXVtDSDJdW05IXUMoPU8pW0NIMl1bQ0gyXWMxYyhbQ0gzXSluYyhbbkhdYzE9TylOMltDSDJdW0NIMl1PW0NIMl1bQ0gyXTI=

> <s_epik_cmdline>
J2VwaWtfcHl0aG9uJywgJy1waCcsICc3LjAnLCAnLXRuJywgJzgnLCAnLW1hJywgJzIwMCcsICctbWV0YWxfYmluZGluZycsICctaW1hZScsICc8aW5maWxlLm1hZT4nLCAnLW9tYWUnLCAnPG91dGZpbGUubWFlPic=

> <r_lp_tautomer_probability>
0.878553

> <r_epik_Ionization_Penalty>
0.00125265

> <r_epik_Ionization_Penalty_Charging>
0.00122759

> <r_epik_Ionization_Penalty_Neutral>
2.50575e-05

> <r_epik_State_Penalty>
0.0426914

> <r_epik_Charging_Adjusted_Penalty>
0.043919

> <i_epik_Tot_Q>
0

> <i_epik_Tot_abs_Q>
0

> <r_epik_Metal_State_Penalty>
1.02948

> <b_epik_Metal_Only>
0

> <s_lp_Force_Field>
OPLS_2005

> <r_lp_Energy>
21.7502

> <b_lp_Chiralities_Consistent>
1

> <s_lp_Variant>
AV-unprocessed.smi:1503-1

> <Gold.Version>
5.8.1

> <Gold.Id.Protein>
6NUR|6NUR_protein|mol2

> <Gold.PLP.Fitness>
48.1905

> <Gold.PLP.PLP>
-42.2576

> <Gold.PLP.part.hbond>
-3.0000

> <Gold.PLP.part.metal>
0.0000

> <Gold.PLP.part.buried>
-1.4457

> <Gold.PLP.part.nonpolar>
-37.4063

> <Gold.PLP.part.repulsive>
0.3630

> <Gold.PLP.ligand.clash>
0.0000

> <Gold.PLP.ligand.torsion>
0.6044

> <Gold.PLP.Chemscore.Hbond>
2.2923

> <Gold.PLP.Chemscore.CHOScore>
0.0000

> <Gold.PLP.Chemscore.Metal>
0.0000

> <Gold.Chemscore.Hbonds>
donor molecule, donor type, donor heavy atom, donor atom, acceptor molecule, acceptor atom, score
      L1  H     4    29       P1  7948  1.00
      L1  H    20    23       P1  8028  1.00
      P1  H  8011  8017       L1    22  0.28

> <Gold.PLP.Chemscore.Internal.Correction>
0.2647

> <Gold.Rescore>
     Score         DG    S(hbond)    S(metal)    S(lipo)     H(rot)  DE(clash)    DE(int)     intcor
     18.90     -19.78       2.43        0.00      94.92       1.92       0.25       0.63       ----

> <Gold.Chemscore.Fitness>
18.8967

> <Gold.Chemscore.DG>
-19.7816

> <Gold.Chemscore.ZeroCoef>
-5.4800

> <Gold.Chemscore.Hbond>
2.4277

> <Gold.Chemscore.Metal>
0.0000

> <Gold.Chemscore.Lipo>
94.9161

> <Gold.Chemscore.Internal_Hbond>
0.0000

> <Gold.Chemscore.DEClash>
0.2538

> <Gold.Chemscore.DEInternal>
0.6311

> <Gold.Chemscore.Rot>
1.9187

> <Gold.Chemscore.Internal.Correction>
   9.000000E+99

> <Gold.Chemscore.Hbonds>
donor molecule, donor type, donor heavy atom, donor atom, acceptor molecule, acceptor atom, score
      L1  H     4    29       P1  7948  0.90
      L1  H    20    23       P1  8028  0.94
      P1  H  8011  8017       L1    22  0.26

> <Gold.Chemscore.Hbond.Weighted>
-8.1084

> <Gold.Chemscore.Metal.Weighted>
-0.0000

> <Gold.Chemscore.Lipo.Weighted>
-11.1052

> <Gold.Chemscore.Internal_Hbond.Weighted>
0.0000

> <Gold.Chemscore.DEClash.Weighted>
0.2538

> <Gold.Chemscore.DEInternal.Weighted>
0.6311

> <Gold.Chemscore.Rot.Weighted>
4.9119

> <Gold.Chemscore.Internal.Correction.Weighted>
   9.000000E+99

> <Gold.Protein.RotatedTorsions>
[ 6907 6896 6895 6894 ] final   -9.78 input  -60.11 | X-H torsion
[ 7974 7965 7964 7962 ] final  -57.36 input  175.53 | X-H torsion
[ 8008 7997 7996 7995 ] final -175.35 input   59.86 | X-H torsion
[ 10167 10162 10161 10158 ] final  140.22 input  -65.29 | X-H torsion
[ 10718 10713 10712 10709 ] final  -72.07 input   66.30 | X-H torsion
[ 10763 10752 10751 10750 ] final -110.17 input  -60.55 | X-H torsion
[ 11005 11000 10999 10996 ] final   61.51 input  -57.11 | X-H torsion

> <Gold.Protein.ActiveResidues>
 VAL166  LYS551  ARG553  GLY616  TRP617  ASP618  TYR619  PRO620  LYS621  CYS622 
 ASP623  PHE694  ASN695  SER759  ASP760  ASP761  ALA762  ILE779  LEU786  VAL792 
 PHE793  MET794  SER795  GLU796  ALA797  LYS798  CYS799  TRP800  GLU811  SER814 

> <Gold.Protein.RotatedAtoms>
  151.4124  135.0987  159.9588 H   0  0  0  0  0  0  0  0  0  0  0  0  # atno 6907 bound_to 6896
  152.5015  133.8784  159.7344 H   0  0  0  0  0  0  0  0  0  0  0  0  # atno 6908 bound_to 6896
  150.9282  133.6741  159.2845 H   0  0  0  0  0  0  0  0  0  0  0  0  # atno 6909 bound_to 6896
  145.8519  140.8346  142.9981 H   0  0  0  0  0  0  0  0  0  0  0  0  # atno 7974 bound_to 7965
  155.9815  140.1182  157.0722 H   0  0  0  0  0  0  0  0  0  0  0  0  # atno 8008 bound_to 7997
  154.4184  140.1143  156.5510 H   0  0  0  0  0  0  0  0  0  0  0  0  # atno 8009 bound_to 7997
  155.6464  140.3473  155.4735 H   0  0  0  0  0  0  0  0  0  0  0  0  # atno 8010 bound_to 7997
  139.5055  144.6247  151.5965 H   0  0  0  0  0  0  0  0  0  0  0  0  # atno 10167 bound_to 10162
  156.0336  130.4364  150.2538 H   0  0  0  0  0  0  0  0  0  0  0  0  # atno 10718 bound_to 10713
  154.8233  135.4574  154.0844 H   0  0  0  0  0  0  0  0  0  0  0  0  # atno 10763 bound_to 10752
  153.2179  135.6890  153.8041 H   0  0  0  0  0  0  0  0  0  0  0  0  # atno 10764 bound_to 10752
  153.7469  135.3304  155.3291 H   0  0  0  0  0  0  0  0  0  0  0  0  # atno 10765 bound_to 10752
  140.0156  134.6229  155.9714 H   0  0  0  0  0  0  0  0  0  0  0  0  # atno 11005 bound_to 11000
  144.6729  140.0966  143.7462 LP  0  0  0  0  0  0  0  0  0  0  0  0  # atno 17320 bound_to 7965
  145.9347  139.2629  143.1304 LP  0  0  0  0  0  0  0  0  0  0  0  0  # atno 17321 bound_to 7965
  140.5960  143.9694  150.6355 LP  0  0  0  0  0  0  0  0  0  0  0  0  # atno 17342 bound_to 10162
  140.2890  143.3337  152.1080 LP  0  0  0  0  0  0  0  0  0  0  0  0  # atno 17343 bound_to 10162
  157.0639  131.0097  151.3213 LP  0  0  0  0  0  0  0  0  0  0  0  0  # atno 17370 bound_to 10713
  157.5050  130.7903  149.7644 LP  0  0  0  0  0  0  0  0  0  0  0  0  # atno 17371 bound_to 10713
  141.1741  133.6539  156.4760 LP  0  0  0  0  0  0  0  0  0  0  0  0  # atno 17394 bound_to 11000
  140.4476  134.6958  157.5023 LP  0  0  0  0  0  0  0  0  0  0  0  0  # atno 17395 bound_to 11000

$$$$
