AV-unprocessed.smi:1360|AV-procd|sdf|5553|dock9
  -GOLD-   22720 5143D 1   1.00000     0.00000
 Structure written by MMmdl.
 36 37  0  0  0  0  0  0  0  0  1 V2000
  150.8837  137.9750  156.6315 C   0  0  0  0  0  0  0  0  0  0  0  0
  149.9386  139.1499  156.3299 C   0  0  2  0  0  0  0  0  0  0  0  0
  150.0282  139.6442  154.8691 C   0  0  0  0  0  0  0  0  0  0  0  0
  148.8236  140.3213  154.4237 N   0  0  0  0  0  0  0  0  0  0  0  0
  148.5063  141.6599  154.5221 C   0  0  0  0  0  0  0  0  0  0  0  0
  147.2686  141.8255  153.9697 C   0  0  0  0  0  0  0  0  0  0  0  0
  146.9024  140.5123  153.5614 C   0  0  0  0  0  0  0  0  0  0  0  0
  147.8342  139.6141  153.8365 N   0  0  0  0  0  0  0  0  0  0  0  0
  150.2308  140.2457  157.2495 N   0  0  0  0  0  0  0  0  0  0  0  0
  151.4561  140.7030  157.5523 C   0  0  0  0  0  0  0  0  0  0  0  0
  152.4895  140.2275  157.0807 O   0  0  0  0  0  0  0  0  0  0  0  0
  151.5247  141.8783  158.5369 C   0  0  1  0  0  0  0  0  0  0  0  0
  152.9498  142.0467  159.1138 C   0  0  0  0  0  0  0  0  0  0  0  0
  153.1084  143.3481  159.8802 C   0  0  0  0  0  0  0  0  0  0  0  0
  152.2442  144.3731  159.7840 C   0  0  0  0  0  0  0  0  0  0  0  0
  151.0135  144.3472  158.8949 C   0  0  0  0  0  0  0  0  0  0  0  0
  151.0517  143.1898  157.8787 C   0  0  0  0  0  0  0  0  0  0  0  0
  150.6373  137.0987  156.0315 H   0  0  0  0  0  0  0  0  0  0  0  0
  150.8156  137.6763  157.6781 H   0  0  0  0  0  0  0  0  0  0  0  0
  151.9217  138.2383  156.4266 H   0  0  0  0  0  0  0  0  0  0  0  0
  148.9210  138.8015  156.5173 H   0  0  0  0  0  0  0  0  0  0  0  0
  150.8684  140.3298  154.7482 H   0  0  0  0  0  0  0  0  0  0  0  0
  150.2150  138.8037  154.1991 H   0  0  0  0  0  0  0  0  0  0  0  0
  149.1813  142.3754  154.9684 H   0  0  0  0  0  0  0  0  0  0  0  0
  146.7093  142.7441  153.8731 H   0  0  0  0  0  0  0  0  0  0  0  0
  145.9934  140.1873  153.0773 H   0  0  0  0  0  0  0  0  0  0  0  0
  149.4391  140.6955  157.6856 H   0  0  0  0  0  0  0  0  0  0  0  0
  150.8490  141.6656  159.3679 H   0  0  0  0  0  0  0  0  0  0  0  0
  153.1755  141.2183  159.7860 H   0  0  0  0  0  0  0  0  0  0  0  0
  153.7036  142.0296  158.3254 H   0  0  0  0  0  0  0  0  0  0  0  0
  153.9751  143.4348  160.5192 H   0  0  0  0  0  0  0  0  0  0  0  0
  152.4058  145.2683  160.3663 H   0  0  0  0  0  0  0  0  0  0  0  0
  150.1369  144.2563  159.5367 H   0  0  0  0  0  0  0  0  0  0  0  0
  150.9263  145.2992  158.3708 H   0  0  0  0  0  0  0  0  0  0  0  0
  151.7283  143.4525  157.0638 H   0  0  0  0  0  0  0  0  0  0  0  0
  150.0652  143.0645  157.4302 H   0  0  0  0  0  0  0  0  0  0  0  0
  1  2  1  0  0  0  0
  1 18  1  0  0  0  0
  1 19  1  0  0  0  0
  1 20  1  0  0  0  0
  2  3  1  0  0  0  0
  2  9  1  0  0  0  0
  2 21  1  0  0  0  0
  3  4  1  0  0  0  0
  3 22  1  0  0  0  0
  3 23  1  0  0  0  0
  4  8  1  0  0  0  0
  4  5  1  0  0  0  0
  5  6  2  0  0  0  0
  5 24  1  0  0  0  0
  6  7  1  0  0  0  0
  6 25  1  0  0  0  0
  7  8  2  0  0  0  0
  7 26  1  0  0  0  0
  9 10  1  0  0  0  0
  9 27  1  0  0  0  0
 10 11  2  0  0  0  0
 10 12  1  0  0  0  0
 12 17  1  0  0  0  0
 12 13  1  0  0  0  0
 12 28  1  0  0  0  0
 13 14  1  0  0  0  0
 13 29  1  0  0  0  0
 13 30  1  0  0  0  0
 14 15  2  0  0  0  0
 14 31  1  0  0  0  0
 15 16  1  0  0  0  0
 15 32  1  0  0  0  0
 16 17  1  0  0  0  0
 16 33  1  0  0  0  0
 16 34  1  0  0  0  0
 17 35  1  0  0  0  0
 17 36  1  0  0  0  0
M  END
> <s_m_source_file>
AV-unprocessed.smi

> <i_m_source_file_index>
1360

> <i_lp_mmshare_version>
43012

> <i_f3d_flags>
0

> <s_epik_input>
bjFbY0hdW2NIXVtjSF1uMVtDSDJdW0NAQEhdKFtDSDNdKVtOSF1DKD1PKVtDQEBIXTJbQ0gyXVtDSF09W0NIXVtDSDJdW0NIMl0y

> <s_epik_cmdline>
J2VwaWtfcHl0aG9uJywgJy1waCcsICc3LjAnLCAnLXRuJywgJzgnLCAnLW1hJywgJzIwMCcsICctbWV0YWxfYmluZGluZycsICctaW1hZScsICc8aW5maWxlLm1hZT4nLCAnLW9tYWUnLCAnPG91dGZpbGUubWFlPic=

> <r_lp_tautomer_probability>
1

> <r_epik_Ionization_Penalty>
0.000315076

> <r_epik_Ionization_Penalty_Charging>
0

> <r_epik_Ionization_Penalty_Neutral>
0.000315076

> <r_epik_State_Penalty>
-0

> <r_epik_Charging_Adjusted_Penalty>
0

> <i_epik_Tot_Q>
0

> <i_epik_Tot_abs_Q>
0

> <r_epik_Metal_State_Penalty>
-0

> <b_epik_Metal_Only>
0

> <s_lp_Force_Field>
OPLS_2005

> <r_lp_Energy>
8.32294

> <b_lp_Chiralities_Consistent>
1

> <s_lp_Variant>
AV-unprocessed.smi:1360-3

> <Gold.Version>
5.8.1

> <Gold.Id.Protein>
6NUR|6NUR_protein|mol2

> <Gold.PLP.Fitness>
42.5281

> <Gold.PLP.PLP>
-35.9384

> <Gold.PLP.part.hbond>
-1.0000

> <Gold.PLP.part.metal>
0.0000

> <Gold.PLP.part.buried>
-2.8698

> <Gold.PLP.part.nonpolar>
-31.4833

> <Gold.PLP.part.repulsive>
0.6654

> <Gold.PLP.ligand.clash>
0.0000

> <Gold.PLP.ligand.torsion>
1.1845

> <Gold.PLP.Chemscore.Hbond>
1.0000

> <Gold.PLP.Chemscore.CHOScore>
1.9761

> <Gold.PLP.Chemscore.Metal>
0.0000

> <Gold.Chemscore.Hbonds>
donor molecule, donor type, donor heavy atom, donor atom, acceptor molecule, acceptor atom, score
      P1  H  7997  8010       L1    11  1.00
      L1  C     5    24       P1  8028  1.00
      L1  C     7    26       P1 10175  1.00

> <Gold.PLP.Chemscore.Internal.Correction>
0.0305

> <Gold.Rescore>
     Score         DG    S(hbond)    S(metal)    S(lipo)     H(rot)  DE(clash)    DE(int)     intcor
     14.69     -16.91       0.94        0.00     103.76       1.51       0.04       2.18       ----

> <Gold.Chemscore.Fitness>
14.6939

> <Gold.Chemscore.DG>
-16.9143

> <Gold.Chemscore.ZeroCoef>
-5.4800

> <Gold.Chemscore.Hbond>
0.9427

> <Gold.Chemscore.Metal>
0.0000

> <Gold.Chemscore.Lipo>
103.7636

> <Gold.Chemscore.Internal_Hbond>
0.0000

> <Gold.Chemscore.DEClash>
0.0427

> <Gold.Chemscore.DEInternal>
2.1776

> <Gold.Chemscore.Rot>
1.5057

> <Gold.Chemscore.Internal.Correction>
   9.000000E+99

> <Gold.Chemscore.Hbonds>
donor molecule, donor type, donor heavy atom, donor atom, acceptor molecule, acceptor atom, score
      P1  H  7997  8010       L1    11  0.95

> <Gold.Chemscore.Hbond.Weighted>
-3.1486

> <Gold.Chemscore.Metal.Weighted>
-0.0000

> <Gold.Chemscore.Lipo.Weighted>
-12.1403

> <Gold.Chemscore.Internal_Hbond.Weighted>
0.0000

> <Gold.Chemscore.DEClash.Weighted>
0.0427

> <Gold.Chemscore.DEInternal.Weighted>
2.1776

> <Gold.Chemscore.Rot.Weighted>
3.8546

> <Gold.Chemscore.Internal.Correction.Weighted>
   9.000000E+99

> <Gold.Protein.RotatedTorsions>
[ 6907 6896 6895 6894 ] final -143.41 input  -60.11 | X-H torsion
[ 7974 7965 7964 7962 ] final -167.17 input  175.53 | X-H torsion
[ 8008 7997 7996 7995 ] final   66.11 input   59.86 | X-H torsion
[ 10167 10162 10161 10158 ] final   73.74 input  -65.29 | X-H torsion
[ 10718 10713 10712 10709 ] final  -92.96 input   66.30 | X-H torsion
[ 10763 10752 10751 10750 ] final   98.00 input  -60.55 | X-H torsion
[ 11005 11000 10999 10996 ] final  170.09 input  -57.11 | X-H torsion

> <Gold.Protein.ActiveResidues>
 VAL166  LYS551  ARG553  GLY616  TRP617  ASP618  TYR619  PRO620  LYS621  CYS622 
 ASP623  PHE694  ASN695  SER759  ASP760  ASP761  ALA762  ILE779  LEU786  VAL792 
 PHE793  MET794  SER795  GLU796  ALA797  LYS798  CYS799  TRP800  GLU811  SER814 

> <Gold.Protein.RotatedAtoms>
  151.1001  133.5250  159.2610 H   0  0  0  0  0  0  0  0  0  0  0  0  # atno 6907 bound_to 6896
  151.2084  135.0470  159.8911 H   0  0  0  0  0  0  0  0  0  0  0  0  # atno 6908 bound_to 6896
  152.5442  134.0820  159.8293 H   0  0  0  0  0  0  0  0  0  0  0  0  # atno 6909 bound_to 6896
  144.7229  140.2558  143.6272 H   0  0  0  0  0  0  0  0  0  0  0  0  # atno 7974 bound_to 7965
  155.6723  140.3497  155.4823 H   0  0  0  0  0  0  0  0  0  0  0  0  # atno 8008 bound_to 7997
  155.9678  140.1150  157.0862 H   0  0  0  0  0  0  0  0  0  0  0  0  # atno 8009 bound_to 7997
  154.4158  140.1163  156.5251 H   0  0  0  0  0  0  0  0  0  0  0  0  # atno 8010 bound_to 7997
  140.0212  144.5539  150.7580 H   0  0  0  0  0  0  0  0  0  0  0  0  # atno 10167 bound_to 10162
  156.0008  130.5008  150.5704 H   0  0  0  0  0  0  0  0  0  0  0  0  # atno 10718 bound_to 10713
  153.2838  135.4163  155.1103 H   0  0  0  0  0  0  0  0  0  0  0  0  # atno 10763 bound_to 10752
  154.8498  135.3501  154.6076 H   0  0  0  0  0  0  0  0  0  0  0  0  # atno 10764 bound_to 10752
  153.6497  135.7053  153.5271 H   0  0  0  0  0  0  0  0  0  0  0  0  # atno 10765 bound_to 10752
  140.3047  134.7566  157.3944 H   0  0  0  0  0  0  0  0  0  0  0  0  # atno 11005 bound_to 11000
  145.8184  139.2033  143.1952 LP  0  0  0  0  0  0  0  0  0  0  0  0  # atno 17320 bound_to 7965
  146.0535  140.8044  142.9770 LP  0  0  0  0  0  0  0  0  0  0  0  0  # atno 17321 bound_to 7965
  140.7342  143.2725  151.3842 LP  0  0  0  0  0  0  0  0  0  0  0  0  # atno 17342 bound_to 10162
  139.6139  144.1043  152.2326 LP  0  0  0  0  0  0  0  0  0  0  0  0  # atno 17343 bound_to 10162
  157.3600  131.0748  151.1644 LP  0  0  0  0  0  0  0  0  0  0  0  0  # atno 17370 bound_to 10713
  157.2432  130.6579  149.5899 LP  0  0  0  0  0  0  0  0  0  0  0  0  # atno 17371 bound_to 10713
  140.1078  134.5386  155.8294 LP  0  0  0  0  0  0  0  0  0  0  0  0  # atno 17394 bound_to 11000
  141.2121  133.6715  156.6631 LP  0  0  0  0  0  0  0  0  0  0  0  0  # atno 17395 bound_to 11000

$$$$
