AV-unprocessed.smi:287|AV-procd|sdf|2178|dock3
  -GOLD-   2262021543D 1   1.00000     0.00000
 Structure written by MMmdl.
 55 58  0  0  0  0  0  0  0  0  1 V2000
  152.4534  144.0725  161.4118 C   0  0  0  0  0  0  0  0  0  0  0  0
  153.0354  142.7334  161.1139 C   0  0  0  0  0  0  0  0  0  0  0  0
  152.8814  141.8431  160.0915 C   0  0  0  0  0  0  0  0  0  0  0  0
  153.7250  140.7258  160.3680 C   0  0  0  0  0  0  0  0  0  0  0  0
  153.8802  139.4833  159.5015 C   0  0  2  0  0  0  0  0  0  0  0  0
  153.6932  138.2234  160.3626 C   0  0  0  0  0  0  0  0  0  0  0  0
  155.1724  139.3662  158.9379 O   0  0  0  0  0  0  0  0  0  0  0  0
  152.8946  139.4648  158.3103 C   0  0  0  0  0  0  0  0  0  0  0  0
  151.6561  138.7527  158.6095 N   0  0  0  0  0  0  0  0  0  0  0  0
  150.7175  138.5894  157.6540 C   0  0  0  0  0  0  0  0  0  0  0  0
  150.1325  137.3808  157.4449 N   0  0  0  0  0  0  0  0  0  0  0  0
  149.2027  137.2444  156.4939 C   0  0  0  0  0  0  0  0  0  0  0  0
  148.7232  138.1669  155.6558 N   0  0  0  0  0  0  0  0  0  0  0  0
  149.3121  139.3802  155.8627 C   0  0  0  0  0  0  0  0  0  0  0  0
  150.3068  139.6729  156.8357 C   0  0  0  0  0  0  0  0  0  0  0  0
  150.6613  141.0135  156.7569 N   0  0  0  0  0  0  0  0  0  0  0  0
  149.9173  141.4808  155.7900 C   0  0  0  0  0  0  0  0  0  0  0  0
  149.0785  140.5618  155.1956 N   0  0  0  0  0  0  0  0  0  0  0  0
  148.1041  140.7548  154.0801 C   0  0  2  0  0  0  0  0  0  0  0  0
  147.7047  142.0946  154.0917 O   0  0  0  0  0  0  0  0  0  0  0  0
  146.2938  142.2055  154.2732 C   0  0  2  0  0  0  0  0  0  0  0  0
  145.9692  143.4675  155.0870 C   0  0  0  0  0  0  0  0  0  0  0  0
  144.5744  143.5802  155.2706 O   0  0  0  0  0  0  0  0  0  0  0  0
  145.9256  140.9052  154.9882 C   0  0  1  0  0  0  0  0  0  0  0  0
  144.5616  140.5550  154.8548 O   0  0  0  0  0  0  0  0  0  0  0  0
  146.8602  139.8959  154.3374 C   0  0  1  0  0  0  0  0  0  0  0  0
  146.3523  139.3673  153.1255 O   0  0  0  0  0  0  0  0  0  0  0  0
  154.3222  141.0267  161.5687 C   0  0  0  0  0  0  0  0  0  0  0  0
  155.2938  140.3142  162.4509 C   0  0  0  0  0  0  0  0  0  0  0  0
  153.9133  142.2436  162.0250 O   0  0  0  0  0  0  0  0  0  0  0  0
  148.6584  140.4997  153.1757 H   0  0  0  0  0  0  0  0  0  0  0  0
  145.8128  142.2308  153.2933 H   0  0  0  0  0  0  0  0  0  0  0  0
  146.1682  140.9885  156.0488 H   0  0  0  0  0  0  0  0  0  0  0  0
  147.0875  139.0613  155.0024 H   0  0  0  0  0  0  0  0  0  0  0  0
  151.8703  144.4400  160.5671 H   0  0  0  0  0  0  0  0  0  0  0  0
  153.2392  144.7989  161.6203 H   0  0  0  0  0  0  0  0  0  0  0  0
  151.7966  144.0236  162.2804 H   0  0  0  0  0  0  0  0  0  0  0  0
  152.2388  141.9799  159.2344 H   0  0  0  0  0  0  0  0  0  0  0  0
  152.7027  138.2003  160.8186 H   0  0  0  0  0  0  0  0  0  0  0  0
  154.4262  138.1824  161.1694 H   0  0  0  0  0  0  0  0  0  0  0  0
  153.8017  137.3136  159.7707 H   0  0  0  0  0  0  0  0  0  0  0  0
  155.4506  138.4661  159.0111 H   0  0  0  0  0  0  0  0  0  0  0  0
  152.6773  140.4782  157.9690 H   0  0  0  0  0  0  0  0  0  0  0  0
  153.3693  138.9494  157.4741 H   0  0  0  0  0  0  0  0  0  0  0  0
  151.5654  138.3943  159.5497 H   0  0  0  0  0  0  0  0  0  0  0  0
  148.7831  136.2547  156.3900 H   0  0  0  0  0  0  0  0  0  0  0  0
  149.9634  142.5158  155.4851 H   0  0  0  0  0  0  0  0  0  0  0  0
  146.4241  143.4037  156.0760 H   0  0  0  0  0  0  0  0  0  0  0  0
  146.3625  144.3641  154.6075 H   0  0  0  0  0  0  0  0  0  0  0  0
  144.3879  143.5301  156.1957 H   0  0  0  0  0  0  0  0  0  0  0  0
  144.3988  140.3398  153.9487 H   0  0  0  0  0  0  0  0  0  0  0  0
  145.5036  139.7513  152.9648 H   0  0  0  0  0  0  0  0  0  0  0  0
  154.9316  139.3159  162.6970 H   0  0  0  0  0  0  0  0  0  0  0  0
  155.4488  140.8542  163.3852 H   0  0  0  0  0  0  0  0  0  0  0  0
  156.2605  140.2129  161.9578 H   0  0  0  0  0  0  0  0  0  0  0  0
  1  2  1  0  0  0  0
  1 35  1  0  0  0  0
  1 36  1  0  0  0  0
  1 37  1  0  0  0  0
  2 30  1  0  0  0  0
  2  3  2  0  0  0  0
  3  4  1  0  0  0  0
  3 38  1  0  0  0  0
  4  5  1  0  0  0  0
  4 28  2  0  0  0  0
  5  6  1  0  0  0  0
  5  7  1  0  0  0  0
  5  8  1  0  0  0  0
  6 39  1  0  0  0  0
  6 40  1  0  0  0  0
  6 41  1  0  0  0  0
  7 42  1  0  0  0  0
  8  9  1  0  0  0  0
  8 43  1  0  0  0  0
  8 44  1  0  0  0  0
  9 10  1  0  0  0  0
  9 45  1  0  0  0  0
 10 15  1  0  0  0  0
 10 11  2  0  0  0  0
 11 12  1  0  0  0  0
 12 13  2  0  0  0  0
 12 46  1  0  0  0  0
 13 14  1  0  0  0  0
 14 18  1  0  0  0  0
 14 15  2  0  0  0  0
 15 16  1  0  0  0  0
 16 17  2  0  0  0  0
 17 18  1  0  0  0  0
 17 47  1  0  0  0  0
 18 19  1  0  0  0  0
 19 31  1  0  0  0  0
 19 26  1  0  0  0  0
 19 20  1  0  0  0  0
 20 21  1  0  0  0  0
 21 32  1  0  0  0  0
 21 22  1  0  0  0  0
 21 24  1  0  0  0  0
 22 23  1  0  0  0  0
 22 48  1  0  0  0  0
 22 49  1  0  0  0  0
 23 50  1  0  0  0  0
 24 33  1  0  0  0  0
 24 25  1  0  0  0  0
 24 26  1  0  0  0  0
 25 51  1  0  0  0  0
 26 34  1  0  0  0  0
 26 27  1  0  0  0  0
 27 52  1  0  0  0  0
 28 29  1  0  0  0  0
 28 30  1  0  0  0  0
 29 53  1  0  0  0  0
 29 54  1  0  0  0  0
 29 55  1  0  0  0  0
M  END
> <s_m_source_file>
AV-unprocessed.smi

> <i_m_source_file_index>
287

> <i_lp_mmshare_version>
43012

> <i_f3d_flags>
0

> <s_epik_input>
W0NIM11jMVtjSF1jKGMobzEpW0NIM10pW0NAQF0oW0NIM10pKFtPSF0pW0NIMl1bTkhdYyhuW2NIXW4yKWMoYzIzKW5bY0hdbjNbQ0BASF00T1tDQEhdKFtDSDJdW09IXSlbQ0BASF0oW09IXSlbQ0BIXTRbT0hd

> <s_epik_cmdline>
J2VwaWtfcHl0aG9uJywgJy1waCcsICc3LjAnLCAnLXRuJywgJzgnLCAnLW1hJywgJzIwMCcsICctbWV0YWxfYmluZGluZycsICctaW1hZScsICc8aW5maWxlLm1hZT4nLCAnLW9tYWUnLCAnPG91dGZpbGUubWFlPic=

> <r_lp_tautomer_probability>
1

> <r_epik_Ionization_Penalty>
0.000992612

> <r_epik_Ionization_Penalty_Charging>
0

> <r_epik_Ionization_Penalty_Neutral>
0.000992612

> <r_epik_State_Penalty>
-0

> <r_epik_Charging_Adjusted_Penalty>
0

> <i_epik_Tot_Q>
0

> <i_epik_Tot_abs_Q>
0

> <r_epik_Metal_State_Penalty>
-0

> <b_epik_Metal_Only>
0

> <s_epik_Chemistry_Notes>
This compound contains an acetal/aminal-like group ( X-CH(R)-Y where X, Y are N, S, or O) that may be acid/base labile, releasing an aldehyde.

> <s_lp_Force_Field>
OPLS_2005

> <r_lp_Energy>
40.8374

> <b_lp_Chiralities_Consistent>
1

> <s_lp_Variant>
AV-unprocessed.smi:287-2

> <Gold.Version>
5.8.1

> <Gold.Id.Protein>
6NUR|6NUR_protein|mol2

> <Gold.PLP.Fitness>
51.4208

> <Gold.PLP.PLP>
-43.6032

> <Gold.PLP.part.hbond>
-3.0061

> <Gold.PLP.part.metal>
0.0000

> <Gold.PLP.part.buried>
-6.9027

> <Gold.PLP.part.nonpolar>
-34.4659

> <Gold.PLP.part.repulsive>
0.3621

> <Gold.PLP.ligand.clash>
0.3913

> <Gold.PLP.ligand.torsion>
1.9401

> <Gold.PLP.Chemscore.Hbond>
2.9825

> <Gold.PLP.Chemscore.CHOScore>
1.0000

> <Gold.PLP.Chemscore.Metal>
0.0000

> <Gold.Chemscore.Hbonds>
donor molecule, donor type, donor heavy atom, donor atom, acceptor molecule, acceptor atom, score
      L1  H    25    51       P1 10175  1.00
      L1  H    27    52       P1 10175  1.00
      P1  H  7997  8010       L1     7  1.00
      L1  C    17    47       P1  8028  1.00

> <Gold.PLP.Chemscore.Internal.Correction>
0.1417

> <Gold.Rescore>
     Score         DG    S(hbond)    S(metal)    S(lipo)     H(rot)  DE(clash)    DE(int)     intcor
      9.94     -13.10       2.92        0.00      97.10       5.27       0.18       2.98       ----

> <Gold.Chemscore.Fitness>
9.9434

> <Gold.Chemscore.DG>
-13.1047

> <Gold.Chemscore.ZeroCoef>
-5.4800

> <Gold.Chemscore.Hbond>
2.9185

> <Gold.Chemscore.Metal>
0.0000

> <Gold.Chemscore.Lipo>
97.1015

> <Gold.Chemscore.Internal_Hbond>
0.0000

> <Gold.Chemscore.DEClash>
0.1815

> <Gold.Chemscore.DEInternal>
2.9799

> <Gold.Chemscore.Rot>
5.2672

> <Gold.Chemscore.Internal.Correction>
   9.000000E+99

> <Gold.Chemscore.Hbonds>
donor molecule, donor type, donor heavy atom, donor atom, acceptor molecule, acceptor atom, score
      L1  H    25    51       P1 10175  0.98
      L1  H    27    52       P1 10175  0.94
      P1  H  7997  8010       L1     7  0.81

> <Gold.Chemscore.Hbond.Weighted>
-9.7478

> <Gold.Chemscore.Metal.Weighted>
-0.0000

> <Gold.Chemscore.Lipo.Weighted>
-11.3609

> <Gold.Chemscore.Internal_Hbond.Weighted>
0.0000

> <Gold.Chemscore.DEClash.Weighted>
0.1815

> <Gold.Chemscore.DEInternal.Weighted>
2.9799

> <Gold.Chemscore.Rot.Weighted>
13.4839

> <Gold.Chemscore.Internal.Correction.Weighted>
   9.000000E+99

> <Gold.Protein.RotatedTorsions>
[ 6907 6896 6895 6894 ] final  137.13 input  -60.11 | X-H torsion
[ 7974 7965 7964 7962 ] final   64.85 input  175.53 | X-H torsion
[ 8008 7997 7996 7995 ] final  -16.56 input   59.86 | X-H torsion
[ 10167 10162 10161 10158 ] final -116.40 input  -65.29 | X-H torsion
[ 10718 10713 10712 10709 ] final -114.08 input   66.30 | X-H torsion
[ 10763 10752 10751 10750 ] final  173.96 input  -60.55 | X-H torsion
[ 11005 11000 10999 10996 ] final -145.10 input  -57.11 | X-H torsion

> <Gold.Protein.ActiveResidues>
 VAL166  LYS551  ARG553  GLY616  TRP617  ASP618  TYR619  PRO620  LYS621  CYS622 
 ASP623  PHE694  ASN695  SER759  ASP760  ASP761  ALA762  ILE779  LEU786  VAL792 
 PHE793  MET794  SER795  GLU796  ALA797  LYS798  CYS799  TRP800  GLU811  SER814 

> <Gold.Protein.RotatedAtoms>
  152.2816  133.5476  159.5500 H   0  0  0  0  0  0  0  0  0  0  0  0  # atno 6907 bound_to 6896
  150.7198  134.0556  159.3822 H   0  0  0  0  0  0  0  0  0  0  0  0  # atno 6908 bound_to 6896
  151.8466  135.0572  160.0505 H   0  0  0  0  0  0  0  0  0  0  0  0  # atno 6909 bound_to 6896
  145.8454  139.3221  143.0906 H   0  0  0  0  0  0  0  0  0  0  0  0  # atno 7974 bound_to 7965
  154.5044  140.2166  155.9281 H   0  0  0  0  0  0  0  0  0  0  0  0  # atno 8008 bound_to 7997
  156.1475  140.3168  155.8560 H   0  0  0  0  0  0  0  0  0  0  0  0  # atno 8009 bound_to 7997
  155.4003  140.0484  157.3027 H   0  0  0  0  0  0  0  0  0  0  0  0  # atno 8010 bound_to 7997
  140.0796  143.4800  152.1933 H   0  0  0  0  0  0  0  0  0  0  0  0  # atno 10167 bound_to 10162
  156.0807  130.6007  150.8727 H   0  0  0  0  0  0  0  0  0  0  0  0  # atno 10718 bound_to 10713
  154.4473  135.2763  155.1805 H   0  0  0  0  0  0  0  0  0  0  0  0  # atno 10763 bound_to 10752
  154.3647  135.6122  153.5712 H   0  0  0  0  0  0  0  0  0  0  0  0  # atno 10764 bound_to 10752
  152.9844  135.5843  154.4812 H   0  0  0  0  0  0  0  0  0  0  0  0  # atno 10765 bound_to 10752
  140.7957  134.2916  157.4997 H   0  0  0  0  0  0  0  0  0  0  0  0  # atno 11005 bound_to 11000
  145.9418  140.8974  143.0304 LP  0  0  0  0  0  0  0  0  0  0  0  0  # atno 17320 bound_to 7965
  144.6731  140.1559  143.7426 LP  0  0  0  0  0  0  0  0  0  0  0  0  # atno 17321 bound_to 7965
  139.5787  144.7500  151.3696 LP  0  0  0  0  0  0  0  0  0  0  0  0  # atno 17342 bound_to 10162
  140.7084  143.7453  150.7523 LP  0  0  0  0  0  0  0  0  0  0  0  0  # atno 17343 bound_to 10162
  157.5922  131.0944  150.9099 LP  0  0  0  0  0  0  0  0  0  0  0  0  # atno 17370 bound_to 10713
  156.9273  130.5337  149.5279 LP  0  0  0  0  0  0  0  0  0  0  0  0  # atno 17371 bound_to 10713
  139.8726  134.9400  156.3758 LP  0  0  0  0  0  0  0  0  0  0  0  0  # atno 17394 bound_to 11000
  140.9345  133.7556  156.0067 LP  0  0  0  0  0  0  0  0  0  0  0  0  # atno 17395 bound_to 11000

$$$$
