AV-unprocessed.smi:1322|AV-procd|sdf|5463|dock7
  -GOLD-   22720 5 33D 1   1.00000     0.00000
 Structure written by MMmdl.
 32 33  0  0  0  0  0  0  0  0  1 V2000
  150.1804  139.6770  158.1572 C   0  0  0  0  0  0  0  0  0  0  0  0
  150.4885  141.1590  157.8710 C   0  0  2  0  0  0  0  0  0  0  0  0
  151.0024  141.4019  156.4372 C   0  0  0  0  0  0  0  0  0  0  0  0
  150.0455  141.0140  155.4164 N   0  0  0  0  0  0  0  0  0  0  0  0
  148.7644  141.4846  155.2174 C   0  0  0  0  0  0  0  0  0  0  0  0
  148.2490  140.8178  154.1431 C   0  0  0  0  0  0  0  0  0  0  0  0
  149.3020  139.9450  153.7502 C   0  0  0  0  0  0  0  0  0  0  0  0
  150.3748  140.0631  154.5158 N   0  0  0  0  0  0  0  0  0  0  0  0
  151.4757  141.6659  158.8207 N   0  0  0  0  0  0  0  0  0  0  0  0
  152.7262  141.2027  158.9694 C   0  0  0  0  0  0  0  0  0  0  0  0
  153.1936  140.2881  158.2895 O   0  0  0  0  0  0  0  0  0  0  0  0
  153.5660  141.8801  160.0605 C   0  0  0  0  0  0  0  0  0  0  0  0
  153.9074  140.9728  161.2551 C   0  0  0  0  0  0  0  0  0  0  0  0
  153.5717  142.1424  162.1853 C   0  0  0  0  0  0  0  0  0  0  0  0
  152.7679  142.7621  161.0383 C   0  0  0  0  0  0  0  0  0  0  0  0
  149.3989  139.2977  157.4988 H   0  0  0  0  0  0  0  0  0  0  0  0
  149.8325  139.5347  159.1806 H   0  0  0  0  0  0  0  0  0  0  0  0
  151.0651  139.0551  158.0171 H   0  0  0  0  0  0  0  0  0  0  0  0
  149.5662  141.7294  157.9963 H   0  0  0  0  0  0  0  0  0  0  0  0
  151.2439  142.4564  156.2945 H   0  0  0  0  0  0  0  0  0  0  0  0
  151.9265  140.8468  156.2690 H   0  0  0  0  0  0  0  0  0  0  0  0
  148.3321  142.2472  155.8484 H   0  0  0  0  0  0  0  0  0  0  0  0
  147.2687  140.9344  153.7052 H   0  0  0  0  0  0  0  0  0  0  0  0
  149.3183  139.2333  152.9381 H   0  0  0  0  0  0  0  0  0  0  0  0
  151.1794  142.4200  159.4231 H   0  0  0  0  0  0  0  0  0  0  0  0
  154.4473  142.3958  159.6742 H   0  0  0  0  0  0  0  0  0  0  0  0
  153.2309  140.1256  161.3817 H   0  0  0  0  0  0  0  0  0  0  0  0
  154.9505  140.6583  161.2970 H   0  0  0  0  0  0  0  0  0  0  0  0
  152.9818  141.8724  163.0616 H   0  0  0  0  0  0  0  0  0  0  0  0
  154.4488  142.7337  162.4532 H   0  0  0  0  0  0  0  0  0  0  0  0
  152.9295  143.8330  160.9124 H   0  0  0  0  0  0  0  0  0  0  0  0
  151.7039  142.5261  161.0961 H   0  0  0  0  0  0  0  0  0  0  0  0
  1  2  1  0  0  0  0
  1 16  1  0  0  0  0
  1 17  1  0  0  0  0
  1 18  1  0  0  0  0
  2  3  1  0  0  0  0
  2  9  1  0  0  0  0
  2 19  1  0  0  0  0
  3  4  1  0  0  0  0
  3 20  1  0  0  0  0
  3 21  1  0  0  0  0
  4  8  1  0  0  0  0
  4  5  1  0  0  0  0
  5  6  2  0  0  0  0
  5 22  1  0  0  0  0
  6  7  1  0  0  0  0
  6 23  1  0  0  0  0
  7  8  2  0  0  0  0
  7 24  1  0  0  0  0
  9 10  1  0  0  0  0
  9 25  1  0  0  0  0
 10 11  2  0  0  0  0
 10 12  1  0  0  0  0
 12 15  1  0  0  0  0
 12 13  1  0  0  0  0
 12 26  1  0  0  0  0
 13 14  1  0  0  0  0
 13 27  1  0  0  0  0
 13 28  1  0  0  0  0
 14 15  1  0  0  0  0
 14 29  1  0  0  0  0
 14 30  1  0  0  0  0
 15 31  1  0  0  0  0
 15 32  1  0  0  0  0
M  END
> <s_m_source_file>
AV-unprocessed.smi

> <i_m_source_file_index>
1322

> <i_lp_mmshare_version>
43012

> <i_f3d_flags>
0

> <s_epik_input>
W0NIMl0xW0NIMl1bQ0gyXVtDSF0xQyg9TylbTkhdW0NASF0oW0NIM10pW0NIMl1uMltjSF1bY0hdW2NIXW4y

> <s_epik_cmdline>
J2VwaWtfcHl0aG9uJywgJy1waCcsICc3LjAnLCAnLXRuJywgJzgnLCAnLW1hJywgJzIwMCcsICctbWV0YWxfYmluZGluZycsICctaW1hZScsICc8aW5maWxlLm1hZT4nLCAnLW9tYWUnLCAnPG91dGZpbGUubWFlPic=

> <r_lp_tautomer_probability>
1

> <r_epik_Ionization_Penalty>
0.000326653

> <r_epik_Ionization_Penalty_Charging>
0

> <r_epik_Ionization_Penalty_Neutral>
0.000326653

> <r_epik_State_Penalty>
-0

> <r_epik_Charging_Adjusted_Penalty>
0

> <i_epik_Tot_Q>
0

> <i_epik_Tot_abs_Q>
0

> <r_epik_Metal_State_Penalty>
-0

> <b_epik_Metal_Only>
0

> <s_lp_Force_Field>
OPLS_2005

> <r_lp_Energy>
10.8536

> <b_lp_Chiralities_Consistent>
1

> <s_lp_Variant>
AV-unprocessed.smi:1322-1

> <Gold.Version>
5.8.1

> <Gold.Id.Protein>
6NUR|6NUR_protein|mol2

> <Gold.PLP.Fitness>
43.2082

> <Gold.PLP.PLP>
-32.7546

> <Gold.PLP.part.hbond>
-2.0000

> <Gold.PLP.part.metal>
0.0000

> <Gold.PLP.part.buried>
0.8104

> <Gold.PLP.part.nonpolar>
-31.0809

> <Gold.PLP.part.repulsive>
0.2034

> <Gold.PLP.ligand.clash>
0.0000

> <Gold.PLP.ligand.torsion>
0.2203

> <Gold.PLP.Chemscore.Hbond>
1.8640

> <Gold.PLP.Chemscore.CHOScore>
1.6282

> <Gold.PLP.Chemscore.Metal>
0.0000

> <Gold.Chemscore.Hbonds>
donor molecule, donor type, donor heavy atom, donor atom, acceptor molecule, acceptor atom, score
      P1  H  7989  7998       L1     8  1.00
      P1  H  7997  8010       L1    11  0.85
      L1  C     5    22       P1  8028  0.88
      L1  C     7    24       P1  7957  0.59

> <Gold.PLP.Chemscore.Internal.Correction>
0.4176

> <Gold.Rescore>
     Score         DG    S(hbond)    S(metal)    S(lipo)     H(rot)  DE(clash)    DE(int)     intcor
     13.20     -16.25       1.67        0.00      78.32       1.55       1.76       1.30       ----

> <Gold.Chemscore.Fitness>
13.1951

> <Gold.Chemscore.DG>
-16.2464

> <Gold.Chemscore.ZeroCoef>
-5.4800

> <Gold.Chemscore.Hbond>
1.6659

> <Gold.Chemscore.Metal>
0.0000

> <Gold.Chemscore.Lipo>
78.3171

> <Gold.Chemscore.Internal_Hbond>
0.0000

> <Gold.Chemscore.DEClash>
1.7562

> <Gold.Chemscore.DEInternal>
1.2951

> <Gold.Chemscore.Rot>
1.5471

> <Gold.Chemscore.Internal.Correction>
   9.000000E+99

> <Gold.Chemscore.Hbonds>
donor molecule, donor type, donor heavy atom, donor atom, acceptor molecule, acceptor atom, score
      P1  H  7989  7998       L1     8  0.22
      P1  H  7997  8010       L1    11  0.83

> <Gold.Chemscore.Hbond.Weighted>
-5.5639

> <Gold.Chemscore.Metal.Weighted>
-0.0000

> <Gold.Chemscore.Lipo.Weighted>
-9.1631

> <Gold.Chemscore.Internal_Hbond.Weighted>
0.0000

> <Gold.Chemscore.DEClash.Weighted>
1.7562

> <Gold.Chemscore.DEInternal.Weighted>
1.2951

> <Gold.Chemscore.Rot.Weighted>
3.9606

> <Gold.Chemscore.Internal.Correction.Weighted>
   9.000000E+99

> <Gold.Protein.RotatedTorsions>
[ 6907 6896 6895 6894 ] final   -7.31 input  -60.11 | X-H torsion
[ 7974 7965 7964 7962 ] final    7.10 input  175.53 | X-H torsion
[ 8008 7997 7996 7995 ] final   24.16 input   59.86 | X-H torsion
[ 10167 10162 10161 10158 ] final  119.05 input  -65.29 | X-H torsion
[ 10718 10713 10712 10709 ] final  -91.34 input   66.30 | X-H torsion
[ 10763 10752 10751 10750 ] final   56.78 input  -60.55 | X-H torsion
[ 11005 11000 10999 10996 ] final   25.98 input  -57.11 | X-H torsion

> <Gold.Protein.ActiveResidues>
 VAL166  LYS551  ARG553  GLY616  TRP617  ASP618  TYR619  PRO620  LYS621  CYS622 
 ASP623  PHE694  ASN695  SER759  ASP760  ASP761  ALA762  ILE779  LEU786  VAL792 
 PHE793  MET794  SER795  GLU796  ALA797  LYS798  CYS799  TRP800  GLU811  SER814 

> <Gold.Protein.RotatedAtoms>
  151.4516  135.1030  159.9699 H   0  0  0  0  0  0  0  0  0  0  0  0  # atno 6907 bound_to 6896
  152.4886  133.8435  159.7175 H   0  0  0  0  0  0  0  0  0  0  0  0  # atno 6908 bound_to 6896
  150.9018  133.7049  159.2904 H   0  0  0  0  0  0  0  0  0  0  0  0  # atno 6909 bound_to 6896
  146.2429  140.0133  142.8404 H   0  0  0  0  0  0  0  0  0  0  0  0  # atno 7974 bound_to 7965
  154.9921  140.3115  155.4902 H   0  0  0  0  0  0  0  0  0  0  0  0  # atno 8008 bound_to 7997
  156.2938  140.2247  156.4966 H   0  0  0  0  0  0  0  0  0  0  0  0  # atno 8009 bound_to 7997
  154.7694  140.0453  157.1027 H   0  0  0  0  0  0  0  0  0  0  0  0  # atno 8010 bound_to 7997
  139.6071  144.7072  151.2929 H   0  0  0  0  0  0  0  0  0  0  0  0  # atno 10167 bound_to 10162
  155.9993  130.4944  150.5460 H   0  0  0  0  0  0  0  0  0  0  0  0  # atno 10718 bound_to 10713
  152.9838  135.5664  154.5285 H   0  0  0  0  0  0  0  0  0  0  0  0  # atno 10763 bound_to 10752
  154.4760  135.2786  155.1608 H   0  0  0  0  0  0  0  0  0  0  0  0  # atno 10764 bound_to 10752
  154.3137  135.6283  153.5530 H   0  0  0  0  0  0  0  0  0  0  0  0  # atno 10765 bound_to 10752
  140.3419  134.2323  155.7689 H   0  0  0  0  0  0  0  0  0  0  0  0  # atno 11005 bound_to 11000
  145.1307  140.9516  143.4546 LP  0  0  0  0  0  0  0  0  0  0  0  0  # atno 17320 bound_to 7965
  145.0390  139.3276  143.5986 LP  0  0  0  0  0  0  0  0  0  0  0  0  # atno 17321 bound_to 7965
  140.7292  143.6913  150.7920 LP  0  0  0  0  0  0  0  0  0  0  0  0  # atno 17342 bound_to 10162
  140.0500  143.5259  152.2678 LP  0  0  0  0  0  0  0  0  0  0  0  0  # atno 17343 bound_to 10162
  157.3389  131.0713  151.1803 LP  0  0  0  0  0  0  0  0  0  0  0  0  # atno 17370 bound_to 10713
  157.2658  130.6680  149.5996 LP  0  0  0  0  0  0  0  0  0  0  0  0  # atno 17371 bound_to 10713
  141.2036  133.7908  157.0331 LP  0  0  0  0  0  0  0  0  0  0  0  0  # atno 17394 bound_to 11000
  140.0774  134.9668  157.1568 LP  0  0  0  0  0  0  0  0  0  0  0  0  # atno 17395 bound_to 11000

$$$$
