AV-unprocessed.smi:2817|AV-procd|sdf|10847|dock5
  -GOLD-   2272015293D 1   1.00000     0.00000
 Structure written by MMmdl.
 42 44  0  0  0  0  0  0  0  0  1 V2000
  150.5822  140.2483  155.1806 O   0  0  0  0  0  0  0  0  0  0  0  0
  150.6992  140.7533  156.2973 C   0  0  0  0  0  0  0  0  0  0  0  0
  150.9826  142.1752  156.4937 C   0  0  0  0  0  0  0  0  0  0  0  0
  151.1087  142.6920  157.7394 C   0  0  0  0  0  0  0  0  0  0  0  0
  151.4278  144.1622  157.9737 C   0  0  0  0  0  0  0  0  0  0  0  0
  152.7197  144.4557  158.7541 C   0  0  0  0  0  0  0  0  0  0  0  0
  151.9650  145.5938  159.4501 C   0  0  0  0  0  0  0  0  0  0  0  0
  150.6682  144.8447  159.1239 C   0  0  0  0  0  0  0  0  0  0  0  0
  150.9804  141.8721  158.8666 N   0  0  0  0  0  0  0  0  0  0  0  0
  150.7288  140.6104  158.7198 C   0  0  0  0  0  0  0  0  0  0  0  0
  150.5798  140.0274  157.4470 N   0  0  0  0  0  0  0  0  0  0  0  0
  150.2988  138.5829  157.4183 C   0  0  0  0  0  0  0  0  0  0  0  0
  148.9759  138.2298  158.1344 C   0  0  1  0  0  0  0  0  0  0  0  0
  148.0046  137.8037  157.1998 O   0  0  0  0  0  0  0  0  0  0  0  0
  149.1365  137.1174  159.1848 C   0  0  0  0  0  0  0  0  0  0  0  0
  148.3407  137.4081  160.3279 O   0  0  0  0  0  0  0  0  0  0  0  0
  147.7808  136.3565  161.0205 C   0  0  0  0  0  0  0  0  0  0  0  0
  147.1740  136.6571  162.2575 C   0  0  0  0  0  0  0  0  0  0  0  0
  146.5774  135.6447  163.0333 C   0  0  0  0  0  0  0  0  0  0  0  0
  146.5823  134.3140  162.5767 C   0  0  0  0  0  0  0  0  0  0  0  0
  147.1837  133.9995  161.3439 C   0  0  0  0  0  0  0  0  0  0  0  0
  147.7799  135.0124  160.5678 C   0  0  0  0  0  0  0  0  0  0  0  0
  151.0913  142.8128  155.6283 H   0  0  0  0  0  0  0  0  0  0  0  0
  151.3703  144.7406  157.0499 H   0  0  0  0  0  0  0  0  0  0  0  0
  153.0019  143.6603  159.4466 H   0  0  0  0  0  0  0  0  0  0  0  0
  153.5624  144.7743  158.1400 H   0  0  0  0  0  0  0  0  0  0  0  0
  152.1772  145.7000  160.5142 H   0  0  0  0  0  0  0  0  0  0  0  0
  152.0500  146.5448  158.9215 H   0  0  0  0  0  0  0  0  0  0  0  0
  149.8393  145.4801  158.8110 H   0  0  0  0  0  0  0  0  0  0  0  0
  150.3736  144.1598  159.9214 H   0  0  0  0  0  0  0  0  0  0  0  0
  150.6226  139.9273  159.5642 H   0  0  0  0  0  0  0  0  0  0  0  0
  150.2991  138.1869  156.4005 H   0  0  0  0  0  0  0  0  0  0  0  0
  151.1231  138.0621  157.9094 H   0  0  0  0  0  0  0  0  0  0  0  0
  148.5741  139.1080  158.6414 H   0  0  0  0  0  0  0  0  0  0  0  0
  148.3854  137.1332  156.6537 H   0  0  0  0  0  0  0  0  0  0  0  0
  148.7981  136.1752  158.7506 H   0  0  0  0  0  0  0  0  0  0  0  0
  150.1875  136.9989  159.4542 H   0  0  0  0  0  0  0  0  0  0  0  0
  147.1661  137.6762  162.6157 H   0  0  0  0  0  0  0  0  0  0  0  0
  146.1168  135.8901  163.9788 H   0  0  0  0  0  0  0  0  0  0  0  0
  146.1259  133.5359  163.1707 H   0  0  0  0  0  0  0  0  0  0  0  0
  147.1881  132.9786  160.9915 H   0  0  0  0  0  0  0  0  0  0  0  0
  148.2305  134.7314  159.6281 H   0  0  0  0  0  0  0  0  0  0  0  0
  1  2  2  0  0  0  0
  2 11  1  0  0  0  0
  2  3  1  0  0  0  0
  3  4  2  0  0  0  0
  3 23  1  0  0  0  0
  4  5  1  0  0  0  0
  4  9  1  0  0  0  0
  5  8  1  0  0  0  0
  5  6  1  0  0  0  0
  5 24  1  0  0  0  0
  6  7  1  0  0  0  0
  6 25  1  0  0  0  0
  6 26  1  0  0  0  0
  7  8  1  0  0  0  0
  7 27  1  0  0  0  0
  7 28  1  0  0  0  0
  8 29  1  0  0  0  0
  8 30  1  0  0  0  0
  9 10  2  0  0  0  0
 10 11  1  0  0  0  0
 10 31  1  0  0  0  0
 11 12  1  0  0  0  0
 12 13  1  0  0  0  0
 12 32  1  0  0  0  0
 12 33  1  0  0  0  0
 13 14  1  0  0  0  0
 13 15  1  0  0  0  0
 13 34  1  0  0  0  0
 14 35  1  0  0  0  0
 15 16  1  0  0  0  0
 15 36  1  0  0  0  0
 15 37  1  0  0  0  0
 16 17  1  0  0  0  0
 17 22  1  0  0  0  0
 17 18  2  0  0  0  0
 18 19  1  0  0  0  0
 18 38  1  0  0  0  0
 19 20  2  0  0  0  0
 19 39  1  0  0  0  0
 20 21  1  0  0  0  0
 20 40  1  0  0  0  0
 21 22  2  0  0  0  0
 21 41  1  0  0  0  0
 22 42  1  0  0  0  0
M  END
> <s_m_source_file>
AV-unprocessed.smi

> <i_m_source_file_index>
2817

> <i_lp_mmshare_version>
43012

> <i_f3d_flags>
0

> <s_epik_input>
W0NIMl0xW0NIMl1bQ0gyXVtDSF0xYyhbY0hdYzI9TyluW2NIXW4yW0NIMl1bQ0BIXShbT0hdKVtDSDJdT2MzW2NIXVtjSF1bY0hdW2NIXVtjSF0z

> <s_epik_cmdline>
J2VwaWtfcHl0aG9uJywgJy1waCcsICc3LjAnLCAnLXRuJywgJzgnLCAnLW1hJywgJzIwMCcsICctbWV0YWxfYmluZGluZycsICctaW1hZScsICc8aW5maWxlLm1hZT4nLCAnLW9tYWUnLCAnPG91dGZpbGUubWFlPic=

> <r_lp_tautomer_probability>
1

> <r_epik_Ionization_Penalty>
2.12778e-05

> <r_epik_Ionization_Penalty_Charging>
7.42033e-08

> <r_epik_Ionization_Penalty_Neutral>
2.12036e-05

> <r_epik_State_Penalty>
-0

> <r_epik_Charging_Adjusted_Penalty>
7.42033e-08

> <i_epik_Tot_Q>
0

> <i_epik_Tot_abs_Q>
0

> <r_epik_Metal_State_Penalty>
-0

> <b_epik_Metal_Only>
0

> <s_lp_Force_Field>
OPLS_2005

> <r_lp_Energy>
33.1228

> <b_lp_Chiralities_Consistent>
1

> <s_lp_Variant>
AV-unprocessed.smi:2817-2

> <Gold.Version>
5.8.1

> <Gold.Id.Protein>
6NUR|6NUR_protein|mol2

> <Gold.PLP.Fitness>
52.1490

> <Gold.PLP.PLP>
-50.3682

> <Gold.PLP.part.hbond>
-3.0000

> <Gold.PLP.part.metal>
0.0000

> <Gold.PLP.part.buried>
-6.8866

> <Gold.PLP.part.nonpolar>
-42.0855

> <Gold.PLP.part.repulsive>
0.0605

> <Gold.PLP.ligand.clash>
0.0000

> <Gold.PLP.ligand.torsion>
1.8014

> <Gold.PLP.Chemscore.Hbond>
1.6287

> <Gold.PLP.Chemscore.CHOScore>
0.0000

> <Gold.PLP.Chemscore.Metal>
0.0000

> <Gold.Chemscore.Hbonds>
donor molecule, donor type, donor heavy atom, donor atom, acceptor molecule, acceptor atom, score
      P1  H  6931  6943       L1    16  0.44
      P1  H  6934  6947       L1    16  0.50
      P1  H  7989  7998       L1     1  0.88

> <Gold.PLP.Chemscore.Internal.Correction>
0.4976

> <Gold.Rescore>
     Score         DG    S(hbond)    S(metal)    S(lipo)     H(rot)  DE(clash)    DE(int)     intcor
     16.06     -17.80       1.11        0.00     126.65       2.42       0.07       1.68       ----

> <Gold.Chemscore.Fitness>
16.0561

> <Gold.Chemscore.DG>
-17.8007

> <Gold.Chemscore.ZeroCoef>
-5.4800

> <Gold.Chemscore.Hbond>
1.1105

> <Gold.Chemscore.Metal>
0.0000

> <Gold.Chemscore.Lipo>
126.6524

> <Gold.Chemscore.Internal_Hbond>
0.0000

> <Gold.Chemscore.DEClash>
0.0662

> <Gold.Chemscore.DEInternal>
1.6785

> <Gold.Chemscore.Rot>
2.4245

> <Gold.Chemscore.Internal.Correction>
   9.000000E+99

> <Gold.Chemscore.Hbonds>
donor molecule, donor type, donor heavy atom, donor atom, acceptor molecule, acceptor atom, score
      P1  H  6931  6943       L1    16  0.05
      P1  H  6934  6947       L1    16  0.21
      P1  H  7989  7998       L1     1  0.84

> <Gold.Chemscore.Hbond.Weighted>
-3.7090

> <Gold.Chemscore.Metal.Weighted>
-0.0000

> <Gold.Chemscore.Lipo.Weighted>
-14.8183

> <Gold.Chemscore.Internal_Hbond.Weighted>
0.0000

> <Gold.Chemscore.DEClash.Weighted>
0.0662

> <Gold.Chemscore.DEInternal.Weighted>
1.6785

> <Gold.Chemscore.Rot.Weighted>
6.2066

> <Gold.Chemscore.Internal.Correction.Weighted>
   9.000000E+99

> <Gold.Protein.RotatedTorsions>
[ 6907 6896 6895 6894 ] final  -52.76 input  -60.11 | X-H torsion
[ 7974 7965 7964 7962 ] final  172.33 input  175.53 | X-H torsion
[ 8008 7997 7996 7995 ] final   93.94 input   59.86 | X-H torsion
[ 10167 10162 10161 10158 ] final  155.05 input  -65.29 | X-H torsion
[ 10718 10713 10712 10709 ] final  141.95 input   66.30 | X-H torsion
[ 10763 10752 10751 10750 ] final  -40.12 input  -60.55 | X-H torsion
[ 11005 11000 10999 10996 ] final -122.50 input  -57.11 | X-H torsion

> <Gold.Protein.ActiveResidues>
 VAL166  LYS551  ARG553  GLY616  TRP617  ASP618  TYR619  PRO620  LYS621  CYS622 
 ASP623  PHE694  ASN695  SER759  ASP760  ASP761  ALA762  ILE779  LEU786  VAL792 
 PHE793  MET794  SER795  GLU796  ALA797  LYS798  CYS799  TRP800  GLU811  SER814 

> <Gold.Protein.RotatedAtoms>
  150.8489  134.7807  159.6992 H   0  0  0  0  0  0  0  0  0  0  0  0  # atno 6907 bound_to 6896
  152.4558  134.5290  159.9815 H   0  0  0  0  0  0  0  0  0  0  0  0  # atno 6908 bound_to 6896
  151.5415  133.3394  159.2972 H   0  0  0  0  0  0  0  0  0  0  0  0  # atno 6909 bound_to 6896
  144.7271  139.9483  143.6431 H   0  0  0  0  0  0  0  0  0  0  0  0  # atno 7974 bound_to 7965
  156.0524  140.3306  155.7366 H   0  0  0  0  0  0  0  0  0  0  0  0  # atno 8008 bound_to 7997
  155.5581  140.0616  157.2852 H   0  0  0  0  0  0  0  0  0  0  0  0  # atno 8009 bound_to 7997
  154.4442  140.1882  156.0743 H   0  0  0  0  0  0  0  0  0  0  0  0  # atno 8010 bound_to 7997
  139.4822  144.5133  151.7991 H   0  0  0  0  0  0  0  0  0  0  0  0  # atno 10167 bound_to 10162
  157.3861  131.0998  151.0691 H   0  0  0  0  0  0  0  0  0  0  0  0  # atno 10718 bound_to 10713
  153.9406  135.6762  153.4744 H   0  0  0  0  0  0  0  0  0  0  0  0  # atno 10763 bound_to 10752
  153.0933  135.4863  154.8729 H   0  0  0  0  0  0  0  0  0  0  0  0  # atno 10764 bound_to 10752
  154.7379  135.3153  154.8738 H   0  0  0  0  0  0  0  0  0  0  0  0  # atno 10765 bound_to 10752
  140.9990  134.0430  157.3561 H   0  0  0  0  0  0  0  0  0  0  0  0  # atno 11005 bound_to 11000
  146.0731  139.3719  143.0511 LP  0  0  0  0  0  0  0  0  0  0  0  0  # atno 17320 bound_to 7965
  145.7941  140.9801  143.1033 LP  0  0  0  0  0  0  0  0  0  0  0  0  # atno 17321 bound_to 7965
  140.4638  144.1684  150.5909 LP  0  0  0  0  0  0  0  0  0  0  0  0  # atno 17342 bound_to 10162
  140.4456  143.2508  151.9416 LP  0  0  0  0  0  0  0  0  0  0  0  0  # atno 17343 bound_to 10162
  157.1742  130.6281  149.5650 LP  0  0  0  0  0  0  0  0  0  0  0  0  # atno 17370 bound_to 10713
  155.9787  130.4775  150.6672 LP  0  0  0  0  0  0  0  0  0  0  0  0  # atno 17371 bound_to 10713
  139.9029  135.0171  156.7353 LP  0  0  0  0  0  0  0  0  0  0  0  0  # atno 17394 bound_to 11000
  140.6919  133.9382  155.7971 LP  0  0  0  0  0  0  0  0  0  0  0  0  # atno 17395 bound_to 11000

$$$$
