AV-unprocessed.smi:2101|AV-procd|sdf|8580|dock2
  -GOLD-   2272011313D 1   1.00000     0.00000
 Structure written by MMmdl.
 42 43  0  0  0  0  0  0  0  0  2 V2000
  147.9444  133.2864  156.1298 C   0  0  0  0  0  0  0  0  0  0  0  0
  149.4524  133.9069  156.9810 S   0  0  0  0  0  0  0  0  0  0  0  0
  149.2508  133.7725  158.4318 O   0  0  0  0  0  0  0  0  0  0  0  0
  150.6275  133.2891  156.3474 O   0  0  0  0  0  0  0  0  0  0  0  0
  149.4711  135.6037  156.6004 N   0  0  0  0  0  0  0  0  0  0  0  0
  150.0294  136.5607  157.5834 C   0  0  0  0  0  0  0  0  0  0  0  0
  151.4216  137.0663  157.1573 C   0  0  0  0  0  0  0  0  0  0  0  0
  151.3291  137.6152  155.7982 N   0  0  0  0  0  0  0  0  0  0  0  0
  151.2908  138.9274  155.4587 C   0  0  0  0  0  0  0  0  0  0  0  0
  151.0366  139.3226  154.3199 O   0  0  0  0  0  0  0  0  0  0  0  0
  151.5963  139.7758  156.4557 N   0  0  0  0  0  0  0  0  0  0  0  0
  151.6368  141.2285  156.3341 C   0  0  0  0  0  0  0  0  0  0  0  0
  150.5091  141.8928  157.1420 C   0  0  0  0  0  0  0  0  0  0  0  0
  151.0361  142.9234  158.1208 C   0  0  0  0  0  0  0  0  0  0  0  0
  152.0213  142.6144  159.0838 C   0  0  0  0  0  0  0  0  0  0  0  0
  152.4704  143.6261  159.9586 C   0  0  0  0  0  0  0  0  0  0  0  0
  151.9252  144.9227  159.8526 C   0  0  0  0  0  0  0  0  0  0  0  0
  150.9445  145.1758  158.8718 C   0  0  0  0  0  0  0  0  0  0  0  0
  150.5415  144.1807  158.0513 N   0  3  0  0  0  0  0  0  0  0  0  0
  150.9848  136.5517  154.8527 C   0  0  0  0  0  0  0  0  0  0  0  0
  149.5750  136.0254  155.1844 C   0  0  0  0  0  0  0  0  0  0  0  0
  147.8468  132.2164  156.3116 H   0  0  0  0  0  0  0  0  0  0  0  0
  148.0271  133.4593  155.0579 H   0  0  0  0  0  0  0  0  0  0  0  0
  147.0642  133.7944  156.5212 H   0  0  0  0  0  0  0  0  0  0  0  0
  149.3440  137.4051  157.6670 H   0  0  0  0  0  0  0  0  0  0  0  0
  150.0792  136.1067  158.5725 H   0  0  0  0  0  0  0  0  0  0  0  0
  151.7923  137.7789  157.8939 H   0  0  0  0  0  0  0  0  0  0  0  0
  152.1425  136.2486  157.1655 H   0  0  0  0  0  0  0  0  0  0  0  0
  151.8146  139.3851  157.3609 H   0  0  0  0  0  0  0  0  0  0  0  0
  152.6062  141.5750  156.6938 H   0  0  0  0  0  0  0  0  0  0  0  0
  151.5770  141.5134  155.2823 H   0  0  0  0  0  0  0  0  0  0  0  0
  149.7990  142.3816  156.4732 H   0  0  0  0  0  0  0  0  0  0  0  0
  149.9446  141.1351  157.6870 H   0  0  0  0  0  0  0  0  0  0  0  0
  152.4308  141.6168  159.1513 H   0  0  0  0  0  0  0  0  0  0  0  0
  153.2244  143.4106  160.7017 H   0  0  0  0  0  0  0  0  0  0  0  0
  152.2548  145.7111  160.5135 H   0  0  0  0  0  0  0  0  0  0  0  0
  150.4738  146.1362  158.7194 H   0  0  0  0  0  0  0  0  0  0  0  0
  151.0219  136.8883  153.8158 H   0  0  0  0  0  0  0  0  0  0  0  0
  151.7207  135.7505  154.9235 H   0  0  0  0  0  0  0  0  0  0  0  0
  149.3135  135.2017  154.5209 H   0  0  0  0  0  0  0  0  0  0  0  0
  148.8396  136.8104  155.0045 H   0  0  0  0  0  0  0  0  0  0  0  0
  149.8312  144.3863  157.3479 H   0  0  0  0  0  0  0  0  0  0  0  0
  1  2  1  0  0  0  0
  1 22  1  0  0  0  0
  1 23  1  0  0  0  0
  1 24  1  0  0  0  0
  2  3  2  0  0  0  0
  2  4  2  0  0  0  0
  2  5  1  0  0  0  0
  5 21  1  0  0  0  0
  5  6  1  0  0  0  0
  6  7  1  0  0  0  0
  6 25  1  0  0  0  0
  6 26  1  0  0  0  0
  7  8  1  0  0  0  0
  7 27  1  0  0  0  0
  7 28  1  0  0  0  0
  8  9  1  0  0  0  0
  8 20  1  0  0  0  0
  9 10  2  0  0  0  0
  9 11  1  0  0  0  0
 11 12  1  0  0  0  0
 11 29  1  0  0  0  0
 12 13  1  0  0  0  0
 12 30  1  0  0  0  0
 12 31  1  0  0  0  0
 13 14  1  0  0  0  0
 13 32  1  0  0  0  0
 13 33  1  0  0  0  0
 14 19  1  0  0  0  0
 14 15  2  0  0  0  0
 15 16  1  0  0  0  0
 15 34  1  0  0  0  0
 16 17  2  0  0  0  0
 16 35  1  0  0  0  0
 17 18  1  0  0  0  0
 17 36  1  0  0  0  0
 18 19  2  0  0  0  0
 18 37  1  0  0  0  0
 19 42  1  0  0  0  0
 20 21  1  0  0  0  0
 20 38  1  0  0  0  0
 20 39  1  0  0  0  0
 21 40  1  0  0  0  0
 21 41  1  0  0  0  0
M  CHG  1  19   1
M  END
> <s_m_source_file>
AV-unprocessed.smi

> <i_m_source_file_index>
2101

> <i_lp_mmshare_version>
43012

> <i_f3d_flags>
0

> <s_epik_input>
W0NIM11TKD1PKSg9TylOMVtDSDJdW0NIMl1OKFtDSDJdW0NIMl0xKUMoPU8pW05IXVtDSDJdW0NIMl1jMltjSF1bY0hdW2NIXVtjSF1uMg==

> <s_epik_cmdline>
J2VwaWtfcHl0aG9uJywgJy1waCcsICc3LjAnLCAnLXRuJywgJzgnLCAnLW1hJywgJzIwMCcsICctbWV0YWxfYmluZGluZycsICctaW1hZScsICc8aW5maWxlLm1hZT4nLCAnLW9tYWUnLCAnPG91dGZpbGUubWFlPic=

> <r_epik_Ionization_Penalty>
1.56137

> <r_epik_Ionization_Penalty_Charging>
1.56133

> <r_epik_Ionization_Penalty_Neutral>
3.86464e-05

> <r_epik_State_Penalty>
1.65637

> <r_epik_Charging_Adjusted_Penalty>
3.2177

> <i_epik_Tot_Q>
1

> <i_epik_Tot_abs_Q>
1

> <r_epik_Metal_State_Penalty>
1.69784

> <b_epik_Metal_Only>
0

> <s_lp_Force_Field>
OPLS_2005

> <r_lp_Energy>
29.4976

> <b_lp_Chiralities_Consistent>
1

> <s_lp_Variant>
AV-unprocessed.smi:2101-2

> <Gold.Version>
5.8.1

> <Gold.Id.Protein>
6NUR|6NUR_protein|mol2

> <Gold.PLP.Fitness>
42.8016

> <Gold.PLP.PLP>
-31.7670

> <Gold.PLP.part.hbond>
-3.3251

> <Gold.PLP.part.metal>
0.0000

> <Gold.PLP.part.buried>
-6.0203

> <Gold.PLP.part.nonpolar>
-22.5484

> <Gold.PLP.part.repulsive>
0.3158

> <Gold.PLP.ligand.clash>
0.0000

> <Gold.PLP.ligand.torsion>
1.5717

> <Gold.PLP.Chemscore.Hbond>
4.0000

> <Gold.PLP.Chemscore.CHOScore>
0.0000

> <Gold.PLP.Chemscore.Metal>
0.0000

> <Gold.Chemscore.Hbonds>
donor molecule, donor type, donor heavy atom, donor atom, acceptor molecule, acceptor atom, score
      L1  H    19    42       P1  8028  2.00
      P1  H  6896  6909       L1     3  1.00
      P1  H  7989  7998       L1    10  1.00

> <Gold.PLP.Chemscore.Internal.Correction>
2.1780

> <Gold.Rescore>
     Score         DG    S(hbond)    S(metal)    S(lipo)     H(rot)  DE(clash)    DE(int)     intcor
     19.06     -21.45       2.83        0.00      87.87       1.47       0.87       1.53       ----

> <Gold.Chemscore.Fitness>
19.0613

> <Gold.Chemscore.DG>
-21.4547

> <Gold.Chemscore.ZeroCoef>
-5.4800

> <Gold.Chemscore.Hbond>
2.8326

> <Gold.Chemscore.Metal>
0.0000

> <Gold.Chemscore.Lipo>
87.8662

> <Gold.Chemscore.Internal_Hbond>
0.0000

> <Gold.Chemscore.DEClash>
0.8662

> <Gold.Chemscore.DEInternal>
1.5272

> <Gold.Chemscore.Rot>
1.4714

> <Gold.Chemscore.Internal.Correction>
   9.000000E+99

> <Gold.Chemscore.Hbonds>
donor molecule, donor type, donor heavy atom, donor atom, acceptor molecule, acceptor atom, score
      L1  H    19    42       P1  8028  0.30
      P1  H  6896  6909       L1     3  0.82
      P1  H  7989  7998       L1    10  1.00

> <Gold.Chemscore.Hbond.Weighted>
-9.4610

> <Gold.Chemscore.Metal.Weighted>
-0.0000

> <Gold.Chemscore.Lipo.Weighted>
-10.2803

> <Gold.Chemscore.Internal_Hbond.Weighted>
0.0000

> <Gold.Chemscore.DEClash.Weighted>
0.8662

> <Gold.Chemscore.DEInternal.Weighted>
1.5272

> <Gold.Chemscore.Rot.Weighted>
3.7667

> <Gold.Chemscore.Internal.Correction.Weighted>
   9.000000E+99

> <Gold.Protein.RotatedTorsions>
[ 6907 6896 6895 6894 ] final    7.28 input  -60.11 | X-H torsion
[ 7974 7965 7964 7962 ] final -155.73 input  175.53 | X-H torsion
[ 8008 7997 7996 7995 ] final   46.27 input   59.86 | X-H torsion
[ 10167 10162 10161 10158 ] final  -71.78 input  -65.29 | X-H torsion
[ 10718 10713 10712 10709 ] final -136.86 input   66.30 | X-H torsion
[ 10763 10752 10751 10750 ] final   27.01 input  -60.55 | X-H torsion
[ 11005 11000 10999 10996 ] final  125.70 input  -57.11 | X-H torsion

> <Gold.Protein.ActiveResidues>
 VAL166  LYS551  ARG553  GLY616  TRP617  ASP618  TYR619  PRO620  LYS621  CYS622 
 ASP623  PHE694  ASN695  SER759  ASP760  ASP761  ALA762  ILE779  LEU786  VAL792 
 PHE793  MET794  SER795  GLU796  ALA797  LYS798  CYS799  TRP800  GLU811  SER814 

> <Gold.Protein.RotatedAtoms>
  151.6873  135.0952  160.0226 H   0  0  0  0  0  0  0  0  0  0  0  0  # atno 6907 bound_to 6896
  152.3800  133.6528  159.6162 H   0  0  0  0  0  0  0  0  0  0  0  0  # atno 6908 bound_to 6896
  150.7739  133.9047  159.3393 H   0  0  0  0  0  0  0  0  0  0  0  0  # atno 6909 bound_to 6896
  144.7626  140.4208  143.5965 H   0  0  0  0  0  0  0  0  0  0  0  0  # atno 7974 bound_to 7965
  155.3496  140.3413  155.4239 H   0  0  0  0  0  0  0  0  0  0  0  0  # atno 8008 bound_to 7997
  156.1771  140.1651  156.8379 H   0  0  0  0  0  0  0  0  0  0  0  0  # atno 8009 bound_to 7997
  154.5293  140.0749  156.8299 H   0  0  0  0  0  0  0  0  0  0  0  0  # atno 8010 bound_to 7997
  140.5246  143.2328  151.7370 H   0  0  0  0  0  0  0  0  0  0  0  0  # atno 10167 bound_to 10162
  156.2817  130.7324  151.1323 H   0  0  0  0  0  0  0  0  0  0  0  0  # atno 10718 bound_to 10713
  153.0584  135.6547  154.0521 H   0  0  0  0  0  0  0  0  0  0  0  0  # atno 10763 bound_to 10752
  154.0194  135.2921  155.3384 H   0  0  0  0  0  0  0  0  0  0  0  0  # atno 10764 bound_to 10752
  154.6911  135.5282  153.8461 H   0  0  0  0  0  0  0  0  0  0  0  0  # atno 10765 bound_to 10752
  139.9420  134.9634  156.8598 H   0  0  0  0  0  0  0  0  0  0  0  0  # atno 11005 bound_to 11000
  145.6571  139.1575  143.2829 LP  0  0  0  0  0  0  0  0  0  0  0  0  # atno 17320 bound_to 7965
  146.1703  140.6655  142.9236 LP  0  0  0  0  0  0  0  0  0  0  0  0  # atno 17321 bound_to 7965
  139.4934  144.4205  151.9983 LP  0  0  0  0  0  0  0  0  0  0  0  0  # atno 17342 bound_to 10162
  140.3303  144.3324  150.5989 LP  0  0  0  0  0  0  0  0  0  0  0  0  # atno 17343 bound_to 10162
  157.7316  131.0606  150.5669 LP  0  0  0  0  0  0  0  0  0  0  0  0  # atno 17370 bound_to 10713
  156.5775  130.4296  149.5992 LP  0  0  0  0  0  0  0  0  0  0  0  0  # atno 17371 bound_to 10713
  140.5929  134.0244  155.7507 LP  0  0  0  0  0  0  0  0  0  0  0  0  # atno 17394 bound_to 11000
  141.1057  133.9697  157.3001 LP  0  0  0  0  0  0  0  0  0  0  0  0  # atno 17395 bound_to 11000

$$$$
