AV-unprocessed.smi:290|AV-procd|sdf|2228|dock8
  -GOLD-   2262022 83D 1   1.00000     0.00000
 Structure written by MMmdl.
 59 62  0  0  0  0  0  0  0  0  2 V2000
  153.6172  138.3563  158.2862 C   0  0  0  0  0  0  0  0  0  0  0  0
  152.3876  138.6783  157.4214 C   0  0  1  0  0  0  0  0  0  0  0  0
  152.7380  139.5728  156.3747 O   0  0  0  0  0  0  0  0  0  0  0  0
  151.7153  139.4942  155.3986 C   0  0  0  0  0  0  0  0  0  0  0  0
  151.4728  137.9941  155.2917 C   0  0  0  0  0  0  0  0  0  0  0  0
  151.6869  137.4838  156.7196 C   0  0  1  0  0  0  0  0  0  0  0  0
  152.5256  136.3420  156.6590 O   0  0  0  0  0  0  0  0  0  0  0  0
  150.3537  137.0774  157.3959 C   0  0  0  0  0  0  0  0  0  0  0  0
  149.4611  136.3328  156.5209 N   0  0  0  0  0  0  0  0  0  0  0  0
  148.4141  136.8379  155.7837 C   0  0  0  0  0  0  0  0  0  0  0  0
  147.7538  135.9593  155.0807 N   0  0  0  0  0  0  0  0  0  0  0  0
  148.3985  134.7561  155.3448 C   0  0  0  0  0  0  0  0  0  0  0  0
  148.2061  133.4112  154.9152 C   0  0  0  0  0  0  0  0  0  0  0  0
  147.2032  133.0388  154.0760 N   0  0  0  0  0  0  0  0  0  0  0  0
  147.5658  132.1739  152.9553 C   0  0  0  0  0  0  0  0  0  0  0  0
  146.6990  132.6085  151.7689 C   0  0  0  0  0  0  0  0  0  0  0  0
  145.5132  133.3016  152.4483 C   0  0  2  0  0  0  0  0  0  0  0  0
  144.7118  134.2159  151.5853 N   0  3  2  0  0  0  0  0  0  0  0  0
  143.5480  134.7829  152.3068 C   0  0  0  0  0  0  0  0  0  0  0  0
  144.3495  133.6841  150.2430 C   0  0  0  0  0  0  0  0  0  0  0  0
  143.5946  132.3496  150.3457 C   0  0  0  0  0  0  0  0  0  0  0  0
  142.9567  132.0606  149.1193 O   0  0  0  0  0  0  0  0  0  0  0  0
  146.1587  133.9773  153.6663 C   0  0  1  0  0  0  0  0  0  0  0  0
  145.1512  134.2716  154.7923 C   0  0  0  0  0  0  0  0  0  0  0  0
  149.0767  132.4786  155.3859 N   0  0  0  0  0  0  0  0  0  0  0  0
  150.0603  132.8280  156.2198 C   0  0  0  0  0  0  0  0  0  0  0  0
  150.3509  134.0351  156.7067 N   0  0  0  0  0  0  0  0  0  0  0  0
  149.4845  134.9782  156.2385 C   0  0  0  0  0  0  0  0  0  0  0  0
  144.8482  132.5225  152.8272 H   0  0  0  0  0  0  0  0  0  0  0  0
  146.6385  134.9088  153.3682 H   0  0  0  0  0  0  0  0  0  0  0  0
  153.3657  137.6549  159.0820 H   0  0  0  0  0  0  0  0  0  0  0  0
  154.0079  139.2602  158.7536 H   0  0  0  0  0  0  0  0  0  0  0  0
  154.4213  137.9206  157.6928 H   0  0  0  0  0  0  0  0  0  0  0  0
  151.6620  139.2113  158.0373 H   0  0  0  0  0  0  0  0  0  0  0  0
  150.8232  140.0128  155.7536 H   0  0  0  0  0  0  0  0  0  0  0  0
  152.0232  139.9406  154.4530 H   0  0  0  0  0  0  0  0  0  0  0  0
  150.4872  137.7606  154.8873 H   0  0  0  0  0  0  0  0  0  0  0  0
  152.2124  137.5699  154.6101 H   0  0  0  0  0  0  0  0  0  0  0  0
  152.3051  135.7674  157.3758 H   0  0  0  0  0  0  0  0  0  0  0  0
  150.5506  136.4680  158.2792 H   0  0  0  0  0  0  0  0  0  0  0  0
  149.8238  137.9624  157.7509 H   0  0  0  0  0  0  0  0  0  0  0  0
  148.1477  137.8848  155.7880 H   0  0  0  0  0  0  0  0  0  0  0  0
  148.6265  132.2350  152.7059 H   0  0  0  0  0  0  0  0  0  0  0  0
  147.3438  131.1421  153.2293 H   0  0  0  0  0  0  0  0  0  0  0  0
  147.2717  133.3000  151.1513 H   0  0  0  0  0  0  0  0  0  0  0  0
  146.3996  131.7698  151.1399 H   0  0  0  0  0  0  0  0  0  0  0  0
  142.8353  134.0022  152.5752 H   0  0  0  0  0  0  0  0  0  0  0  0
  143.0271  135.5223  151.6991 H   0  0  0  0  0  0  0  0  0  0  0  0
  143.8659  135.2823  153.2224 H   0  0  0  0  0  0  0  0  0  0  0  0
  143.7276  134.3832  149.6855 H   0  0  0  0  0  0  0  0  0  0  0  0
  145.2552  133.5569  149.6482 H   0  0  0  0  0  0  0  0  0  0  0  0
  144.2925  131.5417  150.5671 H   0  0  0  0  0  0  0  0  0  0  0  0
  142.8572  132.3609  151.1480 H   0  0  0  0  0  0  0  0  0  0  0  0
  142.2254  132.6503  149.0103 H   0  0  0  0  0  0  0  0  0  0  0  0
  144.3657  134.9430  154.4452 H   0  0  0  0  0  0  0  0  0  0  0  0
  145.6283  134.7470  155.6488 H   0  0  0  0  0  0  0  0  0  0  0  0
  144.6740  133.3573  155.1465 H   0  0  0  0  0  0  0  0  0  0  0  0
  150.7059  132.0252  156.5447 H   0  0  0  0  0  0  0  0  0  0  0  0
  145.3260  134.9975  151.4038 H   0  0  0  0  0  0  0  0  0  0  0  0
  1  2  1  0  0  0  0
  1 31  1  0  0  0  0
  1 32  1  0  0  0  0
  1 33  1  0  0  0  0
  2  6  1  0  0  0  0
  2  3  1  0  0  0  0
  2 34  1  0  0  0  0
  3  4  1  0  0  0  0
  4  5  1  0  0  0  0
  4 35  1  0  0  0  0
  4 36  1  0  0  0  0
  5  6  1  0  0  0  0
  5 37  1  0  0  0  0
  5 38  1  0  0  0  0
  6  7  1  0  0  0  0
  6  8  1  0  0  0  0
  7 39  1  0  0  0  0
  8  9  1  0  0  0  0
  8 40  1  0  0  0  0
  8 41  1  0  0  0  0
  9 28  1  0  0  0  0
  9 10  1  0  0  0  0
 10 11  2  0  0  0  0
 10 42  1  0  0  0  0
 11 12  1  0  0  0  0
 12 28  2  0  0  0  0
 12 13  1  0  0  0  0
 13 14  1  0  0  0  0
 13 25  2  0  0  0  0
 14 23  1  0  0  0  0
 14 15  1  0  0  0  0
 15 16  1  0  0  0  0
 15 43  1  0  0  0  0
 15 44  1  0  0  0  0
 16 17  1  0  0  0  0
 16 45  1  0  0  0  0
 16 46  1  0  0  0  0
 17 29  1  0  0  0  0
 17 18  1  0  0  0  0
 17 23  1  0  0  0  0
 18 19  1  0  0  0  0
 18 20  1  0  0  0  0
 18 59  1  0  0  0  0
 19 47  1  0  0  0  0
 19 48  1  0  0  0  0
 19 49  1  0  0  0  0
 20 21  1  0  0  0  0
 20 50  1  0  0  0  0
 20 51  1  0  0  0  0
 21 22  1  0  0  0  0
 21 52  1  0  0  0  0
 21 53  1  0  0  0  0
 22 54  1  0  0  0  0
 23 30  1  0  0  0  0
 23 24  1  0  0  0  0
 24 55  1  0  0  0  0
 24 56  1  0  0  0  0
 24 57  1  0  0  0  0
 25 26  1  0  0  0  0
 26 27  2  0  0  0  0
 26 58  1  0  0  0  0
 27 28  1  0  0  0  0
M  CHG  1  18   1
M  END
> <s_m_source_file>
AV-unprocessed.smi

> <i_m_source_file_index>
290

> <i_lp_mmshare_version>
43012

> <i_f3d_flags>
0

> <s_epik_input>
W0NIMl0xW0NIMl1PW0NAQEhdKFtDSDNdKVtDQEBdMShbT0hdKVtDSDJdbihbY0hdbjIpYyhjMjMpbltjSF1uYzNONFtDSDJdW0NIMl1bQ0BIXShbQ0BIXTRbQ0gzXSlOKFtDSDNdKVtDSDJdW0NIMl1bT0hd

> <s_epik_cmdline>
J2VwaWtfcHl0aG9uJywgJy1waCcsICc3LjAnLCAnLXRuJywgJzgnLCAnLW1hJywgJzIwMCcsICctbWV0YWxfYmluZGluZycsICctaW1hZScsICc8aW5maWxlLm1hZT4nLCAnLW9tYWUnLCAnPG91dGZpbGUubWFlPic=

> <r_lp_tautomer_probability>
1

> <r_epik_Ionization_Penalty>
0.0036983

> <r_epik_Ionization_Penalty_Charging>
0.0032725

> <r_epik_Ionization_Penalty_Neutral>
0.000425798

> <r_epik_State_Penalty>
-0

> <r_epik_Charging_Adjusted_Penalty>
0.0032725

> <i_epik_Tot_Q>
1

> <i_epik_Tot_abs_Q>
1

> <r_epik_Metal_State_Penalty>
-0

> <b_epik_Metal_Only>
0

> <s_lp_Force_Field>
OPLS_2005

> <r_lp_Energy>
60.2599

> <b_lp_Chiralities_Consistent>
1

> <s_lp_Variant>
AV-unprocessed.smi:290-14

> <Gold.Version>
5.8.1

> <Gold.Id.Protein>
6NUR|6NUR_protein|mol2

> <Gold.PLP.Fitness>
44.9325

> <Gold.PLP.PLP>
-34.7846

> <Gold.PLP.part.hbond>
-4.9833

> <Gold.PLP.part.metal>
0.0000

> <Gold.PLP.part.buried>
-6.1475

> <Gold.PLP.part.nonpolar>
-24.7074

> <Gold.PLP.part.repulsive>
0.1614

> <Gold.PLP.ligand.clash>
0.0000

> <Gold.PLP.ligand.torsion>
0.9820

> <Gold.PLP.Chemscore.Hbond>
3.8363

> <Gold.PLP.Chemscore.CHOScore>
0.0000

> <Gold.PLP.Chemscore.Metal>
0.0000

> <Gold.Chemscore.Hbonds>
donor molecule, donor type, donor heavy atom, donor atom, acceptor molecule, acceptor atom, score
      L1  H    22    54       P1 10186  0.57
      P1  H  7997  8008       L1     3  1.00
      P1  H 10752 10764       L1     7  1.00
      P1  H 10785 10796       L1    22  1.00

> <Gold.PLP.Chemscore.Internal.Correction>
0.6031

> <Gold.Rescore>
     Score         DG    S(hbond)    S(metal)    S(lipo)     H(rot)  DE(clash)    DE(int)     intcor
     13.64     -16.92       3.64        0.00      74.12       3.67       0.03       3.25       ----

> <Gold.Chemscore.Fitness>
13.6384

> <Gold.Chemscore.DG>
-16.9185

> <Gold.Chemscore.ZeroCoef>
-5.4800

> <Gold.Chemscore.Hbond>
3.6380

> <Gold.Chemscore.Metal>
0.0000

> <Gold.Chemscore.Lipo>
74.1190

> <Gold.Chemscore.Internal_Hbond>
0.0000

> <Gold.Chemscore.DEClash>
0.0324

> <Gold.Chemscore.DEInternal>
3.2477

> <Gold.Chemscore.Rot>
3.6658

> <Gold.Chemscore.Internal.Correction>
   9.000000E+99

> <Gold.Chemscore.Hbonds>
donor molecule, donor type, donor heavy atom, donor atom, acceptor molecule, acceptor atom, score
      L1  H    22    54       P1 10186  0.57
      P1  H  7997  8008       L1     3  0.88
      P1  H 10752 10764       L1     7  0.90
      P1  H 10785 10796       L1    22  0.68

> <Gold.Chemscore.Hbond.Weighted>
-12.1510

> <Gold.Chemscore.Metal.Weighted>
-0.0000

> <Gold.Chemscore.Lipo.Weighted>
-8.6719

> <Gold.Chemscore.Internal_Hbond.Weighted>
0.0000

> <Gold.Chemscore.DEClash.Weighted>
0.0324

> <Gold.Chemscore.DEInternal.Weighted>
3.2477

> <Gold.Chemscore.Rot.Weighted>
9.3844

> <Gold.Chemscore.Internal.Correction.Weighted>
   9.000000E+99

> <Gold.Protein.RotatedTorsions>
[ 6907 6896 6895 6894 ] final  147.21 input  -60.11 | X-H torsion
[ 7974 7965 7964 7962 ] final  151.60 input  175.53 | X-H torsion
[ 8008 7997 7996 7995 ] final  -48.07 input   59.86 | X-H torsion
[ 10167 10162 10161 10158 ] final   55.95 input  -65.29 | X-H torsion
[ 10718 10713 10712 10709 ] final -109.38 input   66.30 | X-H torsion
[ 10763 10752 10751 10750 ] final  -30.75 input  -60.55 | X-H torsion
[ 11005 11000 10999 10996 ] final -137.22 input  -57.11 | X-H torsion

> <Gold.Protein.ActiveResidues>
 VAL166  LYS551  ARG553  GLY616  TRP617  ASP618  TYR619  PRO620  LYS621  CYS622 
 ASP623  PHE694  ASN695  SER759  ASP760  ASP761  ALA762  ILE779  LEU786  VAL792 
 PHE793  MET794  SER795  GLU796  ALA797  LYS798  CYS799  TRP800  GLU811  SER814 

> <Gold.Protein.RotatedAtoms>
  152.1578  133.4562  159.4845 H   0  0  0  0  0  0  0  0  0  0  0  0  # atno 6907 bound_to 6896
  150.6903  134.2110  159.4368 H   0  0  0  0  0  0  0  0  0  0  0  0  # atno 6908 bound_to 6896
  152.0010  134.9928  160.0615 H   0  0  0  0  0  0  0  0  0  0  0  0  # atno 6909 bound_to 6896
  144.8281  139.6558  143.6071 H   0  0  0  0  0  0  0  0  0  0  0  0  # atno 7974 bound_to 7965
  154.4024  140.1330  156.4278 H   0  0  0  0  0  0  0  0  0  0  0  0  # atno 8008 bound_to 7997
  155.7580  140.3486  155.5163 H   0  0  0  0  0  0  0  0  0  0  0  0  # atno 8009 bound_to 7997
  155.8886  140.0999  157.1425 H   0  0  0  0  0  0  0  0  0  0  0  0  # atno 8010 bound_to 7997
  140.2139  144.3859  150.6477 H   0  0  0  0  0  0  0  0  0  0  0  0  # atno 10167 bound_to 10162
  156.0534  130.5761  150.8092 H   0  0  0  0  0  0  0  0  0  0  0  0  # atno 10718 bound_to 10713
  153.7860  135.6901  153.4880 H   0  0  0  0  0  0  0  0  0  0  0  0  # atno 10763 bound_to 10752
  153.1780  135.4517  154.9989 H   0  0  0  0  0  0  0  0  0  0  0  0  # atno 10764 bound_to 10752
  154.8063  135.3358  154.7360 H   0  0  0  0  0  0  0  0  0  0  0  0  # atno 10765 bound_to 10752
  140.8731  134.2026  157.4638 H   0  0  0  0  0  0  0  0  0  0  0  0  # atno 11005 bound_to 11000
  146.2585  139.6357  142.9378 LP  0  0  0  0  0  0  0  0  0  0  0  0  # atno 17320 bound_to 7965
  145.4955  141.0438  143.2569 LP  0  0  0  0  0  0  0  0  0  0  0  0  # atno 17321 bound_to 7965
  140.6303  143.2186  151.6509 LP  0  0  0  0  0  0  0  0  0  0  0  0  # atno 17342 bound_to 10162
  139.5169  144.3331  152.0808 LP  0  0  0  0  0  0  0  0  0  0  0  0  # atno 17343 bound_to 10162
  157.5482  131.0943  150.9733 LP  0  0  0  0  0  0  0  0  0  0  0  0  # atno 17370 bound_to 10713
  156.9999  130.5596  149.5310 LP  0  0  0  0  0  0  0  0  0  0  0  0  # atno 17371 bound_to 10713
  139.8713  134.9783  156.4993 LP  0  0  0  0  0  0  0  0  0  0  0  0  # atno 17394 bound_to 11000
  140.8550  133.8103  155.9206 LP  0  0  0  0  0  0  0  0  0  0  0  0  # atno 17395 bound_to 11000

$$$$
