AV-unprocessed.smi:1362|AV-procd|sdf|5561|dock9
  -GOLD-   22720 5153D 1   1.00000     0.00000
 Structure written by MMmdl.
 39 39  0  0  0  0  0  0  0  0  1 V2000
  147.9819  141.9640  153.3348 C   0  0  0  0  0  0  0  0  0  0  0  0
  149.1568  141.3863  154.0940 C   0  0  0  0  0  0  0  0  0  0  0  0
  149.6656  142.2359  155.0622 N   0  0  0  0  0  0  0  0  0  0  0  0
  150.7397  141.7922  155.8131 C   0  0  0  0  0  0  0  0  0  0  0  0
  151.2340  142.7818  156.8543 C   0  0  0  0  0  0  0  0  0  0  0  0
  151.2784  140.5630  155.6108 C   0  0  0  0  0  0  0  0  0  0  0  0
  152.4596  140.0359  156.4244 C   0  0  0  0  0  0  0  0  0  0  0  0
  152.2841  140.0550  157.9450 C   0  0  0  0  0  0  0  0  0  0  0  0
  151.5801  139.2125  158.5021 O   0  0  0  0  0  0  0  0  0  0  0  0
  152.9299  141.0302  158.6029 N   0  0  0  0  0  0  0  0  0  0  0  0
  152.8784  141.2639  160.0457 C   0  0  1  0  0  0  0  0  0  0  0  0
  154.2964  141.1020  160.6261 C   0  0  0  0  0  0  0  0  0  0  0  0
  152.2495  142.6517  160.3400 C   0  0  0  0  0  0  0  0  0  0  0  0
  152.9228  143.7826  159.5412 C   0  0  0  0  0  0  0  0  0  0  0  0
  152.2761  142.9989  161.8417 C   0  0  0  0  0  0  0  0  0  0  0  0
  150.6886  139.6972  154.5623 C   0  0  0  0  0  0  0  0  0  0  0  0
  151.1244  138.5688  154.3378 O   0  0  0  0  0  0  0  0  0  0  0  0
  149.6026  140.1969  153.8251 N   0  0  0  0  0  0  0  0  0  0  0  0
  149.2920  143.1552  155.2492 H   0  0  0  0  0  0  0  0  0  0  0  0
  147.7294  141.3421  152.4752 H   0  0  0  0  0  0  0  0  0  0  0  0
  148.2142  142.9659  152.9722 H   0  0  0  0  0  0  0  0  0  0  0  0
  147.1067  142.0234  153.9823 H   0  0  0  0  0  0  0  0  0  0  0  0
  152.2664  143.0664  156.6500 H   0  0  0  0  0  0  0  0  0  0  0  0
  151.1874  142.3427  157.8511 H   0  0  0  0  0  0  0  0  0  0  0  0
  150.6314  143.6909  156.8620 H   0  0  0  0  0  0  0  0  0  0  0  0
  153.3383  140.6296  156.1694 H   0  0  0  0  0  0  0  0  0  0  0  0
  152.7151  139.0195  156.1236 H   0  0  0  0  0  0  0  0  0  0  0  0
  153.4884  141.6732  158.0608 H   0  0  0  0  0  0  0  0  0  0  0  0
  152.2366  140.5059  160.4990 H   0  0  0  0  0  0  0  0  0  0  0  0
  154.2931  141.1359  161.7150 H   0  0  0  0  0  0  0  0  0  0  0  0
  154.9648  141.8852  160.2667 H   0  0  0  0  0  0  0  0  0  0  0  0
  154.7309  140.1422  160.3446 H   0  0  0  0  0  0  0  0  0  0  0  0
  151.2023  142.6189  160.0357 H   0  0  0  0  0  0  0  0  0  0  0  0
  153.9922  143.8321  159.7493 H   0  0  0  0  0  0  0  0  0  0  0  0
  152.4917  144.7518  159.7938 H   0  0  0  0  0  0  0  0  0  0  0  0
  152.7947  143.6536  158.4670 H   0  0  0  0  0  0  0  0  0  0  0  0
  153.2965  143.0070  162.2262 H   0  0  0  0  0  0  0  0  0  0  0  0
  151.7021  142.2884  162.4369 H   0  0  0  0  0  0  0  0  0  0  0  0
  151.8461  143.9841  162.0243 H   0  0  0  0  0  0  0  0  0  0  0  0
  1 20  1  0  0  0  0
  1 21  1  0  0  0  0
  1 22  1  0  0  0  0
  1  2  1  0  0  0  0
  2  3  1  0  0  0  0
  2 18  2  0  0  0  0
  3  4  1  0  0  0  0
  3 19  1  0  0  0  0
  4  6  2  0  0  0  0
  4  5  1  0  0  0  0
  5 23  1  0  0  0  0
  5 24  1  0  0  0  0
  5 25  1  0  0  0  0
  6 16  1  0  0  0  0
  6  7  1  0  0  0  0
  7  8  1  0  0  0  0
  7 26  1  0  0  0  0
  7 27  1  0  0  0  0
  8  9  2  0  0  0  0
  8 10  1  0  0  0  0
 10 11  1  0  0  0  0
 10 28  1  0  0  0  0
 11 12  1  0  0  0  0
 11 13  1  0  0  0  0
 11 29  1  0  0  0  0
 12 30  1  0  0  0  0
 12 31  1  0  0  0  0
 12 32  1  0  0  0  0
 13 14  1  0  0  0  0
 13 15  1  0  0  0  0
 13 33  1  0  0  0  0
 14 34  1  0  0  0  0
 14 35  1  0  0  0  0
 14 36  1  0  0  0  0
 15 37  1  0  0  0  0
 15 38  1  0  0  0  0
 15 39  1  0  0  0  0
 16 17  2  0  0  0  0
 16 18  1  0  0  0  0
M  END
> <s_m_source_file>
AV-unprocessed.smi

> <i_m_source_file_index>
1362

> <i_lp_mmshare_version>
43012

> <i_f3d_flags>
0

> <s_epik_input>
W0NIM11jMW5jKFtDSDNdKWMoYyg9TylbbkhdMSlbQ0gyXUMoPU8pW05IXVtDQEhdKFtDSDNdKVtDSF0oW0NIM10pW0NIM10=

> <s_epik_cmdline>
J2VwaWtfcHl0aG9uJywgJy1waCcsICc3LjAnLCAnLXRuJywgJzgnLCAnLW1hJywgJzIwMCcsICctbWV0YWxfYmluZGluZycsICctaW1hZScsICc8aW5maWxlLm1hZT4nLCAnLW9tYWUnLCAnPG91dGZpbGUubWFlPic=

> <r_lp_tautomer_probability>
0.156392

> <r_epik_Ionization_Penalty>
0.0140737

> <r_epik_Ionization_Penalty_Charging>
0.0139511

> <r_epik_Ionization_Penalty_Neutral>
0.000122633

> <r_epik_State_Penalty>
1.53034

> <r_epik_Charging_Adjusted_Penalty>
1.54429

> <i_epik_Tot_Q>
0

> <i_epik_Tot_abs_Q>
0

> <r_epik_Metal_State_Penalty>
1.70655

> <b_epik_Metal_Only>
0

> <s_lp_Force_Field>
OPLS_2005

> <r_lp_Energy>
10.7391

> <b_lp_Chiralities_Consistent>
1

> <s_lp_Variant>
AV-unprocessed.smi:1362-4

> <Gold.Version>
5.8.1

> <Gold.Id.Protein>
6NUR|6NUR_protein|mol2

> <Gold.PLP.Fitness>
43.6256

> <Gold.PLP.PLP>
-41.2203

> <Gold.PLP.part.hbond>
-1.0000

> <Gold.PLP.part.metal>
0.0000

> <Gold.PLP.part.buried>
-5.0789

> <Gold.PLP.part.nonpolar>
-35.8476

> <Gold.PLP.part.repulsive>
0.8128

> <Gold.PLP.ligand.clash>
0.0000

> <Gold.PLP.ligand.torsion>
0.3093

> <Gold.PLP.Chemscore.Hbond>
1.0000

> <Gold.PLP.Chemscore.CHOScore>
0.0000

> <Gold.PLP.Chemscore.Metal>
0.0000

> <Gold.Chemscore.Hbonds>
donor molecule, donor type, donor heavy atom, donor atom, acceptor molecule, acceptor atom, score
      L1  H     3    19       P1  8028  1.00

> <Gold.PLP.Chemscore.Internal.Correction>
0.0239

> <Gold.Rescore>
     Score         DG    S(hbond)    S(metal)    S(lipo)     H(rot)  DE(clash)    DE(int)     intcor
     15.00     -15.49       1.00        0.00      94.14       1.69       0.29       0.20       ----

> <Gold.Chemscore.Fitness>
15.0004

> <Gold.Chemscore.DG>
-15.4893

> <Gold.Chemscore.ZeroCoef>
-5.4800

> <Gold.Chemscore.Hbond>
0.9957

> <Gold.Chemscore.Metal>
0.0000

> <Gold.Chemscore.Lipo>
94.1392

> <Gold.Chemscore.Internal_Hbond>
0.0000

> <Gold.Chemscore.DEClash>
0.2885

> <Gold.Chemscore.DEInternal>
0.2003

> <Gold.Chemscore.Rot>
1.6916

> <Gold.Chemscore.Internal.Correction>
   9.000000E+99

> <Gold.Chemscore.Hbonds>
donor molecule, donor type, donor heavy atom, donor atom, acceptor molecule, acceptor atom, score
      L1  H     3    19       P1  8028  1.00

> <Gold.Chemscore.Hbond.Weighted>
-3.3255

> <Gold.Chemscore.Metal.Weighted>
-0.0000

> <Gold.Chemscore.Lipo.Weighted>
-11.0143

> <Gold.Chemscore.Internal_Hbond.Weighted>
0.0000

> <Gold.Chemscore.DEClash.Weighted>
0.2885

> <Gold.Chemscore.DEInternal.Weighted>
0.2003

> <Gold.Chemscore.Rot.Weighted>
4.3305

> <Gold.Chemscore.Internal.Correction.Weighted>
   9.000000E+99

> <Gold.Protein.RotatedTorsions>
[ 6907 6896 6895 6894 ] final -117.93 input  -60.11 | X-H torsion
[ 7974 7965 7964 7962 ] final   87.46 input  175.53 | X-H torsion
[ 8008 7997 7996 7995 ] final -153.75 input   59.86 | X-H torsion
[ 10167 10162 10161 10158 ] final  -62.64 input  -65.29 | X-H torsion
[ 10718 10713 10712 10709 ] final  -66.52 input   66.30 | X-H torsion
[ 10763 10752 10751 10750 ] final  118.53 input  -60.55 | X-H torsion
[ 11005 11000 10999 10996 ] final   84.72 input  -57.11 | X-H torsion

> <Gold.Protein.ActiveResidues>
 VAL166  LYS551  ARG553  GLY616  TRP617  ASP618  TYR619  PRO620  LYS621  CYS622 
 ASP623  PHE694  ASN695  SER759  ASP760  ASP761  ALA762  ILE779  LEU786  VAL792 
 PHE793  MET794  SER795  GLU796  ALA797  LYS798  CYS799  TRP800  GLU811  SER814 

> <Gold.Protein.RotatedAtoms>
  150.8177  133.8307  159.3152 H   0  0  0  0  0  0  0  0  0  0  0  0  # atno 6907 bound_to 6896
  151.6074  135.1041  160.0083 H   0  0  0  0  0  0  0  0  0  0  0  0  # atno 6908 bound_to 6896
  152.4268  133.7168  159.6567 H   0  0  0  0  0  0  0  0  0  0  0  0  # atno 6909 bound_to 6896
  145.5587  139.2302  143.2471 H   0  0  0  0  0  0  0  0  0  0  0  0  # atno 7974 bound_to 7965
  155.6757  140.0738  157.2503 H   0  0  0  0  0  0  0  0  0  0  0  0  # atno 8008 bound_to 7997
  154.4115  140.1691  156.1979 H   0  0  0  0  0  0  0  0  0  0  0  0  # atno 8009 bound_to 7997
  155.9578  140.3372  155.6467 H   0  0  0  0  0  0  0  0  0  0  0  0  # atno 8010 bound_to 7997
  140.5925  143.2344  151.6108 H   0  0  0  0  0  0  0  0  0  0  0  0  # atno 10167 bound_to 10162
  156.0608  130.4263  150.1721 H   0  0  0  0  0  0  0  0  0  0  0  0  # atno 10718 bound_to 10713
  153.5691  135.3506  155.2830 H   0  0  0  0  0  0  0  0  0  0  0  0  # atno 10763 bound_to 10752
  154.8684  135.4155  154.2745 H   0  0  0  0  0  0  0  0  0  0  0  0  # atno 10764 bound_to 10752
  153.3507  135.7055  153.6861 H   0  0  0  0  0  0  0  0  0  0  0  0  # atno 10765 bound_to 10752
  139.8992  134.8236  156.2483 H   0  0  0  0  0  0  0  0  0  0  0  0  # atno 11005 bound_to 11000
  146.1866  140.6412  142.9165 LP  0  0  0  0  0  0  0  0  0  0  0  0  # atno 17320 bound_to 7965
  144.7493  140.5150  143.6813 LP  0  0  0  0  0  0  0  0  0  0  0  0  # atno 17321 bound_to 7965
  139.5237  144.3126  152.0979 LP  0  0  0  0  0  0  0  0  0  0  0  0  # atno 17342 bound_to 10162
  140.2293  144.4385  150.6307 LP  0  0  0  0  0  0  0  0  0  0  0  0  # atno 17343 bound_to 10162
  156.9789  130.9858  151.3442 LP  0  0  0  0  0  0  0  0  0  0  0  0  # atno 17370 bound_to 10713
  157.5614  130.8248  149.8271 LP  0  0  0  0  0  0  0  0  0  0  0  0  # atno 17371 bound_to 10713
  141.0240  133.7025  156.1316 LP  0  0  0  0  0  0  0  0  0  0  0  0  # atno 17394 bound_to 11000
  140.7193  134.4376  157.5576 LP  0  0  0  0  0  0  0  0  0  0  0  0  # atno 17395 bound_to 11000

$$$$
