AV-unprocessed.smi:1687|AV-procd|sdf|6769|dock6
  -GOLD-   22720 7533D 1   1.00000     0.00000
 Structure written by MMmdl.
 45 46  0  0  0  0  0  0  0  0  2 V2000
  146.5688  136.2039  154.0380 C   0  0  0  0  0  0  0  0  0  0  0  0
  145.4611  137.1469  153.5361 C   0  0  2  0  0  0  0  0  0  0  0  0
  145.8345  137.8610  152.2235 C   0  0  0  0  0  0  0  0  0  0  0  0
  146.8763  138.9722  152.4433 C   0  0  0  0  0  0  0  0  0  0  0  0
  146.3987  139.9552  153.4544 N   0  3  2  0  0  0  0  0  0  0  0  0
  147.2273  141.1900  153.5854 C   0  0  1  0  0  0  0  0  0  0  0  0
  146.5149  142.3164  154.3661 C   0  0  0  0  0  0  0  0  0  0  0  0
  148.6241  140.8515  154.1585 C   0  0  0  0  0  0  0  0  0  0  0  0
  149.1226  141.8714  155.0764 N   0  0  0  0  0  0  0  0  0  0  0  0
  150.0781  141.6750  155.9964 C   0  0  0  0  0  0  0  0  0  0  0  0
  150.6452  140.5942  156.1603 O   0  0  0  0  0  0  0  0  0  0  0  0
  150.3232  142.7986  156.6932 N   0  0  0  0  0  0  0  0  0  0  0  0
  151.2701  142.9975  157.7333 C   0  0  0  0  0  0  0  0  0  0  0  0
  151.5493  144.3491  158.0375 C   0  0  0  0  0  0  0  0  0  0  0  0
  152.4767  144.6536  159.0527 C   0  0  0  0  0  0  0  0  0  0  0  0
  153.1021  143.5970  159.7383 C   0  0  0  0  0  0  0  0  0  0  0  0
  152.7676  142.2797  159.3737 C   0  0  0  0  0  0  0  0  0  0  0  0
  151.8792  141.9856  158.4007 N   0  0  0  0  0  0  0  0  0  0  0  0
  146.0979  139.3042  154.7568 C   0  0  0  0  0  0  0  0  0  0  0  0
  145.0468  138.1913  154.5894 C   0  0  0  0  0  0  0  0  0  0  0  0
  147.4867  136.7378  154.2822 H   0  0  0  0  0  0  0  0  0  0  0  0
  146.8142  135.4546  153.2850 H   0  0  0  0  0  0  0  0  0  0  0  0
  146.2502  135.6717  154.9345 H   0  0  0  0  0  0  0  0  0  0  0  0
  144.5917  136.5200  153.3338 H   0  0  0  0  0  0  0  0  0  0  0  0
  146.2033  137.1401  151.4928 H   0  0  0  0  0  0  0  0  0  0  0  0
  144.9362  138.2998  151.7870 H   0  0  0  0  0  0  0  0  0  0  0  0
  147.8221  138.5332  152.7618 H   0  0  0  0  0  0  0  0  0  0  0  0
  147.0662  139.4681  151.4923 H   0  0  0  0  0  0  0  0  0  0  0  0
  147.3934  141.5612  152.5732 H   0  0  0  0  0  0  0  0  0  0  0  0
  147.0793  143.2476  154.3146 H   0  0  0  0  0  0  0  0  0  0  0  0
  146.3984  142.0693  155.4214 H   0  0  0  0  0  0  0  0  0  0  0  0
  145.5258  142.5250  153.9587 H   0  0  0  0  0  0  0  0  0  0  0  0
  148.5977  139.9126  154.7103 H   0  0  0  0  0  0  0  0  0  0  0  0
  149.3421  140.7110  153.3485 H   0  0  0  0  0  0  0  0  0  0  0  0
  148.7069  142.7892  155.0090 H   0  0  0  0  0  0  0  0  0  0  0  0
  149.7711  143.6078  156.4503 H   0  0  0  0  0  0  0  0  0  0  0  0
  151.0596  145.1490  157.5012 H   0  0  0  0  0  0  0  0  0  0  0  0
  152.7036  145.6801  159.3003 H   0  0  0  0  0  0  0  0  0  0  0  0
  153.8188  143.7903  160.5226 H   0  0  0  0  0  0  0  0  0  0  0  0
  153.2251  141.4404  159.8762 H   0  0  0  0  0  0  0  0  0  0  0  0
  147.0120  138.9011  155.1933 H   0  0  0  0  0  0  0  0  0  0  0  0
  145.7144  140.0439  155.4605 H   0  0  0  0  0  0  0  0  0  0  0  0
  144.1003  138.6432  154.2896 H   0  0  0  0  0  0  0  0  0  0  0  0
  144.8584  137.7074  155.5483 H   0  0  0  0  0  0  0  0  0  0  0  0
  145.5040  140.2815  153.1177 H   0  0  0  0  0  0  0  0  0  0  0  0
  1  2  1  0  0  0  0
  1 21  1  0  0  0  0
  1 22  1  0  0  0  0
  1 23  1  0  0  0  0
  2 20  1  0  0  0  0
  2  3  1  0  0  0  0
  2 24  1  0  0  0  0
  3  4  1  0  0  0  0
  3 25  1  0  0  0  0
  3 26  1  0  0  0  0
  4  5  1  0  0  0  0
  4 27  1  0  0  0  0
  4 28  1  0  0  0  0
  5  6  1  0  0  0  0
  5 19  1  0  0  0  0
  5 45  1  0  0  0  0
  6  7  1  0  0  0  0
  6  8  1  0  0  0  0
  6 29  1  0  0  0  0
  7 30  1  0  0  0  0
  7 31  1  0  0  0  0
  7 32  1  0  0  0  0
  8  9  1  0  0  0  0
  8 33  1  0  0  0  0
  8 34  1  0  0  0  0
  9 10  1  0  0  0  0
  9 35  1  0  0  0  0
 10 11  2  0  0  0  0
 10 12  1  0  0  0  0
 12 13  1  0  0  0  0
 12 36  1  0  0  0  0
 13 18  1  0  0  0  0
 13 14  2  0  0  0  0
 14 15  1  0  0  0  0
 14 37  1  0  0  0  0
 15 16  2  0  0  0  0
 15 38  1  0  0  0  0
 16 17  1  0  0  0  0
 16 39  1  0  0  0  0
 17 18  2  0  0  0  0
 17 40  1  0  0  0  0
 19 20  1  0  0  0  0
 19 41  1  0  0  0  0
 19 42  1  0  0  0  0
 20 43  1  0  0  0  0
 20 44  1  0  0  0  0
M  CHG  1   5   1
M  END
> <s_m_source_file>
AV-unprocessed.smi

> <i_m_source_file_index>
1687

> <i_lp_mmshare_version>
43012

> <i_f3d_flags>
0

> <s_epik_input>
W0NIM11bQ0hdMVtDSDJdW0NIMl1OKFtDSDJdW0NIMl0xKVtDQEhdKFtDSDNdKVtDSDJdW05IXUMoPU8pW05IXWMyW2NIXVtjSF1bY0hdW2NIXW4y

> <s_epik_cmdline>
J2VwaWtfcHl0aG9uJywgJy1waCcsICc3LjAnLCAnLXRuJywgJzgnLCAnLW1hJywgJzIwMCcsICctbWV0YWxfYmluZGluZycsICctaW1hZScsICc8aW5maWxlLm1hZT4nLCAnLW9tYWUnLCAnPG91dGZpbGUubWFlPic=

> <r_epik_Ionization_Penalty>
0.00142891

> <r_epik_Ionization_Penalty_Charging>
0.00139388

> <r_epik_Ionization_Penalty_Neutral>
3.50347e-05

> <r_epik_State_Penalty>
0.000929204

> <r_epik_Charging_Adjusted_Penalty>
0.00232308

> <i_epik_Tot_Q>
1

> <i_epik_Tot_abs_Q>
1

> <r_epik_Metal_State_Penalty>
-0

> <b_epik_Metal_Only>
0

> <s_lp_Force_Field>
OPLS_2005

> <r_lp_Energy>
23.2941

> <b_lp_Chiralities_Consistent>
1

> <s_lp_Variant>
AV-unprocessed.smi:1687-4

> <Gold.Version>
5.8.1

> <Gold.Id.Protein>
6NUR|6NUR_protein|mol2

> <Gold.PLP.Fitness>
51.9313

> <Gold.PLP.PLP>
-42.4378

> <Gold.PLP.part.hbond>
-3.0000

> <Gold.PLP.part.metal>
0.0000

> <Gold.PLP.part.buried>
-4.3507

> <Gold.PLP.part.nonpolar>
-35.2143

> <Gold.PLP.part.repulsive>
0.2882

> <Gold.PLP.ligand.clash>
0.3957

> <Gold.PLP.ligand.torsion>
0.8504

> <Gold.PLP.Chemscore.Hbond>
3.8284

> <Gold.PLP.Chemscore.CHOScore>
0.0000

> <Gold.PLP.Chemscore.Metal>
0.0000

> <Gold.Chemscore.Hbonds>
donor molecule, donor type, donor heavy atom, donor atom, acceptor molecule, acceptor atom, score
      L1  H     5    45       P1 10175  2.00
      L1  H     9    35       P1  8028  0.88
      L1  H    12    36       P1  8028  1.00

> <Gold.PLP.Chemscore.Internal.Correction>
0.1048

> <Gold.Rescore>
     Score         DG    S(hbond)    S(metal)    S(lipo)     H(rot)  DE(clash)    DE(int)     intcor
     20.20     -22.35       2.76        0.00      98.08       1.50       0.09       2.06       ----

> <Gold.Chemscore.Fitness>
20.1969

> <Gold.Chemscore.DG>
-22.3501

> <Gold.Chemscore.ZeroCoef>
-5.4800

> <Gold.Chemscore.Hbond>
2.7615

> <Gold.Chemscore.Metal>
0.0000

> <Gold.Chemscore.Lipo>
98.0826

> <Gold.Chemscore.Internal_Hbond>
0.0000

> <Gold.Chemscore.DEClash>
0.0934

> <Gold.Chemscore.DEInternal>
2.0598

> <Gold.Chemscore.Rot>
1.4956

> <Gold.Chemscore.Internal.Correction>
   9.000000E+99

> <Gold.Chemscore.Hbonds>
donor molecule, donor type, donor heavy atom, donor atom, acceptor molecule, acceptor atom, score
      L1  H     5    45       P1 10175  0.97
      L1  H     9    35       P1  8028  0.81
      L1  H    12    36       P1  8028  0.99

> <Gold.Chemscore.Hbond.Weighted>
-9.2233

> <Gold.Chemscore.Metal.Weighted>
-0.0000

> <Gold.Chemscore.Lipo.Weighted>
-11.4757

> <Gold.Chemscore.Internal_Hbond.Weighted>
0.0000

> <Gold.Chemscore.DEClash.Weighted>
0.0934

> <Gold.Chemscore.DEInternal.Weighted>
2.0598

> <Gold.Chemscore.Rot.Weighted>
3.8289

> <Gold.Chemscore.Internal.Correction.Weighted>
   9.000000E+99

> <Gold.Protein.RotatedTorsions>
[ 6907 6896 6895 6894 ] final  -99.68 input  -60.11 | X-H torsion
[ 7974 7965 7964 7962 ] final   54.66 input  175.53 | X-H torsion
[ 8008 7997 7996 7995 ] final  125.46 input   59.86 | X-H torsion
[ 10167 10162 10161 10158 ] final -110.01 input  -65.29 | X-H torsion
[ 10718 10713 10712 10709 ] final  -99.17 input   66.30 | X-H torsion
[ 10763 10752 10751 10750 ] final   -5.35 input  -60.55 | X-H torsion
[ 11005 11000 10999 10996 ] final  -52.79 input  -57.11 | X-H torsion

> <Gold.Protein.ActiveResidues>
 VAL166  LYS551  ARG553  GLY616  TRP617  ASP618  TYR619  PRO620  LYS621  CYS622 
 ASP623  PHE694  ASN695  SER759  ASP760  ASP761  ALA762  ILE779  LEU786  VAL792 
 PHE793  MET794  SER795  GLU796  ALA797  LYS798  CYS799  TRP800  GLU811  SER814 

> <Gold.Protein.RotatedAtoms>
  150.7088  134.1003  159.3963 H   0  0  0  0  0  0  0  0  0  0  0  0  # atno 6907 bound_to 6896
  151.8989  135.0384  160.0514 H   0  0  0  0  0  0  0  0  0  0  0  0  # atno 6908 bound_to 6896
  152.2430  133.5116  159.5318 H   0  0  0  0  0  0  0  0  0  0  0  0  # atno 6909 bound_to 6896
  145.9585  139.4037  143.0262 H   0  0  0  0  0  0  0  0  0  0  0  0  # atno 7974 bound_to 7965
  156.2835  140.2716  156.1953 H   0  0  0  0  0  0  0  0  0  0  0  0  # atno 8008 bound_to 7997
  155.0416  140.0386  157.2529 H   0  0  0  0  0  0  0  0  0  0  0  0  # atno 8009 bound_to 7997
  154.7269  140.2699  155.6496 H   0  0  0  0  0  0  0  0  0  0  0  0  # atno 8010 bound_to 7997
  140.1491  143.4214  152.1508 H   0  0  0  0  0  0  0  0  0  0  0  0  # atno 10167 bound_to 10162
  156.0127  130.5270  150.6630 H   0  0  0  0  0  0  0  0  0  0  0  0  # atno 10718 bound_to 10713
  153.3973  135.7004  153.6451 H   0  0  0  0  0  0  0  0  0  0  0  0  # atno 10763 bound_to 10752
  153.4999  135.3654  155.2535 H   0  0  0  0  0  0  0  0  0  0  0  0  # atno 10764 bound_to 10752
  154.8707  135.4109  154.3301 H   0  0  0  0  0  0  0  0  0  0  0  0  # atno 10765 bound_to 10752
  141.0943  133.6627  156.4076 H   0  0  0  0  0  0  0  0  0  0  0  0  # atno 11005 bound_to 11000
  145.8072  140.9743  143.0968 LP  0  0  0  0  0  0  0  0  0  0  0  0  # atno 17320 bound_to 7965
  144.6810  139.9876  143.7484 LP  0  0  0  0  0  0  0  0  0  0  0  0  # atno 17321 bound_to 7965
  139.5435  144.7277  151.4659 LP  0  0  0  0  0  0  0  0  0  0  0  0  # atno 17342 bound_to 10162
  140.6714  143.8286  150.7004 LP  0  0  0  0  0  0  0  0  0  0  0  0  # atno 17343 bound_to 10162
  157.4369  131.0856  151.0983 LP  0  0  0  0  0  0  0  0  0  0  0  0  # atno 17370 bound_to 10713
  157.1539  130.6196  149.5590 LP  0  0  0  0  0  0  0  0  0  0  0  0  # atno 17371 bound_to 10713
  140.5179  134.6333  157.5307 LP  0  0  0  0  0  0  0  0  0  0  0  0  # atno 17394 bound_to 11000
  139.9775  134.7191  155.9921 LP  0  0  0  0  0  0  0  0  0  0  0  0  # atno 17395 bound_to 11000

$$$$
