AV-unprocessed.smi:1043|AV-procd|sdf|4541|dock3
  -GOLD-   22720 2563D 1   1.00000     0.00000
 Structure written by MMmdl.
 34 35  0  0  0  0  0  0  0  0  2 V2000
  152.3097  137.1562  157.0757 C   0  0  0  0  0  0  0  0  0  0  0  0
  151.5140  138.4730  157.2341 C   0  0  0  0  0  0  0  0  0  0  0  0
  150.1789  138.1714  157.7728 N   0  0  0  0  0  0  0  0  0  0  0  0
  149.8455  137.5223  158.9011 C   0  0  0  0  0  0  0  0  0  0  0  0
  150.7194  137.0733  159.6457 O   0  0  0  0  0  0  0  0  0  0  0  0
  148.5103  137.4462  159.1024 N   0  5  0  0  0  0  0  0  0  0  0  0
  148.0235  136.6806  160.0926 C   0  0  0  0  0  0  0  0  0  0  0  0
  147.4871  137.2018  161.2076 N   0  0  0  0  0  0  0  0  0  0  0  0
  147.0494  136.2368  162.1049 N   0  0  0  0  0  0  0  0  0  0  0  0
  147.2772  135.0068  161.6450 C   0  0  0  0  0  0  0  0  0  0  0  0
  148.0464  134.9150  160.0752 S   0  0  0  0  0  0  0  0  0  0  0  0
  152.3252  139.4488  158.1358 C   0  0  0  0  0  0  0  0  0  0  0  0
  151.5832  140.6219  158.8151 C   0  0  0  0  0  0  0  0  0  0  0  0
  150.5297  141.3765  157.9859 C   0  0  0  0  0  0  0  0  0  0  0  0
  150.8525  141.5301  156.4936 C   0  0  0  0  0  0  0  0  0  0  0  0
  150.4356  140.3023  155.6685 C   0  0  0  0  0  0  0  0  0  0  0  0
  151.3559  139.0768  155.8133 C   0  0  0  0  0  0  0  0  0  0  0  0
  153.2749  137.3338  156.6000 H   0  0  0  0  0  0  0  0  0  0  0  0
  151.7694  136.4354  156.4606 H   0  0  0  0  0  0  0  0  0  0  0  0
  152.5120  136.6764  158.0332 H   0  0  0  0  0  0  0  0  0  0  0  0
  149.4051  138.5103  157.2206 H   0  0  0  0  0  0  0  0  0  0  0  0
  146.9925  134.1482  162.2344 H   0  0  0  0  0  0  0  0  0  0  0  0
  152.8101  138.8830  158.9325 H   0  0  0  0  0  0  0  0  0  0  0  0
  153.1536  139.8535  157.5533 H   0  0  0  0  0  0  0  0  0  0  0  0
  151.1040  140.2664  159.7279 H   0  0  0  0  0  0  0  0  0  0  0  0
  152.3361  141.3354  159.1517 H   0  0  0  0  0  0  0  0  0  0  0  0
  149.5584  140.8933  158.0985 H   0  0  0  0  0  0  0  0  0  0  0  0
  150.4046  142.3667  158.4252 H   0  0  0  0  0  0  0  0  0  0  0  0
  150.2918  142.3864  156.1169 H   0  0  0  0  0  0  0  0  0  0  0  0
  151.9049  141.7714  156.3412 H   0  0  0  0  0  0  0  0  0  0  0  0
  149.4048  140.0303  155.8986 H   0  0  0  0  0  0  0  0  0  0  0  0
  150.4286  140.5881  154.6166 H   0  0  0  0  0  0  0  0  0  0  0  0
  152.3392  139.3298  155.4144 H   0  0  0  0  0  0  0  0  0  0  0  0
  150.9687  138.3053  155.1460 H   0  0  0  0  0  0  0  0  0  0  0  0
  1  2  1  0  0  0  0
  1 18  1  0  0  0  0
  1 19  1  0  0  0  0
  1 20  1  0  0  0  0
  2 17  1  0  0  0  0
  2  3  1  0  0  0  0
  2 12  1  0  0  0  0
  3  4  1  0  0  0  0
  3 21  1  0  0  0  0
  4  5  2  0  0  0  0
  4  6  1  0  0  0  0
  6  7  1  0  0  0  0
  7 11  1  0  0  0  0
  7  8  2  0  0  0  0
  8  9  1  0  0  0  0
  9 10  2  0  0  0  0
 10 11  1  0  0  0  0
 10 22  1  0  0  0  0
 12 13  1  0  0  0  0
 12 23  1  0  0  0  0
 12 24  1  0  0  0  0
 13 14  1  0  0  0  0
 13 25  1  0  0  0  0
 13 26  1  0  0  0  0
 14 15  1  0  0  0  0
 14 27  1  0  0  0  0
 14 28  1  0  0  0  0
 15 16  1  0  0  0  0
 15 29  1  0  0  0  0
 15 30  1  0  0  0  0
 16 17  1  0  0  0  0
 16 31  1  0  0  0  0
 16 32  1  0  0  0  0
 17 33  1  0  0  0  0
 17 34  1  0  0  0  0
M  CHG  1   6  -1
M  END
> <s_m_source_file>
AV-unprocessed.smi

> <i_m_source_file_index>
1043

> <i_lp_mmshare_version>
43012

> <i_f3d_flags>
0

> <s_epik_input>
W0NIMl0xW0NIMl1bQ0gyXVtDSDJdW0NIMl1bQ0gyXUMxKFtDSDNdKVtOSF1DKD1PKVtOSF1jMm5uW2NIXXMy

> <s_epik_cmdline>
J2VwaWtfcHl0aG9uJywgJy1waCcsICc3LjAnLCAnLXRuJywgJzgnLCAnLW1hJywgJzIwMCcsICctbWV0YWxfYmluZGluZycsICctaW1hZScsICc8aW5maWxlLm1hZT4nLCAnLW9tYWUnLCAnPG91dGZpbGUubWFlPic=

> <r_lp_tautomer_probability>
1

> <r_epik_Ionization_Penalty>
4.55555

> <r_epik_Ionization_Penalty_Charging>
4.50588

> <r_epik_Ionization_Penalty_Neutral>
0.0496753

> <r_epik_State_Penalty>
4.50558

> <r_epik_Charging_Adjusted_Penalty>
9.01146

> <i_epik_Tot_Q>
-1

> <i_epik_Tot_abs_Q>
1

> <r_epik_Metal_State_Penalty>
0.822218

> <b_epik_Metal_Only>
1

> <s_lp_Force_Field>
OPLS_2005

> <r_lp_Energy>
17.5754

> <b_lp_Chiralities_Consistent>
1

> <s_lp_Variant>
AV-unprocessed.smi:1043-2

> <Gold.Version>
5.8.1

> <Gold.Id.Protein>
6NUR|6NUR_protein|mol2

> <Gold.PLP.Fitness>
32.6966

> <Gold.PLP.PLP>
-25.5935

> <Gold.PLP.part.hbond>
-2.9900

> <Gold.PLP.part.metal>
0.0000

> <Gold.PLP.part.buried>
-5.2301

> <Gold.PLP.part.nonpolar>
-18.2416

> <Gold.PLP.part.repulsive>
0.0610

> <Gold.PLP.ligand.clash>
0.0000

> <Gold.PLP.ligand.torsion>
0.7383

> <Gold.PLP.Chemscore.Hbond>
2.8560

> <Gold.PLP.Chemscore.CHOScore>
0.0000

> <Gold.PLP.Chemscore.Metal>
0.0000

> <Gold.Chemscore.Hbonds>
donor molecule, donor type, donor heavy atom, donor atom, acceptor molecule, acceptor atom, score
      P1  H  6896  6909       L1     5  1.00
      P1  H  6931  6943       L1     8  0.90
      P1  H  6934  6947       L1     8  0.96

> <Gold.PLP.Chemscore.Internal.Correction>
0.0116

> <Gold.Rescore>
     Score         DG    S(hbond)    S(metal)    S(lipo)     H(rot)  DE(clash)    DE(int)     intcor
     16.80     -17.56       2.45        0.00      55.08       1.00       0.00       0.76       ----

> <Gold.Chemscore.Fitness>
16.8001

> <Gold.Chemscore.DG>
-17.5586

> <Gold.Chemscore.ZeroCoef>
-5.4800

> <Gold.Chemscore.Hbond>
2.4534

> <Gold.Chemscore.Metal>
0.0000

> <Gold.Chemscore.Lipo>
55.0803

> <Gold.Chemscore.Internal_Hbond>
0.0000

> <Gold.Chemscore.DEClash>
0.0000

> <Gold.Chemscore.DEInternal>
0.7585

> <Gold.Chemscore.Rot>
1.0000

> <Gold.Chemscore.Internal.Correction>
   9.000000E+99

> <Gold.Chemscore.Hbonds>
donor molecule, donor type, donor heavy atom, donor atom, acceptor molecule, acceptor atom, score
      P1  H  6896  6909       L1     5  0.93
      P1  H  6931  6943       L1     8  0.22
      P1  H  6934  6947       L1     8  0.65

> <Gold.Chemscore.Hbond.Weighted>
-8.1942

> <Gold.Chemscore.Metal.Weighted>
-0.0000

> <Gold.Chemscore.Lipo.Weighted>
-6.4444

> <Gold.Chemscore.Internal_Hbond.Weighted>
0.0000

> <Gold.Chemscore.DEClash.Weighted>
0.0000

> <Gold.Chemscore.DEInternal.Weighted>
0.7585

> <Gold.Chemscore.Rot.Weighted>
2.5600

> <Gold.Chemscore.Internal.Correction.Weighted>
   9.000000E+99

> <Gold.Protein.RotatedTorsions>
[ 6907 6896 6895 6894 ] final   95.77 input  -60.11 | X-H torsion
[ 7974 7965 7964 7962 ] final   20.15 input  175.53 | X-H torsion
[ 8008 7997 7996 7995 ] final  157.62 input   59.86 | X-H torsion
[ 10167 10162 10161 10158 ] final   51.91 input  -65.29 | X-H torsion
[ 10718 10713 10712 10709 ] final   39.23 input   66.30 | X-H torsion
[ 10763 10752 10751 10750 ] final -171.66 input  -60.55 | X-H torsion
[ 11005 11000 10999 10996 ] final -112.96 input  -57.11 | X-H torsion

> <Gold.Protein.ActiveResidues>
 VAL166  LYS551  ARG553  GLY616  TRP617  ASP618  TYR619  PRO620  LYS621  CYS622 
 ASP623  PHE694  ASN695  SER759  ASP760  ASP761  ALA762  ILE779  LEU786  VAL792 
 PHE793  MET794  SER795  GLU796  ALA797  LYS798  CYS799  TRP800  GLU811  SER814 

> <Gold.Protein.RotatedAtoms>
  152.5441  134.0989  159.8308 H   0  0  0  0  0  0  0  0  0  0  0  0  # atno 6907 bound_to 6896
  151.1069  133.5194  159.2614 H   0  0  0  0  0  0  0  0  0  0  0  0  # atno 6908 bound_to 6896
  151.1928  135.0419  159.8894 H   0  0  0  0  0  0  0  0  0  0  0  0  # atno 6909 bound_to 6896
  146.2122  139.8210  142.8680 H   0  0  0  0  0  0  0  0  0  0  0  0  # atno 7974 bound_to 7965
  156.2352  140.1880  156.7137 H   0  0  0  0  0  0  0  0  0  0  0  0  # atno 8008 bound_to 7997
  154.6094  140.0624  156.9501 H   0  0  0  0  0  0  0  0  0  0  0  0  # atno 8009 bound_to 7997
  155.2041  140.3294  155.4341 H   0  0  0  0  0  0  0  0  0  0  0  0  # atno 8010 bound_to 7997
  140.2569  144.3417  150.6330 H   0  0  0  0  0  0  0  0  0  0  0  0  # atno 10167 bound_to 10162
  157.3681  130.7686  149.7098 H   0  0  0  0  0  0  0  0  0  0  0  0  # atno 10718 bound_to 10713
  154.6281  135.2883  155.0249 H   0  0  0  0  0  0  0  0  0  0  0  0  # atno 10763 bound_to 10752
  154.1419  135.6517  153.4948 H   0  0  0  0  0  0  0  0  0  0  0  0  # atno 10764 bound_to 10752
  153.0266  135.5335  154.7097 H   0  0  0  0  0  0  0  0  0  0  0  0  # atno 10765 bound_to 10752
  141.0644  133.9483  157.2607 H   0  0  0  0  0  0  0  0  0  0  0  0  # atno 11005 bound_to 11000
  145.3096  141.0216  143.3562 LP  0  0  0  0  0  0  0  0  0  0  0  0  # atno 17320 bound_to 7965
  144.8945  139.4730  143.6662 LP  0  0  0  0  0  0  0  0  0  0  0  0  # atno 17321 bound_to 7965
  140.5997  143.2167  151.7097 LP  0  0  0  0  0  0  0  0  0  0  0  0  # atno 17342 bound_to 10162
  139.5029  144.3813  152.0373 LP  0  0  0  0  0  0  0  0  0  0  0  0  # atno 17343 bound_to 10162
  155.9750  130.4095  150.3881 LP  0  0  0  0  0  0  0  0  0  0  0  0  # atno 17370 bound_to 10713
  157.1968  131.0428  151.2671 LP  0  0  0  0  0  0  0  0  0  0  0  0  # atno 17371 bound_to 10713
  139.9462  135.0183  156.8859 LP  0  0  0  0  0  0  0  0  0  0  0  0  # atno 17394 bound_to 11000
  140.5804  134.0358  155.7462 LP  0  0  0  0  0  0  0  0  0  0  0  0  # atno 17395 bound_to 11000

$$$$
