AV-unprocessed.smi:1351|AV-procd|sdf|5526|dock2
  -GOLD-   22720 5113D 1   1.00000     0.00000
 Structure written by MMmdl.
 35 36  0  0  0  0  0  0  0  0  2 V2000
  138.8613  138.5035  153.3516 C   0  0  0  0  0  0  0  0  0  0  0  0
  140.2879  138.7460  153.5370 N   0  0  0  0  0  0  0  0  0  0  0  0
  140.7532  140.0219  154.0647 C   0  0  0  0  0  0  0  0  0  0  0  0
  141.2104  137.6995  153.3189 C   0  0  0  0  0  0  0  0  0  0  0  0
  140.9029  136.3348  153.5422 C   0  0  0  0  0  0  0  0  0  0  0  0
  141.8774  135.3461  153.2946 C   0  0  0  0  0  0  0  0  0  0  0  0
  143.1577  135.7207  152.8371 C   0  0  0  0  0  0  0  0  0  0  0  0
  144.0995  134.6881  152.5799 N   0  0  0  0  0  0  0  0  0  0  0  0
  145.2033  134.7253  151.8091 C   0  0  0  0  0  0  0  0  0  0  0  0
  145.6180  135.7365  151.2433 O   0  0  0  0  0  0  0  0  0  0  0  0
  146.0018  133.4174  151.6924 C   0  0  2  0  0  0  0  0  0  0  0  0
  146.1606  132.9001  150.2490 C   0  0  0  0  0  0  0  0  0  0  0  0
  145.5622  131.5043  150.2869 C   0  0  0  0  0  0  0  0  0  0  0  0
  145.6516  131.1411  151.7622 C   0  0  0  0  0  0  0  0  0  0  0  0
  145.3367  132.3684  152.3966 O   0  0  0  0  0  0  0  0  0  0  0  0
  143.4148  137.0955  152.6227 C   0  0  0  0  0  0  0  0  0  0  0  0
  142.4513  138.0090  152.8695 N   0  3  0  0  0  0  0  0  0  0  0  0
  138.5154  137.7193  154.0258 H   0  0  0  0  0  0  0  0  0  0  0  0
  138.6543  138.1969  152.3258 H   0  0  0  0  0  0  0  0  0  0  0  0
  138.2766  139.4008  153.5544 H   0  0  0  0  0  0  0  0  0  0  0  0
  141.4602  140.4858  153.3766 H   0  0  0  0  0  0  0  0  0  0  0  0
  141.2433  139.8826  155.0287 H   0  0  0  0  0  0  0  0  0  0  0  0
  139.9260  140.7169  154.2095 H   0  0  0  0  0  0  0  0  0  0  0  0
  139.9312  136.0267  153.8978 H   0  0  0  0  0  0  0  0  0  0  0  0
  141.6395  134.3054  153.4602 H   0  0  0  0  0  0  0  0  0  0  0  0
  143.9328  133.8148  153.0596 H   0  0  0  0  0  0  0  0  0  0  0  0
  146.9856  133.5647  152.1404 H   0  0  0  0  0  0  0  0  0  0  0  0
  145.6648  133.5164  149.4976 H   0  0  0  0  0  0  0  0  0  0  0  0
  147.2182  132.8537  149.9869 H   0  0  0  0  0  0  0  0  0  0  0  0
  144.5161  131.5400  149.9799 H   0  0  0  0  0  0  0  0  0  0  0  0
  146.0832  130.7976  149.6406 H   0  0  0  0  0  0  0  0  0  0  0  0
  144.9584  130.3489  152.0456 H   0  0  0  0  0  0  0  0  0  0  0  0
  146.6631  130.8335  152.0320 H   0  0  0  0  0  0  0  0  0  0  0  0
  144.3416  137.5055  152.2511 H   0  0  0  0  0  0  0  0  0  0  0  0
  142.6709  138.9912  152.7029 H   0  0  0  0  0  0  0  0  0  0  0  0
  1  2  1  0  0  0  0
  1 18  1  0  0  0  0
  1 19  1  0  0  0  0
  1 20  1  0  0  0  0
  2  3  1  0  0  0  0
  2  4  1  0  0  0  0
  3 21  1  0  0  0  0
  3 22  1  0  0  0  0
  3 23  1  0  0  0  0
  4 17  1  0  0  0  0
  4  5  2  0  0  0  0
  5  6  1  0  0  0  0
  5 24  1  0  0  0  0
  6  7  2  0  0  0  0
  6 25  1  0  0  0  0
  7  8  1  0  0  0  0
  7 16  1  0  0  0  0
  8  9  1  0  0  0  0
  8 26  1  0  0  0  0
  9 10  2  0  0  0  0
  9 11  1  0  0  0  0
 11 15  1  0  0  0  0
 11 12  1  0  0  0  0
 11 27  1  0  0  0  0
 12 13  1  0  0  0  0
 12 28  1  0  0  0  0
 12 29  1  0  0  0  0
 13 14  1  0  0  0  0
 13 30  1  0  0  0  0
 13 31  1  0  0  0  0
 14 15  1  0  0  0  0
 14 32  1  0  0  0  0
 14 33  1  0  0  0  0
 16 17  2  0  0  0  0
 16 34  1  0  0  0  0
 17 35  1  0  0  0  0
M  CHG  1  17   1
M  END
> <s_m_source_file>
AV-unprocessed.smi

> <i_m_source_file_index>
1351

> <i_lp_mmshare_version>
43012

> <i_f3d_flags>
0

> <s_epik_input>
W0NIM11OKFtDSDNdKWMxW2NIXVtjSF1jKFtjSF1uMSlbTkhdQyg9TylbQ0BASF0yW0NIMl1bQ0gyXVtDSDJdTzI=

> <s_epik_cmdline>
J2VwaWtfcHl0aG9uJywgJy1waCcsICc3LjAnLCAnLXRuJywgJzgnLCAnLW1hJywgJzIwMCcsICctbWV0YWxfYmluZGluZycsICctaW1hZScsICc8aW5maWxlLm1hZT4nLCAnLW9tYWUnLCAnPG91dGZpbGUubWFlPic=

> <r_lp_tautomer_probability>
0.999994

> <r_epik_Ionization_Penalty>
0.682441

> <r_epik_Ionization_Penalty_Charging>
0.68244

> <r_epik_Ionization_Penalty_Neutral>
1.70545e-06

> <r_epik_State_Penalty>
0.703594

> <r_epik_Charging_Adjusted_Penalty>
1.38603

> <i_epik_Tot_Q>
1

> <i_epik_Tot_abs_Q>
1

> <r_epik_Metal_State_Penalty>
0.869714

> <b_epik_Metal_Only>
0

> <s_lp_Force_Field>
OPLS_2005

> <r_lp_Energy>
29.3142

> <b_lp_Chiralities_Consistent>
1

> <s_lp_Variant>
AV-unprocessed.smi:1351-3

> <Gold.Version>
5.8.1

> <Gold.Id.Protein>
6NUR|6NUR_protein|mol2

> <Gold.PLP.Fitness>
37.0051

> <Gold.PLP.PLP>
-32.0961

> <Gold.PLP.part.hbond>
-1.0000

> <Gold.PLP.part.metal>
0.0000

> <Gold.PLP.part.buried>
-5.0495

> <Gold.PLP.part.nonpolar>
-25.7164

> <Gold.PLP.part.repulsive>
0.4013

> <Gold.PLP.ligand.clash>
0.0000

> <Gold.PLP.ligand.torsion>
0.5565

> <Gold.PLP.Chemscore.Hbond>
2.0000

> <Gold.PLP.Chemscore.CHOScore>
0.0000

> <Gold.PLP.Chemscore.Metal>
0.0000

> <Gold.Chemscore.Hbonds>
donor molecule, donor type, donor heavy atom, donor atom, acceptor molecule, acceptor atom, score
      L1  H    17    35       P1 10175  2.00

> <Gold.PLP.Chemscore.Internal.Correction>
0.0220

> <Gold.Rescore>
     Score         DG    S(hbond)    S(metal)    S(lipo)     H(rot)  DE(clash)    DE(int)     intcor
     12.71     -14.38       1.00        0.00      69.44       1.00       0.00       1.67       ----

> <Gold.Chemscore.Fitness>
12.7074

> <Gold.Chemscore.DG>
-14.3766

> <Gold.Chemscore.ZeroCoef>
-5.4800

> <Gold.Chemscore.Hbond>
0.9975

> <Gold.Chemscore.Metal>
0.0000

> <Gold.Chemscore.Lipo>
69.4444

> <Gold.Chemscore.Internal_Hbond>
0.0000

> <Gold.Chemscore.DEClash>
0.0004

> <Gold.Chemscore.DEInternal>
1.6688

> <Gold.Chemscore.Rot>
1.0000

> <Gold.Chemscore.Internal.Correction>
   9.000000E+99

> <Gold.Chemscore.Hbonds>
donor molecule, donor type, donor heavy atom, donor atom, acceptor molecule, acceptor atom, score
      L1  H    17    35       P1 10175  1.00

> <Gold.Chemscore.Hbond.Weighted>
-3.3316

> <Gold.Chemscore.Metal.Weighted>
-0.0000

> <Gold.Chemscore.Lipo.Weighted>
-8.1250

> <Gold.Chemscore.Internal_Hbond.Weighted>
0.0000

> <Gold.Chemscore.DEClash.Weighted>
0.0004

> <Gold.Chemscore.DEInternal.Weighted>
1.6688

> <Gold.Chemscore.Rot.Weighted>
2.5600

> <Gold.Chemscore.Internal.Correction.Weighted>
   9.000000E+99

> <Gold.Protein.RotatedTorsions>
[ 6907 6896 6895 6894 ] final -125.93 input  -60.11 | X-H torsion
[ 7974 7965 7964 7962 ] final  -14.24 input  175.53 | X-H torsion
[ 8008 7997 7996 7995 ] final  -77.04 input   59.86 | X-H torsion
[ 10167 10162 10161 10158 ] final  109.54 input  -65.29 | X-H torsion
[ 10718 10713 10712 10709 ] final -166.25 input   66.30 | X-H torsion
[ 10763 10752 10751 10750 ] final  153.71 input  -60.55 | X-H torsion
[ 11005 11000 10999 10996 ] final   35.30 input  -57.11 | X-H torsion

> <Gold.Protein.ActiveResidues>
 VAL166  LYS551  ARG553  GLY616  TRP617  ASP618  TYR619  PRO620  LYS621  CYS622 
 ASP623  PHE694  ASN695  SER759  ASP760  ASP761  ALA762  ILE779  LEU786  VAL792 
 PHE793  MET794  SER795  GLU796  ALA797  LYS798  CYS799  TRP800  GLU811  SER814 

> <Gold.Protein.RotatedAtoms>
  150.8917  133.7234  159.2902 H   0  0  0  0  0  0  0  0  0  0  0  0  # atno 6907 bound_to 6896
  151.4782  135.1049  159.9780 H   0  0  0  0  0  0  0  0  0  0  0  0  # atno 6908 bound_to 6896
  152.4824  133.8241  159.7124 H   0  0  0  0  0  0  0  0  0  0  0  0  # atno 6909 bound_to 6896
  146.2082  140.3320  142.8400 H   0  0  0  0  0  0  0  0  0  0  0  0  # atno 7974 bound_to 7965
  154.5560  140.0717  156.8744 H   0  0  0  0  0  0  0  0  0  0  0  0  # atno 8008 bound_to 7997
  155.2901  140.3377  155.4235 H   0  0  0  0  0  0  0  0  0  0  0  0  # atno 8009 bound_to 7997
  156.2002  140.1719  156.7900 H   0  0  0  0  0  0  0  0  0  0  0  0  # atno 8010 bound_to 7997
  139.6758  144.7122  151.1604 H   0  0  0  0  0  0  0  0  0  0  0  0  # atno 10167 bound_to 10162
  156.6652  130.9062  151.3035 H   0  0  0  0  0  0  0  0  0  0  0  0  # atno 10718 bound_to 10713
  154.1405  135.2821  155.3162 H   0  0  0  0  0  0  0  0  0  0  0  0  # atno 10763 bound_to 10752
  154.6290  135.5442  153.7662 H   0  0  0  0  0  0  0  0  0  0  0  0  # atno 10764 bound_to 10752
  153.0252  135.6458  154.1553 H   0  0  0  0  0  0  0  0  0  0  0  0  # atno 10765 bound_to 10752
  140.2441  134.3380  155.7914 H   0  0  0  0  0  0  0  0  0  0  0  0  # atno 11005 bound_to 11000
  144.8846  140.7445  143.5965 LP  0  0  0  0  0  0  0  0  0  0  0  0  # atno 17320 bound_to 7965
  145.3240  139.1779  143.4572 LP  0  0  0  0  0  0  0  0  0  0  0  0  # atno 17321 bound_to 7965
  140.7635  143.5773  150.8931 LP  0  0  0  0  0  0  0  0  0  0  0  0  # atno 17342 bound_to 10162
  139.9442  143.6347  152.3046 LP  0  0  0  0  0  0  0  0  0  0  0  0  # atno 17343 bound_to 10162
  157.7096  130.9425  150.1044 LP  0  0  0  0  0  0  0  0  0  0  0  0  # atno 17370 bound_to 10713
  156.1980  130.3658  149.8824 LP  0  0  0  0  0  0  0  0  0  0  0  0  # atno 17371 bound_to 10713
  141.2208  133.7315  156.8932 LP  0  0  0  0  0  0  0  0  0  0  0  0  # atno 17394 bound_to 11000
  140.1624  134.9156  157.2731 LP  0  0  0  0  0  0  0  0  0  0  0  0  # atno 17395 bound_to 11000

$$$$
