AV-unprocessed.smi:2739|AV-procd|sdf|10551|dock1
  -GOLD-   2272015 03D 1   1.00000     0.00000
 Structure written by MMmdl.
 35 35  0  0  0  0  0  0  0  0  1 V2000
  152.0366  144.6201  158.0340 C   0  0  0  0  0  0  0  0  0  0  0  0
  152.6580  144.0373  159.3116 C   0  0  0  0  0  0  0  0  0  0  0  0
  152.9135  142.5152  159.2452 C   0  0  1  0  0  0  0  0  0  0  0  0
  153.5656  141.9727  160.5293 C   0  0  0  0  0  0  0  0  0  0  0  0
  151.7176  141.7489  158.8858 N   0  0  0  0  0  0  0  0  0  0  0  0
  151.6083  140.7974  157.9421 C   0  0  0  0  0  0  0  0  0  0  0  0
  152.5438  140.4136  157.2409 O   0  0  0  0  0  0  0  0  0  0  0  0
  150.2199  140.1847  157.7582 C   0  0  0  0  0  0  0  0  0  0  0  0
  149.7053  140.4551  156.4279 N   0  0  0  0  0  0  0  0  0  0  0  0
  149.6023  141.6670  155.7795 C   0  0  0  0  0  0  0  0  0  0  0  0
  149.0500  141.4251  154.5548 C   0  0  0  0  0  0  0  0  0  0  0  0
  148.8413  140.0150  154.5406 C   0  0  0  0  0  0  0  0  0  0  0  0
  148.2595  139.1616  153.4437 C   0  0  2  0  0  0  0  0  0  0  0  0
  146.8310  139.5977  153.0903 C   0  0  0  0  0  0  0  0  0  0  0  0
  148.2315  137.7927  153.7915 O   0  0  0  0  0  0  0  0  0  0  0  0
  149.2390  139.4412  155.6672 N   0  0  0  0  0  0  0  0  0  0  0  0
  151.9284  145.7017  158.1177 H   0  0  0  0  0  0  0  0  0  0  0  0
  151.0465  144.2053  157.8439 H   0  0  0  0  0  0  0  0  0  0  0  0
  152.6604  144.4146  157.1637 H   0  0  0  0  0  0  0  0  0  0  0  0
  153.6051  144.5453  159.4968 H   0  0  0  0  0  0  0  0  0  0  0  0
  152.0226  144.2787  160.1641 H   0  0  0  0  0  0  0  0  0  0  0  0
  153.6210  142.3410  158.4336 H   0  0  0  0  0  0  0  0  0  0  0  0
  154.5230  142.4600  160.7150 H   0  0  0  0  0  0  0  0  0  0  0  0
  153.7530  140.9013  160.4522 H   0  0  0  0  0  0  0  0  0  0  0  0
  152.9388  142.1397  161.4055 H   0  0  0  0  0  0  0  0  0  0  0  0
  150.8777  141.9797  159.3970 H   0  0  0  0  0  0  0  0  0  0  0  0
  150.2658  139.1045  157.9027 H   0  0  0  0  0  0  0  0  0  0  0  0
  149.5310  140.5802  158.5066 H   0  0  0  0  0  0  0  0  0  0  0  0
  149.9253  142.5893  156.2397 H   0  0  0  0  0  0  0  0  0  0  0  0
  148.8276  142.1475  153.7834 H   0  0  0  0  0  0  0  0  0  0  0  0
  148.8795  139.2475  152.5503 H   0  0  0  0  0  0  0  0  0  0  0  0
  146.8085  140.6367  152.7599 H   0  0  0  0  0  0  0  0  0  0  0  0
  146.1649  139.5078  153.9494 H   0  0  0  0  0  0  0  0  0  0  0  0
  146.4207  138.9883  152.2845 H   0  0  0  0  0  0  0  0  0  0  0  0
  148.7847  137.3207  153.1879 H   0  0  0  0  0  0  0  0  0  0  0  0
  1  2  1  0  0  0  0
  1 17  1  0  0  0  0
  1 18  1  0  0  0  0
  1 19  1  0  0  0  0
  2  3  1  0  0  0  0
  2 20  1  0  0  0  0
  2 21  1  0  0  0  0
  3  4  1  0  0  0  0
  3  5  1  0  0  0  0
  3 22  1  0  0  0  0
  4 23  1  0  0  0  0
  4 24  1  0  0  0  0
  4 25  1  0  0  0  0
  5  6  1  0  0  0  0
  5 26  1  0  0  0  0
  6  7  2  0  0  0  0
  6  8  1  0  0  0  0
  8  9  1  0  0  0  0
  8 27  1  0  0  0  0
  8 28  1  0  0  0  0
  9 16  1  0  0  0  0
  9 10  1  0  0  0  0
 10 11  2  0  0  0  0
 10 29  1  0  0  0  0
 11 12  1  0  0  0  0
 11 30  1  0  0  0  0
 12 13  1  0  0  0  0
 12 16  2  0  0  0  0
 13 14  1  0  0  0  0
 13 15  1  0  0  0  0
 13 31  1  0  0  0  0
 14 32  1  0  0  0  0
 14 33  1  0  0  0  0
 14 34  1  0  0  0  0
 15 35  1  0  0  0  0
M  END
> <s_m_source_file>
AV-unprocessed.smi

> <i_m_source_file_index>
2739

> <i_lp_mmshare_version>
43012

> <i_f3d_flags>
0

> <s_epik_input>
W0NIM11bQ0gyXVtDQEhdKFtDSDNdKVtOSF1DKD1PKVtDSDJdbjFbY0hdW2NIXWMobjEpW0NASF0oW0NIM10pW09IXQ==

> <s_epik_cmdline>
J2VwaWtfcHl0aG9uJywgJy1waCcsICc3LjAnLCAnLXRuJywgJzgnLCAnLW1hJywgJzIwMCcsICctbWV0YWxfYmluZGluZycsICctaW1hZScsICc8aW5maWxlLm1hZT4nLCAnLW9tYWUnLCAnPG91dGZpbGUubWFlPic=

> <r_lp_tautomer_probability>
1

> <r_epik_Ionization_Penalty>
5.22246e-06

> <r_epik_Ionization_Penalty_Charging>
0

> <r_epik_Ionization_Penalty_Neutral>
5.22246e-06

> <r_epik_State_Penalty>
-0

> <r_epik_Charging_Adjusted_Penalty>
0

> <i_epik_Tot_Q>
0

> <i_epik_Tot_abs_Q>
0

> <r_epik_Metal_State_Penalty>
-0

> <b_epik_Metal_Only>
0

> <s_lp_Force_Field>
OPLS_2005

> <r_lp_Energy>
1.58762

> <b_lp_Chiralities_Consistent>
1

> <s_lp_Variant>
AV-unprocessed.smi:2739-2

> <Gold.Version>
5.8.1

> <Gold.Id.Protein>
6NUR|6NUR_protein|mol2

> <Gold.PLP.Fitness>
40.4982

> <Gold.PLP.PLP>
-32.4116

> <Gold.PLP.part.hbond>
-2.0000

> <Gold.PLP.part.metal>
0.0000

> <Gold.PLP.part.buried>
-0.1996

> <Gold.PLP.part.nonpolar>
-30.2974

> <Gold.PLP.part.repulsive>
0.1223

> <Gold.PLP.ligand.clash>
0.0000

> <Gold.PLP.ligand.torsion>
0.2644

> <Gold.PLP.Chemscore.Hbond>
1.9920

> <Gold.PLP.Chemscore.CHOScore>
0.8318

> <Gold.PLP.Chemscore.Metal>
0.0000

> <Gold.Chemscore.Hbonds>
donor molecule, donor type, donor heavy atom, donor atom, acceptor molecule, acceptor atom, score
      L1  H    15    35       P1  7948  1.00
      P1  H  7997  8008       L1     7  0.91
      L1  C    10    29       P1  8028  0.82

> <Gold.PLP.Chemscore.Internal.Correction>
0.1440

> <Gold.Rescore>
     Score         DG    S(hbond)    S(metal)    S(lipo)     H(rot)  DE(clash)    DE(int)     intcor
     15.48     -16.36       1.95        0.00      88.58       2.34       0.33       0.55       ----

> <Gold.Chemscore.Fitness>
15.4816

> <Gold.Chemscore.DG>
-16.3645

> <Gold.Chemscore.ZeroCoef>
-5.4800

> <Gold.Chemscore.Hbond>
1.9531

> <Gold.Chemscore.Metal>
0.0000

> <Gold.Chemscore.Lipo>
88.5803

> <Gold.Chemscore.Internal_Hbond>
0.0000

> <Gold.Chemscore.DEClash>
0.3314

> <Gold.Chemscore.DEInternal>
0.5514

> <Gold.Chemscore.Rot>
2.3448

> <Gold.Chemscore.Internal.Correction>
   9.000000E+99

> <Gold.Chemscore.Hbonds>
donor molecule, donor type, donor heavy atom, donor atom, acceptor molecule, acceptor atom, score
      L1  H    15    35       P1  7948  0.95
      P1  H  7997  8008       L1     7  0.87

> <Gold.Chemscore.Hbond.Weighted>
-6.5233

> <Gold.Chemscore.Metal.Weighted>
-0.0000

> <Gold.Chemscore.Lipo.Weighted>
-10.3639

> <Gold.Chemscore.Internal_Hbond.Weighted>
0.0000

> <Gold.Chemscore.DEClash.Weighted>
0.3314

> <Gold.Chemscore.DEInternal.Weighted>
0.5514

> <Gold.Chemscore.Rot.Weighted>
6.0027

> <Gold.Chemscore.Internal.Correction.Weighted>
   9.000000E+99

> <Gold.Protein.RotatedTorsions>
[ 6907 6896 6895 6894 ] final  -84.34 input  -60.11 | X-H torsion
[ 7974 7965 7964 7962 ] final -169.55 input  175.53 | X-H torsion
[ 8008 7997 7996 7995 ] final  -65.89 input   59.86 | X-H torsion
[ 10167 10162 10161 10158 ] final -120.55 input  -65.29 | X-H torsion
[ 10718 10713 10712 10709 ] final  -79.70 input   66.30 | X-H torsion
[ 10763 10752 10751 10750 ] final -175.26 input  -60.55 | X-H torsion
[ 11005 11000 10999 10996 ] final  -80.98 input  -57.11 | X-H torsion

> <Gold.Protein.ActiveResidues>
 VAL166  LYS551  ARG553  GLY616  TRP617  ASP618  TYR619  PRO620  LYS621  CYS622 
 ASP623  PHE694  ASN695  SER759  ASP760  ASP761  ALA762  ILE779  LEU786  VAL792 
 PHE793  MET794  SER795  GLU796  ALA797  LYS798  CYS799  TRP800  GLU811  SER814 

> <Gold.Protein.RotatedAtoms>
  150.6877  134.3374  159.4852 H   0  0  0  0  0  0  0  0  0  0  0  0  # atno 6907 bound_to 6896
  152.1231  134.9188  160.0571 H   0  0  0  0  0  0  0  0  0  0  0  0  # atno 6908 bound_to 6896
  152.0386  133.3933  159.4364 H   0  0  0  0  0  0  0  0  0  0  0  0  # atno 6909 bound_to 6896
  144.7183  140.2204  143.6316 H   0  0  0  0  0  0  0  0  0  0  0  0  # atno 7974 bound_to 7965
  154.4700  140.0924  156.7120 H   0  0  0  0  0  0  0  0  0  0  0  0  # atno 8008 bound_to 7997
  155.4751  140.3466  155.4313 H   0  0  0  0  0  0  0  0  0  0  0  0  # atno 8009 bound_to 7997
  156.1022  140.1425  156.9440 H   0  0  0  0  0  0  0  0  0  0  0  0  # atno 8010 bound_to 7997
  140.0346  143.5214  152.2160 H   0  0  0  0  0  0  0  0  0  0  0  0  # atno 10167 bound_to 10162
  156.0086  130.4553  150.3689 H   0  0  0  0  0  0  0  0  0  0  0  0  # atno 10718 bound_to 10713
  154.5864  135.2841  155.0680 H   0  0  0  0  0  0  0  0  0  0  0  0  # atno 10763 bound_to 10752
  154.1997  135.6426  153.5087 H   0  0  0  0  0  0  0  0  0  0  0  0  # atno 10764 bound_to 10752
  153.0106  135.5466  154.6535 H   0  0  0  0  0  0  0  0  0  0  0  0  # atno 10765 bound_to 10752
  141.1667  133.7175  156.8354 H   0  0  0  0  0  0  0  0  0  0  0  0  # atno 11005 bound_to 11000
  145.8506  139.2174  143.1774 LP  0  0  0  0  0  0  0  0  0  0  0  0  # atno 17320 bound_to 7965
  146.0264  140.8300  142.9898 LP  0  0  0  0  0  0  0  0  0  0  0  0  # atno 17321 bound_to 7965
  139.6053  144.7594  151.3075 LP  0  0  0  0  0  0  0  0  0  0  0  0  # atno 17342 bound_to 10162
  140.7287  143.6928  150.7908 LP  0  0  0  0  0  0  0  0  0  0  0  0  # atno 17343 bound_to 10162
  157.1774  131.0384  151.2765 LP  0  0  0  0  0  0  0  0  0  0  0  0  # atno 17370 bound_to 10713
  157.4176  130.7419  149.6887 LP  0  0  0  0  0  0  0  0  0  0  0  0  # atno 17371 bound_to 10713
  140.2021  134.8889  157.3181 LP  0  0  0  0  0  0  0  0  0  0  0  0  # atno 17394 bound_to 11000
  140.2176  134.4063  155.7581 LP  0  0  0  0  0  0  0  0  0  0  0  0  # atno 17395 bound_to 11000

$$$$
