AV-unprocessed.smi:1648|AV-procd|sdf|6632|dock9
  -GOLD-   22720 7333D 1   1.00000     0.00000
 Structure written by MMmdl.
 41 41  0  0  0  0  0  0  0  0  1 V2000
  149.9853  135.4224  155.0251 C   0  0  0  0  0  0  0  0  0  0  0  0
  149.5069  136.8342  155.3695 C   0  0  0  0  0  0  0  0  0  0  0  0
  149.7690  137.3073  156.4729 O   0  0  0  0  0  0  0  0  0  0  0  0
  148.8095  137.5353  154.4584 N   0  0  0  0  0  0  0  0  0  0  0  0
  148.2673  138.8913  154.5943 C   0  0  1  0  0  0  0  0  0  0  0  0
  149.4295  139.8713  154.8529 C   0  0  0  0  0  0  0  0  0  0  0  0
  150.3883  139.9231  154.0813 O   0  0  0  0  0  0  0  0  0  0  0  0
  149.3228  140.6417  155.9476 N   0  0  0  0  0  0  0  0  0  0  0  0
  150.3241  141.5909  156.4312 C   0  0  2  0  0  0  0  0  0  0  0  0
  151.6877  140.8875  156.4614 C   0  0  0  0  0  0  0  0  0  0  0  0
  149.9522  142.1441  157.8246 C   0  0  0  0  0  0  0  0  0  0  0  0
  150.9377  143.0688  158.3563 N   0  0  0  0  0  0  0  0  0  0  0  0
  151.3911  144.2429  157.7684 C   0  0  0  0  0  0  0  0  0  0  0  0
  152.3245  144.7787  158.6264 C   0  0  0  0  0  0  0  0  0  0  0  0
  152.4782  143.9448  159.7312 N   0  0  0  0  0  0  0  0  0  0  0  0
  151.6330  142.9499  159.4958 C   0  0  0  0  0  0  0  0  0  0  0  0
  147.5317  139.2737  153.2753 C   0  0  0  0  0  0  0  0  0  0  0  0
  147.0279  140.7315  153.2714 C   0  0  0  0  0  0  0  0  0  0  0  0
  146.3428  138.3375  152.9782 C   0  0  0  0  0  0  0  0  0  0  0  0
  149.1409  134.7672  154.8109 H   0  0  0  0  0  0  0  0  0  0  0  0
  150.5372  134.9914  155.8609 H   0  0  0  0  0  0  0  0  0  0  0  0
  150.6478  135.4372  154.1597 H   0  0  0  0  0  0  0  0  0  0  0  0
  148.6474  137.0866  153.5685 H   0  0  0  0  0  0  0  0  0  0  0  0
  147.5565  138.9254  155.4217 H   0  0  0  0  0  0  0  0  0  0  0  0
  148.4928  140.5364  156.5129 H   0  0  0  0  0  0  0  0  0  0  0  0
  150.4112  142.4208  155.7272 H   0  0  0  0  0  0  0  0  0  0  0  0
  152.4754  141.5715  156.7787 H   0  0  0  0  0  0  0  0  0  0  0  0
  151.9586  140.5119  155.4739 H   0  0  0  0  0  0  0  0  0  0  0  0
  151.6838  140.0422  157.1507 H   0  0  0  0  0  0  0  0  0  0  0  0
  148.9795  142.6377  157.7937 H   0  0  0  0  0  0  0  0  0  0  0  0
  149.8613  141.3242  158.5379 H   0  0  0  0  0  0  0  0  0  0  0  0
  151.0156  144.5957  156.8193 H   0  0  0  0  0  0  0  0  0  0  0  0
  152.8982  145.6887  158.5303 H   0  0  0  0  0  0  0  0  0  0  0  0
  151.5166  142.1151  160.1713 H   0  0  0  0  0  0  0  0  0  0  0  0
  148.2333  139.1705  152.4450 H   0  0  0  0  0  0  0  0  0  0  0  0
  146.3392  140.9134  154.0970 H   0  0  0  0  0  0  0  0  0  0  0  0
  146.5014  140.9621  152.3449 H   0  0  0  0  0  0  0  0  0  0  0  0
  147.8422  141.4484  153.3556 H   0  0  0  0  0  0  0  0  0  0  0  0
  145.6156  138.3537  153.7907 H   0  0  0  0  0  0  0  0  0  0  0  0
  146.6591  137.3044  152.8347 H   0  0  0  0  0  0  0  0  0  0  0  0
  145.8258  138.6372  152.0662 H   0  0  0  0  0  0  0  0  0  0  0  0
  1  2  1  0  0  0  0
  1 20  1  0  0  0  0
  1 21  1  0  0  0  0
  1 22  1  0  0  0  0
  2  3  2  0  0  0  0
  2  4  1  0  0  0  0
  4  5  1  0  0  0  0
  4 23  1  0  0  0  0
  5  6  1  0  0  0  0
  5 17  1  0  0  0  0
  5 24  1  0  0  0  0
  6  7  2  0  0  0  0
  6  8  1  0  0  0  0
  8  9  1  0  0  0  0
  8 25  1  0  0  0  0
  9 10  1  0  0  0  0
  9 11  1  0  0  0  0
  9 26  1  0  0  0  0
 10 27  1  0  0  0  0
 10 28  1  0  0  0  0
 10 29  1  0  0  0  0
 11 12  1  0  0  0  0
 11 30  1  0  0  0  0
 11 31  1  0  0  0  0
 12 16  1  0  0  0  0
 12 13  1  0  0  0  0
 13 14  2  0  0  0  0
 13 32  1  0  0  0  0
 14 15  1  0  0  0  0
 14 33  1  0  0  0  0
 15 16  2  0  0  0  0
 16 34  1  0  0  0  0
 17 18  1  0  0  0  0
 17 19  1  0  0  0  0
 17 35  1  0  0  0  0
 18 36  1  0  0  0  0
 18 37  1  0  0  0  0
 18 38  1  0  0  0  0
 19 39  1  0  0  0  0
 19 40  1  0  0  0  0
 19 41  1  0  0  0  0
M  END
> <s_m_source_file>
AV-unprocessed.smi

> <i_m_source_file_index>
1648

> <i_lp_mmshare_version>
43012

> <i_f3d_flags>
0

> <s_epik_input>
W0NIM11DKD1PKVtOSF1bQ0BASF0oW0NIXShbQ0gzXSlbQ0gzXSlDKD1PKVtOSF1bQ0BIXShbQ0gzXSlbQ0gyXW4xW2NIXVtjSF1uW2NIXTE=

> <s_epik_cmdline>
J2VwaWtfcHl0aG9uJywgJy1waCcsICc3LjAnLCAnLXRuJywgJzgnLCAnLW1hJywgJzIwMCcsICctbWV0YWxfYmluZGluZycsICctaW1hZScsICc8aW5maWxlLm1hZT4nLCAnLW9tYWUnLCAnPG91dGZpbGUubWFlPic=

> <r_lp_tautomer_probability>
1

> <r_epik_Ionization_Penalty>
0.628885

> <r_epik_Ionization_Penalty_Charging>
0.628884

> <r_epik_Ionization_Penalty_Neutral>
4.35155e-07

> <r_epik_State_Penalty>
0.64556

> <r_epik_Charging_Adjusted_Penalty>
1.27444

> <i_epik_Tot_Q>
0

> <i_epik_Tot_abs_Q>
0

> <r_epik_Metal_State_Penalty>
0.30874

> <b_epik_Metal_Only>
0

> <s_lp_Force_Field>
OPLS_2005

> <r_lp_Energy>
9.77282

> <b_lp_Chiralities_Consistent>
1

> <s_lp_Variant>
AV-unprocessed.smi:1648-6

> <Gold.Version>
5.8.1

> <Gold.Id.Protein>
6NUR|6NUR_protein|mol2

> <Gold.PLP.Fitness>
42.5557

> <Gold.PLP.PLP>
-33.8451

> <Gold.PLP.part.hbond>
-2.0000

> <Gold.PLP.part.metal>
0.0000

> <Gold.PLP.part.buried>
-4.5908

> <Gold.PLP.part.nonpolar>
-28.7564

> <Gold.PLP.part.repulsive>
0.7657

> <Gold.PLP.ligand.clash>
0.0000

> <Gold.PLP.ligand.torsion>
0.1578

> <Gold.PLP.Chemscore.Hbond>
2.0000

> <Gold.PLP.Chemscore.CHOScore>
0.9963

> <Gold.PLP.Chemscore.Metal>
0.0000

> <Gold.Chemscore.Hbonds>
donor molecule, donor type, donor heavy atom, donor atom, acceptor molecule, acceptor atom, score
      L1  H     4    23       P1  7948  1.00
      P1  H  7989  7998       L1     7  1.00
      L1  C    13    32       P1  8028  1.00

> <Gold.PLP.Chemscore.Internal.Correction>
0.0373

> <Gold.Rescore>
     Score         DG    S(hbond)    S(metal)    S(lipo)     H(rot)  DE(clash)    DE(int)     intcor
     12.81     -14.43       1.97        0.00      75.39       2.52       0.40       1.22       ----

> <Gold.Chemscore.Fitness>
12.8066

> <Gold.Chemscore.DG>
-14.4280

> <Gold.Chemscore.ZeroCoef>
-5.4800

> <Gold.Chemscore.Hbond>
1.9708

> <Gold.Chemscore.Metal>
0.0000

> <Gold.Chemscore.Lipo>
75.3931

> <Gold.Chemscore.Internal_Hbond>
0.0000

> <Gold.Chemscore.DEClash>
0.4009

> <Gold.Chemscore.DEInternal>
1.2205

> <Gold.Chemscore.Rot>
2.5216

> <Gold.Chemscore.Internal.Correction>
   9.000000E+99

> <Gold.Chemscore.Hbonds>
donor molecule, donor type, donor heavy atom, donor atom, acceptor molecule, acceptor atom, score
      L1  H     4    23       P1  7948  0.99
      P1  H  7989  7998       L1     7  0.98

> <Gold.Chemscore.Hbond.Weighted>
-6.5823

> <Gold.Chemscore.Metal.Weighted>
-0.0000

> <Gold.Chemscore.Lipo.Weighted>
-8.8210

> <Gold.Chemscore.Internal_Hbond.Weighted>
0.0000

> <Gold.Chemscore.DEClash.Weighted>
0.4009

> <Gold.Chemscore.DEInternal.Weighted>
1.2205

> <Gold.Chemscore.Rot.Weighted>
6.4553

> <Gold.Chemscore.Internal.Correction.Weighted>
   9.000000E+99

> <Gold.Protein.RotatedTorsions>
[ 6907 6896 6895 6894 ] final  -49.40 input  -60.11 | X-H torsion
[ 7974 7965 7964 7962 ] final -164.35 input  175.53 | X-H torsion
[ 8008 7997 7996 7995 ] final  -37.19 input   59.86 | X-H torsion
[ 10167 10162 10161 10158 ] final  -59.07 input  -65.29 | X-H torsion
[ 10718 10713 10712 10709 ] final  120.57 input   66.30 | X-H torsion
[ 10763 10752 10751 10750 ] final   39.79 input  -60.55 | X-H torsion
[ 11005 11000 10999 10996 ] final  -52.53 input  -57.11 | X-H torsion

> <Gold.Protein.ActiveResidues>
 VAL166  LYS551  ARG553  GLY616  TRP617  ASP618  TYR619  PRO620  LYS621  CYS622 
 ASP623  PHE694  ASN695  SER759  ASP760  ASP761  ALA762  ILE779  LEU786  VAL792 
 PHE793  MET794  SER795  GLU796  ALA797  LYS798  CYS799  TRP800  GLU811  SER814 

> <Gold.Protein.RotatedAtoms>
  150.8809  134.8199  159.7223 H   0  0  0  0  0  0  0  0  0  0  0  0  # atno 6907 bound_to 6896
  152.4777  134.4798  159.9672 H   0  0  0  0  0  0  0  0  0  0  0  0  # atno 6908 bound_to 6896
  151.4873  133.3494  159.2883 H   0  0  0  0  0  0  0  0  0  0  0  0  # atno 6909 bound_to 6896
  144.7299  140.2973  143.6210 H   0  0  0  0  0  0  0  0  0  0  0  0  # atno 7974 bound_to 7965
  154.4058  140.1611  156.2496 H   0  0  0  0  0  0  0  0  0  0  0  0  # atno 8008 bound_to 7997
  155.9131  140.3426  155.6091 H   0  0  0  0  0  0  0  0  0  0  0  0  # atno 8009 bound_to 7997
  155.7312  140.0780  157.2278 H   0  0  0  0  0  0  0  0  0  0  0  0  # atno 8010 bound_to 7997
  140.6158  143.2402  151.5601 H   0  0  0  0  0  0  0  0  0  0  0  0  # atno 10167 bound_to 10162
  157.5881  131.1067  150.8054 H   0  0  0  0  0  0  0  0  0  0  0  0  # atno 10718 bound_to 10713
  152.9956  135.6210  154.2521 H   0  0  0  0  0  0  0  0  0  0  0  0  # atno 10763 bound_to 10752
  154.2260  135.2794  155.2909 H   0  0  0  0  0  0  0  0  0  0  0  0  # atno 10764 bound_to 10752
  154.5489  135.5739  153.6963 H   0  0  0  0  0  0  0  0  0  0  0  0  # atno 10765 bound_to 10752
  141.0929  133.6629  156.4038 H   0  0  0  0  0  0  0  0  0  0  0  0  # atno 11005 bound_to 11000
  145.7795  139.1886  143.2166 LP  0  0  0  0  0  0  0  0  0  0  0  0  # atno 17320 bound_to 7965
  146.0845  140.7726  142.9625 LP  0  0  0  0  0  0  0  0  0  0  0  0  # atno 17321 bound_to 7965
  139.5397  144.2681  152.1326 LP  0  0  0  0  0  0  0  0  0  0  0  0  # atno 17342 bound_to 10162
  140.1890  144.4770  150.6489 LP  0  0  0  0  0  0  0  0  0  0  0  0  # atno 17343 bound_to 10162
  156.8483  130.5071  149.5314 LP  0  0  0  0  0  0  0  0  0  0  0  0  # atno 17370 bound_to 10713
  156.0932  130.5912  150.9769 LP  0  0  0  0  0  0  0  0  0  0  0  0  # atno 17371 bound_to 10713
  140.5209  134.6305  157.5318 LP  0  0  0  0  0  0  0  0  0  0  0  0  # atno 17394 bound_to 11000
  139.9759  134.7217  155.9951 LP  0  0  0  0  0  0  0  0  0  0  0  0  # atno 17395 bound_to 11000

$$$$
