AV-unprocessed.smi:775|AV-procd|sdf|3696|dock9
  -GOLD-   22720 1113D 1   1.00000     0.00000
 Structure written by MMmdl.
 39 40  0  0  0  0  0  0  0  0  2 V2000
  150.9935  138.5174  154.4846 C   0  0  0  0  0  0  0  0  0  0  0  0
  149.5871  139.1461  154.4741 C   0  0  1  0  0  0  0  0  0  0  0  0
  149.6149  140.6785  154.6664 C   0  0  0  0  0  0  0  0  0  0  0  0
  150.3144  141.1041  155.8685 N   0  0  0  0  0  0  0  0  0  0  0  0
  150.5519  142.3891  156.3113 C   0  0  0  0  0  0  0  0  0  0  0  0
  151.2449  142.2945  157.4836 C   0  0  0  0  0  0  0  0  0  0  0  0
  151.3788  140.8923  157.6846 C   0  0  0  0  0  0  0  0  0  0  0  0
  150.8193  140.1832  156.7175 N   0  0  0  0  0  0  0  0  0  0  0  0
  148.8502  138.8053  153.2359 N   0  3  0  0  0  0  0  0  0  0  0  0
  147.3781  138.9373  153.3037 C   0  0  0  0  0  0  0  0  0  0  0  0
  146.6724  138.1578  152.1827 C   0  0  0  0  0  0  0  0  0  0  0  0
  146.8220  138.5362  151.0192 O   0  0  0  0  0  0  0  0  0  0  0  0
  145.9095  137.0829  152.5034 N   0  0  0  0  0  0  0  0  0  0  0  0
  145.7204  136.5713  153.8648 C   0  0  0  0  0  0  0  0  0  0  0  0
  146.4335  135.2124  153.9755 C   0  0  0  0  0  0  0  0  0  0  0  0
  146.1409  134.3404  152.8365 N   0  0  0  0  0  0  0  0  0  0  0  0
  145.6117  134.7414  151.6658 C   0  0  0  0  0  0  0  0  0  0  0  0
  145.3855  133.9486  150.7550 O   0  0  0  0  0  0  0  0  0  0  0  0
  145.2875  136.2356  151.4727 C   0  0  0  0  0  0  0  0  0  0  0  0
  151.5604  138.8498  155.3546 H   0  0  0  0  0  0  0  0  0  0  0  0
  151.5632  138.7867  153.5948 H   0  0  0  0  0  0  0  0  0  0  0  0
  150.9487  137.4296  154.5313 H   0  0  0  0  0  0  0  0  0  0  0  0
  149.0253  138.7342  155.3138 H   0  0  0  0  0  0  0  0  0  0  0  0
  150.0884  141.1570  153.8080 H   0  0  0  0  0  0  0  0  0  0  0  0
  148.5956  141.0667  154.7043 H   0  0  0  0  0  0  0  0  0  0  0  0
  150.2138  143.2551  155.7611 H   0  0  0  0  0  0  0  0  0  0  0  0
  151.5989  143.1035  158.1053 H   0  0  0  0  0  0  0  0  0  0  0  0
  151.8617  140.3725  158.4990 H   0  0  0  0  0  0  0  0  0  0  0  0
  149.1700  139.4260  152.5060 H   0  0  0  0  0  0  0  0  0  0  0  0
  147.0282  138.5645  154.2663 H   0  0  0  0  0  0  0  0  0  0  0  0
  147.1125  139.9923  153.2283 H   0  0  0  0  0  0  0  0  0  0  0  0
  146.0550  137.2397  154.6562 H   0  0  0  0  0  0  0  0  0  0  0  0
  144.6505  136.4372  154.0330 H   0  0  0  0  0  0  0  0  0  0  0  0
  147.5130  135.3611  154.0199 H   0  0  0  0  0  0  0  0  0  0  0  0
  146.1453  134.7073  154.8977 H   0  0  0  0  0  0  0  0  0  0  0  0
  146.3493  133.3582  152.9468 H   0  0  0  0  0  0  0  0  0  0  0  0
  144.2057  136.3637  151.5235 H   0  0  0  0  0  0  0  0  0  0  0  0
  145.5797  136.5108  150.4582 H   0  0  0  0  0  0  0  0  0  0  0  0
  149.0816  137.8591  152.9683 H   0  0  0  0  0  0  0  0  0  0  0  0
  1  2  1  0  0  0  0
  1 20  1  0  0  0  0
  1 21  1  0  0  0  0
  1 22  1  0  0  0  0
  2  3  1  0  0  0  0
  2  9  1  0  0  0  0
  2 23  1  0  0  0  0
  3  4  1  0  0  0  0
  3 24  1  0  0  0  0
  3 25  1  0  0  0  0
  4  8  1  0  0  0  0
  4  5  1  0  0  0  0
  5  6  2  0  0  0  0
  5 26  1  0  0  0  0
  6  7  1  0  0  0  0
  6 27  1  0  0  0  0
  7  8  2  0  0  0  0
  7 28  1  0  0  0  0
  9 10  1  0  0  0  0
  9 29  1  0  0  0  0
  9 39  1  0  0  0  0
 10 11  1  0  0  0  0
 10 30  1  0  0  0  0
 10 31  1  0  0  0  0
 11 12  2  0  0  0  0
 11 13  1  0  0  0  0
 13 19  1  0  0  0  0
 13 14  1  0  0  0  0
 14 15  1  0  0  0  0
 14 32  1  0  0  0  0
 14 33  1  0  0  0  0
 15 16  1  0  0  0  0
 15 34  1  0  0  0  0
 15 35  1  0  0  0  0
 16 17  1  0  0  0  0
 16 36  1  0  0  0  0
 17 18  2  0  0  0  0
 17 19  1  0  0  0  0
 19 37  1  0  0  0  0
 19 38  1  0  0  0  0
M  CHG  1   9   1
M  END
> <s_m_source_file>
AV-unprocessed.smi

> <i_m_source_file_index>
775

> <i_lp_mmshare_version>
43012

> <i_f3d_flags>
0

> <s_epik_input>
bjFbY0hdW2NIXVtjSF1uMVtDSDJdW0NAQEhdKFtDSDNdKVtOSF1bQ0gyXUMoPU8pTjJbQ0gyXVtDSDJdW05IXUMoPU8pW0NIMl0y

> <s_epik_cmdline>
J2VwaWtfcHl0aG9uJywgJy1waCcsICc3LjAnLCAnLXRuJywgJzgnLCAnLW1hJywgJzIwMCcsICctbWV0YWxfYmluZGluZycsICctaW1hZScsICc8aW5maWxlLm1hZT4nLCAnLW9tYWUnLCAnPG91dGZpbGUubWFlPic=

> <r_lp_tautomer_probability>
1

> <r_epik_Ionization_Penalty>
0.165651

> <r_epik_Ionization_Penalty_Charging>
0.165647

> <r_epik_Ionization_Penalty_Neutral>
3.4358e-06

> <r_epik_State_Penalty>
0.15499

> <r_epik_Charging_Adjusted_Penalty>
0.320637

> <i_epik_Tot_Q>
1

> <i_epik_Tot_abs_Q>
1

> <r_epik_Metal_State_Penalty>
0.155003

> <b_epik_Metal_Only>
0

> <s_lp_Force_Field>
OPLS_2005

> <r_lp_Energy>
22.1436

> <b_lp_Chiralities_Consistent>
1

> <s_lp_Variant>
AV-unprocessed.smi:775-2

> <Gold.Version>
5.8.1

> <Gold.Id.Protein>
6NUR|6NUR_protein|mol2

> <Gold.PLP.Fitness>
46.7664

> <Gold.PLP.PLP>
-32.4487

> <Gold.PLP.part.hbond>
-2.9030

> <Gold.PLP.part.metal>
0.0000

> <Gold.PLP.part.buried>
-1.9307

> <Gold.PLP.part.nonpolar>
-28.5244

> <Gold.PLP.part.repulsive>
1.3953

> <Gold.PLP.ligand.clash>
0.0000

> <Gold.PLP.ligand.torsion>
0.2961

> <Gold.PLP.Chemscore.Hbond>
3.9600

> <Gold.PLP.Chemscore.CHOScore>
1.0000

> <Gold.PLP.Chemscore.Metal>
0.0000

> <Gold.Chemscore.Hbonds>
donor molecule, donor type, donor heavy atom, donor atom, acceptor molecule, acceptor atom, score
      L1  H     9    29       P1  7957  1.00
      L1  H     9    39       P1  7948  2.00
      P1  H  7954  7966       L1    12  1.00
      L1  C     5    26       P1  8028  0.86

> <Gold.PLP.Chemscore.Internal.Correction>
0.0301

> <Gold.Rescore>
     Score         DG    S(hbond)    S(metal)    S(lipo)     H(rot)  DE(clash)    DE(int)     intcor
     14.76     -16.60       2.93        0.00      59.12       2.18       0.31       1.53       ----

> <Gold.Chemscore.Fitness>
14.7571

> <Gold.Chemscore.DG>
-16.5998

> <Gold.Chemscore.ZeroCoef>
-5.4800

> <Gold.Chemscore.Hbond>
2.9313

> <Gold.Chemscore.Metal>
0.0000

> <Gold.Chemscore.Lipo>
59.1220

> <Gold.Chemscore.Internal_Hbond>
0.0000

> <Gold.Chemscore.DEClash>
0.3146

> <Gold.Chemscore.DEInternal>
1.5281

> <Gold.Chemscore.Rot>
2.1828

> <Gold.Chemscore.Internal.Correction>
   9.000000E+99

> <Gold.Chemscore.Hbonds>
donor molecule, donor type, donor heavy atom, donor atom, acceptor molecule, acceptor atom, score
      L1  H     9    29       P1  7957  0.93
      L1  H     9    39       P1  7948  0.97
      P1  H  7954  7966       L1    12  0.95

> <Gold.Chemscore.Hbond.Weighted>
-9.7905

> <Gold.Chemscore.Metal.Weighted>
-0.0000

> <Gold.Chemscore.Lipo.Weighted>
-6.9173

> <Gold.Chemscore.Internal_Hbond.Weighted>
0.0000

> <Gold.Chemscore.DEClash.Weighted>
0.3146

> <Gold.Chemscore.DEInternal.Weighted>
1.5281

> <Gold.Chemscore.Rot.Weighted>
5.5880

> <Gold.Chemscore.Internal.Correction.Weighted>
   9.000000E+99

> <Gold.Protein.RotatedTorsions>
[ 6907 6896 6895 6894 ] final -156.35 input  -60.11 | X-H torsion
[ 7974 7965 7964 7962 ] final  -10.40 input  175.53 | X-H torsion
[ 8008 7997 7996 7995 ] final -148.46 input   59.86 | X-H torsion
[ 10167 10162 10161 10158 ] final   69.77 input  -65.29 | X-H torsion
[ 10718 10713 10712 10709 ] final   56.43 input   66.30 | X-H torsion
[ 10763 10752 10751 10750 ] final  146.91 input  -60.55 | X-H torsion
[ 11005 11000 10999 10996 ] final    3.98 input  -57.11 | X-H torsion

> <Gold.Protein.ActiveResidues>
 VAL166  LYS551  ARG553  GLY616  TRP617  ASP618  TYR619  PRO620  LYS621  CYS622 
 ASP623  PHE694  ASN695  SER759  ASP760  ASP761  ALA762  ILE779  LEU786  VAL792 
 PHE793  MET794  SER795  GLU796  ALA797  LYS798  CYS799  TRP800  GLU811  SER814 

> <Gold.Protein.RotatedAtoms>
  151.2863  133.4186  159.2629 H   0  0  0  0  0  0  0  0  0  0  0  0  # atno 6907 bound_to 6896
  151.0316  134.9544  159.8124 H   0  0  0  0  0  0  0  0  0  0  0  0  # atno 6908 bound_to 6896
  152.5347  134.2824  159.9065 H   0  0  0  0  0  0  0  0  0  0  0  0  # atno 6909 bound_to 6896
  146.2222  140.2758  142.8359 H   0  0  0  0  0  0  0  0  0  0  0  0  # atno 7974 bound_to 7965
  155.5920  140.0653  157.2756 H   0  0  0  0  0  0  0  0  0  0  0  0  # atno 8008 bound_to 7997
  154.4302  140.1833  156.1131 H   0  0  0  0  0  0  0  0  0  0  0  0  # atno 8009 bound_to 7997
  156.0225  140.3315  155.7058 H   0  0  0  0  0  0  0  0  0  0  0  0  # atno 8010 bound_to 7997
  140.0642  144.5207  150.7272 H   0  0  0  0  0  0  0  0  0  0  0  0  # atno 10167 bound_to 10162
  157.5430  130.8711  149.8850 H   0  0  0  0  0  0  0  0  0  0  0  0  # atno 10718 bound_to 10713
  154.0296  135.2899  155.3370 H   0  0  0  0  0  0  0  0  0  0  0  0  # atno 10763 bound_to 10752
  154.6996  135.5194  153.8510 H   0  0  0  0  0  0  0  0  0  0  0  0  # atno 10764 bound_to 10752
  153.0645  135.6626  154.0510 H   0  0  0  0  0  0  0  0  0  0  0  0  # atno 10765 bound_to 10752
  140.5870  133.9959  155.8072 H   0  0  0  0  0  0  0  0  0  0  0  0  # atno 11005 bound_to 11000
  144.9234  140.7893  143.5734 LP  0  0  0  0  0  0  0  0  0  0  0  0  # atno 17320 bound_to 7965
  145.2696  139.1960  143.4848 LP  0  0  0  0  0  0  0  0  0  0  0  0  # atno 17321 bound_to 7965
  140.7157  143.2542  151.4441 LP  0  0  0  0  0  0  0  0  0  0  0  0  # atno 17342 bound_to 10162
  139.5875  144.1572  152.2047 LP  0  0  0  0  0  0  0  0  0  0  0  0  # atno 17343 bound_to 10162
  156.0512  130.3717  150.1196 LP  0  0  0  0  0  0  0  0  0  0  0  0  # atno 17370 bound_to 10713
  156.9375  130.9733  151.3522 LP  0  0  0  0  0  0  0  0  0  0  0  0  # atno 17371 bound_to 10713
  141.0959  133.9844  157.3160 LP  0  0  0  0  0  0  0  0  0  0  0  0  # atno 17394 bound_to 11000
  139.9291  135.0200  156.8338 LP  0  0  0  0  0  0  0  0  0  0  0  0  # atno 17395 bound_to 11000

$$$$
