AV-unprocessed.smi:3241|AV-procd|sdf|12388|dock1
  -GOLD-   2272018253D 1   1.00000     0.00000
 Structure written by MMmdl.
 44 45  0  0  0  0  0  0  0  0  2 V2000
  152.2125  144.5959  160.6113 C   0  0  0  0  0  0  0  0  0  0  0  0
  152.7175  143.2992  159.9571 C   0  0  1  0  0  0  0  0  0  0  0  0
  153.6029  142.5045  160.9381 C   0  0  0  0  0  0  0  0  0  0  0  0
  154.1152  141.1976  160.3141 C   0  0  0  0  0  0  0  0  0  0  0  0
  152.9503  140.3305  159.8173 C   0  0  0  0  0  0  0  0  0  0  0  0
  152.0684  141.1083  158.8296 C   0  0  0  0  0  0  0  0  0  0  0  0
  151.5501  142.4248  159.4459 C   0  0  2  0  0  0  0  0  0  0  0  0
  150.8499  143.1664  158.4547 O   0  0  0  0  0  0  0  0  0  0  0  0
  149.8994  142.4113  157.7186 C   0  0  0  0  0  0  0  0  0  0  0  0
  150.5288  142.0071  156.3818 C   0  0  0  0  0  0  0  0  0  0  0  0
  149.5627  142.1627  155.2773 N   0  3  0  0  0  0  0  0  0  0  0  0
  148.4834  141.1550  155.2692 C   0  0  0  0  0  0  0  0  0  0  0  0
  148.7246  140.0758  154.2017 C   0  0  0  0  0  0  0  0  0  0  0  0
  149.8724  139.2425  154.5115 N   0  0  0  0  0  0  0  0  0  0  0  0
  149.9479  137.8661  154.5465 C   0  0  0  0  0  0  0  0  0  0  0  0
  151.2314  137.5384  154.8781 C   0  0  0  0  0  0  0  0  0  0  0  0
  151.8743  138.7985  155.0297 C   0  0  0  0  0  0  0  0  0  0  0  0
  151.0589  139.8168  154.8062 N   0  0  0  0  0  0  0  0  0  0  0  0
  151.5662  144.3840  161.4636 H   0  0  0  0  0  0  0  0  0  0  0  0
  151.6443  145.2028  159.9061 H   0  0  0  0  0  0  0  0  0  0  0  0
  153.0437  145.2048  160.9683 H   0  0  0  0  0  0  0  0  0  0  0  0
  153.3346  143.5780  159.1015 H   0  0  0  0  0  0  0  0  0  0  0  0
  154.4513  143.1138  161.2520 H   0  0  0  0  0  0  0  0  0  0  0  0
  153.0373  142.2754  161.8425 H   0  0  0  0  0  0  0  0  0  0  0  0
  154.7834  141.4256  159.4828 H   0  0  0  0  0  0  0  0  0  0  0  0
  154.7065  140.6433  161.0437 H   0  0  0  0  0  0  0  0  0  0  0  0
  153.3354  139.4283  159.3415 H   0  0  0  0  0  0  0  0  0  0  0  0
  152.3491  140.0011  160.6659 H   0  0  0  0  0  0  0  0  0  0  0  0
  152.6429  141.3277  157.9288 H   0  0  0  0  0  0  0  0  0  0  0  0
  151.2368  140.4768  158.5180 H   0  0  0  0  0  0  0  0  0  0  0  0
  150.8932  142.2019  160.2893 H   0  0  0  0  0  0  0  0  0  0  0  0
  149.6148  141.5169  158.2730 H   0  0  0  0  0  0  0  0  0  0  0  0
  148.9928  142.9943  157.5485 H   0  0  0  0  0  0  0  0  0  0  0  0
  151.4174  142.6082  156.1851 H   0  0  0  0  0  0  0  0  0  0  0  0
  150.8471  140.9648  156.4289 H   0  0  0  0  0  0  0  0  0  0  0  0
  149.1415  143.0790  155.3417 H   0  0  0  0  0  0  0  0  0  0  0  0
  148.4311  140.6877  156.2533 H   0  0  0  0  0  0  0  0  0  0  0  0
  147.5245  141.6463  155.0970 H   0  0  0  0  0  0  0  0  0  0  0  0
  147.8432  139.4428  154.0859 H   0  0  0  0  0  0  0  0  0  0  0  0
  148.8989  140.5464  153.2335 H   0  0  0  0  0  0  0  0  0  0  0  0
  149.0925  137.2415  154.3344 H   0  0  0  0  0  0  0  0  0  0  0  0
  151.6478  136.5490  154.9964 H   0  0  0  0  0  0  0  0  0  0  0  0
  152.9020  139.0022  155.2918 H   0  0  0  0  0  0  0  0  0  0  0  0
  150.0651  142.1033  154.4029 H   0  0  0  0  0  0  0  0  0  0  0  0
  1  2  1  0  0  0  0
  1 19  1  0  0  0  0
  1 20  1  0  0  0  0
  1 21  1  0  0  0  0
  2  7  1  0  0  0  0
  2  3  1  0  0  0  0
  2 22  1  0  0  0  0
  3  4  1  0  0  0  0
  3 23  1  0  0  0  0
  3 24  1  0  0  0  0
  4  5  1  0  0  0  0
  4 25  1  0  0  0  0
  4 26  1  0  0  0  0
  5  6  1  0  0  0  0
  5 27  1  0  0  0  0
  5 28  1  0  0  0  0
  6  7  1  0  0  0  0
  6 29  1  0  0  0  0
  6 30  1  0  0  0  0
  7  8  1  0  0  0  0
  7 31  1  0  0  0  0
  8  9  1  0  0  0  0
  9 10  1  0  0  0  0
  9 32  1  0  0  0  0
  9 33  1  0  0  0  0
 10 11  1  0  0  0  0
 10 34  1  0  0  0  0
 10 35  1  0  0  0  0
 11 12  1  0  0  0  0
 11 36  1  0  0  0  0
 11 44  1  0  0  0  0
 12 13  1  0  0  0  0
 12 37  1  0  0  0  0
 12 38  1  0  0  0  0
 13 14  1  0  0  0  0
 13 39  1  0  0  0  0
 13 40  1  0  0  0  0
 14 18  1  0  0  0  0
 14 15  1  0  0  0  0
 15 16  2  0  0  0  0
 15 41  1  0  0  0  0
 16 17  1  0  0  0  0
 16 42  1  0  0  0  0
 17 18  2  0  0  0  0
 17 43  1  0  0  0  0
M  CHG  1  11   1
M  END
> <s_m_source_file>
AV-unprocessed.smi

> <i_m_source_file_index>
3241

> <i_lp_mmshare_version>
43012

> <i_f3d_flags>
0

> <s_epik_input>
W0NIM11bQ0BASF0xW0NIMl1bQ0gyXVtDSDJdW0NIMl1bQ0BIXTFPW0NIMl1bQ0gyXVtOSF1bQ0gyXVtDSDJdbjJbY0hdW2NIXVtjSF1uMg==

> <s_epik_cmdline>
J2VwaWtfcHl0aG9uJywgJy1waCcsICc3LjAnLCAnLXRuJywgJzgnLCAnLW1hJywgJzIwMCcsICctbWV0YWxfYmluZGluZycsICctaW1hZScsICc8aW5maWxlLm1hZT4nLCAnLW9tYWUnLCAnPG91dGZpbGUubWFlPic=

> <r_lp_tautomer_probability>
1

> <r_epik_Ionization_Penalty>
0.00924946

> <r_epik_Ionization_Penalty_Charging>
0.00924645

> <r_epik_Ionization_Penalty_Neutral>
3.00629e-06

> <r_epik_State_Penalty>
0.0070118

> <r_epik_Charging_Adjusted_Penalty>
0.0162583

> <i_epik_Tot_Q>
1

> <i_epik_Tot_abs_Q>
1

> <r_epik_Metal_State_Penalty>
0.00702523

> <b_epik_Metal_Only>
0

> <s_lp_Force_Field>
OPLS_2005

> <r_lp_Energy>
14.0519

> <b_lp_Chiralities_Consistent>
1

> <s_lp_Variant>
AV-unprocessed.smi:3241-4

> <Gold.Version>
5.8.1

> <Gold.Id.Protein>
6NUR|6NUR_protein|mol2

> <Gold.PLP.Fitness>
51.6376

> <Gold.PLP.PLP>
-41.5684

> <Gold.PLP.part.hbond>
-2.0000

> <Gold.PLP.part.metal>
0.0000

> <Gold.PLP.part.buried>
-3.6758

> <Gold.PLP.part.nonpolar>
-36.9969

> <Gold.PLP.part.repulsive>
0.3787

> <Gold.PLP.ligand.clash>
0.0128

> <Gold.PLP.ligand.torsion>
1.0669

> <Gold.PLP.Chemscore.Hbond>
3.0000

> <Gold.PLP.Chemscore.CHOScore>
0.9967

> <Gold.PLP.Chemscore.Metal>
0.0000

> <Gold.Chemscore.Hbonds>
donor molecule, donor type, donor heavy atom, donor atom, acceptor molecule, acceptor atom, score
      L1  H    11    36       P1  8028  2.00
      P1  H  7989  7998       L1    18  1.00
      L1  C    15    41       P1  7948  0.48

> <Gold.PLP.Chemscore.Internal.Correction>
0.2258

> <Gold.Rescore>
     Score         DG    S(hbond)    S(metal)    S(lipo)     H(rot)  DE(clash)    DE(int)     intcor
     18.03     -20.51       1.95        0.00     114.15       1.89       0.23       2.25       ----

> <Gold.Chemscore.Fitness>
18.0307

> <Gold.Chemscore.DG>
-20.5121

> <Gold.Chemscore.ZeroCoef>
-5.4800

> <Gold.Chemscore.Hbond>
1.9512

> <Gold.Chemscore.Metal>
0.0000

> <Gold.Chemscore.Lipo>
114.1459

> <Gold.Chemscore.Internal_Hbond>
0.0000

> <Gold.Chemscore.DEClash>
0.2335

> <Gold.Chemscore.DEInternal>
2.2479

> <Gold.Chemscore.Rot>
1.8906

> <Gold.Chemscore.Internal.Correction>
   9.000000E+99

> <Gold.Chemscore.Hbonds>
donor molecule, donor type, donor heavy atom, donor atom, acceptor molecule, acceptor atom, score
      L1  H    11    36       P1  8028  1.00
      P1  H  7989  7998       L1    18  0.67

> <Gold.Chemscore.Hbond.Weighted>
-6.5171

> <Gold.Chemscore.Metal.Weighted>
-0.0000

> <Gold.Chemscore.Lipo.Weighted>
-13.3551

> <Gold.Chemscore.Internal_Hbond.Weighted>
0.0000

> <Gold.Chemscore.DEClash.Weighted>
0.2335

> <Gold.Chemscore.DEInternal.Weighted>
2.2479

> <Gold.Chemscore.Rot.Weighted>
4.8400

> <Gold.Chemscore.Internal.Correction.Weighted>
   9.000000E+99

> <Gold.Protein.RotatedTorsions>
[ 6907 6896 6895 6894 ] final  -49.99 input  -60.11 | X-H torsion
[ 7974 7965 7964 7962 ] final  -78.36 input  175.53 | X-H torsion
[ 8008 7997 7996 7995 ] final  124.06 input   59.86 | X-H torsion
[ 10167 10162 10161 10158 ] final  178.96 input  -65.29 | X-H torsion
[ 10718 10713 10712 10709 ] final  -23.19 input   66.30 | X-H torsion
[ 10763 10752 10751 10750 ] final -141.08 input  -60.55 | X-H torsion
[ 11005 11000 10999 10996 ] final -140.83 input  -57.11 | X-H torsion

> <Gold.Protein.ActiveResidues>
 VAL166  LYS551  ARG553  GLY616  TRP617  ASP618  TYR619  PRO620  LYS621  CYS622 
 ASP623  PHE694  ASN695  SER759  ASP760  ASP761  ALA762  ILE779  LEU786  VAL792 
 PHE793  MET794  SER795  GLU796  ALA797  LYS798  CYS799  TRP800  GLU811  SER814 

> <Gold.Protein.RotatedAtoms>
  150.8750  134.8131  159.7182 H   0  0  0  0  0  0  0  0  0  0  0  0  # atno 6907 bound_to 6896
  152.4740  134.4886  159.9698 H   0  0  0  0  0  0  0  0  0  0  0  0  # atno 6908 bound_to 6896
  151.4969  133.3474  159.2898 H   0  0  0  0  0  0  0  0  0  0  0  0  # atno 6909 bound_to 6896
  145.5875  140.9436  143.1310 H   0  0  0  0  0  0  0  0  0  0  0  0  # atno 7974 bound_to 7965
  156.2788  140.2748  156.1728 H   0  0  0  0  0  0  0  0  0  0  0  0  # atno 8008 bound_to 7997
  155.0637  140.0387  157.2603 H   0  0  0  0  0  0  0  0  0  0  0  0  # atno 8009 bound_to 7997
  154.7096  140.2666  155.6647 H   0  0  0  0  0  0  0  0  0  0  0  0  # atno 8010 bound_to 7997
  139.5316  144.2618  152.0701 H   0  0  0  0  0  0  0  0  0  0  0  0  # atno 10167 bound_to 10162
  156.4944  130.4573  149.6737 H   0  0  0  0  0  0  0  0  0  0  0  0  # atno 10718 bound_to 10713
  154.8557  135.3535  154.5810 H   0  0  0  0  0  0  0  0  0  0  0  0  # atno 10763 bound_to 10752
  153.6421  135.6998  153.5242 H   0  0  0  0  0  0  0  0  0  0  0  0  # atno 10764 bound_to 10752
  153.2962  135.4220  155.1171 H   0  0  0  0  0  0  0  0  0  0  0  0  # atno 10765 bound_to 10752
  140.8384  134.2431  157.4822 H   0  0  0  0  0  0  0  0  0  0  0  0  # atno 11005 bound_to 11000
  144.7366  139.7568  143.7327 LP  0  0  0  0  0  0  0  0  0  0  0  0  # atno 17320 bound_to 7965
  146.1671  139.4807  142.9951 LP  0  0  0  0  0  0  0  0  0  0  0  0  # atno 17321 bound_to 7965
  140.2082  144.4589  150.6398 LP  0  0  0  0  0  0  0  0  0  0  0  0  # atno 17342 bound_to 10162
  140.6497  143.2222  151.6105 LP  0  0  0  0  0  0  0  0  0  0  0  0  # atno 17343 bound_to 10162
  156.3395  130.7374  151.2317 LP  0  0  0  0  0  0  0  0  0  0  0  0  # atno 17370 bound_to 10713
  157.7470  131.0407  150.4613 LP  0  0  0  0  0  0  0  0  0  0  0  0  # atno 17371 bound_to 10713
  139.8703  134.9623  156.4424 LP  0  0  0  0  0  0  0  0  0  0  0  0  # atno 17394 bound_to 11000
  140.8922  133.7840  155.9584 LP  0  0  0  0  0  0  0  0  0  0  0  0  # atno 17395 bound_to 11000

$$$$
