AV-unprocessed.smi:2083|AV-procd|sdf|8507|dock6
  -GOLD-   2272011223D 1   1.00000     0.00000
 Structure written by MMmdl.
 44 45  0  0  0  0  0  0  0  0  3 V2000
  151.2435  140.9998  156.0594 C   0  0  0  0  0  0  0  0  0  0  0  0
  151.4151  139.5780  155.6474 C   0  0  0  0  0  0  0  0  0  0  0  0
  150.5638  138.6591  155.1018 C   0  0  0  0  0  0  0  0  0  0  0  0
  151.3805  137.5050  154.9661 C   0  0  0  0  0  0  0  0  0  0  0  0
  150.8511  136.3044  154.4237 N   0  0  0  0  0  0  0  0  0  0  0  0
  150.0223  135.4129  154.9975 C   0  0  0  0  0  0  0  0  0  0  0  0
  149.6166  135.5899  156.1524 O   0  0  0  0  0  0  0  0  0  0  0  0
  149.7319  134.3744  154.1670 N   0  5  0  0  0  0  0  0  0  0  0  0
  148.7606  133.3228  154.4640 C   0  0  0  0  0  0  0  0  0  0  0  0
  148.9590  132.1095  153.4992 C   0  0  1  0  0  0  0  0  0  0  0  0
  149.6081  130.8819  154.1822 C   0  0  0  0  0  0  0  0  0  0  0  0
  147.7386  131.6831  152.7313 N   0  3  1  0  0  0  0  0  0  0  0  0
  146.8969  130.6019  153.3256 C   0  0  0  0  0  0  0  0  0  0  0  0
  145.9173  130.0455  152.2808 C   0  0  0  0  0  0  0  0  0  0  0  0
  145.0468  131.1641  151.6927 C   0  0  0  0  0  0  0  0  0  0  0  0
  145.9291  132.2832  151.1121 C   0  0  1  0  0  0  0  0  0  0  0  0
  145.0796  133.4239  150.5340 C   0  0  0  0  0  0  0  0  0  0  0  0
  146.9135  132.7975  152.1820 C   0  0  0  0  0  0  0  0  0  0  0  0
  152.6195  137.7029  155.3918 N   0  0  0  0  0  0  0  0  0  0  0  0
  152.6477  139.0320  155.8306 O   0  0  0  0  0  0  0  0  0  0  0  0
  150.3246  141.4163  155.6469 H   0  0  0  0  0  0  0  0  0  0  0  0
  152.0772  141.6086  155.7091 H   0  0  0  0  0  0  0  0  0  0  0  0
  151.1955  141.0829  157.1452 H   0  0  0  0  0  0  0  0  0  0  0  0
  149.5241  138.7925  154.8423 H   0  0  0  0  0  0  0  0  0  0  0  0
  151.1393  136.0888  153.4811 H   0  0  0  0  0  0  0  0  0  0  0  0
  148.8352  132.9715  155.4941 H   0  0  0  0  0  0  0  0  0  0  0  0
  147.7424  133.6966  154.3547 H   0  0  0  0  0  0  0  0  0  0  0  0
  149.6754  132.4260  152.7391 H   0  0  0  0  0  0  0  0  0  0  0  0
  150.6068  131.1048  154.5625 H   0  0  0  0  0  0  0  0  0  0  0  0
  149.7246  130.0641  153.4708 H   0  0  0  0  0  0  0  0  0  0  0  0
  149.0207  130.5013  155.0193 H   0  0  0  0  0  0  0  0  0  0  0  0
  147.5207  129.7877  153.6928 H   0  0  0  0  0  0  0  0  0  0  0  0
  146.3356  130.9825  154.1802 H   0  0  0  0  0  0  0  0  0  0  0  0
  146.4739  129.5541  151.4818 H   0  0  0  0  0  0  0  0  0  0  0  0
  145.2856  129.2808  152.7335 H   0  0  0  0  0  0  0  0  0  0  0  0
  144.3941  130.7571  150.9197 H   0  0  0  0  0  0  0  0  0  0  0  0
  144.3959  131.5683  152.4694 H   0  0  0  0  0  0  0  0  0  0  0  0
  146.5129  131.8612  150.2924 H   0  0  0  0  0  0  0  0  0  0  0  0
  144.4714  133.8963  151.3062 H   0  0  0  0  0  0  0  0  0  0  0  0
  144.4063  133.0578  149.7582 H   0  0  0  0  0  0  0  0  0  0  0  0
  145.7079  134.1946  150.0867 H   0  0  0  0  0  0  0  0  0  0  0  0
  146.3639  133.2887  152.9863 H   0  0  0  0  0  0  0  0  0  0  0  0
  147.5638  133.5516  151.7365 H   0  0  0  0  0  0  0  0  0  0  0  0
  148.1351  131.2574  151.9064 H   0  0  0  0  0  0  0  0  0  0  0  0
  1  2  1  0  0  0  0
  1 21  1  0  0  0  0
  1 22  1  0  0  0  0
  1 23  1  0  0  0  0
  2 20  1  0  0  0  0
  2  3  2  0  0  0  0
  3  4  1  0  0  0  0
  3 24  1  0  0  0  0
  4  5  1  0  0  0  0
  4 19  2  0  0  0  0
  5  6  1  0  0  0  0
  5 25  1  0  0  0  0
  6  7  2  0  0  0  0
  6  8  1  0  0  0  0
  8  9  1  0  0  0  0
  9 10  1  0  0  0  0
  9 26  1  0  0  0  0
  9 27  1  0  0  0  0
 10 11  1  0  0  0  0
 10 12  1  0  0  0  0
 10 28  1  0  0  0  0
 11 29  1  0  0  0  0
 11 30  1  0  0  0  0
 11 31  1  0  0  0  0
 12 18  1  0  0  0  0
 12 13  1  0  0  0  0
 12 44  1  0  0  0  0
 13 14  1  0  0  0  0
 13 32  1  0  0  0  0
 13 33  1  0  0  0  0
 14 15  1  0  0  0  0
 14 34  1  0  0  0  0
 14 35  1  0  0  0  0
 15 16  1  0  0  0  0
 15 36  1  0  0  0  0
 15 37  1  0  0  0  0
 16 17  1  0  0  0  0
 16 18  1  0  0  0  0
 16 38  1  0  0  0  0
 17 39  1  0  0  0  0
 17 40  1  0  0  0  0
 17 41  1  0  0  0  0
 18 42  1  0  0  0  0
 18 43  1  0  0  0  0
 19 20  1  0  0  0  0
M  CHG  1   8  -1
M  CHG  1  12   1
M  END
> <s_m_source_file>
AV-unprocessed.smi

> <i_m_source_file_index>
2083

> <i_lp_mmshare_version>
43012

> <i_f3d_flags>
0

> <s_epik_input>
W0NIM11jMVtjSF1jKG5vMSlbTkhdQyg9TylbTkhdW0NIMl1bQ0BIXShbQ0gzXSlOMltDSDJdW0NIMl1bQ0gyXVtDQEBIXShbQ0gzXSlbQ0gyXTI=

> <s_epik_cmdline>
J2VwaWtfcHl0aG9uJywgJy1waCcsICc3LjAnLCAnLXRuJywgJzgnLCAnLW1hJywgJzIwMCcsICctbWV0YWxfYmluZGluZycsICctaW1hZScsICc8aW5maWxlLm1hZT4nLCAnLW9tYWUnLCAnPG91dGZpbGUubWFlPic=

> <r_epik_Ionization_Penalty>
6.76934

> <r_epik_Ionization_Penalty_Charging>
6.76934

> <r_epik_Ionization_Penalty_Neutral>
5.77849e-06

> <r_epik_State_Penalty>
6.79457

> <r_epik_Charging_Adjusted_Penalty>
13.5639

> <i_epik_Tot_Q>
0

> <i_epik_Tot_abs_Q>
2

> <r_epik_Metal_State_Penalty>
2.72837

> <b_epik_Metal_Only>
1

> <s_lp_Force_Field>
OPLS_2005

> <r_lp_Energy>
21.1768

> <b_lp_Chiralities_Consistent>
1

> <s_lp_Variant>
AV-unprocessed.smi:2083-18

> <Gold.Version>
5.8.1

> <Gold.Id.Protein>
6NUR|6NUR_protein|mol2

> <Gold.PLP.Fitness>
43.8527

> <Gold.PLP.PLP>
-38.2015

> <Gold.PLP.part.hbond>
-4.7087

> <Gold.PLP.part.metal>
0.0000

> <Gold.PLP.part.buried>
-6.1419

> <Gold.PLP.part.nonpolar>
-29.2695

> <Gold.PLP.part.repulsive>
1.2077

> <Gold.PLP.ligand.clash>
0.0000

> <Gold.PLP.ligand.torsion>
1.9421

> <Gold.PLP.Chemscore.Hbond>
3.1001

> <Gold.PLP.Chemscore.CHOScore>
0.0000

> <Gold.PLP.Chemscore.Metal>
0.0000

> <Gold.Chemscore.Hbonds>
donor molecule, donor type, donor heavy atom, donor atom, acceptor molecule, acceptor atom, score
      L1  H     5    25       P1  7949  1.00
      L1  H    12    44       P1 10747  1.00
      P1  H  7997  8010       L1    20  0.93
      P1  H 10752 10765       L1    19  0.10

> <Gold.PLP.Chemscore.Internal.Correction>
0.2352

> <Gold.Rescore>
     Score         DG    S(hbond)    S(metal)    S(lipo)     H(rot)  DE(clash)    DE(int)     intcor
     16.52     -20.14       2.55        0.00      85.82       1.52       1.73       1.89       ----

> <Gold.Chemscore.Fitness>
16.5178

> <Gold.Chemscore.DG>
-20.1354

> <Gold.Chemscore.ZeroCoef>
-5.4800

> <Gold.Chemscore.Hbond>
2.5459

> <Gold.Chemscore.Metal>
0.0000

> <Gold.Chemscore.Lipo>
85.8187

> <Gold.Chemscore.Internal_Hbond>
0.0000

> <Gold.Chemscore.DEClash>
1.7259

> <Gold.Chemscore.DEInternal>
1.8917

> <Gold.Chemscore.Rot>
1.5190

> <Gold.Chemscore.Internal.Correction>
   9.000000E+99

> <Gold.Chemscore.Hbonds>
donor molecule, donor type, donor heavy atom, donor atom, acceptor molecule, acceptor atom, score
      L1  H     5    25       P1  7949  0.34
      L1  H    12    44       P1 10747  1.00
      P1  H  7997  8010       L1    20  0.88

> <Gold.Chemscore.Hbond.Weighted>
-8.5033

> <Gold.Chemscore.Metal.Weighted>
-0.0000

> <Gold.Chemscore.Lipo.Weighted>
-10.0408

> <Gold.Chemscore.Internal_Hbond.Weighted>
0.0000

> <Gold.Chemscore.DEClash.Weighted>
1.7259

> <Gold.Chemscore.DEInternal.Weighted>
1.8917

> <Gold.Chemscore.Rot.Weighted>
3.8886

> <Gold.Chemscore.Internal.Correction.Weighted>
   9.000000E+99

> <Gold.Protein.RotatedTorsions>
[ 6907 6896 6895 6894 ] final -149.88 input  -60.11 | X-H torsion
[ 7974 7965 7964 7962 ] final  -21.20 input  175.53 | X-H torsion
[ 8008 7997 7996 7995 ] final   82.59 input   59.86 | X-H torsion
[ 10167 10162 10161 10158 ] final -121.45 input  -65.29 | X-H torsion
[ 10718 10713 10712 10709 ] final -125.05 input   66.30 | X-H torsion
[ 10763 10752 10751 10750 ] final -158.93 input  -60.55 | X-H torsion
[ 11005 11000 10999 10996 ] final -126.30 input  -57.11 | X-H torsion

> <Gold.Protein.ActiveResidues>
 VAL166  LYS551  ARG553  GLY616  TRP617  ASP618  TYR619  PRO620  LYS621  CYS622 
 ASP623  PHE694  ASN695  SER759  ASP760  ASP761  ALA762  ILE779  LEU786  VAL792 
 PHE793  MET794  SER795  GLU796  ALA797  LYS798  CYS799  TRP800  GLU811  SER814 

> <Gold.Protein.RotatedAtoms>
  151.1905  133.4670  159.2594 H   0  0  0  0  0  0  0  0  0  0  0  0  # atno 6907 bound_to 6896
  151.1168  135.0057  159.8530 H   0  0  0  0  0  0  0  0  0  0  0  0  # atno 6908 bound_to 6896
  152.5454  134.1820  159.8692 H   0  0  0  0  0  0  0  0  0  0  0  0  # atno 6909 bound_to 6896
  146.1746  140.4307  142.8518 H   0  0  0  0  0  0  0  0  0  0  0  0  # atno 7974 bound_to 7965
  155.9126  140.3426  155.6110 H   0  0  0  0  0  0  0  0  0  0  0  0  # atno 8008 bound_to 7997
  155.7369  140.0802  157.2282 H   0  0  0  0  0  0  0  0  0  0  0  0  # atno 8009 bound_to 7997
  154.4058  140.1578  156.2559 H   0  0  0  0  0  0  0  0  0  0  0  0  # atno 8010 bound_to 7997
  140.0248  143.5307  152.2204 H   0  0  0  0  0  0  0  0  0  0  0  0  # atno 10167 bound_to 10162
  156.1641  130.6622  151.0090 H   0  0  0  0  0  0  0  0  0  0  0  0  # atno 10718 bound_to 10713
  154.7516  135.3094  154.8547 H   0  0  0  0  0  0  0  0  0  0  0  0  # atno 10763 bound_to 10752
  153.9332  135.6783  153.4749 H   0  0  0  0  0  0  0  0  0  0  0  0  # atno 10764 bound_to 10752
  153.1112  135.4865  154.8967 H   0  0  0  0  0  0  0  0  0  0  0  0  # atno 10765 bound_to 10752
  140.9693  134.0828  157.3887 H   0  0  0  0  0  0  0  0  0  0  0  0  # atno 11005 bound_to 11000
  144.8216  140.6560  143.6349 LP  0  0  0  0  0  0  0  0  0  0  0  0  # atno 17320 bound_to 7965
  145.4246  139.1558  143.4055 LP  0  0  0  0  0  0  0  0  0  0  0  0  # atno 17321 bound_to 7965
  139.6115  144.7610  151.2941 LP  0  0  0  0  0  0  0  0  0  0  0  0  # atno 17342 bound_to 10162
  140.7327  143.6816  150.7996 LP  0  0  0  0  0  0  0  0  0  0  0  0  # atno 17343 bound_to 10162
  157.6755  131.0851  150.7506 LP  0  0  0  0  0  0  0  0  0  0  0  0  # atno 17370 bound_to 10713
  156.7568  130.4786  149.5445 LP  0  0  0  0  0  0  0  0  0  0  0  0  # atno 17371 bound_to 10713
  139.8906  135.0113  156.6745 LP  0  0  0  0  0  0  0  0  0  0  0  0  # atno 17394 bound_to 11000
  140.7353  133.9024  155.8240 LP  0  0  0  0  0  0  0  0  0  0  0  0  # atno 17395 bound_to 11000

$$$$
