AV-unprocessed.smi:2154|AV-procd|sdf|8774|dock8
  -GOLD-   2272011553D 1   1.00000     0.00000
 Structure written by MMmdl.
 31 32  0  0  0  0  0  0  0  0  2 V2000
  153.1965  142.2290  160.6412 C   0  0  0  0  0  0  0  0  0  0  0  0
  153.1086  143.3953  159.6812 C   0  0  2  0  0  0  0  0  0  0  0  0
  152.2698  144.6098  160.0103 C   0  0  0  0  0  0  0  0  0  0  0  0
  151.8322  143.6640  158.9175 C   0  0  1  0  0  0  0  0  0  0  0  0
  151.8714  144.0851  157.4645 C   0  0  0  0  0  0  0  0  0  0  0  0
  151.0538  143.2454  156.6009 N   0  0  0  0  0  0  0  0  0  0  0  0
  151.0310  141.9024  156.5859 C   0  0  0  0  0  0  0  0  0  0  0  0
  151.7016  141.2124  157.3531 O   0  0  0  0  0  0  0  0  0  0  0  0
  150.1166  141.2074  155.5610 C   0  0  0  0  0  0  0  0  0  0  0  0
  150.4722  139.8078  155.2603 N   0  0  0  0  0  0  0  0  0  0  0  0
  149.4384  138.8552  155.2861 C   0  0  0  0  0  0  0  0  0  0  0  0
  149.6618  137.5561  155.0111 C   0  0  0  0  0  0  0  0  0  0  0  0
  151.0201  137.1443  154.6793 C   0  0  0  0  0  0  0  0  0  0  0  0
  151.2423  135.9625  154.4239 O   0  0  0  0  0  0  0  0  0  0  0  0
  151.9892  138.1057  154.6672 N   0  5  0  0  0  0  0  0  0  0  0  0
  151.7473  139.4237  154.9481 C   0  0  0  0  0  0  0  0  0  0  0  0
  152.6346  140.2768  154.9214 O   0  0  0  0  0  0  0  0  0  0  0  0
  152.2467  142.0765  161.1543 H   0  0  0  0  0  0  0  0  0  0  0  0
  153.9691  142.4146  161.3872 H   0  0  0  0  0  0  0  0  0  0  0  0
  153.4471  141.3178  160.0979 H   0  0  0  0  0  0  0  0  0  0  0  0
  154.0374  143.5895  159.1478 H   0  0  0  0  0  0  0  0  0  0  0  0
  151.7008  144.5991  160.9378 H   0  0  0  0  0  0  0  0  0  0  0  0
  152.6591  145.5821  159.7149 H   0  0  0  0  0  0  0  0  0  0  0  0
  150.9823  143.0284  159.1606 H   0  0  0  0  0  0  0  0  0  0  0  0
  151.5571  145.1283  157.4095 H   0  0  0  0  0  0  0  0  0  0  0  0
  152.9003  144.0501  157.1041 H   0  0  0  0  0  0  0  0  0  0  0  0
  150.4705  143.7242  155.9293 H   0  0  0  0  0  0  0  0  0  0  0  0
  149.0881  141.2652  155.9209 H   0  0  0  0  0  0  0  0  0  0  0  0
  150.1266  141.7994  154.6449 H   0  0  0  0  0  0  0  0  0  0  0  0
  148.4618  139.2436  155.5348 H   0  0  0  0  0  0  0  0  0  0  0  0
  148.8556  136.8377  155.0326 H   0  0  0  0  0  0  0  0  0  0  0  0
  1  2  1  0  0  0  0
  1 18  1  0  0  0  0
  1 19  1  0  0  0  0
  1 20  1  0  0  0  0
  2  4  1  0  0  0  0
  2  3  1  0  0  0  0
  2 21  1  0  0  0  0
  3  4  1  0  0  0  0
  3 22  1  0  0  0  0
  3 23  1  0  0  0  0
  4  5  1  0  0  0  0
  4 24  1  0  0  0  0
  5  6  1  0  0  0  0
  5 25  1  0  0  0  0
  5 26  1  0  0  0  0
  6  7  1  0  0  0  0
  6 27  1  0  0  0  0
  7  8  2  0  0  0  0
  7  9  1  0  0  0  0
  9 10  1  0  0  0  0
  9 28  1  0  0  0  0
  9 29  1  0  0  0  0
 10 16  1  0  0  0  0
 10 11  1  0  0  0  0
 11 12  2  0  0  0  0
 11 30  1  0  0  0  0
 12 13  1  0  0  0  0
 12 31  1  0  0  0  0
 13 14  2  0  0  0  0
 13 15  1  0  0  0  0
 15 16  1  0  0  0  0
 16 17  2  0  0  0  0
M  CHG  1  15  -1
M  END
> <s_m_source_file>
AV-unprocessed.smi

> <i_m_source_file_index>
2154

> <i_lp_mmshare_version>
43012

> <i_f3d_flags>
0

> <s_epik_input>
W0NIM11bQ0BASF0xW0NIMl1bQ0BIXTFbQ0gyXVtOSF1DKD1PKVtDSDJdbjJbY0hdW2NIXWMoPU8pW25IXWMyPU8=

> <s_epik_cmdline>
J2VwaWtfcHl0aG9uJywgJy1waCcsICc3LjAnLCAnLXRuJywgJzgnLCAnLW1hJywgJzIwMCcsICctbWV0YWxfYmluZGluZycsICctaW1hZScsICc8aW5maWxlLm1hZT4nLCAnLW9tYWUnLCAnPG91dGZpbGUubWFlPic=

> <r_lp_tautomer_probability>
0.999537

> <r_epik_Ionization_Penalty>
3.12283

> <r_epik_Ionization_Penalty_Charging>
2.83566e-08

> <r_epik_Ionization_Penalty_Neutral>
3.12283

> <r_epik_State_Penalty>
3.12192

> <r_epik_Charging_Adjusted_Penalty>
3.12192

> <i_epik_Tot_Q>
-1

> <i_epik_Tot_abs_Q>
1

> <r_epik_Metal_State_Penalty>
0.463748

> <b_epik_Metal_Only>
1

> <s_lp_Force_Field>
OPLS_2005

> <r_lp_Energy>
23.7869

> <b_lp_Chiralities_Consistent>
1

> <s_lp_Variant>
AV-unprocessed.smi:2154-5

> <Gold.Version>
5.8.1

> <Gold.Id.Protein>
6NUR|6NUR_protein|mol2

> <Gold.PLP.Fitness>
45.0031

> <Gold.PLP.PLP>
-37.2638

> <Gold.PLP.part.hbond>
-4.0000

> <Gold.PLP.part.metal>
0.0000

> <Gold.PLP.part.buried>
-3.6299

> <Gold.PLP.part.nonpolar>
-30.6901

> <Gold.PLP.part.repulsive>
0.3228

> <Gold.PLP.ligand.clash>
0.0000

> <Gold.PLP.ligand.torsion>
0.9235

> <Gold.PLP.Chemscore.Hbond>
3.0168

> <Gold.PLP.Chemscore.CHOScore>
0.0000

> <Gold.PLP.Chemscore.Metal>
0.0000

> <Gold.Chemscore.Hbonds>
donor molecule, donor type, donor heavy atom, donor atom, acceptor molecule, acceptor atom, score
      L1  H     6    27       P1  8028  0.93
      P1  H  7989  7998       L1    17  0.06
      P1  H  7997  8009       L1    17  0.89
      P1  H 10752 10763       L1    14  1.00

> <Gold.PLP.Chemscore.Internal.Correction>
0.5359

> <Gold.Rescore>
     Score         DG    S(hbond)    S(metal)    S(lipo)     H(rot)  DE(clash)    DE(int)     intcor
     14.31     -17.66       2.69        0.00      70.18       1.96       0.75       2.60       ----

> <Gold.Chemscore.Fitness>
14.3095

> <Gold.Chemscore.DG>
-17.6636

> <Gold.Chemscore.ZeroCoef>
-5.4800

> <Gold.Chemscore.Hbond>
2.6925

> <Gold.Chemscore.Metal>
0.0000

> <Gold.Chemscore.Lipo>
70.1769

> <Gold.Chemscore.Internal_Hbond>
0.0000

> <Gold.Chemscore.DEClash>
0.7496

> <Gold.Chemscore.DEInternal>
2.6046

> <Gold.Chemscore.Rot>
1.9609

> <Gold.Chemscore.Internal.Correction>
   9.000000E+99

> <Gold.Chemscore.Hbonds>
donor molecule, donor type, donor heavy atom, donor atom, acceptor molecule, acceptor atom, score
      L1  H     6    27       P1  8028  0.90
      P1  H  7997  8009       L1    17  0.86
      P1  H 10752 10763       L1    14  0.82

> <Gold.Chemscore.Hbond.Weighted>
-8.9929

> <Gold.Chemscore.Metal.Weighted>
-0.0000

> <Gold.Chemscore.Lipo.Weighted>
-8.2107

> <Gold.Chemscore.Internal_Hbond.Weighted>
0.0000

> <Gold.Chemscore.DEClash.Weighted>
0.7496

> <Gold.Chemscore.DEInternal.Weighted>
2.6046

> <Gold.Chemscore.Rot.Weighted>
5.0200

> <Gold.Chemscore.Internal.Correction.Weighted>
   9.000000E+99

> <Gold.Protein.RotatedTorsions>
[ 6907 6896 6895 6894 ] final  -45.05 input  -60.11 | X-H torsion
[ 7974 7965 7964 7962 ] final   53.81 input  175.53 | X-H torsion
[ 8008 7997 7996 7995 ] final -145.28 input   59.86 | X-H torsion
[ 10167 10162 10161 10158 ] final  137.79 input  -65.29 | X-H torsion
[ 10718 10713 10712 10709 ] final   72.88 input   66.30 | X-H torsion
[ 10763 10752 10751 10750 ] final   60.06 input  -60.55 | X-H torsion
[ 11005 11000 10999 10996 ] final   81.33 input  -57.11 | X-H torsion

> <Gold.Protein.ActiveResidues>
 VAL166  LYS551  ARG553  GLY616  TRP617  ASP618  TYR619  PRO620  LYS621  CYS622 
 ASP623  PHE694  ASN695  SER759  ASP760  ASP761  ALA762  ILE779  LEU786  VAL792 
 PHE793  MET794  SER795  GLU796  ALA797  LYS798  CYS799  TRP800  GLU811  SER814 

> <Gold.Protein.RotatedAtoms>
  150.9262  134.8678  159.7521 H   0  0  0  0  0  0  0  0  0  0  0  0  # atno 6907 bound_to 6896
  152.5016  134.4146  159.9470 H   0  0  0  0  0  0  0  0  0  0  0  0  # atno 6908 bound_to 6896
  151.4176  133.3668  159.2787 H   0  0  0  0  0  0  0  0  0  0  0  0  # atno 6909 bound_to 6896
  145.9674  139.4116  143.0211 H   0  0  0  0  0  0  0  0  0  0  0  0  # atno 7974 bound_to 7965
  155.5407  140.0608  157.2870 H   0  0  0  0  0  0  0  0  0  0  0  0  # atno 8008 bound_to 7997
  154.4453  140.1920  156.0631 H   0  0  0  0  0  0  0  0  0  0  0  0  # atno 8009 bound_to 7997
  156.0587  140.3275  155.7439 H   0  0  0  0  0  0  0  0  0  0  0  0  # atno 8010 bound_to 7997
  139.5132  144.6390  151.5619 H   0  0  0  0  0  0  0  0  0  0  0  0  # atno 10167 bound_to 10162
  157.6522  130.9601  150.0991 H   0  0  0  0  0  0  0  0  0  0  0  0  # atno 10718 bound_to 10713
  152.9911  135.5549  154.5813 H   0  0  0  0  0  0  0  0  0  0  0  0  # atno 10763 bound_to 10752
  154.5194  135.2807  155.1278 H   0  0  0  0  0  0  0  0  0  0  0  0  # atno 10764 bound_to 10752
  154.2637  135.6376  153.5337 H   0  0  0  0  0  0  0  0  0  0  0  0  # atno 10765 bound_to 10752
  139.9102  134.7988  156.2027 H   0  0  0  0  0  0  0  0  0  0  0  0  # atno 11005 bound_to 11000
  145.7955  140.9795  143.1026 LP  0  0  0  0  0  0  0  0  0  0  0  0  # atno 17320 bound_to 7965
  144.6829  139.9736  143.7482 LP  0  0  0  0  0  0  0  0  0  0  0  0  # atno 17321 bound_to 7965
  140.6150  143.9366  150.6481 LP  0  0  0  0  0  0  0  0  0  0  0  0  # atno 17342 bound_to 10162
  140.2621  143.3516  152.1314 LP  0  0  0  0  0  0  0  0  0  0  0  0  # atno 17343 bound_to 10162
  156.1919  130.3655  149.8899 LP  0  0  0  0  0  0  0  0  0  0  0  0  # atno 17370 bound_to 10713
  156.6825  130.8864  151.3577 LP  0  0  0  0  0  0  0  0  0  0  0  0  # atno 17371 bound_to 10713
  141.0515  133.6886  156.1780 LP  0  0  0  0  0  0  0  0  0  0  0  0  # atno 17394 bound_to 11000
  140.6803  134.4774  157.5589 LP  0  0  0  0  0  0  0  0  0  0  0  0  # atno 17395 bound_to 11000

$$$$
