AV-unprocessed.smi:40|AV-procd|sdf|369|dock4
  -GOLD-   2262016213D 1   1.00000     0.00000
 Structure written by MMmdl.
 47 48  0  0  0  0  0  0  0  0  1 V2000
  151.1590  145.4580  159.7124 C   0  0  0  0  0  0  0  0  0  0  0  0
  152.3218  144.5906  160.2065 C   0  0  0  0  0  0  0  0  0  0  0  0
  152.2143  143.1343  159.7321 C   0  0  0  0  0  0  0  0  0  0  0  0
  153.3190  142.2424  160.3140 C   0  0  0  0  0  0  0  0  0  0  0  0
  153.2256  140.7942  159.8092 C   0  0  0  0  0  0  0  0  0  0  0  0
  152.9269  140.7636  158.4204 O   0  0  0  0  0  0  0  0  0  0  0  0
  151.6479  140.6978  157.9869 C   0  0  0  0  0  0  0  0  0  0  0  0
  150.6807  141.1394  158.6066 O   0  0  0  0  0  0  0  0  0  0  0  0
  151.5751  140.0704  156.6832 N   0  0  0  0  0  0  0  0  0  0  0  0
  150.4566  139.8455  155.9607 C   0  0  0  0  0  0  0  0  0  0  0  0
  149.3630  140.4961  156.3128 N   0  0  0  0  0  0  0  0  0  0  0  0
  148.1643  140.3735  155.6621 C   0  0  0  0  0  0  0  0  0  0  0  0
  147.1867  141.0322  156.0136 O   0  0  0  0  0  0  0  0  0  0  0  0
  148.1052  139.4764  154.5699 N   0  0  0  0  0  0  0  0  0  0  0  0
  146.8081  139.3321  153.8108 C   0  0  2  0  0  0  0  0  0  0  0  0
  146.1697  138.1568  154.2264 O   0  0  0  0  0  0  0  0  0  0  0  0
  145.7987  137.3616  153.1042 C   0  0  1  0  0  0  0  0  0  0  0  0
  144.3267  137.6500  152.7569 C   0  0  0  0  0  0  0  0  0  0  0  0
  146.8235  137.7544  152.0350 C   0  0  1  0  0  0  0  0  0  0  0  0
  146.4349  137.4687  150.7050 O   0  0  0  0  0  0  0  0  0  0  0  0
  147.0883  139.2308  152.3015 C   0  0  1  0  0  0  0  0  0  0  0  0
  146.2363  140.0874  151.5632 O   0  0  0  0  0  0  0  0  0  0  0  0
  149.2425  138.7805  154.1878 C   0  0  0  0  0  0  0  0  0  0  0  0
  150.4161  138.9230  154.8395 C   0  0  0  0  0  0  0  0  0  0  0  0
  151.4954  138.2181  154.4573 F   0  0  0  0  0  0  0  0  0  0  0  0
  146.1868  140.1845  154.0909 H   0  0  0  0  0  0  0  0  0  0  0  0
  145.8989  136.3058  153.3580 H   0  0  0  0  0  0  0  0  0  0  0  0
  147.7435  137.2030  152.2350 H   0  0  0  0  0  0  0  0  0  0  0  0
  148.1207  139.4996  152.0727 H   0  0  0  0  0  0  0  0  0  0  0  0
  151.2608  146.4833  160.0686 H   0  0  0  0  0  0  0  0  0  0  0  0
  150.2025  145.0752  160.0693 H   0  0  0  0  0  0  0  0  0  0  0  0
  151.1242  145.4864  158.6230 H   0  0  0  0  0  0  0  0  0  0  0  0
  153.2623  145.0201  159.8594 H   0  0  0  0  0  0  0  0  0  0  0  0
  152.3530  144.6193  161.2962 H   0  0  0  0  0  0  0  0  0  0  0  0
  151.2397  142.7321  160.0121 H   0  0  0  0  0  0  0  0  0  0  0  0
  152.2605  143.1031  158.6428 H   0  0  0  0  0  0  0  0  0  0  0  0
  154.2947  142.6533  160.0519 H   0  0  0  0  0  0  0  0  0  0  0  0
  153.2593  142.2571  161.4029 H   0  0  0  0  0  0  0  0  0  0  0  0
  154.1445  140.2461  160.0230 H   0  0  0  0  0  0  0  0  0  0  0  0
  152.4244  140.2756  160.3361 H   0  0  0  0  0  0  0  0  0  0  0  0
  152.4550  139.7308  156.3235 H   0  0  0  0  0  0  0  0  0  0  0  0
  144.0006  137.0645  151.8971 H   0  0  0  0  0  0  0  0  0  0  0  0
  144.1566  138.7019  152.5293 H   0  0  0  0  0  0  0  0  0  0  0  0
  143.6782  137.3890  153.5935 H   0  0  0  0  0  0  0  0  0  0  0  0
  145.6522  137.9633  150.5140 H   0  0  0  0  0  0  0  0  0  0  0  0
  145.4672  140.2651  152.0836 H   0  0  0  0  0  0  0  0  0  0  0  0
  149.2082  138.1016  153.3483 H   0  0  0  0  0  0  0  0  0  0  0  0
  1  2  1  0  0  0  0
  1 30  1  0  0  0  0
  1 31  1  0  0  0  0
  1 32  1  0  0  0  0
  2  3  1  0  0  0  0
  2 33  1  0  0  0  0
  2 34  1  0  0  0  0
  3  4  1  0  0  0  0
  3 35  1  0  0  0  0
  3 36  1  0  0  0  0
  4  5  1  0  0  0  0
  4 37  1  0  0  0  0
  4 38  1  0  0  0  0
  5  6  1  0  0  0  0
  5 39  1  0  0  0  0
  5 40  1  0  0  0  0
  6  7  1  0  0  0  0
  7  8  2  0  0  0  0
  7  9  1  0  0  0  0
  9 10  1  0  0  0  0
  9 41  1  0  0  0  0
 10 24  1  0  0  0  0
 10 11  2  0  0  0  0
 11 12  1  0  0  0  0
 12 13  2  0  0  0  0
 12 14  1  0  0  0  0
 14 15  1  0  0  0  0
 14 23  1  0  0  0  0
 15 26  1  0  0  0  0
 15 21  1  0  0  0  0
 15 16  1  0  0  0  0
 16 17  1  0  0  0  0
 17 27  1  0  0  0  0
 17 18  1  0  0  0  0
 17 19  1  0  0  0  0
 18 42  1  0  0  0  0
 18 43  1  0  0  0  0
 18 44  1  0  0  0  0
 19 28  1  0  0  0  0
 19 20  1  0  0  0  0
 19 21  1  0  0  0  0
 20 45  1  0  0  0  0
 21 29  1  0  0  0  0
 21 22  1  0  0  0  0
 22 46  1  0  0  0  0
 23 24  2  0  0  0  0
 23 47  1  0  0  0  0
 24 25  1  0  0  0  0
M  END
> <s_m_source_file>
AV-unprocessed.smi

> <i_m_source_file_index>
40

> <i_lp_mmshare_version>
43012

> <i_f3d_flags>
0

> <s_epik_input>
W0NIM11bQ0gyXVtDSDJdW0NIMl1bQ0gyXU9DKD1PKVtOSF1jMW5jKD1PKW4oW2NIXWMxRilbQ0BASF0yT1tDQEhdKFtDSDNdKVtDQEBIXShbT0hdKVtDQEhdMltPSF0=

> <s_epik_cmdline>
J2VwaWtfcHl0aG9uJywgJy1waCcsICc3LjAnLCAnLXRuJywgJzgnLCAnLW1hJywgJzIwMCcsICctbWV0YWxfYmluZGluZycsICctaW1hZScsICc8aW5maWxlLm1hZT4nLCAnLW9tYWUnLCAnPG91dGZpbGUubWFlPic=

> <r_lp_tautomer_probability>
1

> <r_epik_Ionization_Penalty>
2.29506e-06

> <r_epik_Ionization_Penalty_Charging>
8.26867e-09

> <r_epik_Ionization_Penalty_Neutral>
2.2868e-06

> <r_epik_State_Penalty>
-0

> <r_epik_Charging_Adjusted_Penalty>
8.26867e-09

> <i_epik_Tot_Q>
0

> <i_epik_Tot_abs_Q>
0

> <r_epik_Metal_State_Penalty>
-0

> <b_epik_Metal_Only>
0

> <s_epik_Chemistry_Notes>
This compound has an ester and may undergo hydrolysis at high or low pH. This compound contains an acetal/aminal-like group ( X-CH(R)-Y where X, Y are N, S, or O) that may be acid/base labile, releasing an aldehyde.

> <s_lp_Force_Field>
OPLS_2005

> <r_lp_Energy>
36.9864

> <b_lp_Chiralities_Consistent>
1

> <s_lp_Variant>
AV-unprocessed.smi:40-3

> <Gold.Version>
5.8.1

> <Gold.Id.Protein>
6NUR|6NUR_protein|mol2

> <Gold.PLP.Fitness>
46.3030

> <Gold.PLP.PLP>
-37.1350

> <Gold.PLP.part.hbond>
-5.1559

> <Gold.PLP.part.metal>
0.0000

> <Gold.PLP.part.buried>
5.5539

> <Gold.PLP.part.nonpolar>
-37.5198

> <Gold.PLP.part.repulsive>
0.2917

> <Gold.PLP.ligand.clash>
0.0000

> <Gold.PLP.ligand.torsion>
1.2764

> <Gold.PLP.Chemscore.Hbond>
2.8250

> <Gold.PLP.Chemscore.CHOScore>
1.0647

> <Gold.PLP.Chemscore.Metal>
0.0000

> <Gold.Chemscore.Hbonds>
donor molecule, donor type, donor heavy atom, donor atom, acceptor molecule, acceptor atom, score
      L1  H    20    45       P1 10171  1.00
      L1  H    22    46       P1 10175  1.00
      P1  H  7954  7966       L1    20  0.85
      L1  C    23    47       P1  7948  1.00

> <Gold.PLP.Chemscore.Internal.Correction>
0.0515

> <Gold.Rescore>
     Score         DG    S(hbond)    S(metal)    S(lipo)     H(rot)  DE(clash)    DE(int)     intcor
      6.55     -13.09       2.01        0.00      88.46       3.70       1.79       4.75       ----

> <Gold.Chemscore.Fitness>
6.5465

> <Gold.Chemscore.DG>
-13.0925

> <Gold.Chemscore.ZeroCoef>
-5.4800

> <Gold.Chemscore.Hbond>
2.0129

> <Gold.Chemscore.Metal>
0.0000

> <Gold.Chemscore.Lipo>
88.4633

> <Gold.Chemscore.Internal_Hbond>
0.0000

> <Gold.Chemscore.DEClash>
1.7949

> <Gold.Chemscore.DEInternal>
4.7511

> <Gold.Chemscore.Rot>
3.6957

> <Gold.Chemscore.Internal.Correction>
   9.000000E+99

> <Gold.Chemscore.Hbonds>
donor molecule, donor type, donor heavy atom, donor atom, acceptor molecule, acceptor atom, score
      L1  H    20    45       P1 10171  0.96
      L1  H    22    46       P1 10175  0.39
      P1  H  7954  7966       L1    20  0.14

> <Gold.Chemscore.Hbond.Weighted>
-6.7232

> <Gold.Chemscore.Metal.Weighted>
-0.0000

> <Gold.Chemscore.Lipo.Weighted>
-10.3502

> <Gold.Chemscore.Internal_Hbond.Weighted>
0.0000

> <Gold.Chemscore.DEClash.Weighted>
1.7949

> <Gold.Chemscore.DEInternal.Weighted>
4.7511

> <Gold.Chemscore.Rot.Weighted>
9.4610

> <Gold.Chemscore.Internal.Correction.Weighted>
   9.000000E+99

> <Gold.Protein.RotatedTorsions>
[ 6907 6896 6895 6894 ] final  -70.35 input  -60.11 | X-H torsion
[ 7974 7965 7964 7962 ] final -125.25 input  175.53 | X-H torsion
[ 8008 7997 7996 7995 ] final -158.98 input   59.86 | X-H torsion
[ 10167 10162 10161 10158 ] final   35.33 input  -65.29 | X-H torsion
[ 10718 10713 10712 10709 ] final  -31.47 input   66.30 | X-H torsion
[ 10763 10752 10751 10750 ] final -107.17 input  -60.55 | X-H torsion
[ 11005 11000 10999 10996 ] final  119.46 input  -57.11 | X-H torsion

> <Gold.Protein.ActiveResidues>
 VAL166  LYS551  ARG553  GLY616  TRP617  ASP618  TYR619  PRO620  LYS621  CYS622 
 ASP623  PHE694  ASN695  SER759  ASP760  ASP761  ALA762  ILE779  LEU786  VAL792 
 PHE793  MET794  SER795  GLU796  ALA797  LYS798  CYS799  TRP800  GLU811  SER814 

> <Gold.Protein.RotatedAtoms>
  150.7262  134.5466  159.5773 H   0  0  0  0  0  0  0  0  0  0  0  0  # atno 6907 bound_to 6896
  152.2964  134.7660  160.0376 H   0  0  0  0  0  0  0  0  0  0  0  0  # atno 6908 bound_to 6896
  151.8255  133.3365  159.3634 H   0  0  0  0  0  0  0  0  0  0  0  0  # atno 6909 bound_to 6896
  144.9996  140.7808  143.4504 H   0  0  0  0  0  0  0  0  0  0  0  0  # atno 7974 bound_to 7965
  155.7558  140.0832  157.2179 H   0  0  0  0  0  0  0  0  0  0  0  0  # atno 8008 bound_to 7997
  154.4008  140.1552  156.2832 H   0  0  0  0  0  0  0  0  0  0  0  0  # atno 8009 bound_to 7997
  155.8887  140.3416  155.5943 H   0  0  0  0  0  0  0  0  0  0  0  0  # atno 8010 bound_to 7997
  140.4232  144.1430  150.6150 H   0  0  0  0  0  0  0  0  0  0  0  0  # atno 10167 bound_to 10162
  156.3869  130.4366  149.7425 H   0  0  0  0  0  0  0  0  0  0  0  0  # atno 10718 bound_to 10713
  154.8058  135.4685  154.0389 H   0  0  0  0  0  0  0  0  0  0  0  0  # atno 10763 bound_to 10752
  153.1859  135.6848  153.8423 H   0  0  0  0  0  0  0  0  0  0  0  0  # atno 10764 bound_to 10752
  153.7957  135.3237  155.3361 H   0  0  0  0  0  0  0  0  0  0  0  0  # atno 10765 bound_to 10752
  139.9147  134.9628  156.7659 H   0  0  0  0  0  0  0  0  0  0  0  0  # atno 11005 bound_to 11000
  145.2172  139.2176  143.5112 LP  0  0  0  0  0  0  0  0  0  0  0  0  # atno 17320 bound_to 7965
  146.3449  140.2022  142.8589 LP  0  0  0  0  0  0  0  0  0  0  0  0  # atno 17321 bound_to 7965
  140.4511  143.2486  151.9347 LP  0  0  0  0  0  0  0  0  0  0  0  0  # atno 17342 bound_to 10162
  139.4783  144.5562  151.8311 LP  0  0  0  0  0  0  0  0  0  0  0  0  # atno 17343 bound_to 10162
  156.4493  130.7899  151.2920 LP  0  0  0  0  0  0  0  0  0  0  0  0  # atno 17370 bound_to 10713
  157.7496  131.0100  150.3290 LP  0  0  0  0  0  0  0  0  0  0  0  0  # atno 17371 bound_to 10713
  140.6660  133.9602  155.7830 LP  0  0  0  0  0  0  0  0  0  0  0  0  # atno 17394 bound_to 11000
  141.0610  134.0345  157.3658 LP  0  0  0  0  0  0  0  0  0  0  0  0  # atno 17395 bound_to 11000

$$$$
