AV-unprocessed.smi:1259|AV-procd|sdf|5291|dock7
  -GOLD-   22720 4413D 1   1.00000     0.00000
 Structure written by MMmdl.
 34 35  0  0  0  0  0  0  0  0  1 V2000
  153.9541  141.4959  161.4318 C   0  0  0  0  0  0  0  0  0  0  0  0
  153.1592  142.1262  160.3265 C   0  0  0  0  0  0  0  0  0  0  0  0
  152.2912  141.4863  159.3947 C   0  0  0  0  0  0  0  0  0  0  0  0
  151.8463  142.5308  158.6312 C   0  0  0  0  0  0  0  0  0  0  0  0
  150.9877  142.5145  157.5771 N   0  0  0  0  0  0  0  0  0  0  0  0
  150.4499  141.4556  156.9468 C   0  0  0  0  0  0  0  0  0  0  0  0
  150.6631  140.2754  157.2251 O   0  0  0  0  0  0  0  0  0  0  0  0
  149.6343  141.8469  155.9568 N   0  0  0  0  0  0  0  0  0  0  0  0
  148.8778  140.9568  155.0818 C   0  0  2  0  0  0  0  0  0  0  0  0
  149.8401  139.9217  154.4832 C   0  0  0  0  0  0  0  0  0  0  0  0
  148.1200  141.6882  153.9863 C   0  0  0  0  0  0  0  0  0  0  0  0
  146.6730  142.0860  154.1597 C   0  0  0  0  0  0  0  0  0  0  0  0
  147.0448  140.9912  153.1868 C   0  0  0  0  0  0  0  0  0  0  0  0
  152.4191  143.6952  159.0931 N   0  0  0  0  0  0  0  0  0  0  0  0
  152.2649  145.0545  158.6127 C   0  0  0  0  0  0  0  0  0  0  0  0
  153.2322  143.4394  160.1407 N   0  0  0  0  0  0  0  0  0  0  0  0
  153.7631  140.4243  161.4925 H   0  0  0  0  0  0  0  0  0  0  0  0
  153.6998  141.9327  162.3979 H   0  0  0  0  0  0  0  0  0  0  0  0
  155.0240  141.6334  161.2735 H   0  0  0  0  0  0  0  0  0  0  0  0
  152.0513  140.4366  159.3175 H   0  0  0  0  0  0  0  0  0  0  0  0
  150.7151  143.4227  157.2311 H   0  0  0  0  0  0  0  0  0  0  0  0
  149.5205  142.8377  155.8005 H   0  0  0  0  0  0  0  0  0  0  0  0
  148.1522  140.4102  155.6873 H   0  0  0  0  0  0  0  0  0  0  0  0
  149.3053  139.2009  153.8643 H   0  0  0  0  0  0  0  0  0  0  0  0
  150.3540  139.3625  155.2659 H   0  0  0  0  0  0  0  0  0  0  0  0
  150.5980  140.3972  153.8595 H   0  0  0  0  0  0  0  0  0  0  0  0
  148.7388  142.3855  153.4239 H   0  0  0  0  0  0  0  0  0  0  0  0
  146.1691  141.7890  155.0773 H   0  0  0  0  0  0  0  0  0  0  0  0
  146.3639  143.0442  153.7473 H   0  0  0  0  0  0  0  0  0  0  0  0
  146.9819  141.2185  152.1246 H   0  0  0  0  0  0  0  0  0  0  0  0
  146.7891  139.9694  153.4611 H   0  0  0  0  0  0  0  0  0  0  0  0
  152.8492  145.1875  157.7023 H   0  0  0  0  0  0  0  0  0  0  0  0
  152.6085  145.7666  159.3640 H   0  0  0  0  0  0  0  0  0  0  0  0
  151.2154  145.2544  158.3958 H   0  0  0  0  0  0  0  0  0  0  0  0
  1  2  1  0  0  0  0
  1 17  1  0  0  0  0
  1 18  1  0  0  0  0
  1 19  1  0  0  0  0
  2 16  2  0  0  0  0
  2  3  1  0  0  0  0
  3  4  2  0  0  0  0
  3 20  1  0  0  0  0
  4  5  1  0  0  0  0
  4 14  1  0  0  0  0
  5  6  1  0  0  0  0
  5 21  1  0  0  0  0
  6  7  2  0  0  0  0
  6  8  1  0  0  0  0
  8  9  1  0  0  0  0
  8 22  1  0  0  0  0
  9 10  1  0  0  0  0
  9 11  1  0  0  0  0
  9 23  1  0  0  0  0
 10 24  1  0  0  0  0
 10 25  1  0  0  0  0
 10 26  1  0  0  0  0
 11 13  1  0  0  0  0
 11 12  1  0  0  0  0
 11 27  1  0  0  0  0
 12 13  1  0  0  0  0
 12 28  1  0  0  0  0
 12 29  1  0  0  0  0
 13 30  1  0  0  0  0
 13 31  1  0  0  0  0
 14 15  1  0  0  0  0
 14 16  1  0  0  0  0
 15 32  1  0  0  0  0
 15 33  1  0  0  0  0
 15 34  1  0  0  0  0
M  END
> <s_m_source_file>
AV-unprocessed.smi

> <i_m_source_file_index>
1259

> <i_lp_mmshare_version>
43012

> <i_f3d_flags>
0

> <s_epik_input>
W0NIM11jMVtjSF1jKG4objEpW0NIM10pW05IXUMoPU8pW05IXVtDQEhdKFtDSDNdKVtDSF0yW0NIMl1bQ0gyXTI=

> <s_epik_cmdline>
J2VwaWtfcHl0aG9uJywgJy1waCcsICc3LjAnLCAnLXRuJywgJzgnLCAnLW1hJywgJzIwMCcsICctbWV0YWxfYmluZGluZycsICctaW1hZScsICc8aW5maWxlLm1hZT4nLCAnLW9tYWUnLCAnPG91dGZpbGUubWFlPic=

> <r_lp_tautomer_probability>
1

> <r_epik_Ionization_Penalty>
0.000100032

> <r_epik_Ionization_Penalty_Charging>
0

> <r_epik_Ionization_Penalty_Neutral>
0.000100032

> <r_epik_State_Penalty>
-0

> <r_epik_Charging_Adjusted_Penalty>
0

> <i_epik_Tot_Q>
0

> <i_epik_Tot_abs_Q>
0

> <r_epik_Metal_State_Penalty>
-0

> <b_epik_Metal_Only>
0

> <s_lp_Force_Field>
OPLS_2005

> <r_lp_Energy>
14.2457

> <b_lp_Chiralities_Consistent>
1

> <s_lp_Variant>
AV-unprocessed.smi:1259-1

> <Gold.Version>
5.8.1

> <Gold.Id.Protein>
6NUR|6NUR_protein|mol2

> <Gold.PLP.Fitness>
41.4593

> <Gold.PLP.PLP>
-38.6277

> <Gold.PLP.part.hbond>
-1.0000

> <Gold.PLP.part.metal>
0.0000

> <Gold.PLP.part.buried>
-3.8990

> <Gold.PLP.part.nonpolar>
-33.4430

> <Gold.PLP.part.repulsive>
0.1183

> <Gold.PLP.ligand.clash>
0.0000

> <Gold.PLP.ligand.torsion>
0.6156

> <Gold.PLP.Chemscore.Hbond>
1.0000

> <Gold.PLP.Chemscore.CHOScore>
0.0000

> <Gold.PLP.Chemscore.Metal>
0.0000

> <Gold.Chemscore.Hbonds>
donor molecule, donor type, donor heavy atom, donor atom, acceptor molecule, acceptor atom, score
      L1  H     8    22       P1  8028  1.00

> <Gold.PLP.Chemscore.Internal.Correction>
1.0627

> <Gold.Rescore>
     Score         DG    S(hbond)    S(metal)    S(lipo)     H(rot)  DE(clash)    DE(int)     intcor
     12.12     -15.15       1.00        0.00      80.31       1.20       0.06       2.96       ----

> <Gold.Chemscore.Fitness>
12.1210

> <Gold.Chemscore.DG>
-15.1461

> <Gold.Chemscore.ZeroCoef>
-5.4800

> <Gold.Chemscore.Hbond>
0.9999

> <Gold.Chemscore.Metal>
0.0000

> <Gold.Chemscore.Lipo>
80.3087

> <Gold.Chemscore.Internal_Hbond>
0.0000

> <Gold.Chemscore.DEClash>
0.0635

> <Gold.Chemscore.DEInternal>
2.9617

> <Gold.Chemscore.Rot>
1.1990

> <Gold.Chemscore.Internal.Correction>
   9.000000E+99

> <Gold.Chemscore.Hbonds>
donor molecule, donor type, donor heavy atom, donor atom, acceptor molecule, acceptor atom, score
      L1  H     8    22       P1  8028  0.97

> <Gold.Chemscore.Hbond.Weighted>
-3.3395

> <Gold.Chemscore.Metal.Weighted>
-0.0000

> <Gold.Chemscore.Lipo.Weighted>
-9.3961

> <Gold.Chemscore.Internal_Hbond.Weighted>
0.0000

> <Gold.Chemscore.DEClash.Weighted>
0.0635

> <Gold.Chemscore.DEInternal.Weighted>
2.9617

> <Gold.Chemscore.Rot.Weighted>
3.0695

> <Gold.Chemscore.Internal.Correction.Weighted>
   9.000000E+99

> <Gold.Protein.RotatedTorsions>
[ 6907 6896 6895 6894 ] final  -15.47 input  -60.11 | X-H torsion
[ 7974 7965 7964 7962 ] final  -75.18 input  175.53 | X-H torsion
[ 8008 7997 7996 7995 ] final -114.59 input   59.86 | X-H torsion
[ 10167 10162 10161 10158 ] final  168.04 input  -65.29 | X-H torsion
[ 10718 10713 10712 10709 ] final -101.39 input   66.30 | X-H torsion
[ 10763 10752 10751 10750 ] final  167.98 input  -60.55 | X-H torsion
[ 11005 11000 10999 10996 ] final  -31.01 input  -57.11 | X-H torsion

> <Gold.Protein.ActiveResidues>
 VAL166  LYS551  ARG553  GLY616  TRP617  ASP618  TYR619  PRO620  LYS621  CYS622 
 ASP623  PHE694  ASN695  SER759  ASP760  ASP761  ALA762  ILE779  LEU786  VAL792 
 PHE793  MET794  SER795  GLU796  ALA797  LYS798  CYS799  TRP800  GLU811  SER814 

> <Gold.Protein.RotatedAtoms>
  151.3235  135.0824  159.9313 H   0  0  0  0  0  0  0  0  0  0  0  0  # atno 6907 bound_to 6896
  152.5251  133.9615  159.7730 H   0  0  0  0  0  0  0  0  0  0  0  0  # atno 6908 bound_to 6896
  150.9940  133.6068  159.2734 H   0  0  0  0  0  0  0  0  0  0  0  0  # atno 6909 bound_to 6896
  145.6294  140.9342  143.1095 H   0  0  0  0  0  0  0  0  0  0  0  0  # atno 7974 bound_to 7965
  155.0387  140.0392  157.2501 H   0  0  0  0  0  0  0  0  0  0  0  0  # atno 8008 bound_to 7997
  154.7235  140.2716  155.6496 H   0  0  0  0  0  0  0  0  0  0  0  0  # atno 8009 bound_to 7997
  156.2823  140.2698  156.1914 H   0  0  0  0  0  0  0  0  0  0  0  0  # atno 8010 bound_to 7997
  139.4959  144.3857  151.9573 H   0  0  0  0  0  0  0  0  0  0  0  0  # atno 10167 bound_to 10162
  156.0193  130.5371  150.6956 H   0  0  0  0  0  0  0  0  0  0  0  0  # atno 10718 bound_to 10713
  154.3618  135.2753  155.2316 H   0  0  0  0  0  0  0  0  0  0  0  0  # atno 10763 bound_to 10752
  154.4501  135.5933  153.6189 H   0  0  0  0  0  0  0  0  0  0  0  0  # atno 10764 bound_to 10752
  152.9843  135.6039  154.3839 H   0  0  0  0  0  0  0  0  0  0  0  0  # atno 10765 bound_to 10752
  140.9431  133.7266  156.1106 H   0  0  0  0  0  0  0  0  0  0  0  0  # atno 11005 bound_to 11000
  144.7199  139.8065  143.7385 LP  0  0  0  0  0  0  0  0  0  0  0  0  # atno 17320 bound_to 7965
  146.1368  139.4416  143.0134 LP  0  0  0  0  0  0  0  0  0  0  0  0  # atno 17321 bound_to 7965
  140.3294  144.3334  150.5991 LP  0  0  0  0  0  0  0  0  0  0  0  0  # atno 17342 bound_to 10162
  140.5657  143.2186  151.7687 LP  0  0  0  0  0  0  0  0  0  0  0  0  # atno 17343 bound_to 10162
  157.4628  131.0885  151.0727 LP  0  0  0  0  0  0  0  0  0  0  0  0  # atno 17370 bound_to 10713
  157.1210  130.6061  149.5505 LP  0  0  0  0  0  0  0  0  0  0  0  0  # atno 17371 bound_to 10713
  140.7706  134.3837  157.5508 LP  0  0  0  0  0  0  0  0  0  0  0  0  # atno 17394 bound_to 11000
  139.8826  134.9020  156.2822 LP  0  0  0  0  0  0  0  0  0  0  0  0  # atno 17395 bound_to 11000

$$$$
