AV-unprocessed.smi:2879|AV-procd|sdf|11049|dock4
  -GOLD-   2272015513D 1   1.00000     0.00000
 Structure written by MMmdl.
 44 45  0  0  0  0  0  0  0  0  1 V2000
  145.8113  142.6340  154.5040 C   0  0  0  0  0  0  0  0  0  0  0  0
  147.1298  141.9389  154.5103 C   0  0  0  0  0  0  0  0  0  0  0  0
  147.4554  140.6164  154.6211 C   0  0  0  0  0  0  0  0  0  0  0  0
  148.8801  140.5960  154.5543 C   0  0  0  0  0  0  0  0  0  0  0  0
  149.7937  139.4001  154.6167 C   0  0  0  0  0  0  0  0  0  0  0  0
  151.0096  139.7041  155.4940 C   0  0  0  0  0  0  0  0  0  0  0  0
  152.1171  139.8651  154.9814 O   0  0  0  0  0  0  0  0  0  0  0  0
  150.7904  139.7766  156.8150 N   0  0  0  0  0  0  0  0  0  0  0  0
  151.8064  140.0898  157.8106 C   0  0  0  0  0  0  0  0  0  0  0  0
  151.9057  141.6079  158.0539 C   0  0  0  0  0  0  0  0  0  0  0  0
  153.0835  141.9830  158.9782 C   0  0  0  0  0  0  0  0  0  0  0  0
  153.1550  143.5011  159.2241 C   0  0  0  0  0  0  0  0  0  0  0  0
  151.8406  144.0980  159.7833 C   0  0  0  0  0  0  0  0  0  0  0  0
  151.6030  143.6402  161.2389 C   0  0  0  0  0  0  0  0  0  0  0  0
  151.9494  145.6352  159.7819 C   0  0  0  0  0  0  0  0  0  0  0  0
  150.6615  143.6779  158.8719 C   0  0  0  0  0  0  0  0  0  0  0  0
  150.5883  142.1598  158.6283 C   0  0  0  0  0  0  0  0  0  0  0  0
  149.3958  141.8108  154.4193 N   0  0  0  0  0  0  0  0  0  0  0  0
  148.3197  142.6189  154.3914 N   0  0  0  0  0  0  0  0  0  0  0  0
  148.4109  143.6201  154.2931 H   0  0  0  0  0  0  0  0  0  0  0  0
  144.9917  141.9153  154.5212 H   0  0  0  0  0  0  0  0  0  0  0  0
  145.7006  143.2482  153.6102 H   0  0  0  0  0  0  0  0  0  0  0  0
  145.7104  143.2812  155.3755 H   0  0  0  0  0  0  0  0  0  0  0  0
  146.7769  139.7831  154.7294 H   0  0  0  0  0  0  0  0  0  0  0  0
  149.2735  138.5280  155.0155 H   0  0  0  0  0  0  0  0  0  0  0  0
  150.1283  139.1288  153.6145 H   0  0  0  0  0  0  0  0  0  0  0  0
  149.8480  139.6337  157.1491 H   0  0  0  0  0  0  0  0  0  0  0  0
  151.5530  139.5770  158.7396 H   0  0  0  0  0  0  0  0  0  0  0  0
  152.7724  139.7004  157.4843 H   0  0  0  0  0  0  0  0  0  0  0  0
  152.0713  142.0886  157.0882 H   0  0  0  0  0  0  0  0  0  0  0  0
  152.9945  141.4535  159.9269 H   0  0  0  0  0  0  0  0  0  0  0  0
  154.0270  141.6555  158.5405 H   0  0  0  0  0  0  0  0  0  0  0  0
  153.9844  143.7233  159.8966 H   0  0  0  0  0  0  0  0  0  0  0  0
  153.3995  143.9883  158.2790 H   0  0  0  0  0  0  0  0  0  0  0  0
  150.6881  144.0742  161.6438 H   0  0  0  0  0  0  0  0  0  0  0  0
  152.4239  143.9481  161.8873 H   0  0  0  0  0  0  0  0  0  0  0  0
  151.5121  142.5586  161.3274 H   0  0  0  0  0  0  0  0  0  0  0  0
  151.0377  146.0986  160.1605 H   0  0  0  0  0  0  0  0  0  0  0  0
  152.1198  146.0239  158.7772 H   0  0  0  0  0  0  0  0  0  0  0  0
  152.7751  145.9756  160.4079 H   0  0  0  0  0  0  0  0  0  0  0  0
  149.7178  144.0261  159.2937 H   0  0  0  0  0  0  0  0  0  0  0  0
  150.7573  144.1744  157.9051 H   0  0  0  0  0  0  0  0  0  0  0  0
  149.7696  141.9480  157.9398 H   0  0  0  0  0  0  0  0  0  0  0  0
  150.3404  141.6433  159.5558 H   0  0  0  0  0  0  0  0  0  0  0  0
  1  2  1  0  0  0  0
  1 21  1  0  0  0  0
  1 22  1  0  0  0  0
  1 23  1  0  0  0  0
  2 19  1  0  0  0  0
  2  3  2  0  0  0  0
  3  4  1  0  0  0  0
  3 24  1  0  0  0  0
  4  5  1  0  0  0  0
  4 18  2  0  0  0  0
  5  6  1  0  0  0  0
  5 25  1  0  0  0  0
  5 26  1  0  0  0  0
  6  7  2  0  0  0  0
  6  8  1  0  0  0  0
  8  9  1  0  0  0  0
  8 27  1  0  0  0  0
  9 10  1  0  0  0  0
  9 28  1  0  0  0  0
  9 29  1  0  0  0  0
 10 17  1  0  0  0  0
 10 11  1  0  0  0  0
 10 30  1  0  0  0  0
 11 12  1  0  0  0  0
 11 31  1  0  0  0  0
 11 32  1  0  0  0  0
 12 13  1  0  0  0  0
 12 33  1  0  0  0  0
 12 34  1  0  0  0  0
 13 14  1  0  0  0  0
 13 15  1  0  0  0  0
 13 16  1  0  0  0  0
 14 35  1  0  0  0  0
 14 36  1  0  0  0  0
 14 37  1  0  0  0  0
 15 38  1  0  0  0  0
 15 39  1  0  0  0  0
 15 40  1  0  0  0  0
 16 17  1  0  0  0  0
 16 41  1  0  0  0  0
 16 42  1  0  0  0  0
 17 43  1  0  0  0  0
 17 44  1  0  0  0  0
 18 19  1  0  0  0  0
 19 20  1  0  0  0  0
M  END
> <s_m_source_file>
AV-unprocessed.smi

> <i_m_source_file_index>
2879

> <i_lp_mmshare_version>
43012

> <i_f3d_flags>
0

> <s_epik_input>
W0NIM11jMVtjSF1jKG5bbkhdMSlbQ0gyXUMoPU8pW05IXVtDSDJdW0NIXShbQ0gyXVtDSDJdMilbQ0gyXVtDSDJdQzIoW0NIM10pW0NIM10=

> <s_epik_cmdline>
J2VwaWtfcHl0aG9uJywgJy1waCcsICc3LjAnLCAnLXRuJywgJzgnLCAnLW1hJywgJzIwMCcsICctbWV0YWxfYmluZGluZycsICctaW1hZScsICc8aW5maWxlLm1hZT4nLCAnLW9tYWUnLCAnPG91dGZpbGUubWFlPic=

> <r_lp_tautomer_probability>
0.5

> <r_epik_Ionization_Penalty>
7.93509e-05

> <r_epik_Ionization_Penalty_Charging>
0

> <r_epik_Ionization_Penalty_Neutral>
7.93509e-05

> <r_epik_State_Penalty>
0.41068

> <r_epik_Charging_Adjusted_Penalty>
0.41068

> <i_epik_Tot_Q>
0

> <i_epik_Tot_abs_Q>
0

> <r_epik_Metal_State_Penalty>
0.4107

> <b_epik_Metal_Only>
0

> <s_lp_Force_Field>
OPLS_2005

> <r_lp_Energy>
12.5825

> <b_lp_Chiralities_Consistent>
1

> <s_lp_Variant>
AV-unprocessed.smi:2879-1

> <Gold.Version>
5.8.1

> <Gold.Id.Protein>
6NUR|6NUR_protein|mol2

> <Gold.PLP.Fitness>
45.1097

> <Gold.PLP.PLP>
-41.8694

> <Gold.PLP.part.hbond>
-3.7053

> <Gold.PLP.part.metal>
0.0000

> <Gold.PLP.part.buried>
-6.3834

> <Gold.PLP.part.nonpolar>
-34.4932

> <Gold.PLP.part.repulsive>
1.3928

> <Gold.PLP.ligand.clash>
0.0000

> <Gold.PLP.ligand.torsion>
0.5785

> <Gold.PLP.Chemscore.Hbond>
1.4590

> <Gold.PLP.Chemscore.CHOScore>
0.0000

> <Gold.PLP.Chemscore.Metal>
0.0000

> <Gold.Chemscore.Hbonds>
donor molecule, donor type, donor heavy atom, donor atom, acceptor molecule, acceptor atom, score
      L1  H    19    20       P1  8028  0.51
      P1  H  7989  7998       L1     7  0.82
      P1  H  8011  8017       L1    18  0.10

> <Gold.PLP.Chemscore.Internal.Correction>
0.0202

> <Gold.Rescore>
     Score         DG    S(hbond)    S(metal)    S(lipo)     H(rot)  DE(clash)    DE(int)     intcor
     19.99     -20.61       1.63        0.00     116.54       1.55       0.27       0.35       ----

> <Gold.Chemscore.Fitness>
19.9882

> <Gold.Chemscore.DG>
-20.6062

> <Gold.Chemscore.ZeroCoef>
-5.4800

> <Gold.Chemscore.Hbond>
1.6336

> <Gold.Chemscore.Metal>
0.0000

> <Gold.Chemscore.Lipo>
116.5398

> <Gold.Chemscore.Internal_Hbond>
0.0000

> <Gold.Chemscore.DEClash>
0.2655

> <Gold.Chemscore.DEInternal>
0.3525

> <Gold.Chemscore.Rot>
1.5489

> <Gold.Chemscore.Internal.Correction>
   9.000000E+99

> <Gold.Chemscore.Hbonds>
donor molecule, donor type, donor heavy atom, donor atom, acceptor molecule, acceptor atom, score
      L1  H    19    20       P1  8028  0.49
      P1  H  7989  7998       L1     7  0.24

> <Gold.Chemscore.Hbond.Weighted>
-5.4563

> <Gold.Chemscore.Metal.Weighted>
-0.0000

> <Gold.Chemscore.Lipo.Weighted>
-13.6352

> <Gold.Chemscore.Internal_Hbond.Weighted>
0.0000

> <Gold.Chemscore.DEClash.Weighted>
0.2655

> <Gold.Chemscore.DEInternal.Weighted>
0.3525

> <Gold.Chemscore.Rot.Weighted>
3.9652

> <Gold.Chemscore.Internal.Correction.Weighted>
   9.000000E+99

> <Gold.Protein.RotatedTorsions>
[ 6907 6896 6895 6894 ] final -107.39 input  -60.11 | X-H torsion
[ 7974 7965 7964 7962 ] final   86.72 input  175.53 | X-H torsion
[ 8008 7997 7996 7995 ] final    3.94 input   59.86 | X-H torsion
[ 10167 10162 10161 10158 ] final  154.51 input  -65.29 | X-H torsion
[ 10718 10713 10712 10709 ] final  154.62 input   66.30 | X-H torsion
[ 10763 10752 10751 10750 ] final   25.08 input  -60.55 | X-H torsion
[ 11005 11000 10999 10996 ] final  -57.34 input  -57.11 | X-H torsion

> <Gold.Protein.ActiveResidues>
 VAL166  LYS551  ARG553  GLY616  TRP617  ASP618  TYR619  PRO620  LYS621  CYS622 
 ASP623  PHE694  ASN695  SER759  ASP760  ASP761  ALA762  ILE779  LEU786  VAL792 
 PHE793  MET794  SER795  GLU796  ALA797  LYS798  CYS799  TRP800  GLU811  SER814 

> <Gold.Protein.RotatedAtoms>
  150.7441  133.9834  159.3583 H   0  0  0  0  0  0  0  0  0  0  0  0  # atno 6907 bound_to 6896
  151.7777  135.0768  160.0378 H   0  0  0  0  0  0  0  0  0  0  0  0  # atno 6908 bound_to 6896
  152.3296  133.5906  159.5836 H   0  0  0  0  0  0  0  0  0  0  0  0  # atno 6909 bound_to 6896
  145.5686  139.2311  143.2419 H   0  0  0  0  0  0  0  0  0  0  0  0  # atno 7974 bound_to 7965
  154.7098  140.2690  155.6640 H   0  0  0  0  0  0  0  0  0  0  0  0  # atno 8008 bound_to 7997
  156.2792  140.2755  156.1660 H   0  0  0  0  0  0  0  0  0  0  0  0  # atno 8009 bound_to 7997
  155.0650  140.0371  157.2579 H   0  0  0  0  0  0  0  0  0  0  0  0  # atno 8010 bound_to 7997
  139.4823  144.5180  151.7920 H   0  0  0  0  0  0  0  0  0  0  0  0  # atno 10167 bound_to 10162
  157.2292  131.0735  151.1863 H   0  0  0  0  0  0  0  0  0  0  0  0  # atno 10718 bound_to 10713
  153.0717  135.6591  154.0232 H   0  0  0  0  0  0  0  0  0  0  0  0  # atno 10763 bound_to 10752
  153.9876  135.2949  155.3416 H   0  0  0  0  0  0  0  0  0  0  0  0  # atno 10764 bound_to 10752
  154.7094  135.5211  153.8713 H   0  0  0  0  0  0  0  0  0  0  0  0  # atno 10765 bound_to 10752
  141.1160  133.6610  156.4755 H   0  0  0  0  0  0  0  0  0  0  0  0  # atno 11005 bound_to 11000
  146.1801  140.6511  142.9193 LP  0  0  0  0  0  0  0  0  0  0  0  0  # atno 17320 bound_to 7965
  144.7449  140.5040  143.6843 LP  0  0  0  0  0  0  0  0  0  0  0  0  # atno 17321 bound_to 7965
  140.4691  144.1613  150.5915 LP  0  0  0  0  0  0  0  0  0  0  0  0  # atno 17342 bound_to 10162
  140.4402  143.2530  151.9483 LP  0  0  0  0  0  0  0  0  0  0  0  0  # atno 17343 bound_to 10162
  157.3495  130.7075  149.6432 LP  0  0  0  0  0  0  0  0  0  0  0  0  # atno 17370 bound_to 10713
  155.9676  130.4256  150.4663 LP  0  0  0  0  0  0  0  0  0  0  0  0  # atno 17371 bound_to 10713
  140.4643  134.6812  157.5100 LP  0  0  0  0  0  0  0  0  0  0  0  0  # atno 17394 bound_to 11000
  140.0083  134.6729  155.9420 LP  0  0  0  0  0  0  0  0  0  0  0  0  # atno 17395 bound_to 11000

$$$$
