AV-unprocessed.smi:3331|AV-procd|sdf|12818|dock10
  -GOLD-   2272019193D 1   1.00000     0.00000
 Structure written by MMmdl.
 47 48  0  0  0  0  0  0  0  0  2 V2000
  151.7704  138.2568  158.7900 C   0  0  0  0  0  0  0  0  0  0  0  0
  151.4737  139.3776  157.7839 C   0  0  2  0  0  0  0  0  0  0  0  0
  151.7204  140.7735  158.4006 C   0  0  0  0  0  0  0  0  0  0  0  0
  151.3005  141.9210  157.4540 C   0  0  2  0  0  0  0  0  0  0  0  0
  151.4352  143.2904  158.1336 C   0  0  0  0  0  0  0  0  0  0  0  0
  149.8667  141.6766  156.9418 C   0  0  0  0  0  0  0  0  0  0  0  0
  149.8307  140.3711  156.2707 N   0  0  0  0  0  0  0  0  0  0  0  0
  149.7866  140.1590  154.9313 C   0  0  0  0  0  0  0  0  0  0  0  0
  149.7410  141.0899  154.1247 O   0  0  0  0  0  0  0  0  0  0  0  0
  149.7923  138.7190  154.3748 C   0  0  2  0  0  0  0  0  0  0  0  0
  151.2264  138.2958  154.0176 C   0  0  0  0  0  0  0  0  0  0  0  0
  148.9270  138.5888  153.1788 N   0  3  0  0  0  0  0  0  0  0  0  0
  147.5245  139.0151  153.3742 C   0  0  0  0  0  0  0  0  0  0  0  0
  146.7521  138.9915  152.0480 C   0  0  0  0  0  0  0  0  0  0  0  0
  146.1299  137.7030  151.8125 N   0  0  0  0  0  0  0  0  0  0  0  0
  145.2121  137.0365  152.5970 C   0  0  0  0  0  0  0  0  0  0  0  0
  144.9156  135.8625  151.9658 C   0  0  0  0  0  0  0  0  0  0  0  0
  145.7094  135.9031  150.7855 C   0  0  0  0  0  0  0  0  0  0  0  0
  146.4344  137.0069  150.6961 N   0  0  0  0  0  0  0  0  0  0  0  0
  150.0348  139.2812  157.2328 C   0  0  0  0  0  0  0  0  0  0  0  0
  151.1099  138.3153  159.6556 H   0  0  0  0  0  0  0  0  0  0  0  0
  152.7978  138.3148  159.1503 H   0  0  0  0  0  0  0  0  0  0  0  0
  151.6361  137.2755  158.3343 H   0  0  0  0  0  0  0  0  0  0  0  0
  152.1618  139.2556  156.9459 H   0  0  0  0  0  0  0  0  0  0  0  0
  151.1563  140.8558  159.3309 H   0  0  0  0  0  0  0  0  0  0  0  0
  152.7718  140.8796  158.6708 H   0  0  0  0  0  0  0  0  0  0  0  0
  151.9726  141.9140  156.5943 H   0  0  0  0  0  0  0  0  0  0  0  0
  150.7831  143.3669  159.0041 H   0  0  0  0  0  0  0  0  0  0  0  0
  151.1726  144.0964  157.4479 H   0  0  0  0  0  0  0  0  0  0  0  0
  152.4588  143.4627  158.4679 H   0  0  0  0  0  0  0  0  0  0  0  0
  149.1703  141.6660  157.7819 H   0  0  0  0  0  0  0  0  0  0  0  0
  149.5301  142.5006  156.3160 H   0  0  0  0  0  0  0  0  0  0  0  0
  149.3929  138.0235  155.1120 H   0  0  0  0  0  0  0  0  0  0  0  0
  151.8946  138.3714  154.8760 H   0  0  0  0  0  0  0  0  0  0  0  0
  151.6405  138.9171  153.2222 H   0  0  0  0  0  0  0  0  0  0  0  0
  151.2539  137.2605  153.6765 H   0  0  0  0  0  0  0  0  0  0  0  0
  149.3358  139.1282  152.4287 H   0  0  0  0  0  0  0  0  0  0  0  0
  147.0482  138.3513  154.0971 H   0  0  0  0  0  0  0  0  0  0  0  0
  147.4987  140.0205  153.7960 H   0  0  0  0  0  0  0  0  0  0  0  0
  145.9749  139.7571  152.0484 H   0  0  0  0  0  0  0  0  0  0  0  0
  147.4165  139.2129  151.2114 H   0  0  0  0  0  0  0  0  0  0  0  0
  144.8508  137.4467  153.5286 H   0  0  0  0  0  0  0  0  0  0  0  0
  144.2344  135.0922  152.2961 H   0  0  0  0  0  0  0  0  0  0  0  0
  145.7795  135.1683  149.9970 H   0  0  0  0  0  0  0  0  0  0  0  0
  149.8653  138.2960  156.7957 H   0  0  0  0  0  0  0  0  0  0  0  0
  149.3103  139.3694  158.0438 H   0  0  0  0  0  0  0  0  0  0  0  0
  148.9140  137.6160  152.9077 H   0  0  0  0  0  0  0  0  0  0  0  0
  1  2  1  0  0  0  0
  1 21  1  0  0  0  0
  1 22  1  0  0  0  0
  1 23  1  0  0  0  0
  2 20  1  0  0  0  0
  2  3  1  0  0  0  0
  2 24  1  0  0  0  0
  3  4  1  0  0  0  0
  3 25  1  0  0  0  0
  3 26  1  0  0  0  0
  4  5  1  0  0  0  0
  4  6  1  0  0  0  0
  4 27  1  0  0  0  0
  5 28  1  0  0  0  0
  5 29  1  0  0  0  0
  5 30  1  0  0  0  0
  6  7  1  0  0  0  0
  6 31  1  0  0  0  0
  6 32  1  0  0  0  0
  7  8  1  0  0  0  0
  7 20  1  0  0  0  0
  8  9  2  0  0  0  0
  8 10  1  0  0  0  0
 10 11  1  0  0  0  0
 10 12  1  0  0  0  0
 10 33  1  0  0  0  0
 11 34  1  0  0  0  0
 11 35  1  0  0  0  0
 11 36  1  0  0  0  0
 12 13  1  0  0  0  0
 12 37  1  0  0  0  0
 12 47  1  0  0  0  0
 13 14  1  0  0  0  0
 13 38  1  0  0  0  0
 13 39  1  0  0  0  0
 14 15  1  0  0  0  0
 14 40  1  0  0  0  0
 14 41  1  0  0  0  0
 15 19  1  0  0  0  0
 15 16  1  0  0  0  0
 16 17  2  0  0  0  0
 16 42  1  0  0  0  0
 17 18  1  0  0  0  0
 17 43  1  0  0  0  0
 18 19  2  0  0  0  0
 18 44  1  0  0  0  0
 20 45  1  0  0  0  0
 20 46  1  0  0  0  0
M  CHG  1  12   1
M  END
> <s_m_source_file>
AV-unprocessed.smi

> <i_m_source_file_index>
3331

> <i_lp_mmshare_version>
43012

> <i_f3d_flags>
0

> <s_epik_input>
W0NIM11bQ0BASF0xW0NIMl1bQ0BASF0oW0NIM10pW0NIMl1OKFtDSDJdMSlDKD1PKVtDQEhdKFtDSDNdKVtOSF1bQ0gyXVtDSDJdbjJbY0hdW2NIXVtjSF1uMg==

> <s_epik_cmdline>
J2VwaWtfcHl0aG9uJywgJy1waCcsICc3LjAnLCAnLXRuJywgJzgnLCAnLW1hJywgJzIwMCcsICctbWV0YWxfYmluZGluZycsICctaW1hZScsICc8aW5maWxlLm1hZT4nLCAnLW9tYWUnLCAnPG91dGZpbGUubWFlPic=

> <r_lp_tautomer_probability>
1

> <r_epik_Ionization_Penalty>
0.189706

> <r_epik_Ionization_Penalty_Charging>
0.189703

> <r_epik_Ionization_Penalty_Neutral>
2.45875e-06

> <r_epik_State_Penalty>
0.179341

> <r_epik_Charging_Adjusted_Penalty>
0.369044

> <i_epik_Tot_Q>
1

> <i_epik_Tot_abs_Q>
1

> <r_epik_Metal_State_Penalty>
0.179578

> <b_epik_Metal_Only>
0

> <s_lp_Force_Field>
OPLS_2005

> <r_lp_Energy>
26.1648

> <b_lp_Chiralities_Consistent>
1

> <s_lp_Variant>
AV-unprocessed.smi:3331-2

> <Gold.Version>
5.8.1

> <Gold.Id.Protein>
6NUR|6NUR_protein|mol2

> <Gold.PLP.Fitness>
52.4196

> <Gold.PLP.PLP>
-37.1583

> <Gold.PLP.part.hbond>
-4.8797

> <Gold.PLP.part.metal>
0.0000

> <Gold.PLP.part.buried>
-0.8471

> <Gold.PLP.part.nonpolar>
-33.6291

> <Gold.PLP.part.repulsive>
2.6034

> <Gold.PLP.ligand.clash>
0.0000

> <Gold.PLP.ligand.torsion>
0.8940

> <Gold.PLP.Chemscore.Hbond>
4.6623

> <Gold.PLP.Chemscore.CHOScore>
1.0000

> <Gold.PLP.Chemscore.Metal>
0.0000

> <Gold.Chemscore.Hbonds>
donor molecule, donor type, donor heavy atom, donor atom, acceptor molecule, acceptor atom, score
      L1  H    12    37       P1  7957  1.00
      L1  H    12    47       P1  7948  2.00
      P1  H  7954  7966       L1    19  0.83
      P1  H  7989  7998       L1     9  0.38
      P1  H  8011  8017       L1     9  0.41
      L1  C    18    44       P1  7921  1.00

> <Gold.PLP.Chemscore.Internal.Correction>
0.0624

> <Gold.Rescore>
     Score         DG    S(hbond)    S(metal)    S(lipo)     H(rot)  DE(clash)    DE(int)     intcor
     18.53     -21.61       3.05        0.00      88.49       1.73       2.18       0.90       ----

> <Gold.Chemscore.Fitness>
18.5302

> <Gold.Chemscore.DG>
-21.6098

> <Gold.Chemscore.ZeroCoef>
-5.4800

> <Gold.Chemscore.Hbond>
3.0520

> <Gold.Chemscore.Metal>
0.0000

> <Gold.Chemscore.Lipo>
88.4895

> <Gold.Chemscore.Internal_Hbond>
0.0000

> <Gold.Chemscore.DEClash>
2.1754

> <Gold.Chemscore.DEInternal>
0.9042

> <Gold.Chemscore.Rot>
1.7254

> <Gold.Chemscore.Internal.Correction>
   9.000000E+99

> <Gold.Chemscore.Hbonds>
donor molecule, donor type, donor heavy atom, donor atom, acceptor molecule, acceptor atom, score
      L1  H    12    37       P1  7957  0.95
      L1  H    12    47       P1  7948  0.99
      P1  H  7954  7966       L1    19  0.51
      P1  H  7989  7998       L1     9  0.06
      P1  H  8011  8017       L1     9  0.40

> <Gold.Chemscore.Hbond.Weighted>
-10.1935

> <Gold.Chemscore.Metal.Weighted>
-0.0000

> <Gold.Chemscore.Lipo.Weighted>
-10.3533

> <Gold.Chemscore.Internal_Hbond.Weighted>
0.0000

> <Gold.Chemscore.DEClash.Weighted>
2.1754

> <Gold.Chemscore.DEInternal.Weighted>
0.9042

> <Gold.Chemscore.Rot.Weighted>
4.4170

> <Gold.Chemscore.Internal.Correction.Weighted>
   9.000000E+99

> <Gold.Protein.RotatedTorsions>
[ 6907 6896 6895 6894 ] final  167.06 input  -60.11 | X-H torsion
[ 7974 7965 7964 7962 ] final   15.51 input  175.53 | X-H torsion
[ 8008 7997 7996 7995 ] final   94.34 input   59.86 | X-H torsion
[ 10167 10162 10161 10158 ] final -104.80 input  -65.29 | X-H torsion
[ 10718 10713 10712 10709 ] final   77.88 input   66.30 | X-H torsion
[ 10763 10752 10751 10750 ] final  -19.35 input  -60.55 | X-H torsion
[ 11005 11000 10999 10996 ] final   99.11 input  -57.11 | X-H torsion

> <Gold.Protein.ActiveResidues>
 VAL166  LYS551  ARG553  GLY616  TRP617  ASP618  TYR619  PRO620  LYS621  CYS622 
 ASP623  PHE694  ASN695  SER759  ASP760  ASP761  ALA762  ILE779  LEU786  VAL792 
 PHE793  MET794  SER795  GLU796  ALA797  LYS798  CYS799  TRP800  GLU811  SER814 

> <Gold.Protein.RotatedAtoms>
  151.8691  133.3472  159.3728 H   0  0  0  0  0  0  0  0  0  0  0  0  # atno 6907 bound_to 6896
  150.7157  134.5130  159.5626 H   0  0  0  0  0  0  0  0  0  0  0  0  # atno 6908 bound_to 6896
  152.2659  134.7985  160.0473 H   0  0  0  0  0  0  0  0  0  0  0  0  # atno 6909 bound_to 6896
  146.2276  139.8884  142.8559 H   0  0  0  0  0  0  0  0  0  0  0  0  # atno 7974 bound_to 7965
  156.0568  140.3301  155.7415 H   0  0  0  0  0  0  0  0  0  0  0  0  # atno 8008 bound_to 7997
  155.5516  140.0611  157.2866 H   0  0  0  0  0  0  0  0  0  0  0  0  # atno 8009 bound_to 7997
  154.4462  140.1893  156.0680 H   0  0  0  0  0  0  0  0  0  0  0  0  # atno 8010 bound_to 7997
  140.2054  143.3787  152.1095 H   0  0  0  0  0  0  0  0  0  0  0  0  # atno 10167 bound_to 10162
  157.6726  130.9842  150.1705 H   0  0  0  0  0  0  0  0  0  0  0  0  # atno 10718 bound_to 10713
  153.6034  135.6998  153.5375 H   0  0  0  0  0  0  0  0  0  0  0  0  # atno 10763 bound_to 10752
  153.3078  135.4110  155.1309 H   0  0  0  0  0  0  0  0  0  0  0  0  # atno 10764 bound_to 10752
  154.8578  135.3664  154.5570 H   0  0  0  0  0  0  0  0  0  0  0  0  # atno 10765 bound_to 10752
  139.8771  134.9080  156.4557 H   0  0  0  0  0  0  0  0  0  0  0  0  # atno 11005 bound_to 11000
  145.2442  141.0020  143.3918 LP  0  0  0  0  0  0  0  0  0  0  0  0  # atno 17320 bound_to 7965
  144.9427  139.4171  143.6441 LP  0  0  0  0  0  0  0  0  0  0  0  0  # atno 17321 bound_to 7965
  139.5201  144.7028  151.5444 LP  0  0  0  0  0  0  0  0  0  0  0  0  # atno 17342 bound_to 10162
  140.6361  143.8981  150.6649 LP  0  0  0  0  0  0  0  0  0  0  0  0  # atno 17343 bound_to 10162
  156.2460  130.3695  149.8284 LP  0  0  0  0  0  0  0  0  0  0  0  0  # atno 17370 bound_to 10713
  156.6070  130.8571  151.3445 LP  0  0  0  0  0  0  0  0  0  0  0  0  # atno 17371 bound_to 10713
  140.8900  133.7855  155.9561 LP  0  0  0  0  0  0  0  0  0  0  0  0  # atno 17394 bound_to 11000
  140.8763  134.2665  157.5166 LP  0  0  0  0  0  0  0  0  0  0  0  0  # atno 17395 bound_to 11000

$$$$
