AV-unprocessed.smi:1702|AV-procd|sdf|6846|dock8
  -GOLD-   22720 8 23D 1   1.00000     0.00000
 Structure written by MMmdl.
 44 46  0  0  0  0  0  0  0  0  2 V2000
  143.7537  144.5797  156.5989 C   0  0  0  0  0  0  0  0  0  0  0  0
  144.6150  143.4771  155.9675 C   0  0  2  0  0  0  0  0  0  0  0  0
  145.7769  143.0660  156.8868 C   0  0  0  0  0  0  0  0  0  0  0  0
  146.6523  141.9846  156.2315 C   0  0  0  0  0  0  0  0  0  0  0  0
  147.1710  142.4371  154.9149 N   0  3  1  0  0  0  0  0  0  0  0  0
  148.1265  141.4647  154.3251 C   0  0  0  0  0  0  0  0  0  0  0  0
  149.1107  140.8789  155.3636 C   0  0  1  0  0  0  0  0  0  0  0  0
  149.4517  139.5602  154.9855 O   0  0  0  0  0  0  0  0  0  0  0  0
  150.4235  141.6787  155.4766 C   0  0  0  0  0  0  0  0  0  0  0  0
  151.2632  141.2205  156.5685 N   0  0  0  0  0  0  0  0  0  0  0  0
  151.8971  140.0354  156.6576 C   0  0  0  0  0  0  0  0  0  0  0  0
  152.6152  139.8098  157.7539 N   0  0  0  0  0  0  0  0  0  0  0  0
  152.4330  140.9885  158.4562 C   0  0  0  0  0  0  0  0  0  0  0  0
  152.9328  141.3932  159.7144 C   0  0  0  0  0  0  0  0  0  0  0  0
  152.6031  142.6594  160.2411 C   0  0  0  0  0  0  0  0  0  0  0  0
  153.0886  143.0306  161.4494 F   0  0  0  0  0  0  0  0  0  0  0  0
  151.7699  143.5389  159.5180 C   0  0  0  0  0  0  0  0  0  0  0  0
  151.4551  144.7513  160.0318 F   0  0  0  0  0  0  0  0  0  0  0  0
  151.2613  143.1582  158.2615 C   0  0  0  0  0  0  0  0  0  0  0  0
  151.5927  141.8939  157.7404 C   0  0  0  0  0  0  0  0  0  0  0  0
  146.0634  142.8056  153.9931 C   0  0  0  0  0  0  0  0  0  0  0  0
  145.1777  143.9052  154.6019 C   0  0  0  0  0  0  0  0  0  0  0  0
  144.3369  145.4825  156.7836 H   0  0  0  0  0  0  0  0  0  0  0  0
  143.3347  144.2535  157.5513 H   0  0  0  0  0  0  0  0  0  0  0  0
  142.9213  144.8487  155.9481 H   0  0  0  0  0  0  0  0  0  0  0  0
  143.9771  142.6052  155.8146 H   0  0  0  0  0  0  0  0  0  0  0  0
  146.3902  143.9373  157.1221 H   0  0  0  0  0  0  0  0  0  0  0  0
  145.3887  142.6967  157.8368 H   0  0  0  0  0  0  0  0  0  0  0  0
  147.4850  141.7514  156.8961 H   0  0  0  0  0  0  0  0  0  0  0  0
  146.0814  141.0635  156.1024 H   0  0  0  0  0  0  0  0  0  0  0  0
  147.5803  140.6380  153.8679 H   0  0  0  0  0  0  0  0  0  0  0  0
  148.6593  141.9586  153.5118 H   0  0  0  0  0  0  0  0  0  0  0  0
  148.6519  140.8371  156.3507 H   0  0  0  0  0  0  0  0  0  0  0  0
  148.9155  139.3007  154.2520 H   0  0  0  0  0  0  0  0  0  0  0  0
  150.9972  141.5962  154.5520 H   0  0  0  0  0  0  0  0  0  0  0  0
  150.2153  142.7400  155.6177 H   0  0  0  0  0  0  0  0  0  0  0  0
  151.8227  139.2942  155.8751 H   0  0  0  0  0  0  0  0  0  0  0  0
  153.5710  140.7281  160.2771 H   0  0  0  0  0  0  0  0  0  0  0  0
  150.6233  143.8305  157.7075 H   0  0  0  0  0  0  0  0  0  0  0  0
  146.4590  143.1603  153.0424 H   0  0  0  0  0  0  0  0  0  0  0  0
  145.4623  141.9219  153.7723 H   0  0  0  0  0  0  0  0  0  0  0  0
  144.3603  144.1371  153.9181 H   0  0  0  0  0  0  0  0  0  0  0  0
  145.7589  144.8223  154.7103 H   0  0  0  0  0  0  0  0  0  0  0  0
  147.6978  143.2790  155.0985 H   0  0  0  0  0  0  0  0  0  0  0  0
  1  2  1  0  0  0  0
  1 23  1  0  0  0  0
  1 24  1  0  0  0  0
  1 25  1  0  0  0  0
  2 22  1  0  0  0  0
  2  3  1  0  0  0  0
  2 26  1  0  0  0  0
  3  4  1  0  0  0  0
  3 27  1  0  0  0  0
  3 28  1  0  0  0  0
  4  5  1  0  0  0  0
  4 29  1  0  0  0  0
  4 30  1  0  0  0  0
  5  6  1  0  0  0  0
  5 21  1  0  0  0  0
  5 44  1  0  0  0  0
  6  7  1  0  0  0  0
  6 31  1  0  0  0  0
  6 32  1  0  0  0  0
  7  8  1  0  0  0  0
  7  9  1  0  0  0  0
  7 33  1  0  0  0  0
  8 34  1  0  0  0  0
  9 10  1  0  0  0  0
  9 35  1  0  0  0  0
  9 36  1  0  0  0  0
 10 20  1  0  0  0  0
 10 11  1  0  0  0  0
 11 12  2  0  0  0  0
 11 37  1  0  0  0  0
 12 13  1  0  0  0  0
 13 20  2  0  0  0  0
 13 14  1  0  0  0  0
 14 15  2  0  0  0  0
 14 38  1  0  0  0  0
 15 16  1  0  0  0  0
 15 17  1  0  0  0  0
 17 18  1  0  0  0  0
 17 19  2  0  0  0  0
 19 20  1  0  0  0  0
 19 39  1  0  0  0  0
 21 22  1  0  0  0  0
 21 40  1  0  0  0  0
 21 41  1  0  0  0  0
 22 42  1  0  0  0  0
 22 43  1  0  0  0  0
M  CHG  1   5   1
M  END
> <s_m_source_file>
AV-unprocessed.smi

> <i_m_source_file_index>
1702

> <i_lp_mmshare_version>
43012

> <i_f3d_flags>
0

> <s_epik_input>
W0NIM11bQ0hdMVtDSDJdW0NIMl1OKFtDSDJdW0NIMl0xKVtDSDJdW0NASF0oW09IXSlbQ0gyXW4oW2NIXW4yKWMoYzIzKVtjSF1jKEYpYyhGKVtjSF0z

> <s_epik_cmdline>
J2VwaWtfcHl0aG9uJywgJy1waCcsICc3LjAnLCAnLXRuJywgJzgnLCAnLW1hJywgJzIwMCcsICctbWV0YWxfYmluZGluZycsICctaW1hZScsICc8aW5maWxlLm1hZT4nLCAnLW9tYWUnLCAnPG91dGZpbGUubWFlPic=

> <r_epik_Ionization_Penalty>
0.0135195

> <r_epik_Ionization_Penalty_Charging>
0.00181365

> <r_epik_Ionization_Penalty_Neutral>
0.0117059

> <r_epik_State_Penalty>
0.00902283

> <r_epik_Charging_Adjusted_Penalty>
0.0108365

> <i_epik_Tot_Q>
1

> <i_epik_Tot_abs_Q>
1

> <r_epik_Metal_State_Penalty>
9.09181e-06

> <b_epik_Metal_Only>
0

> <s_lp_Force_Field>
OPLS_2005

> <r_lp_Energy>
23.1307

> <b_lp_Chiralities_Consistent>
1

> <s_lp_Variant>
AV-unprocessed.smi:1702-2

> <Gold.Version>
5.8.1

> <Gold.Id.Protein>
6NUR|6NUR_protein|mol2

> <Gold.PLP.Fitness>
53.1375

> <Gold.PLP.PLP>
-45.8798

> <Gold.PLP.part.hbond>
-2.0000

> <Gold.PLP.part.metal>
0.0000

> <Gold.PLP.part.buried>
-6.6765

> <Gold.PLP.part.nonpolar>
-36.5280

> <Gold.PLP.part.repulsive>
0.0989

> <Gold.PLP.ligand.clash>
0.0000

> <Gold.PLP.ligand.torsion>
0.5952

> <Gold.PLP.Chemscore.Hbond>
2.8000

> <Gold.PLP.Chemscore.CHOScore>
0.0000

> <Gold.PLP.Chemscore.Metal>
0.0000

> <Gold.Chemscore.Hbonds>
donor molecule, donor type, donor heavy atom, donor atom, acceptor molecule, acceptor atom, score
      L1  H     5    44       P1  8028  2.00
      P1  H  7997  8010       L1    12  0.47

> <Gold.PLP.Chemscore.Internal.Correction>
0.0480

> <Gold.Rescore>
     Score         DG    S(hbond)    S(metal)    S(lipo)     H(rot)  DE(clash)    DE(int)     intcor
     14.58     -15.20       0.93        0.00     106.08       2.26       0.04       0.58       ----

> <Gold.Chemscore.Fitness>
14.5845

> <Gold.Chemscore.DG>
-15.1986

> <Gold.Chemscore.ZeroCoef>
-5.4800

> <Gold.Chemscore.Hbond>
0.9274

> <Gold.Chemscore.Metal>
0.0000

> <Gold.Chemscore.Lipo>
106.0822

> <Gold.Chemscore.Internal_Hbond>
0.0000

> <Gold.Chemscore.DEClash>
0.0367

> <Gold.Chemscore.DEInternal>
0.5774

> <Gold.Chemscore.Rot>
2.2619

> <Gold.Chemscore.Internal.Correction>
   9.000000E+99

> <Gold.Chemscore.Hbonds>
donor molecule, donor type, donor heavy atom, donor atom, acceptor molecule, acceptor atom, score
      L1  H     5    44       P1  8028  0.45
      P1  H  7997  8010       L1    12  0.01

> <Gold.Chemscore.Hbond.Weighted>
-3.0974

> <Gold.Chemscore.Metal.Weighted>
-0.0000

> <Gold.Chemscore.Lipo.Weighted>
-12.4116

> <Gold.Chemscore.Internal_Hbond.Weighted>
0.0000

> <Gold.Chemscore.DEClash.Weighted>
0.0367

> <Gold.Chemscore.DEInternal.Weighted>
0.5774

> <Gold.Chemscore.Rot.Weighted>
5.7904

> <Gold.Chemscore.Internal.Correction.Weighted>
   9.000000E+99

> <Gold.Protein.RotatedTorsions>
[ 6907 6896 6895 6894 ] final  -59.94 input  -60.11 | X-H torsion
[ 7974 7965 7964 7962 ] final  131.82 input  175.53 | X-H torsion
[ 8008 7997 7996 7995 ] final   57.94 input   59.86 | X-H torsion
[ 10167 10162 10161 10158 ] final   -7.46 input  -65.29 | X-H torsion
[ 10718 10713 10712 10709 ] final  -37.59 input   66.30 | X-H torsion
[ 10763 10752 10751 10750 ] final -160.73 input  -60.55 | X-H torsion
[ 11005 11000 10999 10996 ] final -128.76 input  -57.11 | X-H torsion

> <Gold.Protein.ActiveResidues>
 VAL166  LYS551  ARG553  GLY616  TRP617  ASP618  TYR619  PRO620  LYS621  CYS622 
 ASP623  PHE694  ASN695  SER759  ASP760  ASP761  ALA762  ILE779  LEU786  VAL792 
 PHE793  MET794  SER795  GLU796  ALA797  LYS798  CYS799  TRP800  GLU811  SER814 

> <Gold.Protein.RotatedAtoms>
  150.7893  134.6903  159.6492 H   0  0  0  0  0  0  0  0  0  0  0  0  # atno 6907 bound_to 6896
  152.3996  134.6306  160.0084 H   0  0  0  0  0  0  0  0  0  0  0  0  # atno 6908 bound_to 6896
  151.6581  133.3281  159.3204 H   0  0  0  0  0  0  0  0  0  0  0  0  # atno 6909 bound_to 6896
  145.0033  139.4291  143.5281 H   0  0  0  0  0  0  0  0  0  0  0  0  # atno 7974 bound_to 7965
  155.5419  140.3484  155.4449 H   0  0  0  0  0  0  0  0  0  0  0  0  # atno 8008 bound_to 7997
  156.0645  140.1348  156.9928 H   0  0  0  0  0  0  0  0  0  0  0  0  # atno 8009 bound_to 7997
  154.4496  140.0978  156.6551 H   0  0  0  0  0  0  0  0  0  0  0  0  # atno 8010 bound_to 7997
  140.7029  143.6078  150.8734 H   0  0  0  0  0  0  0  0  0  0  0  0  # atno 10167 bound_to 10162
  156.3135  130.4256  149.8028 H   0  0  0  0  0  0  0  0  0  0  0  0  # atno 10718 bound_to 10713
  154.7365  135.3058  154.8802 H   0  0  0  0  0  0  0  0  0  0  0  0  # atno 10763 bound_to 10752
  153.9629  135.6751  153.4749 H   0  0  0  0  0  0  0  0  0  0  0  0  # atno 10764 bound_to 10752
  153.0968  135.4932  154.8716 H   0  0  0  0  0  0  0  0  0  0  0  0  # atno 10765 bound_to 10752
  140.9489  134.1092  157.4081 H   0  0  0  0  0  0  0  0  0  0  0  0  # atno 11005 bound_to 11000
  146.3456  139.9434  142.8738 LP  0  0  0  0  0  0  0  0  0  0  0  0  # atno 17320 bound_to 7965
  145.2123  140.9901  143.4093 LP  0  0  0  0  0  0  0  0  0  0  0  0  # atno 17321 bound_to 7965
  139.9801  143.5960  152.2945 LP  0  0  0  0  0  0  0  0  0  0  0  0  # atno 17342 bound_to 10162
  139.6578  144.7662  151.2021 LP  0  0  0  0  0  0  0  0  0  0  0  0  # atno 17343 bound_to 10162
  156.5362  130.8280  151.3254 LP  0  0  0  0  0  0  0  0  0  0  0  0  # atno 17370 bound_to 10713
  157.7396  130.9835  150.2325 LP  0  0  0  0  0  0  0  0  0  0  0  0  # atno 17371 bound_to 10713
  139.8841  135.0060  156.6349 LP  0  0  0  0  0  0  0  0  0  0  0  0  # atno 17394 bound_to 11000
  140.7630  133.8801  155.8433 LP  0  0  0  0  0  0  0  0  0  0  0  0  # atno 17395 bound_to 11000

$$$$
