AV-unprocessed.smi:2930|AV-procd|sdf|11241|dock9
  -GOLD-   2272016133D 1   1.00000     0.00000
 Structure written by MMmdl.
 40 41  0  0  0  0  0  0  0  0  1 V2000
  144.8462  132.4496  150.1601 C   0  0  0  0  0  0  0  0  0  0  0  0
  146.0847  132.4917  151.0659 C   0  0  1  0  0  0  0  0  0  0  0  0
  146.1764  133.8081  151.6927 N   0  0  0  0  0  0  0  0  0  0  0  0
  145.3108  134.3139  152.5833 C   0  0  0  0  0  0  0  0  0  0  0  0
  144.3171  133.7111  152.9873 O   0  0  0  0  0  0  0  0  0  0  0  0
  145.6638  135.5582  152.9476 N   0  0  0  0  0  0  0  0  0  0  0  0
  145.0173  136.4222  153.8713 C   0  0  0  0  0  0  0  0  0  0  0  0
  144.9674  137.8331  153.7712 C   0  0  0  0  0  0  0  0  0  0  0  0
  144.3146  138.5853  154.6831 N   0  0  0  0  0  0  0  0  0  0  0  0
  143.7060  137.9524  155.6947 C   0  0  0  0  0  0  0  0  0  0  0  0
  143.0369  138.7392  156.6369 N   0  0  0  0  0  0  0  0  0  0  0  0
  142.7863  138.2500  157.9896 C   0  0  0  0  0  0  0  0  0  0  0  0
  142.5628  140.0791  156.3027 C   0  0  0  0  0  0  0  0  0  0  0  0
  143.6851  136.6248  155.8731 N   0  0  0  0  0  0  0  0  0  0  0  0
  144.3318  135.8616  154.9672 C   0  0  0  0  0  0  0  0  0  0  0  0
  146.0490  131.4023  152.1395 C   0  0  0  0  0  0  0  0  0  0  0  0
  147.3382  130.9892  152.8678 C   0  0  0  0  0  0  0  0  0  0  0  0
  146.7966  129.5582  152.9178 C   0  0  0  0  0  0  0  0  0  0  0  0
  145.8987  129.9278  151.7340 C   0  0  0  0  0  0  0  0  0  0  0  0
  144.7679  131.4916  149.6455 H   0  0  0  0  0  0  0  0  0  0  0  0
  144.8908  133.2276  149.3973 H   0  0  0  0  0  0  0  0  0  0  0  0
  143.9293  132.5951  150.7325 H   0  0  0  0  0  0  0  0  0  0  0  0
  146.9549  132.3358  150.4255 H   0  0  0  0  0  0  0  0  0  0  0  0
  146.9593  134.3830  151.4182 H   0  0  0  0  0  0  0  0  0  0  0  0
  146.4633  135.9512  152.4725 H   0  0  0  0  0  0  0  0  0  0  0  0
  145.4244  138.3788  152.9607 H   0  0  0  0  0  0  0  0  0  0  0  0
  143.7273  138.0210  158.4911 H   0  0  0  0  0  0  0  0  0  0  0  0
  142.1822  137.3428  157.9603 H   0  0  0  0  0  0  0  0  0  0  0  0
  142.2555  138.9832  158.5969 H   0  0  0  0  0  0  0  0  0  0  0  0
  141.8477  140.0349  155.4806 H   0  0  0  0  0  0  0  0  0  0  0  0
  143.3967  140.7132  155.9999 H   0  0  0  0  0  0  0  0  0  0  0  0
  142.0696  140.5601  157.1472 H   0  0  0  0  0  0  0  0  0  0  0  0
  144.3029  134.7932  155.1232 H   0  0  0  0  0  0  0  0  0  0  0  0
  145.2874  131.6279  152.8896 H   0  0  0  0  0  0  0  0  0  0  0  0
  148.2275  131.0800  152.2417 H   0  0  0  0  0  0  0  0  0  0  0  0
  147.4824  131.4604  153.8404 H   0  0  0  0  0  0  0  0  0  0  0  0
  147.5335  128.7822  152.7082 H   0  0  0  0  0  0  0  0  0  0  0  0
  146.2330  129.3494  153.8285 H   0  0  0  0  0  0  0  0  0  0  0  0
  144.8814  129.5396  151.7923 H   0  0  0  0  0  0  0  0  0  0  0  0
  146.3604  129.7036  150.7708 H   0  0  0  0  0  0  0  0  0  0  0  0
  1  2  1  0  0  0  0
  1 20  1  0  0  0  0
  1 21  1  0  0  0  0
  1 22  1  0  0  0  0
  2  3  1  0  0  0  0
  2 16  1  0  0  0  0
  2 23  1  0  0  0  0
  3  4  1  0  0  0  0
  3 24  1  0  0  0  0
  4  5  2  0  0  0  0
  4  6  1  0  0  0  0
  6  7  1  0  0  0  0
  6 25  1  0  0  0  0
  7 15  1  0  0  0  0
  7  8  2  0  0  0  0
  8  9  1  0  0  0  0
  8 26  1  0  0  0  0
  9 10  2  0  0  0  0
 10 11  1  0  0  0  0
 10 14  1  0  0  0  0
 11 12  1  0  0  0  0
 11 13  1  0  0  0  0
 12 27  1  0  0  0  0
 12 28  1  0  0  0  0
 12 29  1  0  0  0  0
 13 30  1  0  0  0  0
 13 31  1  0  0  0  0
 13 32  1  0  0  0  0
 14 15  2  0  0  0  0
 15 33  1  0  0  0  0
 16 19  1  0  0  0  0
 16 17  1  0  0  0  0
 16 34  1  0  0  0  0
 17 18  1  0  0  0  0
 17 35  1  0  0  0  0
 17 36  1  0  0  0  0
 18 19  1  0  0  0  0
 18 37  1  0  0  0  0
 18 38  1  0  0  0  0
 19 39  1  0  0  0  0
 19 40  1  0  0  0  0
M  END
> <s_m_source_file>
AV-unprocessed.smi

> <i_m_source_file_index>
2930

> <i_lp_mmshare_version>
43012

> <i_f3d_flags>
0

> <s_epik_input>
W0NIMl0xW0NIMl1bQ0gyXVtDSF0xW0NASF0oW0NIM10pW05IXUMoPU8pW05IXWMyW2NIXW5jKE4oW0NIM10pW0NIM10pbltjSF0y

> <s_epik_cmdline>
J2VwaWtfcHl0aG9uJywgJy1waCcsICc3LjAnLCAnLXRuJywgJzgnLCAnLW1hJywgJzIwMCcsICctbWV0YWxfYmluZGluZycsICctaW1hZScsICc8aW5maWxlLm1hZT4nLCAnLW9tYWUnLCAnPG91dGZpbGUubWFlPic=

> <r_lp_tautomer_probability>
1

> <r_epik_Ionization_Penalty>
0.000323856

> <r_epik_Ionization_Penalty_Charging>
0

> <r_epik_Ionization_Penalty_Neutral>
0.000323856

> <r_epik_State_Penalty>
-0

> <r_epik_Charging_Adjusted_Penalty>
0

> <i_epik_Tot_Q>
0

> <i_epik_Tot_abs_Q>
0

> <r_epik_Metal_State_Penalty>
-0

> <b_epik_Metal_Only>
0

> <s_lp_Force_Field>
OPLS_2005

> <r_lp_Energy>
8.86729

> <b_lp_Chiralities_Consistent>
1

> <s_lp_Variant>
AV-unprocessed.smi:2930-2

> <Gold.Version>
5.8.1

> <Gold.Id.Protein>
6NUR|6NUR_protein|mol2

> <Gold.PLP.Fitness>
42.9057

> <Gold.PLP.PLP>
-33.4136

> <Gold.PLP.part.hbond>
-0.9056

> <Gold.PLP.part.metal>
0.0000

> <Gold.PLP.part.buried>
-7.3452

> <Gold.PLP.part.nonpolar>
-26.4410

> <Gold.PLP.part.repulsive>
0.6017

> <Gold.PLP.ligand.clash>
0.0000

> <Gold.PLP.ligand.torsion>
0.6248

> <Gold.PLP.Chemscore.Hbond>
0.6012

> <Gold.PLP.Chemscore.CHOScore>
2.9378

> <Gold.PLP.Chemscore.Metal>
0.0000

> <Gold.Chemscore.Hbonds>
donor molecule, donor type, donor heavy atom, donor atom, acceptor molecule, acceptor atom, score
      L1  C     8    26       P1 10175  0.21

> <Gold.PLP.Chemscore.Internal.Correction>
0.1244

> <Gold.Rescore>
     Score         DG    S(hbond)    S(metal)    S(lipo)     H(rot)  DE(clash)    DE(int)     intcor
     10.85     -14.11       0.81        0.00      76.67       1.19       0.19       3.07       ----

> <Gold.Chemscore.Fitness>
10.8456

> <Gold.Chemscore.DG>
-14.1126

> <Gold.Chemscore.ZeroCoef>
-5.4800

> <Gold.Chemscore.Hbond>
0.8148

> <Gold.Chemscore.Metal>
0.0000

> <Gold.Chemscore.Lipo>
76.6687

> <Gold.Chemscore.Internal_Hbond>
0.0000

> <Gold.Chemscore.DEClash>
0.1950

> <Gold.Chemscore.DEInternal>
3.0720

> <Gold.Chemscore.Rot>
1.1949

> <Gold.Chemscore.Internal.Correction>
   9.000000E+99

> <Gold.Chemscore.Hbond.Weighted>
-2.7213

> <Gold.Chemscore.Metal.Weighted>
-0.0000

> <Gold.Chemscore.Lipo.Weighted>
-8.9702

> <Gold.Chemscore.Internal_Hbond.Weighted>
0.0000

> <Gold.Chemscore.DEClash.Weighted>
0.1950

> <Gold.Chemscore.DEInternal.Weighted>
3.0720

> <Gold.Chemscore.Rot.Weighted>
3.0590

> <Gold.Chemscore.Internal.Correction.Weighted>
   9.000000E+99

> <Gold.Protein.RotatedTorsions>
[ 6907 6896 6895 6894 ] final  -36.80 input  -60.11 | X-H torsion
[ 7974 7965 7964 7962 ] final   79.16 input  175.53 | X-H torsion
[ 8008 7997 7996 7995 ] final -168.35 input   59.86 | X-H torsion
[ 10167 10162 10161 10158 ] final  143.70 input  -65.29 | X-H torsion
[ 10718 10713 10712 10709 ] final  -47.85 input   66.30 | X-H torsion
[ 10763 10752 10751 10750 ] final  121.28 input  -60.55 | X-H torsion
[ 11005 11000 10999 10996 ] final   38.99 input  -57.11 | X-H torsion

> <Gold.Protein.ActiveResidues>
 VAL166  LYS551  ARG553  GLY616  TRP617  ASP618  TYR619  PRO620  LYS621  CYS622 
 ASP623  PHE694  ASN695  SER759  ASP760  ASP761  ALA762  ILE779  LEU786  VAL792 
 PHE793  MET794  SER795  GLU796  ALA797  LYS798  CYS799  TRP800  GLU811  SER814 

> <Gold.Protein.RotatedAtoms>
  151.0227  134.9481  159.8067 H   0  0  0  0  0  0  0  0  0  0  0  0  # atno 6907 bound_to 6896
  152.5328  134.2883  159.9043 H   0  0  0  0  0  0  0  0  0  0  0  0  # atno 6908 bound_to 6896
  151.2891  133.4132  159.2666 H   0  0  0  0  0  0  0  0  0  0  0  0  # atno 6909 bound_to 6896
  145.6677  139.2488  143.1886 H   0  0  0  0  0  0  0  0  0  0  0  0  # atno 7974 bound_to 7965
  155.8902  140.1023  157.1424 H   0  0  0  0  0  0  0  0  0  0  0  0  # atno 8008 bound_to 7997
  154.4014  140.1312  156.4370 H   0  0  0  0  0  0  0  0  0  0  0  0  # atno 8009 bound_to 7997
  155.7542  140.3464  155.5168 H   0  0  0  0  0  0  0  0  0  0  0  0  # atno 8010 bound_to 7997
  139.4963  144.6022  151.6455 H   0  0  0  0  0  0  0  0  0  0  0  0  # atno 10167 bound_to 10162
  156.2045  130.4157  149.9197 H   0  0  0  0  0  0  0  0  0  0  0  0  # atno 10718 bound_to 10713
  153.6116  135.3429  155.2981 H   0  0  0  0  0  0  0  0  0  0  0  0  # atno 10763 bound_to 10752
  154.8617  135.4251  154.2303 H   0  0  0  0  0  0  0  0  0  0  0  0  # atno 10764 bound_to 10752
  153.3155  135.7034  153.7149 H   0  0  0  0  0  0  0  0  0  0  0  0  # atno 10765 bound_to 10752
  140.2072  134.3799  155.8067 H   0  0  0  0  0  0  0  0  0  0  0  0  # atno 11005 bound_to 11000
  146.1071  140.7473  142.9521 LP  0  0  0  0  0  0  0  0  0  0  0  0  # atno 17320 bound_to 7965
  144.7067  140.3880  143.7112 LP  0  0  0  0  0  0  0  0  0  0  0  0  # atno 17321 bound_to 7965
  140.5675  144.0165  150.6200 LP  0  0  0  0  0  0  0  0  0  0  0  0  # atno 17342 bound_to 10162
  140.3271  143.3100  152.0725 LP  0  0  0  0  0  0  0  0  0  0  0  0  # atno 17343 bound_to 10162
  156.6895  130.8890  151.3586 LP  0  0  0  0  0  0  0  0  0  0  0  0  # atno 17370 bound_to 10713
  157.7004  130.9327  150.0769 LP  0  0  0  0  0  0  0  0  0  0  0  0  # atno 17371 bound_to 10713
  141.2227  133.7124  156.8356 LP  0  0  0  0  0  0  0  0  0  0  0  0  # atno 17394 bound_to 11000
  140.1990  134.8910  157.3148 LP  0  0  0  0  0  0  0  0  0  0  0  0  # atno 17395 bound_to 11000

$$$$
