AV-unprocessed.smi:95|AV-procd|sdf|857|dock1
  -GOLD-   2262017303D 1   1.00000     0.00000
 Structure written by MMmdl.
 42 45  0  0  0  0  0  0  0  0  2 V2000
  148.7353  142.2721  153.7562 O   0  0  0  0  0  0  0  0  0  0  0  0
  147.9833  142.0728  154.7116 C   0  0  0  0  0  0  0  0  0  0  0  0
  146.5654  142.4159  154.7019 C   0  0  0  0  0  0  0  0  0  0  0  0
  146.0303  142.9991  153.6161 F   0  0  0  0  0  0  0  0  0  0  0  0
  145.7770  142.1507  155.7658 C   0  0  0  0  0  0  0  0  0  0  0  0
  146.2437  141.5461  156.9202 N   0  0  0  0  0  0  0  0  0  0  0  0
  145.3069  141.2634  158.0708 C   0  0  2  0  0  0  0  0  0  0  0  0
  143.9005  141.7921  157.7604 C   0  0  0  0  0  0  0  0  0  0  0  0
  143.8465  143.0668  158.5770 C   0  0  0  0  0  0  0  0  0  0  0  0
  144.7317  142.7116  159.7650 C   0  0  0  0  0  0  0  0  0  0  0  0
  145.7804  141.9312  159.2039 O   0  0  0  0  0  0  0  0  0  0  0  0
  147.6002  141.1666  157.0147 C   0  0  0  0  0  0  0  0  0  0  0  0
  148.0320  140.5820  158.0110 O   0  0  0  0  0  0  0  0  0  0  0  0
  148.4327  141.4648  155.9103 N   0  0  0  0  0  0  0  0  0  0  0  0
  149.8314  141.0774  155.9994 C   0  0  0  0  0  0  0  0  0  0  0  0
  150.5885  141.5776  157.2241 C   0  0  0  0  0  0  0  0  0  0  0  0
  151.2905  140.7354  158.1181 C   0  0  0  0  0  0  0  0  0  0  0  0
  151.9598  141.3024  159.2218 C   0  0  0  0  0  0  0  0  0  0  0  0
  151.9166  142.6997  159.4116 C   0  0  0  0  0  0  0  0  0  0  0  0
  152.5724  143.3060  160.5027 C   0  0  0  0  0  0  0  0  0  0  0  0
  152.5148  144.7044  160.6683 C   0  0  0  0  0  0  0  0  0  0  0  0
  151.8039  145.4995  159.7469 C   0  0  0  0  0  0  0  0  0  0  0  0
  151.1461  144.8997  158.6546 C   0  0  0  0  0  0  0  0  0  0  0  0
  151.2018  143.5020  158.4875 C   0  0  0  0  0  0  0  0  0  0  0  0
  150.5760  142.9115  157.4455 N   0  3  0  0  0  0  0  0  0  0  0  0
  144.7338  142.4223  155.7016 H   0  0  0  0  0  0  0  0  0  0  0  0
  145.3360  140.1887  158.2542 H   0  0  0  0  0  0  0  0  0  0  0  0
  143.7390  141.9431  156.6923 H   0  0  0  0  0  0  0  0  0  0  0  0
  143.1699  141.0710  158.1292 H   0  0  0  0  0  0  0  0  0  0  0  0
  144.2804  143.8950  158.0157 H   0  0  0  0  0  0  0  0  0  0  0  0
  142.8336  143.3457  158.8687 H   0  0  0  0  0  0  0  0  0  0  0  0
  145.1179  143.5898  160.2825 H   0  0  0  0  0  0  0  0  0  0  0  0
  144.1810  142.1037  160.4843 H   0  0  0  0  0  0  0  0  0  0  0  0
  149.8890  139.9896  155.9431 H   0  0  0  0  0  0  0  0  0  0  0  0
  150.3179  141.4212  155.0844 H   0  0  0  0  0  0  0  0  0  0  0  0
  151.3231  139.6662  157.9699 H   0  0  0  0  0  0  0  0  0  0  0  0
  152.4992  140.6685  159.9106 H   0  0  0  0  0  0  0  0  0  0  0  0
  153.1202  142.7055  161.2145 H   0  0  0  0  0  0  0  0  0  0  0  0
  153.0176  145.1691  161.5040 H   0  0  0  0  0  0  0  0  0  0  0  0
  151.7640  146.5709  159.8783 H   0  0  0  0  0  0  0  0  0  0  0  0
  150.6037  145.5158  157.9519 H   0  0  0  0  0  0  0  0  0  0  0  0
  150.0665  143.5041  156.7903 H   0  0  0  0  0  0  0  0  0  0  0  0
  1  2  2  0  0  0  0
  2 14  1  0  0  0  0
  2  3  1  0  0  0  0
  3  4  1  0  0  0  0
  3  5  2  0  0  0  0
  5  6  1  0  0  0  0
  5 26  1  0  0  0  0
  6  7  1  0  0  0  0
  6 12  1  0  0  0  0
  7 11  1  0  0  0  0
  7  8  1  0  0  0  0
  7 27  1  0  0  0  0
  8  9  1  0  0  0  0
  8 28  1  0  0  0  0
  8 29  1  0  0  0  0
  9 10  1  0  0  0  0
  9 30  1  0  0  0  0
  9 31  1  0  0  0  0
 10 11  1  0  0  0  0
 10 32  1  0  0  0  0
 10 33  1  0  0  0  0
 12 13  2  0  0  0  0
 12 14  1  0  0  0  0
 14 15  1  0  0  0  0
 15 16  1  0  0  0  0
 15 34  1  0  0  0  0
 15 35  1  0  0  0  0
 16 25  1  0  0  0  0
 16 17  2  0  0  0  0
 17 18  1  0  0  0  0
 17 36  1  0  0  0  0
 18 19  2  0  0  0  0
 18 37  1  0  0  0  0
 19 24  1  0  0  0  0
 19 20  1  0  0  0  0
 20 21  2  0  0  0  0
 20 38  1  0  0  0  0
 21 22  1  0  0  0  0
 21 39  1  0  0  0  0
 22 23  2  0  0  0  0
 22 40  1  0  0  0  0
 23 24  1  0  0  0  0
 23 41  1  0  0  0  0
 24 25  2  0  0  0  0
 25 42  1  0  0  0  0
M  CHG  1  25   1
M  END
> <s_m_source_file>
AV-unprocessed.smi

> <i_m_source_file_index>
95

> <i_lp_mmshare_version>
43012

> <i_f3d_flags>
0

> <s_epik_input>
TzFbQ0gyXVtDSDJdW0NIMl1bQ0BIXTFuKFtjSF1jKEYpYzI9TyljKD1PKW4yW0NIMl1jKFtjSF1bY0hdMyluYyhjMzQpW2NIXVtjSF1bY0hdW2NIXTQ=

> <s_epik_cmdline>
J2VwaWtfcHl0aG9uJywgJy1waCcsICc3LjAnLCAnLXRuJywgJzgnLCAnLW1hJywgJzIwMCcsICctbWV0YWxfYmluZGluZycsICctaW1hZScsICc8aW5maWxlLm1hZT4nLCAnLW9tYWUnLCAnPG91dGZpbGUubWFlPic=

> <r_lp_tautomer_probability>
1

> <r_epik_Ionization_Penalty>
1.83445

> <r_epik_Ionization_Penalty_Charging>
1.83445

> <r_epik_Ionization_Penalty_Neutral>
6.33322e-12

> <r_epik_State_Penalty>
1.95069

> <r_epik_Charging_Adjusted_Penalty>
3.78513

> <i_epik_Tot_Q>
1

> <i_epik_Tot_abs_Q>
1

> <r_epik_Metal_State_Penalty>
6.02102

> <b_epik_Metal_Only>
0

> <s_epik_Chemistry_Notes>
This compound contains an acetal/aminal-like group ( X-CH(R)-Y where X, Y are N, S, or O) that may be acid/base labile, releasing an aldehyde.

> <s_lp_Force_Field>
OPLS_2005

> <r_lp_Energy>
36.4977

> <b_lp_Chiralities_Consistent>
1

> <s_lp_Variant>
AV-unprocessed.smi:95-3

> <Gold.Version>
5.8.1

> <Gold.Id.Protein>
6NUR|6NUR_protein|mol2

> <Gold.PLP.Fitness>
52.1622

> <Gold.PLP.PLP>
-42.4500

> <Gold.PLP.part.hbond>
-3.6440

> <Gold.PLP.part.metal>
0.0000

> <Gold.PLP.part.buried>
-4.1903

> <Gold.PLP.part.nonpolar>
-34.1926

> <Gold.PLP.part.repulsive>
0.6876

> <Gold.PLP.ligand.clash>
0.0000

> <Gold.PLP.ligand.torsion>
0.0801

> <Gold.PLP.Chemscore.Hbond>
3.2880

> <Gold.PLP.Chemscore.CHOScore>
0.0000

> <Gold.PLP.Chemscore.Metal>
0.0000

> <Gold.Chemscore.Hbonds>
donor molecule, donor type, donor heavy atom, donor atom, acceptor molecule, acceptor atom, score
      L1  H    25    42       P1  8028  2.00
      P1  H  6934  6946       L1    11  0.67
      P1  H  8011  8017       L1     1  0.29

> <Gold.PLP.Chemscore.Internal.Correction>
0.0084

> <Gold.Rescore>
     Score         DG    S(hbond)    S(metal)    S(lipo)     H(rot)  DE(clash)    DE(int)     intcor
     16.89     -20.86       2.16        0.00     103.37       1.54       1.36       2.61       ----

> <Gold.Chemscore.Fitness>
16.8885

> <Gold.Chemscore.DG>
-20.8608

> <Gold.Chemscore.ZeroCoef>
-5.4800

> <Gold.Chemscore.Hbond>
2.1649

> <Gold.Chemscore.Metal>
0.0000

> <Gold.Chemscore.Lipo>
103.3692

> <Gold.Chemscore.Internal_Hbond>
0.0000

> <Gold.Chemscore.DEClash>
1.3609

> <Gold.Chemscore.DEInternal>
2.6114

> <Gold.Chemscore.Rot>
1.5407

> <Gold.Chemscore.Internal.Correction>
   9.000000E+99

> <Gold.Chemscore.Hbonds>
donor molecule, donor type, donor heavy atom, donor atom, acceptor molecule, acceptor atom, score
      L1  H    25    42       P1  8028  0.93
      P1  H  6934  6946       L1    11  0.54
      P1  H  8011  8017       L1     1  0.28

> <Gold.Chemscore.Hbond.Weighted>
-7.2309

> <Gold.Chemscore.Metal.Weighted>
-0.0000

> <Gold.Chemscore.Lipo.Weighted>
-12.0942

> <Gold.Chemscore.Internal_Hbond.Weighted>
0.0000

> <Gold.Chemscore.DEClash.Weighted>
1.3609

> <Gold.Chemscore.DEInternal.Weighted>
2.6114

> <Gold.Chemscore.Rot.Weighted>
3.9443

> <Gold.Chemscore.Internal.Correction.Weighted>
   9.000000E+99

> <Gold.Protein.RotatedTorsions>
[ 6907 6896 6895 6894 ] final  135.23 input  -60.11 | X-H torsion
[ 7974 7965 7964 7962 ] final   87.19 input  175.53 | X-H torsion
[ 8008 7997 7996 7995 ] final  -97.50 input   59.86 | X-H torsion
[ 10167 10162 10161 10158 ] final -179.48 input  -65.29 | X-H torsion
[ 10718 10713 10712 10709 ] final -109.46 input   66.30 | X-H torsion
[ 10763 10752 10751 10750 ] final  -68.33 input  -60.55 | X-H torsion
[ 11005 11000 10999 10996 ] final  -97.00 input  -57.11 | X-H torsion

> <Gold.Protein.ActiveResidues>
 VAL166  LYS551  ARG553  GLY616  TRP617  ASP618  TYR619  PRO620  LYS621  CYS622 
 ASP623  PHE694  ASN695  SER759  ASP760  ASP761  ALA762  ILE779  LEU786  VAL792 
 PHE793  MET794  SER795  GLU796  ALA797  LYS798  CYS799  TRP800  GLU811  SER814 

> <Gold.Protein.RotatedAtoms>
  152.3027  133.5672  159.5628 H   0  0  0  0  0  0  0  0  0  0  0  0  # atno 6907 bound_to 6896
  150.7285  134.0267  159.3728 H   0  0  0  0  0  0  0  0  0  0  0  0  # atno 6908 bound_to 6896
  151.8166  135.0665  160.0470 H   0  0  0  0  0  0  0  0  0  0  0  0  # atno 6909 bound_to 6896
  145.5622  139.2305  143.2453 H   0  0  0  0  0  0  0  0  0  0  0  0  # atno 7974 bound_to 7965
  154.7886  140.0462  157.1183 H   0  0  0  0  0  0  0  0  0  0  0  0  # atno 8008 bound_to 7997
  154.9618  140.3078  155.5008 H   0  0  0  0  0  0  0  0  0  0  0  0  # atno 8009 bound_to 7997
  156.2947  140.2269  156.4704 H   0  0  0  0  0  0  0  0  0  0  0  0  # atno 8010 bound_to 7997
  139.5384  144.2431  152.0844 H   0  0  0  0  0  0  0  0  0  0  0  0  # atno 10167 bound_to 10162
  156.0538  130.5765  150.8103 H   0  0  0  0  0  0  0  0  0  0  0  0  # atno 10718 bound_to 10713
  154.3875  135.6060  153.5824 H   0  0  0  0  0  0  0  0  0  0  0  0  # atno 10763 bound_to 10752
  152.9787  135.5875  154.4337 H   0  0  0  0  0  0  0  0  0  0  0  0  # atno 10764 bound_to 10752
  154.4116  135.2844  155.2011 H   0  0  0  0  0  0  0  0  0  0  0  0  # atno 10765 bound_to 10752
  141.1393  133.8138  157.0647 H   0  0  0  0  0  0  0  0  0  0  0  0  # atno 11005 bound_to 11000
  146.1843  140.6447  142.9175 LP  0  0  0  0  0  0  0  0  0  0  0  0  # atno 17320 bound_to 7965
  144.7477  140.5111  143.6824 LP  0  0  0  0  0  0  0  0  0  0  0  0  # atno 17321 bound_to 7965
  140.1905  144.4756  150.6481 LP  0  0  0  0  0  0  0  0  0  0  0  0  # atno 17342 bound_to 10162
  140.6603  143.2250  151.5872 LP  0  0  0  0  0  0  0  0  0  0  0  0  # atno 17343 bound_to 10162
  157.5490  131.0943  150.9722 LP  0  0  0  0  0  0  0  0  0  0  0  0  # atno 17370 bound_to 10713
  156.9986  130.5591  149.5309 LP  0  0  0  0  0  0  0  0  0  0  0  0  # atno 17371 bound_to 10713
  140.0549  134.9786  157.1203 LP  0  0  0  0  0  0  0  0  0  0  0  0  # atno 17394 bound_to 11000
  140.3934  134.2160  155.7165 LP  0  0  0  0  0  0  0  0  0  0  0  0  # atno 17395 bound_to 11000

$$$$
