AV-unprocessed.smi:21|AV-procd|sdf|155|dock3
  -GOLD-   2262015383D 1   1.00000     0.00000
 Structure written by MMmdl.
 61 64  0  0  0  0  0  0  0  0  1 V2000
  143.0024  135.2740  162.9568 C   0  0  0  0  0  0  0  0  0  0  0  0
  143.8186  134.1149  163.0039 O   0  0  0  0  0  0  0  0  0  0  0  0
  144.5184  133.8680  161.7925 C   0  0  1  0  0  0  0  0  0  0  0  0
  145.5002  135.0125  161.4966 C   0  0  0  0  0  0  0  0  0  0  0  0
  146.8873  134.3495  161.5037 C   0  0  2  0  0  0  0  0  0  0  0  0
  147.9182  135.0596  160.5992 C   0  0  0  0  0  0  0  0  0  0  0  0
  147.3514  135.4595  159.3077 N   0  0  0  0  0  0  0  0  0  0  0  0
  146.4812  134.5060  158.6299 C   0  0  0  0  0  0  0  0  0  0  0  0
  147.8315  136.5483  158.6368 C   0  0  0  0  0  0  0  0  0  0  0  0
  147.0277  137.1415  157.7137 N   0  0  0  0  0  0  0  0  0  0  0  0
  147.4341  138.2139  157.0315 C   0  0  0  0  0  0  0  0  0  0  0  0
  148.5990  138.8545  157.1075 N   0  0  0  0  0  0  0  0  0  0  0  0
  149.4249  138.2694  158.0191 C   0  0  0  0  0  0  0  0  0  0  0  0
  149.1278  137.1264  158.8207 C   0  0  0  0  0  0  0  0  0  0  0  0
  150.2218  136.8440  159.6340 N   0  0  0  0  0  0  0  0  0  0  0  0
  151.1047  137.7536  159.3294 C   0  0  0  0  0  0  0  0  0  0  0  0
  150.7110  138.6488  158.3637 N   0  0  0  0  0  0  0  0  0  0  0  0
  151.4961  139.7560  157.8437 C   0  0  0  0  0  0  0  0  0  0  0  0
  150.7562  141.1153  157.9728 C   0  0  2  0  0  0  0  0  0  0  0  0
  149.9641  141.4354  156.6852 C   0  0  0  0  0  0  0  0  0  0  0  0
  148.8983  142.3229  156.9545 O   0  0  0  0  0  0  0  0  0  0  0  0
  151.7285  142.2697  158.3275 C   0  0  2  0  0  0  0  0  0  0  0  0
  152.5080  142.0779  159.6169 C   0  0  0  0  0  0  0  0  0  0  0  0
  152.9611  143.4962  159.9411 C   0  0  0  0  0  0  0  0  0  0  0  0
  151.9336  144.3491  159.4519 O   0  0  0  0  0  0  0  0  0  0  0  0
  151.0463  143.6125  158.6168 C   0  0  0  0  0  0  0  0  0  0  0  0
  146.6302  132.9611  161.1548 N   0  0  0  0  0  0  0  0  0  0  0  0
  147.7296  132.0595  161.4721 C   0  0  0  0  0  0  0  0  0  0  0  0
  145.4265  132.6352  161.8937 C   0  0  0  0  0  0  0  0  0  0  0  0
  143.8229  133.7705  160.9566 H   0  0  0  0  0  0  0  0  0  0  0  0
  147.2542  134.3763  162.5314 H   0  0  0  0  0  0  0  0  0  0  0  0
  142.5072  135.4097  163.9180 H   0  0  0  0  0  0  0  0  0  0  0  0
  142.2300  135.1910  162.1916 H   0  0  0  0  0  0  0  0  0  0  0  0
  143.5972  136.1663  162.7579 H   0  0  0  0  0  0  0  0  0  0  0  0
  145.2755  135.4309  160.5150 H   0  0  0  0  0  0  0  0  0  0  0  0
  145.4382  135.8235  162.2232 H   0  0  0  0  0  0  0  0  0  0  0  0
  148.2645  135.9702  161.0874 H   0  0  0  0  0  0  0  0  0  0  0  0
  148.8123  134.4458  160.4916 H   0  0  0  0  0  0  0  0  0  0  0  0
  145.6176  135.0092  158.1944 H   0  0  0  0  0  0  0  0  0  0  0  0
  146.1064  133.7566  159.3277 H   0  0  0  0  0  0  0  0  0  0  0  0
  147.0233  133.9823  157.8419 H   0  0  0  0  0  0  0  0  0  0  0  0
  146.7236  138.6151  156.3240 H   0  0  0  0  0  0  0  0  0  0  0  0
  152.0740  137.7954  159.8039 H   0  0  0  0  0  0  0  0  0  0  0  0
  152.4611  139.7738  158.3504 H   0  0  0  0  0  0  0  0  0  0  0  0
  151.7293  139.5300  156.8024 H   0  0  0  0  0  0  0  0  0  0  0  0
  150.0308  141.0473  158.7860 H   0  0  0  0  0  0  0  0  0  0  0  0
  150.5993  141.9138  155.9404 H   0  0  0  0  0  0  0  0  0  0  0  0
  149.5718  140.5240  156.2331 H   0  0  0  0  0  0  0  0  0  0  0  0
  148.8840  142.9880  156.2831 H   0  0  0  0  0  0  0  0  0  0  0  0
  152.4410  142.4101  157.5126 H   0  0  0  0  0  0  0  0  0  0  0  0
  151.8568  141.7007  160.4068 H   0  0  0  0  0  0  0  0  0  0  0  0
  153.3522  141.3970  159.5135 H   0  0  0  0  0  0  0  0  0  0  0  0
  153.1325  143.6460  161.0071 H   0  0  0  0  0  0  0  0  0  0  0  0
  153.8861  143.7294  159.4126 H   0  0  0  0  0  0  0  0  0  0  0  0
  150.8193  144.1705  157.7082 H   0  0  0  0  0  0  0  0  0  0  0  0
  150.1134  143.4634  159.1621 H   0  0  0  0  0  0  0  0  0  0  0  0
  147.4562  131.0289  161.2442 H   0  0  0  0  0  0  0  0  0  0  0  0
  147.9949  132.1136  162.5286 H   0  0  0  0  0  0  0  0  0  0  0  0
  148.6157  132.3003  160.8855 H   0  0  0  0  0  0  0  0  0  0  0  0
  145.6748  132.4550  162.9413 H   0  0  0  0  0  0  0  0  0  0  0  0
  144.9488  131.7344  161.5074 H   0  0  0  0  0  0  0  0  0  0  0  0
  1  2  1  0  0  0  0
  1 32  1  0  0  0  0
  1 33  1  0  0  0  0
  1 34  1  0  0  0  0
  2  3  1  0  0  0  0
  3 30  1  0  0  0  0
  3 29  1  0  0  0  0
  3  4  1  0  0  0  0
  4  5  1  0  0  0  0
  4 35  1  0  0  0  0
  4 36  1  0  0  0  0
  5 31  1  0  0  0  0
  5  6  1  0  0  0  0
  5 27  1  0  0  0  0
  6  7  1  0  0  0  0
  6 37  1  0  0  0  0
  6 38  1  0  0  0  0
  7  8  1  0  0  0  0
  7  9  1  0  0  0  0
  8 39  1  0  0  0  0
  8 40  1  0  0  0  0
  8 41  1  0  0  0  0
  9 14  1  0  0  0  0
  9 10  2  0  0  0  0
 10 11  1  0  0  0  0
 11 12  2  0  0  0  0
 11 42  1  0  0  0  0
 12 13  1  0  0  0  0
 13 17  1  0  0  0  0
 13 14  2  0  0  0  0
 14 15  1  0  0  0  0
 15 16  2  0  0  0  0
 16 17  1  0  0  0  0
 16 43  1  0  0  0  0
 17 18  1  0  0  0  0
 18 19  1  0  0  0  0
 18 44  1  0  0  0  0
 18 45  1  0  0  0  0
 19 20  1  0  0  0  0
 19 22  1  0  0  0  0
 19 46  1  0  0  0  0
 20 21  1  0  0  0  0
 20 47  1  0  0  0  0
 20 48  1  0  0  0  0
 21 49  1  0  0  0  0
 22 26  1  0  0  0  0
 22 23  1  0  0  0  0
 22 50  1  0  0  0  0
 23 24  1  0  0  0  0
 23 51  1  0  0  0  0
 23 52  1  0  0  0  0
 24 25  1  0  0  0  0
 24 53  1  0  0  0  0
 24 54  1  0  0  0  0
 25 26  1  0  0  0  0
 26 55  1  0  0  0  0
 26 56  1  0  0  0  0
 27 28  1  0  0  0  0
 27 29  1  0  0  0  0
 28 57  1  0  0  0  0
 28 58  1  0  0  0  0
 28 59  1  0  0  0  0
 29 60  1  0  0  0  0
 29 61  1  0  0  0  0
M  END
> <s_m_source_file>
AV-unprocessed.smi

> <i_m_source_file_index>
21

> <i_lp_mmshare_version>
43012

> <i_f3d_flags>
0

> <s_epik_input>
W0NIM11PW0NASF0xW0NIMl1bQ0BIXShOKFtDSDNdKVtDSDJdMSlbQ0gyXU4oW0NIM10pYyhuW2NIXW4yKWMoYzIzKW5bY0hdbjNbQ0gyXVtDQEhdKFtDSDJdW09IXSlbQ0BASF00W0NIMl1bQ0gyXU9bQ0gyXTQ=

> <s_epik_cmdline>
J2VwaWtfcHl0aG9uJywgJy1waCcsICc3LjAnLCAnLXRuJywgJzgnLCAnLW1hJywgJzIwMCcsICctbWV0YWxfYmluZGluZycsICctaW1hZScsICc8aW5maWxlLm1hZT4nLCAnLW9tYWUnLCAnPG91dGZpbGUubWFlPic=

> <r_lp_tautomer_probability>
1

> <r_epik_Ionization_Penalty>
2.17574

> <r_epik_Ionization_Penalty_Charging>
0

> <r_epik_Ionization_Penalty_Neutral>
2.17574

> <r_epik_State_Penalty>
2.31336

> <r_epik_Charging_Adjusted_Penalty>
2.31336

> <i_epik_Tot_Q>
0

> <i_epik_Tot_abs_Q>
0

> <r_epik_Metal_State_Penalty>
2.31025

> <b_epik_Metal_Only>
0

> <s_lp_Force_Field>
OPLS_2005

> <r_lp_Energy>
70.8096

> <b_lp_Chiralities_Consistent>
1

> <s_lp_Variant>
AV-unprocessed.smi:21-35

> <Gold.Version>
5.8.1

> <Gold.Id.Protein>
6NUR|6NUR_protein|mol2

> <Gold.PLP.Fitness>
46.9704

> <Gold.PLP.PLP>
-43.0995

> <Gold.PLP.part.hbond>
-2.0000

> <Gold.PLP.part.metal>
0.0000

> <Gold.PLP.part.buried>
-8.9832

> <Gold.PLP.part.nonpolar>
-32.9047

> <Gold.PLP.part.repulsive>
0.1330

> <Gold.PLP.ligand.clash>
0.0000

> <Gold.PLP.ligand.torsion>
1.5435

> <Gold.PLP.Chemscore.Hbond>
2.0000

> <Gold.PLP.Chemscore.CHOScore>
0.0000

> <Gold.PLP.Chemscore.Metal>
0.0000

> <Gold.Chemscore.Hbonds>
donor molecule, donor type, donor heavy atom, donor atom, acceptor molecule, acceptor atom, score
      L1  H    21    49       P1  8028  1.00
      P1  H  6896  6909       L1    15  1.00

> <Gold.PLP.Chemscore.Internal.Correction>
0.9580

> <Gold.Rescore>
     Score         DG    S(hbond)    S(metal)    S(lipo)     H(rot)  DE(clash)    DE(int)     intcor
     13.38     -17.01       1.93        0.00     109.12       3.00       0.00       3.63       ----

> <Gold.Chemscore.Fitness>
13.3776

> <Gold.Chemscore.DG>
-17.0126

> <Gold.Chemscore.ZeroCoef>
-5.4800

> <Gold.Chemscore.Hbond>
1.9321

> <Gold.Chemscore.Metal>
0.0000

> <Gold.Chemscore.Lipo>
109.1231

> <Gold.Chemscore.Internal_Hbond>
0.0000

> <Gold.Chemscore.DEClash>
0.0000

> <Gold.Chemscore.DEInternal>
3.6349

> <Gold.Chemscore.Rot>
3.0031

> <Gold.Chemscore.Internal.Correction>
   9.000000E+99

> <Gold.Chemscore.Hbonds>
donor molecule, donor type, donor heavy atom, donor atom, acceptor molecule, acceptor atom, score
      L1  H    21    49       P1  8028  0.97
      P1  H  6896  6909       L1    15  0.80

> <Gold.Chemscore.Hbond.Weighted>
-6.4532

> <Gold.Chemscore.Metal.Weighted>
-0.0000

> <Gold.Chemscore.Lipo.Weighted>
-12.7674

> <Gold.Chemscore.Internal_Hbond.Weighted>
0.0000

> <Gold.Chemscore.DEClash.Weighted>
0.0000

> <Gold.Chemscore.DEInternal.Weighted>
3.6349

> <Gold.Chemscore.Rot.Weighted>
7.6880

> <Gold.Chemscore.Internal.Correction.Weighted>
   9.000000E+99

> <Gold.Protein.RotatedTorsions>
[ 6907 6896 6895 6894 ] final   87.32 input  -60.11 | X-H torsion
[ 7974 7965 7964 7962 ] final   46.45 input  175.53 | X-H torsion
[ 8008 7997 7996 7995 ] final   69.42 input   59.86 | X-H torsion
[ 10167 10162 10161 10158 ] final  -12.06 input  -65.29 | X-H torsion
[ 10718 10713 10712 10709 ] final  -85.31 input   66.30 | X-H torsion
[ 10763 10752 10751 10750 ] final  117.02 input  -60.55 | X-H torsion
[ 11005 11000 10999 10996 ] final  -63.36 input  -57.11 | X-H torsion

> <Gold.Protein.ActiveResidues>
 VAL166  LYS551  ARG553  GLY616  TRP617  ASP618  TYR619  PRO620  LYS621  CYS622 
 ASP623  PHE694  ASN695  SER759  ASP760  ASP761  ALA762  ILE779  LEU786  VAL792 
 PHE793  MET794  SER795  GLU796  ALA797  LYS798  CYS799  TRP800  GLU811  SER814 

> <Gold.Protein.RotatedAtoms>
  152.5409  134.2295  159.8819 H   0  0  0  0  0  0  0  0  0  0  0  0  # atno 6907 bound_to 6896
  151.2268  133.4465  159.2610 H   0  0  0  0  0  0  0  0  0  0  0  0  # atno 6908 bound_to 6896
  151.0753  134.9838  159.8385 H   0  0  0  0  0  0  0  0  0  0  0  0  # atno 6909 bound_to 6896
  146.0388  139.4854  142.9791 H   0  0  0  0  0  0  0  0  0  0  0  0  # atno 7974 bound_to 7965
  155.7234  140.3493  155.5026 H   0  0  0  0  0  0  0  0  0  0  0  0  # atno 8008 bound_to 7997
  155.9249  140.1073  157.1200 H   0  0  0  0  0  0  0  0  0  0  0  0  # atno 8009 bound_to 7997
  154.4075  140.1242  156.4714 H   0  0  0  0  0  0  0  0  0  0  0  0  # atno 8010 bound_to 7997
  140.7153  143.5572  150.9235 H   0  0  0  0  0  0  0  0  0  0  0  0  # atno 10167 bound_to 10162
  155.9998  130.4727  150.4542 H   0  0  0  0  0  0  0  0  0  0  0  0  # atno 10718 bound_to 10713
  153.5460  135.3549  155.2739 H   0  0  0  0  0  0  0  0  0  0  0  0  # atno 10763 bound_to 10752
  154.8712  135.4102  154.2990 H   0  0  0  0  0  0  0  0  0  0  0  0  # atno 10764 bound_to 10752
  153.3707  135.7064  153.6708 H   0  0  0  0  0  0  0  0  0  0  0  0  # atno 10765 bound_to 10752
  141.1390  133.6651  156.5669 H   0  0  0  0  0  0  0  0  0  0  0  0  # atno 11005 bound_to 11000
  145.6919  141.0162  143.1551 LP  0  0  0  0  0  0  0  0  0  0  0  0  # atno 17320 bound_to 7965
  144.7064  139.8542  143.7428 LP  0  0  0  0  0  0  0  0  0  0  0  0  # atno 17321 bound_to 7965
  139.9298  143.6507  152.3079 LP  0  0  0  0  0  0  0  0  0  0  0  0  # atno 17342 bound_to 10162
  139.6954  144.7642  151.1366 LP  0  0  0  0  0  0  0  0  0  0  0  0  # atno 17343 bound_to 10162
  157.2573  131.0559  151.2342 LP  0  0  0  0  0  0  0  0  0  0  0  0  # atno 17370 bound_to 10713
  157.3470  130.7062  149.6417 LP  0  0  0  0  0  0  0  0  0  0  0  0  # atno 17371 bound_to 10713
  140.3944  134.7412  157.4741 LP  0  0  0  0  0  0  0  0  0  0  0  0  # atno 17394 bound_to 11000
  140.0542  134.6087  155.8825 LP  0  0  0  0  0  0  0  0  0  0  0  0  # atno 17395 bound_to 11000

$$$$
