AV-unprocessed.smi:618|AV-procd|sdf|3075|dock2
  -GOLD-   22720 0 03D 1   1.00000     0.00000
 Structure written by MMmdl.
 41 43  0  0  0  0  0  0  0  0  2 V2000
  149.1955  135.5084  156.4713 O   0  0  0  0  0  0  0  0  0  0  0  0
  149.0305  135.6577  155.2610 C   0  0  0  0  0  0  0  0  0  0  0  0
  148.3949  134.7641  154.4900 N   0  0  0  0  0  0  0  0  0  0  0  0
  147.8101  133.5171  154.9721 C   0  0  0  0  0  0  0  0  0  0  0  0
  146.2701  133.5134  154.8400 C   0  0  1  0  0  0  0  0  0  0  0  0
  145.7815  134.0076  153.4565 C   0  0  0  0  0  0  0  0  0  0  0  0
  145.9996  132.9451  152.4576 N   0  3  2  0  0  0  0  0  0  0  0  0
  145.6031  133.2114  151.0637 C   0  0  0  0  0  0  0  0  0  0  0  0
  145.3606  131.8191  150.4474 C   0  0  0  0  0  0  0  0  0  0  0  0
  145.4895  130.8198  151.6107 C   0  0  0  0  0  0  0  0  0  0  0  0
  145.3280  131.7029  152.8440 C   0  0  1  0  0  0  0  0  0  0  0  0
  145.9187  131.2058  154.1682 C   0  0  0  0  0  0  0  0  0  0  0  0
  145.7157  132.2251  155.1513 O   0  0  0  0  0  0  0  0  0  0  0  0
  149.4710  136.7021  154.5388 N   0  0  0  0  0  0  0  0  0  0  0  0
  150.1629  137.8572  154.9933 C   0  0  0  0  0  0  0  0  0  0  0  0
  150.6924  137.8415  156.3001 C   0  0  0  0  0  0  0  0  0  0  0  0
  151.3979  138.9661  156.7684 C   0  0  0  0  0  0  0  0  0  0  0  0
  151.5559  140.0657  155.9026 C   0  0  0  0  0  0  0  0  0  0  0  0
  151.0703  140.0918  154.6439 N   0  0  0  0  0  0  0  0  0  0  0  0
  150.3928  139.0102  154.2019 C   0  0  0  0  0  0  0  0  0  0  0  0
  148.3073  134.9608  153.5036 H   0  0  0  0  0  0  0  0  0  0  0  0
  148.2350  132.6803  154.4151 H   0  0  0  0  0  0  0  0  0  0  0  0
  148.1176  133.3706  156.0070 H   0  0  0  0  0  0  0  0  0  0  0  0
  145.8743  134.2055  155.5838 H   0  0  0  0  0  0  0  0  0  0  0  0
  144.7187  134.2504  153.5009 H   0  0  0  0  0  0  0  0  0  0  0  0
  146.3051  134.9167  153.1590 H   0  0  0  0  0  0  0  0  0  0  0  0
  144.6826  133.7968  151.0416 H   0  0  0  0  0  0  0  0  0  0  0  0
  146.3762  133.7734  150.5389 H   0  0  0  0  0  0  0  0  0  0  0  0
  144.3646  131.7730  150.0055 H   0  0  0  0  0  0  0  0  0  0  0  0
  146.0802  131.5953  149.6590 H   0  0  0  0  0  0  0  0  0  0  0  0
  144.7505  130.0191  151.5656 H   0  0  0  0  0  0  0  0  0  0  0  0
  146.4810  130.3646  151.5993 H   0  0  0  0  0  0  0  0  0  0  0  0
  144.2643  131.9087  152.9826 H   0  0  0  0  0  0  0  0  0  0  0  0
  145.4133  130.2957  154.4916 H   0  0  0  0  0  0  0  0  0  0  0  0
  146.9770  130.9638  154.0693 H   0  0  0  0  0  0  0  0  0  0  0  0
  149.3400  136.6412  153.5398 H   0  0  0  0  0  0  0  0  0  0  0  0
  150.5570  136.9816  156.9401 H   0  0  0  0  0  0  0  0  0  0  0  0
  151.8086  138.9856  157.7670 H   0  0  0  0  0  0  0  0  0  0  0  0
  152.0913  140.9455  156.2276 H   0  0  0  0  0  0  0  0  0  0  0  0
  150.0528  139.0793  153.1803 H   0  0  0  0  0  0  0  0  0  0  0  0
  146.9889  132.7430  152.4401 H   0  0  0  0  0  0  0  0  0  0  0  0
  1  2  2  0  0  0  0
  2  3  1  0  0  0  0
  2 14  1  0  0  0  0
  3  4  1  0  0  0  0
  3 21  1  0  0  0  0
  4  5  1  0  0  0  0
  4 22  1  0  0  0  0
  4 23  1  0  0  0  0
  5 13  1  0  0  0  0
  5  6  1  0  0  0  0
  5 24  1  0  0  0  0
  6  7  1  0  0  0  0
  6 25  1  0  0  0  0
  6 26  1  0  0  0  0
  7 11  1  0  0  0  0
  7  8  1  0  0  0  0
  7 41  1  0  0  0  0
  8  9  1  0  0  0  0
  8 27  1  0  0  0  0
  8 28  1  0  0  0  0
  9 10  1  0  0  0  0
  9 29  1  0  0  0  0
  9 30  1  0  0  0  0
 10 11  1  0  0  0  0
 10 31  1  0  0  0  0
 10 32  1  0  0  0  0
 11 12  1  0  0  0  0
 11 33  1  0  0  0  0
 12 13  1  0  0  0  0
 12 34  1  0  0  0  0
 12 35  1  0  0  0  0
 14 15  1  0  0  0  0
 14 36  1  0  0  0  0
 15 20  1  0  0  0  0
 15 16  2  0  0  0  0
 16 17  1  0  0  0  0
 16 37  1  0  0  0  0
 17 18  2  0  0  0  0
 17 38  1  0  0  0  0
 18 19  1  0  0  0  0
 18 39  1  0  0  0  0
 19 20  2  0  0  0  0
 20 40  1  0  0  0  0
M  CHG  1   7   1
M  END
> <s_m_source_file>
AV-unprocessed.smi

> <i_m_source_file_index>
618

> <i_lp_mmshare_version>
43012

> <i_f3d_flags>
0

> <s_epik_input>
W2NIXTFuW2NIXVtjSF1bY0hdYzFbTkhdQyg9TylbTkhdW0NIMl1bQ0BIXShbQ0gyXTIpT1tDSDJdW0NAQEhdKE4yMylbQ0gyXVtDSDJdW0NIMl0z

> <s_epik_cmdline>
J2VwaWtfcHl0aG9uJywgJy1waCcsICc3LjAnLCAnLXRuJywgJzgnLCAnLW1hJywgJzIwMCcsICctbWV0YWxfYmluZGluZycsICctaW1hZScsICc8aW5maWxlLm1hZT4nLCAnLW9tYWUnLCAnPG91dGZpbGUubWFlPic=

> <r_epik_Ionization_Penalty>
0.111044

> <r_epik_Ionization_Penalty_Charging>
0.10673

> <r_epik_Ionization_Penalty_Neutral>
0.00431361

> <r_epik_State_Penalty>
0.0978747

> <r_epik_Charging_Adjusted_Penalty>
0.204605

> <i_epik_Tot_Q>
1

> <i_epik_Tot_abs_Q>
1

> <r_epik_Metal_State_Penalty>
0.0947591

> <b_epik_Metal_Only>
0

> <s_lp_Force_Field>
OPLS_2005

> <r_lp_Energy>
41.905

> <b_lp_Chiralities_Consistent>
1

> <s_lp_Variant>
AV-unprocessed.smi:618-2

> <Gold.Version>
5.8.1

> <Gold.Id.Protein>
6NUR|6NUR_protein|mol2

> <Gold.PLP.Fitness>
42.9836

> <Gold.PLP.PLP>
-31.6933

> <Gold.PLP.part.hbond>
-4.0000

> <Gold.PLP.part.metal>
0.0000

> <Gold.PLP.part.buried>
-3.7439

> <Gold.PLP.part.nonpolar>
-24.4705

> <Gold.PLP.part.repulsive>
0.2471

> <Gold.PLP.ligand.clash>
0.0000

> <Gold.PLP.ligand.torsion>
0.1084

> <Gold.PLP.Chemscore.Hbond>
2.8320

> <Gold.PLP.Chemscore.CHOScore>
1.0000

> <Gold.PLP.Chemscore.Metal>
0.0000

> <Gold.Chemscore.Hbonds>
donor molecule, donor type, donor heavy atom, donor atom, acceptor molecule, acceptor atom, score
      L1  H     3    21       P1  7948  0.65
      L1  H    14    36       P1  7948  1.00
      P1  H  7989  7998       L1    19  0.91
      L1  C    20    40       P1  7957  1.00

> <Gold.PLP.Chemscore.Internal.Correction>
0.0109

> <Gold.Rescore>
     Score         DG    S(hbond)    S(metal)    S(lipo)     H(rot)  DE(clash)    DE(int)     intcor
     15.70     -17.26       1.73        0.00      79.05       1.27       0.00       1.55       ----

> <Gold.Chemscore.Fitness>
15.7030

> <Gold.Chemscore.DG>
-17.2555

> <Gold.Chemscore.ZeroCoef>
-5.4800

> <Gold.Chemscore.Hbond>
1.7264

> <Gold.Chemscore.Metal>
0.0000

> <Gold.Chemscore.Lipo>
79.0516

> <Gold.Chemscore.Internal_Hbond>
0.0000

> <Gold.Chemscore.DEClash>
0.0000

> <Gold.Chemscore.DEInternal>
1.5525

> <Gold.Chemscore.Rot>
1.2656

> <Gold.Chemscore.Internal.Correction>
   9.000000E+99

> <Gold.Chemscore.Hbonds>
donor molecule, donor type, donor heavy atom, donor atom, acceptor molecule, acceptor atom, score
      L1  H     3    21       P1  7948  0.57
      L1  H    14    36       P1  7948  0.93
      P1  H  7989  7998       L1    19  0.68

> <Gold.Chemscore.Hbond.Weighted>
-5.7663

> <Gold.Chemscore.Metal.Weighted>
-0.0000

> <Gold.Chemscore.Lipo.Weighted>
-9.2490

> <Gold.Chemscore.Internal_Hbond.Weighted>
0.0000

> <Gold.Chemscore.DEClash.Weighted>
0.0000

> <Gold.Chemscore.DEInternal.Weighted>
1.5525

> <Gold.Chemscore.Rot.Weighted>
3.2399

> <Gold.Chemscore.Internal.Correction.Weighted>
   9.000000E+99

> <Gold.Protein.RotatedTorsions>
[ 6907 6896 6895 6894 ] final -157.32 input  -60.11 | X-H torsion
[ 7974 7965 7964 7962 ] final   91.78 input  175.53 | X-H torsion
[ 8008 7997 7996 7995 ] final -166.32 input   59.86 | X-H torsion
[ 10167 10162 10161 10158 ] final   24.75 input  -65.29 | X-H torsion
[ 10718 10713 10712 10709 ] final  139.27 input   66.30 | X-H torsion
[ 10763 10752 10751 10750 ] final -178.61 input  -60.55 | X-H torsion
[ 11005 11000 10999 10996 ] final  -73.98 input  -57.11 | X-H torsion

> <Gold.Protein.ActiveResidues>
 VAL166  LYS551  ARG553  GLY616  TRP617  ASP618  TYR619  PRO620  LYS621  CYS622 
 ASP623  PHE694  ASN695  SER759  ASP760  ASP761  ALA762  ILE779  LEU786  VAL792 
 PHE793  MET794  SER795  GLU796  ALA797  LYS798  CYS799  TRP800  GLU811  SER814 

> <Gold.Protein.RotatedAtoms>
  151.3011  133.4122  159.2639 H   0  0  0  0  0  0  0  0  0  0  0  0  # atno 6907 bound_to 6896
  151.0195  134.9459  159.8062 H   0  0  0  0  0  0  0  0  0  0  0  0  # atno 6908 bound_to 6896
  152.5320  134.2974  159.9118 H   0  0  0  0  0  0  0  0  0  0  0  0  # atno 6909 bound_to 6896
  145.5010  139.2276  143.2777 H   0  0  0  0  0  0  0  0  0  0  0  0  # atno 7974 bound_to 7965
  155.8622  140.0980  157.1605 H   0  0  0  0  0  0  0  0  0  0  0  0  # atno 8008 bound_to 7997
  154.3991  140.1363  156.4038 H   0  0  0  0  0  0  0  0  0  0  0  0  # atno 8009 bound_to 7997
  155.7843  140.3457  155.5317 H   0  0  0  0  0  0  0  0  0  0  0  0  # atno 8010 bound_to 7997
  140.5162  144.0078  150.6395 H   0  0  0  0  0  0  0  0  0  0  0  0  # atno 10167 bound_to 10162
  157.4162  131.1033  151.0402 H   0  0  0  0  0  0  0  0  0  0  0  0  # atno 10718 bound_to 10713
  154.5455  135.2809  155.1057 H   0  0  0  0  0  0  0  0  0  0  0  0  # atno 10763 bound_to 10752
  154.2523  135.6337  153.5248 H   0  0  0  0  0  0  0  0  0  0  0  0  # atno 10764 bound_to 10752
  152.9989  135.5585  154.6006 H   0  0  0  0  0  0  0  0  0  0  0  0  # atno 10765 bound_to 10752
  141.1629  133.6896  156.7294 H   0  0  0  0  0  0  0  0  0  0  0  0  # atno 11005 bound_to 11000
  146.2226  140.5811  142.9010 LP  0  0  0  0  0  0  0  0  0  0  0  0  # atno 17320 bound_to 7965
  144.7780  140.5780  143.6625 LP  0  0  0  0  0  0  0  0  0  0  0  0  # atno 17321 bound_to 7965
  140.3414  143.3017  152.0584 LP  0  0  0  0  0  0  0  0  0  0  0  0  # atno 17342 bound_to 10162
  139.4910  144.6440  151.6818 LP  0  0  0  0  0  0  0  0  0  0  0  0  # atno 17343 bound_to 10162
  157.1348  130.6118  149.5539 LP  0  0  0  0  0  0  0  0  0  0  0  0  # atno 17370 bound_to 10713
  155.9866  130.4901  150.7086 LP  0  0  0  0  0  0  0  0  0  0  0  0  # atno 17371 bound_to 10713
  140.2756  134.8357  157.3887 LP  0  0  0  0  0  0  0  0  0  0  0  0  # atno 17394 bound_to 11000
  140.1480  134.4886  155.7982 LP  0  0  0  0  0  0  0  0  0  0  0  0  # atno 17395 bound_to 11000

$$$$
