AV-unprocessed.smi:411|AV-procd|sdf|2509|dock2
  -GOLD-   2262022463D 1   1.00000     0.00000
 Structure written by MMmdl.
 35 36  0  0  0  0  0  0  0  0  1 V2000
  149.7109  142.2498  158.0930 O   0  0  0  0  0  0  0  0  0  0  0  0
  150.9267  142.0843  157.9848 C   0  0  0  0  0  0  0  0  0  0  0  0
  151.9187  143.1128  158.5479 C   0  0  0  0  0  0  0  0  0  0  0  0
  152.5326  142.7028  159.8231 N   0  0  0  0  0  0  0  0  0  0  0  0
  152.3000  143.5311  160.9354 C   0  0  0  0  0  0  0  0  0  0  0  0
  152.8096  143.2511  162.1425 C   0  0  0  0  0  0  0  0  0  0  0  0
  153.6145  142.0626  162.2841 C   0  0  0  0  0  0  0  0  0  0  0  0
  153.8609  141.2493  161.2310 C   0  0  0  0  0  0  0  0  0  0  0  0
  154.7070  139.9853  161.3647 C   0  0  0  0  0  0  0  0  0  0  0  0
  154.0132  138.9122  160.9830 F   0  0  0  0  0  0  0  0  0  0  0  0
  155.7969  140.0701  160.6011 F   0  0  0  0  0  0  0  0  0  0  0  0
  155.1044  139.7865  162.6224 F   0  0  0  0  0  0  0  0  0  0  0  0
  153.2975  141.5700  159.9035 C   0  0  0  0  0  0  0  0  0  0  0  0
  153.4980  140.8641  158.9135 O   0  0  0  0  0  0  0  0  0  0  0  0
  151.4707  141.0081  157.3967 N   0  0  0  0  0  0  0  0  0  0  0  0
  150.7227  139.9071  156.7952 C   0  0  1  0  0  0  0  0  0  0  0  0
  150.9390  139.8598  155.2574 C   0  0  0  0  0  0  0  0  0  0  0  0
  151.4935  138.4964  154.8171 C   0  0  0  0  0  0  0  0  0  0  0  0
  150.9664  137.3212  156.1046 S   0  0  0  0  0  0  0  0  0  0  0  0
  149.5468  136.9983  155.8961 O   0  0  0  0  0  0  0  0  0  0  0  0
  151.9742  136.2645  156.2797 O   0  0  0  0  0  0  0  0  0  0  0  0
  151.0971  138.5555  157.4383 C   0  0  0  0  0  0  0  0  0  0  0  0
  152.6874  143.2895  157.7944 H   0  0  0  0  0  0  0  0  0  0  0  0
  151.4126  144.0727  158.6666 H   0  0  0  0  0  0  0  0  0  0  0  0
  151.6932  144.4040  160.7434 H   0  0  0  0  0  0  0  0  0  0  0  0
  152.6253  143.8996  162.9863 H   0  0  0  0  0  0  0  0  0  0  0  0
  154.0213  141.8326  163.2576 H   0  0  0  0  0  0  0  0  0  0  0  0
  152.4779  140.9510  157.3541 H   0  0  0  0  0  0  0  0  0  0  0  0
  149.6578  140.0791  156.9641 H   0  0  0  0  0  0  0  0  0  0  0  0
  149.9769  140.0189  154.7687 H   0  0  0  0  0  0  0  0  0  0  0  0
  151.5889  140.6626  154.9066 H   0  0  0  0  0  0  0  0  0  0  0  0
  151.1340  138.1764  153.8389 H   0  0  0  0  0  0  0  0  0  0  0  0
  152.5835  138.5101  154.8045 H   0  0  0  0  0  0  0  0  0  0  0  0
  152.1314  138.5530  157.7846 H   0  0  0  0  0  0  0  0  0  0  0  0
  150.4498  138.2819  158.2719 H   0  0  0  0  0  0  0  0  0  0  0  0
  1  2  2  0  0  0  0
  2  3  1  0  0  0  0
  2 15  1  0  0  0  0
  3  4  1  0  0  0  0
  3 23  1  0  0  0  0
  3 24  1  0  0  0  0
  4 13  1  0  0  0  0
  4  5  1  0  0  0  0
  5  6  2  0  0  0  0
  5 25  1  0  0  0  0
  6  7  1  0  0  0  0
  6 26  1  0  0  0  0
  7  8  2  0  0  0  0
  7 27  1  0  0  0  0
  8  9  1  0  0  0  0
  8 13  1  0  0  0  0
  9 10  1  0  0  0  0
  9 11  1  0  0  0  0
  9 12  1  0  0  0  0
 13 14  2  0  0  0  0
 15 16  1  0  0  0  0
 15 28  1  0  0  0  0
 16 22  1  0  0  0  0
 16 17  1  0  0  0  0
 16 29  1  0  0  0  0
 17 18  1  0  0  0  0
 17 30  1  0  0  0  0
 17 31  1  0  0  0  0
 18 19  1  0  0  0  0
 18 32  1  0  0  0  0
 18 33  1  0  0  0  0
 19 20  2  0  0  0  0
 19 21  2  0  0  0  0
 19 22  1  0  0  0  0
 22 34  1  0  0  0  0
 22 35  1  0  0  0  0
M  END
> <s_m_source_file>
AV-unprocessed.smi

> <i_m_source_file_index>
411

> <i_lp_mmshare_version>
43012

> <i_f3d_flags>
0

> <s_epik_input>
Tz1TMSg9TylbQ0gyXVtDSDJdW0NASF0oW0NIMl0xKVtOSF1DKD1PKVtDSDJdbjJbY0hdW2NIXVtjSF1jKEMoRikoRilGKWMyPU8=

> <s_epik_cmdline>
J2VwaWtfcHl0aG9uJywgJy1waCcsICc3LjAnLCAnLXRuJywgJzgnLCAnLW1hJywgJzIwMCcsICctbWV0YWxfYmluZGluZycsICctaW1hZScsICc8aW5maWxlLm1hZT4nLCAnLW9tYWUnLCAnPG91dGZpbGUubWFlPic=

> <r_lp_tautomer_probability>
1

> <r_epik_Ionization_Penalty>
1.08759e-07

> <r_epik_Ionization_Penalty_Charging>
1.56656e-09

> <r_epik_Ionization_Penalty_Neutral>
1.07193e-07

> <r_epik_State_Penalty>
-0

> <r_epik_Charging_Adjusted_Penalty>
1.56656e-09

> <i_epik_Tot_Q>
0

> <i_epik_Tot_abs_Q>
0

> <r_epik_Metal_State_Penalty>
-0

> <b_epik_Metal_Only>
0

> <s_lp_Force_Field>
OPLS_2005

> <r_lp_Energy>
15.8783

> <b_lp_Chiralities_Consistent>
1

> <s_lp_Variant>
AV-unprocessed.smi:411-2

> <Gold.Version>
5.8.1

> <Gold.Id.Protein>
6NUR|6NUR_protein|mol2

> <Gold.PLP.Fitness>
48.1662

> <Gold.PLP.PLP>
-44.7068

> <Gold.PLP.part.hbond>
-1.9650

> <Gold.PLP.part.metal>
0.0000

> <Gold.PLP.part.buried>
-1.4093

> <Gold.PLP.part.nonpolar>
-40.3678

> <Gold.PLP.part.repulsive>
0.2619

> <Gold.PLP.ligand.clash>
0.3154

> <Gold.PLP.ligand.torsion>
0.2749

> <Gold.PLP.Chemscore.Hbond>
1.3271

> <Gold.PLP.Chemscore.CHOScore>
0.0000

> <Gold.PLP.Chemscore.Metal>
0.0000

> <Gold.Chemscore.Hbonds>
donor molecule, donor type, donor heavy atom, donor atom, acceptor molecule, acceptor atom, score
      P1  H  7997  8010       L1    14  0.22
      P1  H 10752 10763       L1    21  1.00

> <Gold.PLP.Chemscore.Internal.Correction>
0.3433

> <Gold.Rescore>
     Score         DG    S(hbond)    S(metal)    S(lipo)     H(rot)  DE(clash)    DE(int)     intcor
     12.46     -16.83       1.69        0.00      86.51       1.73       0.55       3.82       ----

> <Gold.Chemscore.Fitness>
12.4629

> <Gold.Chemscore.DG>
-16.8298

> <Gold.Chemscore.ZeroCoef>
-5.4800

> <Gold.Chemscore.Hbond>
1.6947

> <Gold.Chemscore.Metal>
0.0000

> <Gold.Chemscore.Lipo>
86.5123

> <Gold.Chemscore.Internal_Hbond>
0.0000

> <Gold.Chemscore.DEClash>
0.5463

> <Gold.Chemscore.DEInternal>
3.8206

> <Gold.Chemscore.Rot>
1.7314

> <Gold.Chemscore.Internal.Correction>
   9.000000E+99

> <Gold.Chemscore.Hbonds>
donor molecule, donor type, donor heavy atom, donor atom, acceptor molecule, acceptor atom, score
      P1  H  7997  8010       L1    14  0.22
      P1  H 10752 10763       L1    21  1.00

> <Gold.Chemscore.Hbond.Weighted>
-5.6602

> <Gold.Chemscore.Metal.Weighted>
-0.0000

> <Gold.Chemscore.Lipo.Weighted>
-10.1219

> <Gold.Chemscore.Internal_Hbond.Weighted>
0.0000

> <Gold.Chemscore.DEClash.Weighted>
0.5463

> <Gold.Chemscore.DEInternal.Weighted>
3.8206

> <Gold.Chemscore.Rot.Weighted>
4.4324

> <Gold.Chemscore.Internal.Correction.Weighted>
   9.000000E+99

> <Gold.Protein.RotatedTorsions>
[ 6907 6896 6895 6894 ] final   12.10 input  -60.11 | X-H torsion
[ 7974 7965 7964 7962 ] final -146.12 input  175.53 | X-H torsion
[ 8008 7997 7996 7995 ] final   22.92 input   59.86 | X-H torsion
[ 10167 10162 10161 10158 ] final  -36.66 input  -65.29 | X-H torsion
[ 10718 10713 10712 10709 ] final  -85.33 input   66.30 | X-H torsion
[ 10763 10752 10751 10750 ] final   90.76 input  -60.55 | X-H torsion
[ 11005 11000 10999 10996 ] final  166.84 input  -57.11 | X-H torsion

> <Gold.Protein.ActiveResidues>
 VAL166  LYS551  ARG553  GLY616  TRP617  ASP618  TYR619  PRO620  LYS621  CYS622 
 ASP623  PHE694  ASN695  SER759  ASP760  ASP761  ALA762  ILE779  LEU786  VAL792 
 PHE793  MET794  SER795  GLU796  ALA797  LYS798  CYS799  TRP800  GLU811  SER814 

> <Gold.Protein.RotatedAtoms>
  151.7649  135.0801  160.0350 H   0  0  0  0  0  0  0  0  0  0  0  0  # atno 6907 bound_to 6896
  152.3328  133.5973  159.5830 H   0  0  0  0  0  0  0  0  0  0  0  0  # atno 6908 bound_to 6896
  150.7432  133.9758  159.3602 H   0  0  0  0  0  0  0  0  0  0  0  0  # atno 6909 bound_to 6896
  144.8181  140.5497  143.5597 H   0  0  0  0  0  0  0  0  0  0  0  0  # atno 7974 bound_to 7965
  154.9730  140.3092  155.4980 H   0  0  0  0  0  0  0  0  0  0  0  0  # atno 8008 bound_to 7997
  156.2963  140.2280  156.4763 H   0  0  0  0  0  0  0  0  0  0  0  0  # atno 8009 bound_to 7997
  154.7859  140.0443  157.1152 H   0  0  0  0  0  0  0  0  0  0  0  0  # atno 8010 bound_to 7997
  140.7137  143.3394  151.2391 H   0  0  0  0  0  0  0  0  0  0  0  0  # atno 10167 bound_to 10162
  155.9998  130.4727  150.4546 H   0  0  0  0  0  0  0  0  0  0  0  0  # atno 10718 bound_to 10713
  153.2009  135.4422  155.0265 H   0  0  0  0  0  0  0  0  0  0  0  0  # atno 10763 bound_to 10752
  154.8146  135.3309  154.7213 H   0  0  0  0  0  0  0  0  0  0  0  0  # atno 10764 bound_to 10752
  153.7658  135.6988  153.4971 H   0  0  0  0  0  0  0  0  0  0  0  0  # atno 10765 bound_to 10752
  140.2706  134.7830  157.3672 H   0  0  0  0  0  0  0  0  0  0  0  0  # atno 11005 bound_to 11000
  145.5168  139.1477  143.3574 LP  0  0  0  0  0  0  0  0  0  0  0  0  # atno 17320 bound_to 7965
  146.2485  140.5309  142.8903 LP  0  0  0  0  0  0  0  0  0  0  0  0  # atno 17321 bound_to 7965
  139.6897  143.9713  152.2853 LP  0  0  0  0  0  0  0  0  0  0  0  0  # atno 17342 bound_to 10162
  139.9370  144.6705  150.8304 LP  0  0  0  0  0  0  0  0  0  0  0  0  # atno 17343 bound_to 10162
  157.2576  131.0560  151.2341 LP  0  0  0  0  0  0  0  0  0  0  0  0  # atno 17370 bound_to 10713
  157.3467  130.7061  149.6415 LP  0  0  0  0  0  0  0  0  0  0  0  0  # atno 17371 bound_to 10713
  140.1377  134.5013  155.8056 LP  0  0  0  0  0  0  0  0  0  0  0  0  # atno 17394 bound_to 11000
  141.2178  133.6813  156.7154 LP  0  0  0  0  0  0  0  0  0  0  0  0  # atno 17395 bound_to 11000

$$$$
