AV-unprocessed.smi:2198|AV-procd|sdf|8913|dock1
  -GOLD-   2272012133D 1   1.00000     0.00000
 Structure written by MMmdl.
 43 44  0  0  0  0  0  0  0  0  1 V2000
  147.0436  140.5612  153.2712 C   0  0  0  0  0  0  0  0  0  0  0  0
  147.9485  139.9840  154.3392 C   0  0  0  0  0  0  0  0  0  0  0  0
  147.5334  139.5749  155.4927 N   0  0  0  0  0  0  0  0  0  0  0  0
  148.4674  139.0548  156.3998 C   0  0  0  0  0  0  0  0  0  0  0  0
  147.8999  138.5954  157.7322 C   0  0  0  0  0  0  0  0  0  0  0  0
  149.7953  138.9733  156.0921 C   0  0  0  0  0  0  0  0  0  0  0  0
  150.8375  138.4123  157.0576 C   0  0  0  0  0  0  0  0  0  0  0  0
  151.8853  139.4166  157.5404 C   0  0  0  0  0  0  0  0  0  0  0  0
  153.0589  139.2965  157.1901 O   0  0  0  0  0  0  0  0  0  0  0  0
  151.4471  140.4051  158.3350 N   0  0  0  0  0  0  0  0  0  0  0  0
  152.2723  141.4756  158.8854 C   0  0  2  0  0  0  0  0  0  0  0  0
  152.6197  141.1887  160.3594 C   0  0  0  0  0  0  0  0  0  0  0  0
  153.4237  142.3425  160.9773 C   0  0  0  0  0  0  0  0  0  0  0  0
  152.6804  143.6801  160.8357 C   0  0  0  0  0  0  0  0  0  0  0  0
  152.3335  143.9822  159.3652 C   0  0  2  0  0  0  0  0  0  0  0  0
  151.5832  145.3149  159.2289 C   0  0  0  0  0  0  0  0  0  0  0  0
  151.5311  142.8191  158.7494 C   0  0  0  0  0  0  0  0  0  0  0  0
  150.2584  139.4463  154.7729 C   0  0  0  0  0  0  0  0  0  0  0  0
  151.4286  139.4253  154.3947 O   0  0  0  0  0  0  0  0  0  0  0  0
  149.2897  139.9297  153.9636 N   0  0  0  0  0  0  0  0  0  0  0  0
  149.5569  140.2660  153.0500 H   0  0  0  0  0  0  0  0  0  0  0  0
  146.5337  141.4476  153.6494 H   0  0  0  0  0  0  0  0  0  0  0  0
  146.2896  139.8283  152.9828 H   0  0  0  0  0  0  0  0  0  0  0  0
  147.6031  140.8441  152.3784 H   0  0  0  0  0  0  0  0  0  0  0  0
  148.1105  137.5388  157.8982 H   0  0  0  0  0  0  0  0  0  0  0  0
  146.8176  138.7270  157.7680 H   0  0  0  0  0  0  0  0  0  0  0  0
  148.3309  139.1701  158.5521 H   0  0  0  0  0  0  0  0  0  0  0  0
  150.3218  137.9852  157.9181 H   0  0  0  0  0  0  0  0  0  0  0  0
  151.3611  137.5678  156.6085 H   0  0  0  0  0  0  0  0  0  0  0  0
  150.4649  140.4224  158.5687 H   0  0  0  0  0  0  0  0  0  0  0  0
  153.1985  141.5422  158.3111 H   0  0  0  0  0  0  0  0  0  0  0  0
  151.7039  141.0384  160.9331 H   0  0  0  0  0  0  0  0  0  0  0  0
  153.1902  140.2626  160.4397 H   0  0  0  0  0  0  0  0  0  0  0  0
  153.6204  142.1362  162.0299 H   0  0  0  0  0  0  0  0  0  0  0  0
  154.3966  142.4111  160.4891 H   0  0  0  0  0  0  0  0  0  0  0  0
  151.7677  143.6533  161.4327 H   0  0  0  0  0  0  0  0  0  0  0  0
  153.2941  144.4827  161.2465 H   0  0  0  0  0  0  0  0  0  0  0  0
  153.2691  144.0745  158.8117 H   0  0  0  0  0  0  0  0  0  0  0  0
  150.6347  145.2927  159.7665 H   0  0  0  0  0  0  0  0  0  0  0  0
  151.3683  145.5396  158.1837 H   0  0  0  0  0  0  0  0  0  0  0  0
  152.1728  146.1405  159.6281 H   0  0  0  0  0  0  0  0  0  0  0  0
  151.3361  143.0244  157.6958 H   0  0  0  0  0  0  0  0  0  0  0  0
  150.5566  142.7521  159.2355 H   0  0  0  0  0  0  0  0  0  0  0  0
  1  2  1  0  0  0  0
  1 22  1  0  0  0  0
  1 23  1  0  0  0  0
  1 24  1  0  0  0  0
  2 20  1  0  0  0  0
  2  3  2  0  0  0  0
  3  4  1  0  0  0  0
  4  5  1  0  0  0  0
  4  6  2  0  0  0  0
  5 25  1  0  0  0  0
  5 26  1  0  0  0  0
  5 27  1  0  0  0  0
  6  7  1  0  0  0  0
  6 18  1  0  0  0  0
  7  8  1  0  0  0  0
  7 28  1  0  0  0  0
  7 29  1  0  0  0  0
  8  9  2  0  0  0  0
  8 10  1  0  0  0  0
 10 11  1  0  0  0  0
 10 30  1  0  0  0  0
 11 17  1  0  0  0  0
 11 12  1  0  0  0  0
 11 31  1  0  0  0  0
 12 13  1  0  0  0  0
 12 32  1  0  0  0  0
 12 33  1  0  0  0  0
 13 14  1  0  0  0  0
 13 34  1  0  0  0  0
 13 35  1  0  0  0  0
 14 15  1  0  0  0  0
 14 36  1  0  0  0  0
 14 37  1  0  0  0  0
 15 16  1  0  0  0  0
 15 17  1  0  0  0  0
 15 38  1  0  0  0  0
 16 39  1  0  0  0  0
 16 40  1  0  0  0  0
 16 41  1  0  0  0  0
 17 42  1  0  0  0  0
 17 43  1  0  0  0  0
 18 19  2  0  0  0  0
 18 20  1  0  0  0  0
 20 21  1  0  0  0  0
M  END
> <s_m_source_file>
AV-unprocessed.smi

> <i_m_source_file_index>
2198

> <i_lp_mmshare_version>
43012

> <i_f3d_flags>
0

> <s_epik_input>
W0NIM11jMW5jKFtDSDNdKWMoYyg9TylbbkhdMSlbQ0gyXUMoPU8pW05IXVtDQEBIXTJbQ0gyXVtDSDJdW0NIMl1bQ0BASF0oW0NIM10pW0NIMl0y

> <s_epik_cmdline>
J2VwaWtfcHl0aG9uJywgJy1waCcsICc3LjAnLCAnLXRuJywgJzgnLCAnLW1hJywgJzIwMCcsICctbWV0YWxfYmluZGluZycsICctaW1hZScsICc8aW5maWxlLm1hZT4nLCAnLW9tYWUnLCAnPG91dGZpbGUubWFlPic=

> <r_lp_tautomer_probability>
0.839158

> <r_epik_Ionization_Penalty>
0.000372587

> <r_epik_Ionization_Penalty_Charging>
0.000337977

> <r_epik_Ionization_Penalty_Neutral>
3.46101e-05

> <r_epik_State_Penalty>
0.09125

> <r_epik_Charging_Adjusted_Penalty>
0.091588

> <i_epik_Tot_Q>
0

> <i_epik_Tot_abs_Q>
0

> <r_epik_Metal_State_Penalty>
0.25197

> <b_epik_Metal_Only>
0

> <s_lp_Force_Field>
OPLS_2005

> <r_lp_Energy>
10.3768

> <b_lp_Chiralities_Consistent>
1

> <s_lp_Variant>
AV-unprocessed.smi:2198-3

> <Gold.Version>
5.8.1

> <Gold.Id.Protein>
6NUR|6NUR_protein|mol2

> <Gold.PLP.Fitness>
42.0132

> <Gold.PLP.PLP>
-33.6586

> <Gold.PLP.part.hbond>
-3.0000

> <Gold.PLP.part.metal>
0.0000

> <Gold.PLP.part.buried>
-4.6186

> <Gold.PLP.part.nonpolar>
-27.1824

> <Gold.PLP.part.repulsive>
0.3945

> <Gold.PLP.ligand.clash>
0.0000

> <Gold.PLP.ligand.torsion>
0.3136

> <Gold.PLP.Chemscore.Hbond>
2.9920

> <Gold.PLP.Chemscore.CHOScore>
0.0000

> <Gold.PLP.Chemscore.Metal>
0.0000

> <Gold.Chemscore.Hbonds>
donor molecule, donor type, donor heavy atom, donor atom, acceptor molecule, acceptor atom, score
      L1  H    20    21       P1  7957  1.00
      P1  H  7989  7998       L1    19  1.00
      P1  H  7997  8010       L1     9  1.00

> <Gold.PLP.Chemscore.Internal.Correction>
0.0057

> <Gold.Rescore>
     Score         DG    S(hbond)    S(metal)    S(lipo)     H(rot)  DE(clash)    DE(int)     intcor
     21.78     -22.09       2.89        0.00      91.94       1.48       0.10       0.21       ----

> <Gold.Chemscore.Fitness>
21.7791

> <Gold.Chemscore.DG>
-22.0931

> <Gold.Chemscore.ZeroCoef>
-5.4800

> <Gold.Chemscore.Hbond>
2.8880

> <Gold.Chemscore.Metal>
0.0000

> <Gold.Chemscore.Lipo>
91.9354

> <Gold.Chemscore.Internal_Hbond>
0.0000

> <Gold.Chemscore.DEClash>
0.0996

> <Gold.Chemscore.DEInternal>
0.2144

> <Gold.Chemscore.Rot>
1.4801

> <Gold.Chemscore.Internal.Correction>
   9.000000E+99

> <Gold.Chemscore.Hbonds>
donor molecule, donor type, donor heavy atom, donor atom, acceptor molecule, acceptor atom, score
      L1  H    20    21       P1  7957  0.94
      P1  H  7989  7998       L1    19  0.55
      P1  H  7997  8010       L1     9  0.98

> <Gold.Chemscore.Hbond.Weighted>
-9.6458

> <Gold.Chemscore.Metal.Weighted>
-0.0000

> <Gold.Chemscore.Lipo.Weighted>
-10.7564

> <Gold.Chemscore.Internal_Hbond.Weighted>
0.0000

> <Gold.Chemscore.DEClash.Weighted>
0.0996

> <Gold.Chemscore.DEInternal.Weighted>
0.2144

> <Gold.Chemscore.Rot.Weighted>
3.7891

> <Gold.Chemscore.Internal.Correction.Weighted>
   9.000000E+99

> <Gold.Protein.RotatedTorsions>
[ 6907 6896 6895 6894 ] final  -26.54 input  -60.11 | X-H torsion
[ 7974 7965 7964 7962 ] final -105.27 input  175.53 | X-H torsion
[ 8008 7997 7996 7995 ] final   70.07 input   59.86 | X-H torsion
[ 10167 10162 10161 10158 ] final  -34.35 input  -65.29 | X-H torsion
[ 10718 10713 10712 10709 ] final   76.08 input   66.30 | X-H torsion
[ 10763 10752 10751 10750 ] final  -45.71 input  -60.55 | X-H torsion
[ 11005 11000 10999 10996 ] final   59.08 input  -57.11 | X-H torsion

> <Gold.Protein.ActiveResidues>
 VAL166  LYS551  ARG553  GLY616  TRP617  ASP618  TYR619  PRO620  LYS621  CYS622 
 ASP623  PHE694  ASN695  SER759  ASP760  ASP761  ALA762  ILE779  LEU786  VAL792 
 PHE793  MET794  SER795  GLU796  ALA797  LYS798  CYS799  TRP800  GLU811  SER814 

> <Gold.Protein.RotatedAtoms>
  151.1595  135.0266  159.8703 H   0  0  0  0  0  0  0  0  0  0  0  0  # atno 6907 bound_to 6896
  152.5451  134.1295  159.8443 H   0  0  0  0  0  0  0  0  0  0  0  0  # atno 6908 bound_to 6896
  151.1389  133.4939  159.2630 H   0  0  0  0  0  0  0  0  0  0  0  0  # atno 6909 bound_to 6896
  145.2325  140.9176  143.3196 H   0  0  0  0  0  0  0  0  0  0  0  0  # atno 7974 bound_to 7965
  155.7333  140.3491  155.5069 H   0  0  0  0  0  0  0  0  0  0  0  0  # atno 8008 bound_to 7997
  155.9162  140.1059  157.1263 H   0  0  0  0  0  0  0  0  0  0  0  0  # atno 8009 bound_to 7997
  154.4063  140.1258  156.4608 H   0  0  0  0  0  0  0  0  0  0  0  0  # atno 8010 bound_to 7997
  140.7187  143.3554  151.2070 H   0  0  0  0  0  0  0  0  0  0  0  0  # atno 10167 bound_to 10162
  157.6659  130.9757  150.1445 H   0  0  0  0  0  0  0  0  0  0  0  0  # atno 10718 bound_to 10713
  154.0331  135.6654  153.4782 H   0  0  0  0  0  0  0  0  0  0  0  0  # atno 10763 bound_to 10752
  153.0532  135.5072  154.7914 H   0  0  0  0  0  0  0  0  0  0  0  0  # atno 10764 bound_to 10752
  154.6866  135.3054  154.9504 H   0  0  0  0  0  0  0  0  0  0  0  0  # atno 10765 bound_to 10752
  140.0330  134.5984  155.9481 H   0  0  0  0  0  0  0  0  0  0  0  0  # atno 11005 bound_to 11000
  144.9663  139.3927  143.6331 LP  0  0  0  0  0  0  0  0  0  0  0  0  # atno 17320 bound_to 7965
  146.3349  139.8740  142.8835 LP  0  0  0  0  0  0  0  0  0  0  0  0  # atno 17321 bound_to 7965
  139.7094  143.9401  152.2941 LP  0  0  0  0  0  0  0  0  0  0  0  0  # atno 17342 bound_to 10162
  139.9121  144.6850  150.8551 LP  0  0  0  0  0  0  0  0  0  0  0  0  # atno 17343 bound_to 10162
  156.2260  130.3678  149.8500 LP  0  0  0  0  0  0  0  0  0  0  0  0  # atno 17370 bound_to 10713
  156.6340  130.8677  151.3501 LP  0  0  0  0  0  0  0  0  0  0  0  0  # atno 17371 bound_to 10713
  141.1842  133.6552  156.5146 LP  0  0  0  0  0  0  0  0  0  0  0  0  # atno 17394 bound_to 11000
  140.4194  134.7201  157.4881 LP  0  0  0  0  0  0  0  0  0  0  0  0  # atno 17395 bound_to 11000

$$$$
