AV-unprocessed.smi:1481|AV-procd|sdf|5987|dock8
  -GOLD-   22720 6 83D 1   1.00000     0.00000
 Structure written by MMmdl.
 39 40  0  0  0  0  0  0  0  0  1 V2000
  151.2455  135.6779  155.7913 O   0  0  0  0  0  0  0  0  0  0  0  0
  150.4917  135.9258  154.8499 C   0  0  0  0  0  0  0  0  0  0  0  0
  150.7114  136.8918  153.9468 N   0  0  0  0  0  0  0  0  0  0  0  0
  151.8766  137.7711  153.9370 C   0  0  0  0  0  0  0  0  0  0  0  0
  151.9227  138.7662  155.0885 C   0  0  0  0  0  0  0  0  0  0  0  0
  150.9390  139.7631  155.2578 C   0  0  0  0  0  0  0  0  0  0  0  0
  151.0447  140.6507  156.3452 C   0  0  0  0  0  0  0  0  0  0  0  0
  152.1320  140.5196  157.2416 C   0  0  0  0  0  0  0  0  0  0  0  0
  152.2632  141.4048  158.3340 N   0  0  0  0  0  0  0  0  0  0  0  0
  151.4122  142.5933  158.3579 C   0  0  0  0  0  0  0  0  0  0  0  0
  151.8835  143.5693  159.4490 C   0  0  0  0  0  0  0  0  0  0  0  0
  151.9260  142.9001  160.7047 O   0  0  0  0  0  0  0  0  0  0  0  0
  152.8448  141.8129  160.6931 C   0  0  0  0  0  0  0  0  0  0  0  0
  152.4121  140.7742  159.6437 C   0  0  0  0  0  0  0  0  0  0  0  0
  153.0656  139.5485  157.0846 N   0  0  0  0  0  0  0  0  0  0  0  0
  152.9607  138.7015  156.0393 C   0  0  0  0  0  0  0  0  0  0  0  0
  149.3596  135.2557  154.5969 N   0  0  0  0  0  0  0  0  0  0  0  0
  148.8723  134.1168  155.3683 C   0  0  0  0  0  0  0  0  0  0  0  0
  149.1607  132.7800  154.6641 C   0  0  0  0  0  0  0  0  0  0  0  0
  148.8006  132.8735  153.3849 F   0  0  0  0  0  0  0  0  0  0  0  0
  150.4632  132.5014  154.7213 F   0  0  0  0  0  0  0  0  0  0  0  0
  148.4746  131.7853  155.2270 F   0  0  0  0  0  0  0  0  0  0  0  0
  150.0349  137.0212  153.2087 H   0  0  0  0  0  0  0  0  0  0  0  0
  152.7712  137.1500  153.9869 H   0  0  0  0  0  0  0  0  0  0  0  0
  151.9240  138.3044  152.9859 H   0  0  0  0  0  0  0  0  0  0  0  0
  150.1112  139.8523  154.5702 H   0  0  0  0  0  0  0  0  0  0  0  0
  150.2879  141.4078  156.4849 H   0  0  0  0  0  0  0  0  0  0  0  0
  151.4373  143.0957  157.3901 H   0  0  0  0  0  0  0  0  0  0  0  0
  150.3796  142.2948  158.5452 H   0  0  0  0  0  0  0  0  0  0  0  0
  152.8664  143.9774  159.2080 H   0  0  0  0  0  0  0  0  0  0  0  0
  151.1973  144.4134  159.5194 H   0  0  0  0  0  0  0  0  0  0  0  0
  153.8530  142.1767  160.4869 H   0  0  0  0  0  0  0  0  0  0  0  0
  152.8680  141.3577  161.6832 H   0  0  0  0  0  0  0  0  0  0  0  0
  151.4579  140.3303  159.9304 H   0  0  0  0  0  0  0  0  0  0  0  0
  153.1431  139.9671  159.6240 H   0  0  0  0  0  0  0  0  0  0  0  0
  153.7330  137.9507  155.9593 H   0  0  0  0  0  0  0  0  0  0  0  0
  148.8087  135.5328  153.7977 H   0  0  0  0  0  0  0  0  0  0  0  0
  149.3029  134.1196  156.3712 H   0  0  0  0  0  0  0  0  0  0  0  0
  147.7966  134.2378  155.4976 H   0  0  0  0  0  0  0  0  0  0  0  0
  1  2  2  0  0  0  0
  2  3  1  0  0  0  0
  2 17  1  0  0  0  0
  3  4  1  0  0  0  0
  3 23  1  0  0  0  0
  4  5  1  0  0  0  0
  4 24  1  0  0  0  0
  4 25  1  0  0  0  0
  5 16  1  0  0  0  0
  5  6  2  0  0  0  0
  6  7  1  0  0  0  0
  6 26  1  0  0  0  0
  7  8  2  0  0  0  0
  7 27  1  0  0  0  0
  8  9  1  0  0  0  0
  8 15  1  0  0  0  0
  9 14  1  0  0  0  0
  9 10  1  0  0  0  0
 10 11  1  0  0  0  0
 10 28  1  0  0  0  0
 10 29  1  0  0  0  0
 11 12  1  0  0  0  0
 11 30  1  0  0  0  0
 11 31  1  0  0  0  0
 12 13  1  0  0  0  0
 13 14  1  0  0  0  0
 13 32  1  0  0  0  0
 13 33  1  0  0  0  0
 14 34  1  0  0  0  0
 14 35  1  0  0  0  0
 15 16  2  0  0  0  0
 16 36  1  0  0  0  0
 17 18  1  0  0  0  0
 17 37  1  0  0  0  0
 18 19  1  0  0  0  0
 18 38  1  0  0  0  0
 18 39  1  0  0  0  0
 19 20  1  0  0  0  0
 19 21  1  0  0  0  0
 19 22  1  0  0  0  0
M  END
> <s_m_source_file>
AV-unprocessed.smi

> <i_m_source_file_index>
1481

> <i_lp_mmshare_version>
43012

> <i_f3d_flags>
0

> <s_epik_input>
RkMoRikoRilbQ0gyXVtOSF1DKD1PKVtOSF1bQ0gyXWMxW2NIXVtjSF1jKG5bY0hdMSlOMltDSDJdW0NIMl1PW0NIMl1bQ0gyXTI=

> <s_epik_cmdline>
J2VwaWtfcHl0aG9uJywgJy1waCcsICc3LjAnLCAnLXRuJywgJzgnLCAnLW1hJywgJzIwMCcsICctbWV0YWxfYmluZGluZycsICctaW1hZScsICc8aW5maWxlLm1hZT4nLCAnLW9tYWUnLCAnPG91dGZpbGUubWFlPic=

> <r_lp_tautomer_probability>
1

> <r_epik_Ionization_Penalty>
0.00288034

> <r_epik_Ionization_Penalty_Charging>
0

> <r_epik_Ionization_Penalty_Neutral>
0.00288034

> <r_epik_State_Penalty>
0.00199456

> <r_epik_Charging_Adjusted_Penalty>
0.00199456

> <i_epik_Tot_Q>
0

> <i_epik_Tot_abs_Q>
0

> <r_epik_Metal_State_Penalty>
-0

> <b_epik_Metal_Only>
0

> <s_lp_Force_Field>
OPLS_2005

> <r_lp_Energy>
12.6538

> <b_lp_Chiralities_Consistent>
1

> <s_lp_Variant>
AV-unprocessed.smi:1481-1

> <Gold.Version>
5.8.1

> <Gold.Id.Protein>
6NUR|6NUR_protein|mol2

> <Gold.PLP.Fitness>
47.0788

> <Gold.PLP.PLP>
-36.9830

> <Gold.PLP.part.hbond>
-5.1151

> <Gold.PLP.part.metal>
0.0000

> <Gold.PLP.part.buried>
0.2046

> <Gold.PLP.part.nonpolar>
-30.4746

> <Gold.PLP.part.repulsive>
0.2138

> <Gold.PLP.ligand.clash>
0.0000

> <Gold.PLP.ligand.torsion>
0.4651

> <Gold.PLP.Chemscore.Hbond>
3.5607

> <Gold.PLP.Chemscore.CHOScore>
0.0000

> <Gold.PLP.Chemscore.Metal>
0.0000

> <Gold.Chemscore.Hbonds>
donor molecule, donor type, donor heavy atom, donor atom, acceptor molecule, acceptor atom, score
      L1  H     3    23       P1  7948  0.76
      L1  H    17    37       P1  7948  0.81
      P1  H  7997  8008       L1    15  0.91
      P1  H 10752 10764       L1     1  1.00

> <Gold.PLP.Chemscore.Internal.Correction>
0.3441

> <Gold.Rescore>
     Score         DG    S(hbond)    S(metal)    S(lipo)     H(rot)  DE(clash)    DE(int)     intcor
     16.23     -17.25       2.14        0.00      85.26       2.09       0.61       0.41       ----

> <Gold.Chemscore.Fitness>
16.2301

> <Gold.Chemscore.DG>
-17.2531

> <Gold.Chemscore.ZeroCoef>
-5.4800

> <Gold.Chemscore.Hbond>
2.1402

> <Gold.Chemscore.Metal>
0.0000

> <Gold.Chemscore.Lipo>
85.2580

> <Gold.Chemscore.Internal_Hbond>
0.0000

> <Gold.Chemscore.DEClash>
0.6142

> <Gold.Chemscore.DEInternal>
0.4088

> <Gold.Chemscore.Rot>
2.0899

> <Gold.Chemscore.Internal.Correction>
   9.000000E+99

> <Gold.Chemscore.Hbonds>
donor molecule, donor type, donor heavy atom, donor atom, acceptor molecule, acceptor atom, score
      L1  H     3    23       P1  7948  0.11
      L1  H    17    37       P1  7948  0.70
      P1  H  7997  8008       L1    15  0.18
      P1  H 10752 10764       L1     1  0.29

> <Gold.Chemscore.Hbond.Weighted>
-7.1481

> <Gold.Chemscore.Metal.Weighted>
-0.0000

> <Gold.Chemscore.Lipo.Weighted>
-9.9752

> <Gold.Chemscore.Internal_Hbond.Weighted>
0.0000

> <Gold.Chemscore.DEClash.Weighted>
0.6142

> <Gold.Chemscore.DEInternal.Weighted>
0.4088

> <Gold.Chemscore.Rot.Weighted>
5.3502

> <Gold.Chemscore.Internal.Correction.Weighted>
   9.000000E+99

> <Gold.Protein.RotatedTorsions>
[ 6907 6896 6895 6894 ] final  -29.49 input  -60.11 | X-H torsion
[ 7974 7965 7964 7962 ] final  -40.48 input  175.53 | X-H torsion
[ 8008 7997 7996 7995 ] final  -75.02 input   59.86 | X-H torsion
[ 10167 10162 10161 10158 ] final -112.72 input  -65.29 | X-H torsion
[ 10718 10713 10712 10709 ] final -117.50 input   66.30 | X-H torsion
[ 10763 10752 10751 10750 ] final  -43.58 input  -60.55 | X-H torsion
[ 11005 11000 10999 10996 ] final   69.91 input  -57.11 | X-H torsion

> <Gold.Protein.ActiveResidues>
 VAL166  LYS551  ARG553  GLY616  TRP617  ASP618  TYR619  PRO620  LYS621  CYS622 
 ASP623  PHE694  ASN695  SER759  ASP760  ASP761  ALA762  ILE779  LEU786  VAL792 
 PHE793  MET794  SER795  GLU796  ALA797  LYS798  CYS799  TRP800  GLU811  SER814 

> <Gold.Protein.RotatedAtoms>
  151.1184  135.0066  159.8526 H   0  0  0  0  0  0  0  0  0  0  0  0  # atno 6907 bound_to 6896
  152.5446  134.1752  159.8623 H   0  0  0  0  0  0  0  0  0  0  0  0  # atno 6908 bound_to 6896
  151.1808  133.4681  159.2627 H   0  0  0  0  0  0  0  0  0  0  0  0  # atno 6909 bound_to 6896
  146.0300  140.6743  142.9137 H   0  0  0  0  0  0  0  0  0  0  0  0  # atno 7974 bound_to 7965
  154.5380  140.0751  156.8462 H   0  0  0  0  0  0  0  0  0  0  0  0  # atno 8008 bound_to 7997
  155.3238  140.3397  155.4222 H   0  0  0  0  0  0  0  0  0  0  0  0  # atno 8009 bound_to 7997
  156.1847  140.1665  156.8194 H   0  0  0  0  0  0  0  0  0  0  0  0  # atno 8010 bound_to 7997
  140.1196  143.4455  152.1699 H   0  0  0  0  0  0  0  0  0  0  0  0  # atno 10167 bound_to 10162
  156.1038  130.6194  150.9172 H   0  0  0  0  0  0  0  0  0  0  0  0  # atno 10718 bound_to 10713
  153.9979  135.6697  153.4757 H   0  0  0  0  0  0  0  0  0  0  0  0  # atno 10763 bound_to 10752
  153.0675  135.4992  154.8229 H   0  0  0  0  0  0  0  0  0  0  0  0  # atno 10764 bound_to 10752
  154.7070  135.3090  154.9218 H   0  0  0  0  0  0  0  0  0  0  0  0  # atno 10765 bound_to 10752
  139.9627  134.7033  156.0611 H   0  0  0  0  0  0  0  0  0  0  0  0  # atno 11005 bound_to 11000
  144.7026  140.3719  143.7143 LP  0  0  0  0  0  0  0  0  0  0  0  0  # atno 17320 bound_to 7965
  145.7056  139.1672  143.2568 LP  0  0  0  0  0  0  0  0  0  0  0  0  # atno 17321 bound_to 7965
  139.5576  144.7383  151.4250 LP  0  0  0  0  0  0  0  0  0  0  0  0  # atno 17342 bound_to 10162
  140.6879  143.7930  150.7213 LP  0  0  0  0  0  0  0  0  0  0  0  0  # atno 17343 bound_to 10162
  157.6212  131.0929  150.8618 LP  0  0  0  0  0  0  0  0  0  0  0  0  # atno 17370 bound_to 10713
  156.8741  130.5156  149.5295 LP  0  0  0  0  0  0  0  0  0  0  0  0  # atno 17371 bound_to 10713
  141.1305  133.6588  156.3452 LP  0  0  0  0  0  0  0  0  0  0  0  0  # atno 17394 bound_to 11000
  140.5465  134.6070  157.5395 LP  0  0  0  0  0  0  0  0  0  0  0  0  # atno 17395 bound_to 11000

$$$$
