AV-unprocessed.smi:3169|AV-procd|sdf|12106|dock8
  -GOLD-   2272017543D 1   1.00000     0.00000
 Structure written by MMmdl.
 35 36  0  0  0  0  0  0  0  0  1 V2000
  144.7421  137.6000  152.2059 O   0  0  0  0  0  0  0  0  0  0  0  0
  145.8949  137.2060  152.0298 C   0  0  0  0  0  0  0  0  0  0  0  0
  146.9467  138.0160  151.8504 N   0  0  0  0  0  0  0  0  0  0  0  0
  146.9014  139.4742  151.8976 C   0  0  0  0  0  0  0  0  0  0  0  0
  147.0474  140.0231  153.3305 C   0  0  0  0  0  0  0  0  0  0  0  0
  148.4068  139.9181  153.8266 N   0  0  0  0  0  0  0  0  0  0  0  0
  149.1358  138.7552  154.0356 C   0  0  0  0  0  0  0  0  0  0  0  0
  150.3665  139.1442  154.5145 C   0  0  0  0  0  0  0  0  0  0  0  0
  150.4162  140.5331  154.6081 N   0  0  0  0  0  0  0  0  0  0  0  0
  149.2213  140.9216  154.1822 C   0  0  0  0  0  0  0  0  0  0  0  0
  146.2554  135.9160  152.0221 N   0  0  0  0  0  0  0  0  0  0  0  0
  145.3569  134.7973  152.2804 C   0  0  0  0  0  0  0  0  0  0  0  0
  145.8798  133.4991  151.6423 C   0  0  1  0  0  0  0  0  0  0  0  0
  145.1871  132.2346  152.1459 C   0  0  0  0  0  0  0  0  0  0  0  0
  145.3457  131.2559  150.9911 C   0  0  0  0  0  0  0  0  0  0  0  0
  145.7971  132.1299  149.8170 C   0  0  0  0  0  0  0  0  0  0  0  0
  145.5940  133.4660  150.2531 O   0  0  0  0  0  0  0  0  0  0  0  0
  147.8536  137.5939  151.7140 H   0  0  0  0  0  0  0  0  0  0  0  0
  147.7030  139.8609  151.2678 H   0  0  0  0  0  0  0  0  0  0  0  0
  145.9671  139.8248  151.4565 H   0  0  0  0  0  0  0  0  0  0  0  0
  146.7557  141.0735  153.3559 H   0  0  0  0  0  0  0  0  0  0  0  0
  146.3807  139.5009  154.0182 H   0  0  0  0  0  0  0  0  0  0  0  0
  148.7295  137.7753  153.8327 H   0  0  0  0  0  0  0  0  0  0  0  0
  151.2130  138.5360  154.7973 H   0  0  0  0  0  0  0  0  0  0  0  0
  148.9286  141.9605  154.1338 H   0  0  0  0  0  0  0  0  0  0  0  0
  147.2286  135.6923  151.8735 H   0  0  0  0  0  0  0  0  0  0  0  0
  145.2305  134.6659  153.3562 H   0  0  0  0  0  0  0  0  0  0  0  0
  144.3739  135.0452  151.8789 H   0  0  0  0  0  0  0  0  0  0  0  0
  146.9583  133.4048  151.7849 H   0  0  0  0  0  0  0  0  0  0  0  0
  145.6169  131.8663  153.0779 H   0  0  0  0  0  0  0  0  0  0  0  0
  144.1269  132.4259  152.3173 H   0  0  0  0  0  0  0  0  0  0  0  0
  146.0909  130.4906  151.2109 H   0  0  0  0  0  0  0  0  0  0  0  0
  144.4016  130.7536  150.7780 H   0  0  0  0  0  0  0  0  0  0  0  0
  146.8580  131.9787  149.6123 H   0  0  0  0  0  0  0  0  0  0  0  0
  145.2412  131.9244  148.9021 H   0  0  0  0  0  0  0  0  0  0  0  0
  1  2  2  0  0  0  0
  2  3  1  0  0  0  0
  2 11  1  0  0  0  0
  3  4  1  0  0  0  0
  3 18  1  0  0  0  0
  4  5  1  0  0  0  0
  4 19  1  0  0  0  0
  4 20  1  0  0  0  0
  5  6  1  0  0  0  0
  5 21  1  0  0  0  0
  5 22  1  0  0  0  0
  6 10  1  0  0  0  0
  6  7  1  0  0  0  0
  7  8  2  0  0  0  0
  7 23  1  0  0  0  0
  8  9  1  0  0  0  0
  8 24  1  0  0  0  0
  9 10  2  0  0  0  0
 10 25  1  0  0  0  0
 11 12  1  0  0  0  0
 11 26  1  0  0  0  0
 12 13  1  0  0  0  0
 12 27  1  0  0  0  0
 12 28  1  0  0  0  0
 13 17  1  0  0  0  0
 13 14  1  0  0  0  0
 13 29  1  0  0  0  0
 14 15  1  0  0  0  0
 14 30  1  0  0  0  0
 14 31  1  0  0  0  0
 15 16  1  0  0  0  0
 15 32  1  0  0  0  0
 15 33  1  0  0  0  0
 16 17  1  0  0  0  0
 16 34  1  0  0  0  0
 16 35  1  0  0  0  0
M  END
> <s_m_source_file>
AV-unprocessed.smi

> <i_m_source_file_index>
3169

> <i_lp_mmshare_version>
43012

> <i_f3d_flags>
0

> <s_epik_input>
TzFbQ0gyXVtDSDJdW0NIMl1bQ0BIXTFbQ0gyXVtOSF1DKD1PKVtOSF1bQ0gyXVtDSDJdbjJbY0hdW2NIXW5bY0hdMg==

> <s_epik_cmdline>
J2VwaWtfcHl0aG9uJywgJy1waCcsICc3LjAnLCAnLXRuJywgJzgnLCAnLW1hJywgJzIwMCcsICctbWV0YWxfYmluZGluZycsICctaW1hZScsICc8aW5maWxlLm1hZT4nLCAnLW9tYWUnLCAnPG91dGZpbGUubWFlPic=

> <r_lp_tautomer_probability>
1

> <r_epik_Ionization_Penalty>
0.620462

> <r_epik_Ionization_Penalty_Charging>
0.620414

> <r_epik_Ionization_Penalty_Neutral>
4.72016e-05

> <r_epik_State_Penalty>
0.636391

> <r_epik_Charging_Adjusted_Penalty>
1.25681

> <i_epik_Tot_Q>
0

> <i_epik_Tot_abs_Q>
0

> <r_epik_Metal_State_Penalty>
0.306539

> <b_epik_Metal_Only>
0

> <s_lp_Force_Field>
OPLS_2005

> <r_lp_Energy>
15.8228

> <b_lp_Chiralities_Consistent>
1

> <s_lp_Variant>
AV-unprocessed.smi:3169-4

> <Gold.Version>
5.8.1

> <Gold.Id.Protein>
6NUR|6NUR_protein|mol2

> <Gold.PLP.Fitness>
42.3243

> <Gold.PLP.PLP>
-31.3801

> <Gold.PLP.part.hbond>
-3.0000

> <Gold.PLP.part.metal>
0.0000

> <Gold.PLP.part.buried>
-2.7808

> <Gold.PLP.part.nonpolar>
-26.5468

> <Gold.PLP.part.repulsive>
0.6785

> <Gold.PLP.ligand.clash>
0.0000

> <Gold.PLP.ligand.torsion>
0.5386

> <Gold.PLP.Chemscore.Hbond>
3.0000

> <Gold.PLP.Chemscore.CHOScore>
1.0000

> <Gold.PLP.Chemscore.Metal>
0.0000

> <Gold.Chemscore.Hbonds>
donor molecule, donor type, donor heavy atom, donor atom, acceptor molecule, acceptor atom, score
      L1  H     3    18       P1  7948  1.00
      L1  H    11    26       P1  7948  0.99
      P1  H  7989  7998       L1     9  0.98
      L1  C     7    23       P1  7948  1.00

> <Gold.PLP.Chemscore.Internal.Correction>
0.0213

> <Gold.Rescore>
     Score         DG    S(hbond)    S(metal)    S(lipo)     H(rot)  DE(clash)    DE(int)     intcor
     12.89     -13.68       1.93        0.00      64.16       2.25       0.21       0.58       ----

> <Gold.Chemscore.Fitness>
12.8884

> <Gold.Chemscore.DG>
-13.6787

> <Gold.Chemscore.ZeroCoef>
-5.4800

> <Gold.Chemscore.Hbond>
1.9298

> <Gold.Chemscore.Metal>
0.0000

> <Gold.Chemscore.Lipo>
64.1567

> <Gold.Chemscore.Internal_Hbond>
0.0000

> <Gold.Chemscore.DEClash>
0.2062

> <Gold.Chemscore.DEInternal>
0.5841

> <Gold.Chemscore.Rot>
2.2474

> <Gold.Chemscore.Internal.Correction>
   9.000000E+99

> <Gold.Chemscore.Hbonds>
donor molecule, donor type, donor heavy atom, donor atom, acceptor molecule, acceptor atom, score
      L1  H     3    18       P1  7948  0.96
      L1  H    11    26       P1  7948  0.94
      P1  H  7989  7998       L1     9  0.23

> <Gold.Chemscore.Hbond.Weighted>
-6.4456

> <Gold.Chemscore.Metal.Weighted>
-0.0000

> <Gold.Chemscore.Lipo.Weighted>
-7.5063

> <Gold.Chemscore.Internal_Hbond.Weighted>
0.0000

> <Gold.Chemscore.DEClash.Weighted>
0.2062

> <Gold.Chemscore.DEInternal.Weighted>
0.5841

> <Gold.Chemscore.Rot.Weighted>
5.7532

> <Gold.Chemscore.Internal.Correction.Weighted>
   9.000000E+99

> <Gold.Protein.RotatedTorsions>
[ 6907 6896 6895 6894 ] final   11.10 input  -60.11 | X-H torsion
[ 7974 7965 7964 7962 ] final   93.42 input  175.53 | X-H torsion
[ 8008 7997 7996 7995 ] final  162.43 input   59.86 | X-H torsion
[ 10167 10162 10161 10158 ] final -143.07 input  -65.29 | X-H torsion
[ 10718 10713 10712 10709 ] final -114.71 input   66.30 | X-H torsion
[ 10763 10752 10751 10750 ] final  164.71 input  -60.55 | X-H torsion
[ 11005 11000 10999 10996 ] final   82.05 input  -57.11 | X-H torsion

> <Gold.Protein.ActiveResidues>
 VAL166  LYS551  ARG553  GLY616  TRP617  ASP618  TYR619  PRO620  LYS621  CYS622 
 ASP623  PHE694  ASN695  SER759  ASP760  ASP761  ALA762  ILE779  LEU786  VAL792 
 PHE793  MET794  SER795  GLU796  ALA797  LYS798  CYS799  TRP800  GLU811  SER814 

> <Gold.Protein.RotatedAtoms>
  151.7489  135.0837  160.0327 H   0  0  0  0  0  0  0  0  0  0  0  0  # atno 6907 bound_to 6896
  152.3430  133.6085  159.5898 H   0  0  0  0  0  0  0  0  0  0  0  0  # atno 6908 bound_to 6896
  150.7491  133.9609  159.3557 H   0  0  0  0  0  0  0  0  0  0  0  0  # atno 6909 bound_to 6896
  145.4792  139.2279  143.2892 H   0  0  0  0  0  0  0  0  0  0  0  0  # atno 7974 bound_to 7965
  156.2032  140.1750  156.7855 H   0  0  0  0  0  0  0  0  0  0  0  0  # atno 8008 bound_to 7997
  154.5619  140.0698  156.8863 H   0  0  0  0  0  0  0  0  0  0  0  0  # atno 8009 bound_to 7997
  155.2831  140.3350  155.4259 H   0  0  0  0  0  0  0  0  0  0  0  0  # atno 8010 bound_to 7997
  139.8028  143.7809  152.2659 H   0  0  0  0  0  0  0  0  0  0  0  0  # atno 10167 bound_to 10162
  156.0847  130.6041  150.8810 H   0  0  0  0  0  0  0  0  0  0  0  0  # atno 10718 bound_to 10713
  154.3130  135.2757  155.2557 H   0  0  0  0  0  0  0  0  0  0  0  0  # atno 10763 bound_to 10752
  154.4943  135.5825  153.6486 H   0  0  0  0  0  0  0  0  0  0  0  0  # atno 10764 bound_to 10752
  152.9885  135.6142  154.3309 H   0  0  0  0  0  0  0  0  0  0  0  0  # atno 10765 bound_to 10752
  139.9077  134.8042  156.2123 H   0  0  0  0  0  0  0  0  0  0  0  0  # atno 11005 bound_to 11000
  146.2351  140.5577  142.8958 LP  0  0  0  0  0  0  0  0  0  0  0  0  # atno 17320 bound_to 7965
  144.7899  140.6011  143.6548 LP  0  0  0  0  0  0  0  0  0  0  0  0  # atno 17321 bound_to 7965
  139.7935  144.7401  150.9923 LP  0  0  0  0  0  0  0  0  0  0  0  0  # atno 17342 bound_to 10162
  140.7820  143.4418  151.0541 LP  0  0  0  0  0  0  0  0  0  0  0  0  # atno 17343 bound_to 10162
  157.5978  131.0942  150.9012 LP  0  0  0  0  0  0  0  0  0  0  0  0  # atno 17370 bound_to 10713
  156.9175  130.5303  149.5279 LP  0  0  0  0  0  0  0  0  0  0  0  0  # atno 17371 bound_to 10713
  141.0458  133.6914  156.1680 LP  0  0  0  0  0  0  0  0  0  0  0  0  # atno 17394 bound_to 11000
  140.6887  134.4690  157.5589 LP  0  0  0  0  0  0  0  0  0  0  0  0  # atno 17395 bound_to 11000

$$$$
