AV-unprocessed.smi:3030|AV-procd|sdf|11533|dock7
  -GOLD-   2272016483D 1   1.00000     0.00000
 Structure written by MMmdl.
 52 53  0  0  0  0  0  0  0  0  1 V2000
  143.1833  132.6949  148.7524 C   0  0  0  0  0  0  0  0  0  0  0  0
  144.4422  133.5264  149.0229 C   0  0  0  0  0  0  0  0  0  0  0  0
  144.4048  134.1479  150.3386 N   0  0  0  0  0  0  0  0  0  0  0  0
  143.3952  133.8532  151.2493 C   0  0  0  0  0  0  0  0  0  0  0  0
  143.3263  134.3674  152.4925 C   0  0  0  0  0  0  0  0  0  0  0  0
  144.3763  135.3004  152.9489 C   0  0  0  0  0  0  0  0  0  0  0  0
  144.3384  135.7987  154.0739 O   0  0  0  0  0  0  0  0  0  0  0  0
  145.4665  135.5982  151.9830 C   0  0  0  0  0  0  0  0  0  0  0  0
  146.4591  136.4908  152.4168 N   0  0  0  0  0  0  0  0  0  0  0  0
  146.3297  137.6023  153.1632 C   0  0  0  0  0  0  0  0  0  0  0  0
  145.2686  138.0773  153.5671 O   0  0  0  0  0  0  0  0  0  0  0  0
  147.5294  138.1479  153.4107 N   0  0  0  0  0  0  0  0  0  0  0  0
  147.7844  139.3719  154.1701 C   0  0  2  0  0  0  0  0  0  0  0  0
  147.1171  140.5428  153.4170 C   0  0  0  0  0  0  0  0  0  0  0  0
  147.3890  141.9152  154.0596 C   0  0  1  0  0  0  0  0  0  0  0  0
  146.6049  142.1266  155.3670 C   0  0  0  0  0  0  0  0  0  0  0  0
  148.9029  142.1304  154.2298 C   0  0  0  0  0  0  0  0  0  0  0  0
  149.5699  140.9858  155.0085 C   0  0  0  0  0  0  0  0  0  0  0  0
  149.3116  139.6066  154.3559 C   0  0  1  0  0  0  0  0  0  0  0  0
  150.0507  138.4423  155.0828 C   0  0  0  0  0  0  0  0  0  0  0  0
  149.6279  138.2486  156.5511 C   0  0  0  0  0  0  0  0  0  0  0  0
  151.5810  138.5589  154.9735 C   0  0  0  0  0  0  0  0  0  0  0  0
  145.4107  135.0163  150.7579 C   0  0  0  0  0  0  0  0  0  0  0  0
  143.2265  132.2367  147.7643 H   0  0  0  0  0  0  0  0  0  0  0  0
  142.2863  133.3135  148.7935 H   0  0  0  0  0  0  0  0  0  0  0  0
  143.0743  131.8954  149.4858 H   0  0  0  0  0  0  0  0  0  0  0  0
  145.3275  132.8945  148.9442 H   0  0  0  0  0  0  0  0  0  0  0  0
  144.5486  134.2975  148.2591 H   0  0  0  0  0  0  0  0  0  0  0  0
  142.6457  133.1691  150.8780 H   0  0  0  0  0  0  0  0  0  0  0  0
  142.5202  134.1126  153.1649 H   0  0  0  0  0  0  0  0  0  0  0  0
  147.3914  136.2667  152.1008 H   0  0  0  0  0  0  0  0  0  0  0  0
  148.3410  137.6805  153.0336 H   0  0  0  0  0  0  0  0  0  0  0  0
  147.3155  139.3042  155.1519 H   0  0  0  0  0  0  0  0  0  0  0  0
  147.4866  140.5624  152.3903 H   0  0  0  0  0  0  0  0  0  0  0  0
  146.0415  140.3756  153.3435 H   0  0  0  0  0  0  0  0  0  0  0  0
  147.0302  142.6748  153.3639 H   0  0  0  0  0  0  0  0  0  0  0  0
  146.8872  141.4101  156.1379 H   0  0  0  0  0  0  0  0  0  0  0  0
  145.5326  142.0227  155.1996 H   0  0  0  0  0  0  0  0  0  0  0  0
  146.7775  143.1259  155.7672 H   0  0  0  0  0  0  0  0  0  0  0  0
  149.3665  142.2053  153.2452 H   0  0  0  0  0  0  0  0  0  0  0  0
  149.0951  143.0818  154.7269 H   0  0  0  0  0  0  0  0  0  0  0  0
  150.6392  141.1862  155.0632 H   0  0  0  0  0  0  0  0  0  0  0  0
  149.2074  140.9920  156.0359 H   0  0  0  0  0  0  0  0  0  0  0  0
  149.7351  139.6565  153.3511 H   0  0  0  0  0  0  0  0  0  0  0  0
  149.8005  137.5181  154.5628 H   0  0  0  0  0  0  0  0  0  0  0  0
  149.9117  139.0993  157.1699 H   0  0  0  0  0  0  0  0  0  0  0  0
  150.1066  137.3662  156.9763 H   0  0  0  0  0  0  0  0  0  0  0  0
  148.5528  138.1058  156.6503 H   0  0  0  0  0  0  0  0  0  0  0  0
  151.9677  139.4004  155.5480 H   0  0  0  0  0  0  0  0  0  0  0  0
  151.8957  138.6860  153.9376 H   0  0  0  0  0  0  0  0  0  0  0  0
  152.0663  137.6593  155.3532 H   0  0  0  0  0  0  0  0  0  0  0  0
  146.1430  135.2019  149.9879 H   0  0  0  0  0  0  0  0  0  0  0  0
  1  2  1  0  0  0  0
  1 24  1  0  0  0  0
  1 25  1  0  0  0  0
  1 26  1  0  0  0  0
  2  3  1  0  0  0  0
  2 27  1  0  0  0  0
  2 28  1  0  0  0  0
  3 23  1  0  0  0  0
  3  4  1  0  0  0  0
  4  5  2  0  0  0  0
  4 29  1  0  0  0  0
  5  6  1  0  0  0  0
  5 30  1  0  0  0  0
  6  7  2  0  0  0  0
  6  8  1  0  0  0  0
  8  9  1  0  0  0  0
  8 23  2  0  0  0  0
  9 10  1  0  0  0  0
  9 31  1  0  0  0  0
 10 11  2  0  0  0  0
 10 12  1  0  0  0  0
 12 13  1  0  0  0  0
 12 32  1  0  0  0  0
 13 19  1  0  0  0  0
 13 14  1  0  0  0  0
 13 33  1  0  0  0  0
 14 15  1  0  0  0  0
 14 34  1  0  0  0  0
 14 35  1  0  0  0  0
 15 16  1  0  0  0  0
 15 17  1  0  0  0  0
 15 36  1  0  0  0  0
 16 37  1  0  0  0  0
 16 38  1  0  0  0  0
 16 39  1  0  0  0  0
 17 18  1  0  0  0  0
 17 40  1  0  0  0  0
 17 41  1  0  0  0  0
 18 19  1  0  0  0  0
 18 42  1  0  0  0  0
 18 43  1  0  0  0  0
 19 20  1  0  0  0  0
 19 44  1  0  0  0  0
 20 21  1  0  0  0  0
 20 22  1  0  0  0  0
 20 45  1  0  0  0  0
 21 46  1  0  0  0  0
 21 47  1  0  0  0  0
 21 48  1  0  0  0  0
 22 49  1  0  0  0  0
 22 50  1  0  0  0  0
 22 51  1  0  0  0  0
 23 52  1  0  0  0  0
M  END
> <s_m_source_file>
AV-unprocessed.smi

> <i_m_source_file_index>
3030

> <i_lp_mmshare_version>
43012

> <i_f3d_flags>
0

> <s_epik_input>
W0NIM11bQ0gyXW4xW2NIXVtjSF1jKD1PKWMoW2NIXTEpW05IXUMoPU8pW05IXVtDQEBIXTJbQ0gyXVtDQEBIXShbQ0gzXSlbQ0gyXVtDSDJdW0NASF0yW0NIXShbQ0gzXSlbQ0gzXQ==

> <s_epik_cmdline>
J2VwaWtfcHl0aG9uJywgJy1waCcsICc3LjAnLCAnLXRuJywgJzgnLCAnLW1hJywgJzIwMCcsICctbWV0YWxfYmluZGluZycsICctaW1hZScsICc8aW5maWxlLm1hZT4nLCAnLW9tYWUnLCAnPG91dGZpbGUubWFlPic=

> <r_lp_tautomer_probability>
1

> <r_epik_Ionization_Penalty>
0.00147933

> <r_epik_Ionization_Penalty_Charging>
0.00145753

> <r_epik_Ionization_Penalty_Neutral>
2.17987e-05

> <r_epik_State_Penalty>
0.00097457

> <r_epik_Charging_Adjusted_Penalty>
0.0024321

> <i_epik_Tot_Q>
0

> <i_epik_Tot_abs_Q>
0

> <r_epik_Metal_State_Penalty>
-0

> <b_epik_Metal_Only>
0

> <s_lp_Force_Field>
OPLS_2005

> <r_lp_Energy>
11.9489

> <b_lp_Chiralities_Consistent>
1

> <s_lp_Variant>
AV-unprocessed.smi:3030-1

> <Gold.Version>
5.8.1

> <Gold.Id.Protein>
6NUR|6NUR_protein|mol2

> <Gold.PLP.Fitness>
42.7519

> <Gold.PLP.PLP>
-33.0129

> <Gold.PLP.part.hbond>
-2.0000

> <Gold.PLP.part.metal>
0.0000

> <Gold.PLP.part.buried>
8.6084

> <Gold.PLP.part.nonpolar>
-39.9311

> <Gold.PLP.part.repulsive>
0.6277

> <Gold.PLP.ligand.clash>
0.0000

> <Gold.PLP.ligand.torsion>
0.4063

> <Gold.PLP.Chemscore.Hbond>
1.9120

> <Gold.PLP.Chemscore.CHOScore>
1.5819

> <Gold.PLP.Chemscore.Metal>
0.0000

> <Gold.Chemscore.Hbonds>
donor molecule, donor type, donor heavy atom, donor atom, acceptor molecule, acceptor atom, score
      L1  H     9    31       P1  7948  1.00
      L1  H    12    32       P1  7948  0.91
      L1  C     4    29       P1 10186  0.58
      L1  C    23    52       P1  7921  1.00

> <Gold.PLP.Chemscore.Internal.Correction>
0.0698

> <Gold.Rescore>
     Score         DG    S(hbond)    S(metal)    S(lipo)     H(rot)  DE(clash)    DE(int)     intcor
     14.06     -21.59       1.92        0.00     110.57       1.27       3.14       4.39       ----

> <Gold.Chemscore.Fitness>
14.0630

> <Gold.Chemscore.DG>
-21.5898

> <Gold.Chemscore.ZeroCoef>
-5.4800

> <Gold.Chemscore.Hbond>
1.9223

> <Gold.Chemscore.Metal>
0.0000

> <Gold.Chemscore.Lipo>
110.5711

> <Gold.Chemscore.Internal_Hbond>
0.0000

> <Gold.Chemscore.DEClash>
3.1390

> <Gold.Chemscore.DEInternal>
4.3878

> <Gold.Chemscore.Rot>
1.2685

> <Gold.Chemscore.Internal.Correction>
   9.000000E+99

> <Gold.Chemscore.Hbonds>
donor molecule, donor type, donor heavy atom, donor atom, acceptor molecule, acceptor atom, score
      L1  H     9    31       P1  7948  0.96
      L1  H    12    32       P1  7948  0.87

> <Gold.Chemscore.Hbond.Weighted>
-6.4204

> <Gold.Chemscore.Metal.Weighted>
-0.0000

> <Gold.Chemscore.Lipo.Weighted>
-12.9368

> <Gold.Chemscore.Internal_Hbond.Weighted>
0.0000

> <Gold.Chemscore.DEClash.Weighted>
3.1390

> <Gold.Chemscore.DEInternal.Weighted>
4.3878

> <Gold.Chemscore.Rot.Weighted>
3.2474

> <Gold.Chemscore.Internal.Correction.Weighted>
   9.000000E+99

> <Gold.Protein.RotatedTorsions>
[ 6907 6896 6895 6894 ] final   76.11 input  -60.11 | X-H torsion
[ 7974 7965 7964 7962 ] final -125.80 input  175.53 | X-H torsion
[ 8008 7997 7996 7995 ] final   67.87 input   59.86 | X-H torsion
[ 10167 10162 10161 10158 ] final -176.85 input  -65.29 | X-H torsion
[ 10718 10713 10712 10709 ] final  -50.93 input   66.30 | X-H torsion
[ 10763 10752 10751 10750 ] final  138.37 input  -60.55 | X-H torsion
[ 11005 11000 10999 10996 ] final   76.09 input  -57.11 | X-H torsion

> <Gold.Protein.ActiveResidues>
 VAL166  LYS551  ARG553  GLY616  TRP617  ASP618  TYR619  PRO620  LYS621  CYS622 
 ASP623  PHE694  ASN695  SER759  ASP760  ASP761  ALA762  ILE779  LEU786  VAL792 
 PHE793  MET794  SER795  GLU796  ALA797  LYS798  CYS799  TRP800  GLU811  SER814 

> <Gold.Protein.RotatedAtoms>
  152.5058  134.4019  159.9418 H   0  0  0  0  0  0  0  0  0  0  0  0  # atno 6907 bound_to 6896
  151.3983  133.3760  159.2737 H   0  0  0  0  0  0  0  0  0  0  0  0  # atno 6908 bound_to 6896
  150.9381  134.8813  159.7653 H   0  0  0  0  0  0  0  0  0  0  0  0  # atno 6909 bound_to 6896
  144.9939  140.7757  143.4537 H   0  0  0  0  0  0  0  0  0  0  0  0  # atno 7974 bound_to 7965
  155.6995  140.3495  155.4927 H   0  0  0  0  0  0  0  0  0  0  0  0  # atno 8008 bound_to 7997
  155.9453  140.1109  157.1044 H   0  0  0  0  0  0  0  0  0  0  0  0  # atno 8009 bound_to 7997
  154.4111  140.1205  156.4967 H   0  0  0  0  0  0  0  0  0  0  0  0  # atno 8010 bound_to 7997
  139.5509  144.2112  152.1075 H   0  0  0  0  0  0  0  0  0  0  0  0  # atno 10167 bound_to 10162
  156.1755  130.4150  149.9583 H   0  0  0  0  0  0  0  0  0  0  0  0  # atno 10718 bound_to 10713
  153.8885  135.3036  155.3447 H   0  0  0  0  0  0  0  0  0  0  0  0  # atno 10763 bound_to 10752
  154.7727  135.4877  153.9685 H   0  0  0  0  0  0  0  0  0  0  0  0  # atno 10764 bound_to 10752
  153.1311  135.6804  153.9275 H   0  0  0  0  0  0  0  0  0  0  0  0  # atno 10765 bound_to 10752
  139.9314  134.7572  156.1352 H   0  0  0  0  0  0  0  0  0  0  0  0  # atno 11005 bound_to 11000
  145.2248  139.2142  143.5074 LP  0  0  0  0  0  0  0  0  0  0  0  0  # atno 17320 bound_to 7965
  146.3437  140.2113  142.8590 LP  0  0  0  0  0  0  0  0  0  0  0  0  # atno 17321 bound_to 7965
  140.1607  144.5028  150.6634 LP  0  0  0  0  0  0  0  0  0  0  0  0  # atno 17342 bound_to 10162
  140.6771  143.2310  151.5479 LP  0  0  0  0  0  0  0  0  0  0  0  0  # atno 17343 bound_to 10162
  156.7370  130.9065  151.3629 LP  0  0  0  0  0  0  0  0  0  0  0  0  # atno 17370 bound_to 10713
  157.6833  130.9161  150.0321 LP  0  0  0  0  0  0  0  0  0  0  0  0  # atno 17371 bound_to 10713
  141.0904  133.6716  156.2529 LP  0  0  0  0  0  0  0  0  0  0  0  0  # atno 17394 bound_to 11000
  140.6192  134.5379  157.5545 LP  0  0  0  0  0  0  0  0  0  0  0  0  # atno 17395 bound_to 11000

$$$$
