AV-unprocessed.smi:741|AV-procd|sdf|3555|dock8
  -GOLD-   22720 0553D 1   1.00000     0.00000
 Structure written by MMmdl.
 42 43  0  0  0  0  0  0  0  0  2 V2000
  146.2255  143.1898  153.7915 C   0  0  0  0  0  0  0  0  0  0  0  0
  146.0481  142.1363  154.8947 C   0  0  0  0  0  0  0  0  0  0  0  0
  147.3145  141.3019  155.1671 C   0  0  1  0  0  0  0  0  0  0  0  0
  147.7728  140.5545  153.8948 C   0  0  0  0  0  0  0  0  0  0  0  0
  148.5840  139.3490  154.1931 N   0  3  0  0  0  0  0  0  0  0  0  0
  149.7820  139.5888  155.0238 C   0  0  0  0  0  0  0  0  0  0  0  0
  150.1327  138.2204  155.5964 C   0  0  0  0  0  0  0  0  0  0  0  0
  148.7647  137.5963  155.8579 C   0  0  0  0  0  0  0  0  0  0  0  0
  147.8319  138.2376  154.8202 C   0  0  0  0  0  0  0  0  0  0  0  0
  148.3797  142.1724  155.6710 N   0  0  0  0  0  0  0  0  0  0  0  0
  149.1333  141.9528  156.7585 C   0  0  0  0  0  0  0  0  0  0  0  0
  149.0394  140.9421  157.4535 O   0  0  0  0  0  0  0  0  0  0  0  0
  150.0045  142.9572  156.9562 N   0  0  0  0  0  0  0  0  0  0  0  0
  150.9720  143.1046  157.9870 C   0  0  0  0  0  0  0  0  0  0  0  0
  151.2027  141.9997  158.8326 C   0  0  0  0  0  0  0  0  0  0  0  0
  152.1681  142.1144  159.8528 C   0  0  0  0  0  0  0  0  0  0  0  0
  152.8966  143.2312  160.0618 N   0  0  0  0  0  0  0  0  0  0  0  0
  152.6854  144.2829  159.2425 C   0  0  0  0  0  0  0  0  0  0  0  0
  151.7443  144.2733  158.1933 C   0  0  0  0  0  0  0  0  0  0  0  0
  145.3178  143.7820  153.6742 H   0  0  0  0  0  0  0  0  0  0  0  0
  146.4440  142.7304  152.8273 H   0  0  0  0  0  0  0  0  0  0  0  0
  147.0396  143.8752  154.0289 H   0  0  0  0  0  0  0  0  0  0  0  0
  145.7510  142.6460  155.8121 H   0  0  0  0  0  0  0  0  0  0  0  0
  145.2188  141.4775  154.6335 H   0  0  0  0  0  0  0  0  0  0  0  0
  147.0538  140.5665  155.9303 H   0  0  0  0  0  0  0  0  0  0  0  0
  146.9159  140.2712  153.2817 H   0  0  0  0  0  0  0  0  0  0  0  0
  148.3695  141.2375  153.2879 H   0  0  0  0  0  0  0  0  0  0  0  0
  150.6022  140.0215  154.4512 H   0  0  0  0  0  0  0  0  0  0  0  0
  149.5399  140.2749  155.8372 H   0  0  0  0  0  0  0  0  0  0  0  0
  150.6727  137.6346  154.8511 H   0  0  0  0  0  0  0  0  0  0  0  0
  150.7516  138.2799  156.4922 H   0  0  0  0  0  0  0  0  0  0  0  0
  148.7850  136.5082  155.7880 H   0  0  0  0  0  0  0  0  0  0  0  0
  148.4292  137.8567  156.8627 H   0  0  0  0  0  0  0  0  0  0  0  0
  146.9206  138.5915  155.3049 H   0  0  0  0  0  0  0  0  0  0  0  0
  147.5419  137.5240  154.0485 H   0  0  0  0  0  0  0  0  0  0  0  0
  148.5337  143.0308  155.1615 H   0  0  0  0  0  0  0  0  0  0  0  0
  150.0127  143.6822  156.2537 H   0  0  0  0  0  0  0  0  0  0  0  0
  150.6499  141.0796  158.7097 H   0  0  0  0  0  0  0  0  0  0  0  0
  152.3610  141.2855  160.5178 H   0  0  0  0  0  0  0  0  0  0  0  0
  153.2891  145.1597  159.4245 H   0  0  0  0  0  0  0  0  0  0  0  0
  151.6476  145.1480  157.5692 H   0  0  0  0  0  0  0  0  0  0  0  0
  148.9196  138.9890  153.3108 H   0  0  0  0  0  0  0  0  0  0  0  0
  1  2  1  0  0  0  0
  1 20  1  0  0  0  0
  1 21  1  0  0  0  0
  1 22  1  0  0  0  0
  2  3  1  0  0  0  0
  2 23  1  0  0  0  0
  2 24  1  0  0  0  0
  3  4  1  0  0  0  0
  3 10  1  0  0  0  0
  3 25  1  0  0  0  0
  4  5  1  0  0  0  0
  4 26  1  0  0  0  0
  4 27  1  0  0  0  0
  5  9  1  0  0  0  0
  5  6  1  0  0  0  0
  5 42  1  0  0  0  0
  6  7  1  0  0  0  0
  6 28  1  0  0  0  0
  6 29  1  0  0  0  0
  7  8  1  0  0  0  0
  7 30  1  0  0  0  0
  7 31  1  0  0  0  0
  8  9  1  0  0  0  0
  8 32  1  0  0  0  0
  8 33  1  0  0  0  0
  9 34  1  0  0  0  0
  9 35  1  0  0  0  0
 10 11  1  0  0  0  0
 10 36  1  0  0  0  0
 11 12  2  0  0  0  0
 11 13  1  0  0  0  0
 13 14  1  0  0  0  0
 13 37  1  0  0  0  0
 14 19  1  0  0  0  0
 14 15  2  0  0  0  0
 15 16  1  0  0  0  0
 15 38  1  0  0  0  0
 16 17  2  0  0  0  0
 16 39  1  0  0  0  0
 17 18  1  0  0  0  0
 18 19  2  0  0  0  0
 18 40  1  0  0  0  0
 19 41  1  0  0  0  0
M  CHG  1   5   1
M  END
> <s_m_source_file>
AV-unprocessed.smi

> <i_m_source_file_index>
741

> <i_lp_mmshare_version>
43012

> <i_f3d_flags>
0

> <s_epik_input>
W0NIMl0xW0NIMl1bQ0gyXVtDSDJdTjFbQ0gyXVtDQEBIXShbQ0gyXVtDSDNdKVtOSF1DKD1PKVtOSF1jMltjSF1bY0hdbltjSF1bY0hdMg==

> <s_epik_cmdline>
J2VwaWtfcHl0aG9uJywgJy1waCcsICc3LjAnLCAnLXRuJywgJzgnLCAnLW1hJywgJzIwMCcsICctbWV0YWxfYmluZGluZycsICctaW1hZScsICc8aW5maWxlLm1hZT4nLCAnLW9tYWUnLCAnPG91dGZpbGUubWFlPic=

> <r_epik_Ionization_Penalty>
0.101421

> <r_epik_Ionization_Penalty_Charging>
0.00180027

> <r_epik_Ionization_Penalty_Neutral>
0.0996204

> <r_epik_State_Penalty>
0.0910414

> <r_epik_Charging_Adjusted_Penalty>
0.0928416

> <i_epik_Tot_Q>
1

> <i_epik_Tot_abs_Q>
1

> <r_epik_Metal_State_Penalty>
0.076772

> <b_epik_Metal_Only>
0

> <s_lp_Force_Field>
OPLS_2005

> <r_lp_Energy>
40.7955

> <b_lp_Chiralities_Consistent>
1

> <s_lp_Variant>
AV-unprocessed.smi:741-2

> <Gold.Version>
5.8.1

> <Gold.Id.Protein>
6NUR|6NUR_protein|mol2

> <Gold.PLP.Fitness>
44.7972

> <Gold.PLP.PLP>
-37.0229

> <Gold.PLP.part.hbond>
-2.9256

> <Gold.PLP.part.metal>
0.0000

> <Gold.PLP.part.buried>
-4.1839

> <Gold.PLP.part.nonpolar>
-30.9995

> <Gold.PLP.part.repulsive>
0.2504

> <Gold.PLP.ligand.clash>
0.0000

> <Gold.PLP.ligand.torsion>
0.4145

> <Gold.PLP.Chemscore.Hbond>
2.8560

> <Gold.PLP.Chemscore.CHOScore>
0.0000

> <Gold.PLP.Chemscore.Metal>
0.0000

> <Gold.Chemscore.Hbonds>
donor molecule, donor type, donor heavy atom, donor atom, acceptor molecule, acceptor atom, score
      L1  H    10    36       P1  8028  0.69
      L1  H    13    37       P1  8028  0.70

> <Gold.PLP.Chemscore.Internal.Correction>
0.0353

> <Gold.Rescore>
     Score         DG    S(hbond)    S(metal)    S(lipo)     H(rot)  DE(clash)    DE(int)     intcor
     19.68     -21.61       2.75        0.00      93.97       1.59       0.05       1.88       ----

> <Gold.Chemscore.Fitness>
19.6777

> <Gold.Chemscore.DG>
-21.6058

> <Gold.Chemscore.ZeroCoef>
-5.4800

> <Gold.Chemscore.Hbond>
2.7519

> <Gold.Chemscore.Metal>
0.0000

> <Gold.Chemscore.Lipo>
93.9660

> <Gold.Chemscore.Internal_Hbond>
0.0000

> <Gold.Chemscore.DEClash>
0.0502

> <Gold.Chemscore.DEInternal>
1.8778

> <Gold.Chemscore.Rot>
1.5858

> <Gold.Chemscore.Internal.Correction>
   9.000000E+99

> <Gold.Chemscore.Hbonds>
donor molecule, donor type, donor heavy atom, donor atom, acceptor molecule, acceptor atom, score
      L1  H     5    42       P1  7957  0.01
      L1  H    10    36       P1  8028  0.70
      L1  H    13    37       P1  8028  0.70

> <Gold.Chemscore.Hbond.Weighted>
-9.1913

> <Gold.Chemscore.Metal.Weighted>
-0.0000

> <Gold.Chemscore.Lipo.Weighted>
-10.9940

> <Gold.Chemscore.Internal_Hbond.Weighted>
0.0000

> <Gold.Chemscore.DEClash.Weighted>
0.0502

> <Gold.Chemscore.DEInternal.Weighted>
1.8778

> <Gold.Chemscore.Rot.Weighted>
4.0596

> <Gold.Chemscore.Internal.Correction.Weighted>
   9.000000E+99

> <Gold.Protein.RotatedTorsions>
[ 6907 6896 6895 6894 ] final  106.19 input  -60.11 | X-H torsion
[ 7974 7965 7964 7962 ] final -108.52 input  175.53 | X-H torsion
[ 8008 7997 7996 7995 ] final   37.55 input   59.86 | X-H torsion
[ 10167 10162 10161 10158 ] final  119.07 input  -65.29 | X-H torsion
[ 10718 10713 10712 10709 ] final -120.62 input   66.30 | X-H torsion
[ 10763 10752 10751 10750 ] final  129.37 input  -60.55 | X-H torsion
[ 11005 11000 10999 10996 ] final -154.65 input  -57.11 | X-H torsion

> <Gold.Protein.ActiveResidues>
 VAL166  LYS551  ARG553  GLY616  TRP617  ASP618  TYR619  PRO620  LYS621  CYS622 
 ASP623  PHE694  ASN695  SER759  ASP760  ASP761  ALA762  ILE779  LEU786  VAL792 
 PHE793  MET794  SER795  GLU796  ALA797  LYS798  CYS799  TRP800  GLU811  SER814 

> <Gold.Protein.RotatedAtoms>
  152.5203  133.9418  159.7629 H   0  0  0  0  0  0  0  0  0  0  0  0  # atno 6907 bound_to 6896
  150.9746  133.6300  159.2739 H   0  0  0  0  0  0  0  0  0  0  0  0  # atno 6908 bound_to 6896
  151.3499  135.0888  159.9452 H   0  0  0  0  0  0  0  0  0  0  0  0  # atno 6909 bound_to 6896
  145.1919  140.9018  143.3419 H   0  0  0  0  0  0  0  0  0  0  0  0  # atno 7974 bound_to 7965
  155.2055  140.3319  155.4336 H   0  0  0  0  0  0  0  0  0  0  0  0  # atno 8008 bound_to 7997
  156.2390  140.1886  156.7089 H   0  0  0  0  0  0  0  0  0  0  0  0  # atno 8009 bound_to 7997
  154.6112  140.0608  156.9482 H   0  0  0  0  0  0  0  0  0  0  0  0  # atno 8010 bound_to 7997
  139.6070  144.7072  151.2930 H   0  0  0  0  0  0  0  0  0  0  0  0  # atno 10167 bound_to 10162
  156.1272  130.6368  150.9562 H   0  0  0  0  0  0  0  0  0  0  0  0  # atno 10718 bound_to 10713
  153.7407  135.3224  155.3303 H   0  0  0  0  0  0  0  0  0  0  0  0  # atno 10763 bound_to 10752
  154.8296  135.4544  154.1029 H   0  0  0  0  0  0  0  0  0  0  0  0  # atno 10764 bound_to 10752
  153.2203  135.6947  153.8089 H   0  0  0  0  0  0  0  0  0  0  0  0  # atno 10765 bound_to 10752
  140.6950  134.4000  157.5215 H   0  0  0  0  0  0  0  0  0  0  0  0  # atno 11005 bound_to 11000
  145.0033  139.3578  143.6157 LP  0  0  0  0  0  0  0  0  0  0  0  0  # atno 17320 bound_to 7965
  146.3434  139.9265  142.8759 LP  0  0  0  0  0  0  0  0  0  0  0  0  # atno 17321 bound_to 7965
  140.7292  143.6914  150.7919 LP  0  0  0  0  0  0  0  0  0  0  0  0  # atno 17342 bound_to 10162
  140.0502  143.5257  152.2677 LP  0  0  0  0  0  0  0  0  0  0  0  0  # atno 17343 bound_to 10162
  157.6453  131.0905  150.8167 LP  0  0  0  0  0  0  0  0  0  0  0  0  # atno 17370 bound_to 10713
  156.8256  130.4998  149.5338 LP  0  0  0  0  0  0  0  0  0  0  0  0  # atno 17371 bound_to 10713
  139.8913  134.8784  156.2328 LP  0  0  0  0  0  0  0  0  0  0  0  0  # atno 17394 bound_to 11000
  141.0211  133.7041  156.1269 LP  0  0  0  0  0  0  0  0  0  0  0  0  # atno 17395 bound_to 11000

$$$$
