AV-unprocessed.smi:3036|AV-procd|sdf|11584|dock7
  -GOLD-   2272016553D 1   1.00000     0.00000
 Structure written by MMmdl.
 41 42  0  0  0  0  0  0  0  0  1 V2000
  148.5744  131.5608  153.2045 C   0  0  0  0  0  0  0  0  0  0  0  0
  147.4942  132.6454  153.3626 C   0  0  2  0  0  0  0  0  0  0  0  0
  147.2894  133.4148  152.0418 C   0  0  0  0  0  0  0  0  0  0  0  0
  146.1067  132.9843  151.3160 N   0  0  0  0  0  0  0  0  0  0  0  0
  146.0308  132.1521  150.2188 C   0  0  0  0  0  0  0  0  0  0  0  0
  144.7107  132.0294  149.8921 C   0  0  0  0  0  0  0  0  0  0  0  0
  144.0465  132.8291  150.8638 C   0  0  0  0  0  0  0  0  0  0  0  0
  144.8841  133.3961  151.7169 N   0  0  0  0  0  0  0  0  0  0  0  0
  147.8880  133.5899  154.4030 N   0  0  0  0  0  0  0  0  0  0  0  0
  149.1699  134.2201  154.1080 C   0  0  0  0  0  0  0  0  0  0  0  0
  149.4450  135.4048  155.0574 C   0  0  0  0  0  0  0  0  0  0  0  0
  150.8380  136.0514  154.9141 C   0  0  0  0  0  0  0  0  0  0  0  0
  151.8335  135.4135  155.2613 O   0  0  0  0  0  0  0  0  0  0  0  0
  150.9304  137.3081  154.4155 N   0  0  0  0  0  0  0  0  0  0  0  0
  152.2063  138.0106  154.2469 C   0  0  0  0  0  0  0  0  0  0  0  0
  152.2269  139.2211  155.1971 C   0  0  0  0  0  0  0  0  0  0  0  0
  151.1182  140.0702  154.9122 O   0  0  0  0  0  0  0  0  0  0  0  0
  149.8620  139.4098  155.0440 C   0  0  0  0  0  0  0  0  0  0  0  0
  149.8078  138.1972  154.0967 C   0  0  0  0  0  0  0  0  0  0  0  0
  148.3209  130.8777  152.3936 H   0  0  0  0  0  0  0  0  0  0  0  0
  148.6864  130.9581  154.1054 H   0  0  0  0  0  0  0  0  0  0  0  0
  149.5466  131.9991  152.9746 H   0  0  0  0  0  0  0  0  0  0  0  0
  146.5492  132.1737  153.6365 H   0  0  0  0  0  0  0  0  0  0  0  0
  147.2171  134.4875  152.2281 H   0  0  0  0  0  0  0  0  0  0  0  0
  148.1511  133.2722  151.3878 H   0  0  0  0  0  0  0  0  0  0  0  0
  146.9126  131.7225  149.7663 H   0  0  0  0  0  0  0  0  0  0  0  0
  144.2840  131.4543  149.0839 H   0  0  0  0  0  0  0  0  0  0  0  0
  142.9879  133.0118  150.9752 H   0  0  0  0  0  0  0  0  0  0  0  0
  147.9669  133.0980  155.2815 H   0  0  0  0  0  0  0  0  0  0  0  0
  149.9618  133.4776  154.2148 H   0  0  0  0  0  0  0  0  0  0  0  0
  149.1998  134.5668  153.0754 H   0  0  0  0  0  0  0  0  0  0  0  0
  148.6791  136.1633  154.8915 H   0  0  0  0  0  0  0  0  0  0  0  0
  149.3357  135.0616  156.0867 H   0  0  0  0  0  0  0  0  0  0  0  0
  153.0720  137.3759  154.4400 H   0  0  0  0  0  0  0  0  0  0  0  0
  152.3018  138.3424  153.2120 H   0  0  0  0  0  0  0  0  0  0  0  0
  152.1929  138.8987  156.2390 H   0  0  0  0  0  0  0  0  0  0  0  0
  153.1487  139.7883  155.0676 H   0  0  0  0  0  0  0  0  0  0  0  0
  149.7100  139.1009  156.0796 H   0  0  0  0  0  0  0  0  0  0  0  0
  149.0668  140.1148  154.8012 H   0  0  0  0  0  0  0  0  0  0  0  0
  149.8954  138.5271  153.0604 H   0  0  0  0  0  0  0  0  0  0  0  0
  148.8311  137.7242  154.1773 H   0  0  0  0  0  0  0  0  0  0  0  0
  1  2  1  0  0  0  0
  1 20  1  0  0  0  0
  1 21  1  0  0  0  0
  1 22  1  0  0  0  0
  2  3  1  0  0  0  0
  2  9  1  0  0  0  0
  2 23  1  0  0  0  0
  3  4  1  0  0  0  0
  3 24  1  0  0  0  0
  3 25  1  0  0  0  0
  4  8  1  0  0  0  0
  4  5  1  0  0  0  0
  5  6  2  0  0  0  0
  5 26  1  0  0  0  0
  6  7  1  0  0  0  0
  6 27  1  0  0  0  0
  7  8  2  0  0  0  0
  7 28  1  0  0  0  0
  9 10  1  0  0  0  0
  9 29  1  0  0  0  0
 10 11  1  0  0  0  0
 10 30  1  0  0  0  0
 10 31  1  0  0  0  0
 11 12  1  0  0  0  0
 11 32  1  0  0  0  0
 11 33  1  0  0  0  0
 12 13  2  0  0  0  0
 12 14  1  0  0  0  0
 14 19  1  0  0  0  0
 14 15  1  0  0  0  0
 15 16  1  0  0  0  0
 15 34  1  0  0  0  0
 15 35  1  0  0  0  0
 16 17  1  0  0  0  0
 16 36  1  0  0  0  0
 16 37  1  0  0  0  0
 17 18  1  0  0  0  0
 18 19  1  0  0  0  0
 18 38  1  0  0  0  0
 18 39  1  0  0  0  0
 19 40  1  0  0  0  0
 19 41  1  0  0  0  0
M  END
> <s_m_source_file>
AV-unprocessed.smi

> <i_m_source_file_index>
3036

> <i_lp_mmshare_version>
43012

> <i_f3d_flags>
0

> <s_epik_input>
bjFbY0hdW2NIXVtjSF1uMVtDSDJdW0NAQEhdKFtDSDNdKVtOSF1bQ0gyXVtDSDJdQyg9TylOMltDSDJdW0NIMl1PW0NIMl1bQ0gyXTI=

> <s_epik_cmdline>
J2VwaWtfcHl0aG9uJywgJy1waCcsICc3LjAnLCAnLXRuJywgJzgnLCAnLW1hJywgJzIwMCcsICctbWV0YWxfYmluZGluZycsICctaW1hZScsICc8aW5maWxlLm1hZT4nLCAnLW9tYWUnLCAnPG91dGZpbGUubWFlPic=

> <r_lp_tautomer_probability>
1

> <r_epik_Ionization_Penalty>
2.55703

> <r_epik_Ionization_Penalty_Charging>
0

> <r_epik_Ionization_Penalty_Neutral>
2.55703

> <r_epik_State_Penalty>
2.726

> <r_epik_Charging_Adjusted_Penalty>
2.726

> <i_epik_Tot_Q>
0

> <i_epik_Tot_abs_Q>
0

> <r_epik_Metal_State_Penalty>
2.72597

> <b_epik_Metal_Only>
0

> <s_lp_Force_Field>
OPLS_2005

> <r_lp_Energy>
22.7119

> <b_lp_Chiralities_Consistent>
1

> <s_lp_Variant>
AV-unprocessed.smi:3036-3

> <Gold.Version>
5.8.1

> <Gold.Id.Protein>
6NUR|6NUR_protein|mol2

> <Gold.PLP.Fitness>
45.7548

> <Gold.PLP.PLP>
-35.5705

> <Gold.PLP.part.hbond>
-2.0000

> <Gold.PLP.part.metal>
0.0000

> <Gold.PLP.part.buried>
-3.2465

> <Gold.PLP.part.nonpolar>
-31.3378

> <Gold.PLP.part.repulsive>
0.2135

> <Gold.PLP.ligand.clash>
0.0000

> <Gold.PLP.ligand.torsion>
0.9588

> <Gold.PLP.Chemscore.Hbond>
2.0000

> <Gold.PLP.Chemscore.CHOScore>
2.0000

> <Gold.PLP.Chemscore.Metal>
0.0000

> <Gold.Chemscore.Hbonds>
donor molecule, donor type, donor heavy atom, donor atom, acceptor molecule, acceptor atom, score
      P1  H  7989  7998       L1    17  1.00
      P1  H 10752 10763       L1    13  0.34
      L1  C     5    26       P1 10747  1.00
      L1  C     7    28       P1 10186  0.29

> <Gold.PLP.Chemscore.Internal.Correction>
0.1019

> <Gold.Rescore>
     Score         DG    S(hbond)    S(metal)    S(lipo)     H(rot)  DE(clash)    DE(int)     intcor
     15.27     -16.27       1.78        0.00      85.00       1.99       0.26       0.74       ----

> <Gold.Chemscore.Fitness>
15.2720

> <Gold.Chemscore.DG>
-16.2663

> <Gold.Chemscore.ZeroCoef>
-5.4800

> <Gold.Chemscore.Hbond>
1.7772

> <Gold.Chemscore.Metal>
0.0000

> <Gold.Chemscore.Lipo>
84.9994

> <Gold.Chemscore.Internal_Hbond>
0.0000

> <Gold.Chemscore.DEClash>
0.2557

> <Gold.Chemscore.DEInternal>
0.7386

> <Gold.Chemscore.Rot>
1.9900

> <Gold.Chemscore.Internal.Correction>
   9.000000E+99

> <Gold.Chemscore.Hbonds>
donor molecule, donor type, donor heavy atom, donor atom, acceptor molecule, acceptor atom, score
      P1  H  7989  7998       L1    17  0.34
      P1  H 10752 10763       L1    13  0.33

> <Gold.Chemscore.Hbond.Weighted>
-5.9358

> <Gold.Chemscore.Metal.Weighted>
-0.0000

> <Gold.Chemscore.Lipo.Weighted>
-9.9449

> <Gold.Chemscore.Internal_Hbond.Weighted>
0.0000

> <Gold.Chemscore.DEClash.Weighted>
0.2557

> <Gold.Chemscore.DEInternal.Weighted>
0.7386

> <Gold.Chemscore.Rot.Weighted>
5.0944

> <Gold.Chemscore.Internal.Correction.Weighted>
   9.000000E+99

> <Gold.Protein.RotatedTorsions>
[ 6907 6896 6895 6894 ] final -127.48 input  -60.11 | X-H torsion
[ 7974 7965 7964 7962 ] final   65.00 input  175.53 | X-H torsion
[ 8008 7997 7996 7995 ] final -169.66 input   59.86 | X-H torsion
[ 10167 10162 10161 10158 ] final  -42.90 input  -65.29 | X-H torsion
[ 10718 10713 10712 10709 ] final   14.72 input   66.30 | X-H torsion
[ 10763 10752 10751 10750 ] final   83.75 input  -60.55 | X-H torsion
[ 11005 11000 10999 10996 ] final  -96.70 input  -57.11 | X-H torsion

> <Gold.Protein.ActiveResidues>
 VAL166  LYS551  ARG553  GLY616  TRP617  ASP618  TYR619  PRO620  LYS621  CYS622 
 ASP623  PHE694  ASN695  SER759  ASP760  ASP761  ALA762  ILE779  LEU786  VAL792 
 PHE793  MET794  SER795  GLU796  ALA797  LYS798  CYS799  TRP800  GLU811  SER814 

> <Gold.Protein.RotatedAtoms>
  150.9078  133.7036  159.2862 H   0  0  0  0  0  0  0  0  0  0  0  0  # atno 6907 bound_to 6896
  151.4533  135.1030  159.9713 H   0  0  0  0  0  0  0  0  0  0  0  0  # atno 6908 bound_to 6896
  152.4913  133.8458  159.7231 H   0  0  0  0  0  0  0  0  0  0  0  0  # atno 6909 bound_to 6896
  145.8436  139.3210  143.0917 H   0  0  0  0  0  0  0  0  0  0  0  0  # atno 7974 bound_to 7965
  155.9079  140.1052  157.1301 H   0  0  0  0  0  0  0  0  0  0  0  0  # atno 8008 bound_to 7997
  154.4035  140.1280  156.4584 H   0  0  0  0  0  0  0  0  0  0  0  0  # atno 8009 bound_to 7997
  155.7345  140.3468  155.5077 H   0  0  0  0  0  0  0  0  0  0  0  0  # atno 8010 bound_to 7997
  140.6953  143.3012  151.3274 H   0  0  0  0  0  0  0  0  0  0  0  0  # atno 10167 bound_to 10162
  157.0432  130.6239  149.5754 H   0  0  0  0  0  0  0  0  0  0  0  0  # atno 10718 bound_to 10713
  153.1319  135.4679  154.9362 H   0  0  0  0  0  0  0  0  0  0  0  0  # atno 10763 bound_to 10752
  154.7672  135.3148  154.8265 H   0  0  0  0  0  0  0  0  0  0  0  0  # atno 10764 bound_to 10752
  153.8805  135.6894  153.4821 H   0  0  0  0  0  0  0  0  0  0  0  0  # atno 10765 bound_to 10752
  141.1403  133.8117  157.0607 H   0  0  0  0  0  0  0  0  0  0  0  0  # atno 11005 bound_to 11000
  145.9438  140.8960  143.0294 LP  0  0  0  0  0  0  0  0  0  0  0  0  # atno 17320 bound_to 7965
  144.6732  140.1585  143.7424 LP  0  0  0  0  0  0  0  0  0  0  0  0  # atno 17321 bound_to 7965
  139.6401  144.0555  152.2547 LP  0  0  0  0  0  0  0  0  0  0  0  0  # atno 17342 bound_to 10162
  140.0058  144.6260  150.7690 LP  0  0  0  0  0  0  0  0  0  0  0  0  # atno 17343 bound_to 10162
  156.0031  130.5114  150.7735 LP  0  0  0  0  0  0  0  0  0  0  0  0  # atno 17370 bound_to 10713
  157.5088  131.0924  151.0224 LP  0  0  0  0  0  0  0  0  0  0  0  0  # atno 17371 bound_to 10713
  140.0573  134.9773  157.1243 LP  0  0  0  0  0  0  0  0  0  0  0  0  # atno 17394 bound_to 11000
  140.3900  134.2195  155.7166 LP  0  0  0  0  0  0  0  0  0  0  0  0  # atno 17395 bound_to 11000

$$$$
