AV-unprocessed.smi:2953|AV-procd|sdf|11294|dock4
  -GOLD-   2272016183D 1   1.00000     0.00000
 Structure written by MMmdl.
 45 47  0  0  0  0  0  0  0  0  1 V2000
  154.3057  136.4646  162.3263 C   0  0  0  0  0  0  0  0  0  0  0  0
  154.7663  137.8273  162.8081 C   0  0  0  0  0  0  0  0  0  0  0  0
  155.2425  137.9535  164.1299 C   0  0  0  0  0  0  0  0  0  0  0  0
  155.6856  139.1979  164.6117 C   0  0  0  0  0  0  0  0  0  0  0  0
  155.6522  140.3234  163.7709 C   0  0  0  0  0  0  0  0  0  0  0  0
  155.1747  140.2050  162.4519 C   0  0  0  0  0  0  0  0  0  0  0  0
  154.7245  138.9552  161.9518 C   0  0  0  0  0  0  0  0  0  0  0  0
  154.2417  138.7819  160.6690 O   0  0  0  0  0  0  0  0  0  0  0  0
  153.8813  139.9433  159.9306 C   0  0  0  0  0  0  0  0  0  0  0  0
  152.3988  139.8928  159.5359 C   0  0  0  0  0  0  0  0  0  0  0  0
  152.0261  140.9602  158.6171 N   0  0  0  0  0  0  0  0  0  0  0  0
  151.6199  140.8829  157.3217 C   0  0  0  0  0  0  0  0  0  0  0  0
  151.4679  139.5787  156.5818 C   0  0  1  0  0  0  0  0  0  0  0  0
  150.0383  139.3702  156.0622 C   0  0  0  0  0  0  0  0  0  0  0  0
  152.4151  139.5687  155.4727 N   0  0  0  0  0  0  0  0  0  0  0  0
  152.6395  138.5125  154.6813 C   0  0  0  0  0  0  0  0  0  0  0  0
  152.0619  137.4370  154.8163 O   0  0  0  0  0  0  0  0  0  0  0  0
  151.4011  142.0546  156.7185 N   0  0  0  0  0  0  0  0  0  0  0  0
  151.6451  142.9699  157.7212 C   0  0  0  0  0  0  0  0  0  0  0  0
  151.5678  144.3810  157.7154 C   0  0  0  0  0  0  0  0  0  0  0  0
  151.8681  145.1170  158.8802 C   0  0  0  0  0  0  0  0  0  0  0  0
  152.2507  144.4539  160.0640 C   0  0  0  0  0  0  0  0  0  0  0  0
  152.3368  143.0486  160.0895 C   0  0  0  0  0  0  0  0  0  0  0  0
  152.0346  142.3182  158.9240 C   0  0  0  0  0  0  0  0  0  0  0  0
  154.8401  135.6698  162.8476 H   0  0  0  0  0  0  0  0  0  0  0  0
  154.4829  136.3342  161.2588 H   0  0  0  0  0  0  0  0  0  0  0  0
  153.2414  136.3399  162.5233 H   0  0  0  0  0  0  0  0  0  0  0  0
  155.2711  137.0918  164.7807 H   0  0  0  0  0  0  0  0  0  0  0  0
  156.0502  139.2884  165.6245 H   0  0  0  0  0  0  0  0  0  0  0  0
  155.9911  141.2808  164.1382 H   0  0  0  0  0  0  0  0  0  0  0  0
  155.1603  141.0963  161.8437 H   0  0  0  0  0  0  0  0  0  0  0  0
  154.0719  140.8430  160.5175 H   0  0  0  0  0  0  0  0  0  0  0  0
  154.4829  140.0022  159.0222 H   0  0  0  0  0  0  0  0  0  0  0  0
  152.1937  138.9425  159.0421 H   0  0  0  0  0  0  0  0  0  0  0  0
  151.7554  139.9061  160.4145 H   0  0  0  0  0  0  0  0  0  0  0  0
  151.6845  138.7416  157.2434 H   0  0  0  0  0  0  0  0  0  0  0  0
  149.3191  139.4211  156.8793 H   0  0  0  0  0  0  0  0  0  0  0  0
  149.9325  138.3965  155.5831 H   0  0  0  0  0  0  0  0  0  0  0  0
  149.7603  140.1310  155.3321 H   0  0  0  0  0  0  0  0  0  0  0  0
  152.9421  140.4138  155.3070 H   0  0  0  0  0  0  0  0  0  0  0  0
  153.3947  138.7284  153.9094 H   0  0  0  0  0  0  0  0  0  0  0  0
  151.2760  144.8983  156.8133 H   0  0  0  0  0  0  0  0  0  0  0  0
  151.8048  146.1951  158.8650 H   0  0  0  0  0  0  0  0  0  0  0  0
  152.4784  145.0248  160.9522 H   0  0  0  0  0  0  0  0  0  0  0  0
  152.6296  142.5389  160.9952 H   0  0  0  0  0  0  0  0  0  0  0  0
  1  2  1  0  0  0  0
  1 25  1  0  0  0  0
  1 26  1  0  0  0  0
  1 27  1  0  0  0  0
  2  7  1  0  0  0  0
  2  3  2  0  0  0  0
  3  4  1  0  0  0  0
  3 28  1  0  0  0  0
  4  5  2  0  0  0  0
  4 29  1  0  0  0  0
  5  6  1  0  0  0  0
  5 30  1  0  0  0  0
  6  7  2  0  0  0  0
  6 31  1  0  0  0  0
  7  8  1  0  0  0  0
  8  9  1  0  0  0  0
  9 10  1  0  0  0  0
  9 32  1  0  0  0  0
  9 33  1  0  0  0  0
 10 11  1  0  0  0  0
 10 34  1  0  0  0  0
 10 35  1  0  0  0  0
 11 24  1  0  0  0  0
 11 12  1  0  0  0  0
 12 13  1  0  0  0  0
 12 18  2  0  0  0  0
 13 14  1  0  0  0  0
 13 15  1  0  0  0  0
 13 36  1  0  0  0  0
 14 37  1  0  0  0  0
 14 38  1  0  0  0  0
 14 39  1  0  0  0  0
 15 16  1  0  0  0  0
 15 40  1  0  0  0  0
 16 17  2  0  0  0  0
 16 41  1  0  0  0  0
 18 19  1  0  0  0  0
 19 24  2  0  0  0  0
 19 20  1  0  0  0  0
 20 21  2  0  0  0  0
 20 42  1  0  0  0  0
 21 22  1  0  0  0  0
 21 43  1  0  0  0  0
 22 23  2  0  0  0  0
 22 44  1  0  0  0  0
 23 24  1  0  0  0  0
 23 45  1  0  0  0  0
M  END
> <s_m_source_file>
AV-unprocessed.smi

> <i_m_source_file_index>
2953

> <i_lp_mmshare_version>
43012

> <i_f3d_flags>
0

> <s_epik_input>
W0NIM11jMVtjSF1bY0hdW2NIXVtjSF1jMU9bQ0gyXVtDSDJdbihjKG4yKVtDQEhdKFtDSDNdKVtOSF1bQ0hdPU8pYyhjMjMpW2NIXVtjSF1bY0hdW2NIXTM=

> <s_epik_cmdline>
J2VwaWtfcHl0aG9uJywgJy1waCcsICc3LjAnLCAnLXRuJywgJzgnLCAnLW1hJywgJzIwMCcsICctbWV0YWxfYmluZGluZycsICctaW1hZScsICc8aW5maWxlLm1hZT4nLCAnLW9tYWUnLCAnPG91dGZpbGUubWFlPic=

> <r_lp_tautomer_probability>
1

> <r_epik_Ionization_Penalty>
0.0924205

> <r_epik_Ionization_Penalty_Charging>
0

> <r_epik_Ionization_Penalty_Neutral>
0.0924205

> <r_epik_State_Penalty>
0.0827154

> <r_epik_Charging_Adjusted_Penalty>
0.0827154

> <i_epik_Tot_Q>
0

> <i_epik_Tot_abs_Q>
0

> <r_epik_Metal_State_Penalty>
0.071464

> <b_epik_Metal_Only>
0

> <s_lp_Force_Field>
OPLS_2005

> <r_lp_Energy>
13.3209

> <b_lp_Chiralities_Consistent>
1

> <s_lp_Variant>
AV-unprocessed.smi:2953-2

> <Gold.Version>
5.8.1

> <Gold.Id.Protein>
6NUR|6NUR_protein|mol2

> <Gold.PLP.Fitness>
50.1225

> <Gold.PLP.PLP>
-48.7919

> <Gold.PLP.part.hbond>
-1.0000

> <Gold.PLP.part.metal>
0.0000

> <Gold.PLP.part.buried>
-4.9154

> <Gold.PLP.part.nonpolar>
-43.4440

> <Gold.PLP.part.repulsive>
0.3618

> <Gold.PLP.ligand.clash>
0.0000

> <Gold.PLP.ligand.torsion>
0.6564

> <Gold.PLP.Chemscore.Hbond>
0.8320

> <Gold.PLP.Chemscore.CHOScore>
0.0000

> <Gold.PLP.Chemscore.Metal>
0.0000

> <Gold.Chemscore.Hbonds>
donor molecule, donor type, donor heavy atom, donor atom, acceptor molecule, acceptor atom, score
      P1  H 10752 10764       L1    17  0.83

> <Gold.PLP.Chemscore.Internal.Correction>
0.1474

> <Gold.Rescore>
     Score         DG    S(hbond)    S(metal)    S(lipo)     H(rot)  DE(clash)    DE(int)     intcor
     17.61     -18.31       0.77        0.00     137.20       2.26       0.09       0.60       ----

> <Gold.Chemscore.Fitness>
17.6125

> <Gold.Chemscore.DG>
-18.3070

> <Gold.Chemscore.ZeroCoef>
-5.4800

> <Gold.Chemscore.Hbond>
0.7679

> <Gold.Chemscore.Metal>
0.0000

> <Gold.Chemscore.Lipo>
137.2023

> <Gold.Chemscore.Internal_Hbond>
0.0000

> <Gold.Chemscore.DEClash>
0.0910

> <Gold.Chemscore.DEInternal>
0.6035

> <Gold.Chemscore.Rot>
2.2619

> <Gold.Chemscore.Internal.Correction>
   9.000000E+99

> <Gold.Chemscore.Hbonds>
donor molecule, donor type, donor heavy atom, donor atom, acceptor molecule, acceptor atom, score
      P1  H 10752 10764       L1    17  0.76

> <Gold.Chemscore.Hbond.Weighted>
-2.5649

> <Gold.Chemscore.Metal.Weighted>
-0.0000

> <Gold.Chemscore.Lipo.Weighted>
-16.0527

> <Gold.Chemscore.Internal_Hbond.Weighted>
0.0000

> <Gold.Chemscore.DEClash.Weighted>
0.0910

> <Gold.Chemscore.DEInternal.Weighted>
0.6035

> <Gold.Chemscore.Rot.Weighted>
5.7906

> <Gold.Chemscore.Internal.Correction.Weighted>
   9.000000E+99

> <Gold.Protein.RotatedTorsions>
[ 6907 6896 6895 6894 ] final  161.61 input  -60.11 | X-H torsion
[ 7974 7965 7964 7962 ] final   60.76 input  175.53 | X-H torsion
[ 8008 7997 7996 7995 ] final  -89.53 input   59.86 | X-H torsion
[ 10167 10162 10161 10158 ] final -168.17 input  -65.29 | X-H torsion
[ 10718 10713 10712 10709 ] final  -76.47 input   66.30 | X-H torsion
[ 10763 10752 10751 10750 ] final  -66.62 input  -60.55 | X-H torsion
[ 11005 11000 10999 10996 ] final -134.57 input  -57.11 | X-H torsion

> <Gold.Protein.ActiveResidues>
 VAL166  LYS551  ARG553  GLY616  TRP617  ASP618  TYR619  PRO620  LYS621  CYS622 
 ASP623  PHE694  ASN695  SER759  ASP760  ASP761  ALA762  ILE779  LEU786  VAL792 
 PHE793  MET794  SER795  GLU796  ALA797  LYS798  CYS799  TRP800  GLU811  SER814 

> <Gold.Protein.RotatedAtoms>
  151.9529  133.3671  159.4006 H   0  0  0  0  0  0  0  0  0  0  0  0  # atno 6907 bound_to 6896
  150.6977  134.4321  159.5262 H   0  0  0  0  0  0  0  0  0  0  0  0  # atno 6908 bound_to 6896
  152.1997  134.8599  160.0560 H   0  0  0  0  0  0  0  0  0  0  0  0  # atno 6909 bound_to 6896
  145.8924  139.3520  143.0641 H   0  0  0  0  0  0  0  0  0  0  0  0  # atno 7974 bound_to 7965
  154.6877  140.0541  157.0331 H   0  0  0  0  0  0  0  0  0  0  0  0  # atno 8008 bound_to 7997
  155.0861  140.3214  155.4568 H   0  0  0  0  0  0  0  0  0  0  0  0  # atno 8009 bound_to 7997
  156.2717  140.2056  156.5989 H   0  0  0  0  0  0  0  0  0  0  0  0  # atno 8010 bound_to 7997
  139.6002  144.1027  152.1734 H   0  0  0  0  0  0  0  0  0  0  0  0  # atno 10167 bound_to 10162
  156.0174  130.4466  150.3198 H   0  0  0  0  0  0  0  0  0  0  0  0  # atno 10718 bound_to 10713
  154.3625  135.6113  153.5698 H   0  0  0  0  0  0  0  0  0  0  0  0  # atno 10763 bound_to 10752
  152.9793  135.5818  154.4616 H   0  0  0  0  0  0  0  0  0  0  0  0  # atno 10764 bound_to 10752
  154.4356  135.2849  155.1860 H   0  0  0  0  0  0  0  0  0  0  0  0  # atno 10765 bound_to 10752
  140.8978  134.1730  157.4482 H   0  0  0  0  0  0  0  0  0  0  0  0  # atno 11005 bound_to 11000
  145.8892  140.9314  143.0561 LP  0  0  0  0  0  0  0  0  0  0  0  0  # atno 17320 bound_to 7965
  144.6731  140.0883  143.7466 LP  0  0  0  0  0  0  0  0  0  0  0  0  # atno 17321 bound_to 7965
  140.0621  144.5848  150.7255 LP  0  0  0  0  0  0  0  0  0  0  0  0  # atno 17342 bound_to 10162
  140.7243  143.2620  151.4172 LP  0  0  0  0  0  0  0  0  0  0  0  0  # atno 17343 bound_to 10162
  157.1298  131.0269  151.2974 LP  0  0  0  0  0  0  0  0  0  0  0  0  # atno 17370 bound_to 10713
  157.4559  130.7625  149.7193 LP  0  0  0  0  0  0  0  0  0  0  0  0  # atno 17371 bound_to 10713
  139.8738  134.9885  156.5416 LP  0  0  0  0  0  0  0  0  0  0  0  0  # atno 17394 bound_to 11000
  140.8268  133.8310  155.8946 LP  0  0  0  0  0  0  0  0  0  0  0  0  # atno 17395 bound_to 11000

$$$$
