AV-unprocessed.smi:3244|AV-procd|sdf|12399|dock8
  -GOLD-   2272018273D 1   1.00000     0.00000
 Structure written by MMmdl.
 41 42  0  0  0  0  0  0  0  0  2 V2000
  146.3840  131.8865  153.4491 C   0  0  0  0  0  0  0  0  0  0  0  0
  147.7828  132.2453  152.9212 C   0  0  0  0  0  0  0  0  0  0  0  0
  148.5885  132.9572  153.9253 N   0  0  0  0  0  0  0  0  0  0  0  0
  148.2949  134.2047  154.3724 C   0  0  0  0  0  0  0  0  0  0  0  0
  149.0924  134.8692  155.0368 O   0  0  0  0  0  0  0  0  0  0  0  0
  146.9196  134.8169  154.0495 C   0  0  0  0  0  0  0  0  0  0  0  0
  146.7036  135.0318  152.5997 N   0  3  0  0  0  0  0  0  0  0  0  0
  145.4530  135.7339  152.2199 C   0  0  1  0  0  0  0  0  0  0  0  0
  145.5935  137.2598  152.3538 C   0  0  0  0  0  0  0  0  0  0  0  0
  145.0484  135.3513  150.7807 C   0  0  0  0  0  0  0  0  0  0  0  0
  145.0397  133.9160  150.5465 N   0  0  0  0  0  0  0  0  0  0  0  0
  143.9551  133.0950  150.3166 C   0  0  0  0  0  0  0  0  0  0  0  0
  144.4293  131.8220  150.1796 C   0  0  0  0  0  0  0  0  0  0  0  0
  145.8334  131.9624  150.3596 C   0  0  0  0  0  0  0  0  0  0  0  0
  146.1944  133.2154  150.5844 N   0  0  0  0  0  0  0  0  0  0  0  0
  149.8349  132.2980  154.2159 C   0  0  0  0  0  0  0  0  0  0  0  0
  149.8129  130.8563  154.6784 C   0  0  0  0  0  0  0  0  0  0  0  0
  150.2186  131.9415  155.6419 C   0  0  0  0  0  0  0  0  0  0  0  0
  145.8031  131.3763  152.6804 H   0  0  0  0  0  0  0  0  0  0  0  0
  145.8321  132.7817  153.7368 H   0  0  0  0  0  0  0  0  0  0  0  0
  146.4248  131.2304  154.3173 H   0  0  0  0  0  0  0  0  0  0  0  0
  148.2913  131.3502  152.5651 H   0  0  0  0  0  0  0  0  0  0  0  0
  147.6668  132.8655  152.0312 H   0  0  0  0  0  0  0  0  0  0  0  0
  146.1461  134.1279  154.3849 H   0  0  0  0  0  0  0  0  0  0  0  0
  146.7734  135.7524  154.5900 H   0  0  0  0  0  0  0  0  0  0  0  0
  147.5004  135.5204  152.2163 H   0  0  0  0  0  0  0  0  0  0  0  0
  144.6588  135.4083  152.8933 H   0  0  0  0  0  0  0  0  0  0  0  0
  144.6802  137.7648  152.0380 H   0  0  0  0  0  0  0  0  0  0  0  0
  146.4110  137.6399  151.7401 H   0  0  0  0  0  0  0  0  0  0  0  0
  145.7813  137.5579  153.3853 H   0  0  0  0  0  0  0  0  0  0  0  0
  144.0507  135.7311  150.5564 H   0  0  0  0  0  0  0  0  0  0  0  0
  145.7266  135.8149  150.0626 H   0  0  0  0  0  0  0  0  0  0  0  0
  142.9468  133.4791  150.2684 H   0  0  0  0  0  0  0  0  0  0  0  0
  143.8590  130.9252  149.9877 H   0  0  0  0  0  0  0  0  0  0  0  0
  146.5946  131.1966  150.3361 H   0  0  0  0  0  0  0  0  0  0  0  0
  150.6641  132.5746  153.5671 H   0  0  0  0  0  0  0  0  0  0  0  0
  148.8443  130.3856  154.8364 H   0  0  0  0  0  0  0  0  0  0  0  0
  150.5942  130.1981  154.3037 H   0  0  0  0  0  0  0  0  0  0  0  0
  151.2712  132.0081  155.9084 H   0  0  0  0  0  0  0  0  0  0  0  0
  149.5214  132.1625  156.4480 H   0  0  0  0  0  0  0  0  0  0  0  0
  146.6565  134.1167  152.1748 H   0  0  0  0  0  0  0  0  0  0  0  0
  1  2  1  0  0  0  0
  1 19  1  0  0  0  0
  1 20  1  0  0  0  0
  1 21  1  0  0  0  0
  2  3  1  0  0  0  0
  2 22  1  0  0  0  0
  2 23  1  0  0  0  0
  3  4  1  0  0  0  0
  3 16  1  0  0  0  0
  4  5  2  0  0  0  0
  4  6  1  0  0  0  0
  6  7  1  0  0  0  0
  6 24  1  0  0  0  0
  6 25  1  0  0  0  0
  7  8  1  0  0  0  0
  7 26  1  0  0  0  0
  7 41  1  0  0  0  0
  8  9  1  0  0  0  0
  8 10  1  0  0  0  0
  8 27  1  0  0  0  0
  9 28  1  0  0  0  0
  9 29  1  0  0  0  0
  9 30  1  0  0  0  0
 10 11  1  0  0  0  0
 10 31  1  0  0  0  0
 10 32  1  0  0  0  0
 11 15  1  0  0  0  0
 11 12  1  0  0  0  0
 12 13  2  0  0  0  0
 12 33  1  0  0  0  0
 13 14  1  0  0  0  0
 13 34  1  0  0  0  0
 14 15  2  0  0  0  0
 14 35  1  0  0  0  0
 16 18  1  0  0  0  0
 16 17  1  0  0  0  0
 16 36  1  0  0  0  0
 17 18  1  0  0  0  0
 17 37  1  0  0  0  0
 17 38  1  0  0  0  0
 18 39  1  0  0  0  0
 18 40  1  0  0  0  0
M  CHG  1   7   1
M  END
> <s_m_source_file>
AV-unprocessed.smi

> <i_m_source_file_index>
3244

> <i_lp_mmshare_version>
43012

> <i_f3d_flags>
0

> <s_epik_input>
W0NIMl0xW0NIMl1bQ0hdMU4oW0NIMl1bQ0gzXSlDKD1PKVtDSDJdW05IXVtDQEhdKFtDSDNdKVtDSDJdbjJbY0hdW2NIXVtjSF1uMg==

> <s_epik_cmdline>
J2VwaWtfcHl0aG9uJywgJy1waCcsICc3LjAnLCAnLXRuJywgJzgnLCAnLW1hJywgJzIwMCcsICctbWV0YWxfYmluZGluZycsICctaW1hZScsICc8aW5maWxlLm1hZT4nLCAnLW9tYWUnLCAnPG91dGZpbGUubWFlPic=

> <r_lp_tautomer_probability>
1

> <r_epik_Ionization_Penalty>
0.115625

> <r_epik_Ionization_Penalty_Charging>
0.115622

> <r_epik_Ionization_Penalty_Neutral>
3.43793e-06

> <r_epik_State_Penalty>
0.105255

> <r_epik_Charging_Adjusted_Penalty>
0.220877

> <i_epik_Tot_Q>
1

> <i_epik_Tot_abs_Q>
1

> <r_epik_Metal_State_Penalty>
0.105264

> <b_epik_Metal_Only>
0

> <s_lp_Force_Field>
OPLS_2005

> <r_lp_Energy>
36.1392

> <b_lp_Chiralities_Consistent>
1

> <s_lp_Variant>
AV-unprocessed.smi:3244-2

> <Gold.Version>
5.8.1

> <Gold.Id.Protein>
6NUR|6NUR_protein|mol2

> <Gold.PLP.Fitness>
44.4852

> <Gold.PLP.PLP>
-33.1921

> <Gold.PLP.part.hbond>
-1.0000

> <Gold.PLP.part.metal>
0.0000

> <Gold.PLP.part.buried>
-4.9641

> <Gold.PLP.part.nonpolar>
-28.6066

> <Gold.PLP.part.repulsive>
0.3114

> <Gold.PLP.ligand.clash>
0.0000

> <Gold.PLP.ligand.torsion>
0.5415

> <Gold.PLP.Chemscore.Hbond>
2.0000

> <Gold.PLP.Chemscore.CHOScore>
1.9956

> <Gold.PLP.Chemscore.Metal>
0.0000

> <Gold.Chemscore.Hbonds>
donor molecule, donor type, donor heavy atom, donor atom, acceptor molecule, acceptor atom, score
      L1  H     7    26       P1  7948  2.00
      L1  C    12    33       P1 10186  1.00
      L1  C    14    35       P1 10747  1.00

> <Gold.PLP.Chemscore.Internal.Correction>
0.3895

> <Gold.Rescore>
     Score         DG    S(hbond)    S(metal)    S(lipo)     H(rot)  DE(clash)    DE(int)     intcor
     10.31     -12.08       1.00        0.00      72.73       2.04       0.01       1.77       ----

> <Gold.Chemscore.Fitness>
10.3090

> <Gold.Chemscore.DG>
-12.0839

> <Gold.Chemscore.ZeroCoef>
-5.4800

> <Gold.Chemscore.Hbond>
0.9961

> <Gold.Chemscore.Metal>
0.0000

> <Gold.Chemscore.Lipo>
72.7303

> <Gold.Chemscore.Internal_Hbond>
0.0000

> <Gold.Chemscore.DEClash>
0.0058

> <Gold.Chemscore.DEInternal>
1.7691

> <Gold.Chemscore.Rot>
2.0440

> <Gold.Chemscore.Internal.Correction>
   9.000000E+99

> <Gold.Chemscore.Hbonds>
donor molecule, donor type, donor heavy atom, donor atom, acceptor molecule, acceptor atom, score
      L1  H     7    26       P1  7948  0.99

> <Gold.Chemscore.Hbond.Weighted>
-3.3270

> <Gold.Chemscore.Metal.Weighted>
-0.0000

> <Gold.Chemscore.Lipo.Weighted>
-8.5094

> <Gold.Chemscore.Internal_Hbond.Weighted>
0.0000

> <Gold.Chemscore.DEClash.Weighted>
0.0058

> <Gold.Chemscore.DEInternal.Weighted>
1.7691

> <Gold.Chemscore.Rot.Weighted>
5.2325

> <Gold.Chemscore.Internal.Correction.Weighted>
   9.000000E+99

> <Gold.Protein.RotatedTorsions>
[ 6907 6896 6895 6894 ] final   27.29 input  -60.11 | X-H torsion
[ 7974 7965 7964 7962 ] final   32.19 input  175.53 | X-H torsion
[ 8008 7997 7996 7995 ] final   29.88 input   59.86 | X-H torsion
[ 10167 10162 10161 10158 ] final  -91.03 input  -65.29 | X-H torsion
[ 10718 10713 10712 10709 ] final   26.10 input   66.30 | X-H torsion
[ 10763 10752 10751 10750 ] final -140.78 input  -60.55 | X-H torsion
[ 11005 11000 10999 10996 ] final -130.12 input  -57.11 | X-H torsion

> <Gold.Protein.ActiveResidues>
 VAL166  LYS551  ARG553  GLY616  TRP617  ASP618  TYR619  PRO620  LYS621  CYS622 
 ASP623  PHE694  ASN695  SER759  ASP760  ASP761  ALA762  ILE779  LEU786  VAL792 
 PHE793  MET794  SER795  GLU796  ALA797  LYS798  CYS799  TRP800  GLU811  SER814 

> <Gold.Protein.RotatedAtoms>
  152.0000  134.9933  160.0564 H   0  0  0  0  0  0  0  0  0  0  0  0  # atno 6907 bound_to 6896
  152.1528  133.4528  159.4830 H   0  0  0  0  0  0  0  0  0  0  0  0  # atno 6908 bound_to 6896
  150.6877  134.2086  159.4393 H   0  0  0  0  0  0  0  0  0  0  0  0  # atno 6909 bound_to 6896
  146.1502  139.6558  142.9104 H   0  0  0  0  0  0  0  0  0  0  0  0  # atno 7974 bound_to 7965
  155.0816  140.3211  155.4600 H   0  0  0  0  0  0  0  0  0  0  0  0  # atno 8008 bound_to 7997
  156.2765  140.2094  156.5889 H   0  0  0  0  0  0  0  0  0  0  0  0  # atno 8009 bound_to 7997
  154.6974  140.0510  157.0411 H   0  0  0  0  0  0  0  0  0  0  0  0  # atno 8010 bound_to 7997
  140.3489  143.2902  151.9749 H   0  0  0  0  0  0  0  0  0  0  0  0  # atno 10167 bound_to 10162
  157.2023  130.6895  149.6193 H   0  0  0  0  0  0  0  0  0  0  0  0  # atno 10718 bound_to 10713
  154.8567  135.3543  154.5762 H   0  0  0  0  0  0  0  0  0  0  0  0  # atno 10763 bound_to 10752
  153.6374  135.7000  153.5258 H   0  0  0  0  0  0  0  0  0  0  0  0  # atno 10764 bound_to 10752
  153.2999  135.4209  155.1202 H   0  0  0  0  0  0  0  0  0  0  0  0  # atno 10765 bound_to 10752
  140.9373  134.1240  157.4182 H   0  0  0  0  0  0  0  0  0  0  0  0  # atno 11005 bound_to 11000
  145.4841  141.0438  143.2629 LP  0  0  0  0  0  0  0  0  0  0  0  0  # atno 17320 bound_to 7965
  144.7895  139.6358  143.7119 LP  0  0  0  0  0  0  0  0  0  0  0  0  # atno 17321 bound_to 7965
  139.4829  144.6093  151.7464 LP  0  0  0  0  0  0  0  0  0  0  0  0  # atno 17342 bound_to 10162
  140.5238  144.0838  150.6031 LP  0  0  0  0  0  0  0  0  0  0  0  0  # atno 17343 bound_to 10162
  155.9699  130.4579  150.5978 LP  0  0  0  0  0  0  0  0  0  0  0  0  # atno 17370 bound_to 10713
  157.3755  131.0772  151.1521 LP  0  0  0  0  0  0  0  0  0  0  0  0  # atno 17371 bound_to 10713
  139.8811  135.0025  156.6130 LP  0  0  0  0  0  0  0  0  0  0  0  0  # atno 17394 bound_to 11000
  140.7782  133.8682  155.8546 LP  0  0  0  0  0  0  0  0  0  0  0  0  # atno 17395 bound_to 11000

$$$$
