AV-unprocessed.smi:249|AV-procd|sdf|1901|dock7
  -GOLD-   2262020573D 1   1.00000     0.00000
 Structure written by MMmdl.
 64 67  0  0  0  0  0  0  0  0  2 V2000
  144.4389  131.6928  151.2864 C   0  0  0  0  0  0  0  0  0  0  0  0
  143.8970  133.1209  151.4477 C   0  0  0  0  0  0  0  0  0  0  0  0
  143.9124  133.6027  152.8556 N   0  3  1  0  0  0  0  0  0  0  0  0
  145.2911  133.6521  153.4132 C   0  0  0  0  0  0  0  0  0  0  0  0
  145.2786  133.9216  154.9259 C   0  0  0  0  0  0  0  0  0  0  0  0
  144.5052  135.2158  155.2435 C   0  0  2  0  0  0  0  0  0  0  0  0
  144.5314  135.5908  156.6643 N   0  0  0  0  0  0  0  0  0  0  0  0
  143.2647  135.6031  157.3887 C   0  0  0  0  0  0  0  0  0  0  0  0
  145.4787  136.4115  157.1917 C   0  0  0  0  0  0  0  0  0  0  0  0
  145.2967  136.9742  158.4151 N   0  0  0  0  0  0  0  0  0  0  0  0
  146.2362  137.7622  158.9459 C   0  0  0  0  0  0  0  0  0  0  0  0
  147.4169  138.1129  158.4341 N   0  0  0  0  0  0  0  0  0  0  0  0
  147.6100  137.5506  157.2074 C   0  0  0  0  0  0  0  0  0  0  0  0
  146.7025  136.6951  156.5204 C   0  0  0  0  0  0  0  0  0  0  0  0
  147.2403  136.3250  155.2931 N   0  0  0  0  0  0  0  0  0  0  0  0
  148.4004  136.9215  155.2590 C   0  0  0  0  0  0  0  0  0  0  0  0
  148.7059  137.6722  156.3708 N   0  0  0  0  0  0  0  0  0  0  0  0
  149.9241  138.4324  156.5907 C   0  0  0  0  0  0  0  0  0  0  0  0
  149.7132  139.9629  156.4828 C   0  0  2  0  0  0  0  0  0  0  0  0
  149.3549  140.4153  155.0460 C   0  0  0  0  0  0  0  0  0  0  0  0
  150.3305  139.9963  154.1139 O   0  0  0  0  0  0  0  0  0  0  0  0
  150.9163  140.7488  157.0632 C   0  0  2  0  0  0  0  0  0  0  0  0
  151.2247  140.4578  158.5214 C   0  0  0  0  0  0  0  0  0  0  0  0
  152.0809  141.6562  158.9141 C   0  0  0  0  0  0  0  0  0  0  0  0
  151.5896  142.7467  158.1436 O   0  0  0  0  0  0  0  0  0  0  0  0
  150.7234  142.2682  157.1192 C   0  0  0  0  0  0  0  0  0  0  0  0
  143.0888  135.1512  154.6318 C   0  0  0  0  0  0  0  0  0  0  0  0
  143.1284  134.8506  153.1188 C   0  0  1  0  0  0  0  0  0  0  0  0
  143.5981  136.0668  152.2911 C   0  0  0  0  0  0  0  0  0  0  0  0
  144.5368  131.4394  150.2306 H   0  0  0  0  0  0  0  0  0  0  0  0
  143.7754  130.9515  151.7315 H   0  0  0  0  0  0  0  0  0  0  0  0
  145.4233  131.5880  151.7430 H   0  0  0  0  0  0  0  0  0  0  0  0
  144.5290  133.7814  150.8526 H   0  0  0  0  0  0  0  0  0  0  0  0
  142.8967  133.2022  151.0223 H   0  0  0  0  0  0  0  0  0  0  0  0
  145.7924  132.7003  153.2331 H   0  0  0  0  0  0  0  0  0  0  0  0
  145.8778  134.4117  152.8959 H   0  0  0  0  0  0  0  0  0  0  0  0
  144.8327  133.0661  155.4317 H   0  0  0  0  0  0  0  0  0  0  0  0
  146.3039  133.9929  155.2897 H   0  0  0  0  0  0  0  0  0  0  0  0
  145.0256  136.0280  154.7351 H   0  0  0  0  0  0  0  0  0  0  0  0
  143.2822  134.8667  158.1918 H   0  0  0  0  0  0  0  0  0  0  0  0
  142.4304  135.3556  156.7322 H   0  0  0  0  0  0  0  0  0  0  0  0
  143.0635  136.5829  157.8240 H   0  0  0  0  0  0  0  0  0  0  0  0
  146.0113  138.1681  159.9212 H   0  0  0  0  0  0  0  0  0  0  0  0
  149.0724  136.8272  154.4181 H   0  0  0  0  0  0  0  0  0  0  0  0
  150.3006  138.1651  157.5780 H   0  0  0  0  0  0  0  0  0  0  0  0
  150.6784  138.1027  155.8754 H   0  0  0  0  0  0  0  0  0  0  0  0
  148.8477  140.2042  157.1016 H   0  0  0  0  0  0  0  0  0  0  0  0
  148.3861  140.0205  154.7403 H   0  0  0  0  0  0  0  0  0  0  0  0
  149.2650  141.5001  154.9913 H   0  0  0  0  0  0  0  0  0  0  0  0
  149.9011  139.8039  153.2943 H   0  0  0  0  0  0  0  0  0  0  0  0
  151.8112  140.5344  156.4765 H   0  0  0  0  0  0  0  0  0  0  0  0
  150.3072  140.4445  159.1116 H   0  0  0  0  0  0  0  0  0  0  0  0
  151.7431  139.5107  158.6726 H   0  0  0  0  0  0  0  0  0  0  0  0
  152.0367  141.8688  159.9823 H   0  0  0  0  0  0  0  0  0  0  0  0
  153.1236  141.4827  158.6452 H   0  0  0  0  0  0  0  0  0  0  0  0
  150.9413  142.7511  156.1662 H   0  0  0  0  0  0  0  0  0  0  0  0
  149.6985  142.5187  157.3971 H   0  0  0  0  0  0  0  0  0  0  0  0
  142.4955  134.3742  155.1121 H   0  0  0  0  0  0  0  0  0  0  0  0
  142.5601  136.0878  154.8133 H   0  0  0  0  0  0  0  0  0  0  0  0
  142.0950  134.6574  152.8326 H   0  0  0  0  0  0  0  0  0  0  0  0
  143.0108  136.9509  152.5406 H   0  0  0  0  0  0  0  0  0  0  0  0
  143.4723  135.9009  151.2216 H   0  0  0  0  0  0  0  0  0  0  0  0
  144.6440  136.3142  152.4687 H   0  0  0  0  0  0  0  0  0  0  0  0
  143.4446  132.8808  153.3851 H   0  0  0  0  0  0  0  0  0  0  0  0
  1  2  1  0  0  0  0
  1 30  1  0  0  0  0
  1 31  1  0  0  0  0
  1 32  1  0  0  0  0
  2  3  1  0  0  0  0
  2 33  1  0  0  0  0
  2 34  1  0  0  0  0
  3 28  1  0  0  0  0
  3  4  1  0  0  0  0
  3 64  1  0  0  0  0
  4  5  1  0  0  0  0
  4 35  1  0  0  0  0
  4 36  1  0  0  0  0
  5  6  1  0  0  0  0
  5 37  1  0  0  0  0
  5 38  1  0  0  0  0
  6  7  1  0  0  0  0
  6 27  1  0  0  0  0
  6 39  1  0  0  0  0
  7  8  1  0  0  0  0
  7  9  1  0  0  0  0
  8 40  1  0  0  0  0
  8 41  1  0  0  0  0
  8 42  1  0  0  0  0
  9 14  1  0  0  0  0
  9 10  2  0  0  0  0
 10 11  1  0  0  0  0
 11 12  2  0  0  0  0
 11 43  1  0  0  0  0
 12 13  1  0  0  0  0
 13 17  1  0  0  0  0
 13 14  2  0  0  0  0
 14 15  1  0  0  0  0
 15 16  2  0  0  0  0
 16 17  1  0  0  0  0
 16 44  1  0  0  0  0
 17 18  1  0  0  0  0
 18 19  1  0  0  0  0
 18 45  1  0  0  0  0
 18 46  1  0  0  0  0
 19 20  1  0  0  0  0
 19 22  1  0  0  0  0
 19 47  1  0  0  0  0
 20 21  1  0  0  0  0
 20 48  1  0  0  0  0
 20 49  1  0  0  0  0
 21 50  1  0  0  0  0
 22 26  1  0  0  0  0
 22 23  1  0  0  0  0
 22 51  1  0  0  0  0
 23 24  1  0  0  0  0
 23 52  1  0  0  0  0
 23 53  1  0  0  0  0
 24 25  1  0  0  0  0
 24 54  1  0  0  0  0
 24 55  1  0  0  0  0
 25 26  1  0  0  0  0
 26 56  1  0  0  0  0
 26 57  1  0  0  0  0
 27 28  1  0  0  0  0
 27 58  1  0  0  0  0
 27 59  1  0  0  0  0
 28 29  1  0  0  0  0
 28 60  1  0  0  0  0
 29 61  1  0  0  0  0
 29 62  1  0  0  0  0
 29 63  1  0  0  0  0
M  CHG  1   3   1
M  END
> <s_m_source_file>
AV-unprocessed.smi

> <i_m_source_file_index>
249

> <i_lp_mmshare_version>
43012

> <i_f3d_flags>
0

> <s_epik_input>
W0NIM11bQ0gyXU4xW0NIMl1bQ0gyXVtDQEhdKFtDSDJdW0NASF0xW0NIM10pTihbQ0gzXSljKG5bY0hdbjIpYyhjMjMpbltjSF1uM1tDSDJdW0NASF0oW0NIMl1bT0hdKVtDQEBIXTRbQ0gyXVtDSDJdT1tDSDJdNA==

> <s_epik_cmdline>
J2VwaWtfcHl0aG9uJywgJy1waCcsICc3LjAnLCAnLXRuJywgJzgnLCAnLW1hJywgJzIwMCcsICctbWV0YWxfYmluZGluZycsICctaW1hZScsICc8aW5maWxlLm1hZT4nLCAnLW9tYWUnLCAnPG91dGZpbGUubWFlPic=

> <r_lp_tautomer_probability>
1

> <r_epik_Ionization_Penalty>
0.00294688

> <r_epik_Ionization_Penalty_Charging>
0.00169971

> <r_epik_Ionization_Penalty_Neutral>
0.00124717

> <r_epik_State_Penalty>
-0

> <r_epik_Charging_Adjusted_Penalty>
0.00169971

> <i_epik_Tot_Q>
1

> <i_epik_Tot_abs_Q>
1

> <r_epik_Metal_State_Penalty>
-0

> <b_epik_Metal_Only>
0

> <s_lp_Force_Field>
OPLS_2005

> <r_lp_Energy>
54.0004

> <b_lp_Chiralities_Consistent>
1

> <s_lp_Variant>
AV-unprocessed.smi:249-4

> <Gold.Version>
5.8.1

> <Gold.Id.Protein>
6NUR|6NUR_protein|mol2

> <Gold.PLP.Fitness>
43.0007

> <Gold.PLP.PLP>
-28.6550

> <Gold.PLP.part.hbond>
-3.0016

> <Gold.PLP.part.metal>
0.0000

> <Gold.PLP.part.buried>
-6.8957

> <Gold.PLP.part.nonpolar>
-20.7052

> <Gold.PLP.part.repulsive>
0.1131

> <Gold.PLP.ligand.clash>
0.0000

> <Gold.PLP.ligand.torsion>
0.7844

> <Gold.PLP.Chemscore.Hbond>
3.9280

> <Gold.PLP.Chemscore.CHOScore>
1.0000

> <Gold.PLP.Chemscore.Metal>
0.0000

> <Gold.Chemscore.Hbonds>
donor molecule, donor type, donor heavy atom, donor atom, acceptor molecule, acceptor atom, score
      L1  H     3    64       P1 10957  2.00
      L1  H    21    50       P1  7957  0.67
      P1  H  7989  7998       L1    21  0.85
      L1  C    16    44       P1  7948  0.80

> <Gold.PLP.Chemscore.Internal.Correction>
1.1306

> <Gold.Rescore>
     Score         DG    S(hbond)    S(metal)    S(lipo)     H(rot)  DE(clash)    DE(int)     intcor
     13.24     -15.39       2.38        0.00      74.78       2.65       0.03       2.12       ----

> <Gold.Chemscore.Fitness>
13.2418

> <Gold.Chemscore.DG>
-15.3899

> <Gold.Chemscore.ZeroCoef>
-5.4800

> <Gold.Chemscore.Hbond>
2.3798

> <Gold.Chemscore.Metal>
0.0000

> <Gold.Chemscore.Lipo>
74.7811

> <Gold.Chemscore.Internal_Hbond>
0.0000

> <Gold.Chemscore.DEClash>
0.0289

> <Gold.Chemscore.DEInternal>
2.1192

> <Gold.Chemscore.Rot>
2.6515

> <Gold.Chemscore.Internal.Correction>
   9.000000E+99

> <Gold.Chemscore.Hbonds>
donor molecule, donor type, donor heavy atom, donor atom, acceptor molecule, acceptor atom, score
      L1  H     3    64       P1 10957  0.69
      L1  H    21    50       P1  7957  0.65
      P1  H  7989  7998       L1    21  0.14

> <Gold.Chemscore.Hbond.Weighted>
-7.9485

> <Gold.Chemscore.Metal.Weighted>
-0.0000

> <Gold.Chemscore.Lipo.Weighted>
-8.7494

> <Gold.Chemscore.Internal_Hbond.Weighted>
0.0000

> <Gold.Chemscore.DEClash.Weighted>
0.0289

> <Gold.Chemscore.DEInternal.Weighted>
2.1192

> <Gold.Chemscore.Rot.Weighted>
6.7880

> <Gold.Chemscore.Internal.Correction.Weighted>
   9.000000E+99

> <Gold.Protein.RotatedTorsions>
[ 6907 6896 6895 6894 ] final -146.21 input  -60.11 | X-H torsion
[ 7974 7965 7964 7962 ] final  166.09 input  175.53 | X-H torsion
[ 8008 7997 7996 7995 ] final  168.38 input   59.86 | X-H torsion
[ 10167 10162 10161 10158 ] final   14.16 input  -65.29 | X-H torsion
[ 10718 10713 10712 10709 ] final  -36.50 input   66.30 | X-H torsion
[ 10763 10752 10751 10750 ] final -152.72 input  -60.55 | X-H torsion
[ 11005 11000 10999 10996 ] final  110.21 input  -57.11 | X-H torsion

> <Gold.Protein.ActiveResidues>
 VAL166  LYS551  ARG553  GLY616  TRP617  ASP618  TYR619  PRO620  LYS621  CYS622 
 ASP623  PHE694  ASN695  SER759  ASP760  ASP761  ALA762  ILE779  LEU786  VAL792 
 PHE793  MET794  SER795  GLU796  ALA797  LYS798  CYS799  TRP800  GLU811  SER814 

> <Gold.Protein.RotatedAtoms>
  151.1384  133.4988  159.2597 H   0  0  0  0  0  0  0  0  0  0  0  0  # atno 6907 bound_to 6896
  151.1681  135.0305  159.8749 H   0  0  0  0  0  0  0  0  0  0  0  0  # atno 6908 bound_to 6896
  152.5462  134.1251  159.8468 H   0  0  0  0  0  0  0  0  0  0  0  0  # atno 6909 bound_to 6896
  144.7476  139.8565  143.6377 H   0  0  0  0  0  0  0  0  0  0  0  0  # atno 7974 bound_to 7965
  156.1551  140.1592  156.8705 H   0  0  0  0  0  0  0  0  0  0  0  0  # atno 8008 bound_to 7997
  154.5107  140.0801  156.8021 H   0  0  0  0  0  0  0  0  0  0  0  0  # atno 8009 bound_to 7997
  155.3819  140.3405  155.4249 H   0  0  0  0  0  0  0  0  0  0  0  0  # atno 8010 bound_to 7997
  140.5954  143.8712  150.6913 H   0  0  0  0  0  0  0  0  0  0  0  0  # atno 10167 bound_to 10162
  156.3261  130.4272  149.7915 H   0  0  0  0  0  0  0  0  0  0  0  0  # atno 10718 bound_to 10713
  154.7976  135.3229  154.7630 H   0  0  0  0  0  0  0  0  0  0  0  0  # atno 10763 bound_to 10752
  153.8305  135.6880  153.4819 H   0  0  0  0  0  0  0  0  0  0  0  0  # atno 10764 bound_to 10752
  153.1675  135.4636  154.9799 H   0  0  0  0  0  0  0  0  0  0  0  0  # atno 10765 bound_to 10752
  139.8877  134.9478  156.6244 H   0  0  0  0  0  0  0  0  0  0  0  0  # atno 11005 bound_to 11000
  146.1379  139.4428  143.0127 LP  0  0  0  0  0  0  0  0  0  0  0  0  # atno 17320 bound_to 7965
  145.7064  141.0120  143.1477 LP  0  0  0  0  0  0  0  0  0  0  0  0  # atno 17321 bound_to 7965
  140.2245  143.3783  152.1616 LP  0  0  0  0  0  0  0  0  0  0  0  0  # atno 17342 bound_to 10162
  139.5255  144.7096  151.5247 LP  0  0  0  0  0  0  0  0  0  0  0  0  # atno 17343 bound_to 10162
  156.5204  130.8212  151.3201 LP  0  0  0  0  0  0  0  0  0  0  0  0  # atno 17370 bound_to 10713
  157.7421  130.9884  150.2496 LP  0  0  0  0  0  0  0  0  0  0  0  0  # atno 17371 bound_to 10713
  140.7714  133.8735  155.8495 LP  0  0  0  0  0  0  0  0  0  0  0  0  # atno 17394 bound_to 11000
  140.9838  134.1370  157.4470 LP  0  0  0  0  0  0  0  0  0  0  0  0  # atno 17395 bound_to 11000

$$$$
