AV-unprocessed.smi:2358|AV-procd|sdf|9406|dock4
  -GOLD-   2272013 43D 1   1.00000     0.00000
 Structure written by MMmdl.
 46 48  0  0  0  0  0  0  0  0  2 V2000
  151.9680  144.7289  159.0694 C   0  0  0  0  0  0  0  0  0  0  0  0
  151.9596  143.2219  158.9146 C   0  0  0  0  0  0  0  0  0  0  0  0
  152.7523  142.4172  159.7570 C   0  0  0  0  0  0  0  0  0  0  0  0
  152.7458  141.0170  159.6066 C   0  0  0  0  0  0  0  0  0  0  0  0
  153.5996  140.1568  160.5152 C   0  0  0  0  0  0  0  0  0  0  0  0
  151.9420  140.4244  158.6116 C   0  0  0  0  0  0  0  0  0  0  0  0
  151.1437  141.2146  157.7598 C   0  0  0  0  0  0  0  0  0  0  0  0
  150.3930  140.5498  156.8138 O   0  0  0  0  0  0  0  0  0  0  0  0
  150.8561  139.2884  156.3494 C   0  0  0  0  0  0  0  0  0  0  0  0
  150.0300  138.8782  155.1181 C   0  0  1  0  0  0  0  0  0  0  0  0
  150.1477  139.9264  154.1759 O   0  0  0  0  0  0  0  0  0  0  0  0
  150.5665  137.5841  154.4653 C   0  0  0  0  0  0  0  0  0  0  0  0
  150.0618  136.3822  155.1406 N   0  0  0  0  0  0  0  0  0  0  0  0
  148.8361  135.9432  154.6705 N   0  0  0  0  0  0  0  0  0  0  0  0
  148.2710  134.8889  155.1617 C   0  0  0  0  0  0  0  0  0  0  0  0
  146.9844  134.4327  154.6588 N   0  0  0  0  0  0  0  0  0  0  0  0
  146.2985  134.9194  153.5733 C   0  0  0  0  0  0  0  0  0  0  0  0
  145.1444  134.1847  153.4837 C   0  0  0  0  0  0  0  0  0  0  0  0
  145.1751  133.2834  154.5148 N   0  3  0  0  0  0  0  0  0  0  0  0
  146.2948  133.4316  155.2321 C   0  0  0  0  0  0  0  0  0  0  0  0
  148.9320  134.1501  156.2324 C   0  0  0  0  0  0  0  0  0  0  0  0
  150.1299  134.5844  156.6796 C   0  0  0  0  0  0  0  0  0  0  0  0
  150.7813  135.7691  156.1251 C   0  0  0  0  0  0  0  0  0  0  0  0
  151.8788  136.1741  156.5054 O   0  0  0  0  0  0  0  0  0  0  0  0
  151.1598  142.6232  157.9198 C   0  0  0  0  0  0  0  0  0  0  0  0
  152.4046  145.0266  160.0231 H   0  0  0  0  0  0  0  0  0  0  0  0
  150.9526  145.1235  159.0247 H   0  0  0  0  0  0  0  0  0  0  0  0
  152.5498  145.1855  158.2685 H   0  0  0  0  0  0  0  0  0  0  0  0
  153.3675  142.8725  160.5196 H   0  0  0  0  0  0  0  0  0  0  0  0
  153.6490  139.1281  160.1570 H   0  0  0  0  0  0  0  0  0  0  0  0
  153.1861  140.1486  161.5239 H   0  0  0  0  0  0  0  0  0  0  0  0
  154.6165  140.5475  160.5636 H   0  0  0  0  0  0  0  0  0  0  0  0
  151.9349  139.3502  158.4960 H   0  0  0  0  0  0  0  0  0  0  0  0
  151.9223  139.3096  156.1154 H   0  0  0  0  0  0  0  0  0  0  0  0
  150.7043  138.5605  157.1478 H   0  0  0  0  0  0  0  0  0  0  0  0
  148.9860  138.7496  155.4080 H   0  0  0  0  0  0  0  0  0  0  0  0
  149.2933  140.3070  154.0392 H   0  0  0  0  0  0  0  0  0  0  0  0
  150.3644  137.5677  153.3923 H   0  0  0  0  0  0  0  0  0  0  0  0
  151.6555  137.5642  154.5370 H   0  0  0  0  0  0  0  0  0  0  0  0
  146.6677  135.7288  152.9596 H   0  0  0  0  0  0  0  0  0  0  0  0
  144.3250  134.2342  152.7814 H   0  0  0  0  0  0  0  0  0  0  0  0
  146.5528  132.8419  156.0918 H   0  0  0  0  0  0  0  0  0  0  0  0
  148.5012  133.2708  156.6820 H   0  0  0  0  0  0  0  0  0  0  0  0
  150.6239  134.0418  157.4722 H   0  0  0  0  0  0  0  0  0  0  0  0
  150.5657  143.2668  157.2888 H   0  0  0  0  0  0  0  0  0  0  0  0
  144.4534  132.6002  154.7086 H   0  0  0  0  0  0  0  0  0  0  0  0
  1  2  1  0  0  0  0
  1 26  1  0  0  0  0
  1 27  1  0  0  0  0
  1 28  1  0  0  0  0
  2 25  1  0  0  0  0
  2  3  2  0  0  0  0
  3  4  1  0  0  0  0
  3 29  1  0  0  0  0
  4  5  1  0  0  0  0
  4  6  2  0  0  0  0
  5 30  1  0  0  0  0
  5 31  1  0  0  0  0
  5 32  1  0  0  0  0
  6  7  1  0  0  0  0
  6 33  1  0  0  0  0
  7  8  1  0  0  0  0
  7 25  2  0  0  0  0
  8  9  1  0  0  0  0
  9 10  1  0  0  0  0
  9 34  1  0  0  0  0
  9 35  1  0  0  0  0
 10 11  1  0  0  0  0
 10 12  1  0  0  0  0
 10 36  1  0  0  0  0
 11 37  1  0  0  0  0
 12 13  1  0  0  0  0
 12 38  1  0  0  0  0
 12 39  1  0  0  0  0
 13 23  1  0  0  0  0
 13 14  1  0  0  0  0
 14 15  2  0  0  0  0
 15 16  1  0  0  0  0
 15 21  1  0  0  0  0
 16 20  1  0  0  0  0
 16 17  1  0  0  0  0
 17 18  2  0  0  0  0
 17 40  1  0  0  0  0
 18 19  1  0  0  0  0
 18 41  1  0  0  0  0
 19 20  2  0  0  0  0
 19 46  1  0  0  0  0
 20 42  1  0  0  0  0
 21 22  2  0  0  0  0
 21 43  1  0  0  0  0
 22 23  1  0  0  0  0
 22 44  1  0  0  0  0
 23 24  2  0  0  0  0
 25 45  1  0  0  0  0
M  CHG  1  19   1
M  END
> <s_m_source_file>
AV-unprocessed.smi

> <i_m_source_file_index>
2358

> <i_lp_mmshare_version>
43012

> <i_f3d_flags>
0

> <s_epik_input>
W0NIM11jMVtjSF1jKFtDSDNdKVtjSF1jKFtjSF0xKU9bQ0gyXVtDQEhdKFtPSF0pW0NIMl1uMm5jKFtjSF1bY0hdYzI9TyktbjNbY0hdW2NIXW5bY0hdMw==

> <s_epik_cmdline>
J2VwaWtfcHl0aG9uJywgJy1waCcsICc3LjAnLCAnLXRuJywgJzgnLCAnLW1hJywgJzIwMCcsICctbWV0YWxfYmluZGluZycsICctaW1hZScsICc8aW5maWxlLm1hZT4nLCAnLW9tYWUnLCAnPG91dGZpbGUubWFlPic=

> <r_lp_tautomer_probability>
1

> <r_epik_Ionization_Penalty>
1.66053

> <r_epik_Ionization_Penalty_Charging>
2.42216e-09

> <r_epik_Ionization_Penalty_Neutral>
1.66053

> <r_epik_State_Penalty>
1.76336

> <r_epik_Charging_Adjusted_Penalty>
1.76336

> <i_epik_Tot_Q>
1

> <i_epik_Tot_abs_Q>
1

> <r_epik_Metal_State_Penalty>
1.79856

> <b_epik_Metal_Only>
0

> <s_lp_Force_Field>
OPLS_2005

> <r_lp_Energy>
39.182

> <b_lp_Chiralities_Consistent>
1

> <s_lp_Variant>
AV-unprocessed.smi:2358-4

> <Gold.Version>
5.8.1

> <Gold.Id.Protein>
6NUR|6NUR_protein|mol2

> <Gold.PLP.Fitness>
52.7846

> <Gold.PLP.PLP>
-39.7425

> <Gold.PLP.part.hbond>
-4.0000

> <Gold.PLP.part.metal>
0.0000

> <Gold.PLP.part.buried>
-6.7272

> <Gold.PLP.part.nonpolar>
-33.0901

> <Gold.PLP.part.repulsive>
2.0500

> <Gold.PLP.ligand.clash>
0.0000

> <Gold.PLP.ligand.torsion>
1.0110

> <Gold.PLP.Chemscore.Hbond>
3.9825

> <Gold.PLP.Chemscore.CHOScore>
1.0000

> <Gold.PLP.Chemscore.Metal>
0.0000

> <Gold.Chemscore.Hbonds>
donor molecule, donor type, donor heavy atom, donor atom, acceptor molecule, acceptor atom, score
      L1  H    19    46       P1 10957  2.00
      P1  H  7989  7998       L1    11  1.00
      P1  H 10752 10763       L1    24  0.96
      L1  C    17    40       P1  7948  0.89

> <Gold.PLP.Chemscore.Internal.Correction>
0.1167

> <Gold.Rescore>
     Score         DG    S(hbond)    S(metal)    S(lipo)     H(rot)  DE(clash)    DE(int)     intcor
     17.71     -18.76       2.61        0.00      96.98       2.65       0.06       0.98       ----

> <Gold.Chemscore.Fitness>
17.7141

> <Gold.Chemscore.DG>
-18.7566

> <Gold.Chemscore.ZeroCoef>
-5.4800

> <Gold.Chemscore.Hbond>
2.6118

> <Gold.Chemscore.Metal>
0.0000

> <Gold.Chemscore.Lipo>
96.9809

> <Gold.Chemscore.Internal_Hbond>
0.0000

> <Gold.Chemscore.DEClash>
0.0622

> <Gold.Chemscore.DEInternal>
0.9803

> <Gold.Chemscore.Rot>
2.6537

> <Gold.Chemscore.Internal.Correction>
   9.000000E+99

> <Gold.Chemscore.Hbonds>
donor molecule, donor type, donor heavy atom, donor atom, acceptor molecule, acceptor atom, score
      L1  H    19    46       P1 10957  0.93
      P1  H  7989  7998       L1    11  0.91
      P1  H 10752 10763       L1    24  0.31

> <Gold.Chemscore.Hbond.Weighted>
-8.7233

> <Gold.Chemscore.Metal.Weighted>
-0.0000

> <Gold.Chemscore.Lipo.Weighted>
-11.3468

> <Gold.Chemscore.Internal_Hbond.Weighted>
0.0000

> <Gold.Chemscore.DEClash.Weighted>
0.0622

> <Gold.Chemscore.DEInternal.Weighted>
0.9803

> <Gold.Chemscore.Rot.Weighted>
6.7935

> <Gold.Chemscore.Internal.Correction.Weighted>
   9.000000E+99

> <Gold.Protein.RotatedTorsions>
[ 6907 6896 6895 6894 ] final   14.44 input  -60.11 | X-H torsion
[ 7974 7965 7964 7962 ] final  127.09 input  175.53 | X-H torsion
[ 8008 7997 7996 7995 ] final   33.59 input   59.86 | X-H torsion
[ 10167 10162 10161 10158 ] final  115.13 input  -65.29 | X-H torsion
[ 10718 10713 10712 10709 ] final  136.49 input   66.30 | X-H torsion
[ 10763 10752 10751 10750 ] final   87.13 input  -60.55 | X-H torsion
[ 11005 11000 10999 10996 ] final   74.38 input  -57.11 | X-H torsion

> <Gold.Protein.ActiveResidues>
 VAL166  LYS551  ARG553  GLY616  TRP617  ASP618  TYR619  PRO620  LYS621  CYS622 
 ASP623  PHE694  ASN695  SER759  ASP760  ASP761  ALA762  ILE779  LEU786  VAL792 
 PHE793  MET794  SER795  GLU796  ALA797  LYS798  CYS799  TRP800  GLU811  SER814 

> <Gold.Protein.RotatedAtoms>
  151.8022  135.0705  160.0401 H   0  0  0  0  0  0  0  0  0  0  0  0  # atno 6907 bound_to 6896
  152.3081  133.5719  159.5671 H   0  0  0  0  0  0  0  0  0  0  0  0  # atno 6908 bound_to 6896
  150.7306  134.0109  159.3711 H   0  0  0  0  0  0  0  0  0  0  0  0  # atno 6909 bound_to 6896
  145.0544  139.3856  143.5038 H   0  0  0  0  0  0  0  0  0  0  0  0  # atno 7974 bound_to 7965
  155.1411  140.3266  155.4452 H   0  0  0  0  0  0  0  0  0  0  0  0  # atno 8008 bound_to 7997
  156.2604  140.1993  156.6476 H   0  0  0  0  0  0  0  0  0  0  0  0  # atno 8009 bound_to 7997
  154.6542  140.0555  156.9976 H   0  0  0  0  0  0  0  0  0  0  0  0  # atno 8010 bound_to 7997
  139.6339  144.7118  151.2375 H   0  0  0  0  0  0  0  0  0  0  0  0  # atno 10167 bound_to 10162
  157.4461  131.1062  151.0087 H   0  0  0  0  0  0  0  0  0  0  0  0  # atno 10718 bound_to 10713
  153.1638  135.4555  154.9809 H   0  0  0  0  0  0  0  0  0  0  0  0  # atno 10763 bound_to 10752
  154.7917  135.3223  154.7764 H   0  0  0  0  0  0  0  0  0  0  0  0  # atno 10764 bound_to 10752
  153.8250  135.6943  153.4876 H   0  0  0  0  0  0  0  0  0  0  0  0  # atno 10765 bound_to 10752
  139.9394  134.7428  156.1141 H   0  0  0  0  0  0  0  0  0  0  0  0  # atno 11005 bound_to 11000
  146.3520  140.0210  142.8658 LP  0  0  0  0  0  0  0  0  0  0  0  0  # atno 17320 bound_to 7965
  145.1487  140.9611  143.4446 LP  0  0  0  0  0  0  0  0  0  0  0  0  # atno 17321 bound_to 7965
  140.7454  143.6431  150.8317 LP  0  0  0  0  0  0  0  0  0  0  0  0  # atno 17342 bound_to 10162
  140.0059  143.5694  152.2857 LP  0  0  0  0  0  0  0  0  0  0  0  0  # atno 17343 bound_to 10162
  157.0933  130.5951  149.5444 LP  0  0  0  0  0  0  0  0  0  0  0  0  # atno 17370 bound_to 10713
  155.9968  130.5038  150.7510 LP  0  0  0  0  0  0  0  0  0  0  0  0  # atno 17371 bound_to 10713
  141.1022  133.6673  156.2780 LP  0  0  0  0  0  0  0  0  0  0  0  0  # atno 17394 bound_to 11000
  140.5992  134.5572  157.5514 LP  0  0  0  0  0  0  0  0  0  0  0  0  # atno 17395 bound_to 11000

$$$$
