AV-unprocessed.smi:3166|AV-procd|sdf|12093|dock10
  -GOLD-   2272017523D 1   1.00000     0.00000
 Structure written by MMmdl.
 41 42  0  0  0  0  0  0  0  0  2 V2000
  149.5966  143.6371  158.8711 C   0  0  0  0  0  0  0  0  0  0  0  0
  150.6203  142.6243  158.3392 C   0  0  2  0  0  0  0  0  0  0  0  0
  152.0696  143.1287  158.5477 C   0  0  0  0  0  0  0  0  0  0  0  0
  152.5461  142.8919  159.8982 N   0  0  0  0  0  0  0  0  0  0  0  0
  152.2029  143.5612  161.0542 C   0  0  0  0  0  0  0  0  0  0  0  0
  152.8978  142.9851  162.0787 C   0  0  0  0  0  0  0  0  0  0  0  0
  153.6486  141.9576  161.4424 C   0  0  0  0  0  0  0  0  0  0  0  0
  153.4357  141.9049  160.1374 N   0  0  0  0  0  0  0  0  0  0  0  0
  150.3353  142.3493  156.9131 N   0  3  0  0  0  0  0  0  0  0  0  0
  149.4957  141.1600  156.6491 C   0  0  0  0  0  0  0  0  0  0  0  0
  149.6314  140.6580  155.1914 C   0  0  0  0  0  0  0  0  0  0  0  0
  151.0138  140.4975  154.9352 O   0  0  0  0  0  0  0  0  0  0  0  0
  148.9281  139.3015  154.9387 C   0  0  0  0  0  0  0  0  0  0  0  0
  147.3944  139.4228  154.9705 C   0  0  0  0  0  0  0  0  0  0  0  0
  146.9002  140.4741  153.9648 C   0  0  0  0  0  0  0  0  0  0  0  0
  147.5766  141.8345  154.1948 C   0  0  0  0  0  0  0  0  0  0  0  0
  149.1114  141.7084  154.1817 C   0  0  0  0  0  0  0  0  0  0  0  0
  149.7491  143.8260  159.9343 H   0  0  0  0  0  0  0  0  0  0  0  0
  148.5778  143.2679  158.7483 H   0  0  0  0  0  0  0  0  0  0  0  0
  149.6710  144.5915  158.3484 H   0  0  0  0  0  0  0  0  0  0  0  0
  150.4647  141.6971  158.8939 H   0  0  0  0  0  0  0  0  0  0  0  0
  152.7629  142.6666  157.8428 H   0  0  0  0  0  0  0  0  0  0  0  0
  152.1362  144.2015  158.3607 H   0  0  0  0  0  0  0  0  0  0  0  0
  151.5002  144.3816  161.0520 H   0  0  0  0  0  0  0  0  0  0  0  0
  152.8737  143.2561  163.1239 H   0  0  0  0  0  0  0  0  0  0  0  0
  154.3365  141.2533  161.8866 H   0  0  0  0  0  0  0  0  0  0  0  0
  149.8404  143.1455  156.5369 H   0  0  0  0  0  0  0  0  0  0  0  0
  149.7775  140.3701  157.3414 H   0  0  0  0  0  0  0  0  0  0  0  0
  148.4551  141.4075  156.8640 H   0  0  0  0  0  0  0  0  0  0  0  0
  151.2629  139.6158  155.1695 H   0  0  0  0  0  0  0  0  0  0  0  0
  149.2209  138.9196  153.9593 H   0  0  0  0  0  0  0  0  0  0  0  0
  149.2552  138.5497  155.6575 H   0  0  0  0  0  0  0  0  0  0  0  0
  146.9442  138.4563  154.7424 H   0  0  0  0  0  0  0  0  0  0  0  0
  147.0584  139.6843  155.9741 H   0  0  0  0  0  0  0  0  0  0  0  0
  147.1087  140.1321  152.9503 H   0  0  0  0  0  0  0  0  0  0  0  0
  145.8172  140.5793  154.0375 H   0  0  0  0  0  0  0  0  0  0  0  0
  147.2599  142.5368  153.4232 H   0  0  0  0  0  0  0  0  0  0  0  0
  147.2417  142.2570  155.1424 H   0  0  0  0  0  0  0  0  0  0  0  0
  149.5633  142.6818  154.3780 H   0  0  0  0  0  0  0  0  0  0  0  0
  149.4234  141.4307  153.1735 H   0  0  0  0  0  0  0  0  0  0  0  0
  151.2089  142.2531  156.4159 H   0  0  0  0  0  0  0  0  0  0  0  0
  1  2  1  0  0  0  0
  1 18  1  0  0  0  0
  1 19  1  0  0  0  0
  1 20  1  0  0  0  0
  2  3  1  0  0  0  0
  2  9  1  0  0  0  0
  2 21  1  0  0  0  0
  3  4  1  0  0  0  0
  3 22  1  0  0  0  0
  3 23  1  0  0  0  0
  4  8  1  0  0  0  0
  4  5  1  0  0  0  0
  5  6  2  0  0  0  0
  5 24  1  0  0  0  0
  6  7  1  0  0  0  0
  6 25  1  0  0  0  0
  7  8  2  0  0  0  0
  7 26  1  0  0  0  0
  9 10  1  0  0  0  0
  9 27  1  0  0  0  0
  9 41  1  0  0  0  0
 10 11  1  0  0  0  0
 10 28  1  0  0  0  0
 10 29  1  0  0  0  0
 11 17  1  0  0  0  0
 11 12  1  0  0  0  0
 11 13  1  0  0  0  0
 12 30  1  0  0  0  0
 13 14  1  0  0  0  0
 13 31  1  0  0  0  0
 13 32  1  0  0  0  0
 14 15  1  0  0  0  0
 14 33  1  0  0  0  0
 14 34  1  0  0  0  0
 15 16  1  0  0  0  0
 15 35  1  0  0  0  0
 15 36  1  0  0  0  0
 16 17  1  0  0  0  0
 16 37  1  0  0  0  0
 16 38  1  0  0  0  0
 17 39  1  0  0  0  0
 17 40  1  0  0  0  0
M  CHG  1   9   1
M  END
> <s_m_source_file>
AV-unprocessed.smi

> <i_m_source_file_index>
3166

> <i_lp_mmshare_version>
43012

> <i_f3d_flags>
0

> <s_epik_input>
bjFbY0hdW2NIXVtjSF1uMVtDSDJdW0NAQEhdKFtDSDNdKVtOSF1bQ0gyXUMyKFtPSF0pW0NIMl1bQ0gyXVtDSDJdW0NIMl1bQ0gyXTI=

> <s_epik_cmdline>
J2VwaWtfcHl0aG9uJywgJy1waCcsICc3LjAnLCAnLXRuJywgJzgnLCAnLW1hJywgJzIwMCcsICctbWV0YWxfYmluZGluZycsICctaW1hZScsICc8aW5maWxlLm1hZT4nLCAnLW9tYWUnLCAnPG91dGZpbGUubWFlPic=

> <r_lp_tautomer_probability>
1

> <r_epik_Ionization_Penalty>
0.0111521

> <r_epik_Ionization_Penalty_Charging>
0.0111472

> <r_epik_Ionization_Penalty_Neutral>
4.96355e-06

> <r_epik_State_Penalty>
0.00856328

> <r_epik_Charging_Adjusted_Penalty>
0.0197104

> <i_epik_Tot_Q>
1

> <i_epik_Tot_abs_Q>
1

> <r_epik_Metal_State_Penalty>
0.00856387

> <b_epik_Metal_Only>
0

> <s_lp_Force_Field>
OPLS_2005

> <r_lp_Energy>
18.587

> <b_lp_Chiralities_Consistent>
1

> <s_lp_Variant>
AV-unprocessed.smi:3166-1

> <Gold.Version>
5.8.1

> <Gold.Id.Protein>
6NUR|6NUR_protein|mol2

> <Gold.PLP.Fitness>
43.4808

> <Gold.PLP.PLP>
-36.5142

> <Gold.PLP.part.hbond>
-1.9731

> <Gold.PLP.part.metal>
0.0000

> <Gold.PLP.part.buried>
-2.1108

> <Gold.PLP.part.nonpolar>
-32.0045

> <Gold.PLP.part.repulsive>
0.0241

> <Gold.PLP.ligand.clash>
0.0000

> <Gold.PLP.ligand.torsion>
1.0328

> <Gold.PLP.Chemscore.Hbond>
3.0000

> <Gold.PLP.Chemscore.CHOScore>
0.0000

> <Gold.PLP.Chemscore.Metal>
0.0000

> <Gold.Chemscore.Hbonds>
donor molecule, donor type, donor heavy atom, donor atom, acceptor molecule, acceptor atom, score
      L1  H     9    27       P1  8028  1.95
      P1  H  7989  7998       L1    12  1.00

> <Gold.PLP.Chemscore.Internal.Correction>
0.0322

> <Gold.Rescore>
     Score         DG    S(hbond)    S(metal)    S(lipo)     H(rot)  DE(clash)    DE(int)     intcor
     15.82     -17.55       1.96        0.00      95.20       2.20       0.67       1.05       ----

> <Gold.Chemscore.Fitness>
15.8248

> <Gold.Chemscore.DG>
-17.5508

> <Gold.Chemscore.ZeroCoef>
-5.4800

> <Gold.Chemscore.Hbond>
1.9648

> <Gold.Chemscore.Metal>
0.0000

> <Gold.Chemscore.Lipo>
95.1982

> <Gold.Chemscore.Internal_Hbond>
0.0000

> <Gold.Chemscore.DEClash>
0.6741

> <Gold.Chemscore.DEInternal>
1.0519

> <Gold.Chemscore.Rot>
2.1991

> <Gold.Chemscore.Internal.Correction>
   9.000000E+99

> <Gold.Chemscore.Hbonds>
donor molecule, donor type, donor heavy atom, donor atom, acceptor molecule, acceptor atom, score
      L1  H     9    27       P1  8028  0.92
      P1  H  7989  7998       L1    12  0.69

> <Gold.Chemscore.Hbond.Weighted>
-6.5624

> <Gold.Chemscore.Metal.Weighted>
-0.0000

> <Gold.Chemscore.Lipo.Weighted>
-11.1382

> <Gold.Chemscore.Internal_Hbond.Weighted>
0.0000

> <Gold.Chemscore.DEClash.Weighted>
0.6741

> <Gold.Chemscore.DEInternal.Weighted>
1.0519

> <Gold.Chemscore.Rot.Weighted>
5.6298

> <Gold.Chemscore.Internal.Correction.Weighted>
   9.000000E+99

> <Gold.Protein.RotatedTorsions>
[ 6907 6896 6895 6894 ] final  -30.15 input  -60.11 | X-H torsion
[ 7974 7965 7964 7962 ] final   12.50 input  175.53 | X-H torsion
[ 8008 7997 7996 7995 ] final   32.08 input   59.86 | X-H torsion
[ 10167 10162 10161 10158 ] final   47.32 input  -65.29 | X-H torsion
[ 10718 10713 10712 10709 ] final  -39.41 input   66.30 | X-H torsion
[ 10763 10752 10751 10750 ] final   57.90 input  -60.55 | X-H torsion
[ 11005 11000 10999 10996 ] final -104.39 input  -57.11 | X-H torsion

> <Gold.Protein.ActiveResidues>
 VAL166  LYS551  ARG553  GLY616  TRP617  ASP618  TYR619  PRO620  LYS621  CYS622 
 ASP623  PHE694  ASN695  SER759  ASP760  ASP761  ALA762  ILE779  LEU786  VAL792 
 PHE793  MET794  SER795  GLU796  ALA797  LYS798  CYS799  TRP800  GLU811  SER814 

> <Gold.Protein.RotatedAtoms>
  151.1095  135.0018  159.8486 H   0  0  0  0  0  0  0  0  0  0  0  0  # atno 6907 bound_to 6896
  152.5442  134.1853  159.8662 H   0  0  0  0  0  0  0  0  0  0  0  0  # atno 6908 bound_to 6896
  151.1902  133.4627  159.2628 H   0  0  0  0  0  0  0  0  0  0  0  0  # atno 6909 bound_to 6896
  146.2350  139.9328  142.8494 H   0  0  0  0  0  0  0  0  0  0  0  0  # atno 7974 bound_to 7965
  155.1168  140.3244  155.4507 H   0  0  0  0  0  0  0  0  0  0  0  0  # atno 8008 bound_to 7997
  156.2675  140.2034  156.6239 H   0  0  0  0  0  0  0  0  0  0  0  0  # atno 8009 bound_to 7997
  154.6714  140.0536  157.0156 H   0  0  0  0  0  0  0  0  0  0  0  0  # atno 8010 bound_to 7997
  140.3048  144.2891  150.6211 H   0  0  0  0  0  0  0  0  0  0  0  0  # atno 10167 bound_to 10162
  156.2928  130.4230  149.8221 H   0  0  0  0  0  0  0  0  0  0  0  0  # atno 10718 bound_to 10713
  152.9859  135.5625  154.5465 H   0  0  0  0  0  0  0  0  0  0  0  0  # atno 10763 bound_to 10752
  154.4910  135.2793  155.1498 H   0  0  0  0  0  0  0  0  0  0  0  0  # atno 10764 bound_to 10752
  154.2968  135.6315  153.5461 H   0  0  0  0  0  0  0  0  0  0  0  0  # atno 10765 bound_to 10752
  141.1103  133.8719  157.1604 H   0  0  0  0  0  0  0  0  0  0  0  0  # atno 11005 bound_to 11000
  145.2028  140.9862  143.4146 LP  0  0  0  0  0  0  0  0  0  0  0  0  # atno 17320 bound_to 7965
  144.9759  139.3832  143.6286 LP  0  0  0  0  0  0  0  0  0  0  0  0  # atno 17321 bound_to 7965
  140.5619  143.2191  151.7749 LP  0  0  0  0  0  0  0  0  0  0  0  0  # atno 17342 bound_to 10162
  139.4907  144.4336  151.9844 LP  0  0  0  0  0  0  0  0  0  0  0  0  # atno 17343 bound_to 10162
  156.5628  130.8391  151.3334 LP  0  0  0  0  0  0  0  0  0  0  0  0  # atno 17370 bound_to 10713
  157.7347  130.9750  150.2043 LP  0  0  0  0  0  0  0  0  0  0  0  0  # atno 17371 bound_to 10713
  139.9993  135.0034  157.0153 LP  0  0  0  0  0  0  0  0  0  0  0  0  # atno 17394 bound_to 11000
  140.4794  134.1305  155.7214 LP  0  0  0  0  0  0  0  0  0  0  0  0  # atno 17395 bound_to 11000

$$$$
