AV-unprocessed.smi:1258|AV-procd|sdf|5290|dock4
  -GOLD-   22720 4413D 1   1.00000     0.00000
 Structure written by MMmdl.
 33 34  0  0  0  0  0  0  0  0  1 V2000
  153.1297  142.7636  162.8536 C   0  0  0  0  0  0  0  0  0  0  0  0
  152.5149  142.9709  161.4621 C   0  0  1  0  0  0  0  0  0  0  0  0
  152.1007  144.4390  161.2454 C   0  0  0  0  0  0  0  0  0  0  0  0
  151.4916  144.6550  159.8517 C   0  0  0  0  0  0  0  0  0  0  0  0
  152.4567  144.1980  158.7456 C   0  0  0  0  0  0  0  0  0  0  0  0
  152.9028  142.7315  158.9330 C   0  0  2  0  0  0  0  0  0  0  0  0
  151.8080  141.7965  158.6773 N   0  0  0  0  0  0  0  0  0  0  0  0
  151.9447  140.4857  158.4236 C   0  0  0  0  0  0  0  0  0  0  0  0
  153.0362  139.9179  158.3684 O   0  0  0  0  0  0  0  0  0  0  0  0
  150.6502  139.7025  158.1871 C   0  0  0  0  0  0  0  0  0  0  0  0
  150.8273  138.2829  158.4329 N   0  0  0  0  0  0  0  0  0  0  0  0
  150.1129  137.4228  159.1618 C   0  0  0  0  0  0  0  0  0  0  0  0
  150.6212  136.2008  159.1130 N   0  0  0  0  0  0  0  0  0  0  0  0
  151.7235  136.3512  158.2882 N   0  0  0  0  0  0  0  0  0  0  0  0
  151.8508  137.5845  157.8811 N   0  0  0  0  0  0  0  0  0  0  0  0
  153.4768  142.5080  160.3468 C   0  0  0  0  0  0  0  0  0  0  0  0
  154.0357  143.3573  162.9797 H   0  0  0  0  0  0  0  0  0  0  0  0
  153.3917  141.7178  163.0158 H   0  0  0  0  0  0  0  0  0  0  0  0
  152.4305  143.0531  163.6387 H   0  0  0  0  0  0  0  0  0  0  0  0
  151.6145  142.3572  161.4110 H   0  0  0  0  0  0  0  0  0  0  0  0
  151.3816  144.7408  162.0078 H   0  0  0  0  0  0  0  0  0  0  0  0
  152.9683  145.0890  161.3660 H   0  0  0  0  0  0  0  0  0  0  0  0
  150.5518  144.1073  159.7722 H   0  0  0  0  0  0  0  0  0  0  0  0
  151.2453  145.7084  159.7148 H   0  0  0  0  0  0  0  0  0  0  0  0
  151.9978  144.3403  157.7667 H   0  0  0  0  0  0  0  0  0  0  0  0
  153.3381  144.8403  158.7582 H   0  0  0  0  0  0  0  0  0  0  0  0
  153.6972  142.5167  158.2158 H   0  0  0  0  0  0  0  0  0  0  0  0
  150.8734  142.1781  158.7005 H   0  0  0  0  0  0  0  0  0  0  0  0
  149.8489  140.0756  158.8275 H   0  0  0  0  0  0  0  0  0  0  0  0
  150.3301  139.8419  157.1542 H   0  0  0  0  0  0  0  0  0  0  0  0
  149.2276  137.6894  159.7201 H   0  0  0  0  0  0  0  0  0  0  0  0
  154.4158  143.0564  160.4353 H   0  0  0  0  0  0  0  0  0  0  0  0
  153.7302  141.4557  160.4823 H   0  0  0  0  0  0  0  0  0  0  0  0
  1  2  1  0  0  0  0
  1 17  1  0  0  0  0
  1 18  1  0  0  0  0
  1 19  1  0  0  0  0
  2 16  1  0  0  0  0
  2  3  1  0  0  0  0
  2 20  1  0  0  0  0
  3  4  1  0  0  0  0
  3 21  1  0  0  0  0
  3 22  1  0  0  0  0
  4  5  1  0  0  0  0
  4 23  1  0  0  0  0
  4 24  1  0  0  0  0
  5  6  1  0  0  0  0
  5 25  1  0  0  0  0
  5 26  1  0  0  0  0
  6  7  1  0  0  0  0
  6 16  1  0  0  0  0
  6 27  1  0  0  0  0
  7  8  1  0  0  0  0
  7 28  1  0  0  0  0
  8  9  2  0  0  0  0
  8 10  1  0  0  0  0
 10 11  1  0  0  0  0
 10 29  1  0  0  0  0
 10 30  1  0  0  0  0
 11 15  1  0  0  0  0
 11 12  1  0  0  0  0
 12 13  2  0  0  0  0
 12 31  1  0  0  0  0
 13 14  1  0  0  0  0
 14 15  2  0  0  0  0
 16 32  1  0  0  0  0
 16 33  1  0  0  0  0
M  END
> <s_m_source_file>
AV-unprocessed.smi

> <i_m_source_file_index>
1258

> <i_lp_mmshare_version>
43012

> <i_f3d_flags>
0

> <s_epik_input>
W0NIM11bQ0BASF0xW0NIMl1bQ0gyXVtDSDJdW0NASF0oW0NIMl0xKVtOSF1DKD1PKVtDSDJdbjJbY0hdbm5uMg==

> <s_epik_cmdline>
J2VwaWtfcHl0aG9uJywgJy1waCcsICc3LjAnLCAnLXRuJywgJzgnLCAnLW1hJywgJzIwMCcsICctbWV0YWxfYmluZGluZycsICctaW1hZScsICc8aW5maWxlLm1hZT4nLCAnLW9tYWUnLCAnPG91dGZpbGUubWFlPic=

> <r_lp_tautomer_probability>
1

> <r_epik_Ionization_Penalty>
5.03816e-07

> <r_epik_Ionization_Penalty_Charging>
0

> <r_epik_Ionization_Penalty_Neutral>
5.03816e-07

> <r_epik_State_Penalty>
-0

> <r_epik_Charging_Adjusted_Penalty>
0

> <i_epik_Tot_Q>
0

> <i_epik_Tot_abs_Q>
0

> <r_epik_Metal_State_Penalty>
-0

> <b_epik_Metal_Only>
0

> <s_lp_Force_Field>
OPLS_2005

> <r_lp_Energy>
10.3289

> <b_lp_Chiralities_Consistent>
1

> <s_lp_Variant>
AV-unprocessed.smi:1258-4

> <Gold.Version>
5.8.1

> <Gold.Id.Protein>
6NUR|6NUR_protein|mol2

> <Gold.PLP.Fitness>
42.7637

> <Gold.PLP.PLP>
-38.0254

> <Gold.PLP.part.hbond>
-3.0000

> <Gold.PLP.part.metal>
0.0000

> <Gold.PLP.part.buried>
-5.1833

> <Gold.PLP.part.nonpolar>
-30.3548

> <Gold.PLP.part.repulsive>
0.0849

> <Gold.PLP.ligand.clash>
0.0000

> <Gold.PLP.ligand.torsion>
0.6226

> <Gold.PLP.Chemscore.Hbond>
1.9913

> <Gold.PLP.Chemscore.CHOScore>
0.0000

> <Gold.PLP.Chemscore.Metal>
0.0000

> <Gold.Chemscore.Hbonds>
donor molecule, donor type, donor heavy atom, donor atom, acceptor molecule, acceptor atom, score
      P1  H  6896  6909       L1    13  0.80
      P1  H  7997  8009       L1     9  0.91

> <Gold.PLP.Chemscore.Internal.Correction>
0.0097

> <Gold.Rescore>
     Score         DG    S(hbond)    S(metal)    S(lipo)     H(rot)  DE(clash)    DE(int)     intcor
     15.28     -17.21       1.87        0.00      88.92       1.92       0.06       1.87       ----

> <Gold.Chemscore.Fitness>
15.2838

> <Gold.Chemscore.DG>
-17.2137

> <Gold.Chemscore.ZeroCoef>
-5.4800

> <Gold.Chemscore.Hbond>
1.8673

> <Gold.Chemscore.Metal>
0.0000

> <Gold.Chemscore.Lipo>
88.9241

> <Gold.Chemscore.Internal_Hbond>
0.0000

> <Gold.Chemscore.DEClash>
0.0607

> <Gold.Chemscore.DEInternal>
1.8692

> <Gold.Chemscore.Rot>
1.9169

> <Gold.Chemscore.Internal.Correction>
   9.000000E+99

> <Gold.Chemscore.Hbonds>
donor molecule, donor type, donor heavy atom, donor atom, acceptor molecule, acceptor atom, score
      P1  H  6896  6909       L1    13  0.22
      P1  H  7997  8009       L1     9  0.86

> <Gold.Chemscore.Hbond.Weighted>
-6.2369

> <Gold.Chemscore.Metal.Weighted>
-0.0000

> <Gold.Chemscore.Lipo.Weighted>
-10.4041

> <Gold.Chemscore.Internal_Hbond.Weighted>
0.0000

> <Gold.Chemscore.DEClash.Weighted>
0.0607

> <Gold.Chemscore.DEInternal.Weighted>
1.8692

> <Gold.Chemscore.Rot.Weighted>
4.9073

> <Gold.Chemscore.Internal.Correction.Weighted>
   9.000000E+99

> <Gold.Protein.RotatedTorsions>
[ 6907 6896 6895 6894 ] final   72.75 input  -60.11 | X-H torsion
[ 7974 7965 7964 7962 ] final -150.80 input  175.53 | X-H torsion
[ 8008 7997 7996 7995 ] final  163.05 input   59.86 | X-H torsion
[ 10167 10162 10161 10158 ] final   29.38 input  -65.29 | X-H torsion
[ 10718 10713 10712 10709 ] final   45.42 input   66.30 | X-H torsion
[ 10763 10752 10751 10750 ] final  -33.08 input  -60.55 | X-H torsion
[ 11005 11000 10999 10996 ] final  149.97 input  -57.11 | X-H torsion

> <Gold.Protein.ActiveResidues>
 VAL166  LYS551  ARG553  GLY616  TRP617  ASP618  TYR619  PRO620  LYS621  CYS622 
 ASP623  PHE694  ASN695  SER759  ASP760  ASP761  ALA762  ILE779  LEU786  VAL792 
 PHE793  MET794  SER795  GLU796  ALA797  LYS798  CYS799  TRP800  GLU811  SER814 

> <Gold.Protein.RotatedAtoms>
  152.4885  134.4524  159.9578 H   0  0  0  0  0  0  0  0  0  0  0  0  # atno 6907 bound_to 6896
  151.4516  133.3610  159.2804 H   0  0  0  0  0  0  0  0  0  0  0  0  # atno 6908 bound_to 6896
  150.9018  134.8455  159.7425 H   0  0  0  0  0  0  0  0  0  0  0  0  # atno 6909 bound_to 6896
  144.7886  140.4883  143.5788 H   0  0  0  0  0  0  0  0  0  0  0  0  # atno 7974 bound_to 7965
  156.1986  140.1734  156.7946 H   0  0  0  0  0  0  0  0  0  0  0  0  # atno 8008 bound_to 7997
  154.5562  140.0708  156.8778 H   0  0  0  0  0  0  0  0  0  0  0  0  # atno 8009 bound_to 7997
  155.2934  140.3357  155.4253 H   0  0  0  0  0  0  0  0  0  0  0  0  # atno 8010 bound_to 7997
  140.4771  144.0673  150.6254 H   0  0  0  0  0  0  0  0  0  0  0  0  # atno 10167 bound_to 10162
  157.4374  130.8061  149.7661 H   0  0  0  0  0  0  0  0  0  0  0  0  # atno 10718 bound_to 10713
  153.8243  135.6871  153.4823 H   0  0  0  0  0  0  0  0  0  0  0  0  # atno 10763 bound_to 10752
  153.1550  135.4603  154.9689 H   0  0  0  0  0  0  0  0  0  0  0  0  # atno 10764 bound_to 10752
  154.7914  135.3303  154.7712 H   0  0  0  0  0  0  0  0  0  0  0  0  # atno 10765 bound_to 10752
  140.1090  134.8936  157.1909 H   0  0  0  0  0  0  0  0  0  0  0  0  # atno 11005 bound_to 11000
  145.5854  139.1492  143.3212 LP  0  0  0  0  0  0  0  0  0  0  0  0  # atno 17320 bound_to 7965
  146.2129  140.5982  142.9051 LP  0  0  0  0  0  0  0  0  0  0  0  0  # atno 17321 bound_to 7965
  140.3905  143.2755  152.0066 LP  0  0  0  0  0  0  0  0  0  0  0  0  # atno 17342 bound_to 10162
  139.4827  144.6081  151.7483 LP  0  0  0  0  0  0  0  0  0  0  0  0  # atno 17343 bound_to 10162
  155.9935  130.3923  150.2895 LP  0  0  0  0  0  0  0  0  0  0  0  0  # atno 17370 bound_to 10713
  157.1057  131.0208  151.3068 LP  0  0  0  0  0  0  0  0  0  0  0  0  # atno 17371 bound_to 10713
  140.3116  134.3017  155.7265 LP  0  0  0  0  0  0  0  0  0  0  0  0  # atno 17394 bound_to 11000
  141.2125  133.7654  156.9784 LP  0  0  0  0  0  0  0  0  0  0  0  0  # atno 17395 bound_to 11000

$$$$
