AV-unprocessed.smi:72|AV-procd|sdf|742|dock10
  -GOLD-   2262017 73D 1   1.00000     0.00000
 Structure written by MMmdl.
 28 29  0  0  0  0  0  0  0  0  2 V2000
  148.2926  136.6751  161.0356 N   0  0  0  0  0  0  0  0  0  0  0  0
  148.4723  136.7792  159.7919 C   0  0  0  0  0  0  0  0  0  0  0  0
  147.7818  137.8078  159.0446 N   0  0  0  0  0  0  0  0  0  0  0  0
  147.9816  137.8619  157.7636 C   0  0  0  0  0  0  0  0  0  0  0  0
  148.8567  136.9177  157.0819 N   0  0  0  0  0  0  0  0  0  0  0  0
  149.0968  136.9990  155.5896 C   0  0  1  0  0  0  0  0  0  0  0  0
  148.2981  138.0105  155.0444 O   0  0  0  0  0  0  0  0  0  0  0  0
  149.0762  138.8423  154.1892 C   0  0  1  0  0  0  0  0  0  0  0  0
  148.4630  140.2499  154.1344 C   0  0  0  0  0  0  0  0  0  0  0  0
  149.3501  141.1446  153.4977 O   0  0  0  0  0  0  0  0  0  0  0  0
  150.4530  138.8007  154.8524 C   0  0  2  0  0  0  0  0  0  0  0  0
  151.5025  139.2017  153.9916 O   0  0  0  0  0  0  0  0  0  0  0  0
  150.5660  137.3496  155.3049 C   0  0  2  0  0  0  0  0  0  0  0  0
  151.1022  136.5017  154.3060 O   0  0  0  0  0  0  0  0  0  0  0  0
  149.5504  135.9418  157.8452 C   0  0  0  0  0  0  0  0  0  0  0  0
  150.3249  135.1865  157.2570 O   0  0  0  0  0  0  0  0  0  0  0  0
  149.3381  135.8924  159.1901 N   0  5  0  0  0  0  0  0  0  0  0  0
  148.7774  136.0410  155.1759 H   0  0  0  0  0  0  0  0  0  0  0  0
  149.1317  138.3909  153.1965 H   0  0  0  0  0  0  0  0  0  0  0  0
  150.4529  139.4461  155.7322 H   0  0  0  0  0  0  0  0  0  0  0  0
  151.1787  137.2542  156.2027 H   0  0  0  0  0  0  0  0  0  0  0  0
  148.8283  135.9246  161.4466 H   0  0  0  0  0  0  0  0  0  0  0  0
  147.5158  138.6136  157.1257 H   0  0  0  0  0  0  0  0  0  0  0  0
  147.4990  140.2425  153.6247 H   0  0  0  0  0  0  0  0  0  0  0  0
  148.2924  140.6242  155.1440 H   0  0  0  0  0  0  0  0  0  0  0  0
  149.7096  140.7189  152.7345 H   0  0  0  0  0  0  0  0  0  0  0  0
  152.3127  138.8488  154.3259 H   0  0  0  0  0  0  0  0  0  0  0  0
  151.0632  136.9570  153.4784 H   0  0  0  0  0  0  0  0  0  0  0  0
  1  2  2  0  0  0  0
  1 22  1  0  0  0  0
  2 17  1  0  0  0  0
  2  3  1  0  0  0  0
  3  4  2  0  0  0  0
  4  5  1  0  0  0  0
  4 23  1  0  0  0  0
  5  6  1  0  0  0  0
  5 15  1  0  0  0  0
  6 18  1  0  0  0  0
  6 13  1  0  0  0  0
  6  7  1  0  0  0  0
  7  8  1  0  0  0  0
  8 19  1  0  0  0  0
  8  9  1  0  0  0  0
  8 11  1  0  0  0  0
  9 10  1  0  0  0  0
  9 24  1  0  0  0  0
  9 25  1  0  0  0  0
 10 26  1  0  0  0  0
 11 20  1  0  0  0  0
 11 12  1  0  0  0  0
 11 13  1  0  0  0  0
 12 27  1  0  0  0  0
 13 21  1  0  0  0  0
 13 14  1  0  0  0  0
 14 28  1  0  0  0  0
 15 16  2  0  0  0  0
 15 17  1  0  0  0  0
M  CHG  1  17  -1
M  END
> <s_m_source_file>
AV-unprocessed.smi

> <i_m_source_file_index>
72

> <i_lp_mmshare_version>
43012

> <i_f3d_flags>
0

> <s_epik_input>
W05IMl1jMW5bY0hdbihjKD1PKW4xKVtDQEBIXTJPW0NASF0oW0NIMl1bT0hdKVtDQEBIXShbT0hdKVtDQEhdMltPSF0=

> <s_epik_cmdline>
J2VwaWtfcHl0aG9uJywgJy1waCcsICc3LjAnLCAnLXRuJywgJzgnLCAnLW1hJywgJzIwMCcsICctbWV0YWxfYmluZGluZycsICctaW1hZScsICc8aW5maWxlLm1hZT4nLCAnLW9tYWUnLCAnPG91dGZpbGUubWFlPic=

> <r_lp_tautomer_probability>
7.17554e-07

> <r_epik_Ionization_Penalty>
12.8705

> <r_epik_Ionization_Penalty_Charging>
5.64144

> <r_epik_Ionization_Penalty_Neutral>
7.22905

> <r_epik_State_Penalty>
3.30104

> <r_epik_Charging_Adjusted_Penalty>
8.94249

> <i_epik_Tot_Q>
-1

> <i_epik_Tot_abs_Q>
1

> <r_epik_Metal_State_Penalty>
0.529074

> <b_epik_Metal_Only>
1

> <s_epik_Chemistry_Notes>
This compound contains an acetal/aminal-like group ( X-CH(R)-Y where X, Y are N, S, or O) that may be acid/base labile, releasing an aldehyde.

> <s_lp_Force_Field>
OPLS_2005

> <r_lp_Energy>
36.1714

> <b_lp_Chiralities_Consistent>
1

> <s_lp_Variant>
AV-unprocessed.smi:72-80

> <Gold.Version>
5.8.1

> <Gold.Id.Protein>
6NUR|6NUR_protein|mol2

> <Gold.PLP.Fitness>
39.3495

> <Gold.PLP.PLP>
-20.6340

> <Gold.PLP.part.hbond>
-10.1899

> <Gold.PLP.part.metal>
0.0000

> <Gold.PLP.part.buried>
0.2748

> <Gold.PLP.part.nonpolar>
-10.6258

> <Gold.PLP.part.repulsive>
0.0889

> <Gold.PLP.ligand.clash>
0.0000

> <Gold.PLP.ligand.torsion>
0.0615

> <Gold.PLP.Chemscore.Hbond>
6.2723

> <Gold.PLP.Chemscore.CHOScore>
0.0000

> <Gold.PLP.Chemscore.Metal>
0.0000

> <Gold.Chemscore.Hbonds>
donor molecule, donor type, donor heavy atom, donor atom, acceptor molecule, acceptor atom, score
      L1  H    10    26       P1  7957  1.00
      L1  H    14    28       P1  7949  0.27
      P1  H  6896  6908       L1    17  1.80
      P1  H  6931  6943       L1     1  1.00
      P1  H  6934  6947       L1     3  0.11
      P1  H  7989  7998       L1    12  0.98
      P1  H 10752 10763       L1    14  1.00

> <Gold.PLP.Chemscore.Internal.Correction>
0.0215

> <Gold.Rescore>
     Score         DG    S(hbond)    S(metal)    S(lipo)     H(rot)  DE(clash)    DE(int)     intcor
      6.86      -9.53       3.44        0.00      24.71       4.04       1.44       1.24       ----

> <Gold.Chemscore.Fitness>
6.8563

> <Gold.Chemscore.DG>
-9.5339

> <Gold.Chemscore.ZeroCoef>
-5.4800

> <Gold.Chemscore.Hbond>
3.4450

> <Gold.Chemscore.Metal>
0.0000

> <Gold.Chemscore.Lipo>
24.7081

> <Gold.Chemscore.Internal_Hbond>
0.0000

> <Gold.Chemscore.DEClash>
1.4425

> <Gold.Chemscore.DEInternal>
1.2351

> <Gold.Chemscore.Rot>
4.0403

> <Gold.Chemscore.Internal.Correction>
   9.000000E+99

> <Gold.Chemscore.Hbonds>
donor molecule, donor type, donor heavy atom, donor atom, acceptor molecule, acceptor atom, score
      L1  H    10    26       P1  7957  0.98
      L1  H    14    28       P1  7949  0.09
      P1  H  6896  6908       L1    17  0.18
      P1  H  6931  6943       L1     1  0.22
      P1  H  6934  6947       L1     3  0.01
      P1  H  7989  7998       L1    12  0.78
      P1  H 10752 10763       L1    14  0.28

> <Gold.Chemscore.Hbond.Weighted>
-11.5062

> <Gold.Chemscore.Metal.Weighted>
-0.0000

> <Gold.Chemscore.Lipo.Weighted>
-2.8908

> <Gold.Chemscore.Internal_Hbond.Weighted>
0.0000

> <Gold.Chemscore.DEClash.Weighted>
1.4425

> <Gold.Chemscore.DEInternal.Weighted>
1.2351

> <Gold.Chemscore.Rot.Weighted>
10.3431

> <Gold.Chemscore.Internal.Correction.Weighted>
   9.000000E+99

> <Gold.Protein.RotatedTorsions>
[ 6907 6896 6895 6894 ] final -177.92 input  -60.11 | X-H torsion
[ 7974 7965 7964 7962 ] final -123.84 input  175.53 | X-H torsion
[ 8008 7997 7996 7995 ] final   93.65 input   59.86 | X-H torsion
[ 10167 10162 10161 10158 ] final -151.09 input  -65.29 | X-H torsion
[ 10718 10713 10712 10709 ] final  -95.37 input   66.30 | X-H torsion
[ 10763 10752 10751 10750 ] final   36.50 input  -60.55 | X-H torsion
[ 11005 11000 10999 10996 ] final  156.50 input  -57.11 | X-H torsion

> <Gold.Protein.ActiveResidues>
 VAL166  LYS551  ARG553  GLY616  TRP617  ASP618  TYR619  PRO620  LYS621  CYS622 
 ASP623  PHE694  ASN695  SER759  ASP760  ASP761  ALA762  ILE779  LEU786  VAL792 
 PHE793  MET794  SER795  GLU796  ALA797  LYS798  CYS799  TRP800  GLU811  SER814 

> <Gold.Protein.RotatedAtoms>
  151.6288  133.3333  159.3103 H   0  0  0  0  0  0  0  0  0  0  0  0  # atno 6907 bound_to 6896
  150.8067  134.7201  159.6662 H   0  0  0  0  0  0  0  0  0  0  0  0  # atno 6908 bound_to 6896
  152.4163  134.6040  160.0059 H   0  0  0  0  0  0  0  0  0  0  0  0  # atno 6909 bound_to 6896
  145.0144  140.7934  143.4419 H   0  0  0  0  0  0  0  0  0  0  0  0  # atno 7974 bound_to 7965
  156.0491  140.3310  155.7331 H   0  0  0  0  0  0  0  0  0  0  0  0  # atno 8008 bound_to 7997
  155.5628  140.0620  157.2842 H   0  0  0  0  0  0  0  0  0  0  0  0  # atno 8009 bound_to 7997
  154.4427  140.1874  156.0788 H   0  0  0  0  0  0  0  0  0  0  0  0  # atno 8010 bound_to 7997
  139.7297  143.8827  152.2531 H   0  0  0  0  0  0  0  0  0  0  0  0  # atno 10167 bound_to 10162
  156.0042  130.5106  150.6066 H   0  0  0  0  0  0  0  0  0  0  0  0  # atno 10718 bound_to 10713
  153.0074  135.6304  154.1995 H   0  0  0  0  0  0  0  0  0  0  0  0  # atno 10763 bound_to 10752
  154.1739  135.2817  155.3074 H   0  0  0  0  0  0  0  0  0  0  0  0  # atno 10764 bound_to 10752
  154.5887  135.5624  153.7317 H   0  0  0  0  0  0  0  0  0  0  0  0  # atno 10765 bound_to 10752
  140.1681  134.8562  157.2657 H   0  0  0  0  0  0  0  0  0  0  0  0  # atno 11005 bound_to 11000
  145.1979  139.2267  143.5208 LP  0  0  0  0  0  0  0  0  0  0  0  0  # atno 17320 bound_to 7965
  146.3475  140.1790  142.8589 LP  0  0  0  0  0  0  0  0  0  0  0  0  # atno 17321 bound_to 7965
  139.8747  144.7050  150.8947 LP  0  0  0  0  0  0  0  0  0  0  0  0  # atno 17342 bound_to 10162
  140.7769  143.3709  151.1650 LP  0  0  0  0  0  0  0  0  0  0  0  0  # atno 17343 bound_to 10162
  157.3906  131.0795  151.1397 LP  0  0  0  0  0  0  0  0  0  0  0  0  # atno 17370 bound_to 10713
  157.2090  130.6429  149.5767 LP  0  0  0  0  0  0  0  0  0  0  0  0  # atno 17371 bound_to 10713
  140.2409  134.3796  155.7481 LP  0  0  0  0  0  0  0  0  0  0  0  0  # atno 17394 bound_to 11000
  141.2215  133.7265  156.8788 LP  0  0  0  0  0  0  0  0  0  0  0  0  # atno 17395 bound_to 11000

$$$$
