AV-unprocessed.smi:535|AV-procd|sdf|2858|dock6
  -GOLD-   2262023353D 1   1.00000     0.00000
 Structure written by MMmdl.
 46 48  0  0  0  0  0  0  0  0  1 V2000
  146.4055  142.6371  154.0828 C   0  0  0  0  0  0  0  0  0  0  0  0
  146.9807  142.2038  155.3028 O   0  0  0  0  0  0  0  0  0  0  0  0
  148.3105  141.7420  155.1401 C   0  0  0  0  0  0  0  0  0  0  0  0
  148.8478  141.2885  156.5020 C   0  0  0  0  0  0  0  0  0  0  0  0
  150.1741  140.6900  156.3797 N   0  0  0  0  0  0  0  0  0  0  0  0
  151.3207  141.0188  157.0377 C   0  0  0  0  0  0  0  0  0  0  0  0
  151.3721  142.0334  157.9957 N   0  0  0  0  0  0  0  0  0  0  0  0
  150.7987  143.3740  157.8786 C   0  0  0  0  0  0  0  0  0  0  0  0
  151.8364  144.4608  158.2080 C   0  0  0  0  0  0  0  0  0  0  0  0
  152.3921  144.2570  159.6239 C   0  0  0  0  0  0  0  0  0  0  0  0
  152.8967  142.8136  159.7978 C   0  0  1  0  0  0  0  0  0  0  0  0
  153.3733  142.5510  161.2326 C   0  0  0  0  0  0  0  0  0  0  0  0
  151.7990  141.8145  159.3770 C   0  0  0  0  0  0  0  0  0  0  0  0
  152.3992  140.3321  156.6501 N   0  0  0  0  0  0  0  0  0  0  0  0
  151.8992  139.4806  155.6780 C   0  0  0  0  0  0  0  0  0  0  0  0
  150.5717  139.6908  155.4883 C   0  0  0  0  0  0  0  0  0  0  0  0
  149.7998  138.9625  154.4710 C   0  0  0  0  0  0  0  0  0  0  0  0
  148.6041  139.1514  154.2594 O   0  0  0  0  0  0  0  0  0  0  0  0
  150.5445  138.0675  153.7773 N   0  0  0  0  0  0  0  0  0  0  0  0
  151.8782  137.8029  153.9248 C   0  0  0  0  0  0  0  0  0  0  0  0
  152.4213  136.9623  153.2081 O   0  0  0  0  0  0  0  0  0  0  0  0
  152.5643  138.5047  154.8826 N   0  0  0  0  0  0  0  0  0  0  0  0
  153.9956  138.2695  155.0834 C   0  0  0  0  0  0  0  0  0  0  0  0
  150.0610  137.5408  153.0645 H   0  0  0  0  0  0  0  0  0  0  0  0
  145.3865  142.9808  154.2597 H   0  0  0  0  0  0  0  0  0  0  0  0
  146.3656  141.8251  153.3555 H   0  0  0  0  0  0  0  0  0  0  0  0
  146.9704  143.4653  153.6526 H   0  0  0  0  0  0  0  0  0  0  0  0
  148.3380  140.9139  154.4299 H   0  0  0  0  0  0  0  0  0  0  0  0
  148.9341  142.5424  154.7387 H   0  0  0  0  0  0  0  0  0  0  0  0
  148.8790  142.1274  157.1898 H   0  0  0  0  0  0  0  0  0  0  0  0
  148.1643  140.5800  156.9656 H   0  0  0  0  0  0  0  0  0  0  0  0
  150.3777  143.5249  156.8853 H   0  0  0  0  0  0  0  0  0  0  0  0
  149.9553  143.4533  158.5658 H   0  0  0  0  0  0  0  0  0  0  0  0
  152.6530  144.4306  157.4860 H   0  0  0  0  0  0  0  0  0  0  0  0
  151.3837  145.4489  158.1231 H   0  0  0  0  0  0  0  0  0  0  0  0
  153.1954  144.9687  159.8175 H   0  0  0  0  0  0  0  0  0  0  0  0
  151.6079  144.4638  160.3535 H   0  0  0  0  0  0  0  0  0  0  0  0
  153.7524  142.6723  159.1357 H   0  0  0  0  0  0  0  0  0  0  0  0
  152.5578  142.6614  161.9481 H   0  0  0  0  0  0  0  0  0  0  0  0
  154.1632  143.2466  161.5171 H   0  0  0  0  0  0  0  0  0  0  0  0
  153.7713  141.5410  161.3342 H   0  0  0  0  0  0  0  0  0  0  0  0
  150.9354  141.8923  160.0391 H   0  0  0  0  0  0  0  0  0  0  0  0
  152.1766  140.7964  159.4801 H   0  0  0  0  0  0  0  0  0  0  0  0
  154.2131  137.2027  155.1558 H   0  0  0  0  0  0  0  0  0  0  0  0
  154.3675  138.7315  155.9979 H   0  0  0  0  0  0  0  0  0  0  0  0
  154.5655  138.6787  154.2486 H   0  0  0  0  0  0  0  0  0  0  0  0
  1  2  1  0  0  0  0
  1 25  1  0  0  0  0
  1 26  1  0  0  0  0
  1 27  1  0  0  0  0
  2  3  1  0  0  0  0
  3  4  1  0  0  0  0
  3 28  1  0  0  0  0
  3 29  1  0  0  0  0
  4  5  1  0  0  0  0
  4 30  1  0  0  0  0
  4 31  1  0  0  0  0
  5 16  1  0  0  0  0
  5  6  1  0  0  0  0
  6  7  1  0  0  0  0
  6 14  2  0  0  0  0
  7 13  1  0  0  0  0
  7  8  1  0  0  0  0
  8  9  1  0  0  0  0
  8 32  1  0  0  0  0
  8 33  1  0  0  0  0
  9 10  1  0  0  0  0
  9 34  1  0  0  0  0
  9 35  1  0  0  0  0
 10 11  1  0  0  0  0
 10 36  1  0  0  0  0
 10 37  1  0  0  0  0
 11 12  1  0  0  0  0
 11 13  1  0  0  0  0
 11 38  1  0  0  0  0
 12 39  1  0  0  0  0
 12 40  1  0  0  0  0
 12 41  1  0  0  0  0
 13 42  1  0  0  0  0
 13 43  1  0  0  0  0
 14 15  1  0  0  0  0
 15 22  1  0  0  0  0
 15 16  2  0  0  0  0
 16 17  1  0  0  0  0
 17 18  2  0  0  0  0
 17 19  1  0  0  0  0
 19 24  1  0  0  0  0
 19 20  1  0  0  0  0
 20 21  2  0  0  0  0
 20 22  1  0  0  0  0
 22 23  1  0  0  0  0
 23 44  1  0  0  0  0
 23 45  1  0  0  0  0
 23 46  1  0  0  0  0
M  END
> <s_m_source_file>
AV-unprocessed.smi

> <i_m_source_file_index>
535

> <i_lp_mmshare_version>
43012

> <i_f3d_flags>
0

> <s_epik_input>
W0NIM11uMWMoPU8pW25IXWMoPU8pYyhjMTIpbihbQ0gyXVtDSDJdT1tDSDNdKWMobjIpTjNbQ0gyXVtDSDJdW0NIMl1bQ0BASF0oW0NIM10pW0NIMl0z

> <s_epik_cmdline>
J2VwaWtfcHl0aG9uJywgJy1waCcsICc3LjAnLCAnLXRuJywgJzgnLCAnLW1hJywgJzIwMCcsICctbWV0YWxfYmluZGluZycsICctaW1hZScsICc8aW5maWxlLm1hZT4nLCAnLW9tYWUnLCAnPG91dGZpbGUubWFlPic=

> <r_lp_tautomer_probability>
1

> <r_epik_Ionization_Penalty>
0.00042181

> <r_epik_Ionization_Penalty_Charging>
0.000122112

> <r_epik_Ionization_Penalty_Neutral>
0.000299698

> <r_epik_State_Penalty>
-0

> <r_epik_Charging_Adjusted_Penalty>
0.000122112

> <i_epik_Tot_Q>
0

> <i_epik_Tot_abs_Q>
0

> <r_epik_Metal_State_Penalty>
0.0934894

> <b_epik_Metal_Only>
0

> <s_lp_Force_Field>
OPLS_2005

> <r_lp_Energy>
38.8925

> <b_lp_Chiralities_Consistent>
1

> <s_lp_Variant>
AV-unprocessed.smi:535-1

> <Gold.Version>
5.8.1

> <Gold.Id.Protein>
6NUR|6NUR_protein|mol2

> <Gold.PLP.Fitness>
47.4575

> <Gold.PLP.PLP>
-40.1010

> <Gold.PLP.part.hbond>
-3.3326

> <Gold.PLP.part.metal>
0.0000

> <Gold.PLP.part.buried>
3.0855

> <Gold.PLP.part.nonpolar>
-45.7556

> <Gold.PLP.part.repulsive>
6.0424

> <Gold.PLP.ligand.clash>
0.0000

> <Gold.PLP.ligand.torsion>
1.0417

> <Gold.PLP.Chemscore.Hbond>
2.9913

> <Gold.PLP.Chemscore.CHOScore>
0.0000

> <Gold.PLP.Chemscore.Metal>
0.0000

> <Gold.Chemscore.Hbonds>
donor molecule, donor type, donor heavy atom, donor atom, acceptor molecule, acceptor atom, score
      L1  H    19    24       P1  7948  0.88
      P1  H  7997  8010       L1    14  0.99
      P1  H 10752 10763       L1    21  1.00

> <Gold.PLP.Chemscore.Internal.Correction>
0.4661

> <Gold.Rescore>
     Score         DG    S(hbond)    S(metal)    S(lipo)     H(rot)  DE(clash)    DE(int)     intcor
     14.24     -20.77       2.21        0.00      99.53       1.46       4.26       2.27       ----

> <Gold.Chemscore.Fitness>
14.2377

> <Gold.Chemscore.DG>
-20.7688

> <Gold.Chemscore.ZeroCoef>
-5.4800

> <Gold.Chemscore.Hbond>
2.2069

> <Gold.Chemscore.Metal>
0.0000

> <Gold.Chemscore.Lipo>
99.5250

> <Gold.Chemscore.Internal_Hbond>
0.0000

> <Gold.Chemscore.DEClash>
4.2582

> <Gold.Chemscore.DEInternal>
2.2728

> <Gold.Chemscore.Rot>
1.4557

> <Gold.Chemscore.Internal.Correction>
   9.000000E+99

> <Gold.Chemscore.Hbonds>
donor molecule, donor type, donor heavy atom, donor atom, acceptor molecule, acceptor atom, score
      L1  H    19    24       P1  7948  0.16
      P1  H  7997  8010       L1    14  0.46
      P1  H 10752 10763       L1    21  0.94

> <Gold.Chemscore.Hbond.Weighted>
-7.3711

> <Gold.Chemscore.Metal.Weighted>
-0.0000

> <Gold.Chemscore.Lipo.Weighted>
-11.6444

> <Gold.Chemscore.Internal_Hbond.Weighted>
0.0000

> <Gold.Chemscore.DEClash.Weighted>
4.2582

> <Gold.Chemscore.DEInternal.Weighted>
2.2728

> <Gold.Chemscore.Rot.Weighted>
3.7267

> <Gold.Chemscore.Internal.Correction.Weighted>
   9.000000E+99

> <Gold.Protein.RotatedTorsions>
[ 6907 6896 6895 6894 ] final  104.08 input  -60.11 | X-H torsion
[ 7974 7965 7964 7962 ] final  -42.67 input  175.53 | X-H torsion
[ 8008 7997 7996 7995 ] final   65.43 input   59.86 | X-H torsion
[ 10167 10162 10161 10158 ] final   20.68 input  -65.29 | X-H torsion
[ 10718 10713 10712 10709 ] final  -21.99 input   66.30 | X-H torsion
[ 10763 10752 10751 10750 ] final   -2.27 input  -60.55 | X-H torsion
[ 11005 11000 10999 10996 ] final   75.34 input  -57.11 | X-H torsion

> <Gold.Protein.ActiveResidues>
 VAL166  LYS551  ARG553  GLY616  TRP617  ASP618  TYR619  PRO620  LYS621  CYS622 
 ASP623  PHE694  ASN695  SER759  ASP760  ASP761  ALA762  ILE779  LEU786  VAL792 
 PHE793  MET794  SER795  GLU796  ALA797  LYS798  CYS799  TRP800  GLU811  SER814 

> <Gold.Protein.RotatedAtoms>
  152.5276  133.9730  159.7770 H   0  0  0  0  0  0  0  0  0  0  0  0  # atno 6907 bound_to 6896
  150.9998  133.6059  159.2703 H   0  0  0  0  0  0  0  0  0  0  0  0  # atno 6908 bound_to 6896
  151.3172  135.0815  159.9346 H   0  0  0  0  0  0  0  0  0  0  0  0  # atno 6909 bound_to 6896
  146.0093  140.6982  142.9232 H   0  0  0  0  0  0  0  0  0  0  0  0  # atno 7974 bound_to 7965
  155.6616  140.3497  155.4785 H   0  0  0  0  0  0  0  0  0  0  0  0  # atno 8008 bound_to 7997
  155.9763  140.1166  157.0789 H   0  0  0  0  0  0  0  0  0  0  0  0  # atno 8009 bound_to 7997
  154.4179  140.1147  156.5361 H   0  0  0  0  0  0  0  0  0  0  0  0  # atno 8010 bound_to 7997
  140.5485  143.9551  150.6563 H   0  0  0  0  0  0  0  0  0  0  0  0  # atno 10167 bound_to 10162
  156.5107  130.4609  149.6650 H   0  0  0  0  0  0  0  0  0  0  0  0  # atno 10718 bound_to 10713
  153.3559  135.6988  153.6751 H   0  0  0  0  0  0  0  0  0  0  0  0  # atno 10763 bound_to 10752
  153.5459  135.3563  155.2739 H   0  0  0  0  0  0  0  0  0  0  0  0  # atno 10764 bound_to 10752
  154.8660  135.4215  154.2805 H   0  0  0  0  0  0  0  0  0  0  0  0  # atno 10765 bound_to 10752
  139.9348  134.7509  156.1259 H   0  0  0  0  0  0  0  0  0  0  0  0  # atno 11005 bound_to 11000
  144.6947  140.3371  143.7206 LP  0  0  0  0  0  0  0  0  0  0  0  0  # atno 17320 bound_to 7965
  145.7366  139.1752  143.2400 LP  0  0  0  0  0  0  0  0  0  0  0  0  # atno 17321 bound_to 7965
  140.2970  143.3285  152.1008 LP  0  0  0  0  0  0  0  0  0  0  0  0  # atno 17342 bound_to 10162
  139.5017  144.6720  151.6220 LP  0  0  0  0  0  0  0  0  0  0  0  0  # atno 17343 bound_to 10162
  156.3243  130.7297  151.2215 LP  0  0  0  0  0  0  0  0  0  0  0  0  # atno 17370 bound_to 10713
  157.7451  131.0447  150.4806 LP  0  0  0  0  0  0  0  0  0  0  0  0  # atno 17371 bound_to 10713
  141.0956  133.6697  156.2638 LP  0  0  0  0  0  0  0  0  0  0  0  0  # atno 17394 bound_to 11000
  140.6105  134.5464  157.5532 LP  0  0  0  0  0  0  0  0  0  0  0  0  # atno 17395 bound_to 11000

$$$$
