AV-unprocessed.smi:1976|AV-procd|sdf|7985|dock5
  -GOLD-   2272010163D 1   1.00000     0.00000
 Structure written by MMmdl.
 45 47  0  0  0  0  0  0  0  0  2 V2000
  149.8696  139.6134  157.7368 O   0  0  0  0  0  0  0  0  0  0  0  0
  150.1994  140.0762  156.6442 C   0  0  0  0  0  0  0  0  0  0  0  0
  151.3471  141.0892  156.5305 C   0  0  0  0  0  0  0  0  0  0  0  0
  151.8573  141.5274  157.8401 N   0  0  0  0  0  0  0  0  0  0  0  0
  151.4696  142.8109  158.2717 C   0  0  0  0  0  0  0  0  0  0  0  0
  151.8425  143.3303  159.4567 C   0  0  0  0  0  0  0  0  0  0  0  0
  151.4389  144.7370  159.8702 C   0  0  0  0  0  0  0  0  0  0  0  0
  151.9923  145.6527  159.0748 F   0  0  0  0  0  0  0  0  0  0  0  0
  150.1146  144.8866  159.8239 F   0  0  0  0  0  0  0  0  0  0  0  0
  151.8377  144.9737  161.1192 F   0  0  0  0  0  0  0  0  0  0  0  0
  152.7100  142.5078  160.2769 C   0  0  0  0  0  0  0  0  0  0  0  0
  153.0927  141.2790  159.8778 C   0  0  0  0  0  0  0  0  0  0  0  0
  152.6545  140.7166  158.5983 C   0  0  0  0  0  0  0  0  0  0  0  0
  152.9825  139.5880  158.2321 O   0  0  0  0  0  0  0  0  0  0  0  0
  149.6008  139.7336  155.4932 N   0  0  0  0  0  0  0  0  0  0  0  0
  148.4779  138.8085  155.3715 C   0  0  2  0  0  0  0  0  0  0  0  0
  148.7706  137.4313  155.9556 C   0  0  0  0  0  0  0  0  0  0  0  0
  147.7038  136.5624  155.2862 C   0  0  0  0  0  0  0  0  0  0  0  0
  147.4901  137.1408  153.9392 N   0  3  1  0  0  0  0  0  0  0  0  0
  146.0864  137.0865  153.4625 C   0  0  0  0  0  0  0  0  0  0  0  0
  145.9643  137.6806  152.0464 C   0  0  0  0  0  0  0  0  0  0  0  0
  146.6651  139.0469  151.8984 C   0  0  0  0  0  0  0  0  0  0  0  0
  147.2349  139.5580  153.2299 C   0  0  0  0  0  0  0  0  0  0  0  0
  148.1237  138.4898  153.9082 C   0  0  1  0  0  0  0  0  0  0  0  0
  152.1396  140.6485  155.9235 H   0  0  0  0  0  0  0  0  0  0  0  0
  151.0060  141.9569  155.9634 H   0  0  0  0  0  0  0  0  0  0  0  0
  150.8400  143.3466  157.5758 H   0  0  0  0  0  0  0  0  0  0  0  0
  153.0566  142.8794  161.2299 H   0  0  0  0  0  0  0  0  0  0  0  0
  153.7373  140.6924  160.5160 H   0  0  0  0  0  0  0  0  0  0  0  0
  149.9441  140.1515  154.6403 H   0  0  0  0  0  0  0  0  0  0  0  0
  147.6017  139.2096  155.8859 H   0  0  0  0  0  0  0  0  0  0  0  0
  149.7657  137.0937  155.6608 H   0  0  0  0  0  0  0  0  0  0  0  0
  148.7129  137.4081  157.0444 H   0  0  0  0  0  0  0  0  0  0  0  0
  147.9961  135.5137  155.2269 H   0  0  0  0  0  0  0  0  0  0  0  0
  146.7811  136.6179  155.8665 H   0  0  0  0  0  0  0  0  0  0  0  0
  145.7404  136.0522  153.4633 H   0  0  0  0  0  0  0  0  0  0  0  0
  145.4436  137.6325  154.1551 H   0  0  0  0  0  0  0  0  0  0  0  0
  146.3901  136.9835  151.3238 H   0  0  0  0  0  0  0  0  0  0  0  0
  144.9098  137.7748  151.7853 H   0  0  0  0  0  0  0  0  0  0  0  0
  147.4785  138.9552  151.1775 H   0  0  0  0  0  0  0  0  0  0  0  0
  145.9754  139.7815  151.4818 H   0  0  0  0  0  0  0  0  0  0  0  0
  147.8075  140.4696  153.0574 H   0  0  0  0  0  0  0  0  0  0  0  0
  146.4127  139.8382  153.8897 H   0  0  0  0  0  0  0  0  0  0  0  0
  149.0426  138.3755  153.3307 H   0  0  0  0  0  0  0  0  0  0  0  0
  148.0268  136.5774  153.2953 H   0  0  0  0  0  0  0  0  0  0  0  0
  1  2  2  0  0  0  0
  2  3  1  0  0  0  0
  2 15  1  0  0  0  0
  3  4  1  0  0  0  0
  3 25  1  0  0  0  0
  3 26  1  0  0  0  0
  4 13  1  0  0  0  0
  4  5  1  0  0  0  0
  5  6  2  0  0  0  0
  5 27  1  0  0  0  0
  6  7  1  0  0  0  0
  6 11  1  0  0  0  0
  7  8  1  0  0  0  0
  7  9  1  0  0  0  0
  7 10  1  0  0  0  0
 11 12  2  0  0  0  0
 11 28  1  0  0  0  0
 12 13  1  0  0  0  0
 12 29  1  0  0  0  0
 13 14  2  0  0  0  0
 15 16  1  0  0  0  0
 15 30  1  0  0  0  0
 16 24  1  0  0  0  0
 16 17  1  0  0  0  0
 16 31  1  0  0  0  0
 17 18  1  0  0  0  0
 17 32  1  0  0  0  0
 17 33  1  0  0  0  0
 18 19  1  0  0  0  0
 18 34  1  0  0  0  0
 18 35  1  0  0  0  0
 19 24  1  0  0  0  0
 19 20  1  0  0  0  0
 19 45  1  0  0  0  0
 20 21  1  0  0  0  0
 20 36  1  0  0  0  0
 20 37  1  0  0  0  0
 21 22  1  0  0  0  0
 21 38  1  0  0  0  0
 21 39  1  0  0  0  0
 22 23  1  0  0  0  0
 22 40  1  0  0  0  0
 22 41  1  0  0  0  0
 23 24  1  0  0  0  0
 23 42  1  0  0  0  0
 23 43  1  0  0  0  0
 24 44  1  0  0  0  0
M  CHG  1  19   1
M  END
> <s_m_source_file>
AV-unprocessed.smi

> <i_m_source_file_index>
1976

> <i_lp_mmshare_version>
43012

> <i_f3d_flags>
0

> <s_epik_input>
W0NIMl0xW0NIMl1bQ0gyXVtDSDJdW0NASF0oTjEyKVtDQEBIXShbQ0gyXVtDSDJdMilbTkhdQyg9TylbQ0gyXW4zW2NIXWMoQyhGKShGKUYpW2NIXVtjSF1jMz1P

> <s_epik_cmdline>
J2VwaWtfcHl0aG9uJywgJy1waCcsICc3LjAnLCAnLXRuJywgJzgnLCAnLW1hJywgJzIwMCcsICctbWV0YWxfYmluZGluZycsICctaW1hZScsICc8aW5maWxlLm1hZT4nLCAnLW9tYWUnLCAnPG91dGZpbGUubWFlPic=

> <r_lp_tautomer_probability>
1

> <r_epik_Ionization_Penalty>
0.00171506

> <r_epik_Ionization_Penalty_Charging>
0.00171498

> <r_epik_Ionization_Penalty_Neutral>
7.81737e-08

> <r_epik_State_Penalty>
0.00115937

> <r_epik_Charging_Adjusted_Penalty>
0.00287436

> <i_epik_Tot_Q>
1

> <i_epik_Tot_abs_Q>
1

> <r_epik_Metal_State_Penalty>
-0

> <b_epik_Metal_Only>
0

> <s_lp_Force_Field>
OPLS_2005

> <r_lp_Energy>
51.6

> <b_lp_Chiralities_Consistent>
1

> <s_lp_Variant>
AV-unprocessed.smi:1976-3

> <Gold.Version>
5.8.1

> <Gold.Id.Protein>
6NUR|6NUR_protein|mol2

> <Gold.PLP.Fitness>
50.4337

> <Gold.PLP.PLP>
-42.2933

> <Gold.PLP.part.hbond>
-2.0000

> <Gold.PLP.part.metal>
0.0000

> <Gold.PLP.part.buried>
0.8547

> <Gold.PLP.part.nonpolar>
-40.7210

> <Gold.PLP.part.repulsive>
0.0539

> <Gold.PLP.ligand.clash>
0.0765

> <Gold.PLP.ligand.torsion>
0.4093

> <Gold.PLP.Chemscore.Hbond>
3.0000

> <Gold.PLP.Chemscore.CHOScore>
0.0000

> <Gold.PLP.Chemscore.Metal>
0.0000

> <Gold.Chemscore.Hbonds>
donor molecule, donor type, donor heavy atom, donor atom, acceptor molecule, acceptor atom, score
      L1  H    19    45       P1  7948  2.00
      P1  H  7997  8010       L1    14  0.93

> <Gold.PLP.Chemscore.Internal.Correction>
0.0355

> <Gold.Rescore>
     Score         DG    S(hbond)    S(metal)    S(lipo)     H(rot)  DE(clash)    DE(int)     intcor
     16.05     -16.93       1.30        0.00      95.46       1.58       0.37       0.51       ----

> <Gold.Chemscore.Fitness>
16.0459

> <Gold.Chemscore.DG>
-16.9294

> <Gold.Chemscore.ZeroCoef>
-5.4800

> <Gold.Chemscore.Hbond>
1.2973

> <Gold.Chemscore.Metal>
0.0000

> <Gold.Chemscore.Lipo>
95.4608

> <Gold.Chemscore.Internal_Hbond>
0.0000

> <Gold.Chemscore.DEClash>
0.3722

> <Gold.Chemscore.DEInternal>
0.5114

> <Gold.Chemscore.Rot>
1.5830

> <Gold.Chemscore.Internal.Correction>
   9.000000E+99

> <Gold.Chemscore.Hbonds>
donor molecule, donor type, donor heavy atom, donor atom, acceptor molecule, acceptor atom, score
      L1  H    19    45       P1  7948  0.99
      P1  H  7997  8010       L1    14  0.23

> <Gold.Chemscore.Hbond.Weighted>
-4.3329

> <Gold.Chemscore.Metal.Weighted>
-0.0000

> <Gold.Chemscore.Lipo.Weighted>
-11.1689

> <Gold.Chemscore.Internal_Hbond.Weighted>
0.0000

> <Gold.Chemscore.DEClash.Weighted>
0.3722

> <Gold.Chemscore.DEInternal.Weighted>
0.5114

> <Gold.Chemscore.Rot.Weighted>
4.0524

> <Gold.Chemscore.Internal.Correction.Weighted>
   9.000000E+99

> <Gold.Protein.RotatedTorsions>
[ 6907 6896 6895 6894 ] final   14.64 input  -60.11 | X-H torsion
[ 7974 7965 7964 7962 ] final   24.64 input  175.53 | X-H torsion
[ 8008 7997 7996 7995 ] final   40.97 input   59.86 | X-H torsion
[ 10167 10162 10161 10158 ] final   67.02 input  -65.29 | X-H torsion
[ 10718 10713 10712 10709 ] final  -54.64 input   66.30 | X-H torsion
[ 10763 10752 10751 10750 ] final   21.35 input  -60.55 | X-H torsion
[ 11005 11000 10999 10996 ] final -165.23 input  -57.11 | X-H torsion

> <Gold.Protein.ActiveResidues>
 VAL166  LYS551  ARG553  GLY616  TRP617  ASP618  TYR619  PRO620  LYS621  CYS622 
 ASP623  PHE694  ASN695  SER759  ASP760  ASP761  ALA762  ILE779  LEU786  VAL792 
 PHE793  MET794  SER795  GLU796  ALA797  LYS798  CYS799  TRP800  GLU811  SER814 

> <Gold.Protein.RotatedAtoms>
  151.8055  135.0696  160.0405 H   0  0  0  0  0  0  0  0  0  0  0  0  # atno 6907 bound_to 6896
  152.3058  133.5697  159.5657 H   0  0  0  0  0  0  0  0  0  0  0  0  # atno 6908 bound_to 6896
  150.7295  134.0140  159.3721 H   0  0  0  0  0  0  0  0  0  0  0  0  # atno 6909 bound_to 6896
  146.1928  139.7576  142.8819 H   0  0  0  0  0  0  0  0  0  0  0  0  # atno 7974 bound_to 7965
  155.2618  140.3360  155.4272 H   0  0  0  0  0  0  0  0  0  0  0  0  # atno 8008 bound_to 7997
  156.2171  140.1793  156.7606 H   0  0  0  0  0  0  0  0  0  0  0  0  # atno 8009 bound_to 7997
  154.5770  140.0660  156.9033 H   0  0  0  0  0  0  0  0  0  0  0  0  # atno 8010 bound_to 7997
  140.0941  144.4962  150.7080 H   0  0  0  0  0  0  0  0  0  0  0  0  # atno 10167 bound_to 10162
  156.1434  130.4153  150.0065 H   0  0  0  0  0  0  0  0  0  0  0  0  # atno 10718 bound_to 10713
  153.1002  135.6670  153.9687 H   0  0  0  0  0  0  0  0  0  0  0  0  # atno 10763 bound_to 10752
  153.9259  135.3009  155.3448 H   0  0  0  0  0  0  0  0  0  0  0  0  # atno 10764 bound_to 10752
  154.7423  135.5074  153.9218 H   0  0  0  0  0  0  0  0  0  0  0  0  # atno 10765 bound_to 10752
  140.5780  134.5170  157.5173 H   0  0  0  0  0  0  0  0  0  0  0  0  # atno 11005 bound_to 11000
  145.3740  141.0347  143.3215 LP  0  0  0  0  0  0  0  0  0  0  0  0  # atno 17320 bound_to 7965
  144.8519  139.5308  143.6852 LP  0  0  0  0  0  0  0  0  0  0  0  0  # atno 17321 bound_to 7965
  140.7013  143.2437  151.4856 LP  0  0  0  0  0  0  0  0  0  0  0  0  # atno 17342 bound_to 10162
  139.5708  144.1933  152.1834 LP  0  0  0  0  0  0  0  0  0  0  0  0  # atno 17343 bound_to 10162
  156.7943  130.9267  151.3646 LP  0  0  0  0  0  0  0  0  0  0  0  0  # atno 17370 bound_to 10713
  157.6596  130.8954  149.9801 LP  0  0  0  0  0  0  0  0  0  0  0  0  # atno 17371 bound_to 10713
  139.9330  134.7927  156.0878 LP  0  0  0  0  0  0  0  0  0  0  0  0  # atno 17394 bound_to 11000
  141.1014  133.6676  156.2763 LP  0  0  0  0  0  0  0  0  0  0  0  0  # atno 17395 bound_to 11000

$$$$
