AV-unprocessed.smi:1489|AV-procd|sdf|6026|dock8
  -GOLD-   22720 6123D 1   1.00000     0.00000
 Structure written by MMmdl.
 46 48  0  0  0  0  0  0  0  0  1 V2000
  146.1744  138.8840  154.0916 O   0  0  0  0  0  0  0  0  0  0  0  0
  147.0524  138.3123  153.4467 C   0  0  0  0  0  0  0  0  0  0  0  0
  148.3747  138.5290  153.5564 N   0  0  0  0  0  0  0  0  0  0  0  0
  149.0794  139.4372  154.3946 C   0  0  0  0  0  0  0  0  0  0  0  0
  148.6719  140.7606  154.6865 C   0  0  0  0  0  0  0  0  0  0  0  0
  149.4745  141.5517  155.5307 C   0  0  0  0  0  0  0  0  0  0  0  0
  150.6680  141.0072  156.0603 C   0  0  0  0  0  0  0  0  0  0  0  0
  151.4961  141.7650  156.9122 N   0  0  0  0  0  0  0  0  0  0  0  0
  151.2172  143.1617  157.2089 C   0  0  0  0  0  0  0  0  0  0  0  0
  152.2529  143.5468  158.2639 C   0  0  0  0  0  0  0  0  0  0  0  0
  152.4594  142.2449  159.0377 C   0  0  0  0  0  0  0  0  0  0  0  0
  152.2645  141.1478  157.9848 C   0  0  0  0  0  0  0  0  0  0  0  0
  151.0545  139.7398  155.7828 N   0  0  0  0  0  0  0  0  0  0  0  0
  150.2825  138.9859  154.9732 C   0  0  0  0  0  0  0  0  0  0  0  0
  146.7960  137.3704  152.5275 N   0  0  0  0  0  0  0  0  0  0  0  0
  145.4679  136.8905  152.1567 C   0  0  2  0  0  0  0  0  0  0  0  0
  144.6704  136.5475  153.4281 C   0  0  0  0  0  0  0  0  0  0  0  0
  143.2772  135.9889  153.0881 C   0  0  0  0  0  0  0  0  0  0  0  0
  143.3499  134.7798  152.1369 C   0  0  2  0  0  0  0  0  0  0  0  0
  143.8942  133.6638  152.8133 O   0  0  0  0  0  0  0  0  0  0  0  0
  144.1852  135.0962  150.8819 C   0  0  0  0  0  0  0  0  0  0  0  0
  145.5731  135.6618  151.2308 C   0  0  0  0  0  0  0  0  0  0  0  0
  148.9597  137.9576  152.9645 H   0  0  0  0  0  0  0  0  0  0  0  0
  147.7697  141.1941  154.2869 H   0  0  0  0  0  0  0  0  0  0  0  0
  149.1610  142.5585  155.7628 H   0  0  0  0  0  0  0  0  0  0  0  0
  151.2961  143.7872  156.3192 H   0  0  0  0  0  0  0  0  0  0  0  0
  150.2069  143.2545  157.6094 H   0  0  0  0  0  0  0  0  0  0  0  0
  153.1852  143.8382  157.7783 H   0  0  0  0  0  0  0  0  0  0  0  0
  151.9278  144.3737  158.8958 H   0  0  0  0  0  0  0  0  0  0  0  0
  153.4309  142.1915  159.5296 H   0  0  0  0  0  0  0  0  0  0  0  0
  151.6899  142.1536  159.8056 H   0  0  0  0  0  0  0  0  0  0  0  0
  151.7567  140.2834  158.4136 H   0  0  0  0  0  0  0  0  0  0  0  0
  153.2248  140.8196  157.5858 H   0  0  0  0  0  0  0  0  0  0  0  0
  150.6402  137.9846  154.7825 H   0  0  0  0  0  0  0  0  0  0  0  0
  147.5785  136.9520  152.0461 H   0  0  0  0  0  0  0  0  0  0  0  0
  144.9371  137.6856  151.6292 H   0  0  0  0  0  0  0  0  0  0  0  0
  145.2192  135.8169  154.0243 H   0  0  0  0  0  0  0  0  0  0  0  0
  144.5641  137.4354  154.0527 H   0  0  0  0  0  0  0  0  0  0  0  0
  142.7474  135.7192  154.0027 H   0  0  0  0  0  0  0  0  0  0  0  0
  142.6872  136.7760  152.6172 H   0  0  0  0  0  0  0  0  0  0  0  0
  142.3394  134.5048  151.8325 H   0  0  0  0  0  0  0  0  0  0  0  0
  143.2125  133.2653  153.3327 H   0  0  0  0  0  0  0  0  0  0  0  0
  144.2886  134.2056  150.2607 H   0  0  0  0  0  0  0  0  0  0  0  0
  143.6501  135.8278  150.2752 H   0  0  0  0  0  0  0  0  0  0  0  0
  146.0971  135.9271  150.3116 H   0  0  0  0  0  0  0  0  0  0  0  0
  146.1722  134.8870  151.7115 H   0  0  0  0  0  0  0  0  0  0  0  0
  1  2  2  0  0  0  0
  2  3  1  0  0  0  0
  2 15  1  0  0  0  0
  3  4  1  0  0  0  0
  3 23  1  0  0  0  0
  4 14  1  0  0  0  0
  4  5  2  0  0  0  0
  5  6  1  0  0  0  0
  5 24  1  0  0  0  0
  6  7  2  0  0  0  0
  6 25  1  0  0  0  0
  7  8  1  0  0  0  0
  7 13  1  0  0  0  0
  8 12  1  0  0  0  0
  8  9  1  0  0  0  0
  9 10  1  0  0  0  0
  9 26  1  0  0  0  0
  9 27  1  0  0  0  0
 10 11  1  0  0  0  0
 10 28  1  0  0  0  0
 10 29  1  0  0  0  0
 11 12  1  0  0  0  0
 11 30  1  0  0  0  0
 11 31  1  0  0  0  0
 12 32  1  0  0  0  0
 12 33  1  0  0  0  0
 13 14  2  0  0  0  0
 14 34  1  0  0  0  0
 15 16  1  0  0  0  0
 15 35  1  0  0  0  0
 16 22  1  0  0  0  0
 16 17  1  0  0  0  0
 16 36  1  0  0  0  0
 17 18  1  0  0  0  0
 17 37  1  0  0  0  0
 17 38  1  0  0  0  0
 18 19  1  0  0  0  0
 18 39  1  0  0  0  0
 18 40  1  0  0  0  0
 19 20  1  0  0  0  0
 19 21  1  0  0  0  0
 19 41  1  0  0  0  0
 20 42  1  0  0  0  0
 21 22  1  0  0  0  0
 21 43  1  0  0  0  0
 21 44  1  0  0  0  0
 22 45  1  0  0  0  0
 22 46  1  0  0  0  0
M  END
> <s_m_source_file>
AV-unprocessed.smi

> <i_m_source_file_index>
1489

> <i_lp_mmshare_version>
43012

> <i_f3d_flags>
0

> <s_epik_input>
W0NIMl0xW0NIMl1bQ0BIXShbT0hdKVtDSDJdW0NIMl1bQ0BIXTFbTkhdQyg9TylbTkhdYzJbY0hdW2NIXWMobltjSF0yKU4zW0NIMl1bQ0gyXVtDSDJdW0NIMl0z

> <s_epik_cmdline>
J2VwaWtfcHl0aG9uJywgJy1waCcsICc3LjAnLCAnLXRuJywgJzgnLCAnLW1hJywgJzIwMCcsICctbWV0YWxfYmluZGluZycsICctaW1hZScsICc8aW5maWxlLm1hZT4nLCAnLW9tYWUnLCAnPG91dGZpbGUubWFlPic=

> <r_lp_tautomer_probability>
1

> <r_epik_Ionization_Penalty>
0.104121

> <r_epik_Ionization_Penalty_Charging>
0

> <r_epik_Ionization_Penalty_Neutral>
0.104121

> <r_epik_State_Penalty>
0.0934704

> <r_epik_Charging_Adjusted_Penalty>
0.0934704

> <i_epik_Tot_Q>
0

> <i_epik_Tot_abs_Q>
0

> <r_epik_Metal_State_Penalty>
0.0794432

> <b_epik_Metal_Only>
0

> <s_lp_Force_Field>
OPLS_2005

> <r_lp_Energy>
35.391

> <b_lp_Chiralities_Consistent>
1

> <s_lp_Variant>
AV-unprocessed.smi:1489-2

> <Gold.Version>
5.8.1

> <Gold.Id.Protein>
6NUR|6NUR_protein|mol2

> <Gold.PLP.Fitness>
45.6625

> <Gold.PLP.PLP>
-39.2344

> <Gold.PLP.part.hbond>
-3.7957

> <Gold.PLP.part.metal>
0.0000

> <Gold.PLP.part.buried>
-5.5864

> <Gold.PLP.part.nonpolar>
-31.8030

> <Gold.PLP.part.repulsive>
0.2276

> <Gold.PLP.ligand.clash>
0.0000

> <Gold.PLP.ligand.torsion>
0.6183

> <Gold.PLP.Chemscore.Hbond>
2.4936

> <Gold.PLP.Chemscore.CHOScore>
0.0000

> <Gold.PLP.Chemscore.Metal>
0.0000

> <Gold.Chemscore.Hbonds>
donor molecule, donor type, donor heavy atom, donor atom, acceptor molecule, acceptor atom, score
      L1  H     3    23       P1  7948  0.88
      L1  H    15    35       P1  7948  1.00
      L1  H    20    42       P1 10957  0.67

> <Gold.PLP.Chemscore.Internal.Correction>
0.1840

> <Gold.Rescore>
     Score         DG    S(hbond)    S(metal)    S(lipo)     H(rot)  DE(clash)    DE(int)     intcor
     18.63     -20.73       2.31        0.00      95.36       1.41       0.22       1.88       ----

> <Gold.Chemscore.Fitness>
18.6343

> <Gold.Chemscore.DG>
-20.7341

> <Gold.Chemscore.ZeroCoef>
-5.4800

> <Gold.Chemscore.Hbond>
2.3069

> <Gold.Chemscore.Metal>
0.0000

> <Gold.Chemscore.Lipo>
95.3559

> <Gold.Chemscore.Internal_Hbond>
0.0000

> <Gold.Chemscore.DEClash>
0.2234

> <Gold.Chemscore.DEInternal>
1.8764

> <Gold.Chemscore.Rot>
1.4093

> <Gold.Chemscore.Internal.Correction>
   9.000000E+99

> <Gold.Chemscore.Hbonds>
donor molecule, donor type, donor heavy atom, donor atom, acceptor molecule, acceptor atom, score
      L1  H     3    23       P1  7948  0.82
      L1  H    15    35       P1  7948  0.94
      L1  H    20    42       P1 10957  0.59

> <Gold.Chemscore.Hbond.Weighted>
-7.7052

> <Gold.Chemscore.Metal.Weighted>
-0.0000

> <Gold.Chemscore.Lipo.Weighted>
-11.1566

> <Gold.Chemscore.Internal_Hbond.Weighted>
0.0000

> <Gold.Chemscore.DEClash.Weighted>
0.2234

> <Gold.Chemscore.DEInternal.Weighted>
1.8764

> <Gold.Chemscore.Rot.Weighted>
3.6077

> <Gold.Chemscore.Internal.Correction.Weighted>
   9.000000E+99

> <Gold.Protein.RotatedTorsions>
[ 6907 6896 6895 6894 ] final -163.97 input  -60.11 | X-H torsion
[ 7974 7965 7964 7962 ] final -126.70 input  175.53 | X-H torsion
[ 8008 7997 7996 7995 ] final  179.49 input   59.86 | X-H torsion
[ 10167 10162 10161 10158 ] final  -97.82 input  -65.29 | X-H torsion
[ 10718 10713 10712 10709 ] final  164.31 input   66.30 | X-H torsion
[ 10763 10752 10751 10750 ] final -131.49 input  -60.55 | X-H torsion
[ 11005 11000 10999 10996 ] final   85.48 input  -57.11 | X-H torsion

> <Gold.Protein.ActiveResidues>
 VAL166  LYS551  ARG553  GLY616  TRP617  ASP618  TYR619  PRO620  LYS621  CYS622 
 ASP623  PHE694  ASN695  SER759  ASP760  ASP761  ALA762  ILE779  LEU786  VAL792 
 PHE793  MET794  SER795  GLU796  ALA797  LYS798  CYS799  TRP800  GLU811  SER814 

> <Gold.Protein.RotatedAtoms>
  151.4044  133.3747  159.2735 H   0  0  0  0  0  0  0  0  0  0  0  0  # atno 6907 bound_to 6896
  150.9409  134.8819  159.7622 H   0  0  0  0  0  0  0  0  0  0  0  0  # atno 6908 bound_to 6896
  152.5071  134.3995  159.9463 H   0  0  0  0  0  0  0  0  0  0  0  0  # atno 6909 bound_to 6896
  144.9846  140.7674  143.4591 H   0  0  0  0  0  0  0  0  0  0  0  0  # atno 7974 bound_to 7965
  156.0428  140.1307  157.0137 H   0  0  0  0  0  0  0  0  0  0  0  0  # atno 8008 bound_to 7997
  154.4399  140.1027  156.6333 H   0  0  0  0  0  0  0  0  0  0  0  0  # atno 8009 bound_to 7997
  155.5641  140.3465  155.4501 H   0  0  0  0  0  0  0  0  0  0  0  0  # atno 8010 bound_to 7997
  140.2794  143.3291  152.0456 H   0  0  0  0  0  0  0  0  0  0  0  0  # atno 10167 bound_to 10162
  157.0961  131.0430  151.2517 H   0  0  0  0  0  0  0  0  0  0  0  0  # atno 10718 bound_to 10713
  154.8750  135.3828  154.4254 H   0  0  0  0  0  0  0  0  0  0  0  0  # atno 10763 bound_to 10752
  153.4954  135.7030  153.5866 H   0  0  0  0  0  0  0  0  0  0  0  0  # atno 10764 bound_to 10752
  153.4222  135.3899  155.2085 H   0  0  0  0  0  0  0  0  0  0  0  0  # atno 10765 bound_to 10752
  139.8970  134.8289  156.2588 H   0  0  0  0  0  0  0  0  0  0  0  0  # atno 11005 bound_to 11000
  145.2372  139.2089  143.5012 LP  0  0  0  0  0  0  0  0  0  0  0  0  # atno 17320 bound_to 7965
  146.3417  140.2260  142.8592 LP  0  0  0  0  0  0  0  0  0  0  0  0  # atno 17321 bound_to 7965
  139.4966  144.6602  151.6482 LP  0  0  0  0  0  0  0  0  0  0  0  0  # atno 17342 bound_to 10162
  140.5824  143.9923  150.6276 LP  0  0  0  0  0  0  0  0  0  0  0  0  # atno 17343 bound_to 10162
  157.4680  130.7692  149.7297 LP  0  0  0  0  0  0  0  0  0  0  0  0  # atno 17370 bound_to 10713
  155.9885  130.3958  150.3114 LP  0  0  0  0  0  0  0  0  0  0  0  0  # atno 17371 bound_to 10713
  141.0176  133.7059  156.1214 LP  0  0  0  0  0  0  0  0  0  0  0  0  # atno 17394 bound_to 11000
  140.7279  134.4286  157.5569 LP  0  0  0  0  0  0  0  0  0  0  0  0  # atno 17395 bound_to 11000

$$$$
