AV-unprocessed.smi:21|AV-procd|sdf|149|dock7
  -GOLD-   2262015363D 1   1.00000     0.00000
 Structure written by MMmdl.
 62 65  0  0  0  0  0  0  0  0  2 V2000
  144.6310  132.1114  149.8484 C   0  0  0  0  0  0  0  0  0  0  0  0
  144.0768  133.2271  150.5269 O   0  0  0  0  0  0  0  0  0  0  0  0
  145.0045  134.2807  150.7402 C   0  0  1  0  0  0  0  0  0  0  0  0
  144.4050  135.4736  151.4774 C   0  0  0  0  0  0  0  0  0  0  0  0
  145.6320  136.1665  152.0836 C   0  0  1  0  0  0  0  0  0  0  0  0
  145.3120  137.0893  153.2861 C   0  0  0  0  0  0  0  0  0  0  0  0
  146.2489  138.2118  153.3994 N   0  0  0  0  0  0  0  0  0  0  0  0
  146.3866  139.0954  152.2475 C   0  0  0  0  0  0  0  0  0  0  0  0
  146.8105  138.5516  154.5984 C   0  0  0  0  0  0  0  0  0  0  0  0
  146.7221  137.6663  155.6279 N   0  0  0  0  0  0  0  0  0  0  0  0
  147.2471  137.9408  156.8242 C   0  0  0  0  0  0  0  0  0  0  0  0
  147.9028  139.0326  157.2129 N   0  0  0  0  0  0  0  0  0  0  0  0
  148.0069  139.9309  156.1940 C   0  0  0  0  0  0  0  0  0  0  0  0
  147.4964  139.7784  154.8704 C   0  0  0  0  0  0  0  0  0  0  0  0
  147.8013  140.9190  154.1320 N   0  0  0  0  0  0  0  0  0  0  0  0
  148.4483  141.6895  154.9616 C   0  0  0  0  0  0  0  0  0  0  0  0
  148.6226  141.1692  156.2217 N   0  0  0  0  0  0  0  0  0  0  0  0
  149.2976  141.8011  157.3420 C   0  0  0  0  0  0  0  0  0  0  0  0
  150.7914  141.3990  157.4514 C   0  0  1  0  0  0  0  0  0  0  0  0
  151.3403  140.9003  156.0942 C   0  0  0  0  0  0  0  0  0  0  0  0
  152.5108  140.1283  156.2650 O   0  0  0  0  0  0  0  0  0  0  0  0
  151.6867  142.5123  158.0627 C   0  0  1  0  0  0  0  0  0  0  0  0
  151.3084  143.9502  157.7463 C   0  0  0  0  0  0  0  0  0  0  0  0
  152.0780  144.7022  158.8233 C   0  0  0  0  0  0  0  0  0  0  0  0
  151.9364  143.8887  159.9799 O   0  0  0  0  0  0  0  0  0  0  0  0
  151.7949  142.5223  159.5950 C   0  0  0  0  0  0  0  0  0  0  0  0
  146.6189  135.0761  152.3405 N   0  3  1  0  0  0  0  0  0  0  0  0
  147.0591  134.8635  153.7398 C   0  0  0  0  0  0  0  0  0  0  0  0
  146.1059  133.8405  151.7027 C   0  0  0  0  0  0  0  0  0  0  0  0
  145.4548  134.6023  149.7991 H   0  0  0  0  0  0  0  0  0  0  0  0
  146.0856  136.7750  151.2999 H   0  0  0  0  0  0  0  0  0  0  0  0
  143.8768  131.3299  149.7559 H   0  0  0  0  0  0  0  0  0  0  0  0
  145.4773  131.6959  150.3970 H   0  0  0  0  0  0  0  0  0  0  0  0
  144.9603  132.3761  148.8434 H   0  0  0  0  0  0  0  0  0  0  0  0
  143.8281  136.1325  150.8277 H   0  0  0  0  0  0  0  0  0  0  0  0
  143.7451  135.1162  152.2689 H   0  0  0  0  0  0  0  0  0  0  0  0
  144.2763  137.4262  153.2540 H   0  0  0  0  0  0  0  0  0  0  0  0
  145.3974  136.5186  154.2110 H   0  0  0  0  0  0  0  0  0  0  0  0
  145.9216  140.0618  152.4442 H   0  0  0  0  0  0  0  0  0  0  0  0
  145.9045  138.6703  151.3669 H   0  0  0  0  0  0  0  0  0  0  0  0
  147.4376  139.2491  152.0013 H   0  0  0  0  0  0  0  0  0  0  0  0
  147.1251  137.1756  157.5768 H   0  0  0  0  0  0  0  0  0  0  0  0
  148.8217  142.6615  154.6734 H   0  0  0  0  0  0  0  0  0  0  0  0
  149.1992  142.8808  157.2290 H   0  0  0  0  0  0  0  0  0  0  0  0
  148.7470  141.5354  158.2430 H   0  0  0  0  0  0  0  0  0  0  0  0
  150.8433  140.5542  158.1401 H   0  0  0  0  0  0  0  0  0  0  0  0
  150.6142  140.2672  155.5854 H   0  0  0  0  0  0  0  0  0  0  0  0
  151.5527  141.7377  155.4292 H   0  0  0  0  0  0  0  0  0  0  0  0
  152.3237  139.2371  156.0118 H   0  0  0  0  0  0  0  0  0  0  0  0
  152.7051  142.3701  157.6980 H   0  0  0  0  0  0  0  0  0  0  0  0
  151.5862  144.2547  156.7369 H   0  0  0  0  0  0  0  0  0  0  0  0
  150.2417  144.1276  157.8783 H   0  0  0  0  0  0  0  0  0  0  0  0
  153.1348  144.7750  158.5622 H   0  0  0  0  0  0  0  0  0  0  0  0
  151.6962  145.7094  158.9916 H   0  0  0  0  0  0  0  0  0  0  0  0
  150.9119  142.1167  160.0862 H   0  0  0  0  0  0  0  0  0  0  0  0
  152.6520  141.9391  159.9333 H   0  0  0  0  0  0  0  0  0  0  0  0
  146.2189  134.6128  154.3886 H   0  0  0  0  0  0  0  0  0  0  0  0
  147.5600  135.7467  154.1360 H   0  0  0  0  0  0  0  0  0  0  0  0
  147.7740  134.0411  153.7852 H   0  0  0  0  0  0  0  0  0  0  0  0
  145.6760  133.1876  152.4648 H   0  0  0  0  0  0  0  0  0  0  0  0
  146.9006  133.2863  151.2030 H   0  0  0  0  0  0  0  0  0  0  0  0
  147.4470  135.3390  151.8251 H   0  0  0  0  0  0  0  0  0  0  0  0
  1  2  1  0  0  0  0
  1 32  1  0  0  0  0
  1 33  1  0  0  0  0
  1 34  1  0  0  0  0
  2  3  1  0  0  0  0
  3 30  1  0  0  0  0
  3 29  1  0  0  0  0
  3  4  1  0  0  0  0
  4  5  1  0  0  0  0
  4 35  1  0  0  0  0
  4 36  1  0  0  0  0
  5 31  1  0  0  0  0
  5  6  1  0  0  0  0
  5 27  1  0  0  0  0
  6  7  1  0  0  0  0
  6 37  1  0  0  0  0
  6 38  1  0  0  0  0
  7  8  1  0  0  0  0
  7  9  1  0  0  0  0
  8 39  1  0  0  0  0
  8 40  1  0  0  0  0
  8 41  1  0  0  0  0
  9 14  1  0  0  0  0
  9 10  2  0  0  0  0
 10 11  1  0  0  0  0
 11 12  2  0  0  0  0
 11 42  1  0  0  0  0
 12 13  1  0  0  0  0
 13 17  1  0  0  0  0
 13 14  2  0  0  0  0
 14 15  1  0  0  0  0
 15 16  2  0  0  0  0
 16 17  1  0  0  0  0
 16 43  1  0  0  0  0
 17 18  1  0  0  0  0
 18 19  1  0  0  0  0
 18 44  1  0  0  0  0
 18 45  1  0  0  0  0
 19 20  1  0  0  0  0
 19 22  1  0  0  0  0
 19 46  1  0  0  0  0
 20 21  1  0  0  0  0
 20 47  1  0  0  0  0
 20 48  1  0  0  0  0
 21 49  1  0  0  0  0
 22 26  1  0  0  0  0
 22 23  1  0  0  0  0
 22 50  1  0  0  0  0
 23 24  1  0  0  0  0
 23 51  1  0  0  0  0
 23 52  1  0  0  0  0
 24 25  1  0  0  0  0
 24 53  1  0  0  0  0
 24 54  1  0  0  0  0
 25 26  1  0  0  0  0
 26 55  1  0  0  0  0
 26 56  1  0  0  0  0
 27 28  1  0  0  0  0
 27 29  1  0  0  0  0
 27 62  1  0  0  0  0
 28 57  1  0  0  0  0
 28 58  1  0  0  0  0
 28 59  1  0  0  0  0
 29 60  1  0  0  0  0
 29 61  1  0  0  0  0
M  CHG  1  27   1
M  END
> <s_m_source_file>
AV-unprocessed.smi

> <i_m_source_file_index>
21

> <i_lp_mmshare_version>
43012

> <i_f3d_flags>
0

> <s_epik_input>
W0NIM11PW0NASF0xW0NIMl1bQ0BIXShOKFtDSDNdKVtDSDJdMSlbQ0gyXU4oW0NIM10pYyhuW2NIXW4yKWMoYzIzKW5bY0hdbjNbQ0gyXVtDQEhdKFtDSDJdW09IXSlbQ0BASF00W0NIMl1bQ0gyXU9bQ0gyXTQ=

> <s_epik_cmdline>
J2VwaWtfcHl0aG9uJywgJy1waCcsICc3LjAnLCAnLXRuJywgJzgnLCAnLW1hJywgJzIwMCcsICctbWV0YWxfYmluZGluZycsICctaW1hZScsICc8aW5maWxlLm1hZT4nLCAnLW9tYWUnLCAnPG91dGZpbGUubWFlPic=

> <r_lp_tautomer_probability>
1

> <r_epik_Ionization_Penalty>
0.0157465

> <r_epik_Ionization_Penalty_Charging>
0.015354

> <r_epik_Ionization_Penalty_Neutral>
0.000392529

> <r_epik_State_Penalty>
0.0120612

> <r_epik_Charging_Adjusted_Penalty>
0.0274152

> <i_epik_Tot_Q>
1

> <i_epik_Tot_abs_Q>
1

> <r_epik_Metal_State_Penalty>
0.0121253

> <b_epik_Metal_Only>
0

> <s_lp_Force_Field>
OPLS_2005

> <r_lp_Energy>
61.5082

> <b_lp_Chiralities_Consistent>
1

> <s_lp_Variant>
AV-unprocessed.smi:21-29

> <Gold.Version>
5.8.1

> <Gold.Id.Protein>
6NUR|6NUR_protein|mol2

> <Gold.PLP.Fitness>
53.4934

> <Gold.PLP.PLP>
-46.3718

> <Gold.PLP.part.hbond>
-2.0000

> <Gold.PLP.part.metal>
0.0000

> <Gold.PLP.part.buried>
-4.9721

> <Gold.PLP.part.nonpolar>
-40.0147

> <Gold.PLP.part.repulsive>
0.3874

> <Gold.PLP.ligand.clash>
0.0000

> <Gold.PLP.ligand.torsion>
2.1843

> <Gold.PLP.Chemscore.Hbond>
2.9520

> <Gold.PLP.Chemscore.CHOScore>
0.7554

> <Gold.PLP.Chemscore.Metal>
0.0000

> <Gold.Chemscore.Hbonds>
donor molecule, donor type, donor heavy atom, donor atom, acceptor molecule, acceptor atom, score
      L1  H    27    62       P1  7948  1.92
      P1  H  7997  8009       L1    21  1.00
      L1  C    16    43       P1  8028  1.00

> <Gold.PLP.Chemscore.Internal.Correction>
0.3679

> <Gold.Rescore>
     Score         DG    S(hbond)    S(metal)    S(lipo)     H(rot)  DE(clash)    DE(int)     intcor
     13.84     -17.01       1.91        0.00     111.31       3.08       0.03       3.14       ----

> <Gold.Chemscore.Fitness>
13.8382

> <Gold.Chemscore.DG>
-17.0074

> <Gold.Chemscore.ZeroCoef>
-5.4800

> <Gold.Chemscore.Hbond>
1.9097

> <Gold.Chemscore.Metal>
0.0000

> <Gold.Chemscore.Lipo>
111.3090

> <Gold.Chemscore.Internal_Hbond>
0.0000

> <Gold.Chemscore.DEClash>
0.0280

> <Gold.Chemscore.DEInternal>
3.1412

> <Gold.Chemscore.Rot>
3.0758

> <Gold.Chemscore.Internal.Correction>
   9.000000E+99

> <Gold.Chemscore.Hbonds>
donor molecule, donor type, donor heavy atom, donor atom, acceptor molecule, acceptor atom, score
      L1  H    27    62       P1  7948  0.90
      P1  H  7997  8009       L1    21  0.39

> <Gold.Chemscore.Hbond.Weighted>
-6.3784

> <Gold.Chemscore.Metal.Weighted>
-0.0000

> <Gold.Chemscore.Lipo.Weighted>
-13.0232

> <Gold.Chemscore.Internal_Hbond.Weighted>
0.0000

> <Gold.Chemscore.DEClash.Weighted>
0.0280

> <Gold.Chemscore.DEInternal.Weighted>
3.1412

> <Gold.Chemscore.Rot.Weighted>
7.8741

> <Gold.Chemscore.Internal.Correction.Weighted>
   9.000000E+99

> <Gold.Protein.RotatedTorsions>
[ 6907 6896 6895 6894 ] final   44.59 input  -60.11 | X-H torsion
[ 7974 7965 7964 7962 ] final -157.68 input  175.53 | X-H torsion
[ 8008 7997 7996 7995 ] final -162.36 input   59.86 | X-H torsion
[ 10167 10162 10161 10158 ] final  -18.32 input  -65.29 | X-H torsion
[ 10718 10713 10712 10709 ] final   90.00 input   66.30 | X-H torsion
[ 10763 10752 10751 10750 ] final -173.95 input  -60.55 | X-H torsion
[ 11005 11000 10999 10996 ] final  -64.69 input  -57.11 | X-H torsion

> <Gold.Protein.ActiveResidues>
 VAL166  LYS551  ARG553  GLY616  TRP617  ASP618  TYR619  PRO620  LYS621  CYS622 
 ASP623  PHE694  ASN695  SER759  ASP760  ASP761  ALA762  ILE779  LEU786  VAL792 
 PHE793  MET794  SER795  GLU796  ALA797  LYS798  CYS799  TRP800  GLU811  SER814 

> <Gold.Protein.RotatedAtoms>
  152.2344  134.8291  160.0468 H   0  0  0  0  0  0  0  0  0  0  0  0  # atno 6907 bound_to 6896
  151.9028  133.3537  159.3845 H   0  0  0  0  0  0  0  0  0  0  0  0  # atno 6908 bound_to 6896
  150.7035  134.4737  159.5481 H   0  0  0  0  0  0  0  0  0  0  0  0  # atno 6909 bound_to 6896
  144.7537  140.3934  143.6028 H   0  0  0  0  0  0  0  0  0  0  0  0  # atno 7974 bound_to 7965
  155.8057  140.0898  157.1932 H   0  0  0  0  0  0  0  0  0  0  0  0  # atno 8008 bound_to 7997
  154.3981  140.1464  156.3386 H   0  0  0  0  0  0  0  0  0  0  0  0  # atno 8009 bound_to 7997
  155.8417  140.3438  155.5639 H   0  0  0  0  0  0  0  0  0  0  0  0  # atno 8010 bound_to 7997
  140.7257  143.4928  150.9969 H   0  0  0  0  0  0  0  0  0  0  0  0  # atno 10167 bound_to 10162
  157.6957  131.0354  150.3512 H   0  0  0  0  0  0  0  0  0  0  0  0  # atno 10718 bound_to 10713
  154.6020  135.2855  155.0525 H   0  0  0  0  0  0  0  0  0  0  0  0  # atno 10763 bound_to 10752
  154.1787  135.6460  153.5032 H   0  0  0  0  0  0  0  0  0  0  0  0  # atno 10764 bound_to 10752
  153.0160  135.5418  154.6742 H   0  0  0  0  0  0  0  0  0  0  0  0  # atno 10765 bound_to 10752
  141.1432  133.6669  156.5872 H   0  0  0  0  0  0  0  0  0  0  0  0  # atno 11005 bound_to 11000
  145.6852  139.1627  143.2678 LP  0  0  0  0  0  0  0  0  0  0  0  0  # atno 17320 bound_to 7965
  146.1522  140.6909  142.9317 LP  0  0  0  0  0  0  0  0  0  0  0  0  # atno 17321 bound_to 7965
  139.8634  143.7285  152.3172 LP  0  0  0  0  0  0  0  0  0  0  0  0  # atno 17342 bound_to 10162
  139.7509  144.7534  151.0508 LP  0  0  0  0  0  0  0  0  0  0  0  0  # atno 17343 bound_to 10162
  156.3960  130.3907  149.6995 LP  0  0  0  0  0  0  0  0  0  0  0  0  # atno 17370 bound_to 10713
  156.4328  130.7823  151.2843 LP  0  0  0  0  0  0  0  0  0  0  0  0  # atno 17371 bound_to 10713
  140.3791  134.7539  157.4649 LP  0  0  0  0  0  0  0  0  0  0  0  0  # atno 17394 bound_to 11000
  140.0651  134.5941  155.8704 LP  0  0  0  0  0  0  0  0  0  0  0  0  # atno 17395 bound_to 11000

$$$$
