AV-unprocessed.smi:83|AV-procd|sdf|805|dock3
  -GOLD-   2262017193D 1   1.00000     0.00000
 Structure written by MMmdl.
 56 59  0  0  0  0  0  0  0  0  1 V2000
  152.0445  145.6385  160.2038 C   0  0  0  0  0  0  0  0  0  0  0  0
  151.8183  144.5123  159.1939 C   0  0  0  0  0  0  0  0  0  0  0  0
  151.1676  144.7452  158.1754 O   0  0  0  0  0  0  0  0  0  0  0  0
  152.3416  143.2984  159.4593 N   0  0  0  0  0  0  0  0  0  0  0  0
  153.1349  142.9487  160.6365 C   0  0  0  0  0  0  0  0  0  0  0  0
  153.6562  141.5348  160.3726 C   0  0  0  0  0  0  0  0  0  0  0  0
  152.6274  140.9327  159.4219 C   0  0  2  0  0  0  0  0  0  0  0  0
  153.1538  139.7362  158.6056 C   0  0  0  0  0  0  0  0  0  0  0  0
  152.9676  138.4578  159.2955 N   0  0  0  0  0  0  0  0  0  0  0  0
  153.8603  138.1392  160.4023 C   0  0  0  0  0  0  0  0  0  0  0  0
  151.7751  137.8092  159.1823 C   0  0  0  0  0  0  0  0  0  0  0  0
  150.8545  137.9929  160.1660 N   0  0  0  0  0  0  0  0  0  0  0  0
  149.6692  137.3800  160.1181 C   0  0  0  0  0  0  0  0  0  0  0  0
  149.1993  136.5475  159.1897 N   0  0  0  0  0  0  0  0  0  0  0  0
  150.1129  136.3515  158.1974 C   0  0  0  0  0  0  0  0  0  0  0  0
  151.4101  136.9370  158.1105 C   0  0  0  0  0  0  0  0  0  0  0  0
  152.0434  136.4827  156.9571 N   0  0  0  0  0  0  0  0  0  0  0  0
  151.1733  135.6895  156.3955 C   0  0  0  0  0  0  0  0  0  0  0  0
  149.9863  135.5535  157.0744 N   0  0  0  0  0  0  0  0  0  0  0  0
  148.8509  134.7389  156.6784 C   0  0  0  0  0  0  0  0  0  0  0  0
  149.1050  133.9768  155.3632 C   0  0  2  0  0  0  0  0  0  0  0  0
  147.8785  133.7991  154.6804 O   0  0  0  0  0  0  0  0  0  0  0  0
  149.7457  132.5975  155.6039 C   0  0  1  0  0  0  0  0  0  0  0  0
  150.9497  132.6125  156.5495 C   0  0  0  0  0  0  0  0  0  0  0  0
  150.9557  131.2180  157.1582 C   0  0  0  0  0  0  0  0  0  0  0  0
  149.5977  130.6326  156.7645 C   0  0  0  0  0  0  0  0  0  0  0  0
  148.8466  131.7406  156.2909 O   0  0  0  0  0  0  0  0  0  0  0  0
  152.1816  142.1386  158.5872 C   0  0  0  0  0  0  0  0  0  0  0  0
  151.6865  145.3508  161.1926 H   0  0  0  0  0  0  0  0  0  0  0  0
  151.5088  146.5391  159.9017 H   0  0  0  0  0  0  0  0  0  0  0  0
  153.1043  145.8848  160.2727 H   0  0  0  0  0  0  0  0  0  0  0  0
  153.9572  143.6455  160.8041 H   0  0  0  0  0  0  0  0  0  0  0  0
  152.4915  142.9596  161.5174 H   0  0  0  0  0  0  0  0  0  0  0  0
  154.6290  141.5913  159.8816 H   0  0  0  0  0  0  0  0  0  0  0  0
  153.7775  140.9536  161.2872 H   0  0  0  0  0  0  0  0  0  0  0  0
  151.7789  140.6072  160.0259 H   0  0  0  0  0  0  0  0  0  0  0  0
  152.7051  139.7299  157.6123 H   0  0  0  0  0  0  0  0  0  0  0  0
  154.2226  139.8680  158.4342 H   0  0  0  0  0  0  0  0  0  0  0  0
  153.9588  137.0604  160.5265 H   0  0  0  0  0  0  0  0  0  0  0  0
  153.4908  138.5703  161.3331 H   0  0  0  0  0  0  0  0  0  0  0  0
  154.8567  138.5419  160.2186 H   0  0  0  0  0  0  0  0  0  0  0  0
  149.0034  137.5848  160.9434 H   0  0  0  0  0  0  0  0  0  0  0  0
  151.3744  135.1785  155.4653 H   0  0  0  0  0  0  0  0  0  0  0  0
  148.6406  134.0384  157.4872 H   0  0  0  0  0  0  0  0  0  0  0  0
  147.9727  135.3790  156.5872 H   0  0  0  0  0  0  0  0  0  0  0  0
  149.7601  134.5716  154.7250 H   0  0  0  0  0  0  0  0  0  0  0  0
  147.8403  134.4179  153.9671 H   0  0  0  0  0  0  0  0  0  0  0  0
  150.0212  132.1309  154.6557 H   0  0  0  0  0  0  0  0  0  0  0  0
  151.8810  132.8535  156.0361 H   0  0  0  0  0  0  0  0  0  0  0  0
  150.8024  133.3516  157.3384 H   0  0  0  0  0  0  0  0  0  0  0  0
  151.7698  130.6078  156.7653 H   0  0  0  0  0  0  0  0  0  0  0  0
  151.0687  131.2719  158.2415 H   0  0  0  0  0  0  0  0  0  0  0  0
  149.7125  129.9064  155.9586 H   0  0  0  0  0  0  0  0  0  0  0  0
  149.0941  130.1409  157.5970 H   0  0  0  0  0  0  0  0  0  0  0  0
  151.1527  142.0216  158.2425 H   0  0  0  0  0  0  0  0  0  0  0  0
  152.8200  142.2701  157.7122 H   0  0  0  0  0  0  0  0  0  0  0  0
  1  2  1  0  0  0  0
  1 29  1  0  0  0  0
  1 30  1  0  0  0  0
  1 31  1  0  0  0  0
  2  3  2  0  0  0  0
  2  4  1  0  0  0  0
  4 28  1  0  0  0  0
  4  5  1  0  0  0  0
  5  6  1  0  0  0  0
  5 32  1  0  0  0  0
  5 33  1  0  0  0  0
  6  7  1  0  0  0  0
  6 34  1  0  0  0  0
  6 35  1  0  0  0  0
  7  8  1  0  0  0  0
  7 28  1  0  0  0  0
  7 36  1  0  0  0  0
  8  9  1  0  0  0  0
  8 37  1  0  0  0  0
  8 38  1  0  0  0  0
  9 10  1  0  0  0  0
  9 11  1  0  0  0  0
 10 39  1  0  0  0  0
 10 40  1  0  0  0  0
 10 41  1  0  0  0  0
 11 16  1  0  0  0  0
 11 12  2  0  0  0  0
 12 13  1  0  0  0  0
 13 14  2  0  0  0  0
 13 42  1  0  0  0  0
 14 15  1  0  0  0  0
 15 19  1  0  0  0  0
 15 16  2  0  0  0  0
 16 17  1  0  0  0  0
 17 18  2  0  0  0  0
 18 19  1  0  0  0  0
 18 43  1  0  0  0  0
 19 20  1  0  0  0  0
 20 21  1  0  0  0  0
 20 44  1  0  0  0  0
 20 45  1  0  0  0  0
 21 22  1  0  0  0  0
 21 23  1  0  0  0  0
 21 46  1  0  0  0  0
 22 47  1  0  0  0  0
 23 27  1  0  0  0  0
 23 24  1  0  0  0  0
 23 48  1  0  0  0  0
 24 25  1  0  0  0  0
 24 49  1  0  0  0  0
 24 50  1  0  0  0  0
 25 26  1  0  0  0  0
 25 51  1  0  0  0  0
 25 52  1  0  0  0  0
 26 27  1  0  0  0  0
 26 53  1  0  0  0  0
 26 54  1  0  0  0  0
 28 55  1  0  0  0  0
 28 56  1  0  0  0  0
M  END
> <s_m_source_file>
AV-unprocessed.smi

> <i_m_source_file_index>
83

> <i_lp_mmshare_version>
43012

> <i_f3d_flags>
0

> <s_epik_input>
W0NIM11DKD1PKU4xW0NIMl1bQ0gyXVtDQEhdKFtDSDJdMSlbQ0gyXU4oW0NIM10pYyhuW2NIXW4yKWMoYzIzKW5bY0hdbjNbQ0gyXVtDQEhdKFtPSF0pW0NAQEhdNFtDSDJdW0NIMl1bQ0gyXU80

> <s_epik_cmdline>
J2VwaWtfcHl0aG9uJywgJy1waCcsICc3LjAnLCAnLXRuJywgJzgnLCAnLW1hJywgJzIwMCcsICctbWV0YWxfYmluZGluZycsICctaW1hZScsICc8aW5maWxlLm1hZT4nLCAnLW9tYWUnLCAnPG91dGZpbGUubWFlPic=

> <r_lp_tautomer_probability>
1

> <r_epik_Ionization_Penalty>
0.00109752

> <r_epik_Ionization_Penalty_Charging>
0

> <r_epik_Ionization_Penalty_Neutral>
0.00109752

> <r_epik_State_Penalty>
0.000634803

> <r_epik_Charging_Adjusted_Penalty>
0.000634803

> <i_epik_Tot_Q>
0

> <i_epik_Tot_abs_Q>
0

> <r_epik_Metal_State_Penalty>
-0

> <b_epik_Metal_Only>
0

> <s_lp_Force_Field>
OPLS_2005

> <r_lp_Energy>
52.1459

> <b_lp_Chiralities_Consistent>
1

> <s_lp_Variant>
AV-unprocessed.smi:83-6

> <Gold.Version>
5.8.1

> <Gold.Id.Protein>
6NUR|6NUR_protein|mol2

> <Gold.PLP.Fitness>
47.0512

> <Gold.PLP.PLP>
-47.0637

> <Gold.PLP.part.hbond>
-2.7017

> <Gold.PLP.part.metal>
0.0000

> <Gold.PLP.part.buried>
-4.6428

> <Gold.PLP.part.nonpolar>
-39.4251

> <Gold.PLP.part.repulsive>
0.1771

> <Gold.PLP.ligand.clash>
0.0000

> <Gold.PLP.ligand.torsion>
2.4052

> <Gold.PLP.Chemscore.Hbond>
1.4420

> <Gold.PLP.Chemscore.CHOScore>
0.0000

> <Gold.PLP.Chemscore.Metal>
0.0000

> <Gold.PLP.Chemscore.Internal.Correction>
0.4719

> <Gold.Rescore>
     Score         DG    S(hbond)    S(metal)    S(lipo)     H(rot)  DE(clash)    DE(int)     intcor
     10.15     -12.52       0.93        0.00      90.71       2.62       0.05       2.32       ----

> <Gold.Chemscore.Fitness>
10.1478

> <Gold.Chemscore.DG>
-12.5189

> <Gold.Chemscore.ZeroCoef>
-5.4800

> <Gold.Chemscore.Hbond>
0.9344

> <Gold.Chemscore.Metal>
0.0000

> <Gold.Chemscore.Lipo>
90.7088

> <Gold.Chemscore.Internal_Hbond>
0.0000

> <Gold.Chemscore.DEClash>
0.0518

> <Gold.Chemscore.DEInternal>
2.3193

> <Gold.Chemscore.Rot>
2.6152

> <Gold.Chemscore.Internal.Correction>
   9.000000E+99

> <Gold.Chemscore.Hbond.Weighted>
-3.1209

> <Gold.Chemscore.Metal.Weighted>
-0.0000

> <Gold.Chemscore.Lipo.Weighted>
-10.6129

> <Gold.Chemscore.Internal_Hbond.Weighted>
0.0000

> <Gold.Chemscore.DEClash.Weighted>
0.0518

> <Gold.Chemscore.DEInternal.Weighted>
2.3193

> <Gold.Chemscore.Rot.Weighted>
6.6949

> <Gold.Chemscore.Internal.Correction.Weighted>
   9.000000E+99

> <Gold.Protein.RotatedTorsions>
[ 6907 6896 6895 6894 ] final  174.08 input  -60.11 | X-H torsion
[ 7974 7965 7964 7962 ] final  157.99 input  175.53 | X-H torsion
[ 8008 7997 7996 7995 ] final   36.43 input   59.86 | X-H torsion
[ 10167 10162 10161 10158 ] final   20.63 input  -65.29 | X-H torsion
[ 10718 10713 10712 10709 ] final  148.08 input   66.30 | X-H torsion
[ 10763 10752 10751 10750 ] final -132.43 input  -60.55 | X-H torsion
[ 11005 11000 10999 10996 ] final  -16.68 input  -57.11 | X-H torsion

> <Gold.Protein.ActiveResidues>
 VAL166  LYS551  ARG553  GLY616  TRP617  ASP618  TYR619  PRO620  LYS621  CYS622 
 ASP623  PHE694  ASN695  SER759  ASP760  ASP761  ALA762  ILE779  LEU786  VAL792 
 PHE793  MET794  SER795  GLU796  ALA797  LYS798  CYS799  TRP800  GLU811  SER814 

> <Gold.Protein.RotatedAtoms>
  151.7581  133.3332  159.3409 H   0  0  0  0  0  0  0  0  0  0  0  0  # atno 6907 bound_to 6896
  150.7509  134.6131  159.6106 H   0  0  0  0  0  0  0  0  0  0  0  0  # atno 6908 bound_to 6896
  152.3424  134.7119  160.0311 H   0  0  0  0  0  0  0  0  0  0  0  0  # atno 6909 bound_to 6896
  144.7871  139.7417  143.6236 H   0  0  0  0  0  0  0  0  0  0  0  0  # atno 7974 bound_to 7965
  155.1873  140.3305  155.4364 H   0  0  0  0  0  0  0  0  0  0  0  0  # atno 8008 bound_to 7997
  156.2455  140.1916  156.6918 H   0  0  0  0  0  0  0  0  0  0  0  0  # atno 8009 bound_to 7997
  154.6230  140.0593  156.9624 H   0  0  0  0  0  0  0  0  0  0  0  0  # atno 8010 bound_to 7997
  140.5489  143.9545  150.6565 H   0  0  0  0  0  0  0  0  0  0  0  0  # atno 10167 bound_to 10162
  157.3131  131.0891  151.1300 H   0  0  0  0  0  0  0  0  0  0  0  0  # atno 10718 bound_to 10713
  154.8743  135.3798  154.4409 H   0  0  0  0  0  0  0  0  0  0  0  0  # atno 10763 bound_to 10752
  153.5094  135.7030  153.5794 H   0  0  0  0  0  0  0  0  0  0  0  0  # atno 10764 bound_to 10752
  153.4091  135.3929  155.2004 H   0  0  0  0  0  0  0  0  0  0  0  0  # atno 10765 bound_to 10752
  140.8092  133.8154  155.9546 H   0  0  0  0  0  0  0  0  0  0  0  0  # atno 11005 bound_to 11000
  146.2108  139.5462  142.9682 LP  0  0  0  0  0  0  0  0  0  0  0  0  # atno 17320 bound_to 7965
  145.5892  141.0372  143.2079 LP  0  0  0  0  0  0  0  0  0  0  0  0  # atno 17321 bound_to 7965
  140.2966  143.3288  152.1012 LP  0  0  0  0  0  0  0  0  0  0  0  0  # atno 17342 bound_to 10162
  139.5019  144.6723  151.6213 LP  0  0  0  0  0  0  0  0  0  0  0  0  # atno 17343 bound_to 10162
  157.2615  130.6661  149.5977 LP  0  0  0  0  0  0  0  0  0  0  0  0  # atno 17370 bound_to 10713
  155.9679  130.4507  150.5708 LP  0  0  0  0  0  0  0  0  0  0  0  0  # atno 17371 bound_to 10713
  140.9216  134.2135  157.4923 LP  0  0  0  0  0  0  0  0  0  0  0  0  # atno 17394 bound_to 11000
  139.8715  134.9794  156.5037 LP  0  0  0  0  0  0  0  0  0  0  0  0  # atno 17395 bound_to 11000

$$$$
