AV-unprocessed.smi:2458|AV-procd|sdf|9710|dock2
  -GOLD-   2272013353D 1   1.00000     0.00000
 Structure written by MMmdl.
 47 48  0  0  0  0  0  0  0  0  1 V2000
  150.5845  139.4891  156.8910 C   0  0  0  0  0  0  0  0  0  0  0  0
  150.5815  140.9864  156.5253 C   0  0  0  0  0  0  0  0  0  0  0  0
  150.8170  141.8076  157.8080 C   0  0  0  0  0  0  0  0  0  0  0  0
  149.2938  141.4162  155.7616 C   0  0  1  0  0  0  0  0  0  0  0  0
  149.2158  140.8027  154.3423 C   0  0  0  0  0  0  0  0  0  0  0  0
  147.9383  141.2133  153.5849 C   0  0  0  0  0  0  0  0  0  0  0  0
  146.6331  140.9259  154.3571 C   0  0  1  0  0  0  0  0  0  0  0  0
  146.2274  139.4400  154.3275 C   0  0  0  0  0  0  0  0  0  0  0  0
  146.2194  138.7626  155.3551 O   0  0  0  0  0  0  0  0  0  0  0  0
  145.8902  138.9419  153.1290 N   0  0  0  0  0  0  0  0  0  0  0  0
  145.4697  137.5669  152.8934 C   0  0  0  0  0  0  0  0  0  0  0  0
  146.3667  136.8886  151.8429 C   0  0  2  0  0  0  0  0  0  0  0  0
  146.4640  137.7364  150.7151 O   0  0  0  0  0  0  0  0  0  0  0  0
  145.8302  135.5177  151.4632 C   0  0  0  0  0  0  0  0  0  0  0  0
  146.5251  134.3367  151.8037 C   0  0  0  0  0  0  0  0  0  0  0  0
  145.9869  133.0940  151.4177 C   0  0  0  0  0  0  0  0  0  0  0  0
  144.7730  133.0822  150.7029 C   0  0  0  0  0  0  0  0  0  0  0  0
  144.0994  134.2035  150.3683 N   0  0  0  0  0  0  0  0  0  0  0  0
  144.6224  135.3911  150.7426 C   0  0  0  0  0  0  0  0  0  0  0  0
  146.7275  141.4878  155.7902 C   0  0  0  0  0  0  0  0  0  0  0  0
  148.0032  141.0602  156.5384 C   0  0  0  0  0  0  0  0  0  0  0  0
  149.3219  142.5011  155.6495 H   0  0  0  0  0  0  0  0  0  0  0  0
  145.8375  141.4749  153.8501 H   0  0  0  0  0  0  0  0  0  0  0  0
  149.6953  139.2181  157.4614 H   0  0  0  0  0  0  0  0  0  0  0  0
  151.4544  139.2335  157.4967 H   0  0  0  0  0  0  0  0  0  0  0  0
  150.6285  138.8518  156.0086 H   0  0  0  0  0  0  0  0  0  0  0  0
  151.4366  141.1601  155.8706 H   0  0  0  0  0  0  0  0  0  0  0  0
  149.9555  141.7585  158.4747 H   0  0  0  0  0  0  0  0  0  0  0  0
  151.0194  142.8559  157.5919 H   0  0  0  0  0  0  0  0  0  0  0  0
  151.6816  141.4366  158.3590 H   0  0  0  0  0  0  0  0  0  0  0  0
  150.0653  141.1234  153.7409 H   0  0  0  0  0  0  0  0  0  0  0  0
  149.2857  139.7168  154.4046 H   0  0  0  0  0  0  0  0  0  0  0  0
  147.9888  142.2818  153.3709 H   0  0  0  0  0  0  0  0  0  0  0  0
  147.9163  140.7192  152.6125 H   0  0  0  0  0  0  0  0  0  0  0  0
  145.9145  139.5580  152.3293 H   0  0  0  0  0  0  0  0  0  0  0  0
  145.5545  137.0359  153.8430 H   0  0  0  0  0  0  0  0  0  0  0  0
  144.4197  137.5227  152.5978 H   0  0  0  0  0  0  0  0  0  0  0  0
  147.3720  136.7614  152.2476 H   0  0  0  0  0  0  0  0  0  0  0  0
  145.6541  138.2150  150.6276 H   0  0  0  0  0  0  0  0  0  0  0  0
  147.4563  134.3802  152.3493 H   0  0  0  0  0  0  0  0  0  0  0  0
  146.4931  132.1719  151.6624 H   0  0  0  0  0  0  0  0  0  0  0  0
  144.3320  132.1471  150.3907 H   0  0  0  0  0  0  0  0  0  0  0  0
  144.0580  136.2662  150.4555 H   0  0  0  0  0  0  0  0  0  0  0  0
  146.6978  142.5771  155.7426 H   0  0  0  0  0  0  0  0  0  0  0  0
  145.8498  141.1941  156.3678 H   0  0  0  0  0  0  0  0  0  0  0  0
  147.9778  139.9902  156.7456 H   0  0  0  0  0  0  0  0  0  0  0  0
  147.9910  141.5553  157.5082 H   0  0  0  0  0  0  0  0  0  0  0  0
  1  2  1  0  0  0  0
  1 24  1  0  0  0  0
  1 25  1  0  0  0  0
  1 26  1  0  0  0  0
  2  3  1  0  0  0  0
  2  4  1  0  0  0  0
  2 27  1  0  0  0  0
  3 28  1  0  0  0  0
  3 29  1  0  0  0  0
  3 30  1  0  0  0  0
  4 22  1  0  0  0  0
  4 21  1  0  0  0  0
  4  5  1  0  0  0  0
  5  6  1  0  0  0  0
  5 31  1  0  0  0  0
  5 32  1  0  0  0  0
  6  7  1  0  0  0  0
  6 33  1  0  0  0  0
  6 34  1  0  0  0  0
  7 23  1  0  0  0  0
  7  8  1  0  0  0  0
  7 20  1  0  0  0  0
  8  9  2  0  0  0  0
  8 10  1  0  0  0  0
 10 11  1  0  0  0  0
 10 35  1  0  0  0  0
 11 12  1  0  0  0  0
 11 36  1  0  0  0  0
 11 37  1  0  0  0  0
 12 13  1  0  0  0  0
 12 14  1  0  0  0  0
 12 38  1  0  0  0  0
 13 39  1  0  0  0  0
 14 19  1  0  0  0  0
 14 15  2  0  0  0  0
 15 16  1  0  0  0  0
 15 40  1  0  0  0  0
 16 17  2  0  0  0  0
 16 41  1  0  0  0  0
 17 18  1  0  0  0  0
 17 42  1  0  0  0  0
 18 19  2  0  0  0  0
 19 43  1  0  0  0  0
 20 21  1  0  0  0  0
 20 44  1  0  0  0  0
 20 45  1  0  0  0  0
 21 46  1  0  0  0  0
 21 47  1  0  0  0  0
M  END
> <s_m_source_file>
AV-unprocessed.smi

> <i_m_source_file_index>
2458

> <i_lp_mmshare_version>
43012

> <i_f3d_flags>
0

> <s_epik_input>
W0NIM11bQ0hdKFtDSDNdKVtDQEhdMVtDSDJdW0NIMl1bQ0BASF0oW0NIMl1bQ0gyXTEpQyg9TylbTkhdW0NIMl1bQ0BIXShbT0hdKWMyW2NIXVtjSF1bY0hdbltjSF0y

> <s_epik_cmdline>
J2VwaWtfcHl0aG9uJywgJy1waCcsICc3LjAnLCAnLXRuJywgJzgnLCAnLW1hJywgJzIwMCcsICctbWV0YWxfYmluZGluZycsICctaW1hZScsICc8aW5maWxlLm1hZT4nLCAnLW9tYWUnLCAnPG91dGZpbGUubWFlPic=

> <r_epik_Ionization_Penalty>
0.00169206

> <r_epik_Ionization_Penalty_Charging>
0

> <r_epik_Ionization_Penalty_Neutral>
0.00169206

> <r_epik_State_Penalty>
0.0011427

> <r_epik_Charging_Adjusted_Penalty>
0.0011427

> <i_epik_Tot_Q>
0

> <i_epik_Tot_abs_Q>
0

> <r_epik_Metal_State_Penalty>
-0

> <b_epik_Metal_Only>
0

> <s_lp_Force_Field>
OPLS_2005

> <r_lp_Energy>
16.378

> <b_lp_Chiralities_Consistent>
1

> <s_lp_Variant>
AV-unprocessed.smi:2458-3

> <Gold.Version>
5.8.1

> <Gold.Id.Protein>
6NUR|6NUR_protein|mol2

> <Gold.PLP.Fitness>
40.3910

> <Gold.PLP.PLP>
-32.0305

> <Gold.PLP.part.hbond>
-3.8766

> <Gold.PLP.part.metal>
0.0000

> <Gold.PLP.part.buried>
-0.4970

> <Gold.PLP.part.nonpolar>
-28.5772

> <Gold.PLP.part.repulsive>
0.2562

> <Gold.PLP.ligand.clash>
0.0000

> <Gold.PLP.ligand.torsion>
0.3814

> <Gold.PLP.Chemscore.Hbond>
2.0000

> <Gold.PLP.Chemscore.CHOScore>
1.0000

> <Gold.PLP.Chemscore.Metal>
0.0000

> <Gold.Chemscore.Hbonds>
donor molecule, donor type, donor heavy atom, donor atom, acceptor molecule, acceptor atom, score
      L1  H    13    39       P1 10171  1.00
      P1  H  7954  7966       L1    13  1.00
      L1  C    19    43       P1 10171  1.00

> <Gold.PLP.Chemscore.Internal.Correction>
0.1233

> <Gold.Rescore>
     Score         DG    S(hbond)    S(metal)    S(lipo)     H(rot)  DE(clash)    DE(int)     intcor
     15.32     -17.42       1.93        0.00      92.00       2.06       1.48       0.62       ----

> <Gold.Chemscore.Fitness>
15.3215

> <Gold.Chemscore.DG>
-17.4188

> <Gold.Chemscore.ZeroCoef>
-5.4800

> <Gold.Chemscore.Hbond>
1.9296

> <Gold.Chemscore.Metal>
0.0000

> <Gold.Chemscore.Lipo>
92.0031

> <Gold.Chemscore.Internal_Hbond>
0.0000

> <Gold.Chemscore.DEClash>
1.4802

> <Gold.Chemscore.DEInternal>
0.6171

> <Gold.Chemscore.Rot>
2.0588

> <Gold.Chemscore.Internal.Correction>
   9.000000E+99

> <Gold.Chemscore.Hbonds>
donor molecule, donor type, donor heavy atom, donor atom, acceptor molecule, acceptor atom, score
      L1  H    10    35       P1 10175  0.01
      L1  H    13    39       P1 10171  0.95
      P1  H  7954  7966       L1    13  0.91

> <Gold.Chemscore.Hbond.Weighted>
-6.4449

> <Gold.Chemscore.Metal.Weighted>
-0.0000

> <Gold.Chemscore.Lipo.Weighted>
-10.7644

> <Gold.Chemscore.Internal_Hbond.Weighted>
0.0000

> <Gold.Chemscore.DEClash.Weighted>
1.4802

> <Gold.Chemscore.DEInternal.Weighted>
0.6171

> <Gold.Chemscore.Rot.Weighted>
5.2705

> <Gold.Chemscore.Internal.Correction.Weighted>
   9.000000E+99

> <Gold.Protein.RotatedTorsions>
[ 6907 6896 6895 6894 ] final  157.81 input  -60.11 | X-H torsion
[ 7974 7965 7964 7962 ] final -127.22 input  175.53 | X-H torsion
[ 8008 7997 7996 7995 ] final  -67.15 input   59.86 | X-H torsion
[ 10167 10162 10161 10158 ] final -129.50 input  -65.29 | X-H torsion
[ 10718 10713 10712 10709 ] final  176.22 input   66.30 | X-H torsion
[ 10763 10752 10751 10750 ] final   23.59 input  -60.55 | X-H torsion
[ 11005 11000 10999 10996 ] final  -84.33 input  -57.11 | X-H torsion

> <Gold.Protein.ActiveResidues>
 VAL166  LYS551  ARG553  GLY616  TRP617  ASP618  TYR619  PRO620  LYS621  CYS622 
 ASP623  PHE694  ASN695  SER759  ASP760  ASP761  ALA762  ILE779  LEU786  VAL792 
 PHE793  MET794  SER795  GLU796  ALA797  LYS798  CYS799  TRP800  GLU811  SER814 

> <Gold.Protein.RotatedAtoms>
  152.0096  133.3856  159.4214 H   0  0  0  0  0  0  0  0  0  0  0  0  # atno 6907 bound_to 6896
  150.6901  134.3745  159.5016 H   0  0  0  0  0  0  0  0  0  0  0  0  # atno 6908 bound_to 6896
  152.1503  134.8993  160.0599 H   0  0  0  0  0  0  0  0  0  0  0  0  # atno 6909 bound_to 6896
  144.9793  140.7624  143.4622 H   0  0  0  0  0  0  0  0  0  0  0  0  # atno 7974 bound_to 7965
  154.4781  140.0898  156.7311 H   0  0  0  0  0  0  0  0  0  0  0  0  # atno 8008 bound_to 7997
  155.4543  140.3458  155.4286 H   0  0  0  0  0  0  0  0  0  0  0  0  # atno 8009 bound_to 7997
  156.1148  140.1458  156.9276 H   0  0  0  0  0  0  0  0  0  0  0  0  # atno 8010 bound_to 7997
  139.9391  143.6183  152.2508 H   0  0  0  0  0  0  0  0  0  0  0  0  # atno 10167 bound_to 10162
  156.9234  130.9948  151.3000 H   0  0  0  0  0  0  0  0  0  0  0  0  # atno 10718 bound_to 10713
  153.0827  135.6623  154.0012 H   0  0  0  0  0  0  0  0  0  0  0  0  # atno 10763 bound_to 10752
  153.9630  135.2972  155.3433 H   0  0  0  0  0  0  0  0  0  0  0  0  # atno 10764 bound_to 10752
  154.7229  135.5157  153.8912 H   0  0  0  0  0  0  0  0  0  0  0  0  # atno 10765 bound_to 10752
  141.1651  133.7340  156.8852 H   0  0  0  0  0  0  0  0  0  0  0  0  # atno 11005 bound_to 11000
  145.2444  139.2058  143.4975 LP  0  0  0  0  0  0  0  0  0  0  0  0  # atno 17320 bound_to 7965
  146.3404  140.2346  142.8594 LP  0  0  0  0  0  0  0  0  0  0  0  0  # atno 17321 bound_to 7965
  139.6719  144.7660  151.1768 LP  0  0  0  0  0  0  0  0  0  0  0  0  # atno 17342 bound_to 10162
  140.7616  143.5853  150.8853 LP  0  0  0  0  0  0  0  0  0  0  0  0  # atno 17343 bound_to 10162
  157.5893  130.8432  149.8636 LP  0  0  0  0  0  0  0  0  0  0  0  0  # atno 17370 bound_to 10713
  156.0480  130.3723  150.1269 LP  0  0  0  0  0  0  0  0  0  0  0  0  # atno 17371 bound_to 10713
  140.1687  134.9115  157.2806 LP  0  0  0  0  0  0  0  0  0  0  0  0  # atno 17394 bound_to 11000
  140.2527  134.3664  155.7436 LP  0  0  0  0  0  0  0  0  0  0  0  0  # atno 17395 bound_to 11000

$$$$
