AV-unprocessed.smi:2482|AV-procd|sdf|9783|dock4
  -GOLD-   2272013423D 1   1.00000     0.00000
 Structure written by MMmdl.
 34 35  0  0  0  0  0  0  0  0  3 V2000
  151.8548  144.5020  160.2750 C   0  0  0  0  0  0  0  0  0  0  0  0
  152.4432  143.1127  160.1138 C   0  0  0  0  0  0  0  0  0  0  0  0
  153.1192  142.6393  161.1827 N   0  0  0  0  0  0  0  0  0  0  0  0
  153.6646  141.4107  161.0868 C   0  0  0  0  0  0  0  0  0  0  0  0
  153.5601  140.6066  159.9362 C   0  0  0  0  0  0  0  0  0  0  0  0
  152.8489  141.0851  158.8132 C   0  0  0  0  0  0  0  0  0  0  0  0
  152.7461  140.3311  157.7063 N   0  5  0  0  0  0  0  0  0  0  0  0
  151.5534  139.7835  157.3691 C   0  0  0  0  0  0  0  0  0  0  0  0
  150.8933  138.9447  157.9864 O   0  0  0  0  0  0  0  0  0  0  0  0
  151.0332  140.3439  156.0264 C   0  0  2  0  0  0  0  0  0  0  0  0
  149.6734  139.7615  155.5729 C   0  0  0  0  0  0  0  0  0  0  0  0
  149.8106  138.3447  155.1594 N   0  3  1  0  0  0  0  0  0  0  0  0
  148.5194  137.7315  154.7837 C   0  0  0  0  0  0  0  0  0  0  0  0
  150.8424  138.2004  154.1078 C   0  0  0  0  0  0  0  0  0  0  0  0
  152.1787  138.7904  154.5868 C   0  0  0  0  0  0  0  0  0  0  0  0
  151.9894  140.1500  154.9768 O   0  0  0  0  0  0  0  0  0  0  0  0
  152.2814  142.3824  158.9121 C   0  0  0  0  0  0  0  0  0  0  0  0
  151.4014  143.0709  157.5862 Cl  0  0  0  0  0  0  0  0  0  0  0  0
  150.7706  144.4695  160.1646 H   0  0  0  0  0  0  0  0  0  0  0  0
  152.2593  145.1746  159.5181 H   0  0  0  0  0  0  0  0  0  0  0  0
  152.0814  144.9230  161.2553 H   0  0  0  0  0  0  0  0  0  0  0  0
  154.2025  141.0564  161.9534 H   0  0  0  0  0  0  0  0  0  0  0  0
  154.0209  139.6297  159.9194 H   0  0  0  0  0  0  0  0  0  0  0  0
  150.9097  141.4201  156.1577 H   0  0  0  0  0  0  0  0  0  0  0  0
  148.9376  139.8445  156.3744 H   0  0  0  0  0  0  0  0  0  0  0  0
  149.2866  140.3451  154.7360 H   0  0  0  0  0  0  0  0  0  0  0  0
  148.0882  138.2282  153.9135 H   0  0  0  0  0  0  0  0  0  0  0  0
  147.8078  137.8016  155.6070 H   0  0  0  0  0  0  0  0  0  0  0  0
  148.6506  136.6755  154.5461 H   0  0  0  0  0  0  0  0  0  0  0  0
  150.9715  137.1465  153.8581 H   0  0  0  0  0  0  0  0  0  0  0  0
  150.5137  138.7085  153.1998 H   0  0  0  0  0  0  0  0  0  0  0  0
  152.5958  138.1995  155.4031 H   0  0  0  0  0  0  0  0  0  0  0  0
  152.9100  138.7594  153.7790 H   0  0  0  0  0  0  0  0  0  0  0  0
  150.1479  137.8428  155.9692 H   0  0  0  0  0  0  0  0  0  0  0  0
  1  2  1  0  0  0  0
  1 19  1  0  0  0  0
  1 20  1  0  0  0  0
  1 21  1  0  0  0  0
  2 17  1  0  0  0  0
  2  3  2  0  0  0  0
  3  4  1  0  0  0  0
  4  5  2  0  0  0  0
  4 22  1  0  0  0  0
  5  6  1  0  0  0  0
  5 23  1  0  0  0  0
  6  7  1  0  0  0  0
  6 17  2  0  0  0  0
  7  8  1  0  0  0  0
  8  9  2  0  0  0  0
  8 10  1  0  0  0  0
 10 16  1  0  0  0  0
 10 11  1  0  0  0  0
 10 24  1  0  0  0  0
 11 12  1  0  0  0  0
 11 25  1  0  0  0  0
 11 26  1  0  0  0  0
 12 13  1  0  0  0  0
 12 14  1  0  0  0  0
 12 34  1  0  0  0  0
 13 27  1  0  0  0  0
 13 28  1  0  0  0  0
 13 29  1  0  0  0  0
 14 15  1  0  0  0  0
 14 30  1  0  0  0  0
 14 31  1  0  0  0  0
 15 16  1  0  0  0  0
 15 32  1  0  0  0  0
 15 33  1  0  0  0  0
 17 18  1  0  0  0  0
M  CHG  1   7  -1
M  CHG  1  12   1
M  END
> <s_m_source_file>
AV-unprocessed.smi

> <i_m_source_file_index>
2482

> <i_lp_mmshare_version>
43012

> <i_f3d_flags>
0

> <s_epik_input>
W0NIM11jMW5bY0hdW2NIXWMoYzFDbClbTkhdQyg9TylbQ0BASF0yW0NIMl1OKFtDSDNdKVtDSDJdW0NIMl1PMg==

> <s_epik_cmdline>
J2VwaWtfcHl0aG9uJywgJy1waCcsICc3LjAnLCAnLXRuJywgJzgnLCAnLW1hJywgJzIwMCcsICctbWV0YWxfYmluZGluZycsICctaW1hZScsICc8aW5maWxlLm1hZT4nLCAnLW9tYWUnLCAnPG91dGZpbGUubWFlPic=

> <r_epik_Ionization_Penalty>
6.9249

> <r_epik_Ionization_Penalty_Charging>
6.74596

> <r_epik_Ionization_Penalty_Neutral>
0.178941

> <r_epik_State_Penalty>
6.78185

> <r_epik_Charging_Adjusted_Penalty>
13.5278

> <i_epik_Tot_Q>
0

> <i_epik_Tot_abs_Q>
2

> <r_epik_Metal_State_Penalty>
2.70608

> <b_epik_Metal_Only>
1

> <s_lp_Force_Field>
OPLS_2005

> <r_lp_Energy>
12.3895

> <b_lp_Chiralities_Consistent>
1

> <s_lp_Variant>
AV-unprocessed.smi:2482-9

> <Gold.Version>
5.8.1

> <Gold.Id.Protein>
6NUR|6NUR_protein|mol2

> <Gold.PLP.Fitness>
42.9515

> <Gold.PLP.PLP>
-36.7836

> <Gold.PLP.part.hbond>
-2.0000

> <Gold.PLP.part.metal>
0.0000

> <Gold.PLP.part.buried>
-5.5907

> <Gold.PLP.part.nonpolar>
-29.8186

> <Gold.PLP.part.repulsive>
0.0825

> <Gold.PLP.ligand.clash>
0.0000

> <Gold.PLP.ligand.torsion>
1.2877

> <Gold.PLP.Chemscore.Hbond>
2.7520

> <Gold.PLP.Chemscore.CHOScore>
0.0000

> <Gold.PLP.Chemscore.Metal>
0.0000

> <Gold.Chemscore.Hbonds>
donor molecule, donor type, donor heavy atom, donor atom, acceptor molecule, acceptor atom, score
      P1  H  7989  7998       L1    16  0.80
      P1  H  7997  8008       L1     7  1.86

> <Gold.PLP.Chemscore.Internal.Correction>
0.4873

> <Gold.Rescore>
     Score         DG    S(hbond)    S(metal)    S(lipo)     H(rot)  DE(clash)    DE(int)     intcor
     18.35     -19.67       1.48        0.00     100.78       1.00       0.00       1.32       ----

> <Gold.Chemscore.Fitness>
18.3491

> <Gold.Chemscore.DG>
-19.6692

> <Gold.Chemscore.ZeroCoef>
-5.4800

> <Gold.Chemscore.Hbond>
1.4844

> <Gold.Chemscore.Metal>
0.0000

> <Gold.Chemscore.Lipo>
100.7793

> <Gold.Chemscore.Internal_Hbond>
0.0000

> <Gold.Chemscore.DEClash>
0.0013

> <Gold.Chemscore.DEInternal>
1.3188

> <Gold.Chemscore.Rot>
1.0000

> <Gold.Chemscore.Internal.Correction>
   9.000000E+99

> <Gold.Chemscore.Hbonds>
donor molecule, donor type, donor heavy atom, donor atom, acceptor molecule, acceptor atom, score
      P1  H  7989  7998       L1    16  0.22
      P1  H  7997  8008       L1     7  0.73

> <Gold.Chemscore.Hbond.Weighted>
-4.9580

> <Gold.Chemscore.Metal.Weighted>
-0.0000

> <Gold.Chemscore.Lipo.Weighted>
-11.7912

> <Gold.Chemscore.Internal_Hbond.Weighted>
0.0000

> <Gold.Chemscore.DEClash.Weighted>
0.0013

> <Gold.Chemscore.DEInternal.Weighted>
1.3188

> <Gold.Chemscore.Rot.Weighted>
2.5600

> <Gold.Chemscore.Internal.Correction.Weighted>
   9.000000E+99

> <Gold.Protein.RotatedTorsions>
[ 6907 6896 6895 6894 ] final   -1.38 input  -60.11 | X-H torsion
[ 7974 7965 7964 7962 ] final   97.84 input  175.53 | X-H torsion
[ 8008 7997 7996 7995 ] final  -72.78 input   59.86 | X-H torsion
[ 10167 10162 10161 10158 ] final -102.76 input  -65.29 | X-H torsion
[ 10718 10713 10712 10709 ] final  -24.25 input   66.30 | X-H torsion
[ 10763 10752 10751 10750 ] final -152.62 input  -60.55 | X-H torsion
[ 11005 11000 10999 10996 ] final  147.07 input  -57.11 | X-H torsion

> <Gold.Protein.ActiveResidues>
 VAL166  LYS551  ARG553  GLY616  TRP617  ASP618  TYR619  PRO620  LYS621  CYS622 
 ASP623  PHE694  ASN695  SER759  ASP760  ASP761  ALA762  ILE779  LEU786  VAL792 
 PHE793  MET794  SER795  GLU796  ALA797  LYS798  CYS799  TRP800  GLU811  SER814 

> <Gold.Protein.RotatedAtoms>
  151.5469  135.1068  159.9939 H   0  0  0  0  0  0  0  0  0  0  0  0  # atno 6907 bound_to 6896
  152.4509  133.7624  159.6764 H   0  0  0  0  0  0  0  0  0  0  0  0  # atno 6908 bound_to 6896
  150.8438  133.7828  159.3075 H   0  0  0  0  0  0  0  0  0  0  0  0  # atno 6909 bound_to 6896
  145.4202  139.2322  143.3200 H   0  0  0  0  0  0  0  0  0  0  0  0  # atno 7974 bound_to 7965
  154.5193  140.0791  156.8142 H   0  0  0  0  0  0  0  0  0  0  0  0  # atno 8008 bound_to 7997
  155.3610  140.3418  155.4222 H   0  0  0  0  0  0  0  0  0  0  0  0  # atno 8009 bound_to 7997
  156.1664  140.1605  156.8512 H   0  0  0  0  0  0  0  0  0  0  0  0  # atno 8010 bound_to 7997
  140.2272  143.3633  152.0918 H   0  0  0  0  0  0  0  0  0  0  0  0  # atno 10167 bound_to 10162
  156.4801  130.4543  149.6816 H   0  0  0  0  0  0  0  0  0  0  0  0  # atno 10718 bound_to 10713
  154.7982  135.3232  154.7616 H   0  0  0  0  0  0  0  0  0  0  0  0  # atno 10763 bound_to 10752
  153.8290  135.6881  153.4821 H   0  0  0  0  0  0  0  0  0  0  0  0  # atno 10764 bound_to 10752
  153.1684  135.4633  154.9811 H   0  0  0  0  0  0  0  0  0  0  0  0  # atno 10765 bound_to 10752
  140.0845  134.9077  157.1554 H   0  0  0  0  0  0  0  0  0  0  0  0  # atno 11005 bound_to 11000
  146.2660  140.4925  142.8834 LP  0  0  0  0  0  0  0  0  0  0  0  0  # atno 17320 bound_to 7965
  144.8250  140.6614  143.6328 LP  0  0  0  0  0  0  0  0  0  0  0  0  # atno 17321 bound_to 7965
  139.5123  144.6914  151.5749 LP  0  0  0  0  0  0  0  0  0  0  0  0  # atno 17342 bound_to 10162
  140.6212  143.9255  150.6527 LP  0  0  0  0  0  0  0  0  0  0  0  0  # atno 17343 bound_to 10162
  156.3530  130.7442  151.2404 LP  0  0  0  0  0  0  0  0  0  0  0  0  # atno 17370 bound_to 10713
  157.7484  131.0372  150.4443 LP  0  0  0  0  0  0  0  0  0  0  0  0  # atno 17371 bound_to 10713
  140.3440  134.2673  155.7208 LP  0  0  0  0  0  0  0  0  0  0  0  0  # atno 17394 bound_to 11000
  141.2058  133.7850  157.0213 LP  0  0  0  0  0  0  0  0  0  0  0  0  # atno 17395 bound_to 11000

$$$$
