AV-unprocessed.smi:2429|AV-procd|sdf|9582|dock2
  -GOLD-   2272013213D 1   1.00000     0.00000
 Structure written by MMmdl.
 34 35  0  0  0  0  0  0  0  0  1 V2000
  145.7435  132.9554  150.3303 C   0  0  0  0  0  0  0  0  0  0  0  0
  145.6377  134.0886  151.3737 C   0  0  0  0  0  0  0  0  0  0  0  0
  146.8870  134.1794  152.1447 N   0  0  0  0  0  0  0  0  0  0  0  0
  147.4629  133.2451  152.9200 C   0  0  0  0  0  0  0  0  0  0  0  0
  147.0003  132.1192  153.0999 O   0  0  0  0  0  0  0  0  0  0  0  0
  148.6106  133.7044  153.4469 N   0  0  0  0  0  0  0  0  0  0  0  0
  149.5149  133.0479  154.3256 C   0  0  0  0  0  0  0  0  0  0  0  0
  149.7600  131.6532  154.3194 C   0  0  0  0  0  0  0  0  0  0  0  0
  150.6694  131.1238  155.2571 C   0  0  0  0  0  0  0  0  0  0  0  0
  151.3175  131.8758  156.1720 N   0  0  0  0  0  0  0  0  0  0  0  0
  151.0700  133.2025  156.1845 C   0  0  0  0  0  0  0  0  0  0  0  0
  150.1799  133.8322  155.2916 C   0  0  0  0  0  0  0  0  0  0  0  0
  149.9732  135.1697  155.3619 F   0  0  0  0  0  0  0  0  0  0  0  0
  145.2854  135.4327  150.6907 C   0  0  0  0  0  0  0  0  0  0  0  0
  144.9540  136.5310  151.7169 C   0  0  0  0  0  0  0  0  0  0  0  0
  143.8805  136.1063  152.5483 O   0  0  0  0  0  0  0  0  0  0  0  0
  144.1916  134.9424  153.3051 C   0  0  0  0  0  0  0  0  0  0  0  0
  144.4967  133.7631  152.3618 C   0  0  0  0  0  0  0  0  0  0  0  0
  144.7980  132.8120  149.8063 H   0  0  0  0  0  0  0  0  0  0  0  0
  146.0031  132.0063  150.8006 H   0  0  0  0  0  0  0  0  0  0  0  0
  146.4975  133.1653  149.5716 H   0  0  0  0  0  0  0  0  0  0  0  0
  147.3708  135.0626  152.0732 H   0  0  0  0  0  0  0  0  0  0  0  0
  148.9033  134.6205  153.1396 H   0  0  0  0  0  0  0  0  0  0  0  0
  149.2670  130.9829  153.6324 H   0  0  0  0  0  0  0  0  0  0  0  0
  150.8768  130.0641  155.2767 H   0  0  0  0  0  0  0  0  0  0  0  0
  151.5958  133.7808  156.9299 H   0  0  0  0  0  0  0  0  0  0  0  0
  146.0857  135.7682  150.0315 H   0  0  0  0  0  0  0  0  0  0  0  0
  144.4156  135.2917  150.0474 H   0  0  0  0  0  0  0  0  0  0  0  0
  145.8251  136.7816  152.3241 H   0  0  0  0  0  0  0  0  0  0  0  0
  144.6561  137.4440  151.2013 H   0  0  0  0  0  0  0  0  0  0  0  0
  145.0312  135.1437  153.9720 H   0  0  0  0  0  0  0  0  0  0  0  0
  143.3390  134.6998  153.9395 H   0  0  0  0  0  0  0  0  0  0  0  0
  143.5888  133.5225  151.8065 H   0  0  0  0  0  0  0  0  0  0  0  0
  144.7382  132.8738  152.9456 H   0  0  0  0  0  0  0  0  0  0  0  0
  1  2  1  0  0  0  0
  1 19  1  0  0  0  0
  1 20  1  0  0  0  0
  1 21  1  0  0  0  0
  2 18  1  0  0  0  0
  2  3  1  0  0  0  0
  2 14  1  0  0  0  0
  3  4  1  0  0  0  0
  3 22  1  0  0  0  0
  4  5  2  0  0  0  0
  4  6  1  0  0  0  0
  6  7  1  0  0  0  0
  6 23  1  0  0  0  0
  7 12  1  0  0  0  0
  7  8  2  0  0  0  0
  8  9  1  0  0  0  0
  8 24  1  0  0  0  0
  9 10  2  0  0  0  0
  9 25  1  0  0  0  0
 10 11  1  0  0  0  0
 11 12  2  0  0  0  0
 11 26  1  0  0  0  0
 12 13  1  0  0  0  0
 14 15  1  0  0  0  0
 14 27  1  0  0  0  0
 14 28  1  0  0  0  0
 15 16  1  0  0  0  0
 15 29  1  0  0  0  0
 15 30  1  0  0  0  0
 16 17  1  0  0  0  0
 17 18  1  0  0  0  0
 17 31  1  0  0  0  0
 17 32  1  0  0  0  0
 18 33  1  0  0  0  0
 18 34  1  0  0  0  0
M  END
> <s_m_source_file>
AV-unprocessed.smi

> <i_m_source_file_index>
2429

> <i_lp_mmshare_version>
43012

> <i_f3d_flags>
0

> <s_epik_input>
W0NIMl0xW0NIMl1PW0NIMl1bQ0gyXUMxKFtDSDNdKVtOSF1DKD1PKVtOSF1jMltjSF1bY0hdbltjSF1jMkY=

> <s_epik_cmdline>
J2VwaWtfcHl0aG9uJywgJy1waCcsICc3LjAnLCAnLXRuJywgJzgnLCAnLW1hJywgJzIwMCcsICctbWV0YWxfYmluZGluZycsICctaW1hZScsICc8aW5maWxlLm1hZT4nLCAnLW9tYWUnLCAnPG91dGZpbGUubWFlPic=

> <r_epik_Ionization_Penalty>
0.00367474

> <r_epik_Ionization_Penalty_Charging>
0

> <r_epik_Ionization_Penalty_Neutral>
0.00367474

> <r_epik_State_Penalty>
0.00258877

> <r_epik_Charging_Adjusted_Penalty>
0.00258877

> <i_epik_Tot_Q>
0

> <i_epik_Tot_abs_Q>
0

> <r_epik_Metal_State_Penalty>
-0

> <b_epik_Metal_Only>
0

> <s_lp_Force_Field>
OPLS_2005

> <r_lp_Energy>
14.8008

> <b_lp_Chiralities_Consistent>
1

> <s_lp_Variant>
AV-unprocessed.smi:2429-1

> <Gold.Version>
5.8.1

> <Gold.Id.Protein>
6NUR|6NUR_protein|mol2

> <Gold.PLP.Fitness>
34.3625

> <Gold.PLP.PLP>
-29.2770

> <Gold.PLP.part.hbond>
-2.0000

> <Gold.PLP.part.metal>
0.0000

> <Gold.PLP.part.buried>
-3.4416

> <Gold.PLP.part.nonpolar>
-23.8485

> <Gold.PLP.part.repulsive>
0.2612

> <Gold.PLP.ligand.clash>
0.0000

> <Gold.PLP.ligand.torsion>
0.2361

> <Gold.PLP.Chemscore.Hbond>
1.8500

> <Gold.PLP.Chemscore.CHOScore>
0.0000

> <Gold.PLP.Chemscore.Metal>
0.0000

> <Gold.Chemscore.Hbonds>
donor molecule, donor type, donor heavy atom, donor atom, acceptor molecule, acceptor atom, score
      L1  H     3    22       P1  7948  1.00
      L1  H     6    23       P1  7948  0.75

> <Gold.PLP.Chemscore.Internal.Correction>
0.0078

> <Gold.Rescore>
     Score         DG    S(hbond)    S(metal)    S(lipo)     H(rot)  DE(clash)    DE(int)     intcor
     13.00     -13.36       1.01        0.00      60.39       1.00       0.04       0.32       ----

> <Gold.Chemscore.Fitness>
13.0042

> <Gold.Chemscore.DG>
-13.3629

> <Gold.Chemscore.ZeroCoef>
-5.4800

> <Gold.Chemscore.Hbond>
1.0110

> <Gold.Chemscore.Metal>
0.0000

> <Gold.Chemscore.Lipo>
60.3933

> <Gold.Chemscore.Internal_Hbond>
0.0000

> <Gold.Chemscore.DEClash>
0.0359

> <Gold.Chemscore.DEInternal>
0.3228

> <Gold.Chemscore.Rot>
1.0000

> <Gold.Chemscore.Internal.Correction>
   9.000000E+99

> <Gold.Chemscore.Hbonds>
donor molecule, donor type, donor heavy atom, donor atom, acceptor molecule, acceptor atom, score
      L1  H     3    22       P1  7948  0.94
      L1  H     6    23       P1  7948  0.09

> <Gold.Chemscore.Hbond.Weighted>
-3.3769

> <Gold.Chemscore.Metal.Weighted>
-0.0000

> <Gold.Chemscore.Lipo.Weighted>
-7.0660

> <Gold.Chemscore.Internal_Hbond.Weighted>
0.0000

> <Gold.Chemscore.DEClash.Weighted>
0.0359

> <Gold.Chemscore.DEInternal.Weighted>
0.3228

> <Gold.Chemscore.Rot.Weighted>
2.5600

> <Gold.Chemscore.Internal.Correction.Weighted>
   9.000000E+99

> <Gold.Protein.RotatedTorsions>
[ 6907 6896 6895 6894 ] final  -24.38 input  -60.11 | X-H torsion
[ 7974 7965 7964 7962 ] final -159.33 input  175.53 | X-H torsion
[ 8008 7997 7996 7995 ] final   35.03 input   59.86 | X-H torsion
[ 10167 10162 10161 10158 ] final   83.73 input  -65.29 | X-H torsion
[ 10718 10713 10712 10709 ] final -150.91 input   66.30 | X-H torsion
[ 10763 10752 10751 10750 ] final   87.58 input  -60.55 | X-H torsion
[ 11005 11000 10999 10996 ] final  160.33 input  -57.11 | X-H torsion

> <Gold.Protein.ActiveResidues>
 VAL166  LYS551  ARG553  GLY616  TRP617  ASP618  TYR619  PRO620  LYS621  CYS622 
 ASP623  PHE694  ASN695  SER759  ASP760  ASP761  ALA762  ILE779  LEU786  VAL792 
 PHE793  MET794  SER795  GLU796  ALA797  LYS798  CYS799  TRP800  GLU811  SER814 

> <Gold.Protein.RotatedAtoms>
  151.1904  135.0400  159.8829 H   0  0  0  0  0  0  0  0  0  0  0  0  # atno 6907 bound_to 6896
  152.5440  134.0963  159.8308 H   0  0  0  0  0  0  0  0  0  0  0  0  # atno 6908 bound_to 6896
  151.1091  133.5139  159.2638 H   0  0  0  0  0  0  0  0  0  0  0  0  # atno 6909 bound_to 6896
  144.7469  140.3700  143.6078 H   0  0  0  0  0  0  0  0  0  0  0  0  # atno 7974 bound_to 7965
  155.1645  140.3286  155.4405 H   0  0  0  0  0  0  0  0  0  0  0  0  # atno 8008 bound_to 7997
  156.2531  140.1954  156.6702 H   0  0  0  0  0  0  0  0  0  0  0  0  # atno 8009 bound_to 7997
  154.6381  140.0574  156.9799 H   0  0  0  0  0  0  0  0  0  0  0  0  # atno 8010 bound_to 7997
  139.9153  144.6246  150.8495 H   0  0  0  0  0  0  0  0  0  0  0  0  # atno 10167 bound_to 10162
  156.4524  130.8174  151.2405 H   0  0  0  0  0  0  0  0  0  0  0  0  # atno 10718 bound_to 10713
  153.1683  135.4538  154.9867 H   0  0  0  0  0  0  0  0  0  0  0  0  # atno 10763 bound_to 10752
  154.7947  135.3233  154.7696 H   0  0  0  0  0  0  0  0  0  0  0  0  # atno 10764 bound_to 10752
  153.8176  135.6949  153.4886 H   0  0  0  0  0  0  0  0  0  0  0  0  # atno 10765 bound_to 10752
  140.2048  134.8311  157.3057 H   0  0  0  0  0  0  0  0  0  0  0  0  # atno 11005 bound_to 11000
  145.7088  139.1679  143.2551 LP  0  0  0  0  0  0  0  0  0  0  0  0  # atno 17320 bound_to 7965
  146.1362  140.7119  142.9388 LP  0  0  0  0  0  0  0  0  0  0  0  0  # atno 17321 bound_to 7965
  140.7675  143.3336  151.2358 LP  0  0  0  0  0  0  0  0  0  0  0  0  # atno 17342 bound_to 10162
  139.6907  143.9697  152.2858 LP  0  0  0  0  0  0  0  0  0  0  0  0  # atno 17343 bound_to 10162
  157.7502  131.0133  150.3421 LP  0  0  0  0  0  0  0  0  0  0  0  0  # atno 17370 bound_to 10713
  156.3802  130.3879  149.7107 LP  0  0  0  0  0  0  0  0  0  0  0  0  # atno 17371 bound_to 10713
  140.2014  134.4250  155.7660 LP  0  0  0  0  0  0  0  0  0  0  0  0  # atno 17394 bound_to 11000
  141.2227  133.7074  156.8190 LP  0  0  0  0  0  0  0  0  0  0  0  0  # atno 17395 bound_to 11000

$$$$
