AV-unprocessed.smi:3301|AV-procd|sdf|12653|dock5
  -GOLD-   2272018583D 1   1.00000     0.00000
 Structure written by MMmdl.
 37 38  0  0  0  0  0  0  0  0  2 V2000
  149.8266  141.2820  155.1220 C   0  0  0  0  0  0  0  0  0  0  0  0
  150.7757  140.7411  156.2036 C   0  0  1  0  0  0  0  0  0  0  0  0
  151.8158  139.7425  155.6509 C   0  0  0  0  0  0  0  0  0  0  0  0
  151.2239  138.4555  155.2740 N   0  0  0  0  0  0  0  0  0  0  0  0
  151.4845  137.2315  155.8341 C   0  0  0  0  0  0  0  0  0  0  0  0
  150.7095  136.3214  155.1624 C   0  0  0  0  0  0  0  0  0  0  0  0
  150.0123  137.0275  154.2189 N   0  3  0  0  0  0  0  0  0  0  0  0
  150.3289  138.3249  154.2860 C   0  0  0  0  0  0  0  0  0  0  0  0
  151.4491  141.8600  156.8562 N   0  0  0  0  0  0  0  0  0  0  0  0
  151.7222  141.9397  158.1678 C   0  0  0  0  0  0  0  0  0  0  0  0
  151.4098  141.0632  158.9753 O   0  0  0  0  0  0  0  0  0  0  0  0
  152.4413  143.2126  158.6319 C   0  0  0  0  0  0  0  0  0  0  0  0
  152.7072  143.2261  160.0712 N   0  0  0  0  0  0  0  0  0  0  0  0
  153.4748  142.1607  160.6951 C   0  0  0  0  0  0  0  0  0  0  0  0
  153.3931  142.4361  162.2036 C   0  0  0  0  0  0  0  0  0  0  0  0
  152.8098  143.8467  162.3436 C   0  0  0  0  0  0  0  0  0  0  0  0
  152.3298  144.1726  160.9398 C   0  0  0  0  0  0  0  0  0  0  0  0
  151.6845  145.1853  160.6725 O   0  0  0  0  0  0  0  0  0  0  0  0
  149.2400  140.4830  154.6684 H   0  0  0  0  0  0  0  0  0  0  0  0
  150.3774  141.7850  154.3265 H   0  0  0  0  0  0  0  0  0  0  0  0
  149.1215  141.9995  155.5435 H   0  0  0  0  0  0  0  0  0  0  0  0
  150.1619  140.2293  156.9476 H   0  0  0  0  0  0  0  0  0  0  0  0
  152.3246  140.1585  154.7798 H   0  0  0  0  0  0  0  0  0  0  0  0
  152.5859  139.5341  156.3952 H   0  0  0  0  0  0  0  0  0  0  0  0
  152.1832  137.1036  156.6486 H   0  0  0  0  0  0  0  0  0  0  0  0
  150.6056  135.2527  155.2812 H   0  0  0  0  0  0  0  0  0  0  0  0
  149.9357  139.1113  153.6665 H   0  0  0  0  0  0  0  0  0  0  0  0
  151.7341  142.6290  156.2667 H   0  0  0  0  0  0  0  0  0  0  0  0
  153.3836  143.3235  158.0924 H   0  0  0  0  0  0  0  0  0  0  0  0
  151.8276  144.0732  158.3636 H   0  0  0  0  0  0  0  0  0  0  0  0
  153.0699  141.1795  160.4435 H   0  0  0  0  0  0  0  0  0  0  0  0
  154.5064  142.2060  160.3430 H   0  0  0  0  0  0  0  0  0  0  0  0
  152.7327  141.7117  162.6828 H   0  0  0  0  0  0  0  0  0  0  0  0
  154.3705  142.3524  162.6799 H   0  0  0  0  0  0  0  0  0  0  0  0
  151.9903  143.8838  163.0623 H   0  0  0  0  0  0  0  0  0  0  0  0
  153.5727  144.5659  162.6431 H   0  0  0  0  0  0  0  0  0  0  0  0
  149.3527  136.6275  153.5632 H   0  0  0  0  0  0  0  0  0  0  0  0
  1  2  1  0  0  0  0
  1 19  1  0  0  0  0
  1 20  1  0  0  0  0
  1 21  1  0  0  0  0
  2  3  1  0  0  0  0
  2  9  1  0  0  0  0
  2 22  1  0  0  0  0
  3  4  1  0  0  0  0
  3 23  1  0  0  0  0
  3 24  1  0  0  0  0
  4  8  1  0  0  0  0
  4  5  1  0  0  0  0
  5  6  2  0  0  0  0
  5 25  1  0  0  0  0
  6  7  1  0  0  0  0
  6 26  1  0  0  0  0
  7  8  2  0  0  0  0
  7 37  1  0  0  0  0
  8 27  1  0  0  0  0
  9 10  1  0  0  0  0
  9 28  1  0  0  0  0
 10 11  2  0  0  0  0
 10 12  1  0  0  0  0
 12 13  1  0  0  0  0
 12 29  1  0  0  0  0
 12 30  1  0  0  0  0
 13 17  1  0  0  0  0
 13 14  1  0  0  0  0
 14 15  1  0  0  0  0
 14 31  1  0  0  0  0
 14 32  1  0  0  0  0
 15 16  1  0  0  0  0
 15 33  1  0  0  0  0
 15 34  1  0  0  0  0
 16 17  1  0  0  0  0
 16 35  1  0  0  0  0
 16 36  1  0  0  0  0
 17 18  2  0  0  0  0
M  CHG  1   7   1
M  END
> <s_m_source_file>
AV-unprocessed.smi

> <i_m_source_file_index>
3301

> <i_lp_mmshare_version>
43012

> <i_f3d_flags>
0

> <s_epik_input>
W2NIXTFuW2NIXVtjSF1uMVtDSDJdW0NAQEhdKFtDSDNdKVtOSF1DKD1PKVtDSDJdTjJbQ0gyXVtDSDJdW0NIMl1DMj1P

> <s_epik_cmdline>
J2VwaWtfcHl0aG9uJywgJy1waCcsICc3LjAnLCAnLXRuJywgJzgnLCAnLW1hJywgJzIwMCcsICctbWV0YWxfYmluZGluZycsICctaW1hZScsICc8aW5maWxlLm1hZT4nLCAnLW9tYWUnLCAnPG91dGZpbGUubWFlPic=

> <r_lp_tautomer_probability>
1

> <r_epik_Ionization_Penalty>
0.254232

> <r_epik_Ionization_Penalty_Charging>
0

> <r_epik_Ionization_Penalty_Neutral>
0.254232

> <r_epik_State_Penalty>
0.245698

> <r_epik_Charging_Adjusted_Penalty>
0.245698

> <i_epik_Tot_Q>
1

> <i_epik_Tot_abs_Q>
1

> <r_epik_Metal_State_Penalty>
0.5358

> <b_epik_Metal_Only>
0

> <s_lp_Force_Field>
OPLS_2005

> <r_lp_Energy>
15.9577

> <b_lp_Chiralities_Consistent>
1

> <s_lp_Variant>
AV-unprocessed.smi:3301-2

> <Gold.Version>
5.8.1

> <Gold.Id.Protein>
6NUR|6NUR_protein|mol2

> <Gold.PLP.Fitness>
50.5468

> <Gold.PLP.PLP>
-42.3891

> <Gold.PLP.part.hbond>
-1.9610

> <Gold.PLP.part.metal>
0.0000

> <Gold.PLP.part.buried>
-2.8035

> <Gold.PLP.part.nonpolar>
-38.6771

> <Gold.PLP.part.repulsive>
1.0204

> <Gold.PLP.ligand.clash>
0.0000

> <Gold.PLP.ligand.torsion>
0.4417

> <Gold.PLP.Chemscore.Hbond>
2.0000

> <Gold.PLP.Chemscore.CHOScore>
1.0000

> <Gold.PLP.Chemscore.Metal>
0.0000

> <Gold.Chemscore.Hbonds>
donor molecule, donor type, donor heavy atom, donor atom, acceptor molecule, acceptor atom, score
      L1  H     7    37       P1  7948  1.86
      L1  C     8    27       P1  7957  0.61

> <Gold.PLP.Chemscore.Internal.Correction>
0.0412

> <Gold.Rescore>
     Score         DG    S(hbond)    S(metal)    S(lipo)     H(rot)  DE(clash)    DE(int)     intcor
     10.88     -11.91       0.92        0.00      80.05       2.35       0.44       0.59       ----

> <Gold.Chemscore.Fitness>
10.8834

> <Gold.Chemscore.DG>
-11.9071

> <Gold.Chemscore.ZeroCoef>
-5.4800

> <Gold.Chemscore.Hbond>
0.9192

> <Gold.Chemscore.Metal>
0.0000

> <Gold.Chemscore.Lipo>
80.0459

> <Gold.Chemscore.Internal_Hbond>
0.0000

> <Gold.Chemscore.DEClash>
0.4364

> <Gold.Chemscore.DEInternal>
0.5874

> <Gold.Chemscore.Rot>
2.3470

> <Gold.Chemscore.Internal.Correction>
   9.000000E+99

> <Gold.Chemscore.Hbonds>
donor molecule, donor type, donor heavy atom, donor atom, acceptor molecule, acceptor atom, score
      L1  H     7    37       P1  7948  0.81

> <Gold.Chemscore.Hbond.Weighted>
-3.0701

> <Gold.Chemscore.Metal.Weighted>
-0.0000

> <Gold.Chemscore.Lipo.Weighted>
-9.3654

> <Gold.Chemscore.Internal_Hbond.Weighted>
0.0000

> <Gold.Chemscore.DEClash.Weighted>
0.4364

> <Gold.Chemscore.DEInternal.Weighted>
0.5874

> <Gold.Chemscore.Rot.Weighted>
6.0083

> <Gold.Chemscore.Internal.Correction.Weighted>
   9.000000E+99

> <Gold.Protein.RotatedTorsions>
[ 6907 6896 6895 6894 ] final  174.63 input  -60.11 | X-H torsion
[ 7974 7965 7964 7962 ] final   23.76 input  175.53 | X-H torsion
[ 8008 7997 7996 7995 ] final  129.99 input   59.86 | X-H torsion
[ 10167 10162 10161 10158 ] final   94.51 input  -65.29 | X-H torsion
[ 10718 10713 10712 10709 ] final  102.76 input   66.30 | X-H torsion
[ 10763 10752 10751 10750 ] final -130.54 input  -60.55 | X-H torsion
[ 11005 11000 10999 10996 ] final  118.76 input  -57.11 | X-H torsion

> <Gold.Protein.ActiveResidues>
 VAL166  LYS551  ARG553  GLY616  TRP617  ASP618  TYR619  PRO620  LYS621  CYS622 
 ASP623  PHE694  ASN695  SER759  ASP760  ASP761  ALA762  ILE779  LEU786  VAL792 
 PHE793  MET794  SER795  GLU796  ALA797  LYS798  CYS799  TRP800  GLU811  SER814 

> <Gold.Protein.RotatedAtoms>
  151.7492  133.3326  159.3386 H   0  0  0  0  0  0  0  0  0  0  0  0  # atno 6907 bound_to 6896
  150.7542  134.6208  159.6144 H   0  0  0  0  0  0  0  0  0  0  0  0  # atno 6908 bound_to 6896
  152.3480  134.7047  160.0296 H   0  0  0  0  0  0  0  0  0  0  0  0  # atno 6909 bound_to 6896
  146.1969  139.7699  142.8790 H   0  0  0  0  0  0  0  0  0  0  0  0  # atno 7974 bound_to 7965
  156.2946  140.2607  156.2689 H   0  0  0  0  0  0  0  0  0  0  0  0  # atno 8008 bound_to 7997
  154.9715  140.0391  157.2255 H   0  0  0  0  0  0  0  0  0  0  0  0  # atno 8009 bound_to 7997
  154.7854  140.2802  155.6036 H   0  0  0  0  0  0  0  0  0  0  0  0  # atno 8010 bound_to 7997
  139.8077  144.6787  150.9681 H   0  0  0  0  0  0  0  0  0  0  0  0  # atno 10167 bound_to 10162
  157.6792  131.0761  150.5453 H   0  0  0  0  0  0  0  0  0  0  0  0  # atno 10718 bound_to 10713
  154.8755  135.3859  154.4099 H   0  0  0  0  0  0  0  0  0  0  0  0  # atno 10763 bound_to 10752
  153.4814  135.7030  153.5941 H   0  0  0  0  0  0  0  0  0  0  0  0  # atno 10764 bound_to 10752
  153.4355  135.3868  155.2164 H   0  0  0  0  0  0  0  0  0  0  0  0  # atno 10765 bound_to 10752
  139.9121  134.9623  156.7552 H   0  0  0  0  0  0  0  0  0  0  0  0  # atno 11005 bound_to 11000
  145.3614  141.0326  143.3283 LP  0  0  0  0  0  0  0  0  0  0  0  0  # atno 17320 bound_to 7965
  144.8599  139.5192  143.6817 LP  0  0  0  0  0  0  0  0  0  0  0  0  # atno 17321 bound_to 7965
  140.7819  143.4217  151.0832 LP  0  0  0  0  0  0  0  0  0  0  0  0  # atno 17342 bound_to 10162
  139.7885  143.8253  152.3148 LP  0  0  0  0  0  0  0  0  0  0  0  0  # atno 17343 bound_to 10162
  156.5759  130.4292  149.5998 LP  0  0  0  0  0  0  0  0  0  0  0  0  # atno 17370 bound_to 10713
  156.2701  130.7012  151.1807 LP  0  0  0  0  0  0  0  0  0  0  0  0  # atno 17371 bound_to 10713
  140.6742  133.9532  155.7873 LP  0  0  0  0  0  0  0  0  0  0  0  0  # atno 17394 bound_to 11000
  141.0556  134.0421  157.3726 LP  0  0  0  0  0  0  0  0  0  0  0  0  # atno 17395 bound_to 11000

$$$$
