AV-unprocessed.smi:1401|AV-procd|sdf|5691|dock3
  -GOLD-   22720 5313D 1   1.00000     0.00000
 Structure written by MMmdl.
 48 50  0  0  0  0  0  0  0  0  1 V2000
  147.4696  140.1956  156.0503 C   0  0  0  0  0  0  0  0  0  0  0  0
  148.5906  139.2555  155.6979 C   0  0  0  0  0  0  0  0  0  0  0  0
  148.2728  138.0169  155.5088 N   0  0  0  0  0  0  0  0  0  0  0  0
  149.2266  137.0710  155.1866 N   0  0  0  0  0  0  0  0  0  0  0  0
  148.6956  135.7093  155.0297 C   0  0  0  0  0  0  0  0  0  0  0  0
  147.2619  135.6889  154.4820 C   0  0  0  0  0  0  0  0  0  0  0  0
  146.2991  135.7287  155.2490 O   0  0  0  0  0  0  0  0  0  0  0  0
  147.1424  135.6420  153.1466 N   0  0  0  0  0  0  0  0  0  0  0  0
  145.8849  135.5777  152.4039 C   0  0  1  0  0  0  0  0  0  0  0  0
  146.0713  136.2933  151.0546 C   0  0  0  0  0  0  0  0  0  0  0  0
  145.4540  134.0982  152.2493 C   0  0  1  0  0  0  0  0  0  0  0  0
  144.3375  133.8803  151.1957 C   0  0  0  0  0  0  0  0  0  0  0  0
  144.9233  132.7960  150.2748 C   0  0  2  0  0  0  0  0  0  0  0  0
  144.9949  131.4578  151.0325 C   0  0  0  0  0  0  0  0  0  0  0  0
  146.1517  131.6920  152.0218 C   0  0  0  0  0  0  0  0  0  0  0  0
  146.5621  133.1480  151.7279 C   0  0  1  0  0  0  0  0  0  0  0  0
  146.3872  133.2091  150.2135 C   0  0  0  0  0  0  0  0  0  0  0  0
  150.5563  137.3321  155.0250 C   0  0  0  0  0  0  0  0  0  0  0  0
  151.3719  136.4575  154.7274 O   0  0  0  0  0  0  0  0  0  0  0  0
  150.9086  138.7369  155.2408 C   0  0  0  0  0  0  0  0  0  0  0  0
  152.2925  139.0517  155.0884 C   0  0  0  0  0  0  0  0  0  0  0  0
  153.4158  139.3121  154.9851 N   0  0  0  0  0  0  0  0  0  0  0  0
  149.9827  139.6736  155.5651 C   0  0  0  0  0  0  0  0  0  0  0  0
  150.2971  141.1446  155.8003 C   0  0  0  0  0  0  0  0  0  0  0  0
  147.3886  140.9947  155.3136 H   0  0  0  0  0  0  0  0  0  0  0  0
  147.6396  140.6501  157.0264 H   0  0  0  0  0  0  0  0  0  0  0  0
  146.5061  139.6852  156.0888 H   0  0  0  0  0  0  0  0  0  0  0  0
  149.3241  135.1304  154.3503 H   0  0  0  0  0  0  0  0  0  0  0  0
  148.7378  135.1840  155.9860 H   0  0  0  0  0  0  0  0  0  0  0  0
  147.9907  135.6201  152.5995 H   0  0  0  0  0  0  0  0  0  0  0  0
  145.1084  136.1021  152.9634 H   0  0  0  0  0  0  0  0  0  0  0  0
  145.1403  136.3489  150.4922 H   0  0  0  0  0  0  0  0  0  0  0  0
  146.8066  135.7821  150.4324 H   0  0  0  0  0  0  0  0  0  0  0  0
  146.4159  137.3178  151.1997 H   0  0  0  0  0  0  0  0  0  0  0  0
  145.1048  133.7483  153.2223 H   0  0  0  0  0  0  0  0  0  0  0  0
  143.3937  133.5757  151.6489 H   0  0  0  0  0  0  0  0  0  0  0  0
  144.1465  134.7859  150.6177 H   0  0  0  0  0  0  0  0  0  0  0  0
  144.4227  132.7273  149.3085 H   0  0  0  0  0  0  0  0  0  0  0  0
  144.0577  131.2186  151.5362 H   0  0  0  0  0  0  0  0  0  0  0  0
  145.2308  130.6369  150.3541 H   0  0  0  0  0  0  0  0  0  0  0  0
  145.8518  131.5421  153.0596 H   0  0  0  0  0  0  0  0  0  0  0  0
  146.9761  131.0090  151.8127 H   0  0  0  0  0  0  0  0  0  0  0  0
  147.5669  133.3805  152.0782 H   0  0  0  0  0  0  0  0  0  0  0  0
  147.0151  132.4964  149.6759 H   0  0  0  0  0  0  0  0  0  0  0  0
  146.5397  134.2050  149.7944 H   0  0  0  0  0  0  0  0  0  0  0  0
  151.3583  141.3642  155.6856 H   0  0  0  0  0  0  0  0  0  0  0  0
  150.0095  141.4407  156.8096 H   0  0  0  0  0  0  0  0  0  0  0  0
  149.7551  141.7699  155.0902 H   0  0  0  0  0  0  0  0  0  0  0  0
  1  2  1  0  0  0  0
  1 25  1  0  0  0  0
  1 26  1  0  0  0  0
  1 27  1  0  0  0  0
  2 23  1  0  0  0  0
  2  3  2  0  0  0  0
  3  4  1  0  0  0  0
  4  5  1  0  0  0  0
  4 18  1  0  0  0  0
  5  6  1  0  0  0  0
  5 28  1  0  0  0  0
  5 29  1  0  0  0  0
  6  7  2  0  0  0  0
  6  8  1  0  0  0  0
  8  9  1  0  0  0  0
  8 30  1  0  0  0  0
  9 10  1  0  0  0  0
  9 11  1  0  0  0  0
  9 31  1  0  0  0  0
 10 32  1  0  0  0  0
 10 33  1  0  0  0  0
 10 34  1  0  0  0  0
 11 16  1  0  0  0  0
 11 12  1  0  0  0  0
 11 35  1  0  0  0  0
 12 13  1  0  0  0  0
 12 36  1  0  0  0  0
 12 37  1  0  0  0  0
 13 17  1  0  0  0  0
 13 14  1  0  0  0  0
 13 38  1  0  0  0  0
 14 15  1  0  0  0  0
 14 39  1  0  0  0  0
 14 40  1  0  0  0  0
 15 16  1  0  0  0  0
 15 41  1  0  0  0  0
 15 42  1  0  0  0  0
 16 17  1  0  0  0  0
 16 43  1  0  0  0  0
 17 44  1  0  0  0  0
 17 45  1  0  0  0  0
 18 19  2  0  0  0  0
 18 20  1  0  0  0  0
 20 21  1  0  0  0  0
 20 23  2  0  0  0  0
 21 22  3  0  0  0  0
 23 24  1  0  0  0  0
 24 46  1  0  0  0  0
 24 47  1  0  0  0  0
 24 48  1  0  0  0  0
M  END
> <s_m_source_file>
AV-unprocessed.smi

> <i_m_source_file_index>
1401

> <i_lp_mmshare_version>
43012

> <i_f3d_flags>
0

> <s_epik_input>
TiNDYyhjMVtDSDNdKWMoPU8pbihuYzFbQ0gzXSlbQ0gyXUMoPU8pW05IXVtDQEhdKFtDSDNdKVtDQEhdKFtDSDJdW0NASF0yMylbQ0BIXShbQ0gyXTMpW0NIMl1bQ0gyXTI=

> <s_epik_cmdline>
J2VwaWtfcHl0aG9uJywgJy1waCcsICc3LjAnLCAnLXRuJywgJzgnLCAnLW1hJywgJzIwMCcsICctbWV0YWxfYmluZGluZycsICctaW1hZScsICc8aW5maWxlLm1hZT4nLCAnLW9tYWUnLCAnPG91dGZpbGUubWFlPic=

> <r_lp_tautomer_probability>
1

> <r_epik_Ionization_Penalty>
2.16501e-08

> <r_epik_Ionization_Penalty_Charging>
2.29436e-11

> <r_epik_Ionization_Penalty_Neutral>
2.16271e-08

> <r_epik_State_Penalty>
-0

> <r_epik_Charging_Adjusted_Penalty>
2.29436e-11

> <i_epik_Tot_Q>
0

> <i_epik_Tot_abs_Q>
0

> <r_epik_Metal_State_Penalty>
-0

> <b_epik_Metal_Only>
0

> <s_lp_Force_Field>
OPLS_2005

> <r_lp_Energy>
65.5995

> <b_lp_Chiralities_Consistent>
1

> <s_lp_Variant>
AV-unprocessed.smi:1401-4

> <Gold.Version>
5.8.1

> <Gold.Id.Protein>
6NUR|6NUR_protein|mol2

> <Gold.PLP.Fitness>
42.8996

> <Gold.PLP.PLP>
-36.4458

> <Gold.PLP.part.hbond>
-3.2099

> <Gold.PLP.part.metal>
0.0000

> <Gold.PLP.part.buried>
-5.0596

> <Gold.PLP.part.nonpolar>
-28.6853

> <Gold.PLP.part.repulsive>
0.2575

> <Gold.PLP.ligand.clash>
0.0000

> <Gold.PLP.ligand.torsion>
1.2843

> <Gold.PLP.Chemscore.Hbond>
3.0000

> <Gold.PLP.Chemscore.CHOScore>
0.0000

> <Gold.PLP.Chemscore.Metal>
0.0000

> <Gold.Chemscore.Hbonds>
donor molecule, donor type, donor heavy atom, donor atom, acceptor molecule, acceptor atom, score
      L1  H     8    30       P1  7948  0.52
      P1  H  7997  8009       L1    22  1.00
      P1  H 10752 10764       L1    19  1.00

> <Gold.PLP.Chemscore.Internal.Correction>
0.0224

> <Gold.Rescore>
     Score         DG    S(hbond)    S(metal)    S(lipo)     H(rot)  DE(clash)    DE(int)     intcor
     18.83     -21.03       2.92        0.00      85.09       1.63       0.13       2.07       ----

> <Gold.Chemscore.Fitness>
18.8304

> <Gold.Chemscore.DG>
-21.0309

> <Gold.Chemscore.ZeroCoef>
-5.4800

> <Gold.Chemscore.Hbond>
2.9232

> <Gold.Chemscore.Metal>
0.0000

> <Gold.Chemscore.Lipo>
85.0879

> <Gold.Chemscore.Internal_Hbond>
0.0000

> <Gold.Chemscore.DEClash>
0.1332

> <Gold.Chemscore.DEInternal>
2.0674

> <Gold.Chemscore.Rot>
1.6281

> <Gold.Chemscore.Internal.Correction>
   9.000000E+99

> <Gold.Chemscore.Hbonds>
donor molecule, donor type, donor heavy atom, donor atom, acceptor molecule, acceptor atom, score
      L1  H     8    30       P1  7948  0.50
      P1  H  7997  8009       L1    22  0.98
      P1  H 10752 10764       L1    19  1.00

> <Gold.Chemscore.Hbond.Weighted>
-9.7635

> <Gold.Chemscore.Metal.Weighted>
-0.0000

> <Gold.Chemscore.Lipo.Weighted>
-9.9553

> <Gold.Chemscore.Internal_Hbond.Weighted>
0.0000

> <Gold.Chemscore.DEClash.Weighted>
0.1332

> <Gold.Chemscore.DEInternal.Weighted>
2.0674

> <Gold.Chemscore.Rot.Weighted>
4.1678

> <Gold.Chemscore.Internal.Correction.Weighted>
   9.000000E+99

> <Gold.Protein.RotatedTorsions>
[ 6907 6896 6895 6894 ] final    8.57 input  -60.11 | X-H torsion
[ 7974 7965 7964 7962 ] final  158.28 input  175.53 | X-H torsion
[ 8008 7997 7996 7995 ] final -118.78 input   59.86 | X-H torsion
[ 10167 10162 10161 10158 ] final -130.80 input  -65.29 | X-H torsion
[ 10718 10713 10712 10709 ] final   81.20 input   66.30 | X-H torsion
[ 10763 10752 10751 10750 ] final  -63.98 input  -60.55 | X-H torsion
[ 11005 11000 10999 10996 ] final  173.07 input  -57.11 | X-H torsion

> <Gold.Protein.ActiveResidues>
 VAL166  LYS551  ARG553  GLY616  TRP617  ASP618  TYR619  PRO620  LYS621  CYS622 
 ASP623  PHE694  ASN695  SER759  ASP760  ASP761  ALA762  ILE779  LEU786  VAL792 
 PHE793  MET794  SER795  GLU796  ALA797  LYS798  CYS799  TRP800  GLU811  SER814 

> <Gold.Protein.RotatedAtoms>
  151.7082  135.0917  160.0262 H   0  0  0  0  0  0  0  0  0  0  0  0  # atno 6907 bound_to 6896
  152.3678  133.6375  159.6072 H   0  0  0  0  0  0  0  0  0  0  0  0  # atno 6908 bound_to 6896
  150.7651  133.9235  159.3447 H   0  0  0  0  0  0  0  0  0  0  0  0  # atno 6909 bound_to 6896
  144.7855  139.7456  143.6242 H   0  0  0  0  0  0  0  0  0  0  0  0  # atno 7974 bound_to 7965
  155.1052  140.0396  157.2708 H   0  0  0  0  0  0  0  0  0  0  0  0  # atno 8008 bound_to 7997
  154.6728  140.2616  155.6964 H   0  0  0  0  0  0  0  0  0  0  0  0  # atno 8009 bound_to 7997
  156.2665  140.2794  156.1243 H   0  0  0  0  0  0  0  0  0  0  0  0  # atno 8010 bound_to 7997
  139.9255  143.6332  152.2543 H   0  0  0  0  0  0  0  0  0  0  0  0  # atno 10167 bound_to 10162
  157.6826  130.9993  150.2191 H   0  0  0  0  0  0  0  0  0  0  0  0  # atno 10718 bound_to 10713
  154.3233  135.6192  153.5517 H   0  0  0  0  0  0  0  0  0  0  0  0  # atno 10763 bound_to 10752
  152.9818  135.5729  154.5045 H   0  0  0  0  0  0  0  0  0  0  0  0  # atno 10764 bound_to 10752
  154.4718  135.2859  155.1614 H   0  0  0  0  0  0  0  0  0  0  0  0  # atno 10765 bound_to 10752
  140.3365  134.7313  157.4172 H   0  0  0  0  0  0  0  0  0  0  0  0  # atno 11005 bound_to 11000
  146.2084  139.5424  142.9697 LP  0  0  0  0  0  0  0  0  0  0  0  0  # atno 17320 bound_to 7965
  145.5934  141.0366  143.2058 LP  0  0  0  0  0  0  0  0  0  0  0  0  # atno 17321 bound_to 7965
  139.6825  144.7654  151.1582 LP  0  0  0  0  0  0  0  0  0  0  0  0  # atno 17342 bound_to 10162
  140.7651  143.5704  150.9002 LP  0  0  0  0  0  0  0  0  0  0  0  0  # atno 17343 bound_to 10162
  156.2846  130.3738  149.7901 LP  0  0  0  0  0  0  0  0  0  0  0  0  # atno 17370 bound_to 10713
  156.5579  130.8370  151.3320 LP  0  0  0  0  0  0  0  0  0  0  0  0  # atno 17371 bound_to 10713
  140.0817  134.5722  155.8534 LP  0  0  0  0  0  0  0  0  0  0  0  0  # atno 17394 bound_to 11000
  141.2050  133.6643  156.6153 LP  0  0  0  0  0  0  0  0  0  0  0  0  # atno 17395 bound_to 11000

$$$$
