AV-unprocessed.smi:2224|AV-procd|sdf|8996|dock3
  -GOLD-   2272012203D 1   1.00000     0.00000
 Structure written by MMmdl.
 44 46  0  0  0  0  0  0  0  0  1 V2000
  151.9579  145.9624  160.1191 C   0  0  0  0  0  0  0  0  0  0  0  0
  151.9673  144.5827  159.4950 C   0  0  0  0  0  0  0  0  0  0  0  0
  152.8521  143.5874  159.9527 C   0  0  0  0  0  0  0  0  0  0  0  0
  152.8115  142.3248  159.3292 C   0  0  0  0  0  0  0  0  0  0  0  0
  153.7344  141.2084  159.7707 C   0  0  0  0  0  0  0  0  0  0  0  0
  151.9685  142.0293  158.3166 N   0  0  0  0  0  0  0  0  0  0  0  0
  151.1124  142.9804  157.8675 C   0  0  0  0  0  0  0  0  0  0  0  0
  150.1845  142.7713  156.8133 N   0  0  0  0  0  0  0  0  0  0  0  0
  150.0231  141.6747  156.0523 C   0  0  0  0  0  0  0  0  0  0  0  0
  150.6892  140.6426  156.1362 O   0  0  0  0  0  0  0  0  0  0  0  0
  149.0373  141.8476  155.1621 N   0  0  0  0  0  0  0  0  0  0  0  0
  148.6332  140.8639  154.1560 C   0  0  1  0  0  0  0  0  0  0  0  0
  148.1613  139.5294  154.7760 C   0  0  1  0  0  0  0  0  0  0  0  0
  148.3539  139.1889  156.2336 C   0  0  0  0  0  0  0  0  0  0  0  0
  147.0027  139.5621  156.8505 C   0  0  0  0  0  0  0  0  0  0  0  0
  146.4181  140.4753  155.9240 O   0  0  0  0  0  0  0  0  0  0  0  0
  146.7347  140.0260  154.6080 C   0  0  1  0  0  0  0  0  0  0  0  0
  147.2010  141.1042  153.6068 C   0  0  0  0  0  0  0  0  0  0  0  0
  146.5703  142.4950  153.7616 C   0  0  0  0  0  0  0  0  0  0  0  0
  147.0222  140.7135  152.1368 C   0  0  0  0  0  0  0  0  0  0  0  0
  151.0868  144.2724  158.4392 C   0  0  0  0  0  0  0  0  0  0  0  0
  152.6228  146.0124  160.9821 H   0  0  0  0  0  0  0  0  0  0  0  0
  150.9519  146.2217  160.4494 H   0  0  0  0  0  0  0  0  0  0  0  0
  152.2844  146.7066  159.3925 H   0  0  0  0  0  0  0  0  0  0  0  0
  153.5431  143.7859  160.7591 H   0  0  0  0  0  0  0  0  0  0  0  0
  154.2734  141.4774  160.6795 H   0  0  0  0  0  0  0  0  0  0  0  0
  154.4654  140.9934  158.9910 H   0  0  0  0  0  0  0  0  0  0  0  0
  153.1663  140.2993  159.9703 H   0  0  0  0  0  0  0  0  0  0  0  0
  149.5742  143.5492  156.6125 H   0  0  0  0  0  0  0  0  0  0  0  0
  148.5466  142.7297  155.1557 H   0  0  0  0  0  0  0  0  0  0  0  0
  149.3743  140.7084  153.3697 H   0  0  0  0  0  0  0  0  0  0  0  0
  148.3660  138.6967  154.1013 H   0  0  0  0  0  0  0  0  0  0  0  0
  148.5744  138.1318  156.3843 H   0  0  0  0  0  0  0  0  0  0  0  0
  149.1674  139.7563  156.6851 H   0  0  0  0  0  0  0  0  0  0  0  0
  146.3632  138.6820  156.9310 H   0  0  0  0  0  0  0  0  0  0  0  0
  147.1012  140.0050  157.8418 H   0  0  0  0  0  0  0  0  0  0  0  0
  146.0427  139.2753  154.2232 H   0  0  0  0  0  0  0  0  0  0  0  0
  145.5326  142.5039  153.4271 H   0  0  0  0  0  0  0  0  0  0  0  0
  147.1097  143.2430  153.1797 H   0  0  0  0  0  0  0  0  0  0  0  0
  146.5677  142.8339  154.7977 H   0  0  0  0  0  0  0  0  0  0  0  0
  145.9693  140.6799  151.8552 H   0  0  0  0  0  0  0  0  0  0  0  0
  147.4412  139.7287  151.9282 H   0  0  0  0  0  0  0  0  0  0  0  0
  147.5196  141.4208  151.4724 H   0  0  0  0  0  0  0  0  0  0  0  0
  150.4004  145.0217  158.0720 H   0  0  0  0  0  0  0  0  0  0  0  0
  1  2  1  0  0  0  0
  1 22  1  0  0  0  0
  1 23  1  0  0  0  0
  1 24  1  0  0  0  0
  2 21  1  0  0  0  0
  2  3  2  0  0  0  0
  3  4  1  0  0  0  0
  3 25  1  0  0  0  0
  4  5  1  0  0  0  0
  4  6  2  0  0  0  0
  5 26  1  0  0  0  0
  5 27  1  0  0  0  0
  5 28  1  0  0  0  0
  6  7  1  0  0  0  0
  7  8  1  0  0  0  0
  7 21  2  0  0  0  0
  8  9  1  0  0  0  0
  8 29  1  0  0  0  0
  9 10  2  0  0  0  0
  9 11  1  0  0  0  0
 11 12  1  0  0  0  0
 11 30  1  0  0  0  0
 12 18  1  0  0  0  0
 12 13  1  0  0  0  0
 12 31  1  0  0  0  0
 13 17  1  0  0  0  0
 13 14  1  0  0  0  0
 13 32  1  0  0  0  0
 14 15  1  0  0  0  0
 14 33  1  0  0  0  0
 14 34  1  0  0  0  0
 15 16  1  0  0  0  0
 15 35  1  0  0  0  0
 15 36  1  0  0  0  0
 16 17  1  0  0  0  0
 17 18  1  0  0  0  0
 17 37  1  0  0  0  0
 18 19  1  0  0  0  0
 18 20  1  0  0  0  0
 19 38  1  0  0  0  0
 19 39  1  0  0  0  0
 19 40  1  0  0  0  0
 20 41  1  0  0  0  0
 20 42  1  0  0  0  0
 20 43  1  0  0  0  0
 21 44  1  0  0  0  0
M  END
> <s_m_source_file>
AV-unprocessed.smi

> <i_m_source_file_index>
2224

> <i_lp_mmshare_version>
43012

> <i_f3d_flags>
0

> <s_epik_input>
W0NIM11jMVtjSF1jKFtDSDNdKW5jKFtjSF0xKVtOSF1DKD1PKVtOSF1bQ0BIXTJDKFtDSDNdKShbQ0gzXSlbQ0BIXShbQ0BASF0yMylPW0NIMl1bQ0gyXTM=

> <s_epik_cmdline>
J2VwaWtfcHl0aG9uJywgJy1waCcsICc3LjAnLCAnLXRuJywgJzgnLCAnLW1hJywgJzIwMCcsICctbWV0YWxfYmluZGluZycsICctaW1hZScsICc8aW5maWxlLm1hZT4nLCAnLW9tYWUnLCAnPG91dGZpbGUubWFlPic=

> <r_lp_tautomer_probability>
1

> <r_epik_Ionization_Penalty>
0.000276544

> <r_epik_Ionization_Penalty_Charging>
0

> <r_epik_Ionization_Penalty_Neutral>
0.000276544

> <r_epik_State_Penalty>
-0

> <r_epik_Charging_Adjusted_Penalty>
0

> <i_epik_Tot_Q>
0

> <i_epik_Tot_abs_Q>
0

> <r_epik_Metal_State_Penalty>
-0

> <b_epik_Metal_Only>
0

> <s_lp_Force_Field>
OPLS_2005

> <r_lp_Energy>
39.8946

> <b_lp_Chiralities_Consistent>
1

> <s_lp_Variant>
AV-unprocessed.smi:2224-6

> <Gold.Version>
5.8.1

> <Gold.Id.Protein>
6NUR|6NUR_protein|mol2

> <Gold.PLP.Fitness>
45.0040

> <Gold.PLP.PLP>
-39.9676

> <Gold.PLP.part.hbond>
-2.0000

> <Gold.PLP.part.metal>
0.0000

> <Gold.PLP.part.buried>
-3.5671

> <Gold.PLP.part.nonpolar>
-34.6051

> <Gold.PLP.part.repulsive>
0.2611

> <Gold.PLP.ligand.clash>
0.0071

> <Gold.PLP.ligand.torsion>
0.1423

> <Gold.PLP.Chemscore.Hbond>
1.7134

> <Gold.PLP.Chemscore.CHOScore>
0.0000

> <Gold.PLP.Chemscore.Metal>
0.0000

> <Gold.Chemscore.Hbonds>
donor molecule, donor type, donor heavy atom, donor atom, acceptor molecule, acceptor atom, score
      L1  H     8    29       P1  8028  1.00
      L1  H    11    30       P1  8028  0.73

> <Gold.PLP.Chemscore.Internal.Correction>
0.1876

> <Gold.Rescore>
     Score         DG    S(hbond)    S(metal)    S(lipo)     H(rot)  DE(clash)    DE(int)     intcor
     16.42     -20.95       1.61        0.00     108.04       1.00       0.81       3.71       ----

> <Gold.Chemscore.Fitness>
16.4243

> <Gold.Chemscore.DG>
-20.9507

> <Gold.Chemscore.ZeroCoef>
-5.4800

> <Gold.Chemscore.Hbond>
1.6138

> <Gold.Chemscore.Metal>
0.0000

> <Gold.Chemscore.Lipo>
108.0399

> <Gold.Chemscore.Internal_Hbond>
0.0000

> <Gold.Chemscore.DEClash>
0.8149

> <Gold.Chemscore.DEInternal>
3.7115

> <Gold.Chemscore.Rot>
1.0000

> <Gold.Chemscore.Internal.Correction>
   9.000000E+99

> <Gold.Chemscore.Hbonds>
donor molecule, donor type, donor heavy atom, donor atom, acceptor molecule, acceptor atom, score
      L1  H     8    29       P1  8028  0.98
      L1  H    11    30       P1  8028  0.69

> <Gold.Chemscore.Hbond.Weighted>
-5.3900

> <Gold.Chemscore.Metal.Weighted>
-0.0000

> <Gold.Chemscore.Lipo.Weighted>
-12.6407

> <Gold.Chemscore.Internal_Hbond.Weighted>
0.0000

> <Gold.Chemscore.DEClash.Weighted>
0.8149

> <Gold.Chemscore.DEInternal.Weighted>
3.7115

> <Gold.Chemscore.Rot.Weighted>
2.5600

> <Gold.Chemscore.Internal.Correction.Weighted>
   9.000000E+99

> <Gold.Protein.RotatedTorsions>
[ 6907 6896 6895 6894 ] final   35.64 input  -60.11 | X-H torsion
[ 7974 7965 7964 7962 ] final   86.80 input  175.53 | X-H torsion
[ 8008 7997 7996 7995 ] final -160.94 input   59.86 | X-H torsion
[ 10167 10162 10161 10158 ] final  136.94 input  -65.29 | X-H torsion
[ 10718 10713 10712 10709 ] final  -48.20 input   66.30 | X-H torsion
[ 10763 10752 10751 10750 ] final  -22.64 input  -60.55 | X-H torsion
[ 11005 11000 10999 10996 ] final  138.18 input  -57.11 | X-H torsion

> <Gold.Protein.ActiveResidues>
 VAL166  LYS551  ARG553  GLY616  TRP617  ASP618  TYR619  PRO620  LYS621  CYS622 
 ASP623  PHE694  ASN695  SER759  ASP760  ASP761  ALA762  ILE779  LEU786  VAL792 
 PHE793  MET794  SER795  GLU796  ALA797  LYS798  CYS799  TRP800  GLU811  SER814 

> <Gold.Protein.RotatedAtoms>
  152.1190  134.9220  160.0563 H   0  0  0  0  0  0  0  0  0  0  0  0  # atno 6907 bound_to 6896
  152.0368  133.3955  159.4328 H   0  0  0  0  0  0  0  0  0  0  0  0  # atno 6908 bound_to 6896
  150.6848  134.3380  159.4899 H   0  0  0  0  0  0  0  0  0  0  0  0  # atno 6909 bound_to 6896
  145.5675  139.2310  143.2425 H   0  0  0  0  0  0  0  0  0  0  0  0  # atno 7974 bound_to 7965
  155.7848  140.0870  157.2040 H   0  0  0  0  0  0  0  0  0  0  0  0  # atno 8008 bound_to 7997
  154.3988  140.1501  156.3152 H   0  0  0  0  0  0  0  0  0  0  0  0  # atno 8009 bound_to 7997
  155.8617  140.3430  155.5763 H   0  0  0  0  0  0  0  0  0  0  0  0  # atno 8010 bound_to 7997
  139.5162  144.6437  151.5498 H   0  0  0  0  0  0  0  0  0  0  0  0  # atno 10167 bound_to 10162
  156.2011  130.4156  149.9240 H   0  0  0  0  0  0  0  0  0  0  0  0  # atno 10718 bound_to 10713
  153.6552  135.6979  153.5195 H   0  0  0  0  0  0  0  0  0  0  0  0  # atno 10763 bound_to 10752
  153.2675  135.4225  155.0954 H   0  0  0  0  0  0  0  0  0  0  0  0  # atno 10764 bound_to 10752
  154.8466  135.3570  154.6097 H   0  0  0  0  0  0  0  0  0  0  0  0  # atno 10765 bound_to 10752
  140.0165  134.9416  157.0387 H   0  0  0  0  0  0  0  0  0  0  0  0  # atno 11005 bound_to 11000
  146.1808  140.6500  142.9190 LP  0  0  0  0  0  0  0  0  0  0  0  0  # atno 17320 bound_to 7965
  144.7453  140.5052  143.6840 LP  0  0  0  0  0  0  0  0  0  0  0  0  # atno 17321 bound_to 7965
  140.6214  143.9252  150.6529 LP  0  0  0  0  0  0  0  0  0  0  0  0  # atno 17342 bound_to 10162
  140.2526  143.3582  152.1392 LP  0  0  0  0  0  0  0  0  0  0  0  0  # atno 17343 bound_to 10162
  156.6949  130.8910  151.3593 LP  0  0  0  0  0  0  0  0  0  0  0  0  # atno 17370 bound_to 10713
  157.6986  130.9308  150.0717 LP  0  0  0  0  0  0  0  0  0  0  0  0  # atno 17371 bound_to 10713
  140.4461  134.1630  155.7177 LP  0  0  0  0  0  0  0  0  0  0  0  0  # atno 17394 bound_to 11000
  141.1746  133.8539  157.1461 LP  0  0  0  0  0  0  0  0  0  0  0  0  # atno 17395 bound_to 11000

$$$$
