AV-unprocessed.smi:1916|AV-procd|sdf|7765|dock10
  -GOLD-   22720 9513D 1   1.00000     0.00000
 Structure written by MMmdl.
 45 47  0  0  0  0  0  0  0  0  1 V2000
  152.7432  139.4577  156.8208 O   0  0  0  0  0  0  0  0  0  0  0  0
  151.6229  139.7795  156.4232 C   0  0  0  0  0  0  0  0  0  0  0  0
  150.7252  140.4216  157.1875 N   0  0  0  0  0  0  0  0  0  0  0  0
  150.9422  140.8610  158.5641 C   0  0  0  0  0  0  0  0  0  0  0  0
  152.3407  141.4762  158.7747 C   0  0  0  0  0  0  0  0  0  0  0  0
  152.5543  142.0501  160.1653 C   0  0  0  0  0  0  0  0  0  0  0  0
  153.4200  141.4169  161.0832 C   0  0  0  0  0  0  0  0  0  0  0  0
  153.5504  141.9688  162.3722 C   0  0  0  0  0  0  0  0  0  0  0  0
  152.8187  143.1288  162.6904 C   0  0  0  0  0  0  0  0  0  0  0  0
  151.9872  143.6894  161.7003 C   0  0  0  0  0  0  0  0  0  0  0  0
  151.8548  143.1686  160.4614 N   0  0  0  0  0  0  0  0  0  0  0  0
  151.1954  139.4663  154.9806 C   0  0  1  0  0  0  0  0  0  0  0  0
  150.6613  138.0282  154.8603 C   0  0  0  0  0  0  0  0  0  0  0  0
  149.1623  138.2117  154.6938 C   0  0  0  0  0  0  0  0  0  0  0  0
  148.3723  137.2699  154.7416 O   0  0  0  0  0  0  0  0  0  0  0  0
  148.8448  139.5039  154.5349 N   0  0  0  0  0  0  0  0  0  0  0  0
  147.4721  140.0318  154.4979 C   0  0  0  0  0  0  0  0  0  0  0  0
  147.1204  140.8785  153.2509 C   0  0  0  0  0  0  0  0  0  0  0  0
  146.4397  142.1418  153.7832 C   0  0  0  0  0  0  0  0  0  0  0  0
  147.0377  142.3442  155.1721 C   0  0  0  0  0  0  0  0  0  0  0  0
  147.1950  140.9270  155.7218 C   0  0  0  0  0  0  0  0  0  0  0  0
  150.0298  140.3534  154.4984 C   0  0  0  0  0  0  0  0  0  0  0  0
  149.8299  140.6434  156.7767 H   0  0  0  0  0  0  0  0  0  0  0  0
  150.1819  141.6058  158.7995 H   0  0  0  0  0  0  0  0  0  0  0  0
  150.7830  140.0366  159.2613 H   0  0  0  0  0  0  0  0  0  0  0  0
  153.1054  140.7240  158.5767 H   0  0  0  0  0  0  0  0  0  0  0  0
  152.5032  142.2684  158.0429 H   0  0  0  0  0  0  0  0  0  0  0  0
  153.9589  140.5206  160.8136 H   0  0  0  0  0  0  0  0  0  0  0  0
  154.1958  141.5074  163.1050 H   0  0  0  0  0  0  0  0  0  0  0  0
  152.8917  143.5778  163.6698 H   0  0  0  0  0  0  0  0  0  0  0  0
  151.4121  144.5793  161.9092 H   0  0  0  0  0  0  0  0  0  0  0  0
  152.0541  139.6033  154.3207 H   0  0  0  0  0  0  0  0  0  0  0  0
  151.0658  137.5307  153.9783 H   0  0  0  0  0  0  0  0  0  0  0  0
  150.8784  137.4052  155.7292 H   0  0  0  0  0  0  0  0  0  0  0  0
  146.7784  139.1895  154.5308 H   0  0  0  0  0  0  0  0  0  0  0  0
  147.9965  141.1741  152.6771 H   0  0  0  0  0  0  0  0  0  0  0  0
  146.4698  140.3348  152.5652 H   0  0  0  0  0  0  0  0  0  0  0  0
  146.5880  143.0042  153.1327 H   0  0  0  0  0  0  0  0  0  0  0  0
  145.3657  141.9715  153.8697 H   0  0  0  0  0  0  0  0  0  0  0  0
  148.0175  142.8156  155.0857 H   0  0  0  0  0  0  0  0  0  0  0  0
  146.4178  142.9753  155.8094 H   0  0  0  0  0  0  0  0  0  0  0  0
  146.2619  140.6154  156.1929 H   0  0  0  0  0  0  0  0  0  0  0  0
  147.9726  140.8731  156.4855 H   0  0  0  0  0  0  0  0  0  0  0  0
  149.8931  141.2462  155.1112 H   0  0  0  0  0  0  0  0  0  0  0  0
  150.2104  140.6790  153.4733 H   0  0  0  0  0  0  0  0  0  0  0  0
  1  2  2  0  0  0  0
  2  3  1  0  0  0  0
  2 12  1  0  0  0  0
  3  4  1  0  0  0  0
  3 23  1  0  0  0  0
  4  5  1  0  0  0  0
  4 24  1  0  0  0  0
  4 25  1  0  0  0  0
  5  6  1  0  0  0  0
  5 26  1  0  0  0  0
  5 27  1  0  0  0  0
  6 11  1  0  0  0  0
  6  7  2  0  0  0  0
  7  8  1  0  0  0  0
  7 28  1  0  0  0  0
  8  9  2  0  0  0  0
  8 29  1  0  0  0  0
  9 10  1  0  0  0  0
  9 30  1  0  0  0  0
 10 11  2  0  0  0  0
 10 31  1  0  0  0  0
 12 22  1  0  0  0  0
 12 13  1  0  0  0  0
 12 32  1  0  0  0  0
 13 14  1  0  0  0  0
 13 33  1  0  0  0  0
 13 34  1  0  0  0  0
 14 15  2  0  0  0  0
 14 16  1  0  0  0  0
 16 17  1  0  0  0  0
 16 22  1  0  0  0  0
 17 21  1  0  0  0  0
 17 18  1  0  0  0  0
 17 35  1  0  0  0  0
 18 19  1  0  0  0  0
 18 36  1  0  0  0  0
 18 37  1  0  0  0  0
 19 20  1  0  0  0  0
 19 38  1  0  0  0  0
 19 39  1  0  0  0  0
 20 21  1  0  0  0  0
 20 40  1  0  0  0  0
 20 41  1  0  0  0  0
 21 42  1  0  0  0  0
 21 43  1  0  0  0  0
 22 44  1  0  0  0  0
 22 45  1  0  0  0  0
M  END
> <s_m_source_file>
AV-unprocessed.smi

> <i_m_source_file_index>
1916

> <i_lp_mmshare_version>
43012

> <i_f3d_flags>
0

> <s_epik_input>
W0NIMl0xW0NIMl1bQ0gyXVtDSDJdW0NIXTFOKFtDSDJdMilDKD1PKVtDSDJdW0NASF0yQyg9TylbTkhdW0NIMl1bQ0gyXWMzW2NIXVtjSF1bY0hdW2NIXW4z

> <s_epik_cmdline>
J2VwaWtfcHl0aG9uJywgJy1waCcsICc3LjAnLCAnLXRuJywgJzgnLCAnLW1hJywgJzIwMCcsICctbWV0YWxfYmluZGluZycsICctaW1hZScsICc8aW5maWxlLm1hZT4nLCAnLW9tYWUnLCAnPG91dGZpbGUubWFlPic=

> <r_epik_Ionization_Penalty>
0.0252359

> <r_epik_Ionization_Penalty_Charging>
0

> <r_epik_Ionization_Penalty_Neutral>
0.0252359

> <r_epik_State_Penalty>
0.020532

> <r_epik_Charging_Adjusted_Penalty>
0.020532

> <i_epik_Tot_Q>
0

> <i_epik_Tot_abs_Q>
0

> <r_epik_Metal_State_Penalty>
0.0196901

> <b_epik_Metal_Only>
0

> <s_lp_Force_Field>
OPLS_2005

> <r_lp_Energy>
33.9945

> <b_lp_Chiralities_Consistent>
1

> <s_lp_Variant>
AV-unprocessed.smi:1916-2

> <Gold.Version>
5.8.1

> <Gold.Id.Protein>
6NUR|6NUR_protein|mol2

> <Gold.PLP.Fitness>
46.5449

> <Gold.PLP.PLP>
-45.2781

> <Gold.PLP.part.hbond>
-1.0000

> <Gold.PLP.part.metal>
0.0000

> <Gold.PLP.part.buried>
-1.1081

> <Gold.PLP.part.nonpolar>
-42.7514

> <Gold.PLP.part.repulsive>
0.4522

> <Gold.PLP.ligand.clash>
0.0000

> <Gold.PLP.ligand.torsion>
0.8939

> <Gold.PLP.Chemscore.Hbond>
1.0000

> <Gold.PLP.Chemscore.CHOScore>
0.0000

> <Gold.PLP.Chemscore.Metal>
0.0000

> <Gold.Chemscore.Hbonds>
donor molecule, donor type, donor heavy atom, donor atom, acceptor molecule, acceptor atom, score
      P1  H  7997  8010       L1     1  1.00

> <Gold.PLP.Chemscore.Internal.Correction>
0.0545

> <Gold.Rescore>
     Score         DG    S(hbond)    S(metal)    S(lipo)     H(rot)  DE(clash)    DE(int)     intcor
     15.25     -17.66       1.00        0.00     110.87       1.61       0.23       2.18       ----

> <Gold.Chemscore.Fitness>
15.2544

> <Gold.Chemscore.DG>
-17.6641

> <Gold.Chemscore.ZeroCoef>
-5.4800

> <Gold.Chemscore.Hbond>
0.9988

> <Gold.Chemscore.Metal>
0.0000

> <Gold.Chemscore.Lipo>
110.8748

> <Gold.Chemscore.Internal_Hbond>
0.0000

> <Gold.Chemscore.DEClash>
0.2264

> <Gold.Chemscore.DEInternal>
2.1832

> <Gold.Chemscore.Rot>
1.6110

> <Gold.Chemscore.Internal.Correction>
   9.000000E+99

> <Gold.Chemscore.Hbonds>
donor molecule, donor type, donor heavy atom, donor atom, acceptor molecule, acceptor atom, score
      P1  H  7997  8010       L1     1  1.00

> <Gold.Chemscore.Hbond.Weighted>
-3.3360

> <Gold.Chemscore.Metal.Weighted>
-0.0000

> <Gold.Chemscore.Lipo.Weighted>
-12.9724

> <Gold.Chemscore.Internal_Hbond.Weighted>
0.0000

> <Gold.Chemscore.DEClash.Weighted>
0.2264

> <Gold.Chemscore.DEInternal.Weighted>
2.1832

> <Gold.Chemscore.Rot.Weighted>
4.1243

> <Gold.Chemscore.Internal.Correction.Weighted>
   9.000000E+99

> <Gold.Protein.RotatedTorsions>
[ 6907 6896 6895 6894 ] final  -25.35 input  -60.11 | X-H torsion
[ 7974 7965 7964 7962 ] final  133.43 input  175.53 | X-H torsion
[ 8008 7997 7996 7995 ] final   69.22 input   59.86 | X-H torsion
[ 10167 10162 10161 10158 ] final   45.43 input  -65.29 | X-H torsion
[ 10718 10713 10712 10709 ] final  132.75 input   66.30 | X-H torsion
[ 10763 10752 10751 10750 ] final  170.11 input  -60.55 | X-H torsion
[ 11005 11000 10999 10996 ] final -141.76 input  -57.11 | X-H torsion

> <Gold.Protein.ActiveResidues>
 VAL166  LYS551  ARG553  GLY616  TRP617  ASP618  TYR619  PRO620  LYS621  CYS622 
 ASP623  PHE694  ASN695  SER759  ASP760  ASP761  ALA762  ILE779  LEU786  VAL792 
 PHE793  MET794  SER795  GLU796  ALA797  LYS798  CYS799  TRP800  GLU811  SER814 

> <Gold.Protein.RotatedAtoms>
  151.1764  135.0341  159.8773 H   0  0  0  0  0  0  0  0  0  0  0  0  # atno 6907 bound_to 6896
  152.5447  134.1112  159.8369 H   0  0  0  0  0  0  0  0  0  0  0  0  # atno 6908 bound_to 6896
  151.1224  133.5048  159.2634 H   0  0  0  0  0  0  0  0  0  0  0  0  # atno 6909 bound_to 6896
  144.9866  139.4449  143.5360 H   0  0  0  0  0  0  0  0  0  0  0  0  # atno 7974 bound_to 7965
  155.7203  140.3493  155.5013 H   0  0  0  0  0  0  0  0  0  0  0  0  # atno 8008 bound_to 7997
  155.9275  140.1078  157.1180 H   0  0  0  0  0  0  0  0  0  0  0  0  # atno 8009 bound_to 7997
  154.4080  140.1237  156.4747 H   0  0  0  0  0  0  0  0  0  0  0  0  # atno 8010 bound_to 7997
  140.3242  144.2668  150.6178 H   0  0  0  0  0  0  0  0  0  0  0  0  # atno 10167 bound_to 10162
  157.4840  131.1087  150.9644 H   0  0  0  0  0  0  0  0  0  0  0  0  # atno 10718 bound_to 10713
  154.3929  135.2754  155.2144 H   0  0  0  0  0  0  0  0  0  0  0  0  # atno 10763 bound_to 10752
  154.4202  135.6002  153.6009 H   0  0  0  0  0  0  0  0  0  0  0  0  # atno 10764 bound_to 10752
  152.9832  135.5970  154.4186 H   0  0  0  0  0  0  0  0  0  0  0  0  # atno 10765 bound_to 10752
  140.8292  134.2537  157.4864 H   0  0  0  0  0  0  0  0  0  0  0  0  # atno 11005 bound_to 11000
  146.3421  139.9172  142.8772 LP  0  0  0  0  0  0  0  0  0  0  0  0  # atno 17320 bound_to 7965
  145.2344  140.9985  143.3972 LP  0  0  0  0  0  0  0  0  0  0  0  0  # atno 17321 bound_to 7965
  140.5456  143.2215  151.8012 LP  0  0  0  0  0  0  0  0  0  0  0  0  # atno 17342 bound_to 10162
  139.4868  144.4543  151.9616 LP  0  0  0  0  0  0  0  0  0  0  0  0  # atno 17343 bound_to 10162
  157.0368  130.5733  149.5350 LP  0  0  0  0  0  0  0  0  0  0  0  0  # atno 17370 bound_to 10713
  156.0137  130.5230  150.8068 LP  0  0  0  0  0  0  0  0  0  0  0  0  # atno 17371 bound_to 10713
  139.8705  134.9577  156.4277 LP  0  0  0  0  0  0  0  0  0  0  0  0  # atno 17394 bound_to 11000
  140.9016  133.7775  155.9686 LP  0  0  0  0  0  0  0  0  0  0  0  0  # atno 17395 bound_to 11000

$$$$
