AV-unprocessed.smi:2458|AV-procd|sdf|9708|dock10
  -GOLD-   2272013343D 1   1.00000     0.00000
 Structure written by MMmdl.
 47 48  0  0  0  0  0  0  0  0  1 V2000
  152.3651  144.7673  157.9433 C   0  0  0  0  0  0  0  0  0  0  0  0
  151.2917  144.1745  158.8769 C   0  0  0  0  0  0  0  0  0  0  0  0
  150.6118  145.3265  159.6420 C   0  0  0  0  0  0  0  0  0  0  0  0
  151.8584  143.0749  159.8234 C   0  0  1  0  0  0  0  0  0  0  0  0
  152.8308  142.1137  159.0954 C   0  0  0  0  0  0  0  0  0  0  0  0
  153.4052  141.0364  160.0298 C   0  0  0  0  0  0  0  0  0  0  0  0
  154.1217  141.6646  161.2386 C   0  0  2  0  0  0  0  0  0  0  0  0
  154.6860  140.5820  162.1690 C   0  0  0  0  0  0  0  0  0  0  0  0
  154.4807  139.3905  161.9350 O   0  0  0  0  0  0  0  0  0  0  0  0
  155.3957  141.0091  163.2232 N   0  0  0  0  0  0  0  0  0  0  0  0
  156.0109  140.1340  164.2125 C   0  0  0  0  0  0  0  0  0  0  0  0
  157.0896  140.8822  165.0160 C   0  0  2  0  0  0  0  0  0  0  0  0
  157.8034  139.9439  165.7968 O   0  0  0  0  0  0  0  0  0  0  0  0
  156.4776  141.9719  165.8819 C   0  0  0  0  0  0  0  0  0  0  0  0
  155.7567  141.6581  167.0547 C   0  0  0  0  0  0  0  0  0  0  0  0
  155.2030  142.7061  167.8148 C   0  0  0  0  0  0  0  0  0  0  0  0
  155.3919  144.0295  167.3694 C   0  0  0  0  0  0  0  0  0  0  0  0
  156.0770  144.3436  166.2492 N   0  0  0  0  0  0  0  0  0  0  0  0
  156.6050  143.3325  165.5261 C   0  0  0  0  0  0  0  0  0  0  0  0
  153.1485  142.5913  161.9897 C   0  0  0  0  0  0  0  0  0  0  0  0
  152.5707  143.6726  161.0622 C   0  0  0  0  0  0  0  0  0  0  0  0
  151.0164  142.4810  160.1827 H   0  0  0  0  0  0  0  0  0  0  0  0
  154.9523  142.2685  160.8686 H   0  0  0  0  0  0  0  0  0  0  0  0
  153.2132  145.1543  158.5090 H   0  0  0  0  0  0  0  0  0  0  0  0
  151.9617  145.5894  157.3514 H   0  0  0  0  0  0  0  0  0  0  0  0
  152.7396  144.0328  157.2313 H   0  0  0  0  0  0  0  0  0  0  0  0
  150.5314  143.7164  158.2428 H   0  0  0  0  0  0  0  0  0  0  0  0
  151.2885  145.7716  160.3721 H   0  0  0  0  0  0  0  0  0  0  0  0
  149.7160  144.9973  160.1669 H   0  0  0  0  0  0  0  0  0  0  0  0
  150.2949  146.1176  158.9618 H   0  0  0  0  0  0  0  0  0  0  0  0
  152.3281  141.6045  158.2743 H   0  0  0  0  0  0  0  0  0  0  0  0
  153.6488  142.6835  158.6524 H   0  0  0  0  0  0  0  0  0  0  0  0
  152.5967  140.3850  160.3656 H   0  0  0  0  0  0  0  0  0  0  0  0
  154.0975  140.4046  159.4714 H   0  0  0  0  0  0  0  0  0  0  0  0
  155.5257  142.0032  163.3443 H   0  0  0  0  0  0  0  0  0  0  0  0
  155.2200  139.8015  164.8870 H   0  0  0  0  0  0  0  0  0  0  0  0
  156.4226  139.2397  163.7412 H   0  0  0  0  0  0  0  0  0  0  0  0
  157.7985  141.3493  164.3303 H   0  0  0  0  0  0  0  0  0  0  0  0
  158.6863  140.2600  165.9142 H   0  0  0  0  0  0  0  0  0  0  0  0
  155.6270  140.6322  167.3666 H   0  0  0  0  0  0  0  0  0  0  0  0
  154.6454  142.5007  168.7165 H   0  0  0  0  0  0  0  0  0  0  0  0
  154.9801  144.8573  167.9274 H   0  0  0  0  0  0  0  0  0  0  0  0
  157.1437  143.6209  164.6356 H   0  0  0  0  0  0  0  0  0  0  0  0
  152.3279  142.0124  162.4169 H   0  0  0  0  0  0  0  0  0  0  0  0
  153.6578  143.0679  162.8285 H   0  0  0  0  0  0  0  0  0  0  0  0
  153.3704  144.3412  160.7409 H   0  0  0  0  0  0  0  0  0  0  0  0
  151.8803  144.2764  161.6497 H   0  0  0  0  0  0  0  0  0  0  0  0
  1  2  1  0  0  0  0
  1 24  1  0  0  0  0
  1 25  1  0  0  0  0
  1 26  1  0  0  0  0
  2  3  1  0  0  0  0
  2  4  1  0  0  0  0
  2 27  1  0  0  0  0
  3 28  1  0  0  0  0
  3 29  1  0  0  0  0
  3 30  1  0  0  0  0
  4 22  1  0  0  0  0
  4 21  1  0  0  0  0
  4  5  1  0  0  0  0
  5  6  1  0  0  0  0
  5 31  1  0  0  0  0
  5 32  1  0  0  0  0
  6  7  1  0  0  0  0
  6 33  1  0  0  0  0
  6 34  1  0  0  0  0
  7 23  1  0  0  0  0
  7  8  1  0  0  0  0
  7 20  1  0  0  0  0
  8  9  2  0  0  0  0
  8 10  1  0  0  0  0
 10 11  1  0  0  0  0
 10 35  1  0  0  0  0
 11 12  1  0  0  0  0
 11 36  1  0  0  0  0
 11 37  1  0  0  0  0
 12 13  1  0  0  0  0
 12 14  1  0  0  0  0
 12 38  1  0  0  0  0
 13 39  1  0  0  0  0
 14 19  1  0  0  0  0
 14 15  2  0  0  0  0
 15 16  1  0  0  0  0
 15 40  1  0  0  0  0
 16 17  2  0  0  0  0
 16 41  1  0  0  0  0
 17 18  1  0  0  0  0
 17 42  1  0  0  0  0
 18 19  2  0  0  0  0
 19 43  1  0  0  0  0
 20 21  1  0  0  0  0
 20 44  1  0  0  0  0
 20 45  1  0  0  0  0
 21 46  1  0  0  0  0
 21 47  1  0  0  0  0
M  END
> <s_m_source_file>
AV-unprocessed.smi

> <i_m_source_file_index>
2458

> <i_lp_mmshare_version>
43012

> <i_f3d_flags>
0

> <s_epik_input>
W0NIM11bQ0hdKFtDSDNdKVtDQEhdMVtDSDJdW0NIMl1bQ0BASF0oW0NIMl1bQ0gyXTEpQyg9TylbTkhdW0NIMl1bQ0BIXShbT0hdKWMyW2NIXVtjSF1bY0hdbltjSF0y

> <s_epik_cmdline>
J2VwaWtfcHl0aG9uJywgJy1waCcsICc3LjAnLCAnLXRuJywgJzgnLCAnLW1hJywgJzIwMCcsICctbWV0YWxfYmluZGluZycsICctaW1hZScsICc8aW5maWxlLm1hZT4nLCAnLW9tYWUnLCAnPG91dGZpbGUubWFlPic=

> <r_epik_Ionization_Penalty>
0.00169206

> <r_epik_Ionization_Penalty_Charging>
0

> <r_epik_Ionization_Penalty_Neutral>
0.00169206

> <r_epik_State_Penalty>
0.0011427

> <r_epik_Charging_Adjusted_Penalty>
0.0011427

> <i_epik_Tot_Q>
0

> <i_epik_Tot_abs_Q>
0

> <r_epik_Metal_State_Penalty>
-0

> <b_epik_Metal_Only>
0

> <s_lp_Force_Field>
OPLS_2005

> <r_lp_Energy>
18.0059

> <b_lp_Chiralities_Consistent>
1

> <s_lp_Variant>
AV-unprocessed.smi:2458-1

> <Gold.Version>
5.8.1

> <Gold.Id.Protein>
6NUR|6NUR_protein|mol2

> <Gold.PLP.Fitness>
49.2450

> <Gold.PLP.PLP>
-50.7715

> <Gold.PLP.part.hbond>
-2.0000

> <Gold.PLP.part.metal>
0.0000

> <Gold.PLP.part.buried>
-5.9714

> <Gold.PLP.part.nonpolar>
-42.0840

> <Gold.PLP.part.repulsive>
0.0269

> <Gold.PLP.ligand.clash>
0.0000

> <Gold.PLP.ligand.torsion>
0.7868

> <Gold.PLP.Chemscore.Hbond>
0.0000

> <Gold.PLP.Chemscore.CHOScore>
0.0000

> <Gold.PLP.Chemscore.Metal>
0.0000

> <Gold.PLP.Chemscore.Internal.Correction>
0.0471

> <Gold.Rescore>
     Score         DG    S(hbond)    S(metal)    S(lipo)     H(rot)  DE(clash)    DE(int)     intcor
     16.43     -17.52       0.00        0.00     147.94       2.06       0.61       0.48       ----

> <Gold.Chemscore.Fitness>
16.4298

> <Gold.Chemscore.DG>
-17.5180

> <Gold.Chemscore.ZeroCoef>
-5.4800

> <Gold.Chemscore.Hbond>
0.0000

> <Gold.Chemscore.Metal>
0.0000

> <Gold.Chemscore.Lipo>
147.9361

> <Gold.Chemscore.Internal_Hbond>
0.0000

> <Gold.Chemscore.DEClash>
0.6062

> <Gold.Chemscore.DEInternal>
0.4820

> <Gold.Chemscore.Rot>
2.0588

> <Gold.Chemscore.Internal.Correction>
   9.000000E+99

> <Gold.Chemscore.Hbond.Weighted>
-0.0000

> <Gold.Chemscore.Metal.Weighted>
-0.0000

> <Gold.Chemscore.Lipo.Weighted>
-17.3085

> <Gold.Chemscore.Internal_Hbond.Weighted>
0.0000

> <Gold.Chemscore.DEClash.Weighted>
0.6062

> <Gold.Chemscore.DEInternal.Weighted>
0.4820

> <Gold.Chemscore.Rot.Weighted>
5.2705

> <Gold.Chemscore.Internal.Correction.Weighted>
   9.000000E+99

> <Gold.Protein.RotatedTorsions>
[ 6907 6896 6895 6894 ] final  133.29 input  -60.11 | X-H torsion
[ 7974 7965 7964 7962 ] final  -56.83 input  175.53 | X-H torsion
[ 8008 7997 7996 7995 ] final  -61.10 input   59.86 | X-H torsion
[ 10167 10162 10161 10158 ] final   23.73 input  -65.29 | X-H torsion
[ 10718 10713 10712 10709 ] final -112.54 input   66.30 | X-H torsion
[ 10763 10752 10751 10750 ] final  109.43 input  -60.55 | X-H torsion
[ 11005 11000 10999 10996 ] final  -86.23 input  -57.11 | X-H torsion

> <Gold.Protein.ActiveResidues>
 VAL166  LYS551  ARG553  GLY616  TRP617  ASP618  TYR619  PRO620  LYS621  CYS622 
 ASP623  PHE694  ASN695  SER759  ASP760  ASP761  ALA762  ILE779  LEU786  VAL792 
 PHE793  MET794  SER795  GLU796  ALA797  LYS798  CYS799  TRP800  GLU811  SER814 

> <Gold.Protein.RotatedAtoms>
  152.3235  133.5879  159.5760 H   0  0  0  0  0  0  0  0  0  0  0  0  # atno 6907 bound_to 6896
  150.7384  133.9976  159.3636 H   0  0  0  0  0  0  0  0  0  0  0  0  # atno 6908 bound_to 6896
  151.7858  135.0750  160.0431 H   0  0  0  0  0  0  0  0  0  0  0  0  # atno 6909 bound_to 6896
  145.8581  140.8305  142.9951 H   0  0  0  0  0  0  0  0  0  0  0  0  # atno 7974 bound_to 7965
  154.4431  140.1025  156.6378 H   0  0  0  0  0  0  0  0  0  0  0  0  # atno 8008 bound_to 7997
  155.5535  140.3486  155.4455 H   0  0  0  0  0  0  0  0  0  0  0  0  # atno 8009 bound_to 7997
  156.0512  140.1304  157.0037 H   0  0  0  0  0  0  0  0  0  0  0  0  # atno 8010 bound_to 7997
  140.5245  143.9946  150.6433 H   0  0  0  0  0  0  0  0  0  0  0  0  # atno 10167 bound_to 10162
  156.0712  130.5925  150.8523 H   0  0  0  0  0  0  0  0  0  0  0  0  # atno 10718 bound_to 10713
  153.4347  135.3780  155.2191 H   0  0  0  0  0  0  0  0  0  0  0  0  # atno 10763 bound_to 10752
  154.8751  135.3848  154.4226 H   0  0  0  0  0  0  0  0  0  0  0  0  # atno 10764 bound_to 10752
  153.4763  135.7088  153.6027 H   0  0  0  0  0  0  0  0  0  0  0  0  # atno 10765 bound_to 10752
  141.1632  133.7443  156.9131 H   0  0  0  0  0  0  0  0  0  0  0  0  # atno 11005 bound_to 11000
  144.6727  140.1055  143.7458 LP  0  0  0  0  0  0  0  0  0  0  0  0  # atno 17320 bound_to 7965
  145.9279  139.2587  143.1342 LP  0  0  0  0  0  0  0  0  0  0  0  0  # atno 17321 bound_to 7965
  140.3304  143.3081  152.0693 LP  0  0  0  0  0  0  0  0  0  0  0  0  # atno 17342 bound_to 10162
  139.4934  144.6513  151.6670 LP  0  0  0  0  0  0  0  0  0  0  0  0  # atno 17343 bound_to 10162
  157.5784  131.0946  150.9310 LP  0  0  0  0  0  0  0  0  0  0  0  0  # atno 17370 bound_to 10713
  156.9511  130.5420  149.5282 LP  0  0  0  0  0  0  0  0  0  0  0  0  # atno 17371 bound_to 10713
  140.1503  134.9235  157.2583 LP  0  0  0  0  0  0  0  0  0  0  0  0  # atno 17394 bound_to 11000
  140.2731  134.3437  155.7367 LP  0  0  0  0  0  0  0  0  0  0  0  0  # atno 17395 bound_to 11000

$$$$
