AV-unprocessed.smi:3343|AV-procd|sdf|12893|dock1
  -GOLD-   2272019303D 1   1.00000     0.00000
 Structure written by MMmdl.
 41 42  0  0  0  0  0  0  0  0  1 V2000
  152.3853  144.0152  158.2323 C   0  0  0  0  0  0  0  0  0  0  0  0
  152.9119  142.7439  158.9288 C   0  0  2  0  0  0  0  0  0  0  0  0
  152.2151  141.4605  158.4476 C   0  0  0  0  0  0  0  0  0  0  0  0
  152.8658  140.5201  157.9906 O   0  0  0  0  0  0  0  0  0  0  0  0
  150.8761  141.4539  158.5339 N   0  0  0  0  0  0  0  0  0  0  0  0
  150.0000  140.4361  157.9678 C   0  0  0  0  0  0  0  0  0  0  0  0
  150.2280  140.3050  156.4507 C   0  0  0  0  0  0  0  0  0  0  0  0
  149.0805  140.6488  155.6091 N   0  0  0  0  0  0  0  0  0  0  0  0
  148.2746  141.6981  156.2358 C   0  0  0  0  0  0  0  0  0  0  0  0
  147.0520  142.0699  155.3763 C   0  0  0  0  0  0  0  0  0  0  0  0
  147.4566  142.5303  154.0502 N   0  0  0  0  0  0  0  0  0  0  0  0
  146.3075  142.8956  153.2364 C   0  0  0  0  0  0  0  0  0  0  0  0
  148.2559  141.4873  153.4128 C   0  0  0  0  0  0  0  0  0  0  0  0
  149.4750  141.1075  154.2728 C   0  0  0  0  0  0  0  0  0  0  0  0
  152.8263  142.8401  160.3823 N   0  0  0  0  0  0  0  0  0  0  0  0
  152.3062  143.8007  161.1497 C   0  0  0  0  0  0  0  0  0  0  0  0
  152.4584  143.5938  162.4503 N   0  0  0  0  0  0  0  0  0  0  0  0
  153.1345  142.4075  162.4147 C   0  0  0  0  0  0  0  0  0  0  0  0
  153.3896  141.9171  161.2019 N   0  0  0  0  0  0  0  0  0  0  0  0
  152.5125  143.9528  157.1512 H   0  0  0  0  0  0  0  0  0  0  0  0
  152.9278  144.8973  158.5736 H   0  0  0  0  0  0  0  0  0  0  0  0
  151.3258  144.1828  158.4311 H   0  0  0  0  0  0  0  0  0  0  0  0
  153.9690  142.6490  158.6748 H   0  0  0  0  0  0  0  0  0  0  0  0
  150.4260  142.2616  158.9386 H   0  0  0  0  0  0  0  0  0  0  0  0
  150.1158  139.4669  158.4564 H   0  0  0  0  0  0  0  0  0  0  0  0
  148.9743  140.7571  158.1525 H   0  0  0  0  0  0  0  0  0  0  0  0
  151.0433  140.9836  156.1966 H   0  0  0  0  0  0  0  0  0  0  0  0
  150.5939  139.3062  156.2060 H   0  0  0  0  0  0  0  0  0  0  0  0
  147.9325  141.3640  157.2160 H   0  0  0  0  0  0  0  0  0  0  0  0
  148.8846  142.5868  156.4050 H   0  0  0  0  0  0  0  0  0  0  0  0
  146.3894  141.2073  155.2881 H   0  0  0  0  0  0  0  0  0  0  0  0
  146.4816  142.8517  155.8791 H   0  0  0  0  0  0  0  0  0  0  0  0
  146.6273  143.2574  152.2587 H   0  0  0  0  0  0  0  0  0  0  0  0
  145.7335  143.6906  153.7135 H   0  0  0  0  0  0  0  0  0  0  0  0
  145.6450  142.0425  153.0832 H   0  0  0  0  0  0  0  0  0  0  0  0
  147.6439  140.6015  153.2356 H   0  0  0  0  0  0  0  0  0  0  0  0
  148.5981  141.8306  152.4358 H   0  0  0  0  0  0  0  0  0  0  0  0
  150.1498  141.9612  154.3528 H   0  0  0  0  0  0  0  0  0  0  0  0
  150.0200  140.3218  153.7525 H   0  0  0  0  0  0  0  0  0  0  0  0
  151.8157  144.6756  160.7484 H   0  0  0  0  0  0  0  0  0  0  0  0
  153.4556  141.8937  163.3089 H   0  0  0  0  0  0  0  0  0  0  0  0
  1  2  1  0  0  0  0
  1 20  1  0  0  0  0
  1 21  1  0  0  0  0
  1 22  1  0  0  0  0
  2  3  1  0  0  0  0
  2 15  1  0  0  0  0
  2 23  1  0  0  0  0
  3  4  2  0  0  0  0
  3  5  1  0  0  0  0
  5  6  1  0  0  0  0
  5 24  1  0  0  0  0
  6  7  1  0  0  0  0
  6 25  1  0  0  0  0
  6 26  1  0  0  0  0
  7  8  1  0  0  0  0
  7 27  1  0  0  0  0
  7 28  1  0  0  0  0
  8 14  1  0  0  0  0
  8  9  1  0  0  0  0
  9 10  1  0  0  0  0
  9 29  1  0  0  0  0
  9 30  1  0  0  0  0
 10 11  1  0  0  0  0
 10 31  1  0  0  0  0
 10 32  1  0  0  0  0
 11 12  1  0  0  0  0
 11 13  1  0  0  0  0
 12 33  1  0  0  0  0
 12 34  1  0  0  0  0
 12 35  1  0  0  0  0
 13 14  1  0  0  0  0
 13 36  1  0  0  0  0
 13 37  1  0  0  0  0
 14 38  1  0  0  0  0
 14 39  1  0  0  0  0
 15 19  1  0  0  0  0
 15 16  1  0  0  0  0
 16 17  2  0  0  0  0
 16 40  1  0  0  0  0
 17 18  1  0  0  0  0
 18 19  2  0  0  0  0
 18 41  1  0  0  0  0
M  END
> <s_m_source_file>
AV-unprocessed.smi

> <i_m_source_file_index>
3343

> <i_lp_mmshare_version>
43012

> <i_f3d_flags>
0

> <s_epik_input>
bjFbY0hdbltjSF1uMVtDQEhdKFtDSDNdKUMoPU8pW05IXVtDSDJdW0NIMl1OMltDSDJdW0NIMl1OKFtDSDNdKVtDSDJdW0NIMl0y

> <s_epik_cmdline>
J2VwaWtfcHl0aG9uJywgJy1waCcsICc3LjAnLCAnLXRuJywgJzgnLCAnLW1hJywgJzIwMCcsICctbWV0YWxfYmluZGluZycsICctaW1hZScsICc8aW5maWxlLm1hZT4nLCAnLW9tYWUnLCAnPG91dGZpbGUubWFlPic=

> <r_lp_tautomer_probability>
1

> <r_epik_Ionization_Penalty>
1.97295

> <r_epik_Ionization_Penalty_Charging>
0

> <r_epik_Ionization_Penalty_Neutral>
1.97295

> <r_epik_State_Penalty>
1.8027

> <r_epik_Charging_Adjusted_Penalty>
1.8027

> <i_epik_Tot_Q>
0

> <i_epik_Tot_abs_Q>
0

> <r_epik_Metal_State_Penalty>
1.8027

> <b_epik_Metal_Only>
0

> <s_lp_Force_Field>
OPLS_2005

> <r_lp_Energy>
39.2202

> <b_lp_Chiralities_Consistent>
1

> <s_lp_Variant>
AV-unprocessed.smi:3343-3

> <Gold.Version>
5.8.1

> <Gold.Id.Protein>
6NUR|6NUR_protein|mol2

> <Gold.PLP.Fitness>
39.4329

> <Gold.PLP.PLP>
-38.6442

> <Gold.PLP.part.hbond>
-1.0000

> <Gold.PLP.part.metal>
0.0000

> <Gold.PLP.part.buried>
-5.5468

> <Gold.PLP.part.nonpolar>
-31.6461

> <Gold.PLP.part.repulsive>
1.3081

> <Gold.PLP.ligand.clash>
0.0000

> <Gold.PLP.ligand.torsion>
0.8795

> <Gold.PLP.Chemscore.Hbond>
0.7992

> <Gold.PLP.Chemscore.CHOScore>
0.0000

> <Gold.PLP.Chemscore.Metal>
0.0000

> <Gold.Chemscore.Hbonds>
donor molecule, donor type, donor heavy atom, donor atom, acceptor molecule, acceptor atom, score
      P1  H  7997  8010       L1     4  0.82

> <Gold.PLP.Chemscore.Internal.Correction>
0.1500

> <Gold.Rescore>
     Score         DG    S(hbond)    S(metal)    S(lipo)     H(rot)  DE(clash)    DE(int)     intcor
      8.10      -8.96       0.81        0.00      62.66       2.56       0.21       0.65       ----

> <Gold.Chemscore.Fitness>
8.1009

> <Gold.Chemscore.DG>
-8.9593

> <Gold.Chemscore.ZeroCoef>
-5.4800

> <Gold.Chemscore.Hbond>
0.8070

> <Gold.Chemscore.Metal>
0.0000

> <Gold.Chemscore.Lipo>
62.6629

> <Gold.Chemscore.Internal_Hbond>
0.0000

> <Gold.Chemscore.DEClash>
0.2078

> <Gold.Chemscore.DEInternal>
0.6506

> <Gold.Chemscore.Rot>
2.5577

> <Gold.Chemscore.Internal.Correction>
   9.000000E+99

> <Gold.Chemscore.Hbonds>
donor molecule, donor type, donor heavy atom, donor atom, acceptor molecule, acceptor atom, score
      P1  H  7997  8010       L1     4  0.76

> <Gold.Chemscore.Hbond.Weighted>
-2.6955

> <Gold.Chemscore.Metal.Weighted>
-0.0000

> <Gold.Chemscore.Lipo.Weighted>
-7.3316

> <Gold.Chemscore.Internal_Hbond.Weighted>
0.0000

> <Gold.Chemscore.DEClash.Weighted>
0.2078

> <Gold.Chemscore.DEInternal.Weighted>
0.6506

> <Gold.Chemscore.Rot.Weighted>
6.5477

> <Gold.Chemscore.Internal.Correction.Weighted>
   9.000000E+99

> <Gold.Protein.RotatedTorsions>
[ 6907 6896 6895 6894 ] final  -72.54 input  -60.11 | X-H torsion
[ 7974 7965 7964 7962 ] final   30.58 input  175.53 | X-H torsion
[ 8008 7997 7996 7995 ] final   43.03 input   59.86 | X-H torsion
[ 10167 10162 10161 10158 ] final  -33.01 input  -65.29 | X-H torsion
[ 10718 10713 10712 10709 ] final -128.36 input   66.30 | X-H torsion
[ 10763 10752 10751 10750 ] final  129.02 input  -60.55 | X-H torsion
[ 11005 11000 10999 10996 ] final  113.37 input  -57.11 | X-H torsion

> <Gold.Protein.ActiveResidues>
 VAL166  LYS551  ARG553  GLY616  TRP617  ASP618  TYR619  PRO620  LYS621  CYS622 
 ASP623  PHE694  ASN695  SER759  ASP760  ASP761  ALA762  ILE779  LEU786  VAL792 
 PHE793  MET794  SER795  GLU796  ALA797  LYS798  CYS799  TRP800  GLU811  SER814 

> <Gold.Protein.RotatedAtoms>
  150.7166  134.5148  159.5624 H   0  0  0  0  0  0  0  0  0  0  0  0  # atno 6907 bound_to 6896
  152.2717  134.7923  160.0422 H   0  0  0  0  0  0  0  0  0  0  0  0  # atno 6908 bound_to 6896
  151.8600  133.3420  159.3737 H   0  0  0  0  0  0  0  0  0  0  0  0  # atno 6909 bound_to 6896
  146.1603  139.6770  142.9038 H   0  0  0  0  0  0  0  0  0  0  0  0  # atno 7974 bound_to 7965
  155.2960  140.3382  155.4250 H   0  0  0  0  0  0  0  0  0  0  0  0  # atno 8008 bound_to 7997
  156.2024  140.1738  156.7912 H   0  0  0  0  0  0  0  0  0  0  0  0  # atno 8009 bound_to 7997
  154.5576  140.0693  156.8752 H   0  0  0  0  0  0  0  0  0  0  0  0  # atno 8010 bound_to 7997
  140.7212  143.3652  151.1885 H   0  0  0  0  0  0  0  0  0  0  0  0  # atno 10167 bound_to 10162
  156.1944  130.6816  151.0463 H   0  0  0  0  0  0  0  0  0  0  0  0  # atno 10718 bound_to 10713
  153.7349  135.3233  155.3293 H   0  0  0  0  0  0  0  0  0  0  0  0  # atno 10763 bound_to 10752
  154.8314  135.4531  154.1084 H   0  0  0  0  0  0  0  0  0  0  0  0  # atno 10764 bound_to 10752
  153.2242  135.6952  153.8045 H   0  0  0  0  0  0  0  0  0  0  0  0  # atno 10765 bound_to 10752
  139.8951  134.9548  156.6729 H   0  0  0  0  0  0  0  0  0  0  0  0  # atno 11005 bound_to 11000
  145.4605  141.0432  143.2754 LP  0  0  0  0  0  0  0  0  0  0  0  0  # atno 17320 bound_to 7965
  144.8018  139.6126  143.7068 LP  0  0  0  0  0  0  0  0  0  0  0  0  # atno 17321 bound_to 7965
  139.7212  143.9220  152.2986 LP  0  0  0  0  0  0  0  0  0  0  0  0  # atno 17342 bound_to 10162
  139.8978  144.6929  150.8699 LP  0  0  0  0  0  0  0  0  0  0  0  0  # atno 17343 bound_to 10162
  157.6948  131.0797  150.7000 LP  0  0  0  0  0  0  0  0  0  0  0  0  # atno 17370 bound_to 10713
  156.7057  130.4637  149.5561 LP  0  0  0  0  0  0  0  0  0  0  0  0  # atno 17371 bound_to 10713
  140.7359  133.9019  155.8244 LP  0  0  0  0  0  0  0  0  0  0  0  0  # atno 17394 bound_to 11000
  141.0116  134.1012  157.4215 LP  0  0  0  0  0  0  0  0  0  0  0  0  # atno 17395 bound_to 11000

$$$$
