AV-unprocessed.smi:1898|AV-procd|sdf|7704|dock4
  -GOLD-   22720 9443D 1   1.00000     0.00000
 Structure written by MMmdl.
 46 47  0  0  0  0  0  0  0  0  3 V2000
  143.4441  145.6149  157.3423 C   0  0  0  0  0  0  0  0  0  0  0  0
  143.2753  144.4125  156.5345 N   0  5  0  0  0  0  0  0  0  0  0  0
  143.9383  143.2492  156.7728 C   0  0  0  0  0  0  0  0  0  0  0  0
  144.7359  142.9448  157.6659 O   0  0  0  0  0  0  0  0  0  0  0  0
  143.5727  142.1804  155.7362 C   0  0  0  0  0  0  0  0  0  0  0  0
  144.7665  141.8245  154.9298 N   0  3  2  0  0  0  0  0  0  0  0  0
  145.6313  140.8279  155.6103 C   0  0  0  0  0  0  0  0  0  0  0  0
  146.7746  140.3620  154.6906 C   0  0  0  0  0  0  0  0  0  0  0  0
  147.6121  141.5408  154.1654 C   0  0  2  0  0  0  0  0  0  0  0  0
  148.4297  142.1064  155.2383 N   0  0  0  0  0  0  0  0  0  0  0  0
  149.3524  141.4384  155.9454 C   0  0  0  0  0  0  0  0  0  0  0  0
  149.6325  140.2562  155.7492 O   0  0  0  0  0  0  0  0  0  0  0  0
  149.9256  142.2330  156.8651 N   0  0  0  0  0  0  0  0  0  0  0  0
  150.9317  141.9112  157.8180 C   0  0  0  0  0  0  0  0  0  0  0  0
  151.4559  140.6082  158.0002 C   0  0  0  0  0  0  0  0  0  0  0  0
  152.4360  140.3980  158.9876 C   0  0  0  0  0  0  0  0  0  0  0  0
  152.8522  141.4953  159.7633 C   0  0  0  0  0  0  0  0  0  0  0  0
  152.3526  142.7387  159.6114 N   0  0  0  0  0  0  0  0  0  0  0  0
  151.4071  142.9439  158.6602 C   0  0  0  0  0  0  0  0  0  0  0  0
  150.8926  144.2179  158.5096 O   0  0  0  0  0  0  0  0  0  0  0  0
  151.3594  145.2463  159.3762 C   0  0  0  0  0  0  0  0  0  0  0  0
  146.6861  142.5987  153.5334 C   0  0  0  0  0  0  0  0  0  0  0  0
  145.5449  143.0099  154.4807 C   0  0  0  0  0  0  0  0  0  0  0  0
  142.7724  146.4127  157.0262 H   0  0  0  0  0  0  0  0  0  0  0  0
  144.4550  146.0185  157.2804 H   0  0  0  0  0  0  0  0  0  0  0  0
  143.2383  145.4394  158.3987 H   0  0  0  0  0  0  0  0  0  0  0  0
  143.1299  141.2864  156.1813 H   0  0  0  0  0  0  0  0  0  0  0  0
  142.8048  142.6161  155.0955 H   0  0  0  0  0  0  0  0  0  0  0  0
  146.0306  141.2588  156.5297 H   0  0  0  0  0  0  0  0  0  0  0  0
  145.0354  139.9616  155.9004 H   0  0  0  0  0  0  0  0  0  0  0  0
  147.4112  139.6481  155.2147 H   0  0  0  0  0  0  0  0  0  0  0  0
  146.3492  139.8220  153.8435 H   0  0  0  0  0  0  0  0  0  0  0  0
  148.2836  141.1574  153.3950 H   0  0  0  0  0  0  0  0  0  0  0  0
  148.2715  143.0765  155.4680 H   0  0  0  0  0  0  0  0  0  0  0  0
  149.6484  143.2036  156.8480 H   0  0  0  0  0  0  0  0  0  0  0  0
  151.1185  139.7656  157.4174 H   0  0  0  0  0  0  0  0  0  0  0  0
  152.8552  139.4161  159.1497 H   0  0  0  0  0  0  0  0  0  0  0  0
  153.6014  141.3698  160.5310 H   0  0  0  0  0  0  0  0  0  0  0  0
  150.8578  146.1817  159.1283 H   0  0  0  0  0  0  0  0  0  0  0  0
  152.4326  145.4070  159.2637 H   0  0  0  0  0  0  0  0  0  0  0  0
  151.1382  145.0195  160.4202 H   0  0  0  0  0  0  0  0  0  0  0  0
  147.2570  143.4775  153.2309 H   0  0  0  0  0  0  0  0  0  0  0  0
  146.2548  142.1922  152.6176 H   0  0  0  0  0  0  0  0  0  0  0  0
  144.8927  143.7137  153.9630 H   0  0  0  0  0  0  0  0  0  0  0  0
  145.9448  143.5358  155.3490 H   0  0  0  0  0  0  0  0  0  0  0  0
  144.4102  141.3733  154.0991 H   0  0  0  0  0  0  0  0  0  0  0  0
  1  2  1  0  0  0  0
  1 24  1  0  0  0  0
  1 25  1  0  0  0  0
  1 26  1  0  0  0  0
  2  3  1  0  0  0  0
  3  4  2  0  0  0  0
  3  5  1  0  0  0  0
  5  6  1  0  0  0  0
  5 27  1  0  0  0  0
  5 28  1  0  0  0  0
  6 23  1  0  0  0  0
  6  7  1  0  0  0  0
  6 46  1  0  0  0  0
  7  8  1  0  0  0  0
  7 29  1  0  0  0  0
  7 30  1  0  0  0  0
  8  9  1  0  0  0  0
  8 31  1  0  0  0  0
  8 32  1  0  0  0  0
  9 10  1  0  0  0  0
  9 22  1  0  0  0  0
  9 33  1  0  0  0  0
 10 11  1  0  0  0  0
 10 34  1  0  0  0  0
 11 12  2  0  0  0  0
 11 13  1  0  0  0  0
 13 14  1  0  0  0  0
 13 35  1  0  0  0  0
 14 19  1  0  0  0  0
 14 15  2  0  0  0  0
 15 16  1  0  0  0  0
 15 36  1  0  0  0  0
 16 17  2  0  0  0  0
 16 37  1  0  0  0  0
 17 18  1  0  0  0  0
 17 38  1  0  0  0  0
 18 19  2  0  0  0  0
 19 20  1  0  0  0  0
 20 21  1  0  0  0  0
 21 39  1  0  0  0  0
 21 40  1  0  0  0  0
 21 41  1  0  0  0  0
 22 23  1  0  0  0  0
 22 42  1  0  0  0  0
 22 43  1  0  0  0  0
 23 44  1  0  0  0  0
 23 45  1  0  0  0  0
M  CHG  1   2  -1
M  CHG  1   6   1
M  END
> <s_m_source_file>
AV-unprocessed.smi

> <i_m_source_file_index>
1898

> <i_lp_mmshare_version>
43012

> <i_f3d_flags>
0

> <s_epik_input>
W0NIM11bTkhdQyg9TylbQ0gyXU4xW0NIMl1bQ0gyXVtDSF0oW0NIMl1bQ0gyXTEpW05IXUMoPU8pW05IXWMyW2NIXVtjSF1bY0hdbmMyT1tDSDNd

> <s_epik_cmdline>
J2VwaWtfcHl0aG9uJywgJy1waCcsICc3LjAnLCAnLXRuJywgJzgnLCAnLW1hJywgJzIwMCcsICctbWV0YWxfYmluZGluZycsICctaW1hZScsICc8aW5maWxlLm1hZT4nLCAnLW9tYWUnLCAnPG91dGZpbGUubWFlPic=

> <r_lp_tautomer_probability>
1

> <r_epik_Ionization_Penalty>
6.13954

> <r_epik_Ionization_Penalty_Charging>
6.13946

> <r_epik_Ionization_Penalty_Neutral>
7.84403e-05

> <r_epik_State_Penalty>
6.9595

> <r_epik_Charging_Adjusted_Penalty>
13.099

> <i_epik_Tot_Q>
0

> <i_epik_Tot_abs_Q>
2

> <r_epik_Metal_State_Penalty>
2.89145

> <b_epik_Metal_Only>
1

> <s_lp_Force_Field>
OPLS_2005

> <r_lp_Energy>
15.6721

> <b_lp_Chiralities_Consistent>
1

> <s_lp_Variant>
AV-unprocessed.smi:1898-5

> <Gold.Version>
5.8.1

> <Gold.Id.Protein>
6NUR|6NUR_protein|mol2

> <Gold.PLP.Fitness>
47.3808

> <Gold.PLP.PLP>
-35.6995

> <Gold.PLP.part.hbond>
-2.9783

> <Gold.PLP.part.metal>
0.0000

> <Gold.PLP.part.buried>
-9.1503

> <Gold.PLP.part.nonpolar>
-25.5554

> <Gold.PLP.part.repulsive>
0.5207

> <Gold.PLP.ligand.clash>
0.0000

> <Gold.PLP.ligand.torsion>
0.2017

> <Gold.PLP.Chemscore.Hbond>
3.9920

> <Gold.PLP.Chemscore.CHOScore>
0.0000

> <Gold.PLP.Chemscore.Metal>
0.0000

> <Gold.Chemscore.Hbonds>
donor molecule, donor type, donor heavy atom, donor atom, acceptor molecule, acceptor atom, score
      L1  H     6    46       P1 10175  2.00
      L1  H    10    34       P1  8028  1.00
      L1  H    13    35       P1  8028  0.83

> <Gold.PLP.Chemscore.Internal.Correction>
0.1086

> <Gold.Rescore>
     Score         DG    S(hbond)    S(metal)    S(lipo)     H(rot)  DE(clash)    DE(int)     intcor
     15.27     -19.18       2.90        0.00      76.41       1.93       1.30       2.60       ----

> <Gold.Chemscore.Fitness>
15.2690

> <Gold.Chemscore.DG>
-19.1763

> <Gold.Chemscore.ZeroCoef>
-5.4800

> <Gold.Chemscore.Hbond>
2.9022

> <Gold.Chemscore.Metal>
0.0000

> <Gold.Chemscore.Lipo>
76.4063

> <Gold.Chemscore.Internal_Hbond>
0.0000

> <Gold.Chemscore.DEClash>
1.3023

> <Gold.Chemscore.DEInternal>
2.6050

> <Gold.Chemscore.Rot>
1.9283

> <Gold.Chemscore.Internal.Correction>
   9.000000E+99

> <Gold.Chemscore.Hbonds>
donor molecule, donor type, donor heavy atom, donor atom, acceptor molecule, acceptor atom, score
      L1  H     6    46       P1 10175  0.39
      L1  H    10    34       P1  8028  0.92
      L1  H    13    35       P1  8028  0.77

> <Gold.Chemscore.Hbond.Weighted>
-9.6933

> <Gold.Chemscore.Metal.Weighted>
-0.0000

> <Gold.Chemscore.Lipo.Weighted>
-8.9395

> <Gold.Chemscore.Internal_Hbond.Weighted>
0.0000

> <Gold.Chemscore.DEClash.Weighted>
1.3023

> <Gold.Chemscore.DEInternal.Weighted>
2.6050

> <Gold.Chemscore.Rot.Weighted>
4.9365

> <Gold.Chemscore.Internal.Correction.Weighted>
   9.000000E+99

> <Gold.Protein.RotatedTorsions>
[ 6907 6896 6895 6894 ] final   99.07 input  -60.11 | X-H torsion
[ 7974 7965 7964 7962 ] final  124.32 input  175.53 | X-H torsion
[ 8008 7997 7996 7995 ] final   91.87 input   59.86 | X-H torsion
[ 10167 10162 10161 10158 ] final   91.79 input  -65.29 | X-H torsion
[ 10718 10713 10712 10709 ] final -126.77 input   66.30 | X-H torsion
[ 10763 10752 10751 10750 ] final  -10.64 input  -60.55 | X-H torsion
[ 11005 11000 10999 10996 ] final -169.76 input  -57.11 | X-H torsion

> <Gold.Protein.ActiveResidues>
 VAL166  LYS551  ARG553  GLY616  TRP617  ASP618  TYR619  PRO620  LYS621  CYS622 
 ASP623  PHE694  ASN695  SER759  ASP760  ASP761  ALA762  ILE779  LEU786  VAL792 
 PHE793  MET794  SER795  GLU796  ALA797  LYS798  CYS799  TRP800  GLU811  SER814 

> <Gold.Protein.RotatedAtoms>
  152.5398  134.0484  159.8098 H   0  0  0  0  0  0  0  0  0  0  0  0  # atno 6907 bound_to 6896
  151.0630  133.5521  159.2640 H   0  0  0  0  0  0  0  0  0  0  0  0  # atno 6908 bound_to 6896
  151.2413  135.0598  159.9080 H   0  0  0  0  0  0  0  0  0  0  0  0  # atno 6909 bound_to 6896
  145.0858  139.3623  143.4886 H   0  0  0  0  0  0  0  0  0  0  0  0  # atno 7974 bound_to 7965
  156.0288  140.3332  155.7117 H   0  0  0  0  0  0  0  0  0  0  0  0  # atno 8008 bound_to 7997
  155.5915  140.0646  157.2775 H   0  0  0  0  0  0  0  0  0  0  0  0  # atno 8009 bound_to 7997
  154.4345  140.1826  156.1067 H   0  0  0  0  0  0  0  0  0  0  0  0  # atno 8010 bound_to 7997
  139.8340  144.6673  150.9365 H   0  0  0  0  0  0  0  0  0  0  0  0  # atno 10167 bound_to 10162
  156.1796  130.6723  151.0287 H   0  0  0  0  0  0  0  0  0  0  0  0  # atno 10718 bound_to 10713
  153.4721  135.7017  153.5987 H   0  0  0  0  0  0  0  0  0  0  0  0  # atno 10763 bound_to 10752
  153.4237  135.3819  155.2127 H   0  0  0  0  0  0  0  0  0  0  0  0  # atno 10764 bound_to 10752
  154.8725  135.3934  154.4160 H   0  0  0  0  0  0  0  0  0  0  0  0  # atno 10765 bound_to 10752
  140.5271  134.5652  157.5064 H   0  0  0  0  0  0  0  0  0  0  0  0  # atno 11005 bound_to 11000
  146.3531  140.0669  142.8625 LP  0  0  0  0  0  0  0  0  0  0  0  0  # atno 17320 bound_to 7965
  145.1125  140.9413  143.4648 LP  0  0  0  0  0  0  0  0  0  0  0  0  # atno 17321 bound_to 7965
  140.7804  143.3974  151.1206 LP  0  0  0  0  0  0  0  0  0  0  0  0  # atno 17342 bound_to 10162
  139.7626  143.8613  152.3103 LP  0  0  0  0  0  0  0  0  0  0  0  0  # atno 17343 bound_to 10162
  157.6859  131.0825  150.7244 LP  0  0  0  0  0  0  0  0  0  0  0  0  # atno 17370 bound_to 10713
  156.7301  130.4707  149.5501 LP  0  0  0  0  0  0  0  0  0  0  0  0  # atno 17371 bound_to 10713
  139.9574  134.7511  156.0312 LP  0  0  0  0  0  0  0  0  0  0  0  0  # atno 17394 bound_to 11000
  141.1302  133.6588  156.3443 LP  0  0  0  0  0  0  0  0  0  0  0  0  # atno 17395 bound_to 11000

$$$$
