AV-unprocessed.smi:1660|AV-procd|sdf|6652|dock6
  -GOLD-   22720 7363D 1   1.00000     0.00000
 Structure written by MMmdl.
 42 43  0  0  0  0  0  0  0  0  1 V2000
  146.7185  129.5177  152.3972 C   0  0  0  0  0  0  0  0  0  0  0  0
  147.6380  129.7058  153.4674 O   0  0  0  0  0  0  0  0  0  0  0  0
  148.1579  130.9677  153.6706 C   0  0  0  0  0  0  0  0  0  0  0  0
  149.1008  131.1500  154.7014 C   0  0  0  0  0  0  0  0  0  0  0  0
  149.6360  132.4343  154.9167 C   0  0  0  0  0  0  0  0  0  0  0  0
  149.2158  133.4992  154.0841 C   0  0  0  0  0  0  0  0  0  0  0  0
  149.6667  134.8417  154.2087 N   0  0  0  0  0  0  0  0  0  0  0  0
  150.6096  135.3369  155.0290 C   0  0  0  0  0  0  0  0  0  0  0  0
  151.2840  134.6785  155.8207 O   0  0  0  0  0  0  0  0  0  0  0  0
  150.7479  136.6597  154.8686 N   0  0  0  0  0  0  0  0  0  0  0  0
  151.6979  137.4782  155.6105 C   0  0  0  0  0  0  0  0  0  0  0  0
  151.7383  138.9114  155.0492 C   0  0  0  0  0  0  0  0  0  0  0  0
  151.5784  140.0024  156.1234 C   0  0  0  0  0  0  0  0  0  0  0  0
  152.3593  140.0211  157.0763 O   0  0  0  0  0  0  0  0  0  0  0  0
  150.5860  140.9146  155.9891 N   0  0  0  0  0  0  0  0  0  0  0  0
  149.5932  140.8670  154.9122 C   0  0  0  0  0  0  0  0  0  0  0  0
  148.2170  140.5786  155.5388 C   0  0  0  0  0  0  0  0  0  0  0  0
  147.9084  141.5832  156.5029 O   0  0  0  0  0  0  0  0  0  0  0  0
  148.8770  141.6792  157.5450 C   0  0  0  0  0  0  0  0  0  0  0  0
  150.2590  141.9823  156.9391 C   0  0  0  0  0  0  0  0  0  0  0  0
  148.2578  133.2140  153.0892 C   0  0  0  0  0  0  0  0  0  0  0  0
  147.7406  131.9854  152.8777 N   0  0  0  0  0  0  0  0  0  0  0  0
  146.4029  128.4749  152.3728 H   0  0  0  0  0  0  0  0  0  0  0  0
  147.1755  129.7478  151.4335 H   0  0  0  0  0  0  0  0  0  0  0  0
  145.8251  130.1304  152.5260 H   0  0  0  0  0  0  0  0  0  0  0  0
  149.4055  130.3192  155.3207 H   0  0  0  0  0  0  0  0  0  0  0  0
  150.3422  132.5749  155.7197 H   0  0  0  0  0  0  0  0  0  0  0  0
  149.2556  135.4968  153.5595 H   0  0  0  0  0  0  0  0  0  0  0  0
  150.1611  137.1290  154.1945 H   0  0  0  0  0  0  0  0  0  0  0  0
  151.4088  137.4893  156.6631 H   0  0  0  0  0  0  0  0  0  0  0  0
  152.6874  137.0209  155.5497 H   0  0  0  0  0  0  0  0  0  0  0  0
  152.6889  139.0634  154.5361 H   0  0  0  0  0  0  0  0  0  0  0  0
  150.9454  139.0307  154.3096 H   0  0  0  0  0  0  0  0  0  0  0  0
  149.5765  141.8248  154.3900 H   0  0  0  0  0  0  0  0  0  0  0  0
  149.8194  140.1145  154.1554 H   0  0  0  0  0  0  0  0  0  0  0  0
  147.4445  140.5769  154.7698 H   0  0  0  0  0  0  0  0  0  0  0  0
  148.2033  139.5938  156.0091 H   0  0  0  0  0  0  0  0  0  0  0  0
  148.5814  142.4745  158.2293 H   0  0  0  0  0  0  0  0  0  0  0  0
  148.8994  140.7525  158.1209 H   0  0  0  0  0  0  0  0  0  0  0  0
  150.9914  142.1062  157.7349 H   0  0  0  0  0  0  0  0  0  0  0  0
  150.2330  142.9367  156.4111 H   0  0  0  0  0  0  0  0  0  0  0  0
  147.8958  133.9954  152.4371 H   0  0  0  0  0  0  0  0  0  0  0  0
  1  2  1  0  0  0  0
  1 23  1  0  0  0  0
  1 24  1  0  0  0  0
  1 25  1  0  0  0  0
  2  3  1  0  0  0  0
  3 22  1  0  0  0  0
  3  4  2  0  0  0  0
  4  5  1  0  0  0  0
  4 26  1  0  0  0  0
  5  6  2  0  0  0  0
  5 27  1  0  0  0  0
  6  7  1  0  0  0  0
  6 21  1  0  0  0  0
  7  8  1  0  0  0  0
  7 28  1  0  0  0  0
  8  9  2  0  0  0  0
  8 10  1  0  0  0  0
 10 11  1  0  0  0  0
 10 29  1  0  0  0  0
 11 12  1  0  0  0  0
 11 30  1  0  0  0  0
 11 31  1  0  0  0  0
 12 13  1  0  0  0  0
 12 32  1  0  0  0  0
 12 33  1  0  0  0  0
 13 14  2  0  0  0  0
 13 15  1  0  0  0  0
 15 20  1  0  0  0  0
 15 16  1  0  0  0  0
 16 17  1  0  0  0  0
 16 34  1  0  0  0  0
 16 35  1  0  0  0  0
 17 18  1  0  0  0  0
 17 36  1  0  0  0  0
 17 37  1  0  0  0  0
 18 19  1  0  0  0  0
 19 20  1  0  0  0  0
 19 38  1  0  0  0  0
 19 39  1  0  0  0  0
 20 40  1  0  0  0  0
 20 41  1  0  0  0  0
 21 22  2  0  0  0  0
 21 42  1  0  0  0  0
M  END
> <s_m_source_file>
AV-unprocessed.smi

> <i_m_source_file_index>
1660

> <i_lp_mmshare_version>
43012

> <i_f3d_flags>
0

> <s_epik_input>
W0NIM11PYzFbY0hdW2NIXWMoW2NIXW4xKVtOSF1DKD1PKVtOSF1bQ0gyXVtDSDJdQyg9TylOMltDSDJdW0NIMl1PW0NIMl1bQ0gyXTI=

> <s_epik_cmdline>
J2VwaWtfcHl0aG9uJywgJy1waCcsICc3LjAnLCAnLXRuJywgJzgnLCAnLW1hJywgJzIwMCcsICctbWV0YWxfYmluZGluZycsICctaW1hZScsICc8aW5maWxlLm1hZT4nLCAnLW9tYWUnLCAnPG91dGZpbGUubWFlPic=

> <r_lp_tautomer_probability>
1

> <r_epik_Ionization_Penalty>
8.54597e-05

> <r_epik_Ionization_Penalty_Charging>
0

> <r_epik_Ionization_Penalty_Neutral>
8.54597e-05

> <r_epik_State_Penalty>
-0

> <r_epik_Charging_Adjusted_Penalty>
0

> <i_epik_Tot_Q>
0

> <i_epik_Tot_abs_Q>
0

> <r_epik_Metal_State_Penalty>
-0

> <b_epik_Metal_Only>
0

> <s_lp_Force_Field>
OPLS_2005

> <r_lp_Energy>
25.5639

> <b_lp_Chiralities_Consistent>
1

> <s_lp_Variant>
AV-unprocessed.smi:1660-1

> <Gold.Version>
5.8.1

> <Gold.Id.Protein>
6NUR|6NUR_protein|mol2

> <Gold.PLP.Fitness>
45.4923

> <Gold.PLP.PLP>
-35.6222

> <Gold.PLP.part.hbond>
-3.3838

> <Gold.PLP.part.metal>
0.0000

> <Gold.PLP.part.buried>
0.6735

> <Gold.PLP.part.nonpolar>
-32.1640

> <Gold.PLP.part.repulsive>
0.5185

> <Gold.PLP.ligand.clash>
0.0000

> <Gold.PLP.ligand.torsion>
0.4145

> <Gold.PLP.Chemscore.Hbond>
2.5880

> <Gold.PLP.Chemscore.CHOScore>
0.9644

> <Gold.PLP.Chemscore.Metal>
0.0000

> <Gold.Chemscore.Hbonds>
donor molecule, donor type, donor heavy atom, donor atom, acceptor molecule, acceptor atom, score
      L1  H     7    28       P1  7948  1.00
      P1  H  7997  8010       L1    14  0.93
      P1  H 10752 10765       L1     9  0.34
      L1  C    21    42       P1  7948  0.90

> <Gold.PLP.Chemscore.Internal.Correction>
0.0421

> <Gold.Rescore>
     Score         DG    S(hbond)    S(metal)    S(lipo)     H(rot)  DE(clash)    DE(int)     intcor
     12.28     -14.20       1.78        0.00      64.79       1.88       0.13       1.79       ----

> <Gold.Chemscore.Fitness>
12.2817

> <Gold.Chemscore.DG>
-14.2012

> <Gold.Chemscore.ZeroCoef>
-5.4800

> <Gold.Chemscore.Hbond>
1.7846

> <Gold.Chemscore.Metal>
0.0000

> <Gold.Chemscore.Lipo>
64.7923

> <Gold.Chemscore.Internal_Hbond>
0.0000

> <Gold.Chemscore.DEClash>
0.1324

> <Gold.Chemscore.DEInternal>
1.7871

> <Gold.Chemscore.Rot>
1.8828

> <Gold.Chemscore.Internal.Correction>
   9.000000E+99

> <Gold.Chemscore.Hbonds>
donor molecule, donor type, donor heavy atom, donor atom, acceptor molecule, acceptor atom, score
      L1  H     7    28       P1  7948  0.38
      P1  H  7997  8010       L1    14  0.81
      P1  H 10752 10765       L1     9  0.02

> <Gold.Chemscore.Hbond.Weighted>
-5.9605

> <Gold.Chemscore.Metal.Weighted>
-0.0000

> <Gold.Chemscore.Lipo.Weighted>
-7.5807

> <Gold.Chemscore.Internal_Hbond.Weighted>
0.0000

> <Gold.Chemscore.DEClash.Weighted>
0.1324

> <Gold.Chemscore.DEInternal.Weighted>
1.7871

> <Gold.Chemscore.Rot.Weighted>
4.8200

> <Gold.Chemscore.Internal.Correction.Weighted>
   9.000000E+99

> <Gold.Protein.RotatedTorsions>
[ 6907 6896 6895 6894 ] final  -56.70 input  -60.11 | X-H torsion
[ 7974 7965 7964 7962 ] final  145.29 input  175.53 | X-H torsion
[ 8008 7997 7996 7995 ] final   62.82 input   59.86 | X-H torsion
[ 10167 10162 10161 10158 ] final -125.56 input  -65.29 | X-H torsion
[ 10718 10713 10712 10709 ] final -107.25 input   66.30 | X-H torsion
[ 10763 10752 10751 10750 ] final -151.83 input  -60.55 | X-H torsion
[ 11005 11000 10999 10996 ] final  -23.70 input  -57.11 | X-H torsion

> <Gold.Protein.ActiveResidues>
 VAL166  LYS551  ARG553  GLY616  TRP617  ASP618  TYR619  PRO620  LYS621  CYS622 
 ASP623  PHE694  ASN695  SER759  ASP760  ASP761  ALA762  ILE779  LEU786  VAL792 
 PHE793  MET794  SER795  GLU796  ALA797  LYS798  CYS799  TRP800  GLU811  SER814 

> <Gold.Protein.RotatedAtoms>
  150.8146  134.7320  159.6717 H   0  0  0  0  0  0  0  0  0  0  0  0  # atno 6907 bound_to 6896
  152.4265  134.5856  159.9969 H   0  0  0  0  0  0  0  0  0  0  0  0  # atno 6908 bound_to 6896
  151.6056  133.3315  159.3092 H   0  0  0  0  0  0  0  0  0  0  0  0  # atno 6909 bound_to 6896
  144.8765  139.5765  143.5863 H   0  0  0  0  0  0  0  0  0  0  0  0  # atno 7974 bound_to 7965
  155.6205  140.3495  155.4650 H   0  0  0  0  0  0  0  0  0  0  0  0  # atno 8008 bound_to 7997
  156.0083  140.1228  157.0503 H   0  0  0  0  0  0  0  0  0  0  0  0  # atno 8009 bound_to 7997
  154.4272  140.1086  156.5780 H   0  0  0  0  0  0  0  0  0  0  0  0  # atno 8010 bound_to 7997
  139.9808  143.5744  152.2379 H   0  0  0  0  0  0  0  0  0  0  0  0  # atno 10167 bound_to 10162
  156.0428  130.5653  150.7795 H   0  0  0  0  0  0  0  0  0  0  0  0  # atno 10718 bound_to 10713
  154.8033  135.3250  154.7496 H   0  0  0  0  0  0  0  0  0  0  0  0  # atno 10763 bound_to 10752
  153.8159  135.6891  153.4838 H   0  0  0  0  0  0  0  0  0  0  0  0  # atno 10764 bound_to 10752
  153.1762  135.4604  154.9912 H   0  0  0  0  0  0  0  0  0  0  0  0  # atno 10765 bound_to 10752
  140.8776  133.7676  156.0263 H   0  0  0  0  0  0  0  0  0  0  0  0  # atno 11005 bound_to 11000
  146.2966  139.7296  142.9122 LP  0  0  0  0  0  0  0  0  0  0  0  0  # atno 17320 bound_to 7965
  145.4033  141.0388  143.3058 LP  0  0  0  0  0  0  0  0  0  0  0  0  # atno 17321 bound_to 7965
  139.6411  144.7654  151.2337 LP  0  0  0  0  0  0  0  0  0  0  0  0  # atno 17342 bound_to 10162
  140.7489  143.6316  150.8418 LP  0  0  0  0  0  0  0  0  0  0  0  0  # atno 17343 bound_to 10162
  157.5267  131.0934  151.0009 LP  0  0  0  0  0  0  0  0  0  0  0  0  # atno 17370 bound_to 10713
  157.0326  130.5717  149.5345 LP  0  0  0  0  0  0  0  0  0  0  0  0  # atno 17371 bound_to 10713
  140.8499  134.2966  157.5279 LP  0  0  0  0  0  0  0  0  0  0  0  0  # atno 17394 bound_to 11000
  139.8717  134.9462  156.3931 LP  0  0  0  0  0  0  0  0  0  0  0  0  # atno 17395 bound_to 11000

$$$$
