AV-unprocessed.smi:1605|AV-procd|sdf|6457|dock3
  -GOLD-   22720 7113D 1   1.00000     0.00000
 Structure written by MMmdl.
 52 54  0  0  0  0  0  0  0  0  3 V2000
  143.9643  138.0458  154.8252 C   0  0  0  0  0  0  0  0  0  0  0  0
  145.2018  138.6511  154.4836 O   0  0  0  0  0  0  0  0  0  0  0  0
  145.8242  138.1061  153.3255 C   0  0  2  0  0  0  0  0  0  0  0  0
  146.3021  136.6870  153.6692 C   0  0  0  0  0  0  0  0  0  0  0  0
  147.4477  136.7059  154.6968 C   0  0  0  0  0  0  0  0  0  0  0  0
  148.5841  137.5379  154.2243 N   0  3  2  0  0  0  0  0  0  0  0  0
  149.7533  137.4676  155.1385 C   0  0  0  0  0  0  0  0  0  0  0  0
  150.9677  138.2548  154.6073 C   0  0  2  0  0  0  0  0  0  0  0  0
  151.8485  137.3490  153.9714 O   0  0  0  0  0  0  0  0  0  0  0  0
  151.7129  138.9891  155.7391 C   0  0  0  0  0  0  0  0  0  0  0  0
  151.1926  140.3437  155.9790 N   0  0  0  0  0  0  0  0  0  0  0  0
  150.2769  141.0583  155.2695 C   0  0  0  0  0  0  0  0  0  0  0  0
  150.1248  142.2615  155.8883 N   0  3  0  0  0  0  0  0  0  0  0  0
  150.9526  142.3165  157.0115 C   0  0  0  0  0  0  0  0  0  0  0  0
  151.1473  143.3237  157.9491 C   0  0  0  0  0  0  0  0  0  0  0  0
  152.0696  143.0680  158.9887 C   0  0  0  0  0  0  0  0  0  0  0  0
  152.3067  144.1488  160.0299 C   0  0  0  0  0  0  0  0  0  0  0  0
  152.7610  141.8312  159.0628 C   0  0  0  0  0  0  0  0  0  0  0  0
  153.7448  141.5637  160.1892 C   0  0  0  0  0  0  0  0  0  0  0  0
  152.5524  140.8211  158.0965 C   0  0  0  0  0  0  0  0  0  0  0  0
  151.6392  141.0881  157.0786 C   0  0  0  0  0  0  0  0  0  0  0  0
  148.1552  138.9306  153.9258 C   0  0  0  0  0  0  0  0  0  0  0  0
  147.0301  138.9535  152.8771 C   0  0  0  0  0  0  0  0  0  0  0  0
  143.5831  138.4960  155.7416 H   0  0  0  0  0  0  0  0  0  0  0  0
  144.0836  136.9769  155.0050 H   0  0  0  0  0  0  0  0  0  0  0  0
  143.2126  138.1894  154.0497 H   0  0  0  0  0  0  0  0  0  0  0  0
  145.0944  138.0377  152.5170 H   0  0  0  0  0  0  0  0  0  0  0  0
  145.4692  136.0946  154.0491 H   0  0  0  0  0  0  0  0  0  0  0  0
  146.6416  136.1889  152.7601 H   0  0  0  0  0  0  0  0  0  0  0  0
  147.0915  137.0854  155.6558 H   0  0  0  0  0  0  0  0  0  0  0  0
  147.7866  135.6834  154.8675 H   0  0  0  0  0  0  0  0  0  0  0  0
  149.4597  137.8316  156.1245 H   0  0  0  0  0  0  0  0  0  0  0  0
  150.0534  136.4276  155.2792 H   0  0  0  0  0  0  0  0  0  0  0  0
  150.6514  138.9926  153.8704 H   0  0  0  0  0  0  0  0  0  0  0  0
  151.5071  137.1510  153.1122 H   0  0  0  0  0  0  0  0  0  0  0  0
  151.6026  138.4363  156.6730 H   0  0  0  0  0  0  0  0  0  0  0  0
  152.7840  139.0408  155.5430 H   0  0  0  0  0  0  0  0  0  0  0  0
  149.7629  140.7311  154.3771 H   0  0  0  0  0  0  0  0  0  0  0  0
  150.6163  144.2626  157.8873 H   0  0  0  0  0  0  0  0  0  0  0  0
  152.0125  143.7982  161.0192 H   0  0  0  0  0  0  0  0  0  0  0  0
  151.7311  145.0482  159.8097 H   0  0  0  0  0  0  0  0  0  0  0  0
  153.3598  144.4287  160.0607 H   0  0  0  0  0  0  0  0  0  0  0  0
  154.1710  140.5625  160.1178 H   0  0  0  0  0  0  0  0  0  0  0  0
  153.2499  141.6449  161.1573 H   0  0  0  0  0  0  0  0  0  0  0  0
  154.5673  142.2787  160.1583 H   0  0  0  0  0  0  0  0  0  0  0  0
  153.0853  139.8836  158.1534 H   0  0  0  0  0  0  0  0  0  0  0  0
  147.8198  139.4148  154.8443 H   0  0  0  0  0  0  0  0  0  0  0  0
  148.9954  139.5150  153.5530 H   0  0  0  0  0  0  0  0  0  0  0  0
  147.4132  138.5611  151.9343 H   0  0  0  0  0  0  0  0  0  0  0  0
  146.7316  139.9808  152.6707 H   0  0  0  0  0  0  0  0  0  0  0  0
  148.8863  137.1269  153.3521 H   0  0  0  0  0  0  0  0  0  0  0  0
  149.4992  142.9896  155.5670 H   0  0  0  0  0  0  0  0  0  0  0  0
  1  2  1  0  0  0  0
  1 24  1  0  0  0  0
  1 25  1  0  0  0  0
  1 26  1  0  0  0  0
  2  3  1  0  0  0  0
  3 23  1  0  0  0  0
  3  4  1  0  0  0  0
  3 27  1  0  0  0  0
  4  5  1  0  0  0  0
  4 28  1  0  0  0  0
  4 29  1  0  0  0  0
  5  6  1  0  0  0  0
  5 30  1  0  0  0  0
  5 31  1  0  0  0  0
  6  7  1  0  0  0  0
  6 22  1  0  0  0  0
  6 51  1  0  0  0  0
  7  8  1  0  0  0  0
  7 32  1  0  0  0  0
  7 33  1  0  0  0  0
  8  9  1  0  0  0  0
  8 10  1  0  0  0  0
  8 34  1  0  0  0  0
  9 35  1  0  0  0  0
 10 11  1  0  0  0  0
 10 36  1  0  0  0  0
 10 37  1  0  0  0  0
 11 21  1  0  0  0  0
 11 12  1  0  0  0  0
 12 13  2  0  0  0  0
 12 38  1  0  0  0  0
 13 14  1  0  0  0  0
 13 52  1  0  0  0  0
 14 21  2  0  0  0  0
 14 15  1  0  0  0  0
 15 16  2  0  0  0  0
 15 39  1  0  0  0  0
 16 17  1  0  0  0  0
 16 18  1  0  0  0  0
 17 40  1  0  0  0  0
 17 41  1  0  0  0  0
 17 42  1  0  0  0  0
 18 19  1  0  0  0  0
 18 20  2  0  0  0  0
 19 43  1  0  0  0  0
 19 44  1  0  0  0  0
 19 45  1  0  0  0  0
 20 21  1  0  0  0  0
 20 46  1  0  0  0  0
 22 23  1  0  0  0  0
 22 47  1  0  0  0  0
 22 48  1  0  0  0  0
 23 49  1  0  0  0  0
 23 50  1  0  0  0  0
M  CHG  1   6   1
M  CHG  1  13   1
M  END
> <s_m_source_file>
AV-unprocessed.smi

> <i_m_source_file_index>
1605

> <i_lp_mmshare_version>
43012

> <i_f3d_flags>
0

> <s_epik_input>
W0NIM11PW0NIXTFbQ0gyXVtDSDJdTihbQ0gyXVtDSDJdMSlbQ0gyXVtDQEhdKFtPSF0pW0NIMl1uKFtjSF1uMiljKGMyMylbY0hdYyhbQ0gzXSljKFtjSF0zKVtDSDNd

> <s_epik_cmdline>
J2VwaWtfcHl0aG9uJywgJy1waCcsICc3LjAnLCAnLXRuJywgJzgnLCAnLW1hJywgJzIwMCcsICctbWV0YWxfYmluZGluZycsICctaW1hZScsICc8aW5maWxlLm1hZT4nLCAnLW9tYWUnLCAnPG91dGZpbGUubWFlPic=

> <r_epik_Ionization_Penalty>
1.19848

> <r_epik_Ionization_Penalty_Charging>
1.19848

> <r_epik_Ionization_Penalty_Neutral>
1.67134e-06

> <r_epik_State_Penalty>
1.2782

> <r_epik_Charging_Adjusted_Penalty>
2.47668

> <i_epik_Tot_Q>
2

> <i_epik_Tot_abs_Q>
2

> <r_epik_Metal_State_Penalty>
5.29544

> <b_epik_Metal_Only>
0

> <s_lp_Force_Field>
OPLS_2005

> <r_lp_Energy>
31.9375

> <b_lp_Chiralities_Consistent>
1

> <s_lp_Variant>
AV-unprocessed.smi:1605-7

> <Gold.Version>
5.8.1

> <Gold.Id.Protein>
6NUR|6NUR_protein|mol2

> <Gold.PLP.Fitness>
58.8191

> <Gold.PLP.PLP>
-42.7621

> <Gold.PLP.part.hbond>
-4.0000

> <Gold.PLP.part.metal>
0.0000

> <Gold.PLP.part.buried>
-3.6278

> <Gold.PLP.part.nonpolar>
-35.0444

> <Gold.PLP.part.repulsive>
0.6241

> <Gold.PLP.ligand.clash>
0.0000

> <Gold.PLP.ligand.torsion>
1.0157

> <Gold.PLP.Chemscore.Hbond>
5.9920

> <Gold.PLP.Chemscore.CHOScore>
0.0000

> <Gold.PLP.Chemscore.Metal>
0.0000

> <Gold.Chemscore.Hbonds>
donor molecule, donor type, donor heavy atom, donor atom, acceptor molecule, acceptor atom, score
      L1  H     6    51       P1  7948  2.00
      L1  H     9    35       P1  7949  1.00
      L1  H    13    52       P1  8028  2.00
      P1  H 10752 10764       L1     9  0.94

> <Gold.PLP.Chemscore.Internal.Correction>
0.1123

> <Gold.Rescore>
     Score         DG    S(hbond)    S(metal)    S(lipo)     H(rot)  DE(clash)    DE(int)     intcor
     22.44     -23.82       3.23        0.00     114.64       2.28       0.37       1.01       ----

> <Gold.Chemscore.Fitness>
22.4441

> <Gold.Chemscore.DG>
-23.8233

> <Gold.Chemscore.ZeroCoef>
-5.4800

> <Gold.Chemscore.Hbond>
3.2268

> <Gold.Chemscore.Metal>
0.0000

> <Gold.Chemscore.Lipo>
114.6374

> <Gold.Chemscore.Internal_Hbond>
0.0000

> <Gold.Chemscore.DEClash>
0.3669

> <Gold.Chemscore.DEInternal>
1.0123

> <Gold.Chemscore.Rot>
2.2839

> <Gold.Chemscore.Internal.Correction>
   9.000000E+99

> <Gold.Chemscore.Hbonds>
donor molecule, donor type, donor heavy atom, donor atom, acceptor molecule, acceptor atom, score
      L1  H     6    51       P1  7948  1.00
      L1  H     9    35       P1  7949  0.84
      L1  H    13    52       P1  8028  0.95
      P1  H 10752 10764       L1     9  0.22

> <Gold.Chemscore.Hbond.Weighted>
-10.7776

> <Gold.Chemscore.Metal.Weighted>
-0.0000

> <Gold.Chemscore.Lipo.Weighted>
-13.4126

> <Gold.Chemscore.Internal_Hbond.Weighted>
0.0000

> <Gold.Chemscore.DEClash.Weighted>
0.3669

> <Gold.Chemscore.DEInternal.Weighted>
1.0123

> <Gold.Chemscore.Rot.Weighted>
5.8469

> <Gold.Chemscore.Internal.Correction.Weighted>
   9.000000E+99

> <Gold.Protein.RotatedTorsions>
[ 6907 6896 6895 6894 ] final  -52.79 input  -60.11 | X-H torsion
[ 7974 7965 7964 7962 ] final  -26.85 input  175.53 | X-H torsion
[ 8008 7997 7996 7995 ] final  -90.85 input   59.86 | X-H torsion
[ 10167 10162 10161 10158 ] final  139.50 input  -65.29 | X-H torsion
[ 10718 10713 10712 10709 ] final  105.46 input   66.30 | X-H torsion
[ 10763 10752 10751 10750 ] final  -74.40 input  -60.55 | X-H torsion
[ 11005 11000 10999 10996 ] final -130.52 input  -57.11 | X-H torsion

> <Gold.Protein.ActiveResidues>
 VAL166  LYS551  ARG553  GLY616  TRP617  ASP618  TYR619  PRO620  LYS621  CYS622 
 ASP623  PHE694  ASN695  SER759  ASP760  ASP761  ALA762  ILE779  LEU786  VAL792 
 PHE793  MET794  SER795  GLU796  ALA797  LYS798  CYS799  TRP800  GLU811  SER814 

> <Gold.Protein.RotatedAtoms>
  150.8486  134.7803  159.6989 H   0  0  0  0  0  0  0  0  0  0  0  0  # atno 6907 bound_to 6896
  152.4556  134.5295  159.9816 H   0  0  0  0  0  0  0  0  0  0  0  0  # atno 6908 bound_to 6896
  151.5420  133.3393  159.2973 H   0  0  0  0  0  0  0  0  0  0  0  0  # atno 6909 bound_to 6896
  146.1398  140.5074  142.8657 H   0  0  0  0  0  0  0  0  0  0  0  0  # atno 7974 bound_to 7965
  154.7035  140.0526  157.0481 H   0  0  0  0  0  0  0  0  0  0  0  0  # atno 8008 bound_to 7997
  155.0652  140.3193  155.4629 H   0  0  0  0  0  0  0  0  0  0  0  0  # atno 8009 bound_to 7997
  156.2767  140.2091  156.5779 H   0  0  0  0  0  0  0  0  0  0  0  0  # atno 8010 bound_to 7997
  139.5077  144.6291  151.5863 H   0  0  0  0  0  0  0  0  0  0  0  0  # atno 10167 bound_to 10162
  157.6704  131.0828  150.5860 H   0  0  0  0  0  0  0  0  0  0  0  0  # atno 10718 bound_to 10713
  154.4726  135.5865  153.6332 H   0  0  0  0  0  0  0  0  0  0  0  0  # atno 10763 bound_to 10752
  152.9836  135.6070  154.3348 H   0  0  0  0  0  0  0  0  0  0  0  0  # atno 10764 bound_to 10752
  154.3231  135.2843  155.2489 H   0  0  0  0  0  0  0  0  0  0  0  0  # atno 10765 bound_to 10752
  140.9338  134.1284  157.4211 H   0  0  0  0  0  0  0  0  0  0  0  0  # atno 11005 bound_to 11000
  144.7779  140.5779  143.6625 LP  0  0  0  0  0  0  0  0  0  0  0  0  # atno 17320 bound_to 7965
  145.5073  139.1480  143.3624 LP  0  0  0  0  0  0  0  0  0  0  0  0  # atno 17321 bound_to 7965
  140.6018  143.9597  150.6391 LP  0  0  0  0  0  0  0  0  0  0  0  0  # atno 17342 bound_to 10162
  140.2811  143.3389  152.1150 LP  0  0  0  0  0  0  0  0  0  0  0  0  # atno 17343 bound_to 10162
  156.6160  130.4393  149.5840 LP  0  0  0  0  0  0  0  0  0  0  0  0  # atno 17370 bound_to 10713
  156.2393  130.6841  151.1540 LP  0  0  0  0  0  0  0  0  0  0  0  0  # atno 17371 bound_to 10713
  139.8803  135.0014  156.6065 LP  0  0  0  0  0  0  0  0  0  0  0  0  # atno 17394 bound_to 11000
  140.7827  133.8647  155.8580 LP  0  0  0  0  0  0  0  0  0  0  0  0  # atno 17395 bound_to 11000

$$$$
