AV-unprocessed.smi:1731|AV-procd|sdf|6975|dock7
  -GOLD-   22720 8183D 1   1.00000     0.00000
 Structure written by MMmdl.
 41 42  0  0  0  0  0  0  0  0  1 V2000
  152.3940  143.4977  163.1035 C   0  0  0  0  0  0  0  0  0  0  0  0
  152.9249  143.4041  161.6659 C   0  0  2  0  0  0  0  0  0  0  0  0
  151.8560  143.8316  160.6419 C   0  0  0  0  0  0  0  0  0  0  0  0
  152.3802  143.7343  159.1978 C   0  0  0  0  0  0  0  0  0  0  0  0
  152.9202  142.3302  158.8653 C   0  0  2  0  0  0  0  0  0  0  0  0
  151.8186  141.3727  158.7796 N   0  0  0  0  0  0  0  0  0  0  0  0
  151.9365  140.0757  158.4622 C   0  0  0  0  0  0  0  0  0  0  0  0
  153.0092  139.5330  158.1956 O   0  0  0  0  0  0  0  0  0  0  0  0
  150.7428  139.4608  158.4786 N   0  0  0  0  0  0  0  0  0  0  0  0
  150.4736  138.0972  158.1999 C   0  0  0  0  0  0  0  0  0  0  0  0
  149.9429  137.1697  159.1335 C   0  0  0  0  0  0  0  0  0  0  0  0
  149.7982  135.9714  158.5889 N   0  0  0  0  0  0  0  0  0  0  0  0
  150.2333  136.1095  157.3112 N   0  0  0  0  0  0  0  0  0  0  0  0
  150.2140  134.9656  156.4165 C   0  0  0  0  0  0  0  0  0  0  0  0
  150.0547  135.4062  154.9598 C   0  0  0  0  0  0  0  0  0  0  0  0
  148.9534  135.0068  154.3184 N   0  0  0  0  0  0  0  0  0  0  0  0
  150.9127  136.1019  154.4205 O   0  0  0  0  0  0  0  0  0  0  0  0
  150.6487  137.3988  157.0389 C   0  0  0  0  0  0  0  0  0  0  0  0
  153.9710  141.8880  159.9057 C   0  0  0  0  0  0  0  0  0  0  0  0
  153.4411  141.9878  161.3471 C   0  0  0  0  0  0  0  0  0  0  0  0
  151.5486  142.8267  163.2590 H   0  0  0  0  0  0  0  0  0  0  0  0
  152.0624  144.5105  163.3340 H   0  0  0  0  0  0  0  0  0  0  0  0
  153.1669  143.2326  163.8254 H   0  0  0  0  0  0  0  0  0  0  0  0
  153.7654  144.0943  161.5814 H   0  0  0  0  0  0  0  0  0  0  0  0
  150.9678  143.2081  160.7526 H   0  0  0  0  0  0  0  0  0  0  0  0
  151.5373  144.8550  160.8428 H   0  0  0  0  0  0  0  0  0  0  0  0
  151.5942  144.0130  158.4950 H   0  0  0  0  0  0  0  0  0  0  0  0
  153.1791  144.4644  159.0616 H   0  0  0  0  0  0  0  0  0  0  0  0
  153.4004  142.3821  157.8865 H   0  0  0  0  0  0  0  0  0  0  0  0
  150.8962  141.7278  158.9846 H   0  0  0  0  0  0  0  0  0  0  0  0
  149.9424  140.0264  158.7206 H   0  0  0  0  0  0  0  0  0  0  0  0
  149.6637  137.3219  160.1658 H   0  0  0  0  0  0  0  0  0  0  0  0
  151.1402  134.3989  156.5257 H   0  0  0  0  0  0  0  0  0  0  0  0
  149.3979  134.3051  156.7129 H   0  0  0  0  0  0  0  0  0  0  0  0
  148.8035  135.2730  153.3558 H   0  0  0  0  0  0  0  0  0  0  0  0
  148.2723  134.4385  154.8010 H   0  0  0  0  0  0  0  0  0  0  0  0
  151.0233  137.6869  156.0679 H   0  0  0  0  0  0  0  0  0  0  0  0
  154.3074  140.8707  159.7014 H   0  0  0  0  0  0  0  0  0  0  0  0
  154.8545  142.5203  159.8089 H   0  0  0  0  0  0  0  0  0  0  0  0
  154.2343  141.7157  162.0443 H   0  0  0  0  0  0  0  0  0  0  0  0
  152.6416  141.2605  161.4947 H   0  0  0  0  0  0  0  0  0  0  0  0
  1  2  1  0  0  0  0
  1 21  1  0  0  0  0
  1 22  1  0  0  0  0
  1 23  1  0  0  0  0
  2 20  1  0  0  0  0
  2  3  1  0  0  0  0
  2 24  1  0  0  0  0
  3  4  1  0  0  0  0
  3 25  1  0  0  0  0
  3 26  1  0  0  0  0
  4  5  1  0  0  0  0
  4 27  1  0  0  0  0
  4 28  1  0  0  0  0
  5  6  1  0  0  0  0
  5 19  1  0  0  0  0
  5 29  1  0  0  0  0
  6  7  1  0  0  0  0
  6 30  1  0  0  0  0
  7  8  2  0  0  0  0
  7  9  1  0  0  0  0
  9 10  1  0  0  0  0
  9 31  1  0  0  0  0
 10 18  2  0  0  0  0
 10 11  1  0  0  0  0
 11 12  2  0  0  0  0
 11 32  1  0  0  0  0
 12 13  1  0  0  0  0
 13 14  1  0  0  0  0
 13 18  1  0  0  0  0
 14 15  1  0  0  0  0
 14 33  1  0  0  0  0
 14 34  1  0  0  0  0
 15 16  1  0  0  0  0
 15 17  2  0  0  0  0
 16 35  1  0  0  0  0
 16 36  1  0  0  0  0
 18 37  1  0  0  0  0
 19 20  1  0  0  0  0
 19 38  1  0  0  0  0
 19 39  1  0  0  0  0
 20 40  1  0  0  0  0
 20 41  1  0  0  0  0
M  END
> <s_m_source_file>
AV-unprocessed.smi

> <i_m_source_file_index>
1731

> <i_lp_mmshare_version>
43012

> <i_f3d_flags>
0

> <s_epik_input>
W0NIM11bQ0BASF0xW0NIMl1bQ0gyXVtDQEhdKFtDSDJdW0NIMl0xKVtOSF1DKD1PKVtOSF1jMltjSF1ubihbY0hdMilbQ0gyXUMoPU8pW05IMl0=

> <s_epik_cmdline>
J2VwaWtfcHl0aG9uJywgJy1waCcsICc3LjAnLCAnLXRuJywgJzgnLCAnLW1hJywgJzIwMCcsICctbWV0YWxfYmluZGluZycsICctaW1hZScsICc8aW5maWxlLm1hZT4nLCAnLW9tYWUnLCAnPG91dGZpbGUubWFlPic=

> <r_lp_tautomer_probability>
1

> <r_epik_Ionization_Penalty>
4.81284e-05

> <r_epik_Ionization_Penalty_Charging>
0

> <r_epik_Ionization_Penalty_Neutral>
4.81284e-05

> <r_epik_State_Penalty>
-0

> <r_epik_Charging_Adjusted_Penalty>
0

> <i_epik_Tot_Q>
0

> <i_epik_Tot_abs_Q>
0

> <r_epik_Metal_State_Penalty>
-0

> <b_epik_Metal_Only>
0

> <s_lp_Force_Field>
OPLS_2005

> <r_lp_Energy>
11.3018

> <b_lp_Chiralities_Consistent>
1

> <s_lp_Variant>
AV-unprocessed.smi:1731-2

> <Gold.Version>
5.8.1

> <Gold.Id.Protein>
6NUR|6NUR_protein|mol2

> <Gold.PLP.Fitness>
43.2589

> <Gold.PLP.PLP>
-33.2155

> <Gold.PLP.part.hbond>
-4.0000

> <Gold.PLP.part.metal>
0.0000

> <Gold.PLP.part.buried>
-1.8147

> <Gold.PLP.part.nonpolar>
-28.7924

> <Gold.PLP.part.repulsive>
1.4874

> <Gold.PLP.ligand.clash>
0.0000

> <Gold.PLP.ligand.torsion>
0.9818

> <Gold.PLP.Chemscore.Hbond>
4.0000

> <Gold.PLP.Chemscore.CHOScore>
0.0000

> <Gold.PLP.Chemscore.Metal>
0.0000

> <Gold.Chemscore.Hbonds>
donor molecule, donor type, donor heavy atom, donor atom, acceptor molecule, acceptor atom, score
      L1  H    16    35       P1  7948  1.00
      P1  H  6896  6907       L1    12  1.00
      P1  H  7997  8009       L1     8  0.96
      P1  H 10752 10764       L1    17  0.88

> <Gold.PLP.Chemscore.Internal.Correction>
0.0071

> <Gold.Rescore>
     Score         DG    S(hbond)    S(metal)    S(lipo)     H(rot)  DE(clash)    DE(int)     intcor
     19.61     -24.42       3.66        0.00      99.09       1.90       2.63       2.18       ----

> <Gold.Chemscore.Fitness>
19.6070

> <Gold.Chemscore.DG>
-24.4232

> <Gold.Chemscore.ZeroCoef>
-5.4800

> <Gold.Chemscore.Hbond>
3.6590

> <Gold.Chemscore.Metal>
0.0000

> <Gold.Chemscore.Lipo>
99.0901

> <Gold.Chemscore.Internal_Hbond>
0.0000

> <Gold.Chemscore.DEClash>
2.6338

> <Gold.Chemscore.DEInternal>
2.1823

> <Gold.Chemscore.Rot>
1.9029

> <Gold.Chemscore.Internal.Correction>
   9.000000E+99

> <Gold.Chemscore.Hbonds>
donor molecule, donor type, donor heavy atom, donor atom, acceptor molecule, acceptor atom, score
      L1  H    16    35       P1  7948  0.69
      P1  H  6896  6907       L1    12  0.74
      P1  H  7997  8009       L1     8  0.91
      P1  H 10752 10764       L1    17  0.83

> <Gold.Chemscore.Hbond.Weighted>
-12.2210

> <Gold.Chemscore.Metal.Weighted>
-0.0000

> <Gold.Chemscore.Lipo.Weighted>
-11.5935

> <Gold.Chemscore.Internal_Hbond.Weighted>
0.0000

> <Gold.Chemscore.DEClash.Weighted>
2.6338

> <Gold.Chemscore.DEInternal.Weighted>
2.1823

> <Gold.Chemscore.Rot.Weighted>
4.8714

> <Gold.Chemscore.Internal.Correction.Weighted>
   9.000000E+99

> <Gold.Protein.RotatedTorsions>
[ 6907 6896 6895 6894 ] final  -68.92 input  -60.11 | X-H torsion
[ 7974 7965 7964 7962 ] final  118.66 input  175.53 | X-H torsion
[ 8008 7997 7996 7995 ] final  148.35 input   59.86 | X-H torsion
[ 10167 10162 10161 10158 ] final -171.33 input  -65.29 | X-H torsion
[ 10718 10713 10712 10709 ] final  140.59 input   66.30 | X-H torsion
[ 10763 10752 10751 10750 ] final  -61.38 input  -60.55 | X-H torsion
[ 11005 11000 10999 10996 ] final  173.91 input  -57.11 | X-H torsion

> <Gold.Protein.ActiveResidues>
 VAL166  LYS551  ARG553  GLY616  TRP617  ASP618  TYR619  PRO620  LYS621  CYS622 
 ASP623  PHE694  ASN695  SER759  ASP760  ASP761  ALA762  ILE779  LEU786  VAL792 
 PHE793  MET794  SER795  GLU796  ALA797  LYS798  CYS799  TRP800  GLU811  SER814 

> <Gold.Protein.RotatedAtoms>
  150.7331  134.5670  159.5870 H   0  0  0  0  0  0  0  0  0  0  0  0  # atno 6907 bound_to 6896
  152.3119  134.7484  160.0343 H   0  0  0  0  0  0  0  0  0  0  0  0  # atno 6908 bound_to 6896
  151.8030  133.3336  159.3569 H   0  0  0  0  0  0  0  0  0  0  0  0  # atno 6909 bound_to 6896
  145.1525  139.3202  143.4559 H   0  0  0  0  0  0  0  0  0  0  0  0  # atno 7974 bound_to 7965
  156.2794  140.2131  156.5684 H   0  0  0  0  0  0  0  0  0  0  0  0  # atno 8008 bound_to 7997
  154.7156  140.0508  157.0614 H   0  0  0  0  0  0  0  0  0  0  0  0  # atno 8009 bound_to 7997
  155.0547  140.3160  155.4683 H   0  0  0  0  0  0  0  0  0  0  0  0  # atno 8010 bound_to 7997
  139.5808  144.1427  152.1513 H   0  0  0  0  0  0  0  0  0  0  0  0  # atno 10167 bound_to 10162
  157.4015  131.1017  151.0546 H   0  0  0  0  0  0  0  0  0  0  0  0  # atno 10718 bound_to 10713
  154.2837  135.6267  153.5357 H   0  0  0  0  0  0  0  0  0  0  0  0  # atno 10763 bound_to 10752
  152.9862  135.5639  154.5467 H   0  0  0  0  0  0  0  0  0  0  0  0  # atno 10764 bound_to 10752
  154.5063  135.2874  155.1355 H   0  0  0  0  0  0  0  0  0  0  0  0  # atno 10765 bound_to 10752
  140.3455  134.7239  157.4232 H   0  0  0  0  0  0  0  0  0  0  0  0  # atno 11005 bound_to 11000
  146.3493  140.1605  142.8591 LP  0  0  0  0  0  0  0  0  0  0  0  0  # atno 17320 bound_to 7965
  145.0415  140.8949  143.5049 LP  0  0  0  0  0  0  0  0  0  0  0  0  # atno 17321 bound_to 7965
  140.0980  144.5564  150.7009 LP  0  0  0  0  0  0  0  0  0  0  0  0  # atno 17342 bound_to 10162
  140.7087  143.2487  151.4649 LP  0  0  0  0  0  0  0  0  0  0  0  0  # atno 17343 bound_to 10162
  157.1544  130.6198  149.5592 LP  0  0  0  0  0  0  0  0  0  0  0  0  # atno 17370 bound_to 10713
  155.9824  130.4838  150.6882 LP  0  0  0  0  0  0  0  0  0  0  0  0  # atno 17371 bound_to 10713
  140.0745  134.5816  155.8605 LP  0  0  0  0  0  0  0  0  0  0  0  0  # atno 17394 bound_to 11000
  141.2026  133.6626  156.6019 LP  0  0  0  0  0  0  0  0  0  0  0  0  # atno 17395 bound_to 11000

$$$$
