AV-unprocessed.smi:849|AV-procd|sdf|3944|dock3
  -GOLD-   22720 1413D 1   1.00000     0.00000
 Structure written by MMmdl.
 36 38  0  0  0  0  0  0  0  0  1 V2000
  152.6219  136.9937  159.7526 O   0  0  0  0  0  0  0  0  0  0  0  0
  152.0355  137.7082  158.6834 C   0  0  0  0  0  0  0  0  0  0  0  0
  152.1618  139.2009  158.8025 C   0  0  0  0  0  0  0  0  0  0  0  0
  153.0009  139.7911  159.6572 N   0  0  0  0  0  0  0  0  0  0  0  0
  152.7879  141.1340  159.4202 C   0  0  0  0  0  0  0  0  0  0  0  0
  153.3748  142.2754  160.0116 C   0  0  0  0  0  0  0  0  0  0  0  0
  152.9911  143.5688  159.6008 C   0  0  0  0  0  0  0  0  0  0  0  0
  152.0186  143.7389  158.5944 C   0  0  0  0  0  0  0  0  0  0  0  0
  151.4223  142.6146  157.9917 C   0  0  0  0  0  0  0  0  0  0  0  0
  151.8078  141.3258  158.4069 C   0  0  0  0  0  0  0  0  0  0  0  0
  151.4200  140.0417  158.0364 N   0  0  0  0  0  0  0  0  0  0  0  0
  150.4232  139.7119  157.0262 C   0  0  0  0  0  0  0  0  0  0  0  0
  150.6065  140.5213  155.7248 C   0  0  1  0  0  0  0  0  0  0  0  0
  151.7623  140.0366  155.0707 O   0  0  0  0  0  0  0  0  0  0  0  0
  149.3712  140.4754  154.8258 C   0  0  0  0  0  0  0  0  0  0  0  0
  148.7348  141.6864  154.4665 C   0  0  0  0  0  0  0  0  0  0  0  0
  147.6062  141.6846  153.6256 C   0  0  0  0  0  0  0  0  0  0  0  0
  147.1007  140.4691  153.1320 C   0  0  0  0  0  0  0  0  0  0  0  0
  147.7258  139.2580  153.4801 C   0  0  0  0  0  0  0  0  0  0  0  0
  148.8562  139.2524  154.3218 C   0  0  0  0  0  0  0  0  0  0  0  0
  149.5798  137.7286  154.7019 Cl  0  0  0  0  0  0  0  0  0  0  0  0
  153.1580  137.5882  160.2541 H   0  0  0  0  0  0  0  0  0  0  0  0
  152.5028  137.3828  157.7539 H   0  0  0  0  0  0  0  0  0  0  0  0
  150.9816  137.4391  158.6341 H   0  0  0  0  0  0  0  0  0  0  0  0
  154.1205  142.1548  160.7832 H   0  0  0  0  0  0  0  0  0  0  0  0
  153.4450  144.4345  160.0606 H   0  0  0  0  0  0  0  0  0  0  0  0
  151.7296  144.7329  158.2861 H   0  0  0  0  0  0  0  0  0  0  0  0
  150.6748  142.7413  157.2228 H   0  0  0  0  0  0  0  0  0  0  0  0
  150.5227  138.6463  156.8133 H   0  0  0  0  0  0  0  0  0  0  0  0
  149.4196  139.8444  157.4299 H   0  0  0  0  0  0  0  0  0  0  0  0
  150.8427  141.5542  155.9763 H   0  0  0  0  0  0  0  0  0  0  0  0
  151.9020  139.1396  155.3323 H   0  0  0  0  0  0  0  0  0  0  0  0
  149.1156  142.6295  154.8294 H   0  0  0  0  0  0  0  0  0  0  0  0
  147.1301  142.6164  153.3578 H   0  0  0  0  0  0  0  0  0  0  0  0
  146.2351  140.4647  152.4860 H   0  0  0  0  0  0  0  0  0  0  0  0
  147.3351  138.3265  153.0969 H   0  0  0  0  0  0  0  0  0  0  0  0
  1  2  1  0  0  0  0
  1 22  1  0  0  0  0
  2  3  1  0  0  0  0
  2 23  1  0  0  0  0
  2 24  1  0  0  0  0
  3 11  1  0  0  0  0
  3  4  2  0  0  0  0
  4  5  1  0  0  0  0
  5 10  2  0  0  0  0
  5  6  1  0  0  0  0
  6  7  2  0  0  0  0
  6 25  1  0  0  0  0
  7  8  1  0  0  0  0
  7 26  1  0  0  0  0
  8  9  2  0  0  0  0
  8 27  1  0  0  0  0
  9 10  1  0  0  0  0
  9 28  1  0  0  0  0
 10 11  1  0  0  0  0
 11 12  1  0  0  0  0
 12 13  1  0  0  0  0
 12 29  1  0  0  0  0
 12 30  1  0  0  0  0
 13 14  1  0  0  0  0
 13 15  1  0  0  0  0
 13 31  1  0  0  0  0
 14 32  1  0  0  0  0
 15 20  1  0  0  0  0
 15 16  2  0  0  0  0
 16 17  1  0  0  0  0
 16 33  1  0  0  0  0
 17 18  2  0  0  0  0
 17 34  1  0  0  0  0
 18 19  1  0  0  0  0
 18 35  1  0  0  0  0
 19 20  2  0  0  0  0
 19 36  1  0  0  0  0
 20 21  1  0  0  0  0
M  END
> <s_m_source_file>
AV-unprocessed.smi

> <i_m_source_file_index>
849

> <i_lp_mmshare_version>
43012

> <i_f3d_flags>
0

> <s_epik_input>
W2NIXTFbY0hdW2NIXVtjSF1jKGMxMiluKGMobjIpW0NIMl1bT0hdKVtDSDJdW0NASF0oW09IXSljM1tjSF1bY0hdW2NIXVtjSF1jM0Ns

> <s_epik_cmdline>
J2VwaWtfcHl0aG9uJywgJy1waCcsICc3LjAnLCAnLXRuJywgJzgnLCAnLW1hJywgJzIwMCcsICctbWV0YWxfYmluZGluZycsICctaW1hZScsICc8aW5maWxlLm1hZT4nLCAnLW9tYWUnLCAnPG91dGZpbGUubWFlPic=

> <r_epik_Ionization_Penalty>
0.0634742

> <r_epik_Ionization_Penalty_Charging>
0

> <r_epik_Ionization_Penalty_Neutral>
0.0634742

> <r_epik_State_Penalty>
0.0551572

> <r_epik_Charging_Adjusted_Penalty>
0.0551572

> <i_epik_Tot_Q>
0

> <i_epik_Tot_abs_Q>
0

> <r_epik_Metal_State_Penalty>
5.78034e-05

> <b_epik_Metal_Only>
0

> <s_lp_Force_Field>
OPLS_2005

> <r_lp_Energy>
13.628

> <b_lp_Chiralities_Consistent>
1

> <s_lp_Variant>
AV-unprocessed.smi:849-2

> <Gold.Version>
5.8.1

> <Gold.Id.Protein>
6NUR|6NUR_protein|mol2

> <Gold.PLP.Fitness>
49.4389

> <Gold.PLP.PLP>
-44.4482

> <Gold.PLP.part.hbond>
-2.0000

> <Gold.PLP.part.metal>
0.0000

> <Gold.PLP.part.buried>
-3.4761

> <Gold.PLP.part.nonpolar>
-38.4803

> <Gold.PLP.part.repulsive>
0.0000

> <Gold.PLP.ligand.clash>
0.0000

> <Gold.PLP.ligand.torsion>
0.4420

> <Gold.PLP.Chemscore.Hbond>
1.9513

> <Gold.PLP.Chemscore.CHOScore>
0.0000

> <Gold.PLP.Chemscore.Metal>
0.0000

> <Gold.Chemscore.Hbonds>
donor molecule, donor type, donor heavy atom, donor atom, acceptor molecule, acceptor atom, score
      P1  H  6896  6909       L1     1  0.99
      P1  H  7989  7998       L1    14  0.96

> <Gold.PLP.Chemscore.Internal.Correction>
0.0209

> <Gold.Rescore>
     Score         DG    S(hbond)    S(metal)    S(lipo)     H(rot)  DE(clash)    DE(int)     intcor
     18.06     -18.70       1.78        0.00     119.47       2.62       0.13       0.50       ----

> <Gold.Chemscore.Fitness>
18.0635

> <Gold.Chemscore.DG>
-18.6993

> <Gold.Chemscore.ZeroCoef>
-5.4800

> <Gold.Chemscore.Hbond>
1.7833

> <Gold.Chemscore.Metal>
0.0000

> <Gold.Chemscore.Lipo>
119.4734

> <Gold.Chemscore.Internal_Hbond>
0.0000

> <Gold.Chemscore.DEClash>
0.1337

> <Gold.Chemscore.DEInternal>
0.5021

> <Gold.Chemscore.Rot>
2.6232

> <Gold.Chemscore.Internal.Correction>
   9.000000E+99

> <Gold.Chemscore.Hbonds>
donor molecule, donor type, donor heavy atom, donor atom, acceptor molecule, acceptor atom, score
      P1  H  6896  6909       L1     1  0.84
      P1  H  7989  7998       L1    14  0.32

> <Gold.Chemscore.Hbond.Weighted>
-5.9563

> <Gold.Chemscore.Metal.Weighted>
-0.0000

> <Gold.Chemscore.Lipo.Weighted>
-13.9784

> <Gold.Chemscore.Internal_Hbond.Weighted>
0.0000

> <Gold.Chemscore.DEClash.Weighted>
0.1337

> <Gold.Chemscore.DEInternal.Weighted>
0.5021

> <Gold.Chemscore.Rot.Weighted>
6.7154

> <Gold.Chemscore.Internal.Correction.Weighted>
   9.000000E+99

> <Gold.Protein.RotatedTorsions>
[ 6907 6896 6895 6894 ] final  138.40 input  -60.11 | X-H torsion
[ 7974 7965 7964 7962 ] final   74.43 input  175.53 | X-H torsion
[ 8008 7997 7996 7995 ] final -162.72 input   59.86 | X-H torsion
[ 10167 10162 10161 10158 ] final   10.24 input  -65.29 | X-H torsion
[ 10718 10713 10712 10709 ] final   22.48 input   66.30 | X-H torsion
[ 10763 10752 10751 10750 ] final  -55.96 input  -60.55 | X-H torsion
[ 11005 11000 10999 10996 ] final  163.15 input  -57.11 | X-H torsion

> <Gold.Protein.ActiveResidues>
 VAL166  LYS551  ARG553  GLY616  TRP617  ASP618  TYR619  PRO620  LYS621  CYS622 
 ASP623  PHE694  ASN695  SER759  ASP760  ASP761  ALA762  ILE779  LEU786  VAL792 
 PHE793  MET794  SER795  GLU796  ALA797  LYS798  CYS799  TRP800  GLU811  SER814 

> <Gold.Protein.RotatedAtoms>
  152.2671  133.5348  159.5416 H   0  0  0  0  0  0  0  0  0  0  0  0  # atno 6907 bound_to 6896
  150.7145  134.0750  159.3886 H   0  0  0  0  0  0  0  0  0  0  0  0  # atno 6908 bound_to 6896
  151.8666  135.0505  160.0525 H   0  0  0  0  0  0  0  0  0  0  0  0  # atno 6909 bound_to 6896
  145.7284  139.2674  143.1555 H   0  0  0  0  0  0  0  0  0  0  0  0  # atno 7974 bound_to 7965
  155.8110  140.0905  157.1904 H   0  0  0  0  0  0  0  0  0  0  0  0  # atno 8008 bound_to 7997
  154.3980  140.1454  156.3446 H   0  0  0  0  0  0  0  0  0  0  0  0  # atno 8009 bound_to 7997
  155.8365  140.3440  155.5607 H   0  0  0  0  0  0  0  0  0  0  0  0  # atno 8010 bound_to 7997
  140.6206  143.8213  150.7170 H   0  0  0  0  0  0  0  0  0  0  0  0  # atno 10167 bound_to 10162
  157.1530  130.6683  149.6018 H   0  0  0  0  0  0  0  0  0  0  0  0  # atno 10718 bound_to 10713
  154.1991  135.6414  153.5082 H   0  0  0  0  0  0  0  0  0  0  0  0  # atno 10763 bound_to 10752
  153.0016  135.5447  154.6334 H   0  0  0  0  0  0  0  0  0  0  0  0  # atno 10764 bound_to 10752
  154.5743  135.2919  155.0770 H   0  0  0  0  0  0  0  0  0  0  0  0  # atno 10765 bound_to 10752
  140.2329  134.8110  157.3335 H   0  0  0  0  0  0  0  0  0  0  0  0  # atno 11005 bound_to 11000
  146.0561  140.8020  142.9758 LP  0  0  0  0  0  0  0  0  0  0  0  0  # atno 17320 bound_to 7965
  144.6899  140.3125  143.7245 LP  0  0  0  0  0  0  0  0  0  0  0  0  # atno 17321 bound_to 7965
  140.1802  143.4121  152.1938 LP  0  0  0  0  0  0  0  0  0  0  0  0  # atno 17342 bound_to 10162
  139.5435  144.7278  151.4656 LP  0  0  0  0  0  0  0  0  0  0  0  0  # atno 17343 bound_to 10162
  155.9767  130.4738  150.6546 LP  0  0  0  0  0  0  0  0  0  0  0  0  # atno 17370 bound_to 10713
  157.4203  131.0836  151.1137 LP  0  0  0  0  0  0  0  0  0  0  0  0  # atno 17371 bound_to 10713
  140.1732  134.4583  155.7818 LP  0  0  0  0  0  0  0  0  0  0  0  0  # atno 17394 bound_to 11000
  141.2216  133.6950  156.7742 LP  0  0  0  0  0  0  0  0  0  0  0  0  # atno 17395 bound_to 11000

$$$$
