AV-unprocessed.smi:2044|AV-procd|sdf|8302|dock4
  -GOLD-   2272010563D 1   1.00000     0.00000
 Structure written by MMmdl.
 38 39  0  0  0  0  0  0  0  0  2 V2000
  154.5592  132.9584  164.0767 C   0  0  0  0  0  0  0  0  0  0  0  0
  154.6522  134.3022  163.4387 C   0  0  0  0  0  0  0  0  0  0  0  0
  154.3144  135.5559  163.8630 C   0  0  0  0  0  0  0  0  0  0  0  0
  154.6599  136.3774  162.7554 C   0  0  0  0  0  0  0  0  0  0  0  0
  154.5249  137.7108  162.6910 N   0  5  0  0  0  0  0  0  0  0  0  0
  154.5895  138.3450  161.4975 C   0  0  0  0  0  0  0  0  0  0  0  0
  154.8120  137.8233  160.4024 O   0  0  0  0  0  0  0  0  0  0  0  0
  154.3818  139.6656  161.5758 N   0  0  0  0  0  0  0  0  0  0  0  0
  154.3870  140.5883  160.4452 C   0  0  0  0  0  0  0  0  0  0  0  0
  153.0041  140.6521  159.7498 C   0  0  2  0  0  0  0  0  0  0  0  0
  152.8729  139.4206  158.8255 C   0  0  0  0  0  0  0  0  0  0  0  0
  152.7322  141.9347  159.0640 N   0  0  0  0  0  0  0  0  0  0  0  0
  152.8015  143.0847  159.9703 C   0  0  0  0  0  0  0  0  0  0  0  0
  152.5044  144.4161  159.2592 C   0  0  0  0  0  0  0  0  0  0  0  0
  151.2272  144.3534  158.6380 O   0  0  0  0  0  0  0  0  0  0  0  0
  151.1397  143.2907  157.6976 C   0  0  0  0  0  0  0  0  0  0  0  0
  151.4259  141.9525  158.4003 C   0  0  0  0  0  0  0  0  0  0  0  0
  155.1786  135.6857  161.7545 N   0  0  0  0  0  0  0  0  0  0  0  0
  155.1701  134.3526  162.1818 O   0  0  0  0  0  0  0  0  0  0  0  0
  154.9204  132.9932  165.1045 H   0  0  0  0  0  0  0  0  0  0  0  0
  155.1554  132.2243  163.5346 H   0  0  0  0  0  0  0  0  0  0  0  0
  153.5262  132.6109  164.0921 H   0  0  0  0  0  0  0  0  0  0  0  0
  153.8848  135.8414  164.8115 H   0  0  0  0  0  0  0  0  0  0  0  0
  154.1989  140.0591  162.4873 H   0  0  0  0  0  0  0  0  0  0  0  0
  154.6691  141.5786  160.8056 H   0  0  0  0  0  0  0  0  0  0  0  0
  155.1688  140.3077  159.7389 H   0  0  0  0  0  0  0  0  0  0  0  0
  152.2595  140.5293  160.5379 H   0  0  0  0  0  0  0  0  0  0  0  0
  153.1867  138.5091  159.3351 H   0  0  0  0  0  0  0  0  0  0  0  0
  153.4880  139.5248  157.9312 H   0  0  0  0  0  0  0  0  0  0  0  0
  151.8441  139.2518  158.5096 H   0  0  0  0  0  0  0  0  0  0  0  0
  152.0994  142.9492  160.7943 H   0  0  0  0  0  0  0  0  0  0  0  0
  153.7944  143.1659  160.4106 H   0  0  0  0  0  0  0  0  0  0  0  0
  152.5117  145.2371  159.9760 H   0  0  0  0  0  0  0  0  0  0  0  0
  153.2708  144.6346  158.5138 H   0  0  0  0  0  0  0  0  0  0  0  0
  150.1408  143.2830  157.2609 H   0  0  0  0  0  0  0  0  0  0  0  0
  151.8447  143.4569  156.8816 H   0  0  0  0  0  0  0  0  0  0  0  0
  151.3685  141.1683  157.6469 H   0  0  0  0  0  0  0  0  0  0  0  0
  150.6382  141.7501  159.1278 H   0  0  0  0  0  0  0  0  0  0  0  0
  1  2  1  0  0  0  0
  1 20  1  0  0  0  0
  1 21  1  0  0  0  0
  1 22  1  0  0  0  0
  2 19  1  0  0  0  0
  2  3  2  0  0  0  0
  3  4  1  0  0  0  0
  3 23  1  0  0  0  0
  4  5  1  0  0  0  0
  4 18  2  0  0  0  0
  5  6  1  0  0  0  0
  6  7  2  0  0  0  0
  6  8  1  0  0  0  0
  8  9  1  0  0  0  0
  8 24  1  0  0  0  0
  9 10  1  0  0  0  0
  9 25  1  0  0  0  0
  9 26  1  0  0  0  0
 10 11  1  0  0  0  0
 10 12  1  0  0  0  0
 10 27  1  0  0  0  0
 11 28  1  0  0  0  0
 11 29  1  0  0  0  0
 11 30  1  0  0  0  0
 12 17  1  0  0  0  0
 12 13  1  0  0  0  0
 13 14  1  0  0  0  0
 13 31  1  0  0  0  0
 13 32  1  0  0  0  0
 14 15  1  0  0  0  0
 14 33  1  0  0  0  0
 14 34  1  0  0  0  0
 15 16  1  0  0  0  0
 16 17  1  0  0  0  0
 16 35  1  0  0  0  0
 16 36  1  0  0  0  0
 17 37  1  0  0  0  0
 17 38  1  0  0  0  0
 18 19  1  0  0  0  0
M  CHG  1   5  -1
M  END
> <s_m_source_file>
AV-unprocessed.smi

> <i_m_source_file_index>
2044

> <i_lp_mmshare_version>
43012

> <i_f3d_flags>
0

> <s_epik_input>
W0NIM11jMVtjSF1jKG5vMSlbTkhdQyg9TylbTkhdW0NIMl1bQ0BIXShbQ0gzXSlOMltDSDJdW0NIMl1PW0NIMl1bQ0gyXTI=

> <s_epik_cmdline>
J2VwaWtfcHl0aG9uJywgJy1waCcsICc3LjAnLCAnLXRuJywgJzgnLCAnLW1hJywgJzIwMCcsICctbWV0YWxfYmluZGluZycsICctaW1hZScsICc8aW5maWxlLm1hZT4nLCAnLW9tYWUnLCAnPG91dGZpbGUubWFlPic=

> <r_epik_Ionization_Penalty>
6.88367

> <r_epik_Ionization_Penalty_Charging>
6.57198

> <r_epik_Ionization_Penalty_Neutral>
0.311681

> <r_epik_State_Penalty>
6.77619

> <r_epik_Charging_Adjusted_Penalty>
13.3482

> <i_epik_Tot_Q>
-1

> <i_epik_Tot_abs_Q>
1

> <r_epik_Metal_State_Penalty>
2.70533

> <b_epik_Metal_Only>
1

> <s_lp_Force_Field>
OPLS_2005

> <r_lp_Energy>
25.764

> <b_lp_Chiralities_Consistent>
1

> <s_lp_Variant>
AV-unprocessed.smi:2044-5

> <Gold.Version>
5.8.1

> <Gold.Id.Protein>
6NUR|6NUR_protein|mol2

> <Gold.PLP.Fitness>
35.3895

> <Gold.PLP.PLP>
-36.3382

> <Gold.PLP.part.hbond>
0.0000

> <Gold.PLP.part.metal>
0.0000

> <Gold.PLP.part.buried>
-5.3682

> <Gold.PLP.part.nonpolar>
-31.4379

> <Gold.PLP.part.repulsive>
0.1342

> <Gold.PLP.ligand.clash>
0.0000

> <Gold.PLP.ligand.torsion>
0.5002

> <Gold.PLP.Chemscore.Hbond>
0.0000

> <Gold.PLP.Chemscore.CHOScore>
0.0000

> <Gold.PLP.Chemscore.Metal>
0.0000

> <Gold.PLP.Chemscore.Internal.Correction>
0.0517

> <Gold.Rescore>
     Score         DG    S(hbond)    S(metal)    S(lipo)     H(rot)  DE(clash)    DE(int)     intcor
     10.35     -12.73       0.00        0.00      95.79       1.55       0.06       2.32       ----

> <Gold.Chemscore.Fitness>
10.3465

> <Gold.Chemscore.DG>
-12.7267

> <Gold.Chemscore.ZeroCoef>
-5.4800

> <Gold.Chemscore.Hbond>
0.0000

> <Gold.Chemscore.Metal>
0.0000

> <Gold.Chemscore.Lipo>
95.7858

> <Gold.Chemscore.Internal_Hbond>
0.0000

> <Gold.Chemscore.DEClash>
0.0583

> <Gold.Chemscore.DEInternal>
2.3219

> <Gold.Chemscore.Rot>
1.5470

> <Gold.Chemscore.Internal.Correction>
   9.000000E+99

> <Gold.Chemscore.Hbond.Weighted>
-0.0000

> <Gold.Chemscore.Metal.Weighted>
-0.0000

> <Gold.Chemscore.Lipo.Weighted>
-11.2069

> <Gold.Chemscore.Internal_Hbond.Weighted>
0.0000

> <Gold.Chemscore.DEClash.Weighted>
0.0583

> <Gold.Chemscore.DEInternal.Weighted>
2.3219

> <Gold.Chemscore.Rot.Weighted>
3.9603

> <Gold.Chemscore.Internal.Correction.Weighted>
   9.000000E+99

> <Gold.Protein.RotatedTorsions>
[ 6907 6896 6895 6894 ] final  -23.43 input  -60.11 | X-H torsion
[ 7974 7965 7964 7962 ] final -142.95 input  175.53 | X-H torsion
[ 8008 7997 7996 7995 ] final  -49.51 input   59.86 | X-H torsion
[ 10167 10162 10161 10158 ] final   28.31 input  -65.29 | X-H torsion
[ 10718 10713 10712 10709 ] final    2.26 input   66.30 | X-H torsion
[ 10763 10752 10751 10750 ] final  157.27 input  -60.55 | X-H torsion
[ 11005 11000 10999 10996 ] final -129.20 input  -57.11 | X-H torsion

> <Gold.Protein.ActiveResidues>
 VAL166  LYS551  ARG553  GLY616  TRP617  ASP618  TYR619  PRO620  LYS621  CYS622 
 ASP623  PHE694  ASN695  SER759  ASP760  ASP761  ALA762  ILE779  LEU786  VAL792 
 PHE793  MET794  SER795  GLU796  ALA797  LYS798  CYS799  TRP800  GLU811  SER814 

> <Gold.Protein.RotatedAtoms>
  151.2041  135.0454  159.8883 H   0  0  0  0  0  0  0  0  0  0  0  0  # atno 6907 bound_to 6896
  152.5430  134.0818  159.8249 H   0  0  0  0  0  0  0  0  0  0  0  0  # atno 6908 bound_to 6896
  151.0962  133.5230  159.2644 H   0  0  0  0  0  0  0  0  0  0  0  0  # atno 6909 bound_to 6896
  144.8405  140.5895  143.5455 H   0  0  0  0  0  0  0  0  0  0  0  0  # atno 7974 bound_to 7965
  154.4045  140.1295  156.4514 H   0  0  0  0  0  0  0  0  0  0  0  0  # atno 8008 bound_to 7997
  155.7363  140.3490  155.5063 H   0  0  0  0  0  0  0  0  0  0  0  0  # atno 8009 bound_to 7997
  155.9081  140.1031  157.1290 H   0  0  0  0  0  0  0  0  0  0  0  0  # atno 8010 bound_to 7997
  140.4864  144.0536  150.6282 H   0  0  0  0  0  0  0  0  0  0  0  0  # atno 10167 bound_to 10162
  156.8604  130.5584  149.5663 H   0  0  0  0  0  0  0  0  0  0  0  0  # atno 10718 bound_to 10713
  154.1975  135.2792  155.3002 H   0  0  0  0  0  0  0  0  0  0  0  0  # atno 10763 bound_to 10752
  154.5880  135.5568  153.7254 H   0  0  0  0  0  0  0  0  0  0  0  0  # atno 10764 bound_to 10752
  153.0096  135.6361  154.2114 H   0  0  0  0  0  0  0  0  0  0  0  0  # atno 10765 bound_to 10752
  140.9451  134.1141  157.4114 H   0  0  0  0  0  0  0  0  0  0  0  0  # atno 11005 bound_to 11000
  145.4703  139.1504  143.3818 LP  0  0  0  0  0  0  0  0  0  0  0  0  # atno 17320 bound_to 7965
  146.2698  140.4836  142.8819 LP  0  0  0  0  0  0  0  0  0  0  0  0  # atno 17321 bound_to 7965
  140.3793  143.2811  152.0189 LP  0  0  0  0  0  0  0  0  0  0  0  0  # atno 17342 bound_to 10162
  139.4843  144.6168  151.7331 LP  0  0  0  0  0  0  0  0  0  0  0  0  # atno 17343 bound_to 10162
  156.0780  130.5797  150.9510 LP  0  0  0  0  0  0  0  0  0  0  0  0  # atno 17370 bound_to 10713
  157.6253  131.0926  150.8545 LP  0  0  0  0  0  0  0  0  0  0  0  0  # atno 17371 bound_to 10713
  139.8831  135.0049  156.6277 LP  0  0  0  0  0  0  0  0  0  0  0  0  # atno 17394 bound_to 11000
  140.7680  133.8762  155.8469 LP  0  0  0  0  0  0  0  0  0  0  0  0  # atno 17395 bound_to 11000

$$$$
