AV-unprocessed.smi:227|AV-procd|sdf|1728|dock3
  -GOLD-   2262020213D 1   1.00000     0.00000
 Structure written by MMmdl.
 54 58  0  0  0  0  0  0  0  0  1 V2000
  148.6722  142.4836  157.5153 O   0  0  0  0  0  0  0  0  0  0  0  0
  149.8219  143.1696  157.9670 C   0  0  0  0  0  0  0  0  0  0  0  0
  151.0148  142.2033  158.1838 C   0  0  1  0  0  0  0  0  0  0  0  0
  151.3198  141.3881  156.8918 C   0  0  0  0  0  0  0  0  0  0  0  0
  151.1480  139.9497  157.0371 N   0  0  0  0  0  0  0  0  0  0  0  0
  150.8346  139.2707  158.1916 C   0  0  0  0  0  0  0  0  0  0  0  0
  150.7299  137.9772  158.0640 N   0  0  0  0  0  0  0  0  0  0  0  0
  151.0062  137.7355  156.7228 C   0  0  0  0  0  0  0  0  0  0  0  0
  151.0643  136.5676  155.9038 C   0  0  0  0  0  0  0  0  0  0  0  0
  150.8126  135.2987  156.3329 N   0  0  0  0  0  0  0  0  0  0  0  0
  149.4989  134.9071  156.8242 C   0  0  2  0  0  0  0  0  0  0  0  0
  149.7524  133.4823  157.3458 C   0  0  0  0  0  0  0  0  0  0  0  0
  150.7950  132.9745  156.3404 C   0  0  0  0  0  0  0  0  0  0  0  0
  150.9197  134.1855  155.3972 C   0  0  1  0  0  0  0  0  0  0  0  0
  149.6582  134.3488  154.5095 C   0  0  1  0  0  0  0  0  0  0  0  0
  149.2392  133.1195  153.6830 C   0  0  0  0  0  0  0  0  0  0  0  0
  148.0537  133.4025  152.9709 O   0  0  0  0  0  0  0  0  0  0  0  0
  148.6288  134.8235  155.5533 C   0  0  0  0  0  0  0  0  0  0  0  0
  151.4139  136.7420  154.6013 N   0  0  0  0  0  0  0  0  0  0  0  0
  151.6644  137.9618  154.1203 C   0  0  0  0  0  0  0  0  0  0  0  0
  151.6279  139.1312  154.7582 N   0  0  0  0  0  0  0  0  0  0  0  0
  151.2912  138.9699  156.0691 C   0  0  0  0  0  0  0  0  0  0  0  0
  152.2726  142.9477  158.7344 C   0  0  2  0  0  0  0  0  0  0  0  0
  153.3209  142.0228  159.3482 C   0  0  0  0  0  0  0  0  0  0  0  0
  152.8800  141.8704  160.8055 C   0  0  0  0  0  0  0  0  0  0  0  0
  151.9824  142.9448  161.0582 O   0  0  0  0  0  0  0  0  0  0  0  0
  152.0203  143.8401  159.9583 C   0  0  0  0  0  0  0  0  0  0  0  0
  148.3488  142.9171  156.7401 H   0  0  0  0  0  0  0  0  0  0  0  0
  150.0752  143.9600  157.2608 H   0  0  0  0  0  0  0  0  0  0  0  0
  149.5292  143.6592  158.8931 H   0  0  0  0  0  0  0  0  0  0  0  0
  150.7014  141.4843  158.9419 H   0  0  0  0  0  0  0  0  0  0  0  0
  150.7018  141.7245  156.0609 H   0  0  0  0  0  0  0  0  0  0  0  0
  152.3418  141.5694  156.5582 H   0  0  0  0  0  0  0  0  0  0  0  0
  150.6769  139.7687  159.1374 H   0  0  0  0  0  0  0  0  0  0  0  0
  149.0744  135.5406  157.6004 H   0  0  0  0  0  0  0  0  0  0  0  0
  150.1706  133.5033  158.3528 H   0  0  0  0  0  0  0  0  0  0  0  0
  148.8482  132.8727  157.3664 H   0  0  0  0  0  0  0  0  0  0  0  0
  151.7437  132.7880  156.8451 H   0  0  0  0  0  0  0  0  0  0  0  0
  150.5033  132.0505  155.8430 H   0  0  0  0  0  0  0  0  0  0  0  0
  151.8460  134.1609  154.8223 H   0  0  0  0  0  0  0  0  0  0  0  0
  149.8489  135.1670  153.8127 H   0  0  0  0  0  0  0  0  0  0  0  0
  150.0197  132.8584  152.9679 H   0  0  0  0  0  0  0  0  0  0  0  0
  149.0655  132.2480  154.3138 H   0  0  0  0  0  0  0  0  0  0  0  0
  148.2413  134.0717  152.3307 H   0  0  0  0  0  0  0  0  0  0  0  0
  147.7846  134.1433  155.6732 H   0  0  0  0  0  0  0  0  0  0  0  0
  148.2328  135.8029  155.2813 H   0  0  0  0  0  0  0  0  0  0  0  0
  151.9299  138.0071  153.0743 H   0  0  0  0  0  0  0  0  0  0  0  0
  152.7101  143.5455  157.9340 H   0  0  0  0  0  0  0  0  0  0  0  0
  153.4423  141.0623  158.8522 H   0  0  0  0  0  0  0  0  0  0  0  0
  154.2929  142.5174  159.3176 H   0  0  0  0  0  0  0  0  0  0  0  0
  152.3566  140.9271  160.9648 H   0  0  0  0  0  0  0  0  0  0  0  0
  153.7310  141.9059  161.4862 H   0  0  0  0  0  0  0  0  0  0  0  0
  152.8628  144.5192  160.1006 H   0  0  0  0  0  0  0  0  0  0  0  0
  151.1282  144.4601  159.9121 H   0  0  0  0  0  0  0  0  0  0  0  0
  1  2  1  0  0  0  0
  1 28  1  0  0  0  0
  2  3  1  0  0  0  0
  2 29  1  0  0  0  0
  2 30  1  0  0  0  0
  3  4  1  0  0  0  0
  3 23  1  0  0  0  0
  3 31  1  0  0  0  0
  4  5  1  0  0  0  0
  4 32  1  0  0  0  0
  4 33  1  0  0  0  0
  5 22  1  0  0  0  0
  5  6  1  0  0  0  0
  6  7  2  0  0  0  0
  6 34  1  0  0  0  0
  7  8  1  0  0  0  0
  8 22  2  0  0  0  0
  8  9  1  0  0  0  0
  9 10  1  0  0  0  0
  9 19  2  0  0  0  0
 10 14  1  0  0  0  0
 10 11  1  0  0  0  0
 11 18  1  0  0  0  0
 11 12  1  0  0  0  0
 11 35  1  0  0  0  0
 12 13  1  0  0  0  0
 12 36  1  0  0  0  0
 12 37  1  0  0  0  0
 13 14  1  0  0  0  0
 13 38  1  0  0  0  0
 13 39  1  0  0  0  0
 14 15  1  0  0  0  0
 14 40  1  0  0  0  0
 15 16  1  0  0  0  0
 15 18  1  0  0  0  0
 15 41  1  0  0  0  0
 16 17  1  0  0  0  0
 16 42  1  0  0  0  0
 16 43  1  0  0  0  0
 17 44  1  0  0  0  0
 18 45  1  0  0  0  0
 18 46  1  0  0  0  0
 19 20  1  0  0  0  0
 20 21  2  0  0  0  0
 20 47  1  0  0  0  0
 21 22  1  0  0  0  0
 23 27  1  0  0  0  0
 23 24  1  0  0  0  0
 23 48  1  0  0  0  0
 24 25  1  0  0  0  0
 24 49  1  0  0  0  0
 24 50  1  0  0  0  0
 25 26  1  0  0  0  0
 25 51  1  0  0  0  0
 25 52  1  0  0  0  0
 26 27  1  0  0  0  0
 27 53  1  0  0  0  0
 27 54  1  0  0  0  0
M  END
> <s_m_source_file>
AV-unprocessed.smi

> <i_m_source_file_index>
227

> <i_lp_mmshare_version>
43012

> <i_f3d_flags>
0

> <s_epik_input>
W0NIMl0xT1tDSDJdW0NIMl1bQ0BIXTFbQ0BIXShbQ0gyXVtPSF0pW0NIMl1uKFtjSF1uMiljKGMyMyluW2NIXW5jM04oW0NASF00NSlbQ0BASF0oW0NIMl1bQ0gyXTQpW0NASF0oW0NIMl01KVtDSDJdW09IXQ==

> <s_epik_cmdline>
J2VwaWtfcHl0aG9uJywgJy1waCcsICc3LjAnLCAnLXRuJywgJzgnLCAnLW1hJywgJzIwMCcsICctbWV0YWxfYmluZGluZycsICctaW1hZScsICc8aW5maWxlLm1hZT4nLCAnLW9tYWUnLCAnPG91dGZpbGUubWFlPic=

> <r_lp_tautomer_probability>
1

> <r_epik_Ionization_Penalty>
0.0055791

> <r_epik_Ionization_Penalty_Charging>
0

> <r_epik_Ionization_Penalty_Neutral>
0.0055791

> <r_epik_State_Penalty>
0.00401299

> <r_epik_Charging_Adjusted_Penalty>
0.00401299

> <i_epik_Tot_Q>
0

> <i_epik_Tot_abs_Q>
0

> <r_epik_Metal_State_Penalty>
-0

> <b_epik_Metal_Only>
0

> <s_lp_Force_Field>
OPLS_2005

> <r_lp_Energy>
90.5153

> <b_lp_Chiralities_Consistent>
1

> <s_lp_Variant>
AV-unprocessed.smi:227-2

> <Gold.Version>
5.8.1

> <Gold.Id.Protein>
6NUR|6NUR_protein|mol2

> <Gold.PLP.Fitness>
52.4670

> <Gold.PLP.PLP>
-41.9519

> <Gold.PLP.part.hbond>
-3.9839

> <Gold.PLP.part.metal>
0.0000

> <Gold.PLP.part.buried>
-5.4849

> <Gold.PLP.part.nonpolar>
-31.2524

> <Gold.PLP.part.repulsive>
0.3054

> <Gold.PLP.ligand.clash>
0.0000

> <Gold.PLP.ligand.torsion>
0.9042

> <Gold.PLP.Chemscore.Hbond>
3.8370

> <Gold.PLP.Chemscore.CHOScore>
0.2124

> <Gold.PLP.Chemscore.Metal>
0.0000

> <Gold.Chemscore.Hbonds>
donor molecule, donor type, donor heavy atom, donor atom, acceptor molecule, acceptor atom, score
      L1  H     1    28       P1  8028  0.48
      L1  H    17    44       P1  7948  0.25
      P1  H  7989  7998       L1    21  0.73
      P1  H 10752 10765       L1    19  1.00
      L1  C    20    47       P1  7949  0.51

> <Gold.PLP.Chemscore.Internal.Correction>
0.1751

> <Gold.Rescore>
     Score         DG    S(hbond)    S(metal)    S(lipo)     H(rot)  DE(clash)    DE(int)     intcor
     12.15     -15.96       2.20        0.00     105.54       3.61       1.94       1.86       ----

> <Gold.Chemscore.Fitness>
12.1521

> <Gold.Chemscore.DG>
-15.9580

> <Gold.Chemscore.ZeroCoef>
-5.4800

> <Gold.Chemscore.Hbond>
2.2049

> <Gold.Chemscore.Metal>
0.0000

> <Gold.Chemscore.Lipo>
105.5380

> <Gold.Chemscore.Internal_Hbond>
0.0000

> <Gold.Chemscore.DEClash>
1.9430

> <Gold.Chemscore.DEInternal>
1.8628

> <Gold.Chemscore.Rot>
3.6071

> <Gold.Chemscore.Internal.Correction>
   9.000000E+99

> <Gold.Chemscore.Hbonds>
donor molecule, donor type, donor heavy atom, donor atom, acceptor molecule, acceptor atom, score
      L1  H     1    28       P1  8028  0.29
      L1  H    17    44       P1  7948  0.02
      P1  H  7989  7998       L1    21  0.65
      P1  H 10752 10765       L1    19  0.21

> <Gold.Chemscore.Hbond.Weighted>
-7.3642

> <Gold.Chemscore.Metal.Weighted>
-0.0000

> <Gold.Chemscore.Lipo.Weighted>
-12.3479

> <Gold.Chemscore.Internal_Hbond.Weighted>
0.0000

> <Gold.Chemscore.DEClash.Weighted>
1.9430

> <Gold.Chemscore.DEInternal.Weighted>
1.8628

> <Gold.Chemscore.Rot.Weighted>
9.2342

> <Gold.Chemscore.Internal.Correction.Weighted>
   9.000000E+99

> <Gold.Protein.RotatedTorsions>
[ 6907 6896 6895 6894 ] final -175.09 input  -60.11 | X-H torsion
[ 7974 7965 7964 7962 ] final  -69.30 input  175.53 | X-H torsion
[ 8008 7997 7996 7995 ] final  -93.65 input   59.86 | X-H torsion
[ 10167 10162 10161 10158 ] final  148.23 input  -65.29 | X-H torsion
[ 10718 10713 10712 10709 ] final  -11.34 input   66.30 | X-H torsion
[ 10763 10752 10751 10750 ] final  176.45 input  -60.55 | X-H torsion
[ 11005 11000 10999 10996 ] final  169.18 input  -57.11 | X-H torsion

> <Gold.Protein.ActiveResidues>
 VAL166  LYS551  ARG553  GLY616  TRP617  ASP618  TYR619  PRO620  LYS621  CYS622 
 ASP623  PHE694  ASN695  SER759  ASP760  ASP761  ALA762  ILE779  LEU786  VAL792 
 PHE793  MET794  SER795  GLU796  ALA797  LYS798  CYS799  TRP800  GLU811  SER814 

> <Gold.Protein.RotatedAtoms>
  151.5829  133.3375  159.3011 H   0  0  0  0  0  0  0  0  0  0  0  0  # atno 6907 bound_to 6896
  150.8303  134.7556  159.6859 H   0  0  0  0  0  0  0  0  0  0  0  0  # atno 6908 bound_to 6896
  152.4387  134.5640  159.9954 H   0  0  0  0  0  0  0  0  0  0  0  0  # atno 6909 bound_to 6896
  145.7055  140.9099  143.0708 H   0  0  0  0  0  0  0  0  0  0  0  0  # atno 7974 bound_to 7965
  154.7383  140.0497  157.0789 H   0  0  0  0  0  0  0  0  0  0  0  0  # atno 8008 bound_to 7997
  155.0211  140.3147  155.4774 H   0  0  0  0  0  0  0  0  0  0  0  0  # atno 8009 bound_to 7997
  156.2858  140.2167  156.5329 H   0  0  0  0  0  0  0  0  0  0  0  0  # atno 8010 bound_to 7997
  139.4878  144.5695  151.7081 H   0  0  0  0  0  0  0  0  0  0  0  0  # atno 10167 bound_to 10162
  156.6604  130.4980  149.6032 H   0  0  0  0  0  0  0  0  0  0  0  0  # atno 10718 bound_to 10713
  154.4812  135.2775  155.1569 H   0  0  0  0  0  0  0  0  0  0  0  0  # atno 10763 bound_to 10752
  154.3278  135.6196  153.5541 H   0  0  0  0  0  0  0  0  0  0  0  0  # atno 10764 bound_to 10752
  152.9875  135.5758  154.5213 H   0  0  0  0  0  0  0  0  0  0  0  0  # atno 10765 bound_to 10752
  140.2951  134.7641  157.3870 H   0  0  0  0  0  0  0  0  0  0  0  0  # atno 11005 bound_to 11000
  144.6956  139.9004  143.7458 LP  0  0  0  0  0  0  0  0  0  0  0  0  # atno 17320 bound_to 7965
  146.0760  139.3748  143.0494 LP  0  0  0  0  0  0  0  0  0  0  0  0  # atno 17321 bound_to 7965
  140.5280  144.0775  150.6044 LP  0  0  0  0  0  0  0  0  0  0  0  0  # atno 17342 bound_to 10162
  140.3756  143.2830  152.0229 LP  0  0  0  0  0  0  0  0  0  0  0  0  # atno 17343 bound_to 10162
  156.2015  130.6623  151.1172 LP  0  0  0  0  0  0  0  0  0  0  0  0  # atno 17370 bound_to 10713
  157.7111  131.0733  150.6496 LP  0  0  0  0  0  0  0  0  0  0  0  0  # atno 17371 bound_to 10713
  140.1160  134.5282  155.8224 LP  0  0  0  0  0  0  0  0  0  0  0  0  # atno 17394 bound_to 11000
  141.2139  133.6740  156.6778 LP  0  0  0  0  0  0  0  0  0  0  0  0  # atno 17395 bound_to 11000

$$$$
