AV-unprocessed.smi:1668|AV-procd|sdf|6681|dock10
  -GOLD-   22720 7403D 1   1.00000     0.00000
 Structure written by MMmdl.
 44 46  0  0  0  0  0  0  0  0  1 V2000
  154.9761  139.4919  161.3740 C   0  0  0  0  0  0  0  0  0  0  0  0
  153.9787  139.6003  160.3690 O   0  0  0  0  0  0  0  0  0  0  0  0
  153.3123  140.8002  160.2436 C   0  0  0  0  0  0  0  0  0  0  0  0
  153.6010  141.9553  161.0071 C   0  0  0  0  0  0  0  0  0  0  0  0
  152.8747  143.1431  160.8051 C   0  0  0  0  0  0  0  0  0  0  0  0
  151.8423  143.2081  159.8375 C   0  0  0  0  0  0  0  0  0  0  0  0
  151.1157  144.3540  159.5868 O   0  0  0  0  0  0  0  0  0  0  0  0
  151.5020  145.5547  160.2383 C   0  0  0  0  0  0  0  0  0  0  0  0
  151.5446  142.0506  159.0763 C   0  0  0  0  0  0  0  0  0  0  0  0
  150.4684  142.0831  157.9901 C   0  0  2  0  0  0  0  0  0  0  0  0
  149.6057  140.9645  158.0452 O   0  0  0  0  0  0  0  0  0  0  0  0
  151.0635  142.1616  156.5661 C   0  0  0  0  0  0  0  0  0  0  0  0
  150.6052  141.0662  155.7105 N   0  0  0  0  0  0  0  0  0  0  0  0
  151.2383  139.8843  155.5201 C   0  0  0  0  0  0  0  0  0  0  0  0
  152.3241  139.5616  156.0018 O   0  0  0  0  0  0  0  0  0  0  0  0
  150.4517  139.1075  154.7399 N   0  0  0  0  0  0  0  0  0  0  0  0
  150.7180  137.7366  154.3223 C   0  0  0  0  0  0  0  0  0  0  0  0
  149.2755  139.8039  154.4347 C   0  0  0  0  0  0  0  0  0  0  0  0
  148.1455  139.4239  153.6904 C   0  0  0  0  0  0  0  0  0  0  0  0
  147.0969  140.3670  153.5815 C   0  0  0  0  0  0  0  0  0  0  0  0
  147.1954  141.6386  154.2035 C   0  0  0  0  0  0  0  0  0  0  0  0
  148.3451  141.9949  154.9458 C   0  0  0  0  0  0  0  0  0  0  0  0
  149.3728  141.0397  155.0388 C   0  0  0  0  0  0  0  0  0  0  0  0
  152.2829  140.8646  159.2858 C   0  0  0  0  0  0  0  0  0  0  0  0
  155.4084  138.4919  161.3454 H   0  0  0  0  0  0  0  0  0  0  0  0
  154.5564  139.6413  162.3697 H   0  0  0  0  0  0  0  0  0  0  0  0
  155.7853  140.2052  161.2115 H   0  0  0  0  0  0  0  0  0  0  0  0
  154.3798  141.9586  161.7544 H   0  0  0  0  0  0  0  0  0  0  0  0
  153.1333  143.9981  161.4106 H   0  0  0  0  0  0  0  0  0  0  0  0
  150.9038  146.3791  159.8503 H   0  0  0  0  0  0  0  0  0  0  0  0
  152.5497  145.7919  160.0471 H   0  0  0  0  0  0  0  0  0  0  0  0
  151.3311  145.4996  161.3139 H   0  0  0  0  0  0  0  0  0  0  0  0
  149.8254  142.9489  158.1494 H   0  0  0  0  0  0  0  0  0  0  0  0
  149.8821  140.4091  158.7581 H   0  0  0  0  0  0  0  0  0  0  0  0
  150.8111  143.1165  156.1043 H   0  0  0  0  0  0  0  0  0  0  0  0
  152.1534  142.1356  156.6171 H   0  0  0  0  0  0  0  0  0  0  0  0
  150.4448  137.5945  153.2762 H   0  0  0  0  0  0  0  0  0  0  0  0
  150.1346  137.0418  154.9269 H   0  0  0  0  0  0  0  0  0  0  0  0
  151.7724  137.4778  154.4287 H   0  0  0  0  0  0  0  0  0  0  0  0
  148.0758  138.4525  153.2239 H   0  0  0  0  0  0  0  0  0  0  0  0
  146.2095  140.1151  153.0198 H   0  0  0  0  0  0  0  0  0  0  0  0
  146.3814  142.3426  154.1114 H   0  0  0  0  0  0  0  0  0  0  0  0
  148.4201  142.9589  155.4266 H   0  0  0  0  0  0  0  0  0  0  0  0
  152.0698  139.9875  158.6921 H   0  0  0  0  0  0  0  0  0  0  0  0
  1  2  1  0  0  0  0
  1 25  1  0  0  0  0
  1 26  1  0  0  0  0
  1 27  1  0  0  0  0
  2  3  1  0  0  0  0
  3 24  1  0  0  0  0
  3  4  2  0  0  0  0
  4  5  1  0  0  0  0
  4 28  1  0  0  0  0
  5  6  2  0  0  0  0
  5 29  1  0  0  0  0
  6  7  1  0  0  0  0
  6  9  1  0  0  0  0
  7  8  1  0  0  0  0
  8 30  1  0  0  0  0
  8 31  1  0  0  0  0
  8 32  1  0  0  0  0
  9 10  1  0  0  0  0
  9 24  2  0  0  0  0
 10 11  1  0  0  0  0
 10 12  1  0  0  0  0
 10 33  1  0  0  0  0
 11 34  1  0  0  0  0
 12 13  1  0  0  0  0
 12 35  1  0  0  0  0
 12 36  1  0  0  0  0
 13 23  1  0  0  0  0
 13 14  1  0  0  0  0
 14 15  2  0  0  0  0
 14 16  1  0  0  0  0
 16 17  1  0  0  0  0
 16 18  1  0  0  0  0
 17 37  1  0  0  0  0
 17 38  1  0  0  0  0
 17 39  1  0  0  0  0
 18 23  2  0  0  0  0
 18 19  1  0  0  0  0
 19 20  2  0  0  0  0
 19 40  1  0  0  0  0
 20 21  1  0  0  0  0
 20 41  1  0  0  0  0
 21 22  2  0  0  0  0
 21 42  1  0  0  0  0
 22 23  1  0  0  0  0
 22 43  1  0  0  0  0
 24 44  1  0  0  0  0
M  END
> <s_m_source_file>
AV-unprocessed.smi

> <i_m_source_file_index>
1668

> <i_lp_mmshare_version>
43012

> <i_f3d_flags>
0

> <s_epik_input>
W0NIM11PYzFbY0hdW2NIXWMoT1tDSDNdKWMoW2NIXTEpW0NASF0oW09IXSlbQ0gyXW4oYyg9TyluMltDSDNdKWMoYzIzKVtjSF1bY0hdW2NIXVtjSF0z

> <s_epik_cmdline>
J2VwaWtfcHl0aG9uJywgJy1waCcsICc3LjAnLCAnLXRuJywgJzgnLCAnLW1hJywgJzIwMCcsICctbWV0YWxfYmluZGluZycsICctaW1hZScsICc8aW5maWxlLm1hZT4nLCAnLW9tYWUnLCAnPG91dGZpbGUubWFlPic=

> <r_lp_tautomer_probability>
1

> <r_epik_Ionization_Penalty>
1.34538e-06

> <r_epik_Ionization_Penalty_Charging>
1.76928e-09

> <r_epik_Ionization_Penalty_Neutral>
1.34362e-06

> <r_epik_State_Penalty>
-0

> <r_epik_Charging_Adjusted_Penalty>
1.76928e-09

> <i_epik_Tot_Q>
0

> <i_epik_Tot_abs_Q>
0

> <r_epik_Metal_State_Penalty>
-0

> <b_epik_Metal_Only>
0

> <s_lp_Force_Field>
OPLS_2005

> <r_lp_Energy>
46.5536

> <b_lp_Chiralities_Consistent>
1

> <s_lp_Variant>
AV-unprocessed.smi:1668-1

> <Gold.Version>
5.8.1

> <Gold.Id.Protein>
6NUR|6NUR_protein|mol2

> <Gold.PLP.Fitness>
54.4638

> <Gold.PLP.PLP>
-54.3799

> <Gold.PLP.part.hbond>
-1.0000

> <Gold.PLP.part.metal>
0.0000

> <Gold.PLP.part.buried>
-3.7805

> <Gold.PLP.part.nonpolar>
-49.5087

> <Gold.PLP.part.repulsive>
0.1074

> <Gold.PLP.ligand.clash>
0.0000

> <Gold.PLP.ligand.torsion>
1.4928

> <Gold.PLP.Chemscore.Hbond>
1.0000

> <Gold.PLP.Chemscore.CHOScore>
0.0000

> <Gold.PLP.Chemscore.Metal>
0.0000

> <Gold.Chemscore.Hbonds>
donor molecule, donor type, donor heavy atom, donor atom, acceptor molecule, acceptor atom, score
      P1  H  7997  8009       L1    15  0.80

> <Gold.PLP.Chemscore.Internal.Correction>
0.0695

> <Gold.Rescore>
     Score         DG    S(hbond)    S(metal)    S(lipo)     H(rot)  DE(clash)    DE(int)     intcor
     17.33     -19.15       1.00        0.00     137.43       2.24       0.21       1.61       ----

> <Gold.Chemscore.Fitness>
17.3306

> <Gold.Chemscore.DG>
-19.1526

> <Gold.Chemscore.ZeroCoef>
-5.4800

> <Gold.Chemscore.Hbond>
1.0000

> <Gold.Chemscore.Metal>
0.0000

> <Gold.Chemscore.Lipo>
137.4305

> <Gold.Chemscore.Internal_Hbond>
0.0000

> <Gold.Chemscore.DEClash>
0.2101

> <Gold.Chemscore.DEInternal>
1.6119

> <Gold.Chemscore.Rot>
2.2448

> <Gold.Chemscore.Internal.Correction>
   9.000000E+99

> <Gold.Chemscore.Hbonds>
donor molecule, donor type, donor heavy atom, donor atom, acceptor molecule, acceptor atom, score
      P1  H  7997  8009       L1    15  0.79

> <Gold.Chemscore.Hbond.Weighted>
-3.3400

> <Gold.Chemscore.Metal.Weighted>
-0.0000

> <Gold.Chemscore.Lipo.Weighted>
-16.0794

> <Gold.Chemscore.Internal_Hbond.Weighted>
0.0000

> <Gold.Chemscore.DEClash.Weighted>
0.2101

> <Gold.Chemscore.DEInternal.Weighted>
1.6119

> <Gold.Chemscore.Rot.Weighted>
5.7467

> <Gold.Chemscore.Internal.Correction.Weighted>
   9.000000E+99

> <Gold.Protein.RotatedTorsions>
[ 6907 6896 6895 6894 ] final   96.79 input  -60.11 | X-H torsion
[ 7974 7965 7964 7962 ] final  -86.65 input  175.53 | X-H torsion
[ 8008 7997 7996 7995 ] final -159.77 input   59.86 | X-H torsion
[ 10167 10162 10161 10158 ] final  -11.87 input  -65.29 | X-H torsion
[ 10718 10713 10712 10709 ] final   -5.83 input   66.30 | X-H torsion
[ 10763 10752 10751 10750 ] final   25.27 input  -60.55 | X-H torsion
[ 11005 11000 10999 10996 ] final  150.86 input  -57.11 | X-H torsion

> <Gold.Protein.ActiveResidues>
 VAL166  LYS551  ARG553  GLY616  TRP617  ASP618  TYR619  PRO620  LYS621  CYS622 
 ASP623  PHE694  ASN695  SER759  ASP760  ASP761  ALA762  ILE779  LEU786  VAL792 
 PHE793  MET794  SER795  GLU796  ALA797  LYS798  CYS799  TRP800  GLU811  SER814 

> <Gold.Protein.RotatedAtoms>
  152.5431  134.0833  159.8244 H   0  0  0  0  0  0  0  0  0  0  0  0  # atno 6907 bound_to 6896
  151.0932  133.5292  159.2621 H   0  0  0  0  0  0  0  0  0  0  0  0  # atno 6908 bound_to 6896
  151.2076  135.0477  159.8952 H   0  0  0  0  0  0  0  0  0  0  0  0  # atno 6909 bound_to 6896
  145.4770  140.9558  143.1885 H   0  0  0  0  0  0  0  0  0  0  0  0  # atno 7974 bound_to 7965
  155.7675  140.0847  157.2124 H   0  0  0  0  0  0  0  0  0  0  0  0  # atno 8008 bound_to 7997
  154.3998  140.1531  156.2961 H   0  0  0  0  0  0  0  0  0  0  0  0  # atno 8009 bound_to 7997
  155.8779  140.3422  155.5870 H   0  0  0  0  0  0  0  0  0  0  0  0  # atno 8010 bound_to 7997
  140.7148  143.5593  150.9214 H   0  0  0  0  0  0  0  0  0  0  0  0  # atno 10167 bound_to 10162
  156.7408  130.5209  149.5824 H   0  0  0  0  0  0  0  0  0  0  0  0  # atno 10718 bound_to 10713
  153.0704  135.6587  154.0261 H   0  0  0  0  0  0  0  0  0  0  0  0  # atno 10763 bound_to 10752
  153.9908  135.2946  155.3413 H   0  0  0  0  0  0  0  0  0  0  0  0  # atno 10764 bound_to 10752
  154.7076  135.5218  153.8688 H   0  0  0  0  0  0  0  0  0  0  0  0  # atno 10765 bound_to 10752
  140.1168  134.8889  157.2016 H   0  0  0  0  0  0  0  0  0  0  0  0  # atno 11005 bound_to 11000
  144.7911  139.6326  143.7113 LP  0  0  0  0  0  0  0  0  0  0  0  0  # atno 17320 bound_to 7965
  146.2363  139.5912  142.9521 LP  0  0  0  0  0  0  0  0  0  0  0  0  # atno 17321 bound_to 7965
  139.9318  143.6484  152.3074 LP  0  0  0  0  0  0  0  0  0  0  0  0  # atno 17342 bound_to 10162
  139.6938  144.7644  151.1392 LP  0  0  0  0  0  0  0  0  0  0  0  0  # atno 17343 bound_to 10162
  156.1466  130.6281  151.0539 LP  0  0  0  0  0  0  0  0  0  0  0  0  # atno 17370 bound_to 10713
  157.6819  131.0835  150.7347 LP  0  0  0  0  0  0  0  0  0  0  0  0  # atno 17371 bound_to 10713
  140.3017  134.3124  155.7288 LP  0  0  0  0  0  0  0  0  0  0  0  0  # atno 17394 bound_to 11000
  141.2143  133.7596  156.9650 LP  0  0  0  0  0  0  0  0  0  0  0  0  # atno 17395 bound_to 11000

$$$$
