AV-unprocessed.smi:1031|AV-procd|sdf|4480|dock3
  -GOLD-   22720 2453D 1   1.00000     0.00000
 Structure written by MMmdl.
 35 36  0  0  0  0  0  0  0  0  1 V2000
  151.9140  139.7656  156.5296 C   0  0  0  0  0  0  0  0  0  0  0  0
  151.0445  140.8758  157.1402 C   0  0  2  0  0  0  0  0  0  0  0  0
  150.3589  141.7202  156.0483 C   0  0  0  0  0  0  0  0  0  0  0  0
  149.5000  140.9248  155.1888 N   0  0  0  0  0  0  0  0  0  0  0  0
  148.1344  141.0162  155.0195 C   0  0  0  0  0  0  0  0  0  0  0  0
  147.7725  140.0597  154.1147 C   0  0  0  0  0  0  0  0  0  0  0  0
  149.0028  139.4268  153.7818 C   0  0  0  0  0  0  0  0  0  0  0  0
  150.0350  139.9478  154.4250 N   0  0  0  0  0  0  0  0  0  0  0  0
  151.8624  141.7335  157.9959 N   0  0  0  0  0  0  0  0  0  0  0  0
  152.5828  141.3224  159.0506 C   0  0  0  0  0  0  0  0  0  0  0  0
  152.6427  140.1460  159.4103 O   0  0  0  0  0  0  0  0  0  0  0  0
  153.3542  142.4114  159.8142 C   0  0  0  0  0  0  0  0  0  0  0  0
  153.2677  142.2147  161.3459 C   0  0  0  0  0  0  0  0  0  0  0  0
  152.5742  143.4573  161.9200 C   0  0  0  0  0  0  0  0  0  0  0  0
  151.8541  144.1027  160.7392 C   0  0  0  0  0  0  0  0  0  0  0  0
  152.7699  143.8126  159.5510 C   0  0  0  0  0  0  0  0  0  0  0  0
  151.3189  139.1055  155.8982 H   0  0  0  0  0  0  0  0  0  0  0  0
  152.3719  139.1506  157.3050 H   0  0  0  0  0  0  0  0  0  0  0  0
  152.7150  140.1799  155.9163 H   0  0  0  0  0  0  0  0  0  0  0  0
  150.2658  140.4024  157.7413 H   0  0  0  0  0  0  0  0  0  0  0  0
  149.7646  142.5181  156.4961 H   0  0  0  0  0  0  0  0  0  0  0  0
  151.1081  142.2059  155.4214 H   0  0  0  0  0  0  0  0  0  0  0  0
  147.5405  141.7437  155.5528 H   0  0  0  0  0  0  0  0  0  0  0  0
  146.7804  139.8445  153.7467 H   0  0  0  0  0  0  0  0  0  0  0  0
  149.1756  138.6103  153.0961 H   0  0  0  0  0  0  0  0  0  0  0  0
  151.8736  142.7183  157.7735 H   0  0  0  0  0  0  0  0  0  0  0  0
  154.3980  142.3933  159.4958 H   0  0  0  0  0  0  0  0  0  0  0  0
  152.6994  141.3210  161.6099 H   0  0  0  0  0  0  0  0  0  0  0  0
  154.2586  142.0915  161.7839 H   0  0  0  0  0  0  0  0  0  0  0  0
  151.8964  143.2166  162.7395 H   0  0  0  0  0  0  0  0  0  0  0  0
  153.3255  144.1470  162.3067 H   0  0  0  0  0  0  0  0  0  0  0  0
  150.8859  143.6235  160.5886 H   0  0  0  0  0  0  0  0  0  0  0  0
  151.6797  145.1690  160.8856 H   0  0  0  0  0  0  0  0  0  0  0  0
  153.5791  144.5435  159.5270 H   0  0  0  0  0  0  0  0  0  0  0  0
  152.2405  143.8925  158.6001 H   0  0  0  0  0  0  0  0  0  0  0  0
  1  2  1  0  0  0  0
  1 17  1  0  0  0  0
  1 18  1  0  0  0  0
  1 19  1  0  0  0  0
  2  3  1  0  0  0  0
  2  9  1  0  0  0  0
  2 20  1  0  0  0  0
  3  4  1  0  0  0  0
  3 21  1  0  0  0  0
  3 22  1  0  0  0  0
  4  8  1  0  0  0  0
  4  5  1  0  0  0  0
  5  6  2  0  0  0  0
  5 23  1  0  0  0  0
  6  7  1  0  0  0  0
  6 24  1  0  0  0  0
  7  8  2  0  0  0  0
  7 25  1  0  0  0  0
  9 10  1  0  0  0  0
  9 26  1  0  0  0  0
 10 11  2  0  0  0  0
 10 12  1  0  0  0  0
 12 16  1  0  0  0  0
 12 13  1  0  0  0  0
 12 27  1  0  0  0  0
 13 14  1  0  0  0  0
 13 28  1  0  0  0  0
 13 29  1  0  0  0  0
 14 15  1  0  0  0  0
 14 30  1  0  0  0  0
 14 31  1  0  0  0  0
 15 16  1  0  0  0  0
 15 32  1  0  0  0  0
 15 33  1  0  0  0  0
 16 34  1  0  0  0  0
 16 35  1  0  0  0  0
M  END
> <s_m_source_file>
AV-unprocessed.smi

> <i_m_source_file_index>
1031

> <i_lp_mmshare_version>
43012

> <i_f3d_flags>
0

> <s_epik_input>
bjFbY0hdW2NIXVtjSF1uMVtDSDJdW0NAQEhdKFtDSDNdKVtOSF1DKD1PKVtDSF0yW0NIMl1bQ0gyXVtDSDJdW0NIMl0y

> <s_epik_cmdline>
J2VwaWtfcHl0aG9uJywgJy1waCcsICc3LjAnLCAnLXRuJywgJzgnLCAnLW1hJywgJzIwMCcsICctbWV0YWxfYmluZGluZycsICctaW1hZScsICc8aW5maWxlLm1hZT4nLCAnLW9tYWUnLCAnPG91dGZpbGUubWFlPic=

> <r_lp_tautomer_probability>
1

> <r_epik_Ionization_Penalty>
0.000326659

> <r_epik_Ionization_Penalty_Charging>
0

> <r_epik_Ionization_Penalty_Neutral>
0.000326659

> <r_epik_State_Penalty>
-0

> <r_epik_Charging_Adjusted_Penalty>
0

> <i_epik_Tot_Q>
0

> <i_epik_Tot_abs_Q>
0

> <r_epik_Metal_State_Penalty>
-0

> <b_epik_Metal_Only>
0

> <s_lp_Force_Field>
OPLS_2005

> <r_lp_Energy>
19.9275

> <b_lp_Chiralities_Consistent>
1

> <s_lp_Variant>
AV-unprocessed.smi:1031-1

> <Gold.Version>
5.8.1

> <Gold.Id.Protein>
6NUR|6NUR_protein|mol2

> <Gold.PLP.Fitness>
42.0344

> <Gold.PLP.PLP>
-36.8635

> <Gold.PLP.part.hbond>
-1.0000

> <Gold.PLP.part.metal>
0.0000

> <Gold.PLP.part.buried>
-0.6457

> <Gold.PLP.part.nonpolar>
-35.3984

> <Gold.PLP.part.repulsive>
0.1907

> <Gold.PLP.ligand.clash>
0.0000

> <Gold.PLP.ligand.torsion>
0.5583

> <Gold.PLP.Chemscore.Hbond>
1.0000

> <Gold.PLP.Chemscore.CHOScore>
1.0881

> <Gold.PLP.Chemscore.Metal>
0.0000

> <Gold.Chemscore.Hbonds>
donor molecule, donor type, donor heavy atom, donor atom, acceptor molecule, acceptor atom, score
      P1  H  7989  7998       L1     8  0.93
      L1  C     7    25       P1  7948  0.69
      L1  C     7    25       P1  7957  0.32

> <Gold.PLP.Chemscore.Internal.Correction>
0.0230

> <Gold.Rescore>
     Score         DG    S(hbond)    S(metal)    S(lipo)     H(rot)  DE(clash)    DE(int)     intcor
     12.87     -15.71       0.90        0.00      94.97       1.51       0.97       1.87       ----

> <Gold.Chemscore.Fitness>
12.8720

> <Gold.Chemscore.DG>
-15.7149

> <Gold.Chemscore.ZeroCoef>
-5.4800

> <Gold.Chemscore.Hbond>
0.8983

> <Gold.Chemscore.Metal>
0.0000

> <Gold.Chemscore.Lipo>
94.9726

> <Gold.Chemscore.Internal_Hbond>
0.0000

> <Gold.Chemscore.DEClash>
0.9746

> <Gold.Chemscore.DEInternal>
1.8683

> <Gold.Chemscore.Rot>
1.5146

> <Gold.Chemscore.Internal.Correction>
   9.000000E+99

> <Gold.Chemscore.Hbonds>
donor molecule, donor type, donor heavy atom, donor atom, acceptor molecule, acceptor atom, score
      P1  H  7989  7998       L1     8  0.38

> <Gold.Chemscore.Hbond.Weighted>
-3.0004

> <Gold.Chemscore.Metal.Weighted>
-0.0000

> <Gold.Chemscore.Lipo.Weighted>
-11.1118

> <Gold.Chemscore.Internal_Hbond.Weighted>
0.0000

> <Gold.Chemscore.DEClash.Weighted>
0.9746

> <Gold.Chemscore.DEInternal.Weighted>
1.8683

> <Gold.Chemscore.Rot.Weighted>
3.8773

> <Gold.Chemscore.Internal.Correction.Weighted>
   9.000000E+99

> <Gold.Protein.RotatedTorsions>
[ 6907 6896 6895 6894 ] final   52.29 input  -60.11 | X-H torsion
[ 7974 7965 7964 7962 ] final   49.11 input  175.53 | X-H torsion
[ 8008 7997 7996 7995 ] final    5.88 input   59.86 | X-H torsion
[ 10167 10162 10161 10158 ] final -173.09 input  -65.29 | X-H torsion
[ 10718 10713 10712 10709 ] final  132.96 input   66.30 | X-H torsion
[ 10763 10752 10751 10750 ] final -170.49 input  -60.55 | X-H torsion
[ 11005 11000 10999 10996 ] final -154.91 input  -57.11 | X-H torsion

> <Gold.Protein.ActiveResidues>
 VAL166  LYS551  ARG553  GLY616  TRP617  ASP618  TYR619  PRO620  LYS621  CYS622 
 ASP623  PHE694  ASN695  SER759  ASP760  ASP761  ALA762  ILE779  LEU786  VAL792 
 PHE793  MET794  SER795  GLU796  ALA797  LYS798  CYS799  TRP800  GLU811  SER814 

> <Gold.Protein.RotatedAtoms>
  152.3217  134.7372  160.0311 H   0  0  0  0  0  0  0  0  0  0  0  0  # atno 6907 bound_to 6896
  151.7818  133.3345  159.3482 H   0  0  0  0  0  0  0  0  0  0  0  0  # atno 6908 bound_to 6896
  150.7373  134.5854  159.6005 H   0  0  0  0  0  0  0  0  0  0  0  0  # atno 6909 bound_to 6896
  146.0141  139.4576  142.9938 H   0  0  0  0  0  0  0  0  0  0  0  0  # atno 7974 bound_to 7965
  154.7339  140.2736  155.6431 H   0  0  0  0  0  0  0  0  0  0  0  0  # atno 8008 bound_to 7997
  156.2857  140.2710  156.1973 H   0  0  0  0  0  0  0  0  0  0  0  0  # atno 8009 bound_to 7997
  155.0345  140.0371  157.2476 H   0  0  0  0  0  0  0  0  0  0  0  0  # atno 8010 bound_to 7997
  139.5708  144.1647  152.1380 H   0  0  0  0  0  0  0  0  0  0  0  0  # atno 10167 bound_to 10162
  157.4820  131.1086  150.9670 H   0  0  0  0  0  0  0  0  0  0  0  0  # atno 10718 bound_to 10713
  154.6409  135.2898  155.0105 H   0  0  0  0  0  0  0  0  0  0  0  0  # atno 10763 bound_to 10752
  154.1232  135.6545  153.4911 H   0  0  0  0  0  0  0  0  0  0  0  0  # atno 10764 bound_to 10752
  153.0326  135.5292  154.7275 H   0  0  0  0  0  0  0  0  0  0  0  0  # atno 10765 bound_to 10752
  140.6922  134.4029  157.5218 H   0  0  0  0  0  0  0  0  0  0  0  0  # atno 11005 bound_to 11000
  145.7297  141.0047  143.1358 LP  0  0  0  0  0  0  0  0  0  0  0  0  # atno 17320 bound_to 7965
  144.6964  139.8969  143.7456 LP  0  0  0  0  0  0  0  0  0  0  0  0  # atno 17321 bound_to 7965
  140.1179  144.5399  150.6882 LP  0  0  0  0  0  0  0  0  0  0  0  0  # atno 17342 bound_to 10162
  140.6992  143.2423  151.4913 LP  0  0  0  0  0  0  0  0  0  0  0  0  # atno 17343 bound_to 10162
  157.0400  130.5745  149.5355 LP  0  0  0  0  0  0  0  0  0  0  0  0  # atno 17370 bound_to 10713
  156.0126  130.5219  150.8037 LP  0  0  0  0  0  0  0  0  0  0  0  0  # atno 17371 bound_to 10713
  139.8920  134.8765  156.2291 LP  0  0  0  0  0  0  0  0  0  0  0  0  # atno 17394 bound_to 11000
  141.0232  133.7029  156.1304 LP  0  0  0  0  0  0  0  0  0  0  0  0  # atno 17395 bound_to 11000

$$$$
