AV-unprocessed.smi:2276|AV-procd|sdf|9172|dock3
  -GOLD-   2272012383D 1   1.00000     0.00000
 Structure written by MMmdl.
 53 54  0  0  0  0  0  0  0  0  2 V2000
  146.2278  132.8817  161.9472 C   0  0  0  0  0  0  0  0  0  0  0  0
  146.9452  134.1979  161.7335 C   0  0  0  0  0  0  0  0  0  0  0  0
  146.9580  135.1859  162.7367 C   0  0  0  0  0  0  0  0  0  0  0  0
  147.6428  136.3887  162.4769 C   0  0  0  0  0  0  0  0  0  0  0  0
  147.6937  137.4940  163.5106 C   0  0  0  0  0  0  0  0  0  0  0  0
  148.2805  136.6361  161.3129 N   0  0  0  0  0  0  0  0  0  0  0  0
  148.2820  135.6885  160.3422 C   0  0  0  0  0  0  0  0  0  0  0  0
  148.9061  135.8624  159.0787 N   0  0  0  0  0  0  0  0  0  0  0  0
  149.7000  136.8751  158.6906 C   0  0  0  0  0  0  0  0  0  0  0  0
  150.2242  137.6931  159.4474 O   0  0  0  0  0  0  0  0  0  0  0  0
  149.8361  136.9044  157.3567 N   0  0  0  0  0  0  0  0  0  0  0  0
  150.5066  137.9519  156.5878 C   0  0  0  0  0  0  0  0  0  0  0  0
  150.0240  137.9884  155.1195 C   0  0  2  0  0  0  0  0  0  0  0  0
  151.2219  138.0943  154.1627 C   0  0  0  0  0  0  0  0  0  0  0  0
  149.0301  139.1491  154.8623 C   0  0  0  0  0  0  0  0  0  0  0  0
  149.5158  140.4587  155.3077 N   0  0  0  0  0  0  0  0  0  0  0  0
  149.2996  141.5572  154.3559 C   0  0  0  0  0  0  0  0  0  0  0  0
  147.8055  141.9035  154.1769 C   0  0  0  0  0  0  0  0  0  0  0  0
  147.1869  142.2419  155.4790 N   0  3  0  0  0  0  0  0  0  0  0  0
  145.7596  142.6032  155.3485 C   0  0  0  0  0  0  0  0  0  0  0  0
  147.4139  141.1614  156.4672 C   0  0  0  0  0  0  0  0  0  0  0  0
  148.9216  140.8443  156.5915 C   0  0  0  0  0  0  0  0  0  0  0  0
  147.6150  134.4560  160.5204 C   0  0  0  0  0  0  0  0  0  0  0  0
  145.6875  132.8738  162.8943 H   0  0  0  0  0  0  0  0  0  0  0  0
  146.9430  132.0591  161.9546 H   0  0  0  0  0  0  0  0  0  0  0  0
  145.5107  132.7067  161.1450 H   0  0  0  0  0  0  0  0  0  0  0  0
  146.4574  135.0257  163.6806 H   0  0  0  0  0  0  0  0  0  0  0  0
  147.3865  137.1299  164.4913 H   0  0  0  0  0  0  0  0  0  0  0  0
  147.0288  138.3091  163.2254 H   0  0  0  0  0  0  0  0  0  0  0  0
  148.7058  137.8903  163.5991 H   0  0  0  0  0  0  0  0  0  0  0  0
  148.6343  135.2021  158.3655 H   0  0  0  0  0  0  0  0  0  0  0  0
  149.3850  136.1766  156.8218 H   0  0  0  0  0  0  0  0  0  0  0  0
  150.3859  138.9293  157.0582 H   0  0  0  0  0  0  0  0  0  0  0  0
  151.5738  137.7308  156.6186 H   0  0  0  0  0  0  0  0  0  0  0  0
  149.5481  137.0283  154.9263 H   0  0  0  0  0  0  0  0  0  0  0  0
  151.7818  139.0155  154.3264 H   0  0  0  0  0  0  0  0  0  0  0  0
  150.8956  138.0830  153.1223 H   0  0  0  0  0  0  0  0  0  0  0  0
  151.9099  137.2593  154.2983 H   0  0  0  0  0  0  0  0  0  0  0  0
  148.7653  139.2093  153.8131 H   0  0  0  0  0  0  0  0  0  0  0  0
  148.0952  138.9207  155.3760 H   0  0  0  0  0  0  0  0  0  0  0  0
  149.8296  142.4359  154.7259 H   0  0  0  0  0  0  0  0  0  0  0  0
  149.7470  141.3318  153.3896 H   0  0  0  0  0  0  0  0  0  0  0  0
  147.7133  142.7589  153.5069 H   0  0  0  0  0  0  0  0  0  0  0  0
  147.2615  141.0868  153.7037 H   0  0  0  0  0  0  0  0  0  0  0  0
  145.1781  141.7611  154.9721 H   0  0  0  0  0  0  0  0  0  0  0  0
  145.6356  143.4384  154.6586 H   0  0  0  0  0  0  0  0  0  0  0  0
  145.3469  142.9008  156.3128 H   0  0  0  0  0  0  0  0  0  0  0  0
  147.0328  141.4812  157.4376 H   0  0  0  0  0  0  0  0  0  0  0  0
  146.8437  140.2735  156.1910 H   0  0  0  0  0  0  0  0  0  0  0  0
  149.0819  140.0517  157.3233 H   0  0  0  0  0  0  0  0  0  0  0  0
  149.4491  141.7203  156.9714 H   0  0  0  0  0  0  0  0  0  0  0  0
  147.6162  133.7122  159.7367 H   0  0  0  0  0  0  0  0  0  0  0  0
  147.6689  143.0587  155.8262 H   0  0  0  0  0  0  0  0  0  0  0  0
  1  2  1  0  0  0  0
  1 24  1  0  0  0  0
  1 25  1  0  0  0  0
  1 26  1  0  0  0  0
  2 23  1  0  0  0  0
  2  3  2  0  0  0  0
  3  4  1  0  0  0  0
  3 27  1  0  0  0  0
  4  5  1  0  0  0  0
  4  6  2  0  0  0  0
  5 28  1  0  0  0  0
  5 29  1  0  0  0  0
  5 30  1  0  0  0  0
  6  7  1  0  0  0  0
  7  8  1  0  0  0  0
  7 23  2  0  0  0  0
  8  9  1  0  0  0  0
  8 31  1  0  0  0  0
  9 10  2  0  0  0  0
  9 11  1  0  0  0  0
 11 12  1  0  0  0  0
 11 32  1  0  0  0  0
 12 13  1  0  0  0  0
 12 33  1  0  0  0  0
 12 34  1  0  0  0  0
 13 14  1  0  0  0  0
 13 15  1  0  0  0  0
 13 35  1  0  0  0  0
 14 36  1  0  0  0  0
 14 37  1  0  0  0  0
 14 38  1  0  0  0  0
 15 16  1  0  0  0  0
 15 39  1  0  0  0  0
 15 40  1  0  0  0  0
 16 22  1  0  0  0  0
 16 17  1  0  0  0  0
 17 18  1  0  0  0  0
 17 41  1  0  0  0  0
 17 42  1  0  0  0  0
 18 19  1  0  0  0  0
 18 43  1  0  0  0  0
 18 44  1  0  0  0  0
 19 20  1  0  0  0  0
 19 21  1  0  0  0  0
 19 53  1  0  0  0  0
 20 45  1  0  0  0  0
 20 46  1  0  0  0  0
 20 47  1  0  0  0  0
 21 22  1  0  0  0  0
 21 48  1  0  0  0  0
 21 49  1  0  0  0  0
 22 50  1  0  0  0  0
 22 51  1  0  0  0  0
 23 52  1  0  0  0  0
M  CHG  1  19   1
M  END
> <s_m_source_file>
AV-unprocessed.smi

> <i_m_source_file_index>
2276

> <i_lp_mmshare_version>
43012

> <i_f3d_flags>
0

> <s_epik_input>
W0NIM11jMVtjSF1jKFtDSDNdKW5jKFtjSF0xKVtOSF1DKD1PKVtOSF1bQ0gyXVtDQEhdKFtDSDNdKVtDSDJdTjJbQ0gyXVtDSDJdTihbQ0gzXSlbQ0gyXVtDSDJdMg==

> <s_epik_cmdline>
J2VwaWtfcHl0aG9uJywgJy1waCcsICc3LjAnLCAnLXRuJywgJzgnLCAnLW1hJywgJzIwMCcsICctbWV0YWxfYmluZGluZycsICctaW1hZScsICc8aW5maWxlLm1hZT4nLCAnLW9tYWUnLCAnPG91dGZpbGUubWFlPic=

> <r_epik_Ionization_Penalty>
0.0247364

> <r_epik_Ionization_Penalty_Charging>
0.0230248

> <r_epik_Ionization_Penalty_Neutral>
0.00171164

> <r_epik_State_Penalty>
0.239056

> <r_epik_Charging_Adjusted_Penalty>
0.262081

> <i_epik_Tot_Q>
1

> <i_epik_Tot_abs_Q>
1

> <r_epik_Metal_State_Penalty>
0.239048

> <b_epik_Metal_Only>
0

> <s_lp_Force_Field>
OPLS_2005

> <r_lp_Energy>
20.3682

> <b_lp_Chiralities_Consistent>
1

> <s_lp_Variant>
AV-unprocessed.smi:2276-1

> <Gold.Version>
5.8.1

> <Gold.Id.Protein>
6NUR|6NUR_protein|mol2

> <Gold.PLP.Fitness>
45.6046

> <Gold.PLP.PLP>
-40.0990

> <Gold.PLP.part.hbond>
-3.0000

> <Gold.PLP.part.metal>
0.0000

> <Gold.PLP.part.buried>
-1.7146

> <Gold.PLP.part.nonpolar>
-35.3212

> <Gold.PLP.part.repulsive>
0.3098

> <Gold.PLP.ligand.clash>
0.0000

> <Gold.PLP.ligand.torsion>
1.4630

> <Gold.PLP.Chemscore.Hbond>
2.8000

> <Gold.PLP.Chemscore.CHOScore>
0.0000

> <Gold.PLP.Chemscore.Metal>
0.0000

> <Gold.Chemscore.Hbonds>
donor molecule, donor type, donor heavy atom, donor atom, acceptor molecule, acceptor atom, score
      L1  H    19    53       P1  8028  1.98
      P1  H  6931  6943       L1     6  0.70

> <Gold.PLP.Chemscore.Internal.Correction>
0.0316

> <Gold.Rescore>
     Score         DG    S(hbond)    S(metal)    S(lipo)     H(rot)  DE(clash)    DE(int)     intcor
     12.92     -17.18       1.37        0.00      96.49       1.63       1.50       2.76       ----

> <Gold.Chemscore.Fitness>
12.9227

> <Gold.Chemscore.DG>
-17.1798

> <Gold.Chemscore.ZeroCoef>
-5.4800

> <Gold.Chemscore.Hbond>
1.3710

> <Gold.Chemscore.Metal>
0.0000

> <Gold.Chemscore.Lipo>
96.4858

> <Gold.Chemscore.Internal_Hbond>
0.0000

> <Gold.Chemscore.DEClash>
1.5013

> <Gold.Chemscore.DEInternal>
2.7558

> <Gold.Chemscore.Rot>
1.6282

> <Gold.Chemscore.Internal.Correction>
   9.000000E+99

> <Gold.Chemscore.Hbonds>
donor molecule, donor type, donor heavy atom, donor atom, acceptor molecule, acceptor atom, score
      L1  H    19    53       P1  8028  0.27
      P1  H  6931  6943       L1     6  0.07

> <Gold.Chemscore.Hbond.Weighted>
-4.5791

> <Gold.Chemscore.Metal.Weighted>
-0.0000

> <Gold.Chemscore.Lipo.Weighted>
-11.2888

> <Gold.Chemscore.Internal_Hbond.Weighted>
0.0000

> <Gold.Chemscore.DEClash.Weighted>
1.5013

> <Gold.Chemscore.DEInternal.Weighted>
2.7558

> <Gold.Chemscore.Rot.Weighted>
4.1682

> <Gold.Chemscore.Internal.Correction.Weighted>
   9.000000E+99

> <Gold.Protein.RotatedTorsions>
[ 6907 6896 6895 6894 ] final -118.01 input  -60.11 | X-H torsion
[ 7974 7965 7964 7962 ] final -122.56 input  175.53 | X-H torsion
[ 8008 7997 7996 7995 ] final  118.74 input   59.86 | X-H torsion
[ 10167 10162 10161 10158 ] final  106.70 input  -65.29 | X-H torsion
[ 10718 10713 10712 10709 ] final  -40.19 input   66.30 | X-H torsion
[ 10763 10752 10751 10750 ] final  160.77 input  -60.55 | X-H torsion
[ 11005 11000 10999 10996 ] final -104.09 input  -57.11 | X-H torsion

> <Gold.Protein.ActiveResidues>
 VAL166  LYS551  ARG553  GLY616  TRP617  ASP618  TYR619  PRO620  LYS621  CYS622 
 ASP623  PHE694  ASN695  SER759  ASP760  ASP761  ALA762  ILE779  LEU786  VAL792 
 PHE793  MET794  SER795  GLU796  ALA797  LYS798  CYS799  TRP800  GLU811  SER814 

> <Gold.Protein.RotatedAtoms>
  150.8184  133.8296  159.3149 H   0  0  0  0  0  0  0  0  0  0  0  0  # atno 6907 bound_to 6896
  151.6062  135.1042  160.0080 H   0  0  0  0  0  0  0  0  0  0  0  0  # atno 6908 bound_to 6896
  152.4274  133.7178  159.6572 H   0  0  0  0  0  0  0  0  0  0  0  0  # atno 6909 bound_to 6896
  145.0282  140.8045  143.4340 H   0  0  0  0  0  0  0  0  0  0  0  0  # atno 7974 bound_to 7965
  156.2561  140.2868  156.0882 H   0  0  0  0  0  0  0  0  0  0  0  0  # atno 8008 bound_to 7997
  155.1492  140.0397  157.2834 H   0  0  0  0  0  0  0  0  0  0  0  0  # atno 8009 bound_to 7997
  154.6473  140.2536  155.7260 H   0  0  0  0  0  0  0  0  0  0  0  0  # atno 8010 bound_to 7997
  139.6987  144.7097  151.1222 H   0  0  0  0  0  0  0  0  0  0  0  0  # atno 10167 bound_to 10162
  156.2841  130.4220  149.8306 H   0  0  0  0  0  0  0  0  0  0  0  0  # atno 10718 bound_to 10713
  154.2525  135.2771  155.2811 H   0  0  0  0  0  0  0  0  0  0  0  0  # atno 10763 bound_to 10752
  154.5453  135.5691  153.6878 H   0  0  0  0  0  0  0  0  0  0  0  0  # atno 10764 bound_to 10752
  152.9978  135.6261  154.2673 H   0  0  0  0  0  0  0  0  0  0  0  0  # atno 10765 bound_to 10752
  141.1116  133.8694  157.1567 H   0  0  0  0  0  0  0  0  0  0  0  0  # atno 11005 bound_to 11000
  145.1806  139.2354  143.5294 LP  0  0  0  0  0  0  0  0  0  0  0  0  # atno 17320 bound_to 7965
  146.3495  140.1579  142.8591 LP  0  0  0  0  0  0  0  0  0  0  0  0  # atno 17321 bound_to 7965
  140.7703  143.5454  150.9264 LP  0  0  0  0  0  0  0  0  0  0  0  0  # atno 17342 bound_to 10162
  139.9135  143.6691  152.3110 LP  0  0  0  0  0  0  0  0  0  0  0  0  # atno 17343 bound_to 10162
  156.5743  130.8438  151.3365 LP  0  0  0  0  0  0  0  0  0  0  0  0  # atno 17370 bound_to 10713
  157.7323  130.9713  150.1923 LP  0  0  0  0  0  0  0  0  0  0  0  0  # atno 17371 bound_to 10713
  140.0014  135.0026  157.0197 LP  0  0  0  0  0  0  0  0  0  0  0  0  # atno 17394 bound_to 11000
  140.4759  134.1339  155.7209 LP  0  0  0  0  0  0  0  0  0  0  0  0  # atno 17395 bound_to 11000

$$$$
