AV-unprocessed.smi:2855|AV-procd|sdf|10991|dock7
  -GOLD-   2272015443D 1   1.00000     0.00000
 Structure written by MMmdl.
 46 47  0  0  0  0  0  0  0  0  2 V2000
  153.8618  140.8444  160.9619 C   0  0  0  0  0  0  0  0  0  0  0  0
  153.4838  141.7050  159.7483 C   0  0  2  0  0  0  0  0  0  0  0  0
  153.0567  143.1245  160.1740 C   0  0  0  0  0  0  0  0  0  0  0  0
  152.5992  143.9703  158.9704 C   0  0  0  0  0  0  0  0  0  0  0  0
  151.4351  143.3017  158.1957 C   0  0  2  0  0  0  0  0  0  0  0  0
  150.0886  143.2809  159.0026 C   0  0  0  0  0  0  0  0  0  0  0  0
  148.8808  142.7585  158.1994 C   0  0  0  0  0  0  0  0  0  0  0  0
  149.7202  144.6691  159.5647 C   0  0  0  0  0  0  0  0  0  0  0  0
  151.9830  141.9243  157.7089 C   0  0  2  0  0  0  0  0  0  0  0  0
  151.1043  141.2049  156.7917 N   0  0  0  0  0  0  0  0  0  0  0  0
  151.4784  140.2174  155.9636 C   0  0  0  0  0  0  0  0  0  0  0  0
  152.6353  139.8003  155.8918 O   0  0  0  0  0  0  0  0  0  0  0  0
  150.3670  139.6443  155.0729 C   0  0  0  0  0  0  0  0  0  0  0  0
  150.2918  138.1746  155.0969 N   0  0  0  0  0  0  0  0  0  0  0  0
  149.0977  137.5926  155.5576 C   0  0  0  0  0  0  0  0  0  0  0  0
  148.9331  136.2572  155.6124 C   0  0  0  0  0  0  0  0  0  0  0  0
  150.0349  135.4077  155.1777 C   0  0  0  0  0  0  0  0  0  0  0  0
  149.9050  134.1861  155.2275 O   0  0  0  0  0  0  0  0  0  0  0  0
  151.1708  136.0202  154.7317 N   0  5  0  0  0  0  0  0  0  0  0  0
  151.3225  137.3800  154.6777 C   0  0  0  0  0  0  0  0  0  0  0  0
  152.3545  137.9120  154.2670 O   0  0  0  0  0  0  0  0  0  0  0  0
  152.3932  141.0283  158.8929 C   0  0  0  0  0  0  0  0  0  0  0  0
  153.0130  140.7128  161.6340 H   0  0  0  0  0  0  0  0  0  0  0  0
  154.6697  141.3032  161.5322 H   0  0  0  0  0  0  0  0  0  0  0  0
  154.1974  139.8545  160.6520 H   0  0  0  0  0  0  0  0  0  0  0  0
  154.3753  141.8023  159.1268 H   0  0  0  0  0  0  0  0  0  0  0  0
  152.2565  143.0682  160.9121 H   0  0  0  0  0  0  0  0  0  0  0  0
  153.8892  143.6240  160.6705 H   0  0  0  0  0  0  0  0  0  0  0  0
  152.3479  144.9805  159.2887 H   0  0  0  0  0  0  0  0  0  0  0  0
  153.4465  144.1005  158.2956 H   0  0  0  0  0  0  0  0  0  0  0  0
  151.2596  143.9183  157.3132 H   0  0  0  0  0  0  0  0  0  0  0  0
  150.2005  142.6211  159.8621 H   0  0  0  0  0  0  0  0  0  0  0  0
  148.8017  143.2526  157.2305 H   0  0  0  0  0  0  0  0  0  0  0  0
  147.9445  142.9289  158.7315 H   0  0  0  0  0  0  0  0  0  0  0  0
  148.9343  141.6837  158.0351 H   0  0  0  0  0  0  0  0  0  0  0  0
  149.6970  145.4231  158.7773 H   0  0  0  0  0  0  0  0  0  0  0  0
  150.4198  144.9988  160.3317 H   0  0  0  0  0  0  0  0  0  0  0  0
  148.7387  144.6579  160.0394 H   0  0  0  0  0  0  0  0  0  0  0  0
  152.8959  142.1163  157.1407 H   0  0  0  0  0  0  0  0  0  0  0  0
  150.1333  141.4815  156.7836 H   0  0  0  0  0  0  0  0  0  0  0  0
  149.4118  140.0807  155.3702 H   0  0  0  0  0  0  0  0  0  0  0  0
  150.5336  139.9917  154.0522 H   0  0  0  0  0  0  0  0  0  0  0  0
  148.3299  138.2925  155.8534 H   0  0  0  0  0  0  0  0  0  0  0  0
  148.0078  135.8259  155.9653 H   0  0  0  0  0  0  0  0  0  0  0  0
  152.7718  140.0765  158.5175 H   0  0  0  0  0  0  0  0  0  0  0  0
  151.5247  140.7872  159.5061 H   0  0  0  0  0  0  0  0  0  0  0  0
  1  2  1  0  0  0  0
  1 23  1  0  0  0  0
  1 24  1  0  0  0  0
  1 25  1  0  0  0  0
  2 22  1  0  0  0  0
  2  3  1  0  0  0  0
  2 26  1  0  0  0  0
  3  4  1  0  0  0  0
  3 27  1  0  0  0  0
  3 28  1  0  0  0  0
  4  5  1  0  0  0  0
  4 29  1  0  0  0  0
  4 30  1  0  0  0  0
  5  6  1  0  0  0  0
  5  9  1  0  0  0  0
  5 31  1  0  0  0  0
  6  7  1  0  0  0  0
  6  8  1  0  0  0  0
  6 32  1  0  0  0  0
  7 33  1  0  0  0  0
  7 34  1  0  0  0  0
  7 35  1  0  0  0  0
  8 36  1  0  0  0  0
  8 37  1  0  0  0  0
  8 38  1  0  0  0  0
  9 10  1  0  0  0  0
  9 22  1  0  0  0  0
  9 39  1  0  0  0  0
 10 11  1  0  0  0  0
 10 40  1  0  0  0  0
 11 12  2  0  0  0  0
 11 13  1  0  0  0  0
 13 14  1  0  0  0  0
 13 41  1  0  0  0  0
 13 42  1  0  0  0  0
 14 20  1  0  0  0  0
 14 15  1  0  0  0  0
 15 16  2  0  0  0  0
 15 43  1  0  0  0  0
 16 17  1  0  0  0  0
 16 44  1  0  0  0  0
 17 18  2  0  0  0  0
 17 19  1  0  0  0  0
 19 20  1  0  0  0  0
 20 21  2  0  0  0  0
 22 45  1  0  0  0  0
 22 46  1  0  0  0  0
M  CHG  1  19  -1
M  END
> <s_m_source_file>
AV-unprocessed.smi

> <i_m_source_file_index>
2855

> <i_lp_mmshare_version>
43012

> <i_f3d_flags>
0

> <s_epik_input>
W0NIM11bQ0BASF0xW0NIMl1bQ0gyXVtDQEBIXShbQ0hdKFtDSDNdKVtDSDNdKVtDQEhdKFtDSDJdMSlbTkhdQyg9TylbQ0gyXW4yW2NIXVtjSF1jKD1PKVtuSF1jMj1P

> <s_epik_cmdline>
J2VwaWtfcHl0aG9uJywgJy1waCcsICc3LjAnLCAnLXRuJywgJzgnLCAnLW1hJywgJzIwMCcsICctbWV0YWxfYmluZGluZycsICctaW1hZScsICc8aW5maWxlLm1hZT4nLCAnLW9tYWUnLCAnPG91dGZpbGUubWFlPic=

> <r_lp_tautomer_probability>
0.999537

> <r_epik_Ionization_Penalty>
3.12102

> <r_epik_Ionization_Penalty_Charging>
2.9581e-08

> <r_epik_Ionization_Penalty_Neutral>
3.12102

> <r_epik_State_Penalty>
3.12011

> <r_epik_Charging_Adjusted_Penalty>
3.12011

> <i_epik_Tot_Q>
-1

> <i_epik_Tot_abs_Q>
1

> <r_epik_Metal_State_Penalty>
0.463583

> <b_epik_Metal_Only>
1

> <s_lp_Force_Field>
OPLS_2005

> <r_lp_Energy>
28.6833

> <b_lp_Chiralities_Consistent>
1

> <s_lp_Variant>
AV-unprocessed.smi:2855-15

> <Gold.Version>
5.8.1

> <Gold.Id.Protein>
6NUR|6NUR_protein|mol2

> <Gold.PLP.Fitness>
47.0814

> <Gold.PLP.PLP>
-38.6916

> <Gold.PLP.part.hbond>
-2.8227

> <Gold.PLP.part.metal>
0.0000

> <Gold.PLP.part.buried>
-4.7755

> <Gold.PLP.part.nonpolar>
-31.9960

> <Gold.PLP.part.repulsive>
0.4711

> <Gold.PLP.ligand.clash>
0.0000

> <Gold.PLP.ligand.torsion>
0.3416

> <Gold.PLP.Chemscore.Hbond>
3.0000

> <Gold.PLP.Chemscore.CHOScore>
0.0000

> <Gold.PLP.Chemscore.Metal>
0.0000

> <Gold.Chemscore.Hbonds>
donor molecule, donor type, donor heavy atom, donor atom, acceptor molecule, acceptor atom, score
      P1  H  7997  8009       L1    12  1.00
      P1  H 10752 10763       L1    19  1.90

> <Gold.PLP.Chemscore.Internal.Correction>
0.0731

> <Gold.Rescore>
     Score         DG    S(hbond)    S(metal)    S(lipo)     H(rot)  DE(clash)    DE(int)     intcor
     13.13     -17.54       1.56        0.00      98.23       1.81       0.24       4.16       ----

> <Gold.Chemscore.Fitness>
13.1329

> <Gold.Chemscore.DG>
-17.5357

> <Gold.Chemscore.ZeroCoef>
-5.4800

> <Gold.Chemscore.Hbond>
1.5559

> <Gold.Chemscore.Metal>
0.0000

> <Gold.Chemscore.Lipo>
98.2274

> <Gold.Chemscore.Internal_Hbond>
0.0000

> <Gold.Chemscore.DEClash>
0.2425

> <Gold.Chemscore.DEInternal>
4.1603

> <Gold.Chemscore.Rot>
1.8100

> <Gold.Chemscore.Internal.Correction>
   9.000000E+99

> <Gold.Chemscore.Hbonds>
donor molecule, donor type, donor heavy atom, donor atom, acceptor molecule, acceptor atom, score
      P1  H  7997  8009       L1    12  0.96
      P1  H 10752 10763       L1    19  0.21

> <Gold.Chemscore.Hbond.Weighted>
-5.1966

> <Gold.Chemscore.Metal.Weighted>
-0.0000

> <Gold.Chemscore.Lipo.Weighted>
-11.4926

> <Gold.Chemscore.Internal_Hbond.Weighted>
0.0000

> <Gold.Chemscore.DEClash.Weighted>
0.2425

> <Gold.Chemscore.DEInternal.Weighted>
4.1603

> <Gold.Chemscore.Rot.Weighted>
4.6335

> <Gold.Chemscore.Internal.Correction.Weighted>
   9.000000E+99

> <Gold.Protein.RotatedTorsions>
[ 6907 6896 6895 6894 ] final -167.26 input  -60.11 | X-H torsion
[ 7974 7965 7964 7962 ] final   21.11 input  175.53 | X-H torsion
[ 8008 7997 7996 7995 ] final -136.84 input   59.86 | X-H torsion
[ 10167 10162 10161 10158 ] final  -55.11 input  -65.29 | X-H torsion
[ 10718 10713 10712 10709 ] final   85.80 input   66.30 | X-H torsion
[ 10763 10752 10751 10750 ] final   72.11 input  -60.55 | X-H torsion
[ 11005 11000 10999 10996 ] final  -75.56 input  -57.11 | X-H torsion

> <Gold.Protein.ActiveResidues>
 VAL166  LYS551  ARG553  GLY616  TRP617  ASP618  TYR619  PRO620  LYS621  CYS622 
 ASP623  PHE694  ASN695  SER759  ASP760  ASP761  ALA762  ILE779  LEU786  VAL792 
 PHE793  MET794  SER795  GLU796  ALA797  LYS798  CYS799  TRP800  GLU811  SER814 

> <Gold.Protein.RotatedAtoms>
  151.4566  133.3603  159.2802 H   0  0  0  0  0  0  0  0  0  0  0  0  # atno 6907 bound_to 6896
  150.9054  134.8470  159.7399 H   0  0  0  0  0  0  0  0  0  0  0  0  # atno 6908 bound_to 6896
  152.4903  134.4491  159.9620 H   0  0  0  0  0  0  0  0  0  0  0  0  # atno 6909 bound_to 6896
  146.2084  139.8073  142.8708 H   0  0  0  0  0  0  0  0  0  0  0  0  # atno 7974 bound_to 7965
  155.4020  140.0506  157.3036 H   0  0  0  0  0  0  0  0  0  0  0  0  # atno 8008 bound_to 7997
  154.4986  140.2148  155.9354 H   0  0  0  0  0  0  0  0  0  0  0  0  # atno 8009 bound_to 7997
  156.1438  140.3149  155.8543 H   0  0  0  0  0  0  0  0  0  0  0  0  # atno 8010 bound_to 7997
  140.6393  143.2499  151.5033 H   0  0  0  0  0  0  0  0  0  0  0  0  # atno 10167 bound_to 10162
  157.6920  131.0189  150.2877 H   0  0  0  0  0  0  0  0  0  0  0  0  # atno 10718 bound_to 10713
  153.0439  135.5112  154.7694 H   0  0  0  0  0  0  0  0  0  0  0  0  # atno 10763 bound_to 10752
  154.6610  135.2938  154.9869 H   0  0  0  0  0  0  0  0  0  0  0  0  # atno 10764 bound_to 10752
  154.0720  135.6676  153.4878 H   0  0  0  0  0  0  0  0  0  0  0  0  # atno 10765 bound_to 10752
  141.1646  133.6951  156.7536 H   0  0  0  0  0  0  0  0  0  0  0  0  # atno 11005 bound_to 11000
  145.3233  141.0249  143.3488 LP  0  0  0  0  0  0  0  0  0  0  0  0  # atno 17320 bound_to 7965
  144.8851  139.4850  143.6704 LP  0  0  0  0  0  0  0  0  0  0  0  0  # atno 17321 bound_to 7965
  139.5602  144.2175  152.1679 LP  0  0  0  0  0  0  0  0  0  0  0  0  # atno 17342 bound_to 10162
  140.1440  144.5176  150.6727 LP  0  0  0  0  0  0  0  0  0  0  0  0  # atno 17343 bound_to 10162
  156.3413  130.3816  149.7407 LP  0  0  0  0  0  0  0  0  0  0  0  0  # atno 17370 bound_to 10713
  156.4915  130.8087  151.3096 LP  0  0  0  0  0  0  0  0  0  0  0  0  # atno 17371 bound_to 10713
  140.2586  134.8484  157.3737 LP  0  0  0  0  0  0  0  0  0  0  0  0  # atno 17394 bound_to 11000
  140.1633  134.4701  155.7880 LP  0  0  0  0  0  0  0  0  0  0  0  0  # atno 17395 bound_to 11000

$$$$
