AV-unprocessed.smi:598|AV-procd|sdf|3022|dock2
  -GOLD-   2262023533D 1   1.00000     0.00000
 Structure written by MMmdl.
 43 44  0  0  0  0  0  0  0  0  3 V2000
  145.4486  139.5673  156.6675 C   0  0  0  0  0  0  0  0  0  0  0  0
  146.7426  139.9697  155.9405 C   0  0  1  0  0  0  0  0  0  0  0  0
  146.4784  140.3367  154.4659 C   0  0  0  0  0  0  0  0  0  0  0  0
  147.7855  140.6423  153.7181 C   0  0  0  0  0  0  0  0  0  0  0  0
  148.6004  141.7317  154.4312 C   0  0  0  0  0  0  0  0  0  0  0  0
  148.8682  141.3556  155.9013 C   0  0  1  0  0  0  0  0  0  0  0  0
  149.6752  142.3937  156.5388 N   0  0  0  0  0  0  0  0  0  0  0  0
  150.8372  142.1920  157.1785 C   0  0  0  0  0  0  0  0  0  0  0  0
  151.3752  141.0879  157.2717 O   0  0  0  0  0  0  0  0  0  0  0  0
  151.4925  143.4362  157.7935 C   0  0  0  0  0  0  0  0  0  0  0  0
  152.1076  143.1724  159.1051 N   0  0  0  0  0  0  0  0  0  0  0  0
  153.0825  142.1567  159.1658 C   0  0  0  0  0  0  0  0  0  0  0  0
  153.7047  141.8296  160.3155 C   0  0  0  0  0  0  0  0  0  0  0  0
  154.6997  140.7805  160.3608 N   0  3  0  0  0  0  0  0  0  0  0  0
  154.8655  140.0835  159.3647 O   0  0  0  0  0  0  0  0  0  0  0  0
  155.3468  140.6171  161.3911 O   0  5  0  0  0  0  0  0  0  0  0  0
  153.3392  142.5630  161.5121 C   0  0  0  0  0  0  0  0  0  0  0  0
  152.4058  143.5335  161.4611 C   0  0  0  0  0  0  0  0  0  0  0  0
  151.7290  143.8870  160.2091 C   0  0  0  0  0  0  0  0  0  0  0  0
  150.8738  144.7713  160.1561 O   0  0  0  0  0  0  0  0  0  0  0  0
  147.5471  141.0779  156.6717 C   0  0  1  0  0  0  0  0  0  0  0  0
  146.7254  142.3579  156.9529 C   0  0  0  0  0  0  0  0  0  0  0  0
  144.7020  140.3610  156.6354 H   0  0  0  0  0  0  0  0  0  0  0  0
  145.6418  139.3274  157.7133 H   0  0  0  0  0  0  0  0  0  0  0  0
  145.0029  138.6856  156.2063 H   0  0  0  0  0  0  0  0  0  0  0  0
  147.3733  139.0792  155.9359 H   0  0  0  0  0  0  0  0  0  0  0  0
  145.9624  139.5161  153.9662 H   0  0  0  0  0  0  0  0  0  0  0  0
  145.8104  141.1963  154.4056 H   0  0  0  0  0  0  0  0  0  0  0  0
  148.3828  139.7326  153.6435 H   0  0  0  0  0  0  0  0  0  0  0  0
  147.5663  140.9507  152.6955 H   0  0  0  0  0  0  0  0  0  0  0  0
  149.5451  141.8780  153.9061 H   0  0  0  0  0  0  0  0  0  0  0  0
  148.0694  142.6827  154.3736 H   0  0  0  0  0  0  0  0  0  0  0  0
  149.4569  140.4360  155.8940 H   0  0  0  0  0  0  0  0  0  0  0  0
  149.3095  143.3343  156.5088 H   0  0  0  0  0  0  0  0  0  0  0  0
  152.2335  143.8120  157.0868 H   0  0  0  0  0  0  0  0  0  0  0  0
  150.7529  144.2344  157.8837 H   0  0  0  0  0  0  0  0  0  0  0  0
  153.2778  141.6654  158.2233 H   0  0  0  0  0  0  0  0  0  0  0  0
  153.8099  142.3387  162.4581 H   0  0  0  0  0  0  0  0  0  0  0  0
  152.1474  144.0662  162.3645 H   0  0  0  0  0  0  0  0  0  0  0  0
  147.8223  140.6751  157.6476 H   0  0  0  0  0  0  0  0  0  0  0  0
  146.3760  142.8313  156.0362 H   0  0  0  0  0  0  0  0  0  0  0  0
  147.3093  143.0966  157.5021 H   0  0  0  0  0  0  0  0  0  0  0  0
  145.8515  142.1447  157.5673 H   0  0  0  0  0  0  0  0  0  0  0  0
  1  2  1  0  0  0  0
  1 23  1  0  0  0  0
  1 24  1  0  0  0  0
  1 25  1  0  0  0  0
  2 21  1  0  0  0  0
  2  3  1  0  0  0  0
  2 26  1  0  0  0  0
  3  4  1  0  0  0  0
  3 27  1  0  0  0  0
  3 28  1  0  0  0  0
  4  5  1  0  0  0  0
  4 29  1  0  0  0  0
  4 30  1  0  0  0  0
  5  6  1  0  0  0  0
  5 31  1  0  0  0  0
  5 32  1  0  0  0  0
  6  7  1  0  0  0  0
  6 21  1  0  0  0  0
  6 33  1  0  0  0  0
  7  8  1  0  0  0  0
  7 34  1  0  0  0  0
  8  9  2  0  0  0  0
  8 10  1  0  0  0  0
 10 11  1  0  0  0  0
 10 35  1  0  0  0  0
 10 36  1  0  0  0  0
 11 19  1  0  0  0  0
 11 12  1  0  0  0  0
 12 13  2  0  0  0  0
 12 37  1  0  0  0  0
 13 14  1  0  0  0  0
 13 17  1  0  0  0  0
 14 15  2  0  0  0  0
 14 16  1  0  0  0  0
 17 18  2  0  0  0  0
 17 38  1  0  0  0  0
 18 19  1  0  0  0  0
 18 39  1  0  0  0  0
 19 20  2  0  0  0  0
 21 22  1  0  0  0  0
 21 40  1  0  0  0  0
 22 41  1  0  0  0  0
 22 42  1  0  0  0  0
 22 43  1  0  0  0  0
M  CHG  1  14   1
M  CHG  1  16  -1
M  END
> <s_m_source_file>
AV-unprocessed.smi

> <i_m_source_file_index>
598

> <i_lp_mmshare_version>
43012

> <i_f3d_flags>
0

> <s_epik_input>
W0NIM11bQ0BASF0xW0NIMl1bQ0gyXVtDSDJdW0NASF0oW0NASF0xW0NIM10pW05IXUMoPU8pW0NIMl1uMltjSF1jKFtOK10oPU8pW08tXSlbY0hdW2NIXWMyPU8=

> <s_epik_cmdline>
J2VwaWtfcHl0aG9uJywgJy1waCcsICc3LjAnLCAnLXRuJywgJzgnLCAnLW1hJywgJzIwMCcsICctbWV0YWxfYmluZGluZycsICctaW1hZScsICc8aW5maWxlLm1hZT4nLCAnLW9tYWUnLCAnPG91dGZpbGUubWFlPic=

> <r_lp_tautomer_probability>
1

> <r_epik_Ionization_Penalty>
1.91291e-08

> <r_epik_Ionization_Penalty_Charging>
8.21931e-11

> <r_epik_Ionization_Penalty_Neutral>
1.90469e-08

> <r_epik_State_Penalty>
-0

> <r_epik_Charging_Adjusted_Penalty>
8.21931e-11

> <i_epik_Tot_Q>
0

> <i_epik_Tot_abs_Q>
2

> <r_epik_Metal_State_Penalty>
-0

> <b_epik_Metal_Only>
0

> <s_lp_Force_Field>
OPLS_2005

> <r_lp_Energy>
25.1906

> <b_lp_Chiralities_Consistent>
1

> <s_lp_Variant>
AV-unprocessed.smi:598-2

> <Gold.Version>
5.8.1

> <Gold.Id.Protein>
6NUR|6NUR_protein|mol2

> <Gold.PLP.Fitness>
48.4929

> <Gold.PLP.PLP>
-43.3409

> <Gold.PLP.part.hbond>
-3.0000

> <Gold.PLP.part.metal>
0.0000

> <Gold.PLP.part.buried>
-4.3915

> <Gold.PLP.part.nonpolar>
-35.3909

> <Gold.PLP.part.repulsive>
0.2155

> <Gold.PLP.ligand.clash>
0.0000

> <Gold.PLP.ligand.torsion>
0.3969

> <Gold.PLP.Chemscore.Hbond>
1.9760

> <Gold.PLP.Chemscore.CHOScore>
0.0000

> <Gold.PLP.Chemscore.Metal>
0.0000

> <Gold.Chemscore.Hbonds>
donor molecule, donor type, donor heavy atom, donor atom, acceptor molecule, acceptor atom, score
      L1  H     7    34       P1  8028  1.00
      P1  H  7997  8010       L1    15  0.98

> <Gold.PLP.Chemscore.Internal.Correction>
0.0178

> <Gold.Rescore>
     Score         DG    S(hbond)    S(metal)    S(lipo)     H(rot)  DE(clash)    DE(int)     intcor
     16.41     -18.10       1.99        0.00      84.86       1.54       0.06       1.63       ----

> <Gold.Chemscore.Fitness>
16.4054

> <Gold.Chemscore.DG>
-18.0982

> <Gold.Chemscore.ZeroCoef>
-5.4800

> <Gold.Chemscore.Hbond>
1.9851

> <Gold.Chemscore.Metal>
0.0000

> <Gold.Chemscore.Lipo>
84.8602

> <Gold.Chemscore.Internal_Hbond>
0.0000

> <Gold.Chemscore.DEClash>
0.0605

> <Gold.Chemscore.DEInternal>
1.6323

> <Gold.Chemscore.Rot>
1.5393

> <Gold.Chemscore.Internal.Correction>
   9.000000E+99

> <Gold.Chemscore.Hbonds>
donor molecule, donor type, donor heavy atom, donor atom, acceptor molecule, acceptor atom, score
      L1  H     7    34       P1  8028  0.96
      P1  H  7997  8010       L1    15  0.87

> <Gold.Chemscore.Hbond.Weighted>
-6.6303

> <Gold.Chemscore.Metal.Weighted>
-0.0000

> <Gold.Chemscore.Lipo.Weighted>
-9.9286

> <Gold.Chemscore.Internal_Hbond.Weighted>
0.0000

> <Gold.Chemscore.DEClash.Weighted>
0.0605

> <Gold.Chemscore.DEInternal.Weighted>
1.6323

> <Gold.Chemscore.Rot.Weighted>
3.9407

> <Gold.Chemscore.Internal.Correction.Weighted>
   9.000000E+99

> <Gold.Protein.RotatedTorsions>
[ 6907 6896 6895 6894 ] final -126.89 input  -60.11 | X-H torsion
[ 7974 7965 7964 7962 ] final  151.38 input  175.53 | X-H torsion
[ 8008 7997 7996 7995 ] final   -8.31 input   59.86 | X-H torsion
[ 10167 10162 10161 10158 ] final  149.41 input  -65.29 | X-H torsion
[ 10718 10713 10712 10709 ] final -112.10 input   66.30 | X-H torsion
[ 10763 10752 10751 10750 ] final   51.72 input  -60.55 | X-H torsion
[ 11005 11000 10999 10996 ] final   69.98 input  -57.11 | X-H torsion

> <Gold.Protein.ActiveResidues>
 VAL166  LYS551  ARG553  GLY616  TRP617  ASP618  TYR619  PRO620  LYS621  CYS622 
 ASP623  PHE694  ASN695  SER759  ASP760  ASP761  ALA762  ILE779  LEU786  VAL792 
 PHE793  MET794  SER795  GLU796  ALA797  LYS798  CYS799  TRP800  GLU811  SER814 

> <Gold.Protein.RotatedAtoms>
  150.9016  133.7111  159.2877 H   0  0  0  0  0  0  0  0  0  0  0  0  # atno 6907 bound_to 6896
  151.4628  135.1038  159.9739 H   0  0  0  0  0  0  0  0  0  0  0  0  # atno 6908 bound_to 6896
  152.4880  133.8375  159.7191 H   0  0  0  0  0  0  0  0  0  0  0  0  # atno 6909 bound_to 6896
  144.8296  139.6531  143.6064 H   0  0  0  0  0  0  0  0  0  0  0  0  # atno 7974 bound_to 7965
  154.5754  140.2384  155.8131 H   0  0  0  0  0  0  0  0  0  0  0  0  # atno 8008 bound_to 7997
  156.2139  140.3018  155.9751 H   0  0  0  0  0  0  0  0  0  0  0  0  # atno 8009 bound_to 7997
  155.2637  140.0415  157.2990 H   0  0  0  0  0  0  0  0  0  0  0  0  # atno 8010 bound_to 7997
  139.4862  144.5603  151.7242 H   0  0  0  0  0  0  0  0  0  0  0  0  # atno 10167 bound_to 10162
  156.0686  130.5902  150.8463 H   0  0  0  0  0  0  0  0  0  0  0  0  # atno 10718 bound_to 10713
  152.9786  135.5836  154.4461 H   0  0  0  0  0  0  0  0  0  0  0  0  # atno 10763 bound_to 10752
  154.4056  135.2769  155.2071 H   0  0  0  0  0  0  0  0  0  0  0  0  # atno 10764 bound_to 10752
  154.3883  135.6131  153.5883 H   0  0  0  0  0  0  0  0  0  0  0  0  # atno 10765 bound_to 10752
  139.9623  134.7040  156.0620 H   0  0  0  0  0  0  0  0  0  0  0  0  # atno 11005 bound_to 11000
  146.2600  139.6388  142.9368 LP  0  0  0  0  0  0  0  0  0  0  0  0  # atno 17320 bound_to 7965
  145.4924  141.0438  143.2585 LP  0  0  0  0  0  0  0  0  0  0  0  0  # atno 17321 bound_to 7965
  140.5172  144.0934  150.6012 LP  0  0  0  0  0  0  0  0  0  0  0  0  # atno 17342 bound_to 10162
  140.3880  143.2767  152.0093 LP  0  0  0  0  0  0  0  0  0  0  0  0  # atno 17343 bound_to 10162
  157.5743  131.0946  150.9370 LP  0  0  0  0  0  0  0  0  0  0  0  0  # atno 17370 bound_to 10713
  156.9580  130.5444  149.5285 LP  0  0  0  0  0  0  0  0  0  0  0  0  # atno 17371 bound_to 10713
  141.1301  133.6589  156.3441 LP  0  0  0  0  0  0  0  0  0  0  0  0  # atno 17394 bound_to 11000
  140.5473  134.6062  157.5397 LP  0  0  0  0  0  0  0  0  0  0  0  0  # atno 17395 bound_to 11000

$$$$
