AV-unprocessed.smi:911|AV-procd|sdf|4138|dock5
  -GOLD-   22720 2 43D 1   1.00000     0.00000
 Structure written by MMmdl.
 47 49  0  0  0  0  0  0  0  0  3 V2000
  145.4566  137.2332  161.3027 C   0  0  0  0  0  0  0  0  0  0  0  0
  145.3900  135.7194  161.6534 C   0  0  0  0  0  0  0  0  0  0  0  0
  144.3371  135.6145  162.7926 C   0  0  0  0  0  0  0  0  0  0  0  0
  145.1132  134.7995  160.4473 C   0  0  2  0  0  0  0  0  0  0  0  0
  145.2077  133.3777  161.0468 C   0  0  0  0  0  0  0  0  0  0  0  0
  146.3285  133.5309  162.0965 C   0  0  0  0  0  0  0  0  0  0  0  0
  146.7474  135.0153  161.9362 C   0  0  2  0  0  0  0  0  0  0  0  0
  147.5351  135.5394  163.1534 C   0  0  0  0  0  0  0  0  0  0  0  0
  147.5084  135.0696  160.5738 C   0  0  2  0  0  0  0  0  0  0  0  0
  148.3078  136.2804  160.4109 N   0  0  0  0  0  0  0  0  0  0  0  0
  149.3621  136.4580  159.5978 C   0  0  0  0  0  0  0  0  0  0  0  0
  149.7589  135.5989  158.8120 O   0  0  0  0  0  0  0  0  0  0  0  0
  150.1161  137.7962  159.6946 C   0  0  0  0  0  0  0  0  0  0  0  0
  151.0226  138.0625  158.5617 N   0  0  0  0  0  0  0  0  0  0  0  0
  150.5287  138.9014  157.5431 C   0  0  0  0  0  0  0  0  0  0  0  0
  151.2397  139.1749  156.4323 C   0  0  0  0  0  0  0  0  0  0  0  0
  150.7001  140.0092  155.3817 N   0  3  0  0  0  0  0  0  0  0  0  0
  150.0990  141.0321  155.6934 O   0  0  0  0  0  0  0  0  0  0  0  0
  150.8629  139.6732  154.2125 O   0  5  0  0  0  0  0  0  0  0  0  0
  152.5587  138.5848  156.3145 C   0  0  0  0  0  0  0  0  0  0  0  0
  153.0354  137.7779  157.2828 C   0  0  0  0  0  0  0  0  0  0  0  0
  152.2512  137.4658  158.4823 C   0  0  0  0  0  0  0  0  0  0  0  0
  152.6685  136.7046  159.3546 O   0  0  0  0  0  0  0  0  0  0  0  0
  146.3566  134.9856  159.5476 C   0  0  0  0  0  0  0  0  0  0  0  0
  144.4637  137.6159  161.0652 H   0  0  0  0  0  0  0  0  0  0  0  0
  146.0807  137.4882  160.4512 H   0  0  0  0  0  0  0  0  0  0  0  0
  145.8263  137.8126  162.1492 H   0  0  0  0  0  0  0  0  0  0  0  0
  144.1628  134.6105  163.1727 H   0  0  0  0  0  0  0  0  0  0  0  0
  143.3689  135.9861  162.4555 H   0  0  0  0  0  0  0  0  0  0  0  0
  144.6320  136.2224  163.6486 H   0  0  0  0  0  0  0  0  0  0  0  0
  144.1727  134.9893  159.9291 H   0  0  0  0  0  0  0  0  0  0  0  0
  144.2694  133.0730  161.5108 H   0  0  0  0  0  0  0  0  0  0  0  0
  145.4507  132.6268  160.2941 H   0  0  0  0  0  0  0  0  0  0  0  0
  145.9580  133.3181  163.0995 H   0  0  0  0  0  0  0  0  0  0  0  0
  147.1527  132.8386  161.9208 H   0  0  0  0  0  0  0  0  0  0  0  0
  148.4796  135.0062  163.2638 H   0  0  0  0  0  0  0  0  0  0  0  0
  146.9722  135.4050  164.0769 H   0  0  0  0  0  0  0  0  0  0  0  0
  147.7631  136.6016  163.0638 H   0  0  0  0  0  0  0  0  0  0  0  0
  148.1584  134.2002  160.4605 H   0  0  0  0  0  0  0  0  0  0  0  0
  148.0606  137.0512  161.0142 H   0  0  0  0  0  0  0  0  0  0  0  0
  149.3786  138.5971  159.7649 H   0  0  0  0  0  0  0  0  0  0  0  0
  150.6516  137.8232  160.6449 H   0  0  0  0  0  0  0  0  0  0  0  0
  149.5322  139.2796  157.7217 H   0  0  0  0  0  0  0  0  0  0  0  0
  153.1736  138.7850  155.4493 H   0  0  0  0  0  0  0  0  0  0  0  0
  154.0203  137.3476  157.1737 H   0  0  0  0  0  0  0  0  0  0  0  0
  146.4902  134.1547  158.8539 H   0  0  0  0  0  0  0  0  0  0  0  0
  146.2765  135.8874  158.9397 H   0  0  0  0  0  0  0  0  0  0  0  0
  1  2  1  0  0  0  0
  1 25  1  0  0  0  0
  1 26  1  0  0  0  0
  1 27  1  0  0  0  0
  2  7  1  0  0  0  0
  2  3  1  0  0  0  0
  2  4  1  0  0  0  0
  3 28  1  0  0  0  0
  3 29  1  0  0  0  0
  3 30  1  0  0  0  0
  4 24  1  0  0  0  0
  4  5  1  0  0  0  0
  4 31  1  0  0  0  0
  5  6  1  0  0  0  0
  5 32  1  0  0  0  0
  5 33  1  0  0  0  0
  6  7  1  0  0  0  0
  6 34  1  0  0  0  0
  6 35  1  0  0  0  0
  7  8  1  0  0  0  0
  7  9  1  0  0  0  0
  8 36  1  0  0  0  0
  8 37  1  0  0  0  0
  8 38  1  0  0  0  0
  9 10  1  0  0  0  0
  9 24  1  0  0  0  0
  9 39  1  0  0  0  0
 10 11  1  0  0  0  0
 10 40  1  0  0  0  0
 11 12  2  0  0  0  0
 11 13  1  0  0  0  0
 13 14  1  0  0  0  0
 13 41  1  0  0  0  0
 13 42  1  0  0  0  0
 14 22  1  0  0  0  0
 14 15  1  0  0  0  0
 15 16  2  0  0  0  0
 15 43  1  0  0  0  0
 16 17  1  0  0  0  0
 16 20  1  0  0  0  0
 17 18  2  0  0  0  0
 17 19  1  0  0  0  0
 20 21  2  0  0  0  0
 20 44  1  0  0  0  0
 21 22  1  0  0  0  0
 21 45  1  0  0  0  0
 22 23  2  0  0  0  0
 24 46  1  0  0  0  0
 24 47  1  0  0  0  0
M  CHG  1  17   1
M  CHG  1  19  -1
M  END
> <s_m_source_file>
AV-unprocessed.smi

> <i_m_source_file_index>
911

> <i_lp_mmshare_version>
43012

> <i_f3d_flags>
0

> <s_epik_input>
W0NIM11bQ0BdMTJDKFtDSDNdKShbQ0gzXSlbQ0BIXShbQ0gyXVtDSDJdMSlbQ0gyXVtDQEBIXTJbTkhdQyg9TylbQ0gyXW4zW2NIXWMoW04rXSg9TylbTy1dKVtjSF1bY0hdYzM9Tw==

> <s_epik_cmdline>
J2VwaWtfcHl0aG9uJywgJy1waCcsICc3LjAnLCAnLXRuJywgJzgnLCAnLW1hJywgJzIwMCcsICctbWV0YWxfYmluZGluZycsICctaW1hZScsICc8aW5maWxlLm1hZT4nLCAnLW9tYWUnLCAnPG91dGZpbGUubWFlPic=

> <r_lp_tautomer_probability>
1

> <r_epik_Ionization_Penalty>
2.04092e-08

> <r_epik_Ionization_Penalty_Charging>
8.54191e-11

> <r_epik_Ionization_Penalty_Neutral>
2.03238e-08

> <r_epik_State_Penalty>
-0

> <r_epik_Charging_Adjusted_Penalty>
8.54191e-11

> <i_epik_Tot_Q>
0

> <i_epik_Tot_abs_Q>
2

> <r_epik_Metal_State_Penalty>
-0

> <b_epik_Metal_Only>
0

> <s_lp_Force_Field>
OPLS_2005

> <r_lp_Energy>
66.6033

> <b_lp_Chiralities_Consistent>
1

> <s_lp_Variant>
AV-unprocessed.smi:911-3

> <Gold.Version>
5.8.1

> <Gold.Id.Protein>
6NUR|6NUR_protein|mol2

> <Gold.PLP.Fitness>
35.2231

> <Gold.PLP.PLP>
-30.0649

> <Gold.PLP.part.hbond>
-2.9702

> <Gold.PLP.part.metal>
0.0000

> <Gold.PLP.part.buried>
-3.4595

> <Gold.PLP.part.nonpolar>
-24.6510

> <Gold.PLP.part.repulsive>
0.9363

> <Gold.PLP.ligand.clash>
0.0000

> <Gold.PLP.ligand.torsion>
1.5046

> <Gold.PLP.Chemscore.Hbond>
2.7120

> <Gold.PLP.Chemscore.CHOScore>
0.0000

> <Gold.PLP.Chemscore.Metal>
0.0000

> <Gold.Chemscore.Hbonds>
donor molecule, donor type, donor heavy atom, donor atom, acceptor molecule, acceptor atom, score
      P1  H  6896  6907       L1    23  1.00
      P1  H  6896  6909       L1    12  0.83
      P1  H  7989  7998       L1    19  1.00

> <Gold.PLP.Chemscore.Internal.Correction>
0.0314

> <Gold.Rescore>
     Score         DG    S(hbond)    S(metal)    S(lipo)     H(rot)  DE(clash)    DE(int)     intcor
     17.19     -20.26       2.81        0.00      79.66       1.53       1.52       1.55       ----

> <Gold.Chemscore.Fitness>
17.1863

> <Gold.Chemscore.DG>
-20.2608

> <Gold.Chemscore.ZeroCoef>
-5.4800

> <Gold.Chemscore.Hbond>
2.8058

> <Gold.Chemscore.Metal>
0.0000

> <Gold.Chemscore.Lipo>
79.6625

> <Gold.Chemscore.Internal_Hbond>
0.0000

> <Gold.Chemscore.DEClash>
1.5241

> <Gold.Chemscore.DEInternal>
1.5504

> <Gold.Chemscore.Rot>
1.5277

> <Gold.Chemscore.Internal.Correction>
   9.000000E+99

> <Gold.Chemscore.Hbonds>
donor molecule, donor type, donor heavy atom, donor atom, acceptor molecule, acceptor atom, score
      P1  H  6896  6907       L1    23  0.95
      P1  H  6896  6909       L1    12  0.78
      P1  H  7989  7998       L1    19  0.64

> <Gold.Chemscore.Hbond.Weighted>
-9.3713

> <Gold.Chemscore.Metal.Weighted>
-0.0000

> <Gold.Chemscore.Lipo.Weighted>
-9.3205

> <Gold.Chemscore.Internal_Hbond.Weighted>
0.0000

> <Gold.Chemscore.DEClash.Weighted>
1.5241

> <Gold.Chemscore.DEInternal.Weighted>
1.5504

> <Gold.Chemscore.Rot.Weighted>
3.9110

> <Gold.Chemscore.Internal.Correction.Weighted>
   9.000000E+99

> <Gold.Protein.RotatedTorsions>
[ 6907 6896 6895 6894 ] final   32.64 input  -60.11 | X-H torsion
[ 7974 7965 7964 7962 ] final  -96.94 input  175.53 | X-H torsion
[ 8008 7997 7996 7995 ] final -151.87 input   59.86 | X-H torsion
[ 10167 10162 10161 10158 ] final  -20.66 input  -65.29 | X-H torsion
[ 10718 10713 10712 10709 ] final -124.51 input   66.30 | X-H torsion
[ 10763 10752 10751 10750 ] final   27.19 input  -60.55 | X-H torsion
[ 11005 11000 10999 10996 ] final  114.55 input  -57.11 | X-H torsion

> <Gold.Protein.ActiveResidues>
 VAL166  LYS551  ARG553  GLY616  TRP617  ASP618  TYR619  PRO620  LYS621  CYS622 
 ASP623  PHE694  ASN695  SER759  ASP760  ASP761  ALA762  ILE779  LEU786  VAL792 
 PHE793  MET794  SER795  GLU796  ALA797  LYS798  CYS799  TRP800  GLU811  SER814 

> <Gold.Protein.RotatedAtoms>
  152.0773  134.9494  160.0573 H   0  0  0  0  0  0  0  0  0  0  0  0  # atno 6907 bound_to 6896
  152.0797  133.4142  159.4504 H   0  0  0  0  0  0  0  0  0  0  0  0  # atno 6908 bound_to 6896
  150.6836  134.2916  159.4712 H   0  0  0  0  0  0  0  0  0  0  0  0  # atno 6909 bound_to 6896
  145.3402  140.9458  143.2612 H   0  0  0  0  0  0  0  0  0  0  0  0  # atno 7974 bound_to 7965
  155.6462  140.0707  157.2602 H   0  0  0  0  0  0  0  0  0  0  0  0  # atno 8008 bound_to 7997
  154.4172  140.1741  156.1676 H   0  0  0  0  0  0  0  0  0  0  0  0  # atno 8009 bound_to 7997
  155.9814  140.3353  155.6670 H   0  0  0  0  0  0  0  0  0  0  0  0  # atno 8010 bound_to 7997
  140.7277  143.4702  151.0258 H   0  0  0  0  0  0  0  0  0  0  0  0  # atno 10167 bound_to 10162
  156.1594  130.6591  151.0028 H   0  0  0  0  0  0  0  0  0  0  0  0  # atno 10718 bound_to 10713
  153.0572  135.6543  154.0549 H   0  0  0  0  0  0  0  0  0  0  0  0  # atno 10763 bound_to 10752
  154.0224  135.2918  155.3380 H   0  0  0  0  0  0  0  0  0  0  0  0  # atno 10764 bound_to 10752
  154.6893  135.5289  153.8437 H   0  0  0  0  0  0  0  0  0  0  0  0  # atno 10765 bound_to 10752
  139.8984  134.9569  156.6909 H   0  0  0  0  0  0  0  0  0  0  0  0  # atno 11005 bound_to 11000
  144.8796  139.4922  143.6729 LP  0  0  0  0  0  0  0  0  0  0  0  0  # atno 17320 bound_to 7965
  146.3010  139.7428  142.9091 LP  0  0  0  0  0  0  0  0  0  0  0  0  # atno 17321 bound_to 7965
  139.8393  143.7585  152.3180 LP  0  0  0  0  0  0  0  0  0  0  0  0  # atno 17342 bound_to 10162
  139.7728  144.7471  151.0199 LP  0  0  0  0  0  0  0  0  0  0  0  0  # atno 17343 bound_to 10162
  157.6720  131.0859  150.7588 LP  0  0  0  0  0  0  0  0  0  0  0  0  # atno 17370 bound_to 10713
  156.7651  130.4811  149.5429 LP  0  0  0  0  0  0  0  0  0  0  0  0  # atno 17371 bound_to 10713
  140.7226  133.9128  155.8157 LP  0  0  0  0  0  0  0  0  0  0  0  0  # atno 17394 bound_to 11000
  141.0216  134.0881  157.4114 LP  0  0  0  0  0  0  0  0  0  0  0  0  # atno 17395 bound_to 11000

$$$$
