AV-unprocessed.smi:2135|AV-procd|sdf|8701|dock5
  -GOLD-   2272011463D 1   1.00000     0.00000
 Structure written by MMmdl.
 43 44  0  0  0  0  0  0  0  0  2 V2000
  150.9374  140.3097  157.5551 C   0  0  0  0  0  0  0  0  0  0  0  0
  150.5053  139.5037  155.9591 S   0  0  0  0  0  0  0  0  0  0  0  0
  151.3381  140.1012  154.9040 O   0  0  0  0  0  0  0  0  0  0  0  0
  150.5211  138.0471  156.1633 O   0  0  0  0  0  0  0  0  0  0  0  0
  148.8567  139.9813  155.6715 N   0  0  0  0  0  0  0  0  0  0  0  0
  148.5639  141.2876  155.0473 C   0  0  0  0  0  0  0  0  0  0  0  0
  148.2100  141.1385  153.5571 C   0  0  0  0  0  0  0  0  0  0  0  0
  147.0768  140.1261  153.3538 C   0  0  0  0  0  0  0  0  0  0  0  0
  147.4700  138.7740  153.9755 C   0  0  2  0  0  0  0  0  0  0  0  0
  146.3542  137.7354  153.8007 C   0  0  0  0  0  0  0  0  0  0  0  0
  145.2110  137.9785  154.1892 O   0  0  0  0  0  0  0  0  0  0  0  0
  146.6995  136.5765  153.2183 N   0  0  0  0  0  0  0  0  0  0  0  0
  145.7927  135.4613  152.9753 C   0  0  0  0  0  0  0  0  0  0  0  0
  146.5054  134.2959  152.2694 C   0  0  0  0  0  0  0  0  0  0  0  0
  145.6256  133.6396  151.2240 C   0  0  0  0  0  0  0  0  0  0  0  0
  146.1483  132.6564  150.3552 C   0  0  0  0  0  0  0  0  0  0  0  0
  145.3047  132.0682  149.3897 C   0  0  0  0  0  0  0  0  0  0  0  0
  143.9576  132.4776  149.3143 C   0  0  0  0  0  0  0  0  0  0  0  0
  143.4931  133.4214  150.1624 N   0  3  0  0  0  0  0  0  0  0  0  0
  144.2683  134.0079  151.1009 C   0  0  0  0  0  0  0  0  0  0  0  0
  147.8135  138.9548  155.4706 C   0  0  0  0  0  0  0  0  0  0  0  0
  151.9598  140.0430  157.8218 H   0  0  0  0  0  0  0  0  0  0  0  0
  150.2664  139.9629  158.3390 H   0  0  0  0  0  0  0  0  0  0  0  0
  150.8703  141.3914  157.4558 H   0  0  0  0  0  0  0  0  0  0  0  0
  147.7248  141.7403  155.5768 H   0  0  0  0  0  0  0  0  0  0  0  0
  149.4074  141.9661  155.1712 H   0  0  0  0  0  0  0  0  0  0  0  0
  147.9168  142.1072  153.1514 H   0  0  0  0  0  0  0  0  0  0  0  0
  149.0865  140.8258  152.9910 H   0  0  0  0  0  0  0  0  0  0  0  0
  146.1627  140.5079  153.8116 H   0  0  0  0  0  0  0  0  0  0  0  0
  146.8707  140.0115  152.2889 H   0  0  0  0  0  0  0  0  0  0  0  0
  148.3540  138.4083  153.4534 H   0  0  0  0  0  0  0  0  0  0  0  0
  147.6593  136.4584  152.9273 H   0  0  0  0  0  0  0  0  0  0  0  0
  145.3531  135.1284  153.9171 H   0  0  0  0  0  0  0  0  0  0  0  0
  144.9689  135.8219  152.3586 H   0  0  0  0  0  0  0  0  0  0  0  0
  147.4240  134.6486  151.7980 H   0  0  0  0  0  0  0  0  0  0  0  0
  146.8051  133.5384  152.9949 H   0  0  0  0  0  0  0  0  0  0  0  0
  147.1836  132.3555  150.4256 H   0  0  0  0  0  0  0  0  0  0  0  0
  145.6858  131.3143  148.7163 H   0  0  0  0  0  0  0  0  0  0  0  0
  143.2431  132.0819  148.6069 H   0  0  0  0  0  0  0  0  0  0  0  0
  143.7835  134.7499  151.7189 H   0  0  0  0  0  0  0  0  0  0  0  0
  148.1312  138.0081  155.9076 H   0  0  0  0  0  0  0  0  0  0  0  0
  146.9257  139.2627  156.0249 H   0  0  0  0  0  0  0  0  0  0  0  0
  142.5151  133.7037  150.0912 H   0  0  0  0  0  0  0  0  0  0  0  0
  1  2  1  0  0  0  0
  1 22  1  0  0  0  0
  1 23  1  0  0  0  0
  1 24  1  0  0  0  0
  2  3  2  0  0  0  0
  2  4  2  0  0  0  0
  2  5  1  0  0  0  0
  5 21  1  0  0  0  0
  5  6  1  0  0  0  0
  6  7  1  0  0  0  0
  6 25  1  0  0  0  0
  6 26  1  0  0  0  0
  7  8  1  0  0  0  0
  7 27  1  0  0  0  0
  7 28  1  0  0  0  0
  8  9  1  0  0  0  0
  8 29  1  0  0  0  0
  8 30  1  0  0  0  0
  9 10  1  0  0  0  0
  9 21  1  0  0  0  0
  9 31  1  0  0  0  0
 10 11  2  0  0  0  0
 10 12  1  0  0  0  0
 12 13  1  0  0  0  0
 12 32  1  0  0  0  0
 13 14  1  0  0  0  0
 13 33  1  0  0  0  0
 13 34  1  0  0  0  0
 14 15  1  0  0  0  0
 14 35  1  0  0  0  0
 14 36  1  0  0  0  0
 15 20  1  0  0  0  0
 15 16  2  0  0  0  0
 16 17  1  0  0  0  0
 16 37  1  0  0  0  0
 17 18  2  0  0  0  0
 17 38  1  0  0  0  0
 18 19  1  0  0  0  0
 18 39  1  0  0  0  0
 19 20  2  0  0  0  0
 19 43  1  0  0  0  0
 20 40  1  0  0  0  0
 21 41  1  0  0  0  0
 21 42  1  0  0  0  0
M  CHG  1  19   1
M  END
> <s_m_source_file>
AV-unprocessed.smi

> <i_m_source_file_index>
2135

> <i_lp_mmshare_version>
43012

> <i_f3d_flags>
0

> <s_epik_input>
W0NIM11TKD1PKSg9TylOMVtDSDJdW0NIMl1bQ0gyXVtDQEhdKFtDSDJdMSlDKD1PKVtOSF1bQ0gyXVtDSDJdYzJbY0hdW2NIXVtjSF1uW2NIXTI=

> <s_epik_cmdline>
J2VwaWtfcHl0aG9uJywgJy1waCcsICc3LjAnLCAnLXRuJywgJzgnLCAnLW1hJywgJzIwMCcsICctbWV0YWxfYmluZGluZycsICctaW1hZScsICc8aW5maWxlLm1hZT4nLCAnLW9tYWUnLCAnPG91dGZpbGUubWFlPic=

> <r_epik_Ionization_Penalty>
2.24912

> <r_epik_Ionization_Penalty_Charging>
2.24912

> <r_epik_Ionization_Penalty_Neutral>
2.62834e-08

> <r_epik_State_Penalty>
2.39611

> <r_epik_Charging_Adjusted_Penalty>
4.64523

> <i_epik_Tot_Q>
1

> <i_epik_Tot_abs_Q>
1

> <r_epik_Metal_State_Penalty>
2.40934

> <b_epik_Metal_Only>
0

> <s_lp_Force_Field>
OPLS_2005

> <r_lp_Energy>
6.9467

> <b_lp_Chiralities_Consistent>
1

> <s_lp_Variant>
AV-unprocessed.smi:2135-4

> <Gold.Version>
5.8.1

> <Gold.Id.Protein>
6NUR|6NUR_protein|mol2

> <Gold.PLP.Fitness>
43.5513

> <Gold.PLP.PLP>
-32.4343

> <Gold.PLP.part.hbond>
-3.0000

> <Gold.PLP.part.metal>
0.0000

> <Gold.PLP.part.buried>
-3.0044

> <Gold.PLP.part.nonpolar>
-26.4876

> <Gold.PLP.part.repulsive>
0.2276

> <Gold.PLP.ligand.clash>
0.0000

> <Gold.PLP.ligand.torsion>
1.4774

> <Gold.PLP.Chemscore.Hbond>
4.0000

> <Gold.PLP.Chemscore.CHOScore>
0.0000

> <Gold.PLP.Chemscore.Metal>
0.0000

> <Gold.Chemscore.Hbonds>
donor molecule, donor type, donor heavy atom, donor atom, acceptor molecule, acceptor atom, score
      L1  H    12    32       P1  7948  1.00
      L1  H    19    43       P1 10186  2.00
      P1  H  7989  7998       L1     3  1.00

> <Gold.PLP.Chemscore.Internal.Correction>
2.0719

> <Gold.Rescore>
     Score         DG    S(hbond)    S(metal)    S(lipo)     H(rot)  DE(clash)    DE(int)     intcor
     19.38     -20.86       2.98        0.00      82.69       1.65       0.00       1.48       ----

> <Gold.Chemscore.Fitness>
19.3812

> <Gold.Chemscore.DG>
-20.8615

> <Gold.Chemscore.ZeroCoef>
-5.4800

> <Gold.Chemscore.Hbond>
2.9761

> <Gold.Chemscore.Metal>
0.0000

> <Gold.Chemscore.Lipo>
82.6919

> <Gold.Chemscore.Internal_Hbond>
0.0000

> <Gold.Chemscore.DEClash>
0.0048

> <Gold.Chemscore.DEInternal>
1.4755

> <Gold.Chemscore.Rot>
1.6538

> <Gold.Chemscore.Internal.Correction>
   9.000000E+99

> <Gold.Chemscore.Hbonds>
donor molecule, donor type, donor heavy atom, donor atom, acceptor molecule, acceptor atom, score
      L1  H    12    32       P1  7948  0.99
      L1  H    19    43       P1 10186  1.00
      P1  H  7989  7998       L1     3  0.99

> <Gold.Chemscore.Hbond.Weighted>
-9.9402

> <Gold.Chemscore.Metal.Weighted>
-0.0000

> <Gold.Chemscore.Lipo.Weighted>
-9.6750

> <Gold.Chemscore.Internal_Hbond.Weighted>
0.0000

> <Gold.Chemscore.DEClash.Weighted>
0.0048

> <Gold.Chemscore.DEInternal.Weighted>
1.4755

> <Gold.Chemscore.Rot.Weighted>
4.2337

> <Gold.Chemscore.Internal.Correction.Weighted>
   9.000000E+99

> <Gold.Protein.RotatedTorsions>
[ 6907 6896 6895 6894 ] final   -9.16 input  -60.11 | X-H torsion
[ 7974 7965 7964 7962 ] final -145.88 input  175.53 | X-H torsion
[ 8008 7997 7996 7995 ] final  -30.00 input   59.86 | X-H torsion
[ 10167 10162 10161 10158 ] final -122.11 input  -65.29 | X-H torsion
[ 10718 10713 10712 10709 ] final  -16.21 input   66.30 | X-H torsion
[ 10763 10752 10751 10750 ] final  126.84 input  -60.55 | X-H torsion
[ 11005 11000 10999 10996 ] final -100.04 input  -57.11 | X-H torsion

> <Gold.Protein.ActiveResidues>
 VAL166  LYS551  ARG553  GLY616  TRP617  ASP618  TYR619  PRO620  LYS621  CYS622 
 ASP623  PHE694  ASN695  SER759  ASP760  ASP761  ALA762  ILE779  LEU786  VAL792 
 PHE793  MET794  SER795  GLU796  ALA797  LYS798  CYS799  TRP800  GLU811  SER814 

> <Gold.Protein.RotatedAtoms>
  151.4222  135.0999  159.9616 H   0  0  0  0  0  0  0  0  0  0  0  0  # atno 6907 bound_to 6896
  152.4985  133.8697  159.7302 H   0  0  0  0  0  0  0  0  0  0  0  0  # atno 6908 bound_to 6896
  150.9215  133.6817  159.2859 H   0  0  0  0  0  0  0  0  0  0  0  0  # atno 6909 bound_to 6896
  144.8197  140.5527  143.5587 H   0  0  0  0  0  0  0  0  0  0  0  0  # atno 7974 bound_to 7965
  154.4267  140.1803  156.1337 H   0  0  0  0  0  0  0  0  0  0  0  0  # atno 8008 bound_to 7997
  156.0047  140.3356  155.6855 H   0  0  0  0  0  0  0  0  0  0  0  0  # atno 8009 bound_to 7997
  155.6194  140.0658  157.2673 H   0  0  0  0  0  0  0  0  0  0  0  0  # atno 8010 bound_to 7997
  140.0178  143.5375  152.2234 H   0  0  0  0  0  0  0  0  0  0  0  0  # atno 10167 bound_to 10162
  156.5908  130.4798  149.6280 H   0  0  0  0  0  0  0  0  0  0  0  0  # atno 10718 bound_to 10713
  153.6998  135.3285  155.3222 H   0  0  0  0  0  0  0  0  0  0  0  0  # atno 10763 bound_to 10752
  154.8416  135.4451  154.1423 H   0  0  0  0  0  0  0  0  0  0  0  0  # atno 10764 bound_to 10752
  153.2487  135.6979  153.7781 H   0  0  0  0  0  0  0  0  0  0  0  0  # atno 10765 bound_to 10752
  141.1286  133.8368  157.1051 H   0  0  0  0  0  0  0  0  0  0  0  0  # atno 11005 bound_to 11000
  145.5133  139.1478  143.3592 LP  0  0  0  0  0  0  0  0  0  0  0  0  # atno 17320 bound_to 7965
  146.2502  140.5274  142.8897 LP  0  0  0  0  0  0  0  0  0  0  0  0  # atno 17321 bound_to 7965
  139.6161  144.7619  151.2844 LP  0  0  0  0  0  0  0  0  0  0  0  0  # atno 17342 bound_to 10162
  140.7355  143.6735  150.8061 LP  0  0  0  0  0  0  0  0  0  0  0  0  # atno 17343 bound_to 10162
  156.2551  130.6930  151.1680 LP  0  0  0  0  0  0  0  0  0  0  0  0  # atno 17370 bound_to 10713
  157.7304  131.0616  150.5728 LP  0  0  0  0  0  0  0  0  0  0  0  0  # atno 17371 bound_to 10713
  140.0310  134.9901  157.0779 LP  0  0  0  0  0  0  0  0  0  0  0  0  # atno 17394 bound_to 11000
  140.4286  134.1804  155.7167 LP  0  0  0  0  0  0  0  0  0  0  0  0  # atno 17395 bound_to 11000

$$$$
