AV-unprocessed.smi:2051|AV-procd|sdf|8326|dock3
  -GOLD-   2272010593D 1   1.00000     0.00000
 Structure written by MMmdl.
 33 34  0  0  0  0  0  0  0  0  1 V2000
  151.7637  141.1666  157.2054 O   0  0  0  0  0  0  0  0  0  0  0  0
  151.0475  142.1462  156.9949 C   0  0  0  0  0  0  0  0  0  0  0  0
  151.5071  143.5522  157.4046 C   0  0  0  0  0  0  0  0  0  0  0  0
  151.8309  143.6554  158.8373 N   0  0  0  0  0  0  0  0  0  0  0  0
  152.5890  142.6109  159.4027 C   0  0  0  0  0  0  0  0  0  0  0  0
  152.9360  142.6070  160.6994 C   0  0  0  0  0  0  0  0  0  0  0  0
  152.5110  143.7137  161.5232 C   0  0  0  0  0  0  0  0  0  0  0  0
  151.7828  144.7165  160.9935 C   0  0  0  0  0  0  0  0  0  0  0  0
  151.3996  144.7240  159.5769 C   0  0  0  0  0  0  0  0  0  0  0  0
  150.7318  145.6347  159.0852 O   0  0  0  0  0  0  0  0  0  0  0  0
  149.8480  142.0681  156.3992 N   0  0  0  0  0  0  0  0  0  0  0  0
  149.1970  140.8362  155.9656 C   0  0  0  0  0  0  0  0  0  0  0  0
  147.8206  141.1129  155.3362 C   0  0  2  0  0  0  0  0  0  0  0  0
  147.8374  142.0162  154.1021 C   0  0  0  0  0  0  0  0  0  0  0  0
  146.4290  142.5636  154.1096 C   0  0  0  0  0  0  0  0  0  0  0  0
  146.1802  142.7605  155.6023 C   0  0  0  0  0  0  0  0  0  0  0  0
  146.9777  141.7841  156.2689 O   0  0  0  0  0  0  0  0  0  0  0  0
  152.3697  143.8182  156.7925 H   0  0  0  0  0  0  0  0  0  0  0  0
  150.7367  144.2817  157.1468 H   0  0  0  0  0  0  0  0  0  0  0  0
  152.8611  141.8175  158.7219 H   0  0  0  0  0  0  0  0  0  0  0  0
  153.5143  141.7958  161.1164 H   0  0  0  0  0  0  0  0  0  0  0  0
  152.7771  143.7369  162.5698 H   0  0  0  0  0  0  0  0  0  0  0  0
  151.4727  145.5359  161.6253 H   0  0  0  0  0  0  0  0  0  0  0  0
  149.3332  142.9254  156.2592 H   0  0  0  0  0  0  0  0  0  0  0  0
  149.8439  140.3618  155.2274 H   0  0  0  0  0  0  0  0  0  0  0  0
  149.1056  140.1269  156.7898 H   0  0  0  0  0  0  0  0  0  0  0  0
  147.3340  140.1701  155.0807 H   0  0  0  0  0  0  0  0  0  0  0  0
  148.5530  142.8297  154.2293 H   0  0  0  0  0  0  0  0  0  0  0  0
  148.0848  141.4819  153.1841 H   0  0  0  0  0  0  0  0  0  0  0  0
  146.3211  143.4827  153.5334 H   0  0  0  0  0  0  0  0  0  0  0  0
  145.7379  141.8223  153.7062 H   0  0  0  0  0  0  0  0  0  0  0  0
  146.5135  143.7501  155.9169 H   0  0  0  0  0  0  0  0  0  0  0  0
  145.1264  142.6596  155.8630 H   0  0  0  0  0  0  0  0  0  0  0  0
  1  2  2  0  0  0  0
  2  3  1  0  0  0  0
  2 11  1  0  0  0  0
  3  4  1  0  0  0  0
  3 18  1  0  0  0  0
  3 19  1  0  0  0  0
  4  9  1  0  0  0  0
  4  5  1  0  0  0  0
  5  6  2  0  0  0  0
  5 20  1  0  0  0  0
  6  7  1  0  0  0  0
  6 21  1  0  0  0  0
  7  8  2  0  0  0  0
  7 22  1  0  0  0  0
  8  9  1  0  0  0  0
  8 23  1  0  0  0  0
  9 10  2  0  0  0  0
 11 12  1  0  0  0  0
 11 24  1  0  0  0  0
 12 13  1  0  0  0  0
 12 25  1  0  0  0  0
 12 26  1  0  0  0  0
 13 17  1  0  0  0  0
 13 14  1  0  0  0  0
 13 27  1  0  0  0  0
 14 15  1  0  0  0  0
 14 28  1  0  0  0  0
 14 29  1  0  0  0  0
 15 16  1  0  0  0  0
 15 30  1  0  0  0  0
 15 31  1  0  0  0  0
 16 17  1  0  0  0  0
 16 32  1  0  0  0  0
 16 33  1  0  0  0  0
M  END
> <s_m_source_file>
AV-unprocessed.smi

> <i_m_source_file_index>
2051

> <i_lp_mmshare_version>
43012

> <i_f3d_flags>
0

> <s_epik_input>
TzFbQ0gyXVtDSDJdW0NIMl1bQ0BIXTFbQ0gyXVtOSF1DKD1PKVtDSDJdbjJbY0hdW2NIXVtjSF1bY0hdYzI9Tw==

> <s_epik_cmdline>
J2VwaWtfcHl0aG9uJywgJy1waCcsICc3LjAnLCAnLXRuJywgJzgnLCAnLW1hJywgJzIwMCcsICctbWV0YWxfYmluZGluZycsICctaW1hZScsICc8aW5maWxlLm1hZT4nLCAnLW9tYWUnLCAnPG91dGZpbGUubWFlPic=

> <r_lp_tautomer_probability>
1

> <r_epik_Ionization_Penalty>
3.94187e-07

> <r_epik_Ionization_Penalty_Charging>
3.67328e-07

> <r_epik_Ionization_Penalty_Neutral>
2.6859e-08

> <r_epik_State_Penalty>
-0

> <r_epik_Charging_Adjusted_Penalty>
3.67328e-07

> <i_epik_Tot_Q>
0

> <i_epik_Tot_abs_Q>
0

> <r_epik_Metal_State_Penalty>
-0

> <b_epik_Metal_Only>
0

> <s_lp_Force_Field>
OPLS_2005

> <r_lp_Energy>
26.4026

> <b_lp_Chiralities_Consistent>
1

> <s_lp_Variant>
AV-unprocessed.smi:2051-1

> <Gold.Version>
5.8.1

> <Gold.Id.Protein>
6NUR|6NUR_protein|mol2

> <Gold.PLP.Fitness>
43.0457

> <Gold.PLP.PLP>
-40.4807

> <Gold.PLP.part.hbond>
-2.2951

> <Gold.PLP.part.metal>
0.0000

> <Gold.PLP.part.buried>
-3.6090

> <Gold.PLP.part.nonpolar>
-33.9888

> <Gold.PLP.part.repulsive>
0.3655

> <Gold.PLP.ligand.clash>
0.0000

> <Gold.PLP.ligand.torsion>
0.2186

> <Gold.PLP.Chemscore.Hbond>
1.0000

> <Gold.PLP.Chemscore.CHOScore>
0.0000

> <Gold.PLP.Chemscore.Metal>
0.0000

> <Gold.Chemscore.Hbonds>
donor molecule, donor type, donor heavy atom, donor atom, acceptor molecule, acceptor atom, score
      L1  H    11    24       P1  8028  1.00

> <Gold.PLP.Chemscore.Internal.Correction>
0.0022

> <Gold.Rescore>
     Score         DG    S(hbond)    S(metal)    S(lipo)     H(rot)  DE(clash)    DE(int)     intcor
     13.10     -14.62       1.00        0.00      86.60       1.69       0.25       1.27       ----

> <Gold.Chemscore.Fitness>
13.1020

> <Gold.Chemscore.DG>
-14.6165

> <Gold.Chemscore.ZeroCoef>
-5.4800

> <Gold.Chemscore.Hbond>
0.9998

> <Gold.Chemscore.Metal>
0.0000

> <Gold.Chemscore.Lipo>
86.6042

> <Gold.Chemscore.Internal_Hbond>
0.0000

> <Gold.Chemscore.DEClash>
0.2490

> <Gold.Chemscore.DEInternal>
1.2655

> <Gold.Chemscore.Rot>
1.6936

> <Gold.Chemscore.Internal.Correction>
   9.000000E+99

> <Gold.Chemscore.Hbonds>
donor molecule, donor type, donor heavy atom, donor atom, acceptor molecule, acceptor atom, score
      L1  H    11    24       P1  8028  0.99

> <Gold.Chemscore.Hbond.Weighted>
-3.3395

> <Gold.Chemscore.Metal.Weighted>
-0.0000

> <Gold.Chemscore.Lipo.Weighted>
-10.1327

> <Gold.Chemscore.Internal_Hbond.Weighted>
0.0000

> <Gold.Chemscore.DEClash.Weighted>
0.2490

> <Gold.Chemscore.DEInternal.Weighted>
1.2655

> <Gold.Chemscore.Rot.Weighted>
4.3357

> <Gold.Chemscore.Internal.Correction.Weighted>
   9.000000E+99

> <Gold.Protein.RotatedTorsions>
[ 6907 6896 6895 6894 ] final -147.25 input  -60.11 | X-H torsion
[ 7974 7965 7964 7962 ] final -148.68 input  175.53 | X-H torsion
[ 8008 7997 7996 7995 ] final   33.80 input   59.86 | X-H torsion
[ 10167 10162 10161 10158 ] final -148.85 input  -65.29 | X-H torsion
[ 10718 10713 10712 10709 ] final   35.52 input   66.30 | X-H torsion
[ 10763 10752 10751 10750 ] final   78.32 input  -60.55 | X-H torsion
[ 11005 11000 10999 10996 ] final  -93.19 input  -57.11 | X-H torsion

> <Gold.Protein.ActiveResidues>
 VAL166  LYS551  ARG553  GLY616  TRP617  ASP618  TYR619  PRO620  LYS621  CYS622 
 ASP623  PHE694  ASN695  SER759  ASP760  ASP761  ALA762  ILE779  LEU786  VAL792 
 PHE793  MET794  SER795  GLU796  ALA797  LYS798  CYS799  TRP800  GLU811  SER814 

> <Gold.Protein.RotatedAtoms>
  151.1530  133.4895  159.2594 H   0  0  0  0  0  0  0  0  0  0  0  0  # atno 6907 bound_to 6896
  151.1534  135.0238  159.8688 H   0  0  0  0  0  0  0  0  0  0  0  0  # atno 6908 bound_to 6896
  152.5463  134.1412  159.8533 H   0  0  0  0  0  0  0  0  0  0  0  0  # atno 6909 bound_to 6896
  144.8014  140.5165  143.5704 H   0  0  0  0  0  0  0  0  0  0  0  0  # atno 7974 bound_to 7965
  155.1445  140.3269  155.4444 H   0  0  0  0  0  0  0  0  0  0  0  0  # atno 8008 bound_to 7997
  156.2594  140.1988  156.6509 H   0  0  0  0  0  0  0  0  0  0  0  0  # atno 8009 bound_to 7997
  154.6518  140.0557  156.9950 H   0  0  0  0  0  0  0  0  0  0  0  0  # atno 8010 bound_to 7997
  139.7495  143.8540  152.2583 H   0  0  0  0  0  0  0  0  0  0  0  0  # atno 10167 bound_to 10162
  157.3237  130.7461  149.6801 H   0  0  0  0  0  0  0  0  0  0  0  0  # atno 10718 bound_to 10713
  153.0865  135.4881  154.8607 H   0  0  0  0  0  0  0  0  0  0  0  0  # atno 10763 bound_to 10752
  154.7217  135.3041  154.9039 H   0  0  0  0  0  0  0  0  0  0  0  0  # atno 10764 bound_to 10752
  153.9701  135.6802  153.4800 H   0  0  0  0  0  0  0  0  0  0  0  0  # atno 10765 bound_to 10752
  141.1503  133.7871  157.0125 H   0  0  0  0  0  0  0  0  0  0  0  0  # atno 11005 bound_to 11000
  145.5543  139.1477  143.3376 LP  0  0  0  0  0  0  0  0  0  0  0  0  # atno 17320 bound_to 7965
  146.2296  140.5681  142.8981 LP  0  0  0  0  0  0  0  0  0  0  0  0  # atno 17321 bound_to 7965
  139.8514  144.7162  150.9210 LP  0  0  0  0  0  0  0  0  0  0  0  0  # atno 17342 bound_to 10162
  140.7796  143.3896  151.1333 LP  0  0  0  0  0  0  0  0  0  0  0  0  # atno 17343 bound_to 10162
  155.9688  130.4216  150.4475 LP  0  0  0  0  0  0  0  0  0  0  0  0  # atno 17370 bound_to 10713
  157.2495  131.0543  151.2388 LP  0  0  0  0  0  0  0  0  0  0  0  0  # atno 17371 bound_to 10713
  140.0868  134.9616  157.1713 LP  0  0  0  0  0  0  0  0  0  0  0  0  # atno 17394 bound_to 11000
  140.3500  134.2609  155.7200 LP  0  0  0  0  0  0  0  0  0  0  0  0  # atno 17395 bound_to 11000

$$$$
