AV-unprocessed.smi:190|AV-procd|sdf|1491|dock3
  -GOLD-   2262019313D 1   1.00000     0.00000
 Structure written by MMmdl.
 54 58  0  0  0  0  0  0  0  0  1 V2000
  150.6930  140.2398  154.6263 O   0  0  0  0  0  0  0  0  0  0  0  0
  151.4264  140.5419  155.7969 C   0  0  0  0  0  0  0  0  0  0  0  0
  150.8107  139.8901  157.0679 C   0  0  0  0  0  0  0  0  0  0  0  0
  150.6781  138.3601  156.7923 C   0  0  0  0  0  0  0  0  0  0  0  0
  150.0373  137.5815  157.8429 N   0  0  0  0  0  0  0  0  0  0  0  0
  150.4628  137.4400  159.1429 C   0  0  0  0  0  0  0  0  0  0  0  0
  149.7164  136.6750  159.8902 N   0  0  0  0  0  0  0  0  0  0  0  0
  148.7016  136.2389  159.0435 C   0  0  0  0  0  0  0  0  0  0  0  0
  147.5642  135.3859  159.1946 C   0  0  0  0  0  0  0  0  0  0  0  0
  147.2175  134.7713  160.3646 N   0  0  0  0  0  0  0  0  0  0  0  0
  147.6947  133.4199  160.6404 C   0  0  0  0  0  0  0  0  0  0  0  0
  147.4521  133.1679  162.1316 C   0  0  0  0  0  0  0  0  0  0  0  0
  146.4969  134.2868  162.5430 C   0  0  0  0  0  0  0  0  0  0  0  0
  146.8951  135.4549  161.6260 C   0  0  1  0  0  0  0  0  0  0  0  0
  148.0789  136.2329  162.2219 C   0  0  0  0  0  0  0  0  0  0  0  0
  147.4087  137.4546  162.8385 C   0  0  0  0  0  0  0  0  0  0  0  0
  146.3727  137.7448  161.9163 O   0  0  0  0  0  0  0  0  0  0  0  0
  145.7703  136.5128  161.5404 C   0  0  0  0  0  0  0  0  0  0  0  0
  146.8064  135.1833  158.0840 N   0  0  0  0  0  0  0  0  0  0  0  0
  147.1131  135.7648  156.9225 C   0  0  0  0  0  0  0  0  0  0  0  0
  148.1284  136.5811  156.6443 N   0  0  0  0  0  0  0  0  0  0  0  0
  148.9039  136.7923  157.7449 C   0  0  0  0  0  0  0  0  0  0  0  0
  151.6840  140.1622  158.3205 C   0  0  0  0  0  0  0  0  0  0  0  0
  151.6808  141.6454  158.7340 C   0  0  0  0  0  0  0  0  0  0  0  0
  150.3473  142.0781  158.9736 O   0  0  0  0  0  0  0  0  0  0  0  0
  149.5166  141.9882  157.8227 C   0  0  0  0  0  0  0  0  0  0  0  0
  149.4234  140.5238  157.3537 C   0  0  0  0  0  0  0  0  0  0  0  0
  149.8272  139.9564  154.8786 H   0  0  0  0  0  0  0  0  0  0  0  0
  152.4537  140.2252  155.6272 H   0  0  0  0  0  0  0  0  0  0  0  0
  151.4587  141.6264  155.9067 H   0  0  0  0  0  0  0  0  0  0  0  0
  150.1147  138.1981  155.8725 H   0  0  0  0  0  0  0  0  0  0  0  0
  151.6612  137.9214  156.6169 H   0  0  0  0  0  0  0  0  0  0  0  0
  151.3479  137.9288  159.5236 H   0  0  0  0  0  0  0  0  0  0  0  0
  147.1154  132.7100  160.0495 H   0  0  0  0  0  0  0  0  0  0  0  0
  148.7487  133.3028  160.3852 H   0  0  0  0  0  0  0  0  0  0  0  0
  147.0477  132.1752  162.3305 H   0  0  0  0  0  0  0  0  0  0  0  0
  148.3914  133.2601  162.6781 H   0  0  0  0  0  0  0  0  0  0  0  0
  145.4731  133.9736  162.3305 H   0  0  0  0  0  0  0  0  0  0  0  0
  146.5542  134.5267  163.6054 H   0  0  0  0  0  0  0  0  0  0  0  0
  148.6578  135.6679  162.9529 H   0  0  0  0  0  0  0  0  0  0  0  0
  148.7771  136.5608  161.4526 H   0  0  0  0  0  0  0  0  0  0  0  0
  146.9792  137.2175  163.8131 H   0  0  0  0  0  0  0  0  0  0  0  0
  148.0918  138.2958  162.9556 H   0  0  0  0  0  0  0  0  0  0  0  0
  145.3061  136.5861  160.5568 H   0  0  0  0  0  0  0  0  0  0  0  0
  144.9727  136.2976  162.2530 H   0  0  0  0  0  0  0  0  0  0  0  0
  146.4493  135.5434  156.0998 H   0  0  0  0  0  0  0  0  0  0  0  0
  151.3073  139.5915  159.1682 H   0  0  0  0  0  0  0  0  0  0  0  0
  152.7073  139.8209  158.1620 H   0  0  0  0  0  0  0  0  0  0  0  0
  152.2554  141.7734  159.6514 H   0  0  0  0  0  0  0  0  0  0  0  0
  152.1550  142.2760  157.9816 H   0  0  0  0  0  0  0  0  0  0  0  0
  148.5238  142.3540  158.0858 H   0  0  0  0  0  0  0  0  0  0  0  0
  149.8862  142.6457  157.0359 H   0  0  0  0  0  0  0  0  0  0  0  0
  148.7832  140.4521  156.4738 H   0  0  0  0  0  0  0  0  0  0  0  0
  148.9139  139.9751  158.1449 H   0  0  0  0  0  0  0  0  0  0  0  0
  1  2  1  0  0  0  0
  1 28  1  0  0  0  0
  2  3  1  0  0  0  0
  2 29  1  0  0  0  0
  2 30  1  0  0  0  0
  3 27  1  0  0  0  0
  3  4  1  0  0  0  0
  3 23  1  0  0  0  0
  4  5  1  0  0  0  0
  4 31  1  0  0  0  0
  4 32  1  0  0  0  0
  5 22  1  0  0  0  0
  5  6  1  0  0  0  0
  6  7  2  0  0  0  0
  6 33  1  0  0  0  0
  7  8  1  0  0  0  0
  8 22  2  0  0  0  0
  8  9  1  0  0  0  0
  9 10  1  0  0  0  0
  9 19  2  0  0  0  0
 10 14  1  0  0  0  0
 10 11  1  0  0  0  0
 11 12  1  0  0  0  0
 11 34  1  0  0  0  0
 11 35  1  0  0  0  0
 12 13  1  0  0  0  0
 12 36  1  0  0  0  0
 12 37  1  0  0  0  0
 13 14  1  0  0  0  0
 13 38  1  0  0  0  0
 13 39  1  0  0  0  0
 14 18  1  0  0  0  0
 14 15  1  0  0  0  0
 15 16  1  0  0  0  0
 15 40  1  0  0  0  0
 15 41  1  0  0  0  0
 16 17  1  0  0  0  0
 16 42  1  0  0  0  0
 16 43  1  0  0  0  0
 17 18  1  0  0  0  0
 18 44  1  0  0  0  0
 18 45  1  0  0  0  0
 19 20  1  0  0  0  0
 20 21  2  0  0  0  0
 20 46  1  0  0  0  0
 21 22  1  0  0  0  0
 23 24  1  0  0  0  0
 23 47  1  0  0  0  0
 23 48  1  0  0  0  0
 24 25  1  0  0  0  0
 24 49  1  0  0  0  0
 24 50  1  0  0  0  0
 25 26  1  0  0  0  0
 26 27  1  0  0  0  0
 26 51  1  0  0  0  0
 26 52  1  0  0  0  0
 27 53  1  0  0  0  0
 27 54  1  0  0  0  0
M  END
> <s_m_source_file>
AV-unprocessed.smi

> <i_m_source_file_index>
190

> <i_lp_mmshare_version>
43012

> <i_f3d_flags>
0

> <s_epik_input>
W0NIMl0xW0NIMl1PW0NIMl1bQ0gyXUMxKFtDSDJdW09IXSlbQ0gyXW4oW2NIXW4yKWMoYzIzKW5bY0hdbmMzTihbQ0gyXVtDSDJdW0NIMl00KVtDQF00NVtDSDJdW0NIMl1PW0NIMl01

> <s_epik_cmdline>
J2VwaWtfcHl0aG9uJywgJy1waCcsICc3LjAnLCAnLXRuJywgJzgnLCAnLW1hJywgJzIwMCcsICctbWV0YWxfYmluZGluZycsICctaW1hZScsICc8aW5maWxlLm1hZT4nLCAnLW9tYWUnLCAnPG91dGZpbGUubWFlPic=

> <r_lp_tautomer_probability>
1

> <r_epik_Ionization_Penalty>
0.00423054

> <r_epik_Ionization_Penalty_Charging>
0

> <r_epik_Ionization_Penalty_Neutral>
0.00423054

> <r_epik_State_Penalty>
0.00298851

> <r_epik_Charging_Adjusted_Penalty>
0.00298851

> <i_epik_Tot_Q>
0

> <i_epik_Tot_abs_Q>
0

> <r_epik_Metal_State_Penalty>
-0

> <b_epik_Metal_Only>
0

> <s_lp_Force_Field>
OPLS_2005

> <r_lp_Energy>
66.7697

> <b_lp_Chiralities_Consistent>
1

> <s_lp_Variant>
AV-unprocessed.smi:190-1

> <Gold.Version>
5.8.1

> <Gold.Id.Protein>
6NUR|6NUR_protein|mol2

> <Gold.PLP.Fitness>
42.7409

> <Gold.PLP.PLP>
-38.4157

> <Gold.PLP.part.hbond>
-4.2088

> <Gold.PLP.part.metal>
0.0000

> <Gold.PLP.part.buried>
-1.5761

> <Gold.PLP.part.nonpolar>
-31.1703

> <Gold.PLP.part.repulsive>
0.0259

> <Gold.PLP.ligand.clash>
0.0000

> <Gold.PLP.ligand.torsion>
1.3345

> <Gold.PLP.Chemscore.Hbond>
2.2699

> <Gold.PLP.Chemscore.CHOScore>
0.0000

> <Gold.PLP.Chemscore.Metal>
0.0000

> <Gold.Chemscore.Hbonds>
donor molecule, donor type, donor heavy atom, donor atom, acceptor molecule, acceptor atom, score
      P1  H  6896  6907       L1     7  0.55
      P1  H  6934  6947       L1    17  0.77
      P1  H  7989  7998       L1     1  1.00

> <Gold.PLP.Chemscore.Internal.Correction>
0.1847

> <Gold.Rescore>
     Score         DG    S(hbond)    S(metal)    S(lipo)     H(rot)  DE(clash)    DE(int)     intcor
     10.60     -16.90       1.68        0.00      95.66       2.10       3.66       2.64       ----

> <Gold.Chemscore.Fitness>
10.6001

> <Gold.Chemscore.DG>
-16.8981

> <Gold.Chemscore.ZeroCoef>
-5.4800

> <Gold.Chemscore.Hbond>
1.6756

> <Gold.Chemscore.Metal>
0.0000

> <Gold.Chemscore.Lipo>
95.6580

> <Gold.Chemscore.Internal_Hbond>
0.0000

> <Gold.Chemscore.DEClash>
3.6591

> <Gold.Chemscore.DEInternal>
2.6389

> <Gold.Chemscore.Rot>
2.0978

> <Gold.Chemscore.Internal.Correction>
   9.000000E+99

> <Gold.Chemscore.Hbonds>
donor molecule, donor type, donor heavy atom, donor atom, acceptor molecule, acceptor atom, score
      P1  H  6896  6907       L1     7  0.02
      P1  H  6934  6947       L1    17  0.20
      P1  H  7989  7998       L1     1  0.29

> <Gold.Chemscore.Hbond.Weighted>
-5.5964

> <Gold.Chemscore.Metal.Weighted>
-0.0000

> <Gold.Chemscore.Lipo.Weighted>
-11.1920

> <Gold.Chemscore.Internal_Hbond.Weighted>
0.0000

> <Gold.Chemscore.DEClash.Weighted>
3.6591

> <Gold.Chemscore.DEInternal.Weighted>
2.6389

> <Gold.Chemscore.Rot.Weighted>
5.3703

> <Gold.Chemscore.Internal.Correction.Weighted>
   9.000000E+99

> <Gold.Protein.RotatedTorsions>
[ 6907 6896 6895 6894 ] final  -27.69 input  -60.11 | X-H torsion
[ 7974 7965 7964 7962 ] final   98.94 input  175.53 | X-H torsion
[ 8008 7997 7996 7995 ] final   98.78 input   59.86 | X-H torsion
[ 10167 10162 10161 10158 ] final  162.15 input  -65.29 | X-H torsion
[ 10718 10713 10712 10709 ] final -169.16 input   66.30 | X-H torsion
[ 10763 10752 10751 10750 ] final   58.69 input  -60.55 | X-H torsion
[ 11005 11000 10999 10996 ] final  178.68 input  -57.11 | X-H torsion

> <Gold.Protein.ActiveResidues>
 VAL166  LYS551  ARG553  GLY616  TRP617  ASP618  TYR619  PRO620  LYS621  CYS622 
 ASP623  PHE694  ASN695  SER759  ASP760  ASP761  ALA762  ILE779  LEU786  VAL792 
 PHE793  MET794  SER795  GLU796  ALA797  LYS798  CYS799  TRP800  GLU811  SER814 

> <Gold.Protein.RotatedAtoms>
  151.1433  135.0191  159.8635 H   0  0  0  0  0  0  0  0  0  0  0  0  # atno 6907 bound_to 6896
  152.5452  134.1473  159.8514 H   0  0  0  0  0  0  0  0  0  0  0  0  # atno 6908 bound_to 6896
  151.1551  133.4836  159.2627 H   0  0  0  0  0  0  0  0  0  0  0  0  # atno 6909 bound_to 6896
  145.4055  139.2341  143.3276 H   0  0  0  0  0  0  0  0  0  0  0  0  # atno 7974 bound_to 7965
  156.1039  140.3238  155.7980 H   0  0  0  0  0  0  0  0  0  0  0  0  # atno 8008 bound_to 7997
  155.4789  140.0552  157.2987 H   0  0  0  0  0  0  0  0  0  0  0  0  # atno 8009 bound_to 7997
  154.4715  140.2013  155.9998 H   0  0  0  0  0  0  0  0  0  0  0  0  # atno 8010 bound_to 7997
  139.4857  144.4466  151.8884 H   0  0  0  0  0  0  0  0  0  0  0  0  # atno 10167 bound_to 10162
  156.7075  130.9221  151.3086 H   0  0  0  0  0  0  0  0  0  0  0  0  # atno 10718 bound_to 10713
  152.9876  135.5598  154.5592 H   0  0  0  0  0  0  0  0  0  0  0  0  # atno 10763 bound_to 10752
  154.5014  135.2797  155.1419 H   0  0  0  0  0  0  0  0  0  0  0  0  # atno 10764 bound_to 10752
  154.2848  135.6338  153.5414 H   0  0  0  0  0  0  0  0  0  0  0  0  # atno 10765 bound_to 10752
  140.3978  134.6804  157.4545 H   0  0  0  0  0  0  0  0  0  0  0  0  # atno 11005 bound_to 11000
  146.2731  140.4759  142.8806 LP  0  0  0  0  0  0  0  0  0  0  0  0  # atno 17320 bound_to 7965
  144.8344  140.6759  143.6270 LP  0  0  0  0  0  0  0  0  0  0  0  0  # atno 17321 bound_to 7965
  140.3920  144.2603  150.5899 LP  0  0  0  0  0  0  0  0  0  0  0  0  # atno 17342 bound_to 10162
  140.5137  143.2284  151.8496 LP  0  0  0  0  0  0  0  0  0  0  0  0  # atno 17343 bound_to 10162
  157.6949  130.9271  150.0616 LP  0  0  0  0  0  0  0  0  0  0  0  0  # atno 17370 bound_to 10713
  156.1684  130.3645  149.9199 LP  0  0  0  0  0  0  0  0  0  0  0  0  # atno 17371 bound_to 10713
  140.0358  134.6339  155.9045 LP  0  0  0  0  0  0  0  0  0  0  0  0  # atno 17394 bound_to 11000
  141.1867  133.6558  156.5253 LP  0  0  0  0  0  0  0  0  0  0  0  0  # atno 17395 bound_to 11000

$$$$
