AV-unprocessed.smi:2481|AV-procd|sdf|9774|dock2
  -GOLD-   2272013413D 1   1.00000     0.00000
 Structure written by MMmdl.
 37 38  0  0  0  0  0  0  0  0  1 V2000
  150.6197  135.3627  155.1408 C   0  0  0  0  0  0  0  0  0  0  0  0
  150.1725  133.9913  155.2901 N   0  0  0  0  0  0  0  0  0  0  0  0
  150.6562  133.2044  156.2799 N   0  0  0  0  0  0  0  0  0  0  0  0
  150.0114  132.0544  156.0820 C   0  0  0  0  0  0  0  0  0  0  0  0
  149.1378  132.0303  155.0322 N   0  0  0  0  0  0  0  0  0  0  0  0
  149.2916  133.2734  154.5871 C   0  0  0  0  0  0  0  0  0  0  0  0
  148.6216  133.8554  153.4779 N   0  0  0  0  0  0  0  0  0  0  0  0
  147.6134  133.3350  152.7583 C   0  0  0  0  0  0  0  0  0  0  0  0
  147.0872  132.2404  152.9604 O   0  0  0  0  0  0  0  0  0  0  0  0
  147.2406  134.1681  151.7761 N   0  0  0  0  0  0  0  0  0  0  0  0
  146.1766  133.9154  150.8058 C   0  0  1  0  0  0  0  0  0  0  0  0
  146.2524  132.4454  150.3416 C   0  0  0  0  0  0  0  0  0  0  0  0
  145.1168  132.0932  149.3717 C   0  0  0  0  0  0  0  0  0  0  0  0
  143.7506  132.3979  149.9977 C   0  0  0  0  0  0  0  0  0  0  0  0
  143.6629  133.8670  150.4355 C   0  0  0  0  0  0  0  0  0  0  0  0
  144.7916  134.2501  151.4200 C   0  0  2  0  0  0  0  0  0  0  0  0
  144.6829  135.7341  151.8379 C   0  0  0  0  0  0  0  0  0  0  0  0
  145.0977  136.5845  150.7891 O   0  0  0  0  0  0  0  0  0  0  0  0
  150.9598  135.5294  154.1182 H   0  0  0  0  0  0  0  0  0  0  0  0
  151.4426  135.5745  155.8248 H   0  0  0  0  0  0  0  0  0  0  0  0
  149.7943  136.0413  155.3576 H   0  0  0  0  0  0  0  0  0  0  0  0
  150.1771  131.1986  156.7199 H   0  0  0  0  0  0  0  0  0  0  0  0
  148.9490  134.7692  153.2019 H   0  0  0  0  0  0  0  0  0  0  0  0
  147.7294  135.0471  151.6892 H   0  0  0  0  0  0  0  0  0  0  0  0
  146.3216  134.5606  149.9367 H   0  0  0  0  0  0  0  0  0  0  0  0
  147.2120  132.2530  149.8601 H   0  0  0  0  0  0  0  0  0  0  0  0
  146.2043  131.7825  151.2067 H   0  0  0  0  0  0  0  0  0  0  0  0
  145.2332  132.6612  148.4477 H   0  0  0  0  0  0  0  0  0  0  0  0
  145.1743  131.0393  149.0978 H   0  0  0  0  0  0  0  0  0  0  0  0
  142.9568  132.1746  149.2842 H   0  0  0  0  0  0  0  0  0  0  0  0
  143.5862  131.7478  150.8580 H   0  0  0  0  0  0  0  0  0  0  0  0
  143.7098  134.5093  149.5550 H   0  0  0  0  0  0  0  0  0  0  0  0
  142.6879  134.0432  150.8908 H   0  0  0  0  0  0  0  0  0  0  0  0
  144.6727  133.6405  152.3177 H   0  0  0  0  0  0  0  0  0  0  0  0
  143.6562  136.0022  152.0860 H   0  0  0  0  0  0  0  0  0  0  0  0
  145.2866  135.9321  152.7243 H   0  0  0  0  0  0  0  0  0  0  0  0
  144.4130  137.2148  150.6244 H   0  0  0  0  0  0  0  0  0  0  0  0
  1  2  1  0  0  0  0
  1 19  1  0  0  0  0
  1 20  1  0  0  0  0
  1 21  1  0  0  0  0
  2  6  1  0  0  0  0
  2  3  1  0  0  0  0
  3  4  2  0  0  0  0
  4  5  1  0  0  0  0
  4 22  1  0  0  0  0
  5  6  2  0  0  0  0
  6  7  1  0  0  0  0
  7  8  1  0  0  0  0
  7 23  1  0  0  0  0
  8  9  2  0  0  0  0
  8 10  1  0  0  0  0
 10 11  1  0  0  0  0
 10 24  1  0  0  0  0
 11 16  1  0  0  0  0
 11 12  1  0  0  0  0
 11 25  1  0  0  0  0
 12 13  1  0  0  0  0
 12 26  1  0  0  0  0
 12 27  1  0  0  0  0
 13 14  1  0  0  0  0
 13 28  1  0  0  0  0
 13 29  1  0  0  0  0
 14 15  1  0  0  0  0
 14 30  1  0  0  0  0
 14 31  1  0  0  0  0
 15 16  1  0  0  0  0
 15 32  1  0  0  0  0
 15 33  1  0  0  0  0
 16 17  1  0  0  0  0
 16 34  1  0  0  0  0
 17 18  1  0  0  0  0
 17 35  1  0  0  0  0
 17 36  1  0  0  0  0
 18 37  1  0  0  0  0
M  END
> <s_m_source_file>
AV-unprocessed.smi

> <i_m_source_file_index>
2481

> <i_lp_mmshare_version>
43012

> <i_f3d_flags>
0

> <s_epik_input>
W0NIM11uMW5bY0hdbmMxW05IXUMoPU8pW05IXVtDQEBIXTJbQ0gyXVtDSDJdW0NIMl1bQ0gyXVtDQEhdMltDSDJdW09IXQ==

> <s_epik_cmdline>
J2VwaWtfcHl0aG9uJywgJy1waCcsICc3LjAnLCAnLXRuJywgJzgnLCAnLW1hJywgJzIwMCcsICctbWV0YWxfYmluZGluZycsICctaW1hZScsICc8aW5maWxlLm1hZT4nLCAnLW9tYWUnLCAnPG91dGZpbGUubWFlPic=

> <r_lp_tautomer_probability>
1

> <r_epik_Ionization_Penalty>
2.32704e-05

> <r_epik_Ionization_Penalty_Charging>
0

> <r_epik_Ionization_Penalty_Neutral>
2.32704e-05

> <r_epik_State_Penalty>
-0

> <r_epik_Charging_Adjusted_Penalty>
0

> <i_epik_Tot_Q>
0

> <i_epik_Tot_abs_Q>
0

> <r_epik_Metal_State_Penalty>
-0

> <b_epik_Metal_Only>
0

> <s_lp_Force_Field>
OPLS_2005

> <r_lp_Energy>
12.9645

> <b_lp_Chiralities_Consistent>
1

> <s_lp_Variant>
AV-unprocessed.smi:2481-4

> <Gold.Version>
5.8.1

> <Gold.Id.Protein>
6NUR|6NUR_protein|mol2

> <Gold.PLP.Fitness>
37.8138

> <Gold.PLP.PLP>
-30.0287

> <Gold.PLP.part.hbond>
-2.9961

> <Gold.PLP.part.metal>
0.0000

> <Gold.PLP.part.buried>
0.0080

> <Gold.PLP.part.nonpolar>
-26.3604

> <Gold.PLP.part.repulsive>
0.1644

> <Gold.PLP.ligand.clash>
0.0000

> <Gold.PLP.ligand.torsion>
0.3734

> <Gold.PLP.Chemscore.Hbond>
2.8400

> <Gold.PLP.Chemscore.CHOScore>
0.0000

> <Gold.PLP.Chemscore.Metal>
0.0000

> <Gold.Chemscore.Hbonds>
donor molecule, donor type, donor heavy atom, donor atom, acceptor molecule, acceptor atom, score
      L1  H     7    23       P1  7948  0.82
      L1  H    10    24       P1  7948  1.00
      L1  H    18    37       P1 10171  0.99

> <Gold.PLP.Chemscore.Internal.Correction>
0.0120

> <Gold.Rescore>
     Score         DG    S(hbond)    S(metal)    S(lipo)     H(rot)  DE(clash)    DE(int)     intcor
     12.21     -16.21       2.67        0.00      58.98       1.99       0.94       3.06       ----

> <Gold.Chemscore.Fitness>
12.2120

> <Gold.Chemscore.DG>
-16.2099

> <Gold.Chemscore.ZeroCoef>
-5.4800

> <Gold.Chemscore.Hbond>
2.6698

> <Gold.Chemscore.Metal>
0.0000

> <Gold.Chemscore.Lipo>
58.9845

> <Gold.Chemscore.Internal_Hbond>
0.0000

> <Gold.Chemscore.DEClash>
0.9393

> <Gold.Chemscore.DEInternal>
3.0587

> <Gold.Chemscore.Rot>
1.9877

> <Gold.Chemscore.Internal.Correction>
   9.000000E+99

> <Gold.Chemscore.Hbonds>
donor molecule, donor type, donor heavy atom, donor atom, acceptor molecule, acceptor atom, score
      L1  H     7    23       P1  7948  0.13
      L1  H    10    24       P1  7948  0.60
      L1  H    18    37       P1 10171  0.93

> <Gold.Chemscore.Hbond.Weighted>
-8.9173

> <Gold.Chemscore.Metal.Weighted>
-0.0000

> <Gold.Chemscore.Lipo.Weighted>
-6.9012

> <Gold.Chemscore.Internal_Hbond.Weighted>
0.0000

> <Gold.Chemscore.DEClash.Weighted>
0.9393

> <Gold.Chemscore.DEInternal.Weighted>
3.0587

> <Gold.Chemscore.Rot.Weighted>
5.0885

> <Gold.Chemscore.Internal.Correction.Weighted>
   9.000000E+99

> <Gold.Protein.RotatedTorsions>
[ 6907 6896 6895 6894 ] final   29.50 input  -60.11 | X-H torsion
[ 7974 7965 7964 7962 ] final -104.23 input  175.53 | X-H torsion
[ 8008 7997 7996 7995 ] final   52.42 input   59.86 | X-H torsion
[ 10167 10162 10161 10158 ] final  126.03 input  -65.29 | X-H torsion
[ 10718 10713 10712 10709 ] final  -21.11 input   66.30 | X-H torsion
[ 10763 10752 10751 10750 ] final  114.66 input  -60.55 | X-H torsion
[ 11005 11000 10999 10996 ] final   21.98 input  -57.11 | X-H torsion

> <Gold.Protein.ActiveResidues>
 VAL166  LYS551  ARG553  GLY616  TRP617  ASP618  TYR619  PRO620  LYS621  CYS622 
 ASP623  PHE694  ASN695  SER759  ASP760  ASP761  ALA762  ILE779  LEU786  VAL792 
 PHE793  MET794  SER795  GLU796  ALA797  LYS798  CYS799  TRP800  GLU811  SER814 

> <Gold.Protein.RotatedAtoms>
  152.0324  134.9760  160.0572 H   0  0  0  0  0  0  0  0  0  0  0  0  # atno 6907 bound_to 6896
  152.1231  133.4360  159.4693 H   0  0  0  0  0  0  0  0  0  0  0  0  # atno 6908 bound_to 6896
  150.6850  134.2430  159.4523 H   0  0  0  0  0  0  0  0  0  0  0  0  # atno 6909 bound_to 6896
  145.2458  140.9221  143.3123 H   0  0  0  0  0  0  0  0  0  0  0  0  # atno 7974 bound_to 7965
  155.4514  140.3458  155.4301 H   0  0  0  0  0  0  0  0  0  0  0  0  # atno 8008 bound_to 7997
  156.1218  140.1489  156.9224 H   0  0  0  0  0  0  0  0  0  0  0  0  # atno 8009 bound_to 7997
  154.4828  140.0864  156.7398 H   0  0  0  0  0  0  0  0  0  0  0  0  # atno 8010 bound_to 7997
  139.5653  144.6907  151.3927 H   0  0  0  0  0  0  0  0  0  0  0  0  # atno 10167 bound_to 10162
  156.5227  130.4636  149.6588 H   0  0  0  0  0  0  0  0  0  0  0  0  # atno 10718 bound_to 10713
  153.5105  135.3619  155.2584 H   0  0  0  0  0  0  0  0  0  0  0  0  # atno 10763 bound_to 10752
  154.8742  135.4021  154.3374 H   0  0  0  0  0  0  0  0  0  0  0  0  # atno 10764 bound_to 10752
  153.4026  135.7075  153.6482 H   0  0  0  0  0  0  0  0  0  0  0  0  # atno 10765 bound_to 10752
  140.3856  134.1874  155.7663 H   0  0  0  0  0  0  0  0  0  0  0  0  # atno 11005 bound_to 11000
  144.9547  139.4044  143.6385 LP  0  0  0  0  0  0  0  0  0  0  0  0  # atno 17320 bound_to 7965
  146.3316  139.8571  142.8862 LP  0  0  0  0  0  0  0  0  0  0  0  0  # atno 17321 bound_to 7965
  140.6936  143.7802  150.7293 LP  0  0  0  0  0  0  0  0  0  0  0  0  # atno 17342 bound_to 10162
  140.1292  143.4542  152.2265 LP  0  0  0  0  0  0  0  0  0  0  0  0  # atno 17343 bound_to 10162
  156.3134  130.7241  151.2139 LP  0  0  0  0  0  0  0  0  0  0  0  0  # atno 17370 bound_to 10713
  157.7434  131.0475  150.4947 LP  0  0  0  0  0  0  0  0  0  0  0  0  # atno 17371 bound_to 10713
  141.1909  133.8208  157.0902 LP  0  0  0  0  0  0  0  0  0  0  0  0  # atno 17394 bound_to 11000
  140.0445  134.9837  157.1024 LP  0  0  0  0  0  0  0  0  0  0  0  0  # atno 17395 bound_to 11000

$$$$
