AV-unprocessed.smi:1291|AV-procd|sdf|5391|dock5
  -GOLD-   22720 4543D 1   1.00000     0.00000
 Structure written by MMmdl.
 43 45  0  0  0  0  0  0  0  0  1 V2000
  153.1900  139.0892  155.3804 O   0  0  0  0  0  0  0  0  0  0  0  0
  151.9643  139.3708  156.0198 C   0  0  0  0  0  0  0  0  0  0  0  0
  152.1169  140.3375  157.1536 C   0  0  0  0  0  0  0  0  0  0  0  0
  152.8931  140.0677  158.2040 N   0  0  0  0  0  0  0  0  0  0  0  0
  152.7256  141.1827  159.0014 C   0  0  0  0  0  0  0  0  0  0  0  0
  153.2811  141.5028  160.2609 C   0  0  0  0  0  0  0  0  0  0  0  0
  152.9546  142.7184  160.8969 C   0  0  0  0  0  0  0  0  0  0  0  0
  152.0694  143.6291  160.2846 C   0  0  0  0  0  0  0  0  0  0  0  0
  151.5056  143.3302  159.0294 C   0  0  0  0  0  0  0  0  0  0  0  0
  151.8364  142.1161  158.3975 C   0  0  0  0  0  0  0  0  0  0  0  0
  151.4688  141.5299  157.1903 N   0  0  0  0  0  0  0  0  0  0  0  0
  150.5640  142.1041  156.2048 C   0  0  0  0  0  0  0  0  0  0  0  0
  149.2866  141.2531  156.0174 C   0  0  2  0  0  0  0  0  0  0  0  0
  148.4738  141.8809  155.0454 O   0  0  0  0  0  0  0  0  0  0  0  0
  148.4760  141.1173  157.3164 C   0  0  0  0  0  0  0  0  0  0  0  0
  147.9633  142.3905  157.6830 O   0  0  0  0  0  0  0  0  0  0  0  0
  146.7275  142.3312  158.3823 C   0  0  0  0  0  0  0  0  0  0  0  0
  146.6801  143.2509  159.5925 C   0  0  0  0  0  0  0  0  0  0  0  0
  147.6785  144.2339  159.7581 C   0  0  0  0  0  0  0  0  0  0  0  0
  147.6482  145.0968  160.8707 C   0  0  0  0  0  0  0  0  0  0  0  0
  146.6162  144.9829  161.8218 C   0  0  0  0  0  0  0  0  0  0  0  0
  145.6139  144.0077  161.6577 C   0  0  0  0  0  0  0  0  0  0  0  0
  145.6425  143.1434  160.5455 C   0  0  0  0  0  0  0  0  0  0  0  0
  144.6716  142.2091  160.4043 F   0  0  0  0  0  0  0  0  0  0  0  0
  153.1951  138.1789  155.1274 H   0  0  0  0  0  0  0  0  0  0  0  0
  151.2790  139.7906  155.2824 H   0  0  0  0  0  0  0  0  0  0  0  0
  151.5115  138.4435  156.3685 H   0  0  0  0  0  0  0  0  0  0  0  0
  153.9586  140.8107  160.7391 H   0  0  0  0  0  0  0  0  0  0  0  0
  153.3844  142.9526  161.8597 H   0  0  0  0  0  0  0  0  0  0  0  0
  151.8234  144.5575  160.7792 H   0  0  0  0  0  0  0  0  0  0  0  0
  150.8263  144.0260  158.5602 H   0  0  0  0  0  0  0  0  0  0  0  0
  150.3104  143.1136  156.5295 H   0  0  0  0  0  0  0  0  0  0  0  0
  151.1013  142.2449  155.2667 H   0  0  0  0  0  0  0  0  0  0  0  0
  149.5507  140.2586  155.6537 H   0  0  0  0  0  0  0  0  0  0  0  0
  148.6479  142.8093  155.0630 H   0  0  0  0  0  0  0  0  0  0  0  0
  147.6292  140.4501  157.1477 H   0  0  0  0  0  0  0  0  0  0  0  0
  149.0812  140.6773  158.1106 H   0  0  0  0  0  0  0  0  0  0  0  0
  145.9400  142.6428  157.6960 H   0  0  0  0  0  0  0  0  0  0  0  0
  146.5026  141.2993  158.6547 H   0  0  0  0  0  0  0  0  0  0  0  0
  148.4727  144.3249  159.0314 H   0  0  0  0  0  0  0  0  0  0  0  0
  148.4164  145.8457  160.9943 H   0  0  0  0  0  0  0  0  0  0  0  0
  146.5928  145.6434  162.6760 H   0  0  0  0  0  0  0  0  0  0  0  0
  144.8214  143.9216  162.3863 H   0  0  0  0  0  0  0  0  0  0  0  0
  1  2  1  0  0  0  0
  1 25  1  0  0  0  0
  2  3  1  0  0  0  0
  2 26  1  0  0  0  0
  2 27  1  0  0  0  0
  3 11  1  0  0  0  0
  3  4  2  0  0  0  0
  4  5  1  0  0  0  0
  5 10  2  0  0  0  0
  5  6  1  0  0  0  0
  6  7  2  0  0  0  0
  6 28  1  0  0  0  0
  7  8  1  0  0  0  0
  7 29  1  0  0  0  0
  8  9  2  0  0  0  0
  8 30  1  0  0  0  0
  9 10  1  0  0  0  0
  9 31  1  0  0  0  0
 10 11  1  0  0  0  0
 11 12  1  0  0  0  0
 12 13  1  0  0  0  0
 12 32  1  0  0  0  0
 12 33  1  0  0  0  0
 13 14  1  0  0  0  0
 13 15  1  0  0  0  0
 13 34  1  0  0  0  0
 14 35  1  0  0  0  0
 15 16  1  0  0  0  0
 15 36  1  0  0  0  0
 15 37  1  0  0  0  0
 16 17  1  0  0  0  0
 17 18  1  0  0  0  0
 17 38  1  0  0  0  0
 17 39  1  0  0  0  0
 18 23  1  0  0  0  0
 18 19  2  0  0  0  0
 19 20  1  0  0  0  0
 19 40  1  0  0  0  0
 20 21  2  0  0  0  0
 20 41  1  0  0  0  0
 21 22  1  0  0  0  0
 21 42  1  0  0  0  0
 22 23  2  0  0  0  0
 22 43  1  0  0  0  0
 23 24  1  0  0  0  0
M  END
> <s_m_source_file>
AV-unprocessed.smi

> <i_m_source_file_index>
1291

> <i_lp_mmshare_version>
43012

> <i_f3d_flags>
0

> <s_epik_input>
W2NIXTFbY0hdW2NIXVtjSF1jKGMxMiluKGMobjIpW0NIMl1bT0hdKVtDSDJdW0NASF0oW09IXSlbQ0gyXU9bQ0gyXWMzW2NIXVtjSF1bY0hdW2NIXWMzRg==

> <s_epik_cmdline>
J2VwaWtfcHl0aG9uJywgJy1waCcsICc3LjAnLCAnLXRuJywgJzgnLCAnLW1hJywgJzIwMCcsICctbWV0YWxfYmluZGluZycsICctaW1hZScsICc8aW5maWxlLm1hZT4nLCAnLW9tYWUnLCAnPG91dGZpbGUubWFlPic=

> <r_epik_Ionization_Penalty>
0.0649918

> <r_epik_Ionization_Penalty_Charging>
0

> <r_epik_Ionization_Penalty_Neutral>
0.0649918

> <r_epik_State_Penalty>
0.0565791

> <r_epik_Charging_Adjusted_Penalty>
0.0565791

> <i_epik_Tot_Q>
0

> <i_epik_Tot_abs_Q>
0

> <r_epik_Metal_State_Penalty>
5.93658e-05

> <b_epik_Metal_Only>
0

> <s_lp_Force_Field>
OPLS_2005

> <r_lp_Energy>
20.1032

> <b_lp_Chiralities_Consistent>
1

> <s_lp_Variant>
AV-unprocessed.smi:1291-1

> <Gold.Version>
5.8.1

> <Gold.Id.Protein>
6NUR|6NUR_protein|mol2

> <Gold.PLP.Fitness>
50.3941

> <Gold.PLP.PLP>
-45.6520

> <Gold.PLP.part.hbond>
-3.0000

> <Gold.PLP.part.metal>
0.0000

> <Gold.PLP.part.buried>
-4.2391

> <Gold.PLP.part.nonpolar>
-38.8439

> <Gold.PLP.part.repulsive>
0.1739

> <Gold.PLP.ligand.clash>
0.0000

> <Gold.PLP.ligand.torsion>
0.6754

> <Gold.PLP.Chemscore.Hbond>
2.0000

> <Gold.PLP.Chemscore.CHOScore>
0.0000

> <Gold.PLP.Chemscore.Metal>
0.0000

> <Gold.Chemscore.Hbonds>
donor molecule, donor type, donor heavy atom, donor atom, acceptor molecule, acceptor atom, score
      L1  H    14    35       P1  8028  1.00
      P1  H  7997  8010       L1     1  1.00

> <Gold.PLP.Chemscore.Internal.Correction>
0.0929

> <Gold.Rescore>
     Score         DG    S(hbond)    S(metal)    S(lipo)     H(rot)  DE(clash)    DE(int)     intcor
     15.54     -17.56       1.97        0.00     119.86       3.33       1.42       0.60       ----

> <Gold.Chemscore.Fitness>
15.5397

> <Gold.Chemscore.DG>
-17.5625

> <Gold.Chemscore.ZeroCoef>
-5.4800

> <Gold.Chemscore.Hbond>
1.9723

> <Gold.Chemscore.Metal>
0.0000

> <Gold.Chemscore.Lipo>
119.8627

> <Gold.Chemscore.Internal_Hbond>
0.0000

> <Gold.Chemscore.DEClash>
1.4204

> <Gold.Chemscore.DEInternal>
0.6023

> <Gold.Chemscore.Rot>
3.3316

> <Gold.Chemscore.Internal.Correction>
   9.000000E+99

> <Gold.Chemscore.Hbonds>
donor molecule, donor type, donor heavy atom, donor atom, acceptor molecule, acceptor atom, score
      L1  H    14    35       P1  8028  0.96
      P1  H  7997  8010       L1     1  0.55

> <Gold.Chemscore.Hbond.Weighted>
-6.5873

> <Gold.Chemscore.Metal.Weighted>
-0.0000

> <Gold.Chemscore.Lipo.Weighted>
-14.0239

> <Gold.Chemscore.Internal_Hbond.Weighted>
0.0000

> <Gold.Chemscore.DEClash.Weighted>
1.4204

> <Gold.Chemscore.DEInternal.Weighted>
0.6023

> <Gold.Chemscore.Rot.Weighted>
8.5288

> <Gold.Chemscore.Internal.Correction.Weighted>
   9.000000E+99

> <Gold.Protein.RotatedTorsions>
[ 6907 6896 6895 6894 ] final  -73.70 input  -60.11 | X-H torsion
[ 7974 7965 7964 7962 ] final   73.44 input  175.53 | X-H torsion
[ 8008 7997 7996 7995 ] final   88.91 input   59.86 | X-H torsion
[ 10167 10162 10161 10158 ] final   91.82 input  -65.29 | X-H torsion
[ 10718 10713 10712 10709 ] final  147.32 input   66.30 | X-H torsion
[ 10763 10752 10751 10750 ] final   95.29 input  -60.55 | X-H torsion
[ 11005 11000 10999 10996 ] final  171.85 input  -57.11 | X-H torsion

> <Gold.Protein.ActiveResidues>
 VAL166  LYS551  ARG553  GLY616  TRP617  ASP618  TYR619  PRO620  LYS621  CYS622 
 ASP623  PHE694  ASN695  SER759  ASP760  ASP761  ALA762  ILE779  LEU786  VAL792 
 PHE793  MET794  SER795  GLU796  ALA797  LYS798  CYS799  TRP800  GLU811  SER814 

> <Gold.Protein.RotatedAtoms>
  150.7120  134.4977  159.5546 H   0  0  0  0  0  0  0  0  0  0  0  0  # atno 6907 bound_to 6896
  152.2581  134.8060  160.0444 H   0  0  0  0  0  0  0  0  0  0  0  0  # atno 6908 bound_to 6896
  151.8783  133.3454  159.3794 H   0  0  0  0  0  0  0  0  0  0  0  0  # atno 6909 bound_to 6896
  145.7409  139.2720  143.1487 H   0  0  0  0  0  0  0  0  0  0  0  0  # atno 7974 bound_to 7965
  155.9935  140.3366  155.6776 H   0  0  0  0  0  0  0  0  0  0  0  0  # atno 8008 bound_to 7997
  155.6388  140.0693  157.2643 H   0  0  0  0  0  0  0  0  0  0  0  0  # atno 8009 bound_to 7997
  154.4227  140.1746  156.1538 H   0  0  0  0  0  0  0  0  0  0  0  0  # atno 8010 bound_to 7997
  139.8337  144.6674  150.9368 H   0  0  0  0  0  0  0  0  0  0  0  0  # atno 10167 bound_to 10162
  157.3224  131.0906  151.1229 H   0  0  0  0  0  0  0  0  0  0  0  0  # atno 10718 bound_to 10713
  153.2515  135.4259  155.0802 H   0  0  0  0  0  0  0  0  0  0  0  0  # atno 10763 bound_to 10752
  154.8383  135.3427  154.6506 H   0  0  0  0  0  0  0  0  0  0  0  0  # atno 10764 bound_to 10752
  153.6927  135.7033  153.5142 H   0  0  0  0  0  0  0  0  0  0  0  0  # atno 10765 bound_to 10752
  140.3234  134.7418  157.4081 H   0  0  0  0  0  0  0  0  0  0  0  0  # atno 11005 bound_to 11000
  146.0449  140.8128  142.9810 LP  0  0  0  0  0  0  0  0  0  0  0  0  # atno 17320 bound_to 7965
  144.6871  140.2965  143.7270 LP  0  0  0  0  0  0  0  0  0  0  0  0  # atno 17321 bound_to 7965
  140.7804  143.3976  151.1203 LP  0  0  0  0  0  0  0  0  0  0  0  0  # atno 17342 bound_to 10162
  139.7628  143.8610  152.3104 LP  0  0  0  0  0  0  0  0  0  0  0  0  # atno 17343 bound_to 10162
  157.2509  130.6613  149.5931 LP  0  0  0  0  0  0  0  0  0  0  0  0  # atno 17370 bound_to 10713
  155.9687  130.4538  150.5828 LP  0  0  0  0  0  0  0  0  0  0  0  0  # atno 17371 bound_to 10713
  140.0922  134.5586  155.8433 LP  0  0  0  0  0  0  0  0  0  0  0  0  # atno 17394 bound_to 11000
  141.2081  133.6670  156.6349 LP  0  0  0  0  0  0  0  0  0  0  0  0  # atno 17395 bound_to 11000

$$$$
