AV-unprocessed.smi:100|AV-procd|sdf|902|dock9
  -GOLD-   2262017403D 1   1.00000     0.00000
 Structure written by MMmdl.
 31 33  0  0  0  0  0  0  0  0  1 V2000
  142.5897  134.6175  153.4089 N   0  0  0  0  0  0  0  0  0  0  0  0
  143.5651  135.2247  152.7190 C   0  0  0  0  0  0  0  0  0  0  0  0
  143.8166  134.8052  151.4572 N   0  0  0  0  0  0  0  0  0  0  0  0
  144.7864  135.3935  150.7501 C   0  0  0  0  0  0  0  0  0  0  0  0
  145.5967  136.3909  151.1129 N   0  0  0  0  0  0  0  0  0  0  0  0
  145.3405  136.8176  152.3850 C   0  0  0  0  0  0  0  0  0  0  0  0
  144.3445  136.2835  153.2500 C   0  0  0  0  0  0  0  0  0  0  0  0
  144.3667  136.9487  154.4679 N   0  0  0  0  0  0  0  0  0  0  0  0
  145.3232  137.8261  154.3269 C   0  0  0  0  0  0  0  0  0  0  0  0
  145.9603  137.8223  153.1047 N   0  0  0  0  0  0  0  0  0  0  0  0
  147.0801  138.7199  152.6663 C   0  0  1  0  0  0  0  0  0  0  0  0
  146.6650  140.0485  152.7837 O   0  0  0  0  0  0  0  0  0  0  0  0
  147.6931  140.8124  153.4055 C   0  0  1  0  0  0  0  0  0  0  0  0
  147.1162  142.0796  154.0557 C   0  0  0  0  0  0  0  0  0  0  0  0
  148.1522  142.9926  154.3493 O   0  0  0  0  0  0  0  0  0  0  0  0
  148.3587  139.8200  154.3629 C   0  0  1  0  0  0  0  0  0  0  0  0
  147.6134  139.6744  155.4608 F   0  0  0  0  0  0  0  0  0  0  0  0
  148.3518  138.5517  153.5257 C   0  0  1  0  0  0  0  0  0  0  0  0
  148.4165  137.3795  154.3189 O   0  0  0  0  0  0  0  0  0  0  0  0
  142.3837  134.9122  154.3525 H   0  0  0  0  0  0  0  0  0  0  0  0
  142.0621  133.8691  152.9836 H   0  0  0  0  0  0  0  0  0  0  0  0
  144.9351  135.0115  149.7510 H   0  0  0  0  0  0  0  0  0  0  0  0
  145.5898  138.5125  155.1174 H   0  0  0  0  0  0  0  0  0  0  0  0
  147.2392  138.4604  151.6187 H   0  0  0  0  0  0  0  0  0  0  0  0
  148.4044  141.0922  152.6260 H   0  0  0  0  0  0  0  0  0  0  0  0
  146.4166  142.5630  153.3734 H   0  0  0  0  0  0  0  0  0  0  0  0
  146.5627  141.8444  154.9652 H   0  0  0  0  0  0  0  0  0  0  0  0
  148.1240  143.1904  155.2730 H   0  0  0  0  0  0  0  0  0  0  0  0
  149.3568  140.1253  154.6781 H   0  0  0  0  0  0  0  0  0  0  0  0
  149.2072  138.5662  152.8491 H   0  0  0  0  0  0  0  0  0  0  0  0
  148.5651  136.6392  153.7510 H   0  0  0  0  0  0  0  0  0  0  0  0
  1  2  1  0  0  0  0
  1 20  1  0  0  0  0
  1 21  1  0  0  0  0
  2  7  1  0  0  0  0
  2  3  2  0  0  0  0
  3  4  1  0  0  0  0
  4  5  2  0  0  0  0
  4 22  1  0  0  0  0
  5  6  1  0  0  0  0
  6 10  1  0  0  0  0
  6  7  2  0  0  0  0
  7  8  1  0  0  0  0
  8  9  2  0  0  0  0
  9 10  1  0  0  0  0
  9 23  1  0  0  0  0
 10 11  1  0  0  0  0
 11 18  1  0  0  0  0
 11 12  1  0  0  0  0
 11 24  1  0  0  0  0
 12 13  1  0  0  0  0
 13 14  1  0  0  0  0
 13 16  1  0  0  0  0
 13 25  1  0  0  0  0
 14 15  1  0  0  0  0
 14 26  1  0  0  0  0
 14 27  1  0  0  0  0
 15 28  1  0  0  0  0
 16 17  1  0  0  0  0
 16 18  1  0  0  0  0
 16 29  1  0  0  0  0
 18 19  1  0  0  0  0
 18 30  1  0  0  0  0
 19 31  1  0  0  0  0
M  END
> <s_m_source_file>
AV-unprocessed.smi

> <i_m_source_file_index>
100

> <i_lp_mmshare_version>
43012

> <i_f3d_flags>
0

> <s_epik_input>
bjFbY0hdbmMoW05IMl0pYyhjMTIpbltjSF1uMltDQEBIXTNPW0NAQEhdKFtDSDJdW09IXSlbQ0BIXShGKVtDQEhdM1tPSF0=

> <s_epik_cmdline>
J2VwaWtfcHl0aG9uJywgJy1waCcsICc3LjAnLCAnLXRuJywgJzgnLCAnLW1hJywgJzIwMCcsICctbWV0YWxfYmluZGluZycsICctaW1hZScsICc8aW5maWxlLm1hZT4nLCAnLW9tYWUnLCAnPG91dGZpbGUubWFlPic=

> <r_lp_tautomer_probability>
1

> <r_epik_Ionization_Penalty>
0.000750324

> <r_epik_Ionization_Penalty_Charging>
0

> <r_epik_Ionization_Penalty_Neutral>
0.000750324

> <r_epik_State_Penalty>
-0

> <r_epik_Charging_Adjusted_Penalty>
0

> <i_epik_Tot_Q>
0

> <i_epik_Tot_abs_Q>
0

> <r_epik_Metal_State_Penalty>
-0

> <b_epik_Metal_Only>
0

> <s_epik_Chemistry_Notes>
This compound contains an acetal/aminal-like group ( X-CH(R)-Y where X, Y are N, S, or O) that may be acid/base labile, releasing an aldehyde.

> <s_lp_Force_Field>
OPLS_2005

> <r_lp_Energy>
37.3061

> <b_lp_Chiralities_Consistent>
1

> <s_lp_Variant>
AV-unprocessed.smi:100-6

> <Gold.Version>
5.8.1

> <Gold.Id.Protein>
6NUR|6NUR_protein|mol2

> <Gold.PLP.Fitness>
29.4934

> <Gold.PLP.PLP>
-20.5649

> <Gold.PLP.part.hbond>
-4.1712

> <Gold.PLP.part.metal>
0.0000

> <Gold.PLP.part.buried>
1.1397

> <Gold.PLP.part.nonpolar>
-19.4334

> <Gold.PLP.part.repulsive>
1.4485

> <Gold.PLP.ligand.clash>
0.0000

> <Gold.PLP.ligand.torsion>
0.1449

> <Gold.PLP.Chemscore.Hbond>
2.0720

> <Gold.PLP.Chemscore.CHOScore>
1.0000

> <Gold.PLP.Chemscore.Metal>
0.0000

> <Gold.Chemscore.Hbonds>
donor molecule, donor type, donor heavy atom, donor atom, acceptor molecule, acceptor atom, score
      L1  H    15    28       P1  8028  0.24
      L1  H    19    31       P1  7948  0.80
      P1  H  8022  8030       L1    15  1.00
      L1  C     4    22       P1  7921  1.00

> <Gold.PLP.Chemscore.Internal.Correction>
0.0024

> <Gold.Rescore>
     Score         DG    S(hbond)    S(metal)    S(lipo)     H(rot)  DE(clash)    DE(int)     intcor
      4.89      -6.58       1.81        0.00      27.40       3.19       1.52       0.17       ----

> <Gold.Chemscore.Fitness>
4.8874

> <Gold.Chemscore.DG>
-6.5793

> <Gold.Chemscore.ZeroCoef>
-5.4800

> <Gold.Chemscore.Hbond>
1.8145

> <Gold.Chemscore.Metal>
0.0000

> <Gold.Chemscore.Lipo>
27.3976

> <Gold.Chemscore.Internal_Hbond>
0.0000

> <Gold.Chemscore.DEClash>
1.5248

> <Gold.Chemscore.DEInternal>
0.1670

> <Gold.Chemscore.Rot>
3.1901

> <Gold.Chemscore.Internal.Correction>
   9.000000E+99

> <Gold.Chemscore.Hbonds>
donor molecule, donor type, donor heavy atom, donor atom, acceptor molecule, acceptor atom, score
      L1  H    15    28       P1  8028  0.22
      L1  H    19    31       P1  7948  0.78
      P1  H  8022  8030       L1    15  0.29

> <Gold.Chemscore.Hbond.Weighted>
-6.0604

> <Gold.Chemscore.Metal.Weighted>
-0.0000

> <Gold.Chemscore.Lipo.Weighted>
-3.2055

> <Gold.Chemscore.Internal_Hbond.Weighted>
0.0000

> <Gold.Chemscore.DEClash.Weighted>
1.5248

> <Gold.Chemscore.DEInternal.Weighted>
0.1670

> <Gold.Chemscore.Rot.Weighted>
8.1667

> <Gold.Chemscore.Internal.Correction.Weighted>
   9.000000E+99

> <Gold.Protein.RotatedTorsions>
[ 6907 6896 6895 6894 ] final  -38.14 input  -60.11 | X-H torsion
[ 7974 7965 7964 7962 ] final  -93.05 input  175.53 | X-H torsion
[ 8008 7997 7996 7995 ] final  -99.44 input   59.86 | X-H torsion
[ 10167 10162 10161 10158 ] final -161.02 input  -65.29 | X-H torsion
[ 10718 10713 10712 10709 ] final -113.87 input   66.30 | X-H torsion
[ 10763 10752 10751 10750 ] final  158.70 input  -60.55 | X-H torsion
[ 11005 11000 10999 10996 ] final -154.21 input  -57.11 | X-H torsion

> <Gold.Protein.ActiveResidues>
 VAL166  LYS551  ARG553  GLY616  TRP617  ASP618  TYR619  PRO620  LYS621  CYS622 
 ASP623  PHE694  ASN695  SER759  ASP760  ASP761  ALA762  ILE779  LEU786  VAL792 
 PHE793  MET794  SER795  GLU796  ALA797  LYS798  CYS799  TRP800  GLU811  SER814 

> <Gold.Protein.RotatedAtoms>
  151.0061  134.9360  159.7980 H   0  0  0  0  0  0  0  0  0  0  0  0  # atno 6907 bound_to 6896
  152.5290  134.3090  159.9116 H   0  0  0  0  0  0  0  0  0  0  0  0  # atno 6908 bound_to 6896
  151.3096  133.4045  159.2680 H   0  0  0  0  0  0  0  0  0  0  0  0  # atno 6909 bound_to 6896
  145.3917  140.9529  143.2337 H   0  0  0  0  0  0  0  0  0  0  0  0  # atno 7974 bound_to 7965
  154.8149  140.0448  157.1369 H   0  0  0  0  0  0  0  0  0  0  0  0  # atno 8008 bound_to 7997
  154.9325  140.3042  155.5140 H   0  0  0  0  0  0  0  0  0  0  0  0  # atno 8009 bound_to 7997
  156.2975  140.2320  156.4387 H   0  0  0  0  0  0  0  0  0  0  0  0  # atno 8010 bound_to 7997
  139.6496  144.0109  152.2152 H   0  0  0  0  0  0  0  0  0  0  0  0  # atno 10167 bound_to 10162
  156.0794  130.5996  150.8700 H   0  0  0  0  0  0  0  0  0  0  0  0  # atno 10718 bound_to 10713
  154.2202  135.2782  155.2927 H   0  0  0  0  0  0  0  0  0  0  0  0  # atno 10763 bound_to 10752
  154.5708  135.5619  153.7096 H   0  0  0  0  0  0  0  0  0  0  0  0  # atno 10764 bound_to 10752
  153.0043  135.6321  154.2342 H   0  0  0  0  0  0  0  0  0  0  0  0  # atno 10765 bound_to 10752
  140.6997  134.3950  157.5211 H   0  0  0  0  0  0  0  0  0  0  0  0  # atno 11005 bound_to 11000
  144.8436  139.5433  143.6889 LP  0  0  0  0  0  0  0  0  0  0  0  0  # atno 17320 bound_to 7965
  146.2794  139.6838  142.9239 LP  0  0  0  0  0  0  0  0  0  0  0  0  # atno 17321 bound_to 7965
  139.9819  144.6422  150.7893 LP  0  0  0  0  0  0  0  0  0  0  0  0  # atno 17342 bound_to 10162
  140.7531  143.3002  151.3099 LP  0  0  0  0  0  0  0  0  0  0  0  0  # atno 17343 bound_to 10162
  157.5904  131.0944  150.9128 LP  0  0  0  0  0  0  0  0  0  0  0  0  # atno 17370 bound_to 10713
  156.9305  130.5348  149.5279 LP  0  0  0  0  0  0  0  0  0  0  0  0  # atno 17371 bound_to 10713
  139.8900  134.8816  156.2392 LP  0  0  0  0  0  0  0  0  0  0  0  0  # atno 17394 bound_to 11000
  141.0173  133.7061  156.1210 LP  0  0  0  0  0  0  0  0  0  0  0  0  # atno 17395 bound_to 11000

$$$$
