AV-unprocessed.smi:2339|AV-procd|sdf|9342|dock10
  -GOLD-   2272012563D 1   1.00000     0.00000
 Structure written by MMmdl.
 49 52  0  0  0  0  0  0  0  0  1 V2000
  145.8682  142.9794  155.1727 C   0  0  0  0  0  0  0  0  0  0  0  0
  146.6708  142.6620  153.9062 C   0  0  0  0  0  0  0  0  0  0  0  0
  147.4590  141.4475  154.0566 N   0  0  0  0  0  0  0  0  0  0  0  0
  148.7217  141.4746  154.6396 C   0  0  0  0  0  0  0  0  0  0  0  0
  149.5282  140.4009  154.7448 C   0  0  0  0  0  0  0  0  0  0  0  0
  149.0742  139.1004  154.2124 C   0  0  0  0  0  0  0  0  0  0  0  0
  149.7851  138.0982  154.2902 O   0  0  0  0  0  0  0  0  0  0  0  0
  147.7275  139.0729  153.5836 C   0  0  0  0  0  0  0  0  0  0  0  0
  147.3053  137.8311  153.0847 N   0  0  0  0  0  0  0  0  0  0  0  0
  146.0727  137.2841  153.0677 C   0  0  0  0  0  0  0  0  0  0  0  0
  145.0534  137.8093  153.5094 O   0  0  0  0  0  0  0  0  0  0  0  0
  146.0271  136.0858  152.4597 N   0  0  0  0  0  0  0  0  0  0  0  0
  144.8531  135.2239  152.2678 C   0  0  2  0  0  0  0  0  0  0  0  0
  144.4084  134.4693  153.5455 C   0  0  2  0  0  0  0  0  0  0  0  0
  144.9297  134.7881  154.9265 C   0  0  0  0  0  0  0  0  0  0  0  0
  146.0560  133.7672  155.1118 C   0  0  0  0  0  0  0  0  0  0  0  0
  146.3976  133.3557  153.7902 O   0  0  0  0  0  0  0  0  0  0  0  0
  145.1909  133.2692  153.0370 C   0  0  2  0  0  0  0  0  0  0  0  0
  145.2235  133.8695  151.6171 C   0  0  0  0  0  0  0  0  0  0  0  0
  146.5153  133.7212  150.8124 C   0  0  0  0  0  0  0  0  0  0  0  0
  146.4080  132.4050  150.0397 C   0  0  0  0  0  0  0  0  0  0  0  0
  144.9072  132.1378  149.8918 C   0  0  0  0  0  0  0  0  0  0  0  0
  144.2070  133.2748  150.6431 C   0  0  0  0  0  0  0  0  0  0  0  0
  147.0160  140.2283  153.5474 C   0  0  0  0  0  0  0  0  0  0  0  0
  145.2918  143.8958  155.0456 H   0  0  0  0  0  0  0  0  0  0  0  0
  146.5253  143.1159  156.0319 H   0  0  0  0  0  0  0  0  0  0  0  0
  145.1697  142.1758  155.4078 H   0  0  0  0  0  0  0  0  0  0  0  0
  145.9956  142.5552  153.0562 H   0  0  0  0  0  0  0  0  0  0  0  0
  147.3313  143.4966  153.6677 H   0  0  0  0  0  0  0  0  0  0  0  0
  149.0165  142.4425  155.0184 H   0  0  0  0  0  0  0  0  0  0  0  0
  150.5011  140.4694  155.2092 H   0  0  0  0  0  0  0  0  0  0  0  0
  148.0344  137.2902  152.6425 H   0  0  0  0  0  0  0  0  0  0  0  0
  146.8817  135.7645  152.0279 H   0  0  0  0  0  0  0  0  0  0  0  0
  144.0250  135.7138  151.7526 H   0  0  0  0  0  0  0  0  0  0  0  0
  143.3352  134.2736  153.5191 H   0  0  0  0  0  0  0  0  0  0  0  0
  145.3046  135.8071  155.0058 H   0  0  0  0  0  0  0  0  0  0  0  0
  144.1634  134.6673  155.6925 H   0  0  0  0  0  0  0  0  0  0  0  0
  146.9170  134.1817  155.6365 H   0  0  0  0  0  0  0  0  0  0  0  0
  145.6990  132.9014  155.6714 H   0  0  0  0  0  0  0  0  0  0  0  0
  144.6720  132.3161  153.1496 H   0  0  0  0  0  0  0  0  0  0  0  0
  146.6077  134.5463  150.1047 H   0  0  0  0  0  0  0  0  0  0  0  0
  147.4090  133.7413  151.4368 H   0  0  0  0  0  0  0  0  0  0  0  0
  146.9154  132.4600  149.0762 H   0  0  0  0  0  0  0  0  0  0  0  0
  146.8708  131.5987  150.6099 H   0  0  0  0  0  0  0  0  0  0  0  0
  144.5994  132.1057  148.8462 H   0  0  0  0  0  0  0  0  0  0  0  0
  144.6559  131.1747  150.3380 H   0  0  0  0  0  0  0  0  0  0  0  0
  143.3045  132.9220  151.1438 H   0  0  0  0  0  0  0  0  0  0  0  0
  143.8900  134.0353  149.9279 H   0  0  0  0  0  0  0  0  0  0  0  0
  146.0249  140.2953  153.1280 H   0  0  0  0  0  0  0  0  0  0  0  0
  1  2  1  0  0  0  0
  1 25  1  0  0  0  0
  1 26  1  0  0  0  0
  1 27  1  0  0  0  0
  2  3  1  0  0  0  0
  2 28  1  0  0  0  0
  2 29  1  0  0  0  0
  3 24  1  0  0  0  0
  3  4  1  0  0  0  0
  4  5  2  0  0  0  0
  4 30  1  0  0  0  0
  5  6  1  0  0  0  0
  5 31  1  0  0  0  0
  6  7  2  0  0  0  0
  6  8  1  0  0  0  0
  8  9  1  0  0  0  0
  8 24  2  0  0  0  0
  9 10  1  0  0  0  0
  9 32  1  0  0  0  0
 10 11  2  0  0  0  0
 10 12  1  0  0  0  0
 12 13  1  0  0  0  0
 12 33  1  0  0  0  0
 13 19  1  0  0  0  0
 13 14  1  0  0  0  0
 13 34  1  0  0  0  0
 14 18  1  0  0  0  0
 14 15  1  0  0  0  0
 14 35  1  0  0  0  0
 15 16  1  0  0  0  0
 15 36  1  0  0  0  0
 15 37  1  0  0  0  0
 16 17  1  0  0  0  0
 16 38  1  0  0  0  0
 16 39  1  0  0  0  0
 17 18  1  0  0  0  0
 18 19  1  0  0  0  0
 18 40  1  0  0  0  0
 19 23  1  0  0  0  0
 19 20  1  0  0  0  0
 20 21  1  0  0  0  0
 20 41  1  0  0  0  0
 20 42  1  0  0  0  0
 21 22  1  0  0  0  0
 21 43  1  0  0  0  0
 21 44  1  0  0  0  0
 22 23  1  0  0  0  0
 22 45  1  0  0  0  0
 22 46  1  0  0  0  0
 23 47  1  0  0  0  0
 23 48  1  0  0  0  0
 24 49  1  0  0  0  0
M  END
> <s_m_source_file>
AV-unprocessed.smi

> <i_m_source_file_index>
2339

> <i_lp_mmshare_version>
43012

> <i_f3d_flags>
0

> <s_epik_input>
W0NIM11bQ0gyXW4xW2NIXVtjSF1jKD1PKWMoW2NIXTEpW05IXUMoPU8pW05IXVtDQEBIXTJbQ0BASF0oW0NIMl1bQ0gyXU8zKVtDQEBIXTNDMjRbQ0gyXVtDSDJdW0NIMl1bQ0gyXTQ=

> <s_epik_cmdline>
J2VwaWtfcHl0aG9uJywgJy1waCcsICc3LjAnLCAnLXRuJywgJzgnLCAnLW1hJywgJzIwMCcsICctbWV0YWxfYmluZGluZycsICctaW1hZScsICc8aW5maWxlLm1hZT4nLCAnLW9tYWUnLCAnPG91dGZpbGUubWFlPic=

> <r_lp_tautomer_probability>
1

> <r_epik_Ionization_Penalty>
0.00145966

> <r_epik_Ionization_Penalty_Charging>
0.00143969

> <r_epik_Ionization_Penalty_Neutral>
1.99697e-05

> <r_epik_State_Penalty>
0.000961843

> <r_epik_Charging_Adjusted_Penalty>
0.00240153

> <i_epik_Tot_Q>
0

> <i_epik_Tot_abs_Q>
0

> <r_epik_Metal_State_Penalty>
-0

> <b_epik_Metal_Only>
0

> <s_lp_Force_Field>
OPLS_2005

> <r_lp_Energy>
59.2385

> <b_lp_Chiralities_Consistent>
1

> <s_lp_Variant>
AV-unprocessed.smi:2339-7

> <Gold.Version>
5.8.1

> <Gold.Id.Protein>
6NUR|6NUR_protein|mol2

> <Gold.PLP.Fitness>
48.3976

> <Gold.PLP.PLP>
-38.4273

> <Gold.PLP.part.hbond>
-2.0000

> <Gold.PLP.part.metal>
0.0000

> <Gold.PLP.part.buried>
-4.3640

> <Gold.PLP.part.nonpolar>
-32.9016

> <Gold.PLP.part.repulsive>
0.7704

> <Gold.PLP.ligand.clash>
0.0000

> <Gold.PLP.ligand.torsion>
0.6900

> <Gold.PLP.Chemscore.Hbond>
1.7160

> <Gold.PLP.Chemscore.CHOScore>
2.0000

> <Gold.PLP.Chemscore.Metal>
0.0000

> <Gold.Chemscore.Hbonds>
donor molecule, donor type, donor heavy atom, donor atom, acceptor molecule, acceptor atom, score
      L1  H     9    32       P1  7948  1.00
      L1  H    12    33       P1  7948  0.70
      L1  C     4    30       P1  8028  1.00
      L1  C    24    49       P1 10175  1.00

> <Gold.PLP.Chemscore.Internal.Correction>
0.2022

> <Gold.Rescore>
     Score         DG    S(hbond)    S(metal)    S(lipo)     H(rot)  DE(clash)    DE(int)     intcor
     18.20     -19.09       1.79        0.00      90.68       1.17       0.19       0.69       ----

> <Gold.Chemscore.Fitness>
18.2045

> <Gold.Chemscore.DG>
-19.0886

> <Gold.Chemscore.ZeroCoef>
-5.4800

> <Gold.Chemscore.Hbond>
1.7924

> <Gold.Chemscore.Metal>
0.0000

> <Gold.Chemscore.Lipo>
90.6796

> <Gold.Chemscore.Internal_Hbond>
0.0000

> <Gold.Chemscore.DEClash>
0.1904

> <Gold.Chemscore.DEInternal>
0.6937

> <Gold.Chemscore.Rot>
1.1670

> <Gold.Chemscore.Internal.Correction>
   9.000000E+99

> <Gold.Chemscore.Hbonds>
donor molecule, donor type, donor heavy atom, donor atom, acceptor molecule, acceptor atom, score
      L1  H     9    32       P1  7948  0.98
      L1  H    12    33       P1  7948  0.68

> <Gold.Chemscore.Hbond.Weighted>
-5.9865

> <Gold.Chemscore.Metal.Weighted>
-0.0000

> <Gold.Chemscore.Lipo.Weighted>
-10.6095

> <Gold.Chemscore.Internal_Hbond.Weighted>
0.0000

> <Gold.Chemscore.DEClash.Weighted>
0.1904

> <Gold.Chemscore.DEInternal.Weighted>
0.6937

> <Gold.Chemscore.Rot.Weighted>
2.9874

> <Gold.Chemscore.Internal.Correction.Weighted>
   9.000000E+99

> <Gold.Protein.RotatedTorsions>
[ 6907 6896 6895 6894 ] final -159.17 input  -60.11 | X-H torsion
[ 7974 7965 7964 7962 ] final    2.32 input  175.53 | X-H torsion
[ 8008 7997 7996 7995 ] final    2.70 input   59.86 | X-H torsion
[ 10167 10162 10161 10158 ] final  123.78 input  -65.29 | X-H torsion
[ 10718 10713 10712 10709 ] final   48.39 input   66.30 | X-H torsion
[ 10763 10752 10751 10750 ] final  110.05 input  -60.55 | X-H torsion
[ 11005 11000 10999 10996 ] final   79.98 input  -57.11 | X-H torsion

> <Gold.Protein.ActiveResidues>
 VAL166  LYS551  ARG553  GLY616  TRP617  ASP618  TYR619  PRO620  LYS621  CYS622 
 ASP623  PHE694  ASN695  SER759  ASP760  ASP761  ALA762  ILE779  LEU786  VAL792 
 PHE793  MET794  SER795  GLU796  ALA797  LYS798  CYS799  TRP800  GLU811  SER814 

> <Gold.Protein.RotatedAtoms>
  151.3294  133.4006  159.2661 H   0  0  0  0  0  0  0  0  0  0  0  0  # atno 6907 bound_to 6896
  150.9968  134.9290  159.7941 H   0  0  0  0  0  0  0  0  0  0  0  0  # atno 6908 bound_to 6896
  152.5263  134.3259  159.9218 H   0  0  0  0  0  0  0  0  0  0  0  0  # atno 6909 bound_to 6896
  146.2443  140.0853  142.8355 H   0  0  0  0  0  0  0  0  0  0  0  0  # atno 7974 bound_to 7965
  154.6948  140.2661  155.6777 H   0  0  0  0  0  0  0  0  0  0  0  0  # atno 8008 bound_to 7997
  156.2745  140.2784  156.1462 H   0  0  0  0  0  0  0  0  0  0  0  0  # atno 8009 bound_to 7997
  155.0846  140.0373  157.2640 H   0  0  0  0  0  0  0  0  0  0  0  0  # atno 8010 bound_to 7997
  139.5779  144.6972  151.3604 H   0  0  0  0  0  0  0  0  0  0  0  0  # atno 10167 bound_to 10162
  157.4682  130.8239  149.7959 H   0  0  0  0  0  0  0  0  0  0  0  0  # atno 10718 bound_to 10713
  153.4434  135.3761  155.2241 H   0  0  0  0  0  0  0  0  0  0  0  0  # atno 10763 bound_to 10752
  154.8754  135.3868  154.4125 H   0  0  0  0  0  0  0  0  0  0  0  0  # atno 10764 bound_to 10752
  153.4674  135.7087  153.6077 H   0  0  0  0  0  0  0  0  0  0  0  0  # atno 10765 bound_to 10752
  139.9152  134.7885  156.1849 H   0  0  0  0  0  0  0  0  0  0  0  0  # atno 11005 bound_to 11000
  145.0697  140.9147  143.4889 LP  0  0  0  0  0  0  0  0  0  0  0  0  # atno 17320 bound_to 7965
  145.0985  139.2839  143.5698 LP  0  0  0  0  0  0  0  0  0  0  0  0  # atno 17321 bound_to 7965
  140.7060  143.7512  150.7483 LP  0  0  0  0  0  0  0  0  0  0  0  0  # atno 17342 bound_to 10162
  140.1036  143.4764  152.2411 LP  0  0  0  0  0  0  0  0  0  0  0  0  # atno 17343 bound_to 10162
  156.0060  130.3855  150.2429 LP  0  0  0  0  0  0  0  0  0  0  0  0  # atno 17370 bound_to 10713
  157.0610  131.0090  151.3222 LP  0  0  0  0  0  0  0  0  0  0  0  0  # atno 17371 bound_to 10713
  141.0619  133.6837  156.1969 LP  0  0  0  0  0  0  0  0  0  0  0  0  # atno 17394 bound_to 11000
  140.6647  134.4931  157.5585 LP  0  0  0  0  0  0  0  0  0  0  0  0  # atno 17395 bound_to 11000

$$$$
