AV-unprocessed.smi:2188|AV-procd|sdf|8881|dock7
  -GOLD-   2272012 83D 1   1.00000     0.00000
 Structure written by MMmdl.
 40 42  0  0  0  0  0  0  0  0  2 V2000
  153.0318  141.4001  161.7104 O   0  0  0  0  0  0  0  0  0  0  0  0
  152.4930  142.5041  161.6093 C   0  0  0  0  0  0  0  0  0  0  0  0
  152.2765  143.2675  162.6990 N   0  0  0  0  0  0  0  0  0  0  0  0
  152.6374  142.9265  164.0741 C   0  0  0  0  0  0  0  0  0  0  0  0
  153.6787  143.8941  164.6720 C   0  0  0  0  0  0  0  0  0  0  0  0
  153.9708  143.6458  166.1422 C   0  0  0  0  0  0  0  0  0  0  0  0
  153.7886  144.6700  167.0983 C   0  0  0  0  0  0  0  0  0  0  0  0
  154.1080  144.4202  168.4490 C   0  0  0  0  0  0  0  0  0  0  0  0
  154.6012  143.1510  168.8144 C   0  0  0  0  0  0  0  0  0  0  0  0
  154.7574  142.1941  167.8735 N   0  3  0  0  0  0  0  0  0  0  0  0
  154.4609  142.3929  166.5705 C   0  0  0  0  0  0  0  0  0  0  0  0
  152.0484  143.1199  160.3411 C   0  0  0  0  0  0  0  0  0  0  0  0
  152.0028  144.4760  160.2381 C   0  0  0  0  0  0  0  0  0  0  0  0
  151.5605  145.1356  159.0350 C   0  0  0  0  0  0  0  0  0  0  0  0
  151.2278  144.3757  157.9870 C   0  0  0  0  0  0  0  0  0  0  0  0
  151.2920  142.9842  158.0037 N   0  0  0  0  0  0  0  0  0  0  0  0
  151.0153  142.2966  156.7466 C   0  0  0  0  0  0  0  0  0  0  0  0
  150.1933  141.0458  156.9958 C   0  0  0  0  0  0  0  0  0  0  0  0
  151.2468  139.9530  158.0140 S   0  0  0  0  0  0  0  0  0  0  0  0
  150.4184  138.8383  158.4976 O   0  0  0  0  0  0  0  0  0  0  0  0
  152.4747  139.6651  157.2564 O   0  0  0  0  0  0  0  0  0  0  0  0
  151.6137  140.9821  159.2832 N   0  0  0  0  0  0  0  0  0  0  0  0
  151.6521  142.2814  159.1884 C   0  0  0  0  0  0  0  0  0  0  0  0
  151.8246  144.1598  162.5607 H   0  0  0  0  0  0  0  0  0  0  0  0
  151.7283  142.9587  164.6750 H   0  0  0  0  0  0  0  0  0  0  0  0
  152.9986  141.8984  164.1314 H   0  0  0  0  0  0  0  0  0  0  0  0
  154.6082  143.8281  164.1049 H   0  0  0  0  0  0  0  0  0  0  0  0
  153.3285  144.9207  164.5584 H   0  0  0  0  0  0  0  0  0  0  0  0
  153.4218  145.6414  166.8001 H   0  0  0  0  0  0  0  0  0  0  0  0
  153.9821  145.1931  169.1926 H   0  0  0  0  0  0  0  0  0  0  0  0
  154.8751  142.8750  169.8223 H   0  0  0  0  0  0  0  0  0  0  0  0
  154.6420  141.5558  165.9119 H   0  0  0  0  0  0  0  0  0  0  0  0
  152.3030  145.1177  161.0537 H   0  0  0  0  0  0  0  0  0  0  0  0
  151.4956  146.2125  158.9833 H   0  0  0  0  0  0  0  0  0  0  0  0
  150.8868  144.8117  157.0591 H   0  0  0  0  0  0  0  0  0  0  0  0
  150.4670  142.9466  156.0637 H   0  0  0  0  0  0  0  0  0  0  0  0
  151.9571  142.0517  156.2548 H   0  0  0  0  0  0  0  0  0  0  0  0
  149.2675  141.2603  157.5306 H   0  0  0  0  0  0  0  0  0  0  0  0
  149.9480  140.5301  156.0675 H   0  0  0  0  0  0  0  0  0  0  0  0
  155.1203  141.2839  168.1580 H   0  0  0  0  0  0  0  0  0  0  0  0
  1  2  2  0  0  0  0
  2  3  1  0  0  0  0
  2 12  1  0  0  0  0
  3  4  1  0  0  0  0
  3 24  1  0  0  0  0
  4  5  1  0  0  0  0
  4 25  1  0  0  0  0
  4 26  1  0  0  0  0
  5  6  1  0  0  0  0
  5 27  1  0  0  0  0
  5 28  1  0  0  0  0
  6 11  1  0  0  0  0
  6  7  2  0  0  0  0
  7  8  1  0  0  0  0
  7 29  1  0  0  0  0
  8  9  2  0  0  0  0
  8 30  1  0  0  0  0
  9 10  1  0  0  0  0
  9 31  1  0  0  0  0
 10 11  2  0  0  0  0
 10 40  1  0  0  0  0
 11 32  1  0  0  0  0
 12 23  1  0  0  0  0
 12 13  2  0  0  0  0
 13 14  1  0  0  0  0
 13 33  1  0  0  0  0
 14 15  2  0  0  0  0
 14 34  1  0  0  0  0
 15 16  1  0  0  0  0
 15 35  1  0  0  0  0
 16 23  1  0  0  0  0
 16 17  1  0  0  0  0
 17 18  1  0  0  0  0
 17 36  1  0  0  0  0
 17 37  1  0  0  0  0
 18 19  1  0  0  0  0
 18 38  1  0  0  0  0
 18 39  1  0  0  0  0
 19 20  2  0  0  0  0
 19 21  2  0  0  0  0
 19 22  1  0  0  0  0
 22 23  2  0  0  0  0
M  CHG  1  10   1
M  END
> <s_m_source_file>
AV-unprocessed.smi

> <i_m_source_file_index>
2188

> <i_lp_mmshare_version>
43012

> <i_f3d_flags>
0

> <s_epik_input>
W0NIMl0xW0NIMl1TKD1PKSg9TylOPUMoTjEyKUMoPVtDSF1bQ0hdPVtDSF0yKUMoPU8pW05IXVtDSDJdW0NIMl1jM1tjSF1bY0hdW2NIXW5bY0hdMw==

> <s_epik_cmdline>
J2VwaWtfcHl0aG9uJywgJy1waCcsICc3LjAnLCAnLXRuJywgJzgnLCAnLW1hJywgJzIwMCcsICctbWV0YWxfYmluZGluZycsICctaW1hZScsICc8aW5maWxlLm1hZT4nLCAnLW9tYWUnLCAnPG91dGZpbGUubWFlPic=

> <r_epik_Ionization_Penalty>
2.45954

> <r_epik_Ionization_Penalty_Charging>
2.45946

> <r_epik_Ionization_Penalty_Neutral>
8.13788e-05

> <r_epik_State_Penalty>
2.62155

> <r_epik_Charging_Adjusted_Penalty>
5.08101

> <i_epik_Tot_Q>
1

> <i_epik_Tot_abs_Q>
1

> <r_epik_Metal_State_Penalty>
2.74793

> <b_epik_Metal_Only>
0

> <s_lp_Force_Field>
OPLS_2005

> <r_lp_Energy>
33.7727

> <b_lp_Chiralities_Consistent>
1

> <s_lp_Variant>
AV-unprocessed.smi:2188-2

> <Gold.Version>
5.8.1

> <Gold.Id.Protein>
6NUR|6NUR_protein|mol2

> <Gold.PLP.Fitness>
56.8527

> <Gold.PLP.PLP>
-51.4088

> <Gold.PLP.part.hbond>
-1.0000

> <Gold.PLP.part.metal>
0.0000

> <Gold.PLP.part.buried>
-6.6187

> <Gold.PLP.part.nonpolar>
-43.3297

> <Gold.PLP.part.repulsive>
0.1022

> <Gold.PLP.ligand.clash>
0.0000

> <Gold.PLP.ligand.torsion>
0.3349

> <Gold.PLP.Chemscore.Hbond>
1.0000

> <Gold.PLP.Chemscore.CHOScore>
1.0000

> <Gold.PLP.Chemscore.Metal>
0.0000

> <Gold.Chemscore.Hbonds>
donor molecule, donor type, donor heavy atom, donor atom, acceptor molecule, acceptor atom, score
      P1  H  7997  8008       L1    21  0.91
      L1  C    15    35       P1  8028  1.00

> <Gold.PLP.Chemscore.Internal.Correction>
0.1137

> <Gold.Rescore>
     Score         DG    S(hbond)    S(metal)    S(lipo)     H(rot)  DE(clash)    DE(int)     intcor
     16.79     -18.63       0.99        0.00     117.84       1.54       0.18       1.67       ----

> <Gold.Chemscore.Fitness>
16.7886

> <Gold.Chemscore.DG>
-18.6308

> <Gold.Chemscore.ZeroCoef>
-5.4800

> <Gold.Chemscore.Hbond>
0.9863

> <Gold.Chemscore.Metal>
0.0000

> <Gold.Chemscore.Lipo>
117.8428

> <Gold.Chemscore.Internal_Hbond>
0.0000

> <Gold.Chemscore.DEClash>
0.1752

> <Gold.Chemscore.DEInternal>
1.6670

> <Gold.Chemscore.Rot>
1.5355

> <Gold.Chemscore.Internal.Correction>
   9.000000E+99

> <Gold.Chemscore.Hbonds>
donor molecule, donor type, donor heavy atom, donor atom, acceptor molecule, acceptor atom, score
      P1  H  7997  8008       L1    21  0.87

> <Gold.Chemscore.Hbond.Weighted>
-3.2942

> <Gold.Chemscore.Metal.Weighted>
-0.0000

> <Gold.Chemscore.Lipo.Weighted>
-13.7876

> <Gold.Chemscore.Internal_Hbond.Weighted>
0.0000

> <Gold.Chemscore.DEClash.Weighted>
0.1752

> <Gold.Chemscore.DEInternal.Weighted>
1.6670

> <Gold.Chemscore.Rot.Weighted>
3.9309

> <Gold.Chemscore.Internal.Correction.Weighted>
   9.000000E+99

> <Gold.Protein.RotatedTorsions>
[ 6907 6896 6895 6894 ] final    4.17 input  -60.11 | X-H torsion
[ 7974 7965 7964 7962 ] final   10.19 input  175.53 | X-H torsion
[ 8008 7997 7996 7995 ] final  -73.29 input   59.86 | X-H torsion
[ 10167 10162 10161 10158 ] final -166.60 input  -65.29 | X-H torsion
[ 10718 10713 10712 10709 ] final  -99.40 input   66.30 | X-H torsion
[ 10763 10752 10751 10750 ] final   98.01 input  -60.55 | X-H torsion
[ 11005 11000 10999 10996 ] final   97.93 input  -57.11 | X-H torsion

> <Gold.Protein.ActiveResidues>
 VAL166  LYS551  ARG553  GLY616  TRP617  ASP618  TYR619  PRO620  LYS621  CYS622 
 ASP623  PHE694  ASN695  SER759  ASP760  ASP761  ALA762  ILE779  LEU786  VAL792 
 PHE793  MET794  SER795  GLU796  ALA797  LYS798  CYS799  TRP800  GLU811  SER814 

> <Gold.Protein.RotatedAtoms>
  151.6370  135.1017  160.0133 H   0  0  0  0  0  0  0  0  0  0  0  0  # atno 6907 bound_to 6896
  152.4075  133.6908  159.6377 H   0  0  0  0  0  0  0  0  0  0  0  0  # atno 6908 bound_to 6896
  150.7968  133.8600  159.3270 H   0  0  0  0  0  0  0  0  0  0  0  0  # atno 6909 bound_to 6896
  146.2392  139.9671  142.8451 H   0  0  0  0  0  0  0  0  0  0  0  0  # atno 7974 bound_to 7965
  154.5235  140.0782  156.8216 H   0  0  0  0  0  0  0  0  0  0  0  0  # atno 8008 bound_to 7997
  155.3525  140.3413  155.4221 H   0  0  0  0  0  0  0  0  0  0  0  0  # atno 8009 bound_to 7997
  156.1707  140.1618  156.8440 H   0  0  0  0  0  0  0  0  0  0  0  0  # atno 8010 bound_to 7997
  139.6104  144.0826  152.1836 H   0  0  0  0  0  0  0  0  0  0  0  0  # atno 10167 bound_to 10162
  156.0133  130.5281  150.6664 H   0  0  0  0  0  0  0  0  0  0  0  0  # atno 10718 bound_to 10713
  153.2839  135.4163  155.1104 H   0  0  0  0  0  0  0  0  0  0  0  0  # atno 10763 bound_to 10752
  154.8498  135.3502  154.6074 H   0  0  0  0  0  0  0  0  0  0  0  0  # atno 10764 bound_to 10752
  153.6496  135.7053  153.5271 H   0  0  0  0  0  0  0  0  0  0  0  0  # atno 10765 bound_to 10752
  139.8774  134.9025  156.4381 H   0  0  0  0  0  0  0  0  0  0  0  0  # atno 11005 bound_to 11000
  145.1716  140.9724  143.4318 LP  0  0  0  0  0  0  0  0  0  0  0  0  # atno 17320 bound_to 7965
  145.0023  139.3587  143.6161 LP  0  0  0  0  0  0  0  0  0  0  0  0  # atno 17321 bound_to 7965
  140.0443  144.5982  150.7386 LP  0  0  0  0  0  0  0  0  0  0  0  0  # atno 17342 bound_to 10162
  140.7315  143.2695  151.3934 LP  0  0  0  0  0  0  0  0  0  0  0  0  # atno 17343 bound_to 10162
  157.4396  131.0859  151.0957 LP  0  0  0  0  0  0  0  0  0  0  0  0  # atno 17370 bound_to 10713
  157.1505  130.6182  149.5581 LP  0  0  0  0  0  0  0  0  0  0  0  0  # atno 17371 bound_to 10713
  140.9019  133.7773  155.9690 LP  0  0  0  0  0  0  0  0  0  0  0  0  # atno 17394 bound_to 11000
  140.8641  134.2805  157.5221 LP  0  0  0  0  0  0  0  0  0  0  0  0  # atno 17395 bound_to 11000

$$$$
