AV-unprocessed.smi:29|AV-procd|sdf|192|dock4
  -GOLD-   2262015463D 1   1.00000     0.00000
 Structure written by MMmdl.
 56 59  0  0  0  0  0  0  0  0  1 V2000
  150.6643  137.2242  159.9020 O   0  0  0  0  0  0  0  0  0  0  0  0
  150.3131  137.5016  158.7570 C   0  0  0  0  0  0  0  0  0  0  0  0
  151.3495  138.1310  157.8081 C   0  0  0  0  0  0  0  0  0  0  0  0
  151.1646  139.5779  157.5426 N   0  0  0  0  0  0  0  0  0  0  0  0
  150.5114  139.9667  156.3476 C   0  0  0  0  0  0  0  0  0  0  0  0
  150.1362  139.1319  155.5234 O   0  0  0  0  0  0  0  0  0  0  0  0
  150.3215  141.4011  156.1736 C   0  0  0  0  0  0  0  0  0  0  0  0
  149.6597  141.8590  155.0974 F   0  0  0  0  0  0  0  0  0  0  0  0
  150.7908  142.2796  157.0825 C   0  0  0  0  0  0  0  0  0  0  0  0
  151.4917  141.8927  158.2131 N   0  0  0  0  0  0  0  0  0  0  0  0
  151.9727  142.8847  159.2622 C   0  0  1  0  0  0  0  0  0  0  0  0
  152.8874  143.9908  158.7179 C   0  0  0  0  0  0  0  0  0  0  0  0
  151.9304  145.1576  158.4907 C   0  0  0  0  0  0  0  0  0  0  0  0
  150.5613  144.6341  158.9378 C   0  0  0  0  0  0  0  0  0  0  0  0
  150.8637  143.5388  159.7910 O   0  0  0  0  0  0  0  0  0  0  0  0
  151.6529  140.5153  158.4844 C   0  0  0  0  0  0  0  0  0  0  0  0
  152.2188  140.1378  159.5126 O   0  0  0  0  0  0  0  0  0  0  0  0
  149.0711  137.3111  158.2711 N   0  0  0  0  0  0  0  0  0  0  0  0
  147.9000  136.7878  158.8922 C   0  0  0  0  0  0  0  0  0  0  0  0
  147.8785  136.2846  160.2167 C   0  0  0  0  0  0  0  0  0  0  0  0
  146.6898  135.7749  160.7791 C   0  0  0  0  0  0  0  0  0  0  0  0
  146.6970  135.2374  162.2028 C   0  0  0  0  0  0  0  0  0  0  0  0
  145.4591  135.0703  162.6698 F   0  0  0  0  0  0  0  0  0  0  0  0
  147.3242  134.0620  162.2243 F   0  0  0  0  0  0  0  0  0  0  0  0
  147.3376  136.0813  163.0121 F   0  0  0  0  0  0  0  0  0  0  0  0
  145.5125  135.7511  160.0042 C   0  0  0  0  0  0  0  0  0  0  0  0
  145.5251  136.2337  158.6837 C   0  0  0  0  0  0  0  0  0  0  0  0
  146.7128  136.7503  158.1180 C   0  0  0  0  0  0  0  0  0  0  0  0
  146.7234  137.2179  156.7922 N   0  0  0  0  0  0  0  0  0  0  0  0
  146.6262  136.1575  155.7978 C   0  0  0  0  0  0  0  0  0  0  0  0
  146.8017  136.7457  154.3883 C   0  0  0  0  0  0  0  0  0  0  0  0
  145.8469  137.7821  154.1778 O   0  0  0  0  0  0  0  0  0  0  0  0
  145.9982  138.8488  155.1106 C   0  0  0  0  0  0  0  0  0  0  0  0
  145.8024  138.3187  156.5415 C   0  0  0  0  0  0  0  0  0  0  0  0
  152.3430  137.9382  158.2162 H   0  0  0  0  0  0  0  0  0  0  0  0
  151.3402  137.5620  156.8773 H   0  0  0  0  0  0  0  0  0  0  0  0
  150.5919  143.3235  156.8997 H   0  0  0  0  0  0  0  0  0  0  0  0
  152.4838  142.2834  160.0159 H   0  0  0  0  0  0  0  0  0  0  0  0
  153.6038  144.2524  159.4974 H   0  0  0  0  0  0  0  0  0  0  0  0
  153.4563  143.6810  157.8417 H   0  0  0  0  0  0  0  0  0  0  0  0
  152.2320  146.0101  159.1003 H   0  0  0  0  0  0  0  0  0  0  0  0
  151.9131  145.4826  157.4502 H   0  0  0  0  0  0  0  0  0  0  0  0
  149.9736  145.3913  159.4571 H   0  0  0  0  0  0  0  0  0  0  0  0
  149.9785  144.2859  158.0839 H   0  0  0  0  0  0  0  0  0  0  0  0
  148.9285  137.6377  157.3262 H   0  0  0  0  0  0  0  0  0  0  0  0
  148.7672  136.2642  160.8261 H   0  0  0  0  0  0  0  0  0  0  0  0
  144.5946  135.3552  160.4121 H   0  0  0  0  0  0  0  0  0  0  0  0
  144.6145  136.1997  158.1039 H   0  0  0  0  0  0  0  0  0  0  0  0
  147.3910  135.4026  155.9858 H   0  0  0  0  0  0  0  0  0  0  0  0
  145.6567  135.6639  155.8746 H   0  0  0  0  0  0  0  0  0  0  0  0
  147.8098  137.1373  154.2590 H   0  0  0  0  0  0  0  0  0  0  0  0
  146.6614  135.9709  153.6346 H   0  0  0  0  0  0  0  0  0  0  0  0
  146.9814  139.3064  154.9973 H   0  0  0  0  0  0  0  0  0  0  0  0
  145.2610  139.6212  154.8915 H   0  0  0  0  0  0  0  0  0  0  0  0
  144.7737  137.9809  156.6716 H   0  0  0  0  0  0  0  0  0  0  0  0
  145.9753  139.1176  157.2637 H   0  0  0  0  0  0  0  0  0  0  0  0
  1  2  2  0  0  0  0
  2  3  1  0  0  0  0
  2 18  1  0  0  0  0
  3  4  1  0  0  0  0
  3 35  1  0  0  0  0
  3 36  1  0  0  0  0
  4 16  1  0  0  0  0
  4  5  1  0  0  0  0
  5  6  2  0  0  0  0
  5  7  1  0  0  0  0
  7  8  1  0  0  0  0
  7  9  2  0  0  0  0
  9 10  1  0  0  0  0
  9 37  1  0  0  0  0
 10 11  1  0  0  0  0
 10 16  1  0  0  0  0
 11 15  1  0  0  0  0
 11 12  1  0  0  0  0
 11 38  1  0  0  0  0
 12 13  1  0  0  0  0
 12 39  1  0  0  0  0
 12 40  1  0  0  0  0
 13 14  1  0  0  0  0
 13 41  1  0  0  0  0
 13 42  1  0  0  0  0
 14 15  1  0  0  0  0
 14 43  1  0  0  0  0
 14 44  1  0  0  0  0
 16 17  2  0  0  0  0
 18 19  1  0  0  0  0
 18 45  1  0  0  0  0
 19 28  1  0  0  0  0
 19 20  2  0  0  0  0
 20 21  1  0  0  0  0
 20 46  1  0  0  0  0
 21 22  1  0  0  0  0
 21 26  2  0  0  0  0
 22 23  1  0  0  0  0
 22 24  1  0  0  0  0
 22 25  1  0  0  0  0
 26 27  1  0  0  0  0
 26 47  1  0  0  0  0
 27 28  2  0  0  0  0
 27 48  1  0  0  0  0
 28 29  1  0  0  0  0
 29 34  1  0  0  0  0
 29 30  1  0  0  0  0
 30 31  1  0  0  0  0
 30 49  1  0  0  0  0
 30 50  1  0  0  0  0
 31 32  1  0  0  0  0
 31 51  1  0  0  0  0
 31 52  1  0  0  0  0
 32 33  1  0  0  0  0
 33 34  1  0  0  0  0
 33 53  1  0  0  0  0
 33 54  1  0  0  0  0
 34 55  1  0  0  0  0
 34 56  1  0  0  0  0
M  END
> <s_m_source_file>
AV-unprocessed.smi

> <i_m_source_file_index>
29

> <i_lp_mmshare_version>
43012

> <i_f3d_flags>
0

> <s_epik_input>
TzFbQ0gyXVtDSDJdW0NIMl1bQ0BIXTFuKGMyPU8pW2NIXWMoRiljKD1PKW4yW0NIMl1DKD1PKVtOSF1jM1tjSF1jKEMoRikoRilGKVtjSF1bY0hdYzNONFtDSDJdW0NIMl1PW0NIMl1bQ0gyXTQ=

> <s_epik_cmdline>
J2VwaWtfcHl0aG9uJywgJy1waCcsICc3LjAnLCAnLXRuJywgJzgnLCAnLW1hJywgJzIwMCcsICctbWV0YWxfYmluZGluZycsICctaW1hZScsICc8aW5maWxlLm1hZT4nLCAnLW9tYWUnLCAnPG91dGZpbGUubWFlPic=

> <r_lp_tautomer_probability>
1

> <r_epik_Ionization_Penalty>
3.5967e-06

> <r_epik_Ionization_Penalty_Charging>
3.88729e-08

> <r_epik_Ionization_Penalty_Neutral>
3.55783e-06

> <r_epik_State_Penalty>
-0

> <r_epik_Charging_Adjusted_Penalty>
3.88729e-08

> <i_epik_Tot_Q>
0

> <i_epik_Tot_abs_Q>
0

> <r_epik_Metal_State_Penalty>
-0

> <b_epik_Metal_Only>
0

> <s_epik_Chemistry_Notes>
This compound contains an acetal/aminal-like group ( X-CH(R)-Y where X, Y are N, S, or O) that may be acid/base labile, releasing an aldehyde.

> <s_lp_Force_Field>
OPLS_2005

> <r_lp_Energy>
46.7793

> <b_lp_Chiralities_Consistent>
1

> <s_lp_Variant>
AV-unprocessed.smi:29-2

> <Gold.Version>
5.8.1

> <Gold.Id.Protein>
6NUR|6NUR_protein|mol2

> <Gold.PLP.Fitness>
56.7745

> <Gold.PLP.PLP>
-52.5527

> <Gold.PLP.part.hbond>
-1.2955

> <Gold.PLP.part.metal>
0.0000

> <Gold.PLP.part.buried>
-6.9103

> <Gold.PLP.part.nonpolar>
-44.5188

> <Gold.PLP.part.repulsive>
0.3029

> <Gold.PLP.ligand.clash>
0.0000

> <Gold.PLP.ligand.torsion>
1.1653

> <Gold.PLP.Chemscore.Hbond>
0.9913

> <Gold.PLP.Chemscore.CHOScore>
0.8982

> <Gold.PLP.Chemscore.Metal>
0.0000

> <Gold.Chemscore.Hbonds>
donor molecule, donor type, donor heavy atom, donor atom, acceptor molecule, acceptor atom, score
      P1  H  6896  6907       L1     1  0.65
      L1  C     9    37       P1  8028  1.00

> <Gold.PLP.Chemscore.Internal.Correction>
0.8841

> <Gold.Rescore>
     Score         DG    S(hbond)    S(metal)    S(lipo)     H(rot)  DE(clash)    DE(int)     intcor
     11.21     -13.95       0.99        0.00      87.17       1.96       0.21       2.54       ----

> <Gold.Chemscore.Fitness>
11.2101

> <Gold.Chemscore.DG>
-13.9531

> <Gold.Chemscore.ZeroCoef>
-5.4800

> <Gold.Chemscore.Hbond>
0.9887

> <Gold.Chemscore.Metal>
0.0000

> <Gold.Chemscore.Lipo>
87.1708

> <Gold.Chemscore.Internal_Hbond>
0.0000

> <Gold.Chemscore.DEClash>
0.2070

> <Gold.Chemscore.DEInternal>
2.5360

> <Gold.Chemscore.Rot>
1.9641

> <Gold.Chemscore.Internal.Correction>
   9.000000E+99

> <Gold.Chemscore.Hbonds>
donor molecule, donor type, donor heavy atom, donor atom, acceptor molecule, acceptor atom, score
      P1  H  6896  6907       L1     1  0.39

> <Gold.Chemscore.Hbond.Weighted>
-3.3022

> <Gold.Chemscore.Metal.Weighted>
-0.0000

> <Gold.Chemscore.Lipo.Weighted>
-10.1990

> <Gold.Chemscore.Internal_Hbond.Weighted>
0.0000

> <Gold.Chemscore.DEClash.Weighted>
0.2070

> <Gold.Chemscore.DEInternal.Weighted>
2.5360

> <Gold.Chemscore.Rot.Weighted>
5.0280

> <Gold.Chemscore.Internal.Correction.Weighted>
   9.000000E+99

> <Gold.Protein.RotatedTorsions>
[ 6907 6896 6895 6894 ] final  -19.50 input  -60.11 | X-H torsion
[ 7974 7965 7964 7962 ] final   -8.94 input  175.53 | X-H torsion
[ 8008 7997 7996 7995 ] final  101.08 input   59.86 | X-H torsion
[ 10167 10162 10161 10158 ] final  -86.06 input  -65.29 | X-H torsion
[ 10718 10713 10712 10709 ] final -129.43 input   66.30 | X-H torsion
[ 10763 10752 10751 10750 ] final  -31.89 input  -60.55 | X-H torsion
[ 11005 11000 10999 10996 ] final  -67.03 input  -57.11 | X-H torsion

> <Gold.Protein.ActiveResidues>
 VAL166  LYS551  ARG553  GLY616  TRP617  ASP618  TYR619  PRO620  LYS621  CYS622 
 ASP623  PHE694  ASN695  SER759  ASP760  ASP761  ALA762  ILE779  LEU786  VAL792 
 PHE793  MET794  SER795  GLU796  ALA797  LYS798  CYS799  TRP800  GLU811  SER814 

> <Gold.Protein.RotatedAtoms>
  151.2622  135.0657  159.9102 H   0  0  0  0  0  0  0  0  0  0  0  0  # atno 6907 bound_to 6896
  152.5364  134.0219  159.7996 H   0  0  0  0  0  0  0  0  0  0  0  0  # atno 6908 bound_to 6896
  151.0444  133.5629  159.2679 H   0  0  0  0  0  0  0  0  0  0  0  0  # atno 6909 bound_to 6896
  146.2266  140.2543  142.8348 H   0  0  0  0  0  0  0  0  0  0  0  0  # atno 7974 bound_to 7965
  156.1265  140.3203  155.8285 H   0  0  0  0  0  0  0  0  0  0  0  0  # atno 8008 bound_to 7997
  155.4409  140.0525  157.3027 H   0  0  0  0  0  0  0  0  0  0  0  0  # atno 8009 bound_to 7997
  154.4867  140.2075  155.9654 H   0  0  0  0  0  0  0  0  0  0  0  0  # atno 8010 bound_to 7997
  140.3978  143.2676  151.9182 H   0  0  0  0  0  0  0  0  0  0  0  0  # atno 10167 bound_to 10162
  156.2046  130.6879  151.0579 H   0  0  0  0  0  0  0  0  0  0  0  0  # atno 10718 bound_to 10713
  153.8047  135.6887  153.4850 H   0  0  0  0  0  0  0  0  0  0  0  0  # atno 10763 bound_to 10752
  153.1666  135.4559  154.9844 H   0  0  0  0  0  0  0  0  0  0  0  0  # atno 10764 bound_to 10752
  154.7992  135.3331  154.7533 H   0  0  0  0  0  0  0  0  0  0  0  0  # atno 10765 bound_to 10752
  141.1497  133.6711  156.6230 H   0  0  0  0  0  0  0  0  0  0  0  0  # atno 11005 bound_to 11000
  144.9388  140.8056  143.5643 LP  0  0  0  0  0  0  0  0  0  0  0  0  # atno 17320 bound_to 7965
  145.2492  139.2039  143.4951 LP  0  0  0  0  0  0  0  0  0  0  0  0  # atno 17321 bound_to 7965
  139.4786  144.5664  151.8158 LP  0  0  0  0  0  0  0  0  0  0  0  0  # atno 17342 bound_to 10162
  140.4772  144.1502  150.5927 LP  0  0  0  0  0  0  0  0  0  0  0  0  # atno 17343 bound_to 10162
  157.7005  131.0778  150.6836 LP  0  0  0  0  0  0  0  0  0  0  0  0  # atno 17370 bound_to 10713
  156.6894  130.4590  149.5604 LP  0  0  0  0  0  0  0  0  0  0  0  0  # atno 17371 bound_to 10713
  140.3526  134.7756  157.4477 LP  0  0  0  0  0  0  0  0  0  0  0  0  # atno 17394 bound_to 11000
  140.0849  134.5680  155.8503 LP  0  0  0  0  0  0  0  0  0  0  0  0  # atno 17395 bound_to 11000

$$$$
