AV-unprocessed.smi:2845|AV-procd|sdf|10950|dock5
  -GOLD-   2272015403D 1   1.00000     0.00000
 Structure written by MMmdl.
 43 45  0  0  0  0  0  0  0  0  2 V2000
  152.1809  144.0542  161.6198 C   0  0  0  0  0  0  0  0  0  0  0  0
  152.0631  143.2313  160.3481 C   0  0  0  0  0  0  0  0  0  0  0  0
  151.2081  143.6937  159.3223 C   0  0  0  0  0  0  0  0  0  0  0  0
  151.1252  142.9218  158.1695 C   0  0  0  0  0  0  0  0  0  0  0  0
  150.3888  143.1058  156.9973 N   0  3  0  0  0  0  0  0  0  0  0  0
  150.6367  142.0783  156.1389 C   0  0  0  0  0  0  0  0  0  0  0  0
  151.5195  141.2395  156.7458 N   0  0  0  0  0  0  0  0  0  0  0  0
  152.1122  139.9867  156.2552 C   0  0  0  0  0  0  0  0  0  0  0  0
  151.0891  139.0743  155.5508 C   0  0  1  0  0  0  0  0  0  0  0  0
  150.6606  139.6719  154.3417 O   0  0  0  0  0  0  0  0  0  0  0  0
  151.6702  137.6763  155.2644 C   0  0  0  0  0  0  0  0  0  0  0  0
  150.6439  136.6518  155.1932 N   0  0  0  0  0  0  0  0  0  0  0  0
  149.3149  136.7483  155.2923 C   0  0  0  0  0  0  0  0  0  0  0  0
  148.6789  135.5908  155.1673 N   0  0  0  0  0  0  0  0  0  0  0  0
  149.7569  134.7754  154.9816 C   0  0  0  0  0  0  0  0  0  0  0  0
  149.5590  132.9824  154.7381 S   0  0  2  0  0  0  0  0  0  0  0  0
  148.5564  133.1178  153.1837 C   0  0  0  0  0  0  0  0  0  0  0  0
  148.6118  132.5091  155.8428 O   0  0  0  0  0  0  0  0  0  0  0  0
  150.9579  135.3505  154.9894 N   0  0  0  0  0  0  0  0  0  0  0  0
  151.8534  141.7259  158.0157 C   0  0  0  0  0  0  0  0  0  0  0  0
  152.6996  141.2562  159.0175 C   0  0  0  0  0  0  0  0  0  0  0  0
  152.7992  142.0276  160.1973 C   0  0  0  0  0  0  0  0  0  0  0  0
  153.7191  141.5415  161.3043 C   0  0  0  0  0  0  0  0  0  0  0  0
  151.5730  144.9580  161.5683 H   0  0  0  0  0  0  0  0  0  0  0  0
  153.2149  144.3578  161.7857 H   0  0  0  0  0  0  0  0  0  0  0  0
  151.8463  143.4765  162.4816 H   0  0  0  0  0  0  0  0  0  0  0  0
  150.6453  144.6096  159.4292 H   0  0  0  0  0  0  0  0  0  0  0  0
  150.2104  141.9522  155.1540 H   0  0  0  0  0  0  0  0  0  0  0  0
  152.9545  140.2174  155.6026 H   0  0  0  0  0  0  0  0  0  0  0  0
  152.5311  139.4724  157.1211 H   0  0  0  0  0  0  0  0  0  0  0  0
  150.2139  138.9671  156.1929 H   0  0  0  0  0  0  0  0  0  0  0  0
  150.6051  139.0010  153.6775 H   0  0  0  0  0  0  0  0  0  0  0  0
  152.2350  137.6784  154.3306 H   0  0  0  0  0  0  0  0  0  0  0  0
  152.3709  137.3943  156.0512 H   0  0  0  0  0  0  0  0  0  0  0  0
  148.8028  137.6854  155.4557 H   0  0  0  0  0  0  0  0  0  0  0  0
  148.8009  134.0292  152.6378 H   0  0  0  0  0  0  0  0  0  0  0  0
  147.4925  133.1301  153.4208 H   0  0  0  0  0  0  0  0  0  0  0  0
  148.7568  132.2656  152.5347 H   0  0  0  0  0  0  0  0  0  0  0  0
  153.2672  140.3448  158.9007 H   0  0  0  0  0  0  0  0  0  0  0  0
  154.1658  140.5778  161.0573 H   0  0  0  0  0  0  0  0  0  0  0  0
  153.1692  141.4220  162.2380 H   0  0  0  0  0  0  0  0  0  0  0  0
  154.5289  142.2532  161.4668 H   0  0  0  0  0  0  0  0  0  0  0  0
  149.7641  143.8759  156.7948 H   0  0  0  0  0  0  0  0  0  0  0  0
  1  2  1  0  0  0  0
  1 24  1  0  0  0  0
  1 25  1  0  0  0  0
  1 26  1  0  0  0  0
  2 22  1  0  0  0  0
  2  3  2  0  0  0  0
  3  4  1  0  0  0  0
  3 27  1  0  0  0  0
  4 20  2  0  0  0  0
  4  5  1  0  0  0  0
  5  6  2  0  0  0  0
  5 43  1  0  0  0  0
  6  7  1  0  0  0  0
  6 28  1  0  0  0  0
  7  8  1  0  0  0  0
  7 20  1  0  0  0  0
  8  9  1  0  0  0  0
  8 29  1  0  0  0  0
  8 30  1  0  0  0  0
  9 10  1  0  0  0  0
  9 11  1  0  0  0  0
  9 31  1  0  0  0  0
 10 32  1  0  0  0  0
 11 12  1  0  0  0  0
 11 33  1  0  0  0  0
 11 34  1  0  0  0  0
 12 19  1  0  0  0  0
 12 13  1  0  0  0  0
 13 14  2  0  0  0  0
 13 35  1  0  0  0  0
 14 15  1  0  0  0  0
 15 16  1  0  0  0  0
 15 19  2  0  0  0  0
 16 17  1  0  0  0  0
 16 18  2  0  0  0  0
 17 36  1  0  0  0  0
 17 37  1  0  0  0  0
 17 38  1  0  0  0  0
 20 21  1  0  0  0  0
 21 22  2  0  0  0  0
 21 39  1  0  0  0  0
 22 23  1  0  0  0  0
 23 40  1  0  0  0  0
 23 41  1  0  0  0  0
 23 42  1  0  0  0  0
M  CHG  1   5   1
M  END
> <s_m_source_file>
AV-unprocessed.smi

> <i_m_source_file_index>
2845

> <i_lp_mmshare_version>
43012

> <i_f3d_flags>
0

> <s_epik_input>
W0NIM11jKFtjSF0xKWMoW0NIM10pW2NIXWMoYzEyKW4oW2NIXW4yKVtDSDJdW0NASF0oW09IXSlbQ0gyXW4zW2NIXW5jKG4zKVtTQF0oPU8pW0NIM10=

> <s_epik_cmdline>
J2VwaWtfcHl0aG9uJywgJy1waCcsICc3LjAnLCAnLXRuJywgJzgnLCAnLW1hJywgJzIwMCcsICctbWV0YWxfYmluZGluZycsICctaW1hZScsICc8aW5maWxlLm1hZT4nLCAnLW9tYWUnLCAnPG91dGZpbGUubWFlPic=

> <r_lp_tautomer_probability>
1

> <r_epik_Ionization_Penalty>
1.12076

> <r_epik_Ionization_Penalty_Charging>
1.12075

> <r_epik_Ionization_Penalty_Neutral>
1.54566e-06

> <r_epik_State_Penalty>
1.17957

> <r_epik_Charging_Adjusted_Penalty>
2.30033

> <i_epik_Tot_Q>
1

> <i_epik_Tot_abs_Q>
1

> <r_epik_Metal_State_Penalty>
1.26402

> <b_epik_Metal_Only>
0

> <s_lp_Force_Field>
OPLS_2005

> <r_lp_Energy>
14.8832

> <b_lp_Chiralities_Consistent>
1

> <s_lp_Variant>
AV-unprocessed.smi:2845-8

> <Gold.Version>
5.8.1

> <Gold.Id.Protein>
6NUR|6NUR_protein|mol2

> <Gold.PLP.Fitness>
57.6101

> <Gold.PLP.PLP>
-47.7179

> <Gold.PLP.part.hbond>
-3.0000

> <Gold.PLP.part.metal>
0.0000

> <Gold.PLP.part.buried>
-4.9414

> <Gold.PLP.part.nonpolar>
-38.9820

> <Gold.PLP.part.repulsive>
0.2703

> <Gold.PLP.ligand.clash>
0.0000

> <Gold.PLP.ligand.torsion>
1.5523

> <Gold.PLP.Chemscore.Hbond>
3.9840

> <Gold.PLP.Chemscore.CHOScore>
0.0000

> <Gold.PLP.Chemscore.Metal>
0.0000

> <Gold.Chemscore.Hbonds>
donor molecule, donor type, donor heavy atom, donor atom, acceptor molecule, acceptor atom, score
      L1  H     5    43       P1  8028  1.95
      P1  H  7989  7998       L1    10  1.00
      P1  H 10752 10765       L1    19  0.95

> <Gold.PLP.Chemscore.Internal.Correction>
1.0447

> <Gold.Rescore>
     Score         DG    S(hbond)    S(metal)    S(lipo)     H(rot)  DE(clash)    DE(int)     intcor
     14.66     -17.20       1.96        0.00     104.74       2.77       0.23       2.31       ----

> <Gold.Chemscore.Fitness>
14.6566

> <Gold.Chemscore.DG>
-17.1958

> <Gold.Chemscore.ZeroCoef>
-5.4800

> <Gold.Chemscore.Hbond>
1.9605

> <Gold.Chemscore.Metal>
0.0000

> <Gold.Chemscore.Lipo>
104.7356

> <Gold.Chemscore.Internal_Hbond>
0.0000

> <Gold.Chemscore.DEClash>
0.2329

> <Gold.Chemscore.DEInternal>
2.3063

> <Gold.Chemscore.Rot>
2.7681

> <Gold.Chemscore.Internal.Correction>
   9.000000E+99

> <Gold.Chemscore.Hbonds>
donor molecule, donor type, donor heavy atom, donor atom, acceptor molecule, acceptor atom, score
      L1  H     5    43       P1  8028  0.91
      P1  H  7989  7998       L1    10  0.25
      P1  H 10752 10765       L1    19  0.19

> <Gold.Chemscore.Hbond.Weighted>
-6.5480

> <Gold.Chemscore.Metal.Weighted>
-0.0000

> <Gold.Chemscore.Lipo.Weighted>
-12.2541

> <Gold.Chemscore.Internal_Hbond.Weighted>
0.0000

> <Gold.Chemscore.DEClash.Weighted>
0.2329

> <Gold.Chemscore.DEInternal.Weighted>
2.3063

> <Gold.Chemscore.Rot.Weighted>
7.0863

> <Gold.Chemscore.Internal.Correction.Weighted>
   9.000000E+99

> <Gold.Protein.RotatedTorsions>
[ 6907 6896 6895 6894 ] final -100.07 input  -60.11 | X-H torsion
[ 7974 7965 7964 7962 ] final  -68.28 input  175.53 | X-H torsion
[ 8008 7997 7996 7995 ] final   25.37 input   59.86 | X-H torsion
[ 10167 10162 10161 10158 ] final -176.03 input  -65.29 | X-H torsion
[ 10718 10713 10712 10709 ] final   34.02 input   66.30 | X-H torsion
[ 10763 10752 10751 10750 ] final -174.74 input  -60.55 | X-H torsion
[ 11005 11000 10999 10996 ] final  135.93 input  -57.11 | X-H torsion

> <Gold.Protein.ActiveResidues>
 VAL166  LYS551  ARG553  GLY616  TRP617  ASP618  TYR619  PRO620  LYS621  CYS622 
 ASP623  PHE694  ASN695  SER759  ASP760  ASP761  ALA762  ILE779  LEU786  VAL792 
 PHE793  MET794  SER795  GLU796  ALA797  LYS798  CYS799  TRP800  GLU811  SER814 

> <Gold.Protein.RotatedAtoms>
  150.7102  134.0943  159.3942 H   0  0  0  0  0  0  0  0  0  0  0  0  # atno 6907 bound_to 6896
  151.8928  135.0407  160.0508 H   0  0  0  0  0  0  0  0  0  0  0  0  # atno 6908 bound_to 6896
  152.2477  133.5153  159.5344 H   0  0  0  0  0  0  0  0  0  0  0  0  # atno 6909 bound_to 6896
  145.7185  140.9049  143.0643 H   0  0  0  0  0  0  0  0  0  0  0  0  # atno 7974 bound_to 7965
  155.0107  140.3136  155.4831 H   0  0  0  0  0  0  0  0  0  0  0  0  # atno 8008 bound_to 7997
  156.2909  140.2215  156.5163 H   0  0  0  0  0  0  0  0  0  0  0  0  # atno 8009 bound_to 7997
  154.7537  140.0464  157.0903 H   0  0  0  0  0  0  0  0  0  0  0  0  # atno 8010 bound_to 7997
  139.5550  144.2012  152.1144 H   0  0  0  0  0  0  0  0  0  0  0  0  # atno 10167 bound_to 10162
  157.3052  130.7371  149.6691 H   0  0  0  0  0  0  0  0  0  0  0  0  # atno 10718 bound_to 10713
  154.5926  135.2846  155.0619 H   0  0  0  0  0  0  0  0  0  0  0  0  # atno 10763 bound_to 10752
  154.1914  135.6440  153.5065 H   0  0  0  0  0  0  0  0  0  0  0  0  # atno 10764 bound_to 10752
  153.0127  135.5447  154.6617 H   0  0  0  0  0  0  0  0  0  0  0  0  # atno 10765 bound_to 10752
  140.0012  134.9477  157.0076 H   0  0  0  0  0  0  0  0  0  0  0  0  # atno 11005 bound_to 11000
  144.6923  139.9170  143.7466 LP  0  0  0  0  0  0  0  0  0  0  0  0  # atno 17320 bound_to 7965
  146.0648  139.3639  143.0559 LP  0  0  0  0  0  0  0  0  0  0  0  0  # atno 17321 bound_to 7965
  140.1514  144.5111  150.6685 LP  0  0  0  0  0  0  0  0  0  0  0  0  # atno 17342 bound_to 10162
  140.6821  143.2332  151.5356 LP  0  0  0  0  0  0  0  0  0  0  0  0  # atno 17343 bound_to 10162
  155.9674  130.4268  150.4715 LP  0  0  0  0  0  0  0  0  0  0  0  0  # atno 17370 bound_to 10713
  157.2703  131.0585  151.2264 LP  0  0  0  0  0  0  0  0  0  0  0  0  # atno 17371 bound_to 10713
  140.4724  134.1373  155.7205 LP  0  0  0  0  0  0  0  0  0  0  0  0  # atno 17394 bound_to 11000
  141.1643  133.8732  157.1759 LP  0  0  0  0  0  0  0  0  0  0  0  0  # atno 17395 bound_to 11000

$$$$
