AV-unprocessed.smi:1115|AV-procd|sdf|4804|dock2
  -GOLD-   22720 3353D 1   1.00000     0.00000
 Structure written by MMmdl.
 52 53  0  0  0  0  0  0  0  0  3 V2000
  151.9254  142.1497  158.5626 C   0  0  0  0  0  0  0  0  0  0  0  0
  151.2354  142.6727  157.3907 N   0  0  0  0  0  0  0  0  0  0  0  0
  151.1694  144.1107  157.1551 C   0  0  0  0  0  0  0  0  0  0  0  0
  150.6757  141.7815  156.4497 C   0  0  0  0  0  0  0  0  0  0  0  0
  151.1768  140.4760  156.2241 C   0  0  0  0  0  0  0  0  0  0  0  0
  150.5611  139.6441  155.2667 C   0  0  0  0  0  0  0  0  0  0  0  0
  149.4538  140.1170  154.5320 C   0  0  0  0  0  0  0  0  0  0  0  0
  148.8604  139.2339  153.5889 N   0  0  0  0  0  0  0  0  0  0  0  0
  147.5933  139.2104  153.1406 C   0  0  0  0  0  0  0  0  0  0  0  0
  146.7111  140.0079  153.4567 O   0  0  0  0  0  0  0  0  0  0  0  0
  147.4052  138.2072  152.2711 N   0  0  0  0  0  0  0  0  0  0  0  0
  146.1459  137.8905  151.5978 C   0  0  0  0  0  0  0  0  0  0  0  0
  145.5884  136.4788  151.9526 C   0  0  0  0  0  0  0  0  0  0  0  0
  144.3269  136.6026  152.8445 C   0  0  0  0  0  0  0  0  0  0  0  0
  145.1297  135.7595  150.6596 C   0  0  0  0  0  0  0  0  0  0  0  0
  146.6260  135.6409  152.6563 N   0  3  0  0  0  0  0  0  0  0  0  0
  146.7956  135.9070  154.1133 C   0  0  0  0  0  0  0  0  0  0  0  0
  148.0001  135.1303  154.6703 C   0  0  0  0  0  0  0  0  0  0  0  0
  147.8230  133.7412  154.4333 O   0  0  0  0  0  0  0  0  0  0  0  0
  147.7508  133.4519  153.0446 C   0  0  0  0  0  0  0  0  0  0  0  0
  146.5397  134.1703  152.4259 C   0  0  0  0  0  0  0  0  0  0  0  0
  148.9843  141.4252  154.8001 C   0  0  0  0  0  0  0  0  0  0  0  0
  149.6035  142.1877  155.7268 N   0  3  0  0  0  0  0  0  0  0  0  0
  151.2614  141.5121  159.1471 H   0  0  0  0  0  0  0  0  0  0  0  0
  152.2681  142.9550  159.2129 H   0  0  0  0  0  0  0  0  0  0  0  0
  152.7973  141.5667  158.2640 H   0  0  0  0  0  0  0  0  0  0  0  0
  150.1326  144.4453  157.1130 H   0  0  0  0  0  0  0  0  0  0  0  0
  151.6555  144.3678  156.2132 H   0  0  0  0  0  0  0  0  0  0  0  0
  151.6677  144.6666  157.9496 H   0  0  0  0  0  0  0  0  0  0  0  0
  152.0263  140.0954  156.7709 H   0  0  0  0  0  0  0  0  0  0  0  0
  150.9441  138.6481  155.0979 H   0  0  0  0  0  0  0  0  0  0  0  0
  149.4860  138.5547  153.1808 H   0  0  0  0  0  0  0  0  0  0  0  0
  148.1896  137.6056  152.0658 H   0  0  0  0  0  0  0  0  0  0  0  0
  145.4415  138.6644  151.9005 H   0  0  0  0  0  0  0  0  0  0  0  0
  146.2651  138.0046  150.5202 H   0  0  0  0  0  0  0  0  0  0  0  0
  143.4788  137.0098  152.2933 H   0  0  0  0  0  0  0  0  0  0  0  0
  144.4838  137.2692  153.6924 H   0  0  0  0  0  0  0  0  0  0  0  0
  144.0159  135.6316  153.2316 H   0  0  0  0  0  0  0  0  0  0  0  0
  144.2486  136.2333  150.2253 H   0  0  0  0  0  0  0  0  0  0  0  0
  144.8685  134.7187  150.8552 H   0  0  0  0  0  0  0  0  0  0  0  0
  145.8931  135.7739  149.8823 H   0  0  0  0  0  0  0  0  0  0  0  0
  146.9605  136.9641  154.3114 H   0  0  0  0  0  0  0  0  0  0  0  0
  145.8992  135.6119  154.6590 H   0  0  0  0  0  0  0  0  0  0  0  0
  148.9312  135.4759  154.2182 H   0  0  0  0  0  0  0  0  0  0  0  0
  148.0882  135.2949  155.7444 H   0  0  0  0  0  0  0  0  0  0  0  0
  148.6764  133.7489  152.5488 H   0  0  0  0  0  0  0  0  0  0  0  0
  147.6531  132.3739  152.9146 H   0  0  0  0  0  0  0  0  0  0  0  0
  145.6234  133.7715  152.8613 H   0  0  0  0  0  0  0  0  0  0  0  0
  146.5229  133.9297  151.3648 H   0  0  0  0  0  0  0  0  0  0  0  0
  148.1354  141.8942  154.3267 H   0  0  0  0  0  0  0  0  0  0  0  0
  149.2386  143.1257  155.8943 H   0  0  0  0  0  0  0  0  0  0  0  0
  147.5015  135.9184  152.2358 H   0  0  0  0  0  0  0  0  0  0  0  0
  1  2  1  0  0  0  0
  1 24  1  0  0  0  0
  1 25  1  0  0  0  0
  1 26  1  0  0  0  0
  2  3  1  0  0  0  0
  2  4  1  0  0  0  0
  3 27  1  0  0  0  0
  3 28  1  0  0  0  0
  3 29  1  0  0  0  0
  4 23  1  0  0  0  0
  4  5  2  0  0  0  0
  5  6  1  0  0  0  0
  5 30  1  0  0  0  0
  6  7  2  0  0  0  0
  6 31  1  0  0  0  0
  7  8  1  0  0  0  0
  7 22  1  0  0  0  0
  8  9  1  0  0  0  0
  8 32  1  0  0  0  0
  9 10  2  0  0  0  0
  9 11  1  0  0  0  0
 11 12  1  0  0  0  0
 11 33  1  0  0  0  0
 12 13  1  0  0  0  0
 12 34  1  0  0  0  0
 12 35  1  0  0  0  0
 13 14  1  0  0  0  0
 13 15  1  0  0  0  0
 13 16  1  0  0  0  0
 14 36  1  0  0  0  0
 14 37  1  0  0  0  0
 14 38  1  0  0  0  0
 15 39  1  0  0  0  0
 15 40  1  0  0  0  0
 15 41  1  0  0  0  0
 16 21  1  0  0  0  0
 16 17  1  0  0  0  0
 16 52  1  0  0  0  0
 17 18  1  0  0  0  0
 17 42  1  0  0  0  0
 17 43  1  0  0  0  0
 18 19  1  0  0  0  0
 18 44  1  0  0  0  0
 18 45  1  0  0  0  0
 19 20  1  0  0  0  0
 20 21  1  0  0  0  0
 20 46  1  0  0  0  0
 20 47  1  0  0  0  0
 21 48  1  0  0  0  0
 21 49  1  0  0  0  0
 22 23  2  0  0  0  0
 22 50  1  0  0  0  0
 23 51  1  0  0  0  0
M  CHG  1  16   1
M  CHG  1  23   1
M  END
> <s_m_source_file>
AV-unprocessed.smi

> <i_m_source_file_index>
1115

> <i_lp_mmshare_version>
43012

> <i_f3d_flags>
0

> <s_epik_input>
W0NIM11OKFtDSDNdKWMxW2NIXVtjSF1jKFtjSF1uMSlbTkhdQyg9TylbTkhdW0NIMl1DKFtDSDNdKShbQ0gzXSlOMltDSDJdW0NIMl1PW0NIMl1bQ0gyXTI=

> <s_epik_cmdline>
J2VwaWtfcHl0aG9uJywgJy1waCcsICc3LjAnLCAnLXRuJywgJzgnLCAnLW1hJywgJzIwMCcsICctbWV0YWxfYmluZGluZycsICctaW1hZScsICc8aW5maWxlLm1hZT4nLCAnLW9tYWUnLCAnPG91dGZpbGUubWFlPic=

> <r_lp_tautomer_probability>
0.999994

> <r_epik_Ionization_Penalty>
0.90424

> <r_epik_Ionization_Penalty_Charging>
0.90422

> <r_epik_Ionization_Penalty_Neutral>
2.023e-05

> <r_epik_State_Penalty>
0.905868

> <r_epik_Charging_Adjusted_Penalty>
1.81009

> <i_epik_Tot_Q>
2

> <i_epik_Tot_abs_Q>
2

> <r_epik_Metal_State_Penalty>
1.19318

> <b_epik_Metal_Only>
0

> <s_lp_Force_Field>
OPLS_2005

> <r_lp_Energy>
35.8961

> <b_lp_Chiralities_Consistent>
1

> <s_lp_Variant>
AV-unprocessed.smi:1115-3

> <Gold.Version>
5.8.1

> <Gold.Id.Protein>
6NUR|6NUR_protein|mol2

> <Gold.PLP.Fitness>
49.5938

> <Gold.PLP.PLP>
-39.1730

> <Gold.PLP.part.hbond>
-4.9024

> <Gold.PLP.part.metal>
0.0000

> <Gold.PLP.part.buried>
1.9841

> <Gold.PLP.part.nonpolar>
-37.6604

> <Gold.PLP.part.repulsive>
0.5982

> <Gold.PLP.ligand.clash>
0.0000

> <Gold.PLP.ligand.torsion>
2.3561

> <Gold.PLP.Chemscore.Hbond>
5.0000

> <Gold.PLP.Chemscore.CHOScore>
0.0000

> <Gold.PLP.Chemscore.Metal>
0.0000

> <Gold.Chemscore.Hbonds>
donor molecule, donor type, donor heavy atom, donor atom, acceptor molecule, acceptor atom, score
      L1  H    11    33       P1  7948  1.00
      L1  H    16    52       P1  7948  1.92
      L1  H    23    51       P1  8028  2.00

> <Gold.PLP.Chemscore.Internal.Correction>
0.1331

> <Gold.Rescore>
     Score         DG    S(hbond)    S(metal)    S(lipo)     H(rot)  DE(clash)    DE(int)     intcor
     17.71     -21.07       2.97        0.00      81.12       1.49       0.06       3.30       ----

> <Gold.Chemscore.Fitness>
17.7051

> <Gold.Chemscore.DG>
-21.0731

> <Gold.Chemscore.ZeroCoef>
-5.4800

> <Gold.Chemscore.Hbond>
2.9673

> <Gold.Chemscore.Metal>
0.0000

> <Gold.Chemscore.Lipo>
81.1223

> <Gold.Chemscore.Internal_Hbond>
0.0000

> <Gold.Chemscore.DEClash>
0.0639

> <Gold.Chemscore.DEInternal>
3.3042

> <Gold.Chemscore.Rot>
1.4878

> <Gold.Chemscore.Internal.Correction>
   9.000000E+99

> <Gold.Chemscore.Hbonds>
donor molecule, donor type, donor heavy atom, donor atom, acceptor molecule, acceptor atom, score
      L1  H    11    33       P1  7948  0.95
      L1  H    16    52       P1  7948  0.91
      L1  H    23    51       P1  8028  0.99

> <Gold.Chemscore.Hbond.Weighted>
-9.9107

> <Gold.Chemscore.Metal.Weighted>
-0.0000

> <Gold.Chemscore.Lipo.Weighted>
-9.4913

> <Gold.Chemscore.Internal_Hbond.Weighted>
0.0000

> <Gold.Chemscore.DEClash.Weighted>
0.0639

> <Gold.Chemscore.DEInternal.Weighted>
3.3042

> <Gold.Chemscore.Rot.Weighted>
3.8089

> <Gold.Chemscore.Internal.Correction.Weighted>
   9.000000E+99

> <Gold.Protein.RotatedTorsions>
[ 6907 6896 6895 6894 ] final   94.47 input  -60.11 | X-H torsion
[ 7974 7965 7964 7962 ] final   58.43 input  175.53 | X-H torsion
[ 8008 7997 7996 7995 ] final -153.47 input   59.86 | X-H torsion
[ 10167 10162 10161 10158 ] final   96.09 input  -65.29 | X-H torsion
[ 10718 10713 10712 10709 ] final  106.10 input   66.30 | X-H torsion
[ 10763 10752 10751 10750 ] final -138.43 input  -60.55 | X-H torsion
[ 11005 11000 10999 10996 ] final  -76.19 input  -57.11 | X-H torsion

> <Gold.Protein.ActiveResidues>
 VAL166  LYS551  ARG553  GLY616  TRP617  ASP618  TYR619  PRO620  LYS621  CYS622 
 ASP623  PHE694  ASN695  SER759  ASP760  ASP761  ALA762  ILE779  LEU786  VAL792 
 PHE793  MET794  SER795  GLU796  ALA797  LYS798  CYS799  TRP800  GLU811  SER814 

> <Gold.Protein.RotatedAtoms>
  152.5449  134.1189  159.8389 H   0  0  0  0  0  0  0  0  0  0  0  0  # atno 6907 bound_to 6896
  151.1247  133.5072  159.2608 H   0  0  0  0  0  0  0  0  0  0  0  0  # atno 6908 bound_to 6896
  151.1741  135.0341  159.8819 H   0  0  0  0  0  0  0  0  0  0  0  0  # atno 6909 bound_to 6896
  145.9183  139.3709  143.0494 H   0  0  0  0  0  0  0  0  0  0  0  0  # atno 7974 bound_to 7965
  155.6713  140.0733  157.2519 H   0  0  0  0  0  0  0  0  0  0  0  0  # atno 8008 bound_to 7997
  154.4123  140.1698  156.1934 H   0  0  0  0  0  0  0  0  0  0  0  0  # atno 8009 bound_to 7997
  155.9614  140.3369  155.6497 H   0  0  0  0  0  0  0  0  0  0  0  0  # atno 8010 bound_to 7997
  139.7926  144.6846  150.9871 H   0  0  0  0  0  0  0  0  0  0  0  0  # atno 10167 bound_to 10162
  157.6681  131.0843  150.5955 H   0  0  0  0  0  0  0  0  0  0  0  0  # atno 10718 bound_to 10713
  154.8637  135.3612  154.5384 H   0  0  0  0  0  0  0  0  0  0  0  0  # atno 10763 bound_to 10752
  153.6007  135.7012  153.5390 H   0  0  0  0  0  0  0  0  0  0  0  0  # atno 10764 bound_to 10752
  153.3293  135.4129  155.1444 H   0  0  0  0  0  0  0  0  0  0  0  0  # atno 10765 bound_to 10752
  141.1652  133.6974  156.7631 H   0  0  0  0  0  0  0  0  0  0  0  0  # atno 11005 bound_to 11000
  145.8583  140.9490  143.0713 LP  0  0  0  0  0  0  0  0  0  0  0  0  # atno 17320 bound_to 7965
  144.6750  140.0497  143.7479 LP  0  0  0  0  0  0  0  0  0  0  0  0  # atno 17321 bound_to 7965
  140.7820  143.4364  151.0617 LP  0  0  0  0  0  0  0  0  0  0  0  0  # atno 17342 bound_to 10162
  139.8040  143.8044  152.3165 LP  0  0  0  0  0  0  0  0  0  0  0  0  # atno 17343 bound_to 10162
  156.6256  130.4418  149.5806 LP  0  0  0  0  0  0  0  0  0  0  0  0  # atno 17370 bound_to 10713
  156.2322  130.6801  151.1474 LP  0  0  0  0  0  0  0  0  0  0  0  0  # atno 17371 bound_to 10713
  140.2519  134.8533  157.3676 LP  0  0  0  0  0  0  0  0  0  0  0  0  # atno 17394 bound_to 11000
  140.1694  134.4628  155.7841 LP  0  0  0  0  0  0  0  0  0  0  0  0  # atno 17395 bound_to 11000

$$$$
