AV-unprocessed.smi:2663|AV-procd|sdf|10325|dock2
  -GOLD-   2272014343D 1   1.00000     0.00000
 Structure written by MMmdl.
 38 39  0  0  0  0  0  0  0  0  2 V2000
  147.4326  138.3343  156.2516 C   0  0  0  0  0  0  0  0  0  0  0  0
  148.6172  137.8529  157.1286 C   0  0  2  0  0  0  0  0  0  0  0  0
  149.1030  136.4742  156.5927 C   0  0  0  0  0  0  0  0  0  0  0  0
  148.0650  135.5144  156.5521 O   0  0  0  0  0  0  0  0  0  0  0  0
  148.1799  137.7015  158.5260 N   0  0  0  0  0  0  0  0  0  0  0  0
  148.8134  137.1456  159.5725 C   0  0  0  0  0  0  0  0  0  0  0  0
  149.9409  136.6652  159.4425 O   0  0  0  0  0  0  0  0  0  0  0  0
  148.0919  137.1833  160.7158 N   0  5  0  0  0  0  0  0  0  0  0  0
  147.6686  136.0412  161.2827 C   0  0  0  0  0  0  0  0  0  0  0  0
  147.2888  134.9777  160.5560 N   0  0  0  0  0  0  0  0  0  0  0  0
  146.8816  133.9019  161.3335 N   0  0  0  0  0  0  0  0  0  0  0  0
  146.9565  134.1863  162.6334 C   0  0  0  0  0  0  0  0  0  0  0  0
  147.5282  135.7942  163.0258 S   0  0  0  0  0  0  0  0  0  0  0  0
  149.7694  138.9202  157.1128 C   0  0  0  0  0  0  0  0  0  0  0  0
  149.3645  140.2824  157.7388 C   0  0  0  0  0  0  0  0  0  0  0  0
  150.5300  141.2845  157.7586 C   0  0  0  0  0  0  0  0  0  0  0  0
  151.0986  141.5079  156.3519 C   0  0  0  0  0  0  0  0  0  0  0  0
  151.5246  140.1756  155.7231 C   0  0  0  0  0  0  0  0  0  0  0  0
  150.3601  139.1729  155.6984 C   0  0  0  0  0  0  0  0  0  0  0  0
  147.7739  138.6530  155.2663 H   0  0  0  0  0  0  0  0  0  0  0  0
  146.8984  139.1695  156.7042 H   0  0  0  0  0  0  0  0  0  0  0  0
  146.6979  137.5458  156.0892 H   0  0  0  0  0  0  0  0  0  0  0  0
  149.5290  136.5672  155.5937 H   0  0  0  0  0  0  0  0  0  0  0  0
  149.8980  136.0674  157.2174 H   0  0  0  0  0  0  0  0  0  0  0  0
  147.3499  135.8261  157.0853 H   0  0  0  0  0  0  0  0  0  0  0  0
  147.2606  138.0683  158.7249 H   0  0  0  0  0  0  0  0  0  0  0  0
  146.6699  133.4459  163.3652 H   0  0  0  0  0  0  0  0  0  0  0  0
  150.5865  138.5261  157.7190 H   0  0  0  0  0  0  0  0  0  0  0  0
  148.5281  140.7160  157.1893 H   0  0  0  0  0  0  0  0  0  0  0  0
  149.0230  140.1510  158.7646 H   0  0  0  0  0  0  0  0  0  0  0  0
  150.1958  142.2339  158.1778 H   0  0  0  0  0  0  0  0  0  0  0  0
  151.3172  140.9164  158.4176 H   0  0  0  0  0  0  0  0  0  0  0  0
  150.3472  141.9881  155.7233 H   0  0  0  0  0  0  0  0  0  0  0  0
  151.9489  142.1890  156.3963 H   0  0  0  0  0  0  0  0  0  0  0  0
  151.8898  140.3445  154.7097 H   0  0  0  0  0  0  0  0  0  0  0  0
  152.3581  139.7537  156.2862 H   0  0  0  0  0  0  0  0  0  0  0  0
  150.7266  138.2459  155.2601 H   0  0  0  0  0  0  0  0  0  0  0  0
  149.5869  139.5463  155.0261 H   0  0  0  0  0  0  0  0  0  0  0  0
  1  2  1  0  0  0  0
  1 20  1  0  0  0  0
  1 21  1  0  0  0  0
  1 22  1  0  0  0  0
  2  3  1  0  0  0  0
  2  5  1  0  0  0  0
  2 14  1  0  0  0  0
  3  4  1  0  0  0  0
  3 23  1  0  0  0  0
  3 24  1  0  0  0  0
  4 25  1  0  0  0  0
  5  6  1  0  0  0  0
  5 26  1  0  0  0  0
  6  7  2  0  0  0  0
  6  8  1  0  0  0  0
  8  9  1  0  0  0  0
  9 13  1  0  0  0  0
  9 10  2  0  0  0  0
 10 11  1  0  0  0  0
 11 12  2  0  0  0  0
 12 13  1  0  0  0  0
 12 27  1  0  0  0  0
 14 19  1  0  0  0  0
 14 15  1  0  0  0  0
 14 28  1  0  0  0  0
 15 16  1  0  0  0  0
 15 29  1  0  0  0  0
 15 30  1  0  0  0  0
 16 17  1  0  0  0  0
 16 31  1  0  0  0  0
 16 32  1  0  0  0  0
 17 18  1  0  0  0  0
 17 33  1  0  0  0  0
 17 34  1  0  0  0  0
 18 19  1  0  0  0  0
 18 35  1  0  0  0  0
 18 36  1  0  0  0  0
 19 37  1  0  0  0  0
 19 38  1  0  0  0  0
M  CHG  1   8  -1
M  END
> <s_m_source_file>
AV-unprocessed.smi

> <i_m_source_file_index>
2663

> <i_lp_mmshare_version>
43012

> <i_f3d_flags>
0

> <s_epik_input>
W0NIMl0xW0NIMl1bQ0gyXVtDSDJdW0NIMl1bQ0hdMVtDQF0oW0NIM10pKFtDSDJdW09IXSlbTkhdQyg9TylbTkhdYzJubltjSF1zMg==

> <s_epik_cmdline>
J2VwaWtfcHl0aG9uJywgJy1waCcsICc3LjAnLCAnLXRuJywgJzgnLCAnLW1hJywgJzIwMCcsICctbWV0YWxfYmluZGluZycsICctaW1hZScsICc8aW5maWxlLm1hZT4nLCAnLW9tYWUnLCAnPG91dGZpbGUubWFlPic=

> <r_lp_tautomer_probability>
1

> <r_epik_Ionization_Penalty>
4.39194

> <r_epik_Ionization_Penalty_Charging>
4.34423

> <r_epik_Ionization_Penalty_Neutral>
0.047714

> <r_epik_State_Penalty>
4.34384

> <r_epik_Charging_Adjusted_Penalty>
8.68806

> <i_epik_Tot_Q>
-1

> <i_epik_Tot_abs_Q>
1

> <r_epik_Metal_State_Penalty>
0.746645

> <b_epik_Metal_Only>
1

> <s_lp_Force_Field>
OPLS_2005

> <r_lp_Energy>
18.1486

> <b_lp_Chiralities_Consistent>
1

> <s_lp_Variant>
AV-unprocessed.smi:2663-4

> <Gold.Version>
5.8.1

> <Gold.Id.Protein>
6NUR|6NUR_protein|mol2

> <Gold.PLP.Fitness>
37.5658

> <Gold.PLP.PLP>
-27.1446

> <Gold.PLP.part.hbond>
-3.0000

> <Gold.PLP.part.metal>
0.0000

> <Gold.PLP.part.buried>
-3.7912

> <Gold.PLP.part.nonpolar>
-20.8824

> <Gold.PLP.part.repulsive>
0.1306

> <Gold.PLP.ligand.clash>
0.0000

> <Gold.PLP.ligand.torsion>
1.0213

> <Gold.PLP.Chemscore.Hbond>
4.1117

> <Gold.PLP.Chemscore.CHOScore>
0.0000

> <Gold.PLP.Chemscore.Metal>
0.0000

> <Gold.Chemscore.Hbonds>
donor molecule, donor type, donor heavy atom, donor atom, acceptor molecule, acceptor atom, score
      P1  H  6896  6909       L1     7  1.00
      P1  H  6931  6943       L1     8  1.70
      P1  H  6934  6947       L1     8  1.36

> <Gold.PLP.Chemscore.Internal.Correction>
0.1288

> <Gold.Rescore>
     Score         DG    S(hbond)    S(metal)    S(lipo)     H(rot)  DE(clash)    DE(int)     intcor
     10.78     -12.85       2.10        0.00      50.77       2.18       0.07       2.00       ----

> <Gold.Chemscore.Fitness>
10.7817

> <Gold.Chemscore.DG>
-12.8503

> <Gold.Chemscore.ZeroCoef>
-5.4800

> <Gold.Chemscore.Hbond>
2.0978

> <Gold.Chemscore.Metal>
0.0000

> <Gold.Chemscore.Lipo>
50.7711

> <Gold.Chemscore.Internal_Hbond>
0.0000

> <Gold.Chemscore.DEClash>
0.0650

> <Gold.Chemscore.DEInternal>
2.0036

> <Gold.Chemscore.Rot>
2.1783

> <Gold.Chemscore.Internal.Correction>
   9.000000E+99

> <Gold.Chemscore.Hbonds>
donor molecule, donor type, donor heavy atom, donor atom, acceptor molecule, acceptor atom, score
      P1  H  6896  6909       L1     7  0.95
      P1  H  6931  6943       L1     8  0.39
      P1  H  6934  6947       L1     8  0.48

> <Gold.Chemscore.Hbond.Weighted>
-7.0066

> <Gold.Chemscore.Metal.Weighted>
-0.0000

> <Gold.Chemscore.Lipo.Weighted>
-5.9402

> <Gold.Chemscore.Internal_Hbond.Weighted>
0.0000

> <Gold.Chemscore.DEClash.Weighted>
0.0650

> <Gold.Chemscore.DEInternal.Weighted>
2.0036

> <Gold.Chemscore.Rot.Weighted>
5.5765

> <Gold.Chemscore.Internal.Correction.Weighted>
   9.000000E+99

> <Gold.Protein.RotatedTorsions>
[ 6907 6896 6895 6894 ] final   73.32 input  -60.11 | X-H torsion
[ 7974 7965 7964 7962 ] final   45.64 input  175.53 | X-H torsion
[ 8008 7997 7996 7995 ] final  101.36 input   59.86 | X-H torsion
[ 10167 10162 10161 10158 ] final  176.97 input  -65.29 | X-H torsion
[ 10718 10713 10712 10709 ] final  -18.40 input   66.30 | X-H torsion
[ 10763 10752 10751 10750 ] final  -85.36 input  -60.55 | X-H torsion
[ 11005 11000 10999 10996 ] final  -82.24 input  -57.11 | X-H torsion

> <Gold.Protein.ActiveResidues>
 VAL166  LYS551  ARG553  GLY616  TRP617  ASP618  TYR619  PRO620  LYS621  CYS622 
 ASP623  PHE694  ASN695  SER759  ASP760  ASP761  ALA762  ILE779  LEU786  VAL792 
 PHE793  MET794  SER795  GLU796  ALA797  LYS798  CYS799  TRP800  GLU811  SER814 

> <Gold.Protein.RotatedAtoms>
  152.4917  134.4439  159.9552 H   0  0  0  0  0  0  0  0  0  0  0  0  # atno 6907 bound_to 6896
  151.4425  133.3633  159.2791 H   0  0  0  0  0  0  0  0  0  0  0  0  # atno 6908 bound_to 6896
  150.9078  134.8517  159.7464 H   0  0  0  0  0  0  0  0  0  0  0  0  # atno 6909 bound_to 6896
  146.0462  139.4942  142.9747 H   0  0  0  0  0  0  0  0  0  0  0  0  # atno 7974 bound_to 7965
  156.1291  140.3199  155.8322 H   0  0  0  0  0  0  0  0  0  0  0  0  # atno 8008 bound_to 7997
  155.4364  140.0522  157.3031 H   0  0  0  0  0  0  0  0  0  0  0  0  # atno 8009 bound_to 7997
  154.4885  140.2083  155.9613 H   0  0  0  0  0  0  0  0  0  0  0  0  # atno 8010 bound_to 7997
  139.5235  144.2853  152.0511 H   0  0  0  0  0  0  0  0  0  0  0  0  # atno 10167 bound_to 10162
  156.5600  130.4723  149.6411 H   0  0  0  0  0  0  0  0  0  0  0  0  # atno 10718 bound_to 10713
  154.6102  135.5488  153.7465 H   0  0  0  0  0  0  0  0  0  0  0  0  # atno 10763 bound_to 10752
  153.0191  135.6387  154.1590 H   0  0  0  0  0  0  0  0  0  0  0  0  # atno 10764 bound_to 10752
  154.1527  135.2902  155.3110 H   0  0  0  0  0  0  0  0  0  0  0  0  # atno 10765 bound_to 10752
  141.1664  133.7235  156.8542 H   0  0  0  0  0  0  0  0  0  0  0  0  # atno 11005 bound_to 11000
  145.6802  141.0193  143.1611 LP  0  0  0  0  0  0  0  0  0  0  0  0  # atno 17320 bound_to 7965
  144.7099  139.8412  143.7418 LP  0  0  0  0  0  0  0  0  0  0  0  0  # atno 17321 bound_to 7965
  140.2307  144.4371  150.6301 LP  0  0  0  0  0  0  0  0  0  0  0  0  # atno 17342 bound_to 10162
  140.6357  143.2194  151.6399 LP  0  0  0  0  0  0  0  0  0  0  0  0  # atno 17343 bound_to 10162
  156.2807  130.7069  151.1892 LP  0  0  0  0  0  0  0  0  0  0  0  0  # atno 17370 bound_to 10713
  157.7370  131.0556  150.5379 LP  0  0  0  0  0  0  0  0  0  0  0  0  # atno 17371 bound_to 10713
  140.1894  134.8976  157.3042 LP  0  0  0  0  0  0  0  0  0  0  0  0  # atno 17394 bound_to 11000
  140.2307  134.3912  155.7523 LP  0  0  0  0  0  0  0  0  0  0  0  0  # atno 17395 bound_to 11000

$$$$
