AV-unprocessed.smi:630|AV-procd|sdf|3120|dock10
  -GOLD-   22720 0 43D 1   1.00000     0.00000
 Structure written by MMmdl.
 37 38  0  0  0  0  0  0  0  0  1 V2000
  148.6051  132.0557  152.4187 N   0  0  0  0  0  0  0  0  0  0  0  0
  147.7625  133.0136  152.8142 C   0  0  0  0  0  0  0  0  0  0  0  0
  147.7417  133.4237  153.9730 O   0  0  0  0  0  0  0  0  0  0  0  0
  146.8059  133.5944  151.7547 C   0  0  1  0  0  0  0  0  0  0  0  0
  146.0448  132.4546  151.0322 C   0  0  0  0  0  0  0  0  0  0  0  0
  144.7194  132.0038  151.6698 C   0  0  0  0  0  0  0  0  0  0  0  0
  143.5206  132.8331  151.1830 C   0  0  0  0  0  0  0  0  0  0  0  0
  143.4551  134.2570  151.7521 C   0  0  0  0  0  0  0  0  0  0  0  0
  144.7029  135.1236  151.5009 C   0  0  0  0  0  0  0  0  0  0  0  0
  145.9142  134.7140  152.3671 C   0  0  2  0  0  0  0  0  0  0  0  0
  146.7407  135.8980  152.6230 N   0  0  0  0  0  0  0  0  0  0  0  0
  146.3381  137.0348  153.2119 C   0  0  0  0  0  0  0  0  0  0  0  0
  145.1903  137.2289  153.6125 O   0  0  0  0  0  0  0  0  0  0  0  0
  147.3503  137.9152  153.3041 N   0  0  0  0  0  0  0  0  0  0  0  0
  147.3337  139.2165  153.8715 C   0  0  0  0  0  0  0  0  0  0  0  0
  146.2257  139.8545  154.2659 N   0  0  0  0  0  0  0  0  0  0  0  0
  146.5062  141.1201  154.7872 C   0  0  0  0  0  0  0  0  0  0  0  0
  147.8431  141.4314  154.7827 C   0  0  0  0  0  0  0  0  0  0  0  0
  148.8086  140.1397  154.1198 S   0  0  0  0  0  0  0  0  0  0  0  0
  149.2479  131.6508  153.0838 H   0  0  0  0  0  0  0  0  0  0  0  0
  148.5983  131.7403  151.4599 H   0  0  0  0  0  0  0  0  0  0  0  0
  147.4279  134.0575  150.9857 H   0  0  0  0  0  0  0  0  0  0  0  0
  145.8653  132.7441  149.9961 H   0  0  0  0  0  0  0  0  0  0  0  0
  146.6983  131.5837  150.9555 H   0  0  0  0  0  0  0  0  0  0  0  0
  144.5423  130.9678  151.3787 H   0  0  0  0  0  0  0  0  0  0  0  0
  144.7798  131.9994  152.7585 H   0  0  0  0  0  0  0  0  0  0  0  0
  143.5167  132.8720  150.0931 H   0  0  0  0  0  0  0  0  0  0  0  0
  142.6029  132.3136  151.4610 H   0  0  0  0  0  0  0  0  0  0  0  0
  142.5924  134.7568  151.3106 H   0  0  0  0  0  0  0  0  0  0  0  0
  143.2497  134.2131  152.8225 H   0  0  0  0  0  0  0  0  0  0  0  0
  144.9650  135.1348  150.4423 H   0  0  0  0  0  0  0  0  0  0  0  0
  144.4244  136.1498  151.7457 H   0  0  0  0  0  0  0  0  0  0  0  0
  145.5165  134.3554  153.3183 H   0  0  0  0  0  0  0  0  0  0  0  0
  147.7040  135.8411  152.3273 H   0  0  0  0  0  0  0  0  0  0  0  0
  148.2386  137.6187  152.9280 H   0  0  0  0  0  0  0  0  0  0  0  0
  145.6914  141.7346  155.1405 H   0  0  0  0  0  0  0  0  0  0  0  0
  148.3160  142.3388  155.1282 H   0  0  0  0  0  0  0  0  0  0  0  0
  1  2  1  0  0  0  0
  1 20  1  0  0  0  0
  1 21  1  0  0  0  0
  2  3  2  0  0  0  0
  2  4  1  0  0  0  0
  4 10  1  0  0  0  0
  4  5  1  0  0  0  0
  4 22  1  0  0  0  0
  5  6  1  0  0  0  0
  5 23  1  0  0  0  0
  5 24  1  0  0  0  0
  6  7  1  0  0  0  0
  6 25  1  0  0  0  0
  6 26  1  0  0  0  0
  7  8  1  0  0  0  0
  7 27  1  0  0  0  0
  7 28  1  0  0  0  0
  8  9  1  0  0  0  0
  8 29  1  0  0  0  0
  8 30  1  0  0  0  0
  9 10  1  0  0  0  0
  9 31  1  0  0  0  0
  9 32  1  0  0  0  0
 10 11  1  0  0  0  0
 10 33  1  0  0  0  0
 11 12  1  0  0  0  0
 11 34  1  0  0  0  0
 12 13  2  0  0  0  0
 12 14  1  0  0  0  0
 14 15  1  0  0  0  0
 14 35  1  0  0  0  0
 15 19  1  0  0  0  0
 15 16  2  0  0  0  0
 16 17  1  0  0  0  0
 17 18  2  0  0  0  0
 17 36  1  0  0  0  0
 18 19  1  0  0  0  0
 18 37  1  0  0  0  0
M  END
> <s_m_source_file>
AV-unprocessed.smi

> <i_m_source_file_index>
630

> <i_lp_mmshare_version>
43012

> <i_f3d_flags>
0

> <s_epik_input>
W05IMl1DKD1PKVtDQEBIXTFbQ0gyXVtDSDJdW0NIMl1bQ0gyXVtDSDJdW0NASF0xW05IXUMoPU8pW05IXWMybltjSF1bY0hdczI=

> <s_epik_cmdline>
J2VwaWtfcHl0aG9uJywgJy1waCcsICc3LjAnLCAnLXRuJywgJzgnLCAnLW1hJywgJzIwMCcsICctbWV0YWxfYmluZGluZycsICctaW1hZScsICc8aW5maWxlLm1hZT4nLCAnLW9tYWUnLCAnPG91dGZpbGUubWFlPic=

> <r_lp_tautomer_probability>
0.999

> <r_epik_Ionization_Penalty>
0.000342689

> <r_epik_Ionization_Penalty_Charging>
0

> <r_epik_Ionization_Penalty_Neutral>
0.000342689

> <r_epik_State_Penalty>
0.000177984

> <r_epik_Charging_Adjusted_Penalty>
0.000177984

> <i_epik_Tot_Q>
0

> <i_epik_Tot_abs_Q>
0

> <r_epik_Metal_State_Penalty>
0.00743087

> <b_epik_Metal_Only>
0

> <s_lp_Force_Field>
OPLS_2005

> <r_lp_Energy>
11.5905

> <b_lp_Chiralities_Consistent>
1

> <s_lp_Variant>
AV-unprocessed.smi:630-4

> <Gold.Version>
5.8.1

> <Gold.Id.Protein>
6NUR|6NUR_protein|mol2

> <Gold.PLP.Fitness>
39.0796

> <Gold.PLP.PLP>
-28.6671

> <Gold.PLP.part.hbond>
-2.4783

> <Gold.PLP.part.metal>
0.0000

> <Gold.PLP.part.buried>
-2.8970

> <Gold.PLP.part.nonpolar>
-24.1576

> <Gold.PLP.part.repulsive>
0.5996

> <Gold.PLP.ligand.clash>
0.0000

> <Gold.PLP.ligand.torsion>
0.0953

> <Gold.PLP.Chemscore.Hbond>
2.4988

> <Gold.PLP.Chemscore.CHOScore>
1.0000

> <Gold.PLP.Chemscore.Metal>
0.0000

> <Gold.Chemscore.Hbonds>
donor molecule, donor type, donor heavy atom, donor atom, acceptor molecule, acceptor atom, score
      L1  H     1    21       P1 10747  0.96
      L1  H    11    34       P1  7948  0.60
      L1  H    14    35       P1  7948  0.80
      L1  C    18    37       P1  8028  1.00

> <Gold.PLP.Chemscore.Internal.Correction>
0.1069

> <Gold.Rescore>
     Score         DG    S(hbond)    S(metal)    S(lipo)     H(rot)  DE(clash)    DE(int)     intcor
     16.00     -17.49       2.71        0.00      58.49       1.52       0.12       1.38       ----

> <Gold.Chemscore.Fitness>
15.9961

> <Gold.Chemscore.DG>
-17.4939

> <Gold.Chemscore.ZeroCoef>
-5.4800

> <Gold.Chemscore.Hbond>
2.7119

> <Gold.Chemscore.Metal>
0.0000

> <Gold.Chemscore.Lipo>
58.4889

> <Gold.Chemscore.Internal_Hbond>
0.0000

> <Gold.Chemscore.DEClash>
0.1203

> <Gold.Chemscore.DEInternal>
1.3775

> <Gold.Chemscore.Rot>
1.5184

> <Gold.Chemscore.Internal.Correction>
   9.000000E+99

> <Gold.Chemscore.Hbonds>
donor molecule, donor type, donor heavy atom, donor atom, acceptor molecule, acceptor atom, score
      L1  H     1    21       P1 10747  0.89
      L1  H    11    34       P1  7948  0.60
      L1  H    14    35       P1  7948  0.80

> <Gold.Chemscore.Hbond.Weighted>
-9.0579

> <Gold.Chemscore.Metal.Weighted>
-0.0000

> <Gold.Chemscore.Lipo.Weighted>
-6.8432

> <Gold.Chemscore.Internal_Hbond.Weighted>
0.0000

> <Gold.Chemscore.DEClash.Weighted>
0.1203

> <Gold.Chemscore.DEInternal.Weighted>
1.3775

> <Gold.Chemscore.Rot.Weighted>
3.8872

> <Gold.Chemscore.Internal.Correction.Weighted>
   9.000000E+99

> <Gold.Protein.RotatedTorsions>
[ 6907 6896 6895 6894 ] final -160.94 input  -60.11 | X-H torsion
[ 7974 7965 7964 7962 ] final  -68.92 input  175.53 | X-H torsion
[ 8008 7997 7996 7995 ] final   36.38 input   59.86 | X-H torsion
[ 10167 10162 10161 10158 ] final   63.40 input  -65.29 | X-H torsion
[ 10718 10713 10712 10709 ] final  -37.23 input   66.30 | X-H torsion
[ 10763 10752 10751 10750 ] final  -68.49 input  -60.55 | X-H torsion
[ 11005 11000 10999 10996 ] final   64.07 input  -57.11 | X-H torsion

> <Gold.Protein.ActiveResidues>
 VAL166  LYS551  ARG553  GLY616  TRP617  ASP618  TYR619  PRO620  LYS621  CYS622 
 ASP623  PHE694  ASN695  SER759  ASP760  ASP761  ALA762  ILE779  LEU786  VAL792 
 PHE793  MET794  SER795  GLU796  ALA797  LYS798  CYS799  TRP800  GLU811  SER814 

> <Gold.Protein.RotatedAtoms>
  151.3569  133.3904  159.2685 H   0  0  0  0  0  0  0  0  0  0  0  0  # atno 6907 bound_to 6896
  150.9756  134.9122  159.7824 H   0  0  0  0  0  0  0  0  0  0  0  0  # atno 6908 bound_to 6896
  152.5200  134.3532  159.9311 H   0  0  0  0  0  0  0  0  0  0  0  0  # atno 6909 bound_to 6896
  145.7103  140.9081  143.0684 H   0  0  0  0  0  0  0  0  0  0  0  0  # atno 7974 bound_to 7965
  155.1865  140.3304  155.4366 H   0  0  0  0  0  0  0  0  0  0  0  0  # atno 8008 bound_to 7997
  156.2458  140.1917  156.6911 H   0  0  0  0  0  0  0  0  0  0  0  0  # atno 8009 bound_to 7997
  154.6235  140.0592  156.9630 H   0  0  0  0  0  0  0  0  0  0  0  0  # atno 8010 bound_to 7997
  140.1335  144.4621  150.6851 H   0  0  0  0  0  0  0  0  0  0  0  0  # atno 10167 bound_to 10162
  156.3176  130.4261  149.7990 H   0  0  0  0  0  0  0  0  0  0  0  0  # atno 10718 bound_to 10713
  154.3898  135.6055  153.5837 H   0  0  0  0  0  0  0  0  0  0  0  0  # atno 10763 bound_to 10752
  152.9787  135.5881  154.4311 H   0  0  0  0  0  0  0  0  0  0  0  0  # atno 10764 bound_to 10752
  154.4093  135.2844  155.2025 H   0  0  0  0  0  0  0  0  0  0  0  0  # atno 10765 bound_to 10752
  139.9983  134.6483  155.9973 H   0  0  0  0  0  0  0  0  0  0  0  0  # atno 11005 bound_to 11000
  144.6943  139.9066  143.7461 LP  0  0  0  0  0  0  0  0  0  0  0  0  # atno 17320 bound_to 7965
  146.0718  139.3707  143.0518 LP  0  0  0  0  0  0  0  0  0  0  0  0  # atno 17321 bound_to 7965
  140.6803  143.2323  151.5402 LP  0  0  0  0  0  0  0  0  0  0  0  0  # atno 17342 bound_to 10162
  139.5508  144.2402  152.1526 LP  0  0  0  0  0  0  0  0  0  0  0  0  # atno 17343 bound_to 10162
  156.5310  130.8257  151.3237 LP  0  0  0  0  0  0  0  0  0  0  0  0  # atno 17370 bound_to 10713
  157.7405  130.9851  150.2381 LP  0  0  0  0  0  0  0  0  0  0  0  0  # atno 17371 bound_to 10713
  141.1622  133.6538  156.4356 LP  0  0  0  0  0  0  0  0  0  0  0  0  # atno 17394 bound_to 11000
  140.4777  134.6694  157.5157 LP  0  0  0  0  0  0  0  0  0  0  0  0  # atno 17395 bound_to 11000

$$$$
