AV-unprocessed.smi:2586|AV-procd|sdf|10145|dock2
  -GOLD-   2272014153D 1   1.00000     0.00000
 Structure written by MMmdl.
 30 31  0  0  0  0  0  0  0  0  1 V2000
  153.0143  132.3372  149.2324 C   0  0  0  0  0  0  0  0  0  0  0  0
  152.4672  132.0163  150.5059 O   0  0  0  0  0  0  0  0  0  0  0  0
  151.7939  133.0699  151.2035 C   0  0  0  0  0  0  0  0  0  0  0  0
  152.7147  134.2677  151.4665 C   0  0  0  0  0  0  0  0  0  0  0  0
  151.9529  135.4014  151.9815 N   0  0  0  0  0  0  0  0  0  0  0  0
  152.4638  136.4513  152.6393 C   0  0  0  0  0  0  0  0  0  0  0  0
  153.6559  136.5602  152.9268 O   0  0  0  0  0  0  0  0  0  0  0  0
  151.5068  137.3503  152.9274 N   0  0  0  0  0  0  0  0  0  0  0  0
  151.6283  138.5426  153.5665 C   0  0  0  0  0  0  0  0  0  0  0  0
  150.8966  138.9625  154.6444 C   0  0  0  0  0  0  0  0  0  0  0  0
  151.2336  140.2457  155.1043 N   0  0  0  0  0  0  0  0  0  0  0  0
  152.1857  140.8202  154.4299 N   0  0  0  0  0  0  0  0  0  0  0  0
  152.7290  139.8320  153.1923 S   0  0  0  0  0  0  0  0  0  0  0  0
  150.4696  133.3263  150.4594 C   0  0  0  0  0  0  0  0  0  0  0  0
  149.7936  132.2893  151.3580 C   0  0  0  0  0  0  0  0  0  0  0  0
  150.9339  132.5064  152.3546 C   0  0  0  0  0  0  0  0  0  0  0  0
  153.6042  131.4930  148.8764 H   0  0  0  0  0  0  0  0  0  0  0  0
  153.6704  133.2061  149.2686 H   0  0  0  0  0  0  0  0  0  0  0  0
  152.2368  132.5193  148.4917 H   0  0  0  0  0  0  0  0  0  0  0  0
  153.4587  134.0068  152.2198 H   0  0  0  0  0  0  0  0  0  0  0  0
  153.2877  134.5257  150.5752 H   0  0  0  0  0  0  0  0  0  0  0  0
  150.9618  135.3997  151.7907 H   0  0  0  0  0  0  0  0  0  0  0  0
  150.5735  137.1187  152.6206 H   0  0  0  0  0  0  0  0  0  0  0  0
  150.1144  138.4178  155.1523 H   0  0  0  0  0  0  0  0  0  0  0  0
  150.0815  134.3331  150.6223 H   0  0  0  0  0  0  0  0  0  0  0  0
  150.4800  133.0728  149.3988 H   0  0  0  0  0  0  0  0  0  0  0  0
  148.8061  132.5733  151.7231 H   0  0  0  0  0  0  0  0  0  0  0  0
  149.7949  131.2883  150.9240 H   0  0  0  0  0  0  0  0  0  0  0  0
  151.2959  131.5920  152.8235 H   0  0  0  0  0  0  0  0  0  0  0  0
  150.6892  133.2608  153.1041 H   0  0  0  0  0  0  0  0  0  0  0  0
  1  2  1  0  0  0  0
  1 17  1  0  0  0  0
  1 18  1  0  0  0  0
  1 19  1  0  0  0  0
  2  3  1  0  0  0  0
  3 16  1  0  0  0  0
  3  4  1  0  0  0  0
  3 14  1  0  0  0  0
  4  5  1  0  0  0  0
  4 20  1  0  0  0  0
  4 21  1  0  0  0  0
  5  6  1  0  0  0  0
  5 22  1  0  0  0  0
  6  7  2  0  0  0  0
  6  8  1  0  0  0  0
  8  9  1  0  0  0  0
  8 23  1  0  0  0  0
  9 13  1  0  0  0  0
  9 10  2  0  0  0  0
 10 11  1  0  0  0  0
 10 24  1  0  0  0  0
 11 12  2  0  0  0  0
 12 13  1  0  0  0  0
 14 15  1  0  0  0  0
 14 25  1  0  0  0  0
 14 26  1  0  0  0  0
 15 16  1  0  0  0  0
 15 27  1  0  0  0  0
 15 28  1  0  0  0  0
 16 29  1  0  0  0  0
 16 30  1  0  0  0  0
M  END
> <s_m_source_file>
AV-unprocessed.smi

> <i_m_source_file_index>
2586

> <i_lp_mmshare_version>
43012

> <i_f3d_flags>
0

> <s_epik_input>
W0NIMl0xW0NIMl1bQ0gyXUMxKE9bQ0gzXSlbQ0gyXVtOSF1DKD1PKVtOSF1jMltjSF1ubnMy

> <s_epik_cmdline>
J2VwaWtfcHl0aG9uJywgJy1waCcsICc3LjAnLCAnLXRuJywgJzgnLCAnLW1hJywgJzIwMCcsICctbWV0YWxfYmluZGluZycsICctaW1hZScsICc8aW5maWxlLm1hZT4nLCAnLW9tYWUnLCAnPG91dGZpbGUubWFlPic=

> <r_lp_tautomer_probability>
1

> <r_epik_Ionization_Penalty>
2.25632e-05

> <r_epik_Ionization_Penalty_Charging>
0

> <r_epik_Ionization_Penalty_Neutral>
2.25632e-05

> <r_epik_State_Penalty>
-0

> <r_epik_Charging_Adjusted_Penalty>
0

> <i_epik_Tot_Q>
0

> <i_epik_Tot_abs_Q>
0

> <r_epik_Metal_State_Penalty>
-0

> <b_epik_Metal_Only>
0

> <s_lp_Force_Field>
OPLS_2005

> <r_lp_Energy>
14.9091

> <b_lp_Chiralities_Consistent>
1

> <s_lp_Variant>
AV-unprocessed.smi:2586-1

> <Gold.Version>
5.8.1

> <Gold.Id.Protein>
6NUR|6NUR_protein|mol2

> <Gold.PLP.Fitness>
37.8446

> <Gold.PLP.PLP>
-27.2394

> <Gold.PLP.part.hbond>
-5.8978

> <Gold.PLP.part.metal>
0.0000

> <Gold.PLP.part.buried>
-3.4141

> <Gold.PLP.part.nonpolar>
-20.0586

> <Gold.PLP.part.repulsive>
0.2137

> <Gold.PLP.ligand.clash>
0.0000

> <Gold.PLP.ligand.torsion>
0.7627

> <Gold.PLP.Chemscore.Hbond>
3.9500

> <Gold.PLP.Chemscore.CHOScore>
0.0000

> <Gold.PLP.Chemscore.Metal>
0.0000

> <Gold.PLP.Chemscore.Internal.Correction>
0.2805

> <Gold.Rescore>
     Score         DG    S(hbond)    S(metal)    S(lipo)     H(rot)  DE(clash)    DE(int)     intcor
     14.38     -15.21       2.58        0.00      44.89       1.61       0.06       0.78       ----

> <Gold.Chemscore.Fitness>
14.3771

> <Gold.Chemscore.DG>
-15.2141

> <Gold.Chemscore.ZeroCoef>
-5.4800

> <Gold.Chemscore.Hbond>
2.5790

> <Gold.Chemscore.Metal>
0.0000

> <Gold.Chemscore.Lipo>
44.8926

> <Gold.Chemscore.Internal_Hbond>
0.0000

> <Gold.Chemscore.DEClash>
0.0580

> <Gold.Chemscore.DEInternal>
0.7790

> <Gold.Chemscore.Rot>
1.6141

> <Gold.Chemscore.Internal.Correction>
   9.000000E+99

> <Gold.Chemscore.Hbond.Weighted>
-8.6137

> <Gold.Chemscore.Metal.Weighted>
-0.0000

> <Gold.Chemscore.Lipo.Weighted>
-5.2524

> <Gold.Chemscore.Internal_Hbond.Weighted>
0.0000

> <Gold.Chemscore.DEClash.Weighted>
0.0580

> <Gold.Chemscore.DEInternal.Weighted>
0.7790

> <Gold.Chemscore.Rot.Weighted>
4.1320

> <Gold.Chemscore.Internal.Correction.Weighted>
   9.000000E+99

> <Gold.Protein.RotatedTorsions>
[ 6907 6896 6895 6894 ] final -166.65 input  -60.11 | X-H torsion
[ 7974 7965 7964 7962 ] final  -47.94 input  175.53 | X-H torsion
[ 8008 7997 7996 7995 ] final -152.11 input   59.86 | X-H torsion
[ 10167 10162 10161 10158 ] final   11.36 input  -65.29 | X-H torsion
[ 10718 10713 10712 10709 ] final  102.87 input   66.30 | X-H torsion
[ 10763 10752 10751 10750 ] final  119.11 input  -60.55 | X-H torsion
[ 11005 11000 10999 10996 ] final -136.71 input  -57.11 | X-H torsion

> <Gold.Protein.ActiveResidues>
 VAL166  LYS551  ARG553  GLY616  TRP617  ASP618  TYR619  PRO620  LYS621  CYS622 
 ASP623  PHE694  ASN695  SER759  ASP760  ASP761  ALA762  ILE779  LEU786  VAL792 
 PHE793  MET794  SER795  GLU796  ALA797  LYS798  CYS799  TRP800  GLU811  SER814 

> <Gold.Protein.RotatedAtoms>
  151.4470  133.3628  159.2789 H   0  0  0  0  0  0  0  0  0  0  0  0  # atno 6907 bound_to 6896
  150.9118  134.8536  159.7441 H   0  0  0  0  0  0  0  0  0  0  0  0  # atno 6908 bound_to 6896
  152.4936  134.4400  159.9592 H   0  0  0  0  0  0  0  0  0  0  0  0  # atno 6909 bound_to 6896
  145.9563  140.7523  142.9479 H   0  0  0  0  0  0  0  0  0  0  0  0  # atno 7974 bound_to 7965
  155.6500  140.0711  157.2590 H   0  0  0  0  0  0  0  0  0  0  0  0  # atno 8008 bound_to 7997
  154.4164  140.1735  156.1714 H   0  0  0  0  0  0  0  0  0  0  0  0  # atno 8009 bound_to 7997
  155.9785  140.3356  155.6644 H   0  0  0  0  0  0  0  0  0  0  0  0  # atno 8010 bound_to 7997
  140.6137  143.8354  150.7094 H   0  0  0  0  0  0  0  0  0  0  0  0  # atno 10167 bound_to 10162
  157.6789  131.0764  150.5469 H   0  0  0  0  0  0  0  0  0  0  0  0  # atno 10718 bound_to 10713
  153.5779  135.3489  155.2863 H   0  0  0  0  0  0  0  0  0  0  0  0  # atno 10763 bound_to 10752
  154.8672  135.4175  154.2652 H   0  0  0  0  0  0  0  0  0  0  0  0  # atno 10764 bound_to 10752
  153.3432  135.7051  153.6919 H   0  0  0  0  0  0  0  0  0  0  0  0  # atno 10765 bound_to 10752
  140.8779  134.1968  157.4610 H   0  0  0  0  0  0  0  0  0  0  0  0  # atno 11005 bound_to 11000
  144.6806  140.2518  143.7330 LP  0  0  0  0  0  0  0  0  0  0  0  0  # atno 17320 bound_to 7965
  145.8101  139.2000  143.1998 LP  0  0  0  0  0  0  0  0  0  0  0  0  # atno 17321 bound_to 7965
  140.1928  143.4022  152.1850 LP  0  0  0  0  0  0  0  0  0  0  0  0  # atno 17342 bound_to 10162
  139.5381  144.7230  151.4824 LP  0  0  0  0  0  0  0  0  0  0  0  0  # atno 17343 bound_to 10162
  156.5774  130.4295  149.5992 LP  0  0  0  0  0  0  0  0  0  0  0  0  # atno 17370 bound_to 10713
  156.2690  130.7006  151.1797 LP  0  0  0  0  0  0  0  0  0  0  0  0  # atno 17371 bound_to 10713
  139.8717  134.9804  156.5075 LP  0  0  0  0  0  0  0  0  0  0  0  0  # atno 17394 bound_to 11000
  140.8496  133.8142  155.9155 LP  0  0  0  0  0  0  0  0  0  0  0  0  # atno 17395 bound_to 11000

$$$$
