AV-unprocessed.smi:2114|AV-procd|sdf|8621|dock5
  -GOLD-   2272011363D 1   1.00000     0.00000
 Structure written by MMmdl.
 47 48  0  0  0  0  0  0  0  0  1 V2000
  153.6198  141.0270  160.7423 C   0  0  0  0  0  0  0  0  0  0  0  0
  153.5768  141.7710  159.5376 O   0  0  0  0  0  0  0  0  0  0  0  0
  153.3229  143.1493  159.7578 C   0  0  0  0  0  0  0  0  0  0  0  0
  152.4802  143.7076  158.5997 C   0  0  2  0  0  0  0  0  0  0  0  0
  152.9381  145.1145  158.1915 C   0  0  0  0  0  0  0  0  0  0  0  0
  151.0728  143.7550  158.9895 N   0  0  0  0  0  0  0  0  0  0  0  0
  150.5409  144.5677  159.9176 C   0  0  0  0  0  0  0  0  0  0  0  0
  151.1993  145.3509  160.6023 O   0  0  0  0  0  0  0  0  0  0  0  0
  149.0611  144.4263  160.1245 C   0  0  0  0  0  0  0  0  0  0  0  0
  148.3664  145.2156  161.0684 C   0  0  0  0  0  0  0  0  0  0  0  0
  146.9832  145.0167  161.2403 C   0  0  0  0  0  0  0  0  0  0  0  0
  146.3375  144.0311  160.4657 C   0  0  0  0  0  0  0  0  0  0  0  0
  144.9626  143.8221  160.6411 N   0  0  0  0  0  0  0  0  0  0  0  0
  144.4344  142.6941  159.8864 C   0  0  0  0  0  0  0  0  0  0  0  0
  142.9000  142.6546  160.0054 C   0  0  1  0  0  0  0  0  0  0  0  0
  142.3028  141.4221  159.3182 C   0  0  0  0  0  0  0  0  0  0  0  0
  142.5310  142.6154  161.3847 O   0  0  0  0  0  0  0  0  0  0  0  0
  143.0314  143.6994  162.1727 C   0  0  2  0  0  0  0  0  0  0  0  0
  142.3154  145.0252  161.8587 C   0  0  0  0  0  0  0  0  0  0  0  0
  144.5649  143.7859  162.0425 C   0  0  0  0  0  0  0  0  0  0  0  0
  146.9969  143.2640  159.5654 N   0  0  0  0  0  0  0  0  0  0  0  0
  148.3242  143.4572  159.4087 C   0  0  0  0  0  0  0  0  0  0  0  0
  153.8153  139.9784  160.5185 H   0  0  0  0  0  0  0  0  0  0  0  0
  152.6698  141.0855  161.2750 H   0  0  0  0  0  0  0  0  0  0  0  0
  154.4132  141.3850  161.3995 H   0  0  0  0  0  0  0  0  0  0  0  0
  152.8066  143.2939  160.7085 H   0  0  0  0  0  0  0  0  0  0  0  0
  154.2721  143.6841  159.8179 H   0  0  0  0  0  0  0  0  0  0  0  0
  152.6145  143.0569  157.7339 H   0  0  0  0  0  0  0  0  0  0  0  0
  153.9840  145.1123  157.8831 H   0  0  0  0  0  0  0  0  0  0  0  0
  152.8356  145.8217  159.0152 H   0  0  0  0  0  0  0  0  0  0  0  0
  152.3497  145.4902  157.3538 H   0  0  0  0  0  0  0  0  0  0  0  0
  150.4487  143.1306  158.4997 H   0  0  0  0  0  0  0  0  0  0  0  0
  148.8773  145.9599  161.6619 H   0  0  0  0  0  0  0  0  0  0  0  0
  146.4313  145.6077  161.9568 H   0  0  0  0  0  0  0  0  0  0  0  0
  144.7280  142.7828  158.8395 H   0  0  0  0  0  0  0  0  0  0  0  0
  144.8628  141.7646  160.2647 H   0  0  0  0  0  0  0  0  0  0  0  0
  142.4733  143.5417  159.5369 H   0  0  0  0  0  0  0  0  0  0  0  0
  142.5419  141.4107  158.2544 H   0  0  0  0  0  0  0  0  0  0  0  0
  141.2167  141.4114  159.4140 H   0  0  0  0  0  0  0  0  0  0  0  0
  142.6850  140.5003  159.7578 H   0  0  0  0  0  0  0  0  0  0  0  0
  142.8001  143.4541  163.2096 H   0  0  0  0  0  0  0  0  0  0  0  0
  142.6277  145.8057  162.5529 H   0  0  0  0  0  0  0  0  0  0  0  0
  141.2350  144.9151  161.9518 H   0  0  0  0  0  0  0  0  0  0  0  0
  142.5307  145.3841  160.8526 H   0  0  0  0  0  0  0  0  0  0  0  0
  145.0193  142.9164  162.5202 H   0  0  0  0  0  0  0  0  0  0  0  0
  144.9414  144.6675  162.5634 H   0  0  0  0  0  0  0  0  0  0  0  0
  148.8065  142.8183  158.6831 H   0  0  0  0  0  0  0  0  0  0  0  0
  1  2  1  0  0  0  0
  1 23  1  0  0  0  0
  1 24  1  0  0  0  0
  1 25  1  0  0  0  0
  2  3  1  0  0  0  0
  3  4  1  0  0  0  0
  3 26  1  0  0  0  0
  3 27  1  0  0  0  0
  4  5  1  0  0  0  0
  4  6  1  0  0  0  0
  4 28  1  0  0  0  0
  5 29  1  0  0  0  0
  5 30  1  0  0  0  0
  5 31  1  0  0  0  0
  6  7  1  0  0  0  0
  6 32  1  0  0  0  0
  7  8  2  0  0  0  0
  7  9  1  0  0  0  0
  9 22  1  0  0  0  0
  9 10  2  0  0  0  0
 10 11  1  0  0  0  0
 10 33  1  0  0  0  0
 11 12  2  0  0  0  0
 11 34  1  0  0  0  0
 12 13  1  0  0  0  0
 12 21  1  0  0  0  0
 13 20  1  0  0  0  0
 13 14  1  0  0  0  0
 14 15  1  0  0  0  0
 14 35  1  0  0  0  0
 14 36  1  0  0  0  0
 15 16  1  0  0  0  0
 15 17  1  0  0  0  0
 15 37  1  0  0  0  0
 16 38  1  0  0  0  0
 16 39  1  0  0  0  0
 16 40  1  0  0  0  0
 17 18  1  0  0  0  0
 18 19  1  0  0  0  0
 18 20  1  0  0  0  0
 18 41  1  0  0  0  0
 19 42  1  0  0  0  0
 19 43  1  0  0  0  0
 19 44  1  0  0  0  0
 20 45  1  0  0  0  0
 20 46  1  0  0  0  0
 21 22  2  0  0  0  0
 22 47  1  0  0  0  0
M  END
> <s_m_source_file>
AV-unprocessed.smi

> <i_m_source_file_index>
2114

> <i_lp_mmshare_version>
43012

> <i_f3d_flags>
0

> <s_epik_input>
W0NIM11PW0NIMl1bQ0BIXShbQ0gzXSlbTkhdQyg9TyljMVtjSF1bY0hdYyhuW2NIXTEpTjJbQ0gyXVtDQEBIXShbQ0gzXSlPW0NAQEhdKFtDSDNdKVtDSDJdMg==

> <s_epik_cmdline>
J2VwaWtfcHl0aG9uJywgJy1waCcsICc3LjAnLCAnLXRuJywgJzgnLCAnLW1hJywgJzIwMCcsICctbWV0YWxfYmluZGluZycsICctaW1hZScsICc8aW5maWxlLm1hZT4nLCAnLW9tYWUnLCAnPG91dGZpbGUubWFlPic=

> <r_lp_tautomer_probability>
1

> <r_epik_Ionization_Penalty>
1.92915e-05

> <r_epik_Ionization_Penalty_Charging>
0

> <r_epik_Ionization_Penalty_Neutral>
1.92915e-05

> <r_epik_State_Penalty>
-0

> <r_epik_Charging_Adjusted_Penalty>
0

> <i_epik_Tot_Q>
0

> <i_epik_Tot_abs_Q>
0

> <r_epik_Metal_State_Penalty>
-0

> <b_epik_Metal_Only>
0

> <s_lp_Force_Field>
OPLS_2005

> <r_lp_Energy>
24.3529

> <b_lp_Chiralities_Consistent>
1

> <s_lp_Variant>
AV-unprocessed.smi:2114-5

> <Gold.Version>
5.8.1

> <Gold.Id.Protein>
6NUR|6NUR_protein|mol2

> <Gold.PLP.Fitness>
37.7199

> <Gold.PLP.PLP>
-38.5301

> <Gold.PLP.part.hbond>
-2.1097

> <Gold.PLP.part.metal>
0.0000

> <Gold.PLP.part.buried>
-5.5667

> <Gold.PLP.part.nonpolar>
-33.1666

> <Gold.PLP.part.repulsive>
0.3817

> <Gold.PLP.ligand.clash>
0.0000

> <Gold.PLP.ligand.torsion>
1.0530

> <Gold.PLP.Chemscore.Hbond>
0.3931

> <Gold.PLP.Chemscore.CHOScore>
0.0000

> <Gold.PLP.Chemscore.Metal>
0.0000

> <Gold.PLP.Chemscore.Internal.Correction>
0.1165

> <Gold.Rescore>
     Score         DG    S(hbond)    S(metal)    S(lipo)     H(rot)  DE(clash)    DE(int)     intcor
      9.93     -13.81       0.18        0.00      99.53       1.52       1.54       2.35       ----

> <Gold.Chemscore.Fitness>
9.9306

> <Gold.Chemscore.DG>
-13.8126

> <Gold.Chemscore.ZeroCoef>
-5.4800

> <Gold.Chemscore.Hbond>
0.1752

> <Gold.Chemscore.Metal>
0.0000

> <Gold.Chemscore.Lipo>
99.5329

> <Gold.Chemscore.Internal_Hbond>
0.0000

> <Gold.Chemscore.DEClash>
1.5360

> <Gold.Chemscore.DEInternal>
2.3460

> <Gold.Chemscore.Rot>
1.5226

> <Gold.Chemscore.Internal.Correction>
   9.000000E+99

> <Gold.Chemscore.Hbond.Weighted>
-0.5852

> <Gold.Chemscore.Metal.Weighted>
-0.0000

> <Gold.Chemscore.Lipo.Weighted>
-11.6453

> <Gold.Chemscore.Internal_Hbond.Weighted>
0.0000

> <Gold.Chemscore.DEClash.Weighted>
1.5360

> <Gold.Chemscore.DEInternal.Weighted>
2.3460

> <Gold.Chemscore.Rot.Weighted>
3.8980

> <Gold.Chemscore.Internal.Correction.Weighted>
   9.000000E+99

> <Gold.Protein.RotatedTorsions>
[ 6907 6896 6895 6894 ] final   85.03 input  -60.11 | X-H torsion
[ 7974 7965 7964 7962 ] final -131.99 input  175.53 | X-H torsion
[ 8008 7997 7996 7995 ] final   49.62 input   59.86 | X-H torsion
[ 10167 10162 10161 10158 ] final  156.77 input  -65.29 | X-H torsion
[ 10718 10713 10712 10709 ] final  139.16 input   66.30 | X-H torsion
[ 10763 10752 10751 10750 ] final  -30.89 input  -60.55 | X-H torsion
[ 11005 11000 10999 10996 ] final   79.16 input  -57.11 | X-H torsion

> <Gold.Protein.ActiveResidues>
 VAL166  LYS551  ARG553  GLY616  TRP617  ASP618  TYR619  PRO620  LYS621  CYS622 
 ASP623  PHE694  ASN695  SER759  ASP760  ASP761  ALA762  ILE779  LEU786  VAL792 
 PHE793  MET794  SER795  GLU796  ALA797  LYS798  CYS799  TRP800  GLU811  SER814 

> <Gold.Protein.RotatedAtoms>
  152.5366  134.2649  159.8949 H   0  0  0  0  0  0  0  0  0  0  0  0  # atno 6907 bound_to 6896
  151.2607  133.4296  159.2623 H   0  0  0  0  0  0  0  0  0  0  0  0  # atno 6908 bound_to 6896
  151.0455  134.9651  159.8240 H   0  0  0  0  0  0  0  0  0  0  0  0  # atno 6909 bound_to 6896
  144.9327  140.7147  143.4896 H   0  0  0  0  0  0  0  0  0  0  0  0  # atno 7974 bound_to 7965
  155.4053  140.3440  155.4260 H   0  0  0  0  0  0  0  0  0  0  0  0  # atno 8008 bound_to 7997
  156.1480  140.1562  156.8847 H   0  0  0  0  0  0  0  0  0  0  0  0  # atno 8009 bound_to 7997
  154.5027  140.0810  156.7813 H   0  0  0  0  0  0  0  0  0  0  0  0  # atno 8010 bound_to 7997
  139.4821  144.4979  151.8212 H   0  0  0  0  0  0  0  0  0  0  0  0  # atno 10167 bound_to 10162
  157.4174  131.1035  151.0390 H   0  0  0  0  0  0  0  0  0  0  0  0  # atno 10718 bound_to 10713
  153.7884  135.6899  153.4876 H   0  0  0  0  0  0  0  0  0  0  0  0  # atno 10763 bound_to 10752
  153.1765  135.4522  154.9971 H   0  0  0  0  0  0  0  0  0  0  0  0  # atno 10764 bound_to 10752
  154.8054  135.3355  154.7382 H   0  0  0  0  0  0  0  0  0  0  0  0  # atno 10765 bound_to 10752
  139.9184  134.7821  156.1743 H   0  0  0  0  0  0  0  0  0  0  0  0  # atno 11005 bound_to 11000
  145.3116  139.1817  143.4635 LP  0  0  0  0  0  0  0  0  0  0  0  0  # atno 17320 bound_to 7965
  146.3254  140.3121  142.8627 LP  0  0  0  0  0  0  0  0  0  0  0  0  # atno 17321 bound_to 7965
  140.4469  144.1909  150.5894 LP  0  0  0  0  0  0  0  0  0  0  0  0  # atno 17342 bound_to 10162
  140.4625  143.2443  151.9200 LP  0  0  0  0  0  0  0  0  0  0  0  0  # atno 17343 bound_to 10162
  157.1333  130.6111  149.5535 LP  0  0  0  0  0  0  0  0  0  0  0  0  # atno 17370 bound_to 10713
  155.9869  130.4906  150.7102 LP  0  0  0  0  0  0  0  0  0  0  0  0  # atno 17371 bound_to 10713
  141.0681  133.6809  156.2086 LP  0  0  0  0  0  0  0  0  0  0  0  0  # atno 17394 bound_to 11000
  140.6551  134.5026  157.5580 LP  0  0  0  0  0  0  0  0  0  0  0  0  # atno 17395 bound_to 11000

$$$$
