AV-unprocessed.smi:1143|AV-procd|sdf|4875|dock4
  -GOLD-   22720 3443D 1   1.00000     0.00000
 Structure written by MMmdl.
 35 36  0  0  0  0  0  0  0  0  1 V2000
  153.6501  143.2535  163.6343 C   0  0  0  0  0  0  0  0  0  0  0  0
  153.7017  142.3087  162.5154 N   0  0  0  0  0  0  0  0  0  0  0  0
  152.8366  142.5320  161.4265 C   0  0  0  0  0  0  0  0  0  0  0  0
  152.8099  141.7181  160.3484 C   0  0  0  0  0  0  0  0  0  0  0  0
  151.9917  141.8863  159.2225 N   0  0  0  0  0  0  0  0  0  0  0  0
  151.9829  141.2046  158.0576 C   0  0  0  0  0  0  0  0  0  0  0  0
  152.7733  140.3149  157.7504 O   0  0  0  0  0  0  0  0  0  0  0  0
  151.0253  141.6033  157.1999 N   0  0  0  0  0  0  0  0  0  0  0  0
  150.7330  141.0868  155.8606 C   0  0  0  0  0  0  0  0  0  0  0  0
  149.2825  141.4204  155.4822 C   0  0  0  0  0  0  0  0  0  0  0  0
  148.9073  140.7709  154.1400 C   0  0  0  0  0  0  0  0  0  0  0  0
  149.1126  139.3635  154.2050 O   0  0  0  0  0  0  0  0  0  0  0  0
  150.4718  139.0107  154.4378 C   0  0  0  0  0  0  0  0  0  0  0  0
  150.9335  139.5618  155.7966 C   0  0  0  0  0  0  0  0  0  0  0  0
  153.7260  140.5976  160.3507 C   0  0  0  0  0  0  0  0  0  0  0  0
  154.5569  140.3772  161.3878 C   0  0  0  0  0  0  0  0  0  0  0  0
  154.5737  141.2600  162.5565 C   0  0  0  0  0  0  0  0  0  0  0  0
  155.3257  141.0696  163.5127 O   0  0  0  0  0  0  0  0  0  0  0  0
  152.9345  144.0608  163.4757 H   0  0  0  0  0  0  0  0  0  0  0  0
  154.6266  143.7141  163.7920 H   0  0  0  0  0  0  0  0  0  0  0  0
  153.3639  142.7410  164.5539 H   0  0  0  0  0  0  0  0  0  0  0  0
  152.2215  143.4106  161.5373 H   0  0  0  0  0  0  0  0  0  0  0  0
  151.3152  142.6313  159.3014 H   0  0  0  0  0  0  0  0  0  0  0  0
  150.4635  142.3892  157.4944 H   0  0  0  0  0  0  0  0  0  0  0  0
  151.3860  141.5673  155.1294 H   0  0  0  0  0  0  0  0  0  0  0  0
  148.6035  141.0588  156.2558 H   0  0  0  0  0  0  0  0  0  0  0  0
  149.1449  142.5008  155.4249 H   0  0  0  0  0  0  0  0  0  0  0  0
  147.8589  140.9632  153.9120 H   0  0  0  0  0  0  0  0  0  0  0  0
  149.4931  141.1971  153.3240 H   0  0  0  0  0  0  0  0  0  0  0  0
  150.5610  137.9244  154.4253 H   0  0  0  0  0  0  0  0  0  0  0  0
  151.1009  139.3898  153.6309 H   0  0  0  0  0  0  0  0  0  0  0  0
  151.9794  139.3023  155.9635 H   0  0  0  0  0  0  0  0  0  0  0  0
  150.3627  139.0793  156.5913 H   0  0  0  0  0  0  0  0  0  0  0  0
  153.7458  139.9212  159.5084 H   0  0  0  0  0  0  0  0  0  0  0  0
  155.2269  139.5308  161.3581 H   0  0  0  0  0  0  0  0  0  0  0  0
  1  2  1  0  0  0  0
  1 19  1  0  0  0  0
  1 20  1  0  0  0  0
  1 21  1  0  0  0  0
  2 17  1  0  0  0  0
  2  3  1  0  0  0  0
  3  4  2  0  0  0  0
  3 22  1  0  0  0  0
  4  5  1  0  0  0  0
  4 15  1  0  0  0  0
  5  6  1  0  0  0  0
  5 23  1  0  0  0  0
  6  7  2  0  0  0  0
  6  8  1  0  0  0  0
  8  9  1  0  0  0  0
  8 24  1  0  0  0  0
  9 14  1  0  0  0  0
  9 10  1  0  0  0  0
  9 25  1  0  0  0  0
 10 11  1  0  0  0  0
 10 26  1  0  0  0  0
 10 27  1  0  0  0  0
 11 12  1  0  0  0  0
 11 28  1  0  0  0  0
 11 29  1  0  0  0  0
 12 13  1  0  0  0  0
 13 14  1  0  0  0  0
 13 30  1  0  0  0  0
 13 31  1  0  0  0  0
 14 32  1  0  0  0  0
 14 33  1  0  0  0  0
 15 16  2  0  0  0  0
 15 34  1  0  0  0  0
 16 17  1  0  0  0  0
 16 35  1  0  0  0  0
 17 18  2  0  0  0  0
M  END
> <s_m_source_file>
AV-unprocessed.smi

> <i_m_source_file_index>
1143

> <i_lp_mmshare_version>
43012

> <i_f3d_flags>
0

> <s_epik_input>
Tz1jMVtjSF1bY0hdYyhbY0hdbjFbQ0gzXSlbTkhdQyg9TylbTkhdW0NIXTJbQ0gyXVtDSDJdT1tDSDJdW0NIMl0y

> <s_epik_cmdline>
J2VwaWtfcHl0aG9uJywgJy1waCcsICc3LjAnLCAnLXRuJywgJzgnLCAnLW1hJywgJzIwMCcsICctbWV0YWxfYmluZGluZycsICctaW1hZScsICc8aW5maWxlLm1hZT4nLCAnLW9tYWUnLCAnPG91dGZpbGUubWFlPic=

> <r_lp_tautomer_probability>
1

> <r_epik_Ionization_Penalty>
2.54991e-05

> <r_epik_Ionization_Penalty_Charging>
5.93057e-06

> <r_epik_Ionization_Penalty_Neutral>
1.95685e-05

> <r_epik_State_Penalty>
-0

> <r_epik_Charging_Adjusted_Penalty>
5.93057e-06

> <i_epik_Tot_Q>
0

> <i_epik_Tot_abs_Q>
0

> <r_epik_Metal_State_Penalty>
-0

> <b_epik_Metal_Only>
0

> <s_lp_Force_Field>
OPLS_2005

> <r_lp_Energy>
32.4408

> <b_lp_Chiralities_Consistent>
1

> <s_lp_Variant>
AV-unprocessed.smi:1143-1

> <Gold.Version>
5.8.1

> <Gold.Id.Protein>
6NUR|6NUR_protein|mol2

> <Gold.PLP.Fitness>
41.8573

> <Gold.PLP.PLP>
-39.7806

> <Gold.PLP.part.hbond>
-2.0000

> <Gold.PLP.part.metal>
0.0000

> <Gold.PLP.part.buried>
0.2909

> <Gold.PLP.part.nonpolar>
-35.8205

> <Gold.PLP.part.repulsive>
0.3643

> <Gold.PLP.ligand.clash>
0.0000

> <Gold.PLP.ligand.torsion>
0.3300

> <Gold.PLP.Chemscore.Hbond>
0.9120

> <Gold.PLP.Chemscore.CHOScore>
0.0000

> <Gold.PLP.Chemscore.Metal>
0.0000

> <Gold.Chemscore.Hbonds>
donor molecule, donor type, donor heavy atom, donor atom, acceptor molecule, acceptor atom, score
      P1  H  7997  8008       L1     7  0.94

> <Gold.PLP.Chemscore.Internal.Correction>
0.0009

> <Gold.Rescore>
     Score         DG    S(hbond)    S(metal)    S(lipo)     H(rot)  DE(clash)    DE(int)     intcor
     12.89     -15.95       0.98        0.00      83.23       1.00       0.07       2.98       ----

> <Gold.Chemscore.Fitness>
12.8913

> <Gold.Chemscore.DG>
-15.9472

> <Gold.Chemscore.ZeroCoef>
-5.4800

> <Gold.Chemscore.Hbond>
0.9850

> <Gold.Chemscore.Metal>
0.0000

> <Gold.Chemscore.Lipo>
83.2251

> <Gold.Chemscore.Internal_Hbond>
0.0000

> <Gold.Chemscore.DEClash>
0.0710

> <Gold.Chemscore.DEInternal>
2.9849

> <Gold.Chemscore.Rot>
1.0000

> <Gold.Chemscore.Internal.Correction>
   9.000000E+99

> <Gold.Chemscore.Hbonds>
donor molecule, donor type, donor heavy atom, donor atom, acceptor molecule, acceptor atom, score
      P1  H  7997  8008       L1     7  0.91

> <Gold.Chemscore.Hbond.Weighted>
-3.2899

> <Gold.Chemscore.Metal.Weighted>
-0.0000

> <Gold.Chemscore.Lipo.Weighted>
-9.7373

> <Gold.Chemscore.Internal_Hbond.Weighted>
0.0000

> <Gold.Chemscore.DEClash.Weighted>
0.0710

> <Gold.Chemscore.DEInternal.Weighted>
2.9849

> <Gold.Chemscore.Rot.Weighted>
2.5600

> <Gold.Chemscore.Internal.Correction.Weighted>
   9.000000E+99

> <Gold.Protein.RotatedTorsions>
[ 6907 6896 6895 6894 ] final -105.36 input  -60.11 | X-H torsion
[ 7974 7965 7964 7962 ] final  -85.35 input  175.53 | X-H torsion
[ 8008 7997 7996 7995 ] final  -70.11 input   59.86 | X-H torsion
[ 10167 10162 10161 10158 ] final   33.72 input  -65.29 | X-H torsion
[ 10718 10713 10712 10709 ] final -136.50 input   66.30 | X-H torsion
[ 10763 10752 10751 10750 ] final  -58.86 input  -60.55 | X-H torsion
[ 11005 11000 10999 10996 ] final   42.13 input  -57.11 | X-H torsion

> <Gold.Protein.ActiveResidues>
 VAL166  LYS551  ARG553  GLY616  TRP617  ASP618  TYR619  PRO620  LYS621  CYS622 
 ASP623  PHE694  ASN695  SER759  ASP760  ASP761  ALA762  ILE779  LEU786  VAL792 
 PHE793  MET794  SER795  GLU796  ALA797  LYS798  CYS799  TRP800  GLU811  SER814 

> <Gold.Protein.RotatedAtoms>
  150.7333  134.0139  159.3678 H   0  0  0  0  0  0  0  0  0  0  0  0  # atno 6907 bound_to 6896
  151.8100  135.0681  160.0421 H   0  0  0  0  0  0  0  0  0  0  0  0  # atno 6908 bound_to 6896
  152.3080  133.5686  159.5698 H   0  0  0  0  0  0  0  0  0  0  0  0  # atno 6909 bound_to 6896
  145.4945  140.9551  143.1794 H   0  0  0  0  0  0  0  0  0  0  0  0  # atno 7974 bound_to 7965
  154.4988  140.0840  156.7753 H   0  0  0  0  0  0  0  0  0  0  0  0  # atno 8008 bound_to 7997
  155.4053  140.3439  155.4241 H   0  0  0  0  0  0  0  0  0  0  0  0  # atno 8009 bound_to 7997
  156.1429  140.1535  156.8880 H   0  0  0  0  0  0  0  0  0  0  0  0  # atno 8010 bound_to 7997
  140.4381  144.1227  150.6169 H   0  0  0  0  0  0  0  0  0  0  0  0  # atno 10167 bound_to 10162
  156.2778  130.7303  151.1290 H   0  0  0  0  0  0  0  0  0  0  0  0  # atno 10718 bound_to 10713
  154.2446  135.6337  153.5219 H   0  0  0  0  0  0  0  0  0  0  0  0  # atno 10763 bound_to 10752
  152.9923  135.5550  154.5873 H   0  0  0  0  0  0  0  0  0  0  0  0  # atno 10764 bound_to 10752
  154.5386  135.2893  155.1090 H   0  0  0  0  0  0  0  0  0  0  0  0  # atno 10765 bound_to 10752
  140.1768  134.4153  155.8224 H   0  0  0  0  0  0  0  0  0  0  0  0  # atno 11005 bound_to 11000
  144.7815  139.6516  143.7152 LP  0  0  0  0  0  0  0  0  0  0  0  0  # atno 17320 bound_to 7965
  146.2264  139.5731  142.9584 LP  0  0  0  0  0  0  0  0  0  0  0  0  # atno 17321 bound_to 7965
  140.4350  143.2551  151.9547 LP  0  0  0  0  0  0  0  0  0  0  0  0  # atno 17342 bound_to 10162
  139.4788  144.5708  151.8090 LP  0  0  0  0  0  0  0  0  0  0  0  0  # atno 17343 bound_to 10162
  157.7305  131.0616  150.5725 LP  0  0  0  0  0  0  0  0  0  0  0  0  # atno 17370 bound_to 10713
  156.5828  130.4309  149.5970 LP  0  0  0  0  0  0  0  0  0  0  0  0  # atno 17371 bound_to 10713
  141.2221  133.6981  156.7861 LP  0  0  0  0  0  0  0  0  0  0  0  0  # atno 17394 bound_to 11000
  140.2313  134.8683  157.3480 LP  0  0  0  0  0  0  0  0  0  0  0  0  # atno 17395 bound_to 11000

$$$$
