AV-unprocessed.smi:2425|AV-procd|sdf|9575|dock2
  -GOLD-   2272013203D 1   1.00000     0.00000
 Structure written by MMmdl.
 35 36  0  0  0  0  0  0  0  0  3 V2000
  144.4432  132.2799  150.4166 C   0  0  0  0  0  0  0  0  0  0  0  0
  145.7783  132.6981  151.0503 C   0  0  0  0  0  0  0  0  0  0  0  0
  145.7478  134.0865  151.7070 C   0  0  0  0  0  0  0  0  0  0  0  0
  147.0188  134.3641  152.3938 N   0  0  0  0  0  0  0  0  0  0  0  0
  147.5175  133.7233  153.4632 C   0  0  0  0  0  0  0  0  0  0  0  0
  146.9438  132.7948  154.0323 O   0  0  0  0  0  0  0  0  0  0  0  0
  148.7025  134.2430  153.8260 N   0  0  0  0  0  0  0  0  0  0  0  0
  149.5393  133.8746  154.9187 C   0  0  0  0  0  0  0  0  0  0  0  0
  149.6057  132.5433  155.3985 C   0  0  0  0  0  0  0  0  0  0  0  0
  150.4926  132.2381  156.4477 C   0  0  0  0  0  0  0  0  0  0  0  0
  151.3031  133.1494  157.0203 N   0  0  0  0  0  0  0  0  0  0  0  0
  151.2532  134.4143  156.5544 C   0  0  0  0  0  0  0  0  0  0  0  0
  150.3977  134.8407  155.5126 C   0  0  0  0  0  0  0  0  0  0  0  0
  150.4309  136.2531  155.0876 N   0  3  0  0  0  0  0  0  0  0  0  0
  149.3833  136.7902  154.7424 O   0  0  0  0  0  0  0  0  0  0  0  0
  151.5123  136.8306  155.1252 O   0  5  0  0  0  0  0  0  0  0  0  0
  145.3823  135.2990  150.8264 C   0  0  0  0  0  0  0  0  0  0  0  0
  144.5909  135.8901  151.9957 C   0  0  0  0  0  0  0  0  0  0  0  0
  144.5362  134.4784  152.5844 C   0  0  0  0  0  0  0  0  0  0  0  0
  144.5129  131.2752  149.9996 H   0  0  0  0  0  0  0  0  0  0  0  0
  144.1555  132.9513  149.6074 H   0  0  0  0  0  0  0  0  0  0  0  0
  143.6396  132.2774  151.1534 H   0  0  0  0  0  0  0  0  0  0  0  0
  146.0507  131.9503  151.7958 H   0  0  0  0  0  0  0  0  0  0  0  0
  146.5629  132.6471  150.2954 H   0  0  0  0  0  0  0  0  0  0  0  0
  147.5693  135.1182  152.0102 H   0  0  0  0  0  0  0  0  0  0  0  0
  148.9962  135.0634  153.3157 H   0  0  0  0  0  0  0  0  0  0  0  0
  149.0112  131.7498  154.9724 H   0  0  0  0  0  0  0  0  0  0  0  0
  150.5610  131.2301  156.8288 H   0  0  0  0  0  0  0  0  0  0  0  0
  151.9188  135.1133  157.0391 H   0  0  0  0  0  0  0  0  0  0  0  0
  146.2242  135.9068  150.4922 H   0  0  0  0  0  0  0  0  0  0  0  0
  144.7376  135.0288  149.9882 H   0  0  0  0  0  0  0  0  0  0  0  0
  145.1796  136.5802  152.6021 H   0  0  0  0  0  0  0  0  0  0  0  0
  143.6215  136.3102  151.7259 H   0  0  0  0  0  0  0  0  0  0  0  0
  143.6251  133.9501  152.2988 H   0  0  0  0  0  0  0  0  0  0  0  0
  144.6868  134.4351  153.6634 H   0  0  0  0  0  0  0  0  0  0  0  0
  1  2  1  0  0  0  0
  1 20  1  0  0  0  0
  1 21  1  0  0  0  0
  1 22  1  0  0  0  0
  2  3  1  0  0  0  0
  2 23  1  0  0  0  0
  2 24  1  0  0  0  0
  3 19  1  0  0  0  0
  3  4  1  0  0  0  0
  3 17  1  0  0  0  0
  4  5  1  0  0  0  0
  4 25  1  0  0  0  0
  5  6  2  0  0  0  0
  5  7  1  0  0  0  0
  7  8  1  0  0  0  0
  7 26  1  0  0  0  0
  8 13  1  0  0  0  0
  8  9  2  0  0  0  0
  9 10  1  0  0  0  0
  9 27  1  0  0  0  0
 10 11  2  0  0  0  0
 10 28  1  0  0  0  0
 11 12  1  0  0  0  0
 12 13  2  0  0  0  0
 12 29  1  0  0  0  0
 13 14  1  0  0  0  0
 14 15  2  0  0  0  0
 14 16  1  0  0  0  0
 17 18  1  0  0  0  0
 17 30  1  0  0  0  0
 17 31  1  0  0  0  0
 18 19  1  0  0  0  0
 18 32  1  0  0  0  0
 18 33  1  0  0  0  0
 19 34  1  0  0  0  0
 19 35  1  0  0  0  0
M  CHG  1  14   1
M  CHG  1  16  -1
M  END
> <s_m_source_file>
AV-unprocessed.smi

> <i_m_source_file_index>
2425

> <i_lp_mmshare_version>
43012

> <i_f3d_flags>
0

> <s_epik_input>
W0NIMl0xW0NIMl1bQ0gyXUMxKFtDSDJdW0NIM10pW05IXUMoPU8pW05IXWMyW2NIXVtjSF1uW2NIXWMyW04rXSg9TylbTy1d

> <s_epik_cmdline>
J2VwaWtfcHl0aG9uJywgJy1waCcsICc3LjAnLCAnLXRuJywgJzgnLCAnLW1hJywgJzIwMCcsICctbWV0YWxfYmluZGluZycsICctaW1hZScsICc8aW5maWxlLm1hZT4nLCAnLW9tYWUnLCAnPG91dGZpbGUubWFlPic=

> <r_lp_tautomer_probability>
1

> <r_epik_Ionization_Penalty>
0.00016416

> <r_epik_Ionization_Penalty_Charging>
0

> <r_epik_Ionization_Penalty_Neutral>
0.00016416

> <r_epik_State_Penalty>
-0

> <r_epik_Charging_Adjusted_Penalty>
0

> <i_epik_Tot_Q>
0

> <i_epik_Tot_abs_Q>
2

> <r_epik_Metal_State_Penalty>
-0

> <b_epik_Metal_Only>
0

> <s_lp_Force_Field>
OPLS_2005

> <r_lp_Energy>
29.2252

> <b_lp_Chiralities_Consistent>
1

> <s_lp_Variant>
AV-unprocessed.smi:2425-1

> <Gold.Version>
5.8.1

> <Gold.Id.Protein>
6NUR|6NUR_protein|mol2

> <Gold.PLP.Fitness>
38.7024

> <Gold.PLP.PLP>
-30.0603

> <Gold.PLP.part.hbond>
-3.9290

> <Gold.PLP.part.metal>
0.0000

> <Gold.PLP.part.buried>
-4.9281

> <Gold.PLP.part.nonpolar>
-22.5095

> <Gold.PLP.part.repulsive>
1.7405

> <Gold.PLP.ligand.clash>
0.0000

> <Gold.PLP.ligand.torsion>
0.9204

> <Gold.PLP.Chemscore.Hbond>
3.3588

> <Gold.PLP.Chemscore.CHOScore>
0.0000

> <Gold.PLP.Chemscore.Metal>
0.0000

> <Gold.Chemscore.Hbonds>
donor molecule, donor type, donor heavy atom, donor atom, acceptor molecule, acceptor atom, score
      L1  H     4    25       P1  7948  1.00
      L1  H     7    26       P1  7948  1.00
      P1  H  6896  6909       L1    11  0.38
      P1  H 10752 10764       L1    16  1.00

> <Gold.PLP.Chemscore.Internal.Correction>
0.4066

> <Gold.Rescore>
     Score         DG    S(hbond)    S(metal)    S(lipo)     H(rot)  DE(clash)    DE(int)     intcor
     15.19     -18.99       3.03        0.00      55.76       1.23       0.41       3.39       ----

> <Gold.Chemscore.Fitness>
15.1906

> <Gold.Chemscore.DG>
-18.9908

> <Gold.Chemscore.ZeroCoef>
-5.4800

> <Gold.Chemscore.Hbond>
3.0332

> <Gold.Chemscore.Metal>
0.0000

> <Gold.Chemscore.Lipo>
55.7606

> <Gold.Chemscore.Internal_Hbond>
0.0000

> <Gold.Chemscore.DEClash>
0.4073

> <Gold.Chemscore.DEInternal>
3.3929

> <Gold.Chemscore.Rot>
1.2282

> <Gold.Chemscore.Internal.Correction>
   9.000000E+99

> <Gold.Chemscore.Hbonds>
donor molecule, donor type, donor heavy atom, donor atom, acceptor molecule, acceptor atom, score
      L1  H     4    25       P1  7948  0.94
      L1  H     7    26       P1  7948  0.29
      P1  H  6896  6909       L1    11  0.19
      P1  H 10752 10764       L1    16  0.73

> <Gold.Chemscore.Hbond.Weighted>
-10.1309

> <Gold.Chemscore.Metal.Weighted>
-0.0000

> <Gold.Chemscore.Lipo.Weighted>
-6.5240

> <Gold.Chemscore.Internal_Hbond.Weighted>
0.0000

> <Gold.Chemscore.DEClash.Weighted>
0.4073

> <Gold.Chemscore.DEInternal.Weighted>
3.3929

> <Gold.Chemscore.Rot.Weighted>
3.1441

> <Gold.Chemscore.Internal.Correction.Weighted>
   9.000000E+99

> <Gold.Protein.RotatedTorsions>
[ 6907 6896 6895 6894 ] final  -51.19 input  -60.11 | X-H torsion
[ 7974 7965 7964 7962 ] final   -2.18 input  175.53 | X-H torsion
[ 8008 7997 7996 7995 ] final  -18.98 input   59.86 | X-H torsion
[ 10167 10162 10161 10158 ] final   -6.03 input  -65.29 | X-H torsion
[ 10718 10713 10712 10709 ] final  -93.05 input   66.30 | X-H torsion
[ 10763 10752 10751 10750 ] final  -62.36 input  -60.55 | X-H torsion
[ 11005 11000 10999 10996 ] final -110.09 input  -57.11 | X-H torsion

> <Gold.Protein.ActiveResidues>
 VAL166  LYS551  ARG553  GLY616  TRP617  ASP618  TYR619  PRO620  LYS621  CYS622 
 ASP623  PHE694  ASN695  SER759  ASP760  ASP761  ALA762  ILE779  LEU786  VAL792 
 PHE793  MET794  SER795  GLU796  ALA797  LYS798  CYS799  TRP800  GLU811  SER814 

> <Gold.Protein.RotatedAtoms>
  150.8635  134.7993  159.7100 H   0  0  0  0  0  0  0  0  0  0  0  0  # atno 6907 bound_to 6896
  152.4664  134.5061  159.9749 H   0  0  0  0  0  0  0  0  0  0  0  0  # atno 6908 bound_to 6896
  151.5161  133.3437  159.2929 H   0  0  0  0  0  0  0  0  0  0  0  0  # atno 6909 bound_to 6896
  146.2408  140.1531  142.8333 H   0  0  0  0  0  0  0  0  0  0  0  0  # atno 7974 bound_to 7965
  154.4868  140.2101  155.9637 H   0  0  0  0  0  0  0  0  0  0  0  0  # atno 8008 bound_to 7997
  156.1248  140.3207  155.8229 H   0  0  0  0  0  0  0  0  0  0  0  0  # atno 8009 bound_to 7997
  155.4404  140.0510  157.3001 H   0  0  0  0  0  0  0  0  0  0  0  0  # atno 8010 bound_to 7997
  140.6983  143.6241  150.8585 H   0  0  0  0  0  0  0  0  0  0  0  0  # atno 10167 bound_to 10162
  156.0009  130.5011  150.5718 H   0  0  0  0  0  0  0  0  0  0  0  0  # atno 10718 bound_to 10713
  154.2987  135.6239  153.5415 H   0  0  0  0  0  0  0  0  0  0  0  0  # atno 10763 bound_to 10752
  152.9843  135.5673  154.5309 H   0  0  0  0  0  0  0  0  0  0  0  0  # atno 10764 bound_to 10752
  154.4935  135.2868  155.1454 H   0  0  0  0  0  0  0  0  0  0  0  0  # atno 10765 bound_to 10752
  141.0811  133.9218  157.2286 H   0  0  0  0  0  0  0  0  0  0  0  0  # atno 11005 bound_to 11000
  145.0151  140.8747  143.5201 LP  0  0  0  0  0  0  0  0  0  0  0  0  # atno 17320 bound_to 7965
  145.1571  139.2480  143.5411 LP  0  0  0  0  0  0  0  0  0  0  0  0  # atno 17321 bound_to 7965
  139.9961  143.5794  152.2893 LP  0  0  0  0  0  0  0  0  0  0  0  0  # atno 17342 bound_to 10162
  139.6467  144.7658  151.2229 LP  0  0  0  0  0  0  0  0  0  0  0  0  # atno 17343 bound_to 10162
  157.3612  131.0750  151.1635 LP  0  0  0  0  0  0  0  0  0  0  0  0  # atno 17370 bound_to 10713
  157.2419  130.6573  149.5893 LP  0  0  0  0  0  0  0  0  0  0  0  0  # atno 17371 bound_to 10713
  139.9625  135.0150  156.9300 LP  0  0  0  0  0  0  0  0  0  0  0  0  # atno 17394 bound_to 11000
  140.5466  134.0668  155.7357 LP  0  0  0  0  0  0  0  0  0  0  0  0  # atno 17395 bound_to 11000

$$$$
