AV-unprocessed.smi:3333|AV-procd|sdf|12832|dock8
  -GOLD-   2272019213D 1   1.00000     0.00000
 Structure written by MMmdl.
 41 43  0  0  0  0  0  0  0  0  1 V2000
  149.3301  140.4227  154.3637 C   0  0  0  0  0  0  0  0  0  0  0  0
  147.8593  140.3588  153.9384 C   0  0  0  0  0  0  0  0  0  0  0  0
  147.0344  141.4296  154.5704 C   0  0  0  0  0  0  0  0  0  0  0  0
  147.0021  141.6530  155.8867 N   0  0  0  0  0  0  0  0  0  0  0  0
  146.1178  142.6780  156.2394 C   0  0  0  0  0  0  0  0  0  0  0  0
  145.9470  143.0573  157.6840 C   0  0  0  0  0  0  0  0  0  0  0  0
  147.2001  142.7398  158.5101 C   0  0  0  0  0  0  0  0  0  0  0  0
  147.1173  142.4281  159.6993 O   0  0  0  0  0  0  0  0  0  0  0  0
  148.3692  142.8177  157.8561 N   0  0  0  0  0  0  0  0  0  0  0  0
  149.6775  142.5601  158.4482 C   0  0  0  0  0  0  0  0  0  0  0  0
  150.6971  143.6676  158.1067 C   0  0  1  0  0  0  0  0  0  0  0  0
  150.5131  144.9705  158.9122 C   0  0  0  0  0  0  0  0  0  0  0  0
  151.9338  145.2526  159.4367 C   0  0  1  0  0  0  0  0  0  0  0  0
  152.2599  144.2599  160.5675 C   0  0  0  0  0  0  0  0  0  0  0  0
  152.4654  142.9373  159.8064 C   0  0  0  0  0  0  0  0  0  0  0  0
  152.1915  143.3375  158.3419 C   0  0  2  0  0  0  0  0  0  0  0  0
  152.8078  144.7325  158.3001 C   0  0  0  0  0  0  0  0  0  0  0  0
  145.4816  143.2378  155.1586 C   0  0  0  0  0  0  0  0  0  0  0  0
  145.9515  142.4786  153.6625 S   0  0  0  0  0  0  0  0  0  0  0  0
  149.9064  139.6270  153.8913 H   0  0  0  0  0  0  0  0  0  0  0  0
  149.4327  140.3134  155.4438 H   0  0  0  0  0  0  0  0  0  0  0  0
  149.7799  141.3745  154.0788 H   0  0  0  0  0  0  0  0  0  0  0  0
  147.7811  140.4457  152.8540 H   0  0  0  0  0  0  0  0  0  0  0  0
  147.4378  139.3891  154.2052 H   0  0  0  0  0  0  0  0  0  0  0  0
  145.7317  144.1221  157.7802 H   0  0  0  0  0  0  0  0  0  0  0  0
  145.0929  142.5299  158.1112 H   0  0  0  0  0  0  0  0  0  0  0  0
  148.3523  143.0745  156.8796 H   0  0  0  0  0  0  0  0  0  0  0  0
  149.5801  142.4671  159.5310 H   0  0  0  0  0  0  0  0  0  0  0  0
  150.0265  141.5880  158.1011 H   0  0  0  0  0  0  0  0  0  0  0  0
  150.5776  143.9124  157.0496 H   0  0  0  0  0  0  0  0  0  0  0  0
  150.1693  145.7757  158.2615 H   0  0  0  0  0  0  0  0  0  0  0  0
  149.7917  144.8716  159.7244 H   0  0  0  0  0  0  0  0  0  0  0  0
  152.1005  146.2949  159.7092 H   0  0  0  0  0  0  0  0  0  0  0  0
  153.1737  144.5480  161.0887 H   0  0  0  0  0  0  0  0  0  0  0  0
  151.4595  144.1960  161.3058 H   0  0  0  0  0  0  0  0  0  0  0  0
  153.4951  142.5955  159.9189 H   0  0  0  0  0  0  0  0  0  0  0  0
  151.8200  142.1370  160.1657 H   0  0  0  0  0  0  0  0  0  0  0  0
  152.6039  142.6385  157.6137 H   0  0  0  0  0  0  0  0  0  0  0  0
  152.6437  145.2532  157.3550 H   0  0  0  0  0  0  0  0  0  0  0  0
  153.8741  144.7437  158.5336 H   0  0  0  0  0  0  0  0  0  0  0  0
  144.7570  144.0384  155.1536 H   0  0  0  0  0  0  0  0  0  0  0  0
  1  2  1  0  0  0  0
  1 20  1  0  0  0  0
  1 21  1  0  0  0  0
  1 22  1  0  0  0  0
  2  3  1  0  0  0  0
  2 23  1  0  0  0  0
  2 24  1  0  0  0  0
  3 19  1  0  0  0  0
  3  4  2  0  0  0  0
  4  5  1  0  0  0  0
  5  6  1  0  0  0  0
  5 18  2  0  0  0  0
  6  7  1  0  0  0  0
  6 25  1  0  0  0  0
  6 26  1  0  0  0  0
  7  8  2  0  0  0  0
  7  9  1  0  0  0  0
  9 10  1  0  0  0  0
  9 27  1  0  0  0  0
 10 11  1  0  0  0  0
 10 28  1  0  0  0  0
 10 29  1  0  0  0  0
 11 16  1  0  0  0  0
 11 12  1  0  0  0  0
 11 30  1  0  0  0  0
 12 13  1  0  0  0  0
 12 31  1  0  0  0  0
 12 32  1  0  0  0  0
 13 17  1  0  0  0  0
 13 14  1  0  0  0  0
 13 33  1  0  0  0  0
 14 15  1  0  0  0  0
 14 34  1  0  0  0  0
 14 35  1  0  0  0  0
 15 16  1  0  0  0  0
 15 36  1  0  0  0  0
 15 37  1  0  0  0  0
 16 17  1  0  0  0  0
 16 38  1  0  0  0  0
 17 39  1  0  0  0  0
 17 40  1  0  0  0  0
 18 19  1  0  0  0  0
 18 41  1  0  0  0  0
M  END
> <s_m_source_file>
AV-unprocessed.smi

> <i_m_source_file_index>
3333

> <i_lp_mmshare_version>
43012

> <i_f3d_flags>
0

> <s_epik_input>
W0NIM11bQ0gyXWMxbmMoW2NIXXMxKVtDSDJdQyg9TylbTkhdW0NIMl1bQ0BIXShbQ0gyXVtDQEBIXTIzKVtDQEBIXShbQ0gyXTMpW0NIMl1bQ0gyXTI=

> <s_epik_cmdline>
J2VwaWtfcHl0aG9uJywgJy1waCcsICc3LjAnLCAnLXRuJywgJzgnLCAnLW1hJywgJzIwMCcsICctbWV0YWxfYmluZGluZycsICctaW1hZScsICc8aW5maWxlLm1hZT4nLCAnLW9tYWUnLCAnPG91dGZpbGUubWFlPic=

> <r_lp_tautomer_probability>
1

> <r_epik_Ionization_Penalty>
6.68371e-05

> <r_epik_Ionization_Penalty_Charging>
0

> <r_epik_Ionization_Penalty_Neutral>
6.68371e-05

> <r_epik_State_Penalty>
-0

> <r_epik_Charging_Adjusted_Penalty>
0

> <i_epik_Tot_Q>
0

> <i_epik_Tot_abs_Q>
0

> <r_epik_Metal_State_Penalty>
-0

> <b_epik_Metal_Only>
0

> <s_lp_Force_Field>
OPLS_2005

> <r_lp_Energy>
44.5958

> <b_lp_Chiralities_Consistent>
1

> <s_lp_Variant>
AV-unprocessed.smi:3333-2

> <Gold.Version>
5.8.1

> <Gold.Id.Protein>
6NUR|6NUR_protein|mol2

> <Gold.PLP.Fitness>
47.2379

> <Gold.PLP.PLP>
-43.1971

> <Gold.PLP.part.hbond>
-3.7008

> <Gold.PLP.part.metal>
0.0000

> <Gold.PLP.part.buried>
-3.3789

> <Gold.PLP.part.nonpolar>
-37.4010

> <Gold.PLP.part.repulsive>
0.2318

> <Gold.PLP.ligand.clash>
0.0000

> <Gold.PLP.ligand.torsion>
1.0064

> <Gold.PLP.Chemscore.Hbond>
2.0088

> <Gold.PLP.Chemscore.CHOScore>
0.0000

> <Gold.PLP.Chemscore.Metal>
0.0000

> <Gold.Chemscore.Hbonds>
donor molecule, donor type, donor heavy atom, donor atom, acceptor molecule, acceptor atom, score
      L1  H     9    27       P1  8028  0.64
      P1  H  6933  6944       L1     8  0.33
      P1  H  6934  6946       L1     8  0.78

> <Gold.PLP.Chemscore.Internal.Correction>
0.0272

> <Gold.Rescore>
     Score         DG    S(hbond)    S(metal)    S(lipo)     H(rot)  DE(clash)    DE(int)     intcor
     20.42     -21.44       1.43        0.00     126.60       1.42       0.14       0.87       ----

> <Gold.Chemscore.Fitness>
20.4204

> <Gold.Chemscore.DG>
-21.4369

> <Gold.Chemscore.ZeroCoef>
-5.4800

> <Gold.Chemscore.Hbond>
1.4333

> <Gold.Chemscore.Metal>
0.0000

> <Gold.Chemscore.Lipo>
126.5957

> <Gold.Chemscore.Internal_Hbond>
0.0000

> <Gold.Chemscore.DEClash>
0.1444

> <Gold.Chemscore.DEInternal>
0.8720

> <Gold.Chemscore.Rot>
1.4227

> <Gold.Chemscore.Internal.Correction>
   9.000000E+99

> <Gold.Chemscore.Hbonds>
donor molecule, donor type, donor heavy atom, donor atom, acceptor molecule, acceptor atom, score
      L1  H     9    27       P1  8028  0.24
      P1  H  6933  6944       L1     8  0.33
      P1  H  6934  6946       L1     8  0.78

> <Gold.Chemscore.Hbond.Weighted>
-4.7873

> <Gold.Chemscore.Metal.Weighted>
-0.0000

> <Gold.Chemscore.Lipo.Weighted>
-14.8117

> <Gold.Chemscore.Internal_Hbond.Weighted>
0.0000

> <Gold.Chemscore.DEClash.Weighted>
0.1444

> <Gold.Chemscore.DEInternal.Weighted>
0.8720

> <Gold.Chemscore.Rot.Weighted>
3.6421

> <Gold.Chemscore.Internal.Correction.Weighted>
   9.000000E+99

> <Gold.Protein.RotatedTorsions>
[ 6907 6896 6895 6894 ] final  136.39 input  -60.11 | X-H torsion
[ 7974 7965 7964 7962 ] final -117.04 input  175.53 | X-H torsion
[ 8008 7997 7996 7995 ] final  -27.50 input   59.86 | X-H torsion
[ 10167 10162 10161 10158 ] final  114.93 input  -65.29 | X-H torsion
[ 10718 10713 10712 10709 ] final  -25.13 input   66.30 | X-H torsion
[ 10763 10752 10751 10750 ] final   88.85 input  -60.55 | X-H torsion
[ 11005 11000 10999 10996 ] final   70.08 input  -57.11 | X-H torsion

> <Gold.Protein.ActiveResidues>
 VAL166  LYS551  ARG553  GLY616  TRP617  ASP618  TYR619  PRO620  LYS621  CYS622 
 ASP623  PHE694  ASN695  SER759  ASP760  ASP761  ALA762  ILE779  LEU786  VAL792 
 PHE793  MET794  SER795  GLU796  ALA797  LYS798  CYS799  TRP800  GLU811  SER814 

> <Gold.Protein.RotatedAtoms>
  152.2899  133.5551  159.5550 H   0  0  0  0  0  0  0  0  0  0  0  0  # atno 6907 bound_to 6896
  150.7231  134.0444  159.3785 H   0  0  0  0  0  0  0  0  0  0  0  0  # atno 6908 bound_to 6896
  151.8350  135.0609  160.0492 H   0  0  0  0  0  0  0  0  0  0  0  0  # atno 6909 bound_to 6896
  145.0898  140.8482  143.3989 H   0  0  0  0  0  0  0  0  0  0  0  0  # atno 7974 bound_to 7965
  154.4375  140.1871  156.0941 H   0  0  0  0  0  0  0  0  0  0  0  0  # atno 8008 bound_to 7997
  156.0343  140.3327  155.7147 H   0  0  0  0  0  0  0  0  0  0  0  0  # atno 8009 bound_to 7997
  155.5794  140.0620  157.2778 H   0  0  0  0  0  0  0  0  0  0  0  0  # atno 8010 bound_to 7997
  139.6353  144.7119  151.2347 H   0  0  0  0  0  0  0  0  0  0  0  0  # atno 10167 bound_to 10162
  156.4685  130.4519  149.6884 H   0  0  0  0  0  0  0  0  0  0  0  0  # atno 10718 bound_to 10713
  153.1810  135.4492  155.0028 H   0  0  0  0  0  0  0  0  0  0  0  0  # atno 10763 bound_to 10752
  154.8030  135.3263  154.7505 H   0  0  0  0  0  0  0  0  0  0  0  0  # atno 10764 bound_to 10752
  153.7969  135.6965  153.4917 H   0  0  0  0  0  0  0  0  0  0  0  0  # atno 10765 bound_to 10752
  139.9618  134.7048  156.0630 H   0  0  0  0  0  0  0  0  0  0  0  0  # atno 11005 bound_to 11000
  145.1079  139.2777  143.5652 LP  0  0  0  0  0  0  0  0  0  0  0  0  # atno 17320 bound_to 7965
  146.3531  140.0666  142.8626 LP  0  0  0  0  0  0  0  0  0  0  0  0  # atno 17321 bound_to 7965
  140.7462  143.6406  150.8338 LP  0  0  0  0  0  0  0  0  0  0  0  0  # atno 17342 bound_to 10162
  140.0037  143.5717  152.2866 LP  0  0  0  0  0  0  0  0  0  0  0  0  # atno 17343 bound_to 10162
  156.3643  130.7497  151.2473 LP  0  0  0  0  0  0  0  0  0  0  0  0  # atno 17370 bound_to 10713
  157.7493  131.0341  150.4303 LP  0  0  0  0  0  0  0  0  0  0  0  0  # atno 17371 bound_to 10713
  141.1295  133.6590  156.3427 LP  0  0  0  0  0  0  0  0  0  0  0  0  # atno 17394 bound_to 11000
  140.5484  134.6052  157.5400 LP  0  0  0  0  0  0  0  0  0  0  0  0  # atno 17395 bound_to 11000

$$$$
