AV-unprocessed.smi:837|AV-procd|sdf|3896|dock2
  -GOLD-   22720 1353D 1   1.00000     0.00000
 Structure written by MMmdl.
 50 52  0  0  0  0  0  0  0  0  2 V2000
  150.4657  138.9246  158.2695 C   0  0  0  0  0  0  0  0  0  0  0  0
  151.2222  140.2266  157.9283 C   0  0  2  0  0  0  0  0  0  0  0  0
  151.4593  141.0563  159.2090 C   0  0  0  0  0  0  0  0  0  0  0  0
  152.2734  142.3291  158.9273 C   0  0  0  0  0  0  0  0  0  0  0  0
  151.6049  143.1930  157.8489 C   0  0  0  0  0  0  0  0  0  0  0  0
  151.3764  142.3843  156.5616 C   0  0  0  0  0  0  0  0  0  0  0  0
  150.5515  141.1013  156.8235 C   0  0  2  0  0  0  0  0  0  0  0  0
  149.1718  141.4289  157.1429 N   0  0  0  0  0  0  0  0  0  0  0  0
  148.3036  140.9748  156.2309 C   0  0  0  0  0  0  0  0  0  0  0  0
  147.0828  141.1202  156.2805 O   0  0  0  0  0  0  0  0  0  0  0  0
  148.9938  140.3299  155.2726 N   0  0  0  0  0  0  0  0  0  0  0  0
  148.3739  139.6494  154.1285 C   0  0  0  0  0  0  0  0  0  0  0  0
  147.3247  138.6118  154.5509 C   0  0  0  0  0  0  0  0  0  0  0  0
  146.3919  138.9223  155.2928 O   0  0  0  0  0  0  0  0  0  0  0  0
  147.4919  137.3745  154.0609 N   0  0  0  0  0  0  0  0  0  0  0  0
  146.5939  136.2469  154.2939 C   0  0  0  0  0  0  0  0  0  0  0  0
  145.2676  136.3567  153.5126 C   0  0  0  0  0  0  0  0  0  0  0  0
  145.0646  135.2445  152.4975 C   0  0  0  0  0  0  0  0  0  0  0  0
  146.0350  134.2311  152.3368 C   0  0  0  0  0  0  0  0  0  0  0  0
  145.8275  133.2217  151.3736 C   0  0  0  0  0  0  0  0  0  0  0  0
  144.6536  133.2481  150.5930 C   0  0  0  0  0  0  0  0  0  0  0  0
  143.7461  134.2322  150.7769 N   0  3  0  0  0  0  0  0  0  0  0  0
  143.9068  135.2147  151.6898 C   0  0  0  0  0  0  0  0  0  0  0  0
  150.3103  140.3423  155.5243 C   0  0  0  0  0  0  0  0  0  0  0  0
  151.2021  139.8279  154.8493 O   0  0  0  0  0  0  0  0  0  0  0  0
  149.4656  139.1272  158.6528 H   0  0  0  0  0  0  0  0  0  0  0  0
  150.9983  138.3556  159.0319 H   0  0  0  0  0  0  0  0  0  0  0  0
  150.3653  138.2730  157.4017 H   0  0  0  0  0  0  0  0  0  0  0  0
  152.2045  139.9290  157.5570 H   0  0  0  0  0  0  0  0  0  0  0  0
  150.5031  141.3281  159.6582 H   0  0  0  0  0  0  0  0  0  0  0  0
  151.9834  140.4528  159.9509 H   0  0  0  0  0  0  0  0  0  0  0  0
  152.3909  142.9055  159.8452 H   0  0  0  0  0  0  0  0  0  0  0  0
  153.2786  142.0552  158.6041 H   0  0  0  0  0  0  0  0  0  0  0  0
  150.6543  143.5769  158.2212 H   0  0  0  0  0  0  0  0  0  0  0  0
  152.2251  144.0637  157.6344 H   0  0  0  0  0  0  0  0  0  0  0  0
  150.8843  143.0137  155.8183 H   0  0  0  0  0  0  0  0  0  0  0  0
  152.3456  142.1175  156.1373 H   0  0  0  0  0  0  0  0  0  0  0  0
  148.9122  141.9445  157.9712 H   0  0  0  0  0  0  0  0  0  0  0  0
  147.9120  140.3917  153.4750 H   0  0  0  0  0  0  0  0  0  0  0  0
  149.1299  139.1483  153.5216 H   0  0  0  0  0  0  0  0  0  0  0  0
  148.2924  137.2048  153.4690 H   0  0  0  0  0  0  0  0  0  0  0  0
  147.1231  135.3471  153.9793 H   0  0  0  0  0  0  0  0  0  0  0  0
  146.3999  136.1324  155.3613 H   0  0  0  0  0  0  0  0  0  0  0  0
  144.4294  136.3565  154.2103 H   0  0  0  0  0  0  0  0  0  0  0  0
  145.2242  137.3163  152.9962 H   0  0  0  0  0  0  0  0  0  0  0  0
  146.9308  134.2296  152.9407 H   0  0  0  0  0  0  0  0  0  0  0  0
  146.5599  132.4398  151.2344 H   0  0  0  0  0  0  0  0  0  0  0  0
  144.4154  132.5188  149.8323 H   0  0  0  0  0  0  0  0  0  0  0  0
  143.1153  135.9489  151.7368 H   0  0  0  0  0  0  0  0  0  0  0  0
  142.9045  134.2359  150.1996 H   0  0  0  0  0  0  0  0  0  0  0  0
  1  2  1  0  0  0  0
  1 26  1  0  0  0  0
  1 27  1  0  0  0  0
  1 28  1  0  0  0  0
  2  7  1  0  0  0  0
  2  3  1  0  0  0  0
  2 29  1  0  0  0  0
  3  4  1  0  0  0  0
  3 30  1  0  0  0  0
  3 31  1  0  0  0  0
  4  5  1  0  0  0  0
  4 32  1  0  0  0  0
  4 33  1  0  0  0  0
  5  6  1  0  0  0  0
  5 34  1  0  0  0  0
  5 35  1  0  0  0  0
  6  7  1  0  0  0  0
  6 36  1  0  0  0  0
  6 37  1  0  0  0  0
  7 24  1  0  0  0  0
  7  8  1  0  0  0  0
  8  9  1  0  0  0  0
  8 38  1  0  0  0  0
  9 10  2  0  0  0  0
  9 11  1  0  0  0  0
 11 12  1  0  0  0  0
 11 24  1  0  0  0  0
 12 13  1  0  0  0  0
 12 39  1  0  0  0  0
 12 40  1  0  0  0  0
 13 14  2  0  0  0  0
 13 15  1  0  0  0  0
 15 16  1  0  0  0  0
 15 41  1  0  0  0  0
 16 17  1  0  0  0  0
 16 42  1  0  0  0  0
 16 43  1  0  0  0  0
 17 18  1  0  0  0  0
 17 44  1  0  0  0  0
 17 45  1  0  0  0  0
 18 23  1  0  0  0  0
 18 19  2  0  0  0  0
 19 20  1  0  0  0  0
 19 46  1  0  0  0  0
 20 21  2  0  0  0  0
 20 47  1  0  0  0  0
 21 22  1  0  0  0  0
 21 48  1  0  0  0  0
 22 23  2  0  0  0  0
 22 50  1  0  0  0  0
 23 49  1  0  0  0  0
 24 25  2  0  0  0  0
M  CHG  1  22   1
M  END
> <s_m_source_file>
AV-unprocessed.smi

> <i_m_source_file_index>
837

> <i_lp_mmshare_version>
43012

> <i_f3d_flags>
0

> <s_epik_input>
W0NIMl0xW0NIMl1bQ0gyXVtDSDJdW0NAQEhdKFtDSDNdKVtDQEBdMTJbTkhdQyg9TylOKEMyPU8pW0NIMl1DKD1PKVtOSF1bQ0gyXVtDSDJdYzNbY0hdW2NIXVtjSF1uW2NIXTM=

> <s_epik_cmdline>
J2VwaWtfcHl0aG9uJywgJy1waCcsICc3LjAnLCAnLXRuJywgJzgnLCAnLW1hJywgJzIwMCcsICctbWV0YWxfYmluZGluZycsICctaW1hZScsICc8aW5maWxlLm1hZT4nLCAnLW9tYWUnLCAnPG91dGZpbGUubWFlPic=

> <r_lp_tautomer_probability>
1

> <r_epik_Ionization_Penalty>
2.28139

> <r_epik_Ionization_Penalty_Charging>
2.28135

> <r_epik_Ionization_Penalty_Neutral>
4.65525e-05

> <r_epik_State_Penalty>
2.43066

> <r_epik_Charging_Adjusted_Penalty>
4.71201

> <i_epik_Tot_Q>
1

> <i_epik_Tot_abs_Q>
1

> <r_epik_Metal_State_Penalty>
2.4646

> <b_epik_Metal_Only>
0

> <s_lp_Force_Field>
OPLS_2005

> <r_lp_Energy>
29.652

> <b_lp_Chiralities_Consistent>
1

> <s_lp_Variant>
AV-unprocessed.smi:837-5

> <Gold.Version>
5.8.1

> <Gold.Id.Protein>
6NUR|6NUR_protein|mol2

> <Gold.PLP.Fitness>
44.4199

> <Gold.PLP.PLP>
-33.9765

> <Gold.PLP.part.hbond>
-2.9514

> <Gold.PLP.part.metal>
0.0000

> <Gold.PLP.part.buried>
-5.5129

> <Gold.PLP.part.nonpolar>
-25.4576

> <Gold.PLP.part.repulsive>
0.2250

> <Gold.PLP.ligand.clash>
0.0000

> <Gold.PLP.ligand.torsion>
0.5040

> <Gold.PLP.Chemscore.Hbond>
3.7913

> <Gold.PLP.Chemscore.CHOScore>
0.0000

> <Gold.PLP.Chemscore.Metal>
0.0000

> <Gold.Chemscore.Hbonds>
donor molecule, donor type, donor heavy atom, donor atom, acceptor molecule, acceptor atom, score
      L1  H    15    41       P1  7948  0.91
      L1  H    22    50       P1 10186  2.00
      P1  H  7989  7998       L1    25  1.00

> <Gold.PLP.Chemscore.Internal.Correction>
0.0776

> <Gold.Rescore>
     Score         DG    S(hbond)    S(metal)    S(lipo)     H(rot)  DE(clash)    DE(int)     intcor
     14.93     -19.24       2.68        0.00      84.03       1.96       0.14       4.18       ----

> <Gold.Chemscore.Fitness>
14.9256

> <Gold.Chemscore.DG>
-19.2388

> <Gold.Chemscore.ZeroCoef>
-5.4800

> <Gold.Chemscore.Hbond>
2.6811

> <Gold.Chemscore.Metal>
0.0000

> <Gold.Chemscore.Lipo>
84.0295

> <Gold.Chemscore.Internal_Hbond>
0.0000

> <Gold.Chemscore.DEClash>
0.1363

> <Gold.Chemscore.DEInternal>
4.1770

> <Gold.Chemscore.Rot>
1.9638

> <Gold.Chemscore.Internal.Correction>
   9.000000E+99

> <Gold.Chemscore.Hbonds>
donor molecule, donor type, donor heavy atom, donor atom, acceptor molecule, acceptor atom, score
      L1  H    15    41       P1  7948  0.87
      L1  H    22    50       P1 10186  0.88
      P1  H  7989  7998       L1    25  0.78

> <Gold.Chemscore.Hbond.Weighted>
-8.9548

> <Gold.Chemscore.Metal.Weighted>
-0.0000

> <Gold.Chemscore.Lipo.Weighted>
-9.8314

> <Gold.Chemscore.Internal_Hbond.Weighted>
0.0000

> <Gold.Chemscore.DEClash.Weighted>
0.1363

> <Gold.Chemscore.DEInternal.Weighted>
4.1770

> <Gold.Chemscore.Rot.Weighted>
5.0274

> <Gold.Chemscore.Internal.Correction.Weighted>
   9.000000E+99

> <Gold.Protein.RotatedTorsions>
[ 6907 6896 6895 6894 ] final  -38.20 input  -60.11 | X-H torsion
[ 7974 7965 7964 7962 ] final  -38.99 input  175.53 | X-H torsion
[ 8008 7997 7996 7995 ] final   35.16 input   59.86 | X-H torsion
[ 10167 10162 10161 10158 ] final  -97.83 input  -65.29 | X-H torsion
[ 10718 10713 10712 10709 ] final  -75.24 input   66.30 | X-H torsion
[ 10763 10752 10751 10750 ] final  162.43 input  -60.55 | X-H torsion
[ 11005 11000 10999 10996 ] final -157.08 input  -57.11 | X-H torsion

> <Gold.Protein.ActiveResidues>
 VAL166  LYS551  ARG553  GLY616  TRP617  ASP618  TYR619  PRO620  LYS621  CYS622 
 ASP623  PHE694  ASN695  SER759  ASP760  ASP761  ALA762  ILE779  LEU786  VAL792 
 PHE793  MET794  SER795  GLU796  ALA797  LYS798  CYS799  TRP800  GLU811  SER814 

> <Gold.Protein.RotatedAtoms>
  151.0054  134.9355  159.7976 H   0  0  0  0  0  0  0  0  0  0  0  0  # atno 6907 bound_to 6896
  152.5289  134.3099  159.9119 H   0  0  0  0  0  0  0  0  0  0  0  0  # atno 6908 bound_to 6896
  151.3105  133.4041  159.2681 H   0  0  0  0  0  0  0  0  0  0  0  0  # atno 6909 bound_to 6896
  146.0437  140.6575  142.9075 H   0  0  0  0  0  0  0  0  0  0  0  0  # atno 7974 bound_to 7965
  155.1665  140.3288  155.4401 H   0  0  0  0  0  0  0  0  0  0  0  0  # atno 8008 bound_to 7997
  156.2525  140.1951  156.6721 H   0  0  0  0  0  0  0  0  0  0  0  0  # atno 8009 bound_to 7997
  154.6368  140.0575  156.9784 H   0  0  0  0  0  0  0  0  0  0  0  0  # atno 8010 bound_to 7997
  140.2793  143.3292  152.0457 H   0  0  0  0  0  0  0  0  0  0  0  0  # atno 10167 bound_to 10162
  156.0214  130.4436  150.3013 H   0  0  0  0  0  0  0  0  0  0  0  0  # atno 10718 bound_to 10713
  154.2783  135.2764  155.2708 H   0  0  0  0  0  0  0  0  0  0  0  0  # atno 10763 bound_to 10752
  154.5241  135.5748  153.6708 H   0  0  0  0  0  0  0  0  0  0  0  0  # atno 10764 bound_to 10752
  152.9933  135.6211  154.2941 H   0  0  0  0  0  0  0  0  0  0  0  0  # atno 10765 bound_to 10752
  140.6685  134.4273  157.5232 H   0  0  0  0  0  0  0  0  0  0  0  0  # atno 11005 bound_to 11000
  144.7087  140.3954  143.7097 LP  0  0  0  0  0  0  0  0  0  0  0  0  # atno 17320 bound_to 7965
  145.6842  139.1625  143.2684 LP  0  0  0  0  0  0  0  0  0  0  0  0  # atno 17321 bound_to 7965
  139.4967  144.6603  151.6480 LP  0  0  0  0  0  0  0  0  0  0  0  0  # atno 17342 bound_to 10162
  140.5825  143.9921  150.6276 LP  0  0  0  0  0  0  0  0  0  0  0  0  # atno 17343 bound_to 10162
  157.1116  131.0223  151.3045 LP  0  0  0  0  0  0  0  0  0  0  0  0  # atno 17370 bound_to 10713
  157.4700  130.7703  149.7314 LP  0  0  0  0  0  0  0  0  0  0  0  0  # atno 17371 bound_to 10713
  139.8989  134.8603  156.1981 LP  0  0  0  0  0  0  0  0  0  0  0  0  # atno 17394 bound_to 11000
  141.0410  133.6938  156.1598 LP  0  0  0  0  0  0  0  0  0  0  0  0  # atno 17395 bound_to 11000

$$$$
