AV-unprocessed.smi:2945|AV-procd|sdf|11276|dock7
  -GOLD-   2272016173D 1   1.00000     0.00000
 Structure written by MMmdl.
 36 37  0  0  0  0  0  0  0  0  1 V2000
  152.5271  131.6411  156.4497 C   0  0  0  0  0  0  0  0  0  0  0  0
  151.5626  132.6017  155.8431 C   0  0  0  0  0  0  0  0  0  0  0  0
  150.6913  132.5077  154.7945 C   0  0  0  0  0  0  0  0  0  0  0  0
  150.0844  133.7914  154.7671 C   0  0  0  0  0  0  0  0  0  0  0  0
  149.0979  134.1083  153.7988 N   0  0  0  0  0  0  0  0  0  0  0  0
  147.9687  133.4322  153.5270 C   0  0  0  0  0  0  0  0  0  0  0  0
  147.6097  132.3981  154.0908 O   0  0  0  0  0  0  0  0  0  0  0  0
  147.2697  134.0311  152.5512 N   0  0  0  0  0  0  0  0  0  0  0  0
  146.0049  133.5611  151.9860 C   0  0  2  0  0  0  0  0  0  0  0  0
  146.2142  132.1400  151.4265 C   0  0  0  0  0  0  0  0  0  0  0  0
  144.9456  131.6004  150.7509 C   0  0  0  0  0  0  0  0  0  0  0  0
  144.4660  132.5527  149.6479 C   0  0  0  0  0  0  0  0  0  0  0  0
  144.2343  133.9654  150.2039 C   0  0  0  0  0  0  0  0  0  0  0  0
  145.4959  134.5310  150.8882 C   0  0  1  0  0  0  0  0  0  0  0  0
  145.2248  135.9475  151.4257 C   0  0  0  0  0  0  0  0  0  0  0  0
  150.5444  134.5968  155.7124 N   0  0  0  0  0  0  0  0  0  0  0  0
  151.4944  133.8383  156.4067 O   0  0  0  0  0  0  0  0  0  0  0  0
  152.4241  130.6518  156.0038 H   0  0  0  0  0  0  0  0  0  0  0  0
  152.3570  131.5476  157.5225 H   0  0  0  0  0  0  0  0  0  0  0  0
  153.5531  131.9760  156.2971 H   0  0  0  0  0  0  0  0  0  0  0  0
  150.5179  131.6564  154.1532 H   0  0  0  0  0  0  0  0  0  0  0  0
  149.2717  134.9394  153.2534 H   0  0  0  0  0  0  0  0  0  0  0  0
  147.6473  134.8800  152.1565 H   0  0  0  0  0  0  0  0  0  0  0  0
  145.2442  133.4996  152.7666 H   0  0  0  0  0  0  0  0  0  0  0  0
  147.0314  132.1441  150.7034 H   0  0  0  0  0  0  0  0  0  0  0  0
  146.5155  131.4642  152.2278 H   0  0  0  0  0  0  0  0  0  0  0  0
  145.1386  130.6127  150.3313 H   0  0  0  0  0  0  0  0  0  0  0  0
  144.1585  131.4736  151.4954 H   0  0  0  0  0  0  0  0  0  0  0  0
  145.2056  132.5896  148.8470 H   0  0  0  0  0  0  0  0  0  0  0  0
  143.5461  132.1724  149.2026 H   0  0  0  0  0  0  0  0  0  0  0  0
  143.9215  134.6259  149.3943 H   0  0  0  0  0  0  0  0  0  0  0  0
  143.4089  133.9422  150.9168 H   0  0  0  0  0  0  0  0  0  0  0  0
  146.2721  134.6147  150.1257 H   0  0  0  0  0  0  0  0  0  0  0  0
  144.4809  135.9310  152.2229 H   0  0  0  0  0  0  0  0  0  0  0  0
  144.8518  136.6012  150.6370 H   0  0  0  0  0  0  0  0  0  0  0  0
  146.1284  136.4086  151.8240 H   0  0  0  0  0  0  0  0  0  0  0  0
  1  2  1  0  0  0  0
  1 18  1  0  0  0  0
  1 19  1  0  0  0  0
  1 20  1  0  0  0  0
  2 17  1  0  0  0  0
  2  3  2  0  0  0  0
  3  4  1  0  0  0  0
  3 21  1  0  0  0  0
  4  5  1  0  0  0  0
  4 16  2  0  0  0  0
  5  6  1  0  0  0  0
  5 22  1  0  0  0  0
  6  7  2  0  0  0  0
  6  8  1  0  0  0  0
  8  9  1  0  0  0  0
  8 23  1  0  0  0  0
  9 14  1  0  0  0  0
  9 10  1  0  0  0  0
  9 24  1  0  0  0  0
 10 11  1  0  0  0  0
 10 25  1  0  0  0  0
 10 26  1  0  0  0  0
 11 12  1  0  0  0  0
 11 27  1  0  0  0  0
 11 28  1  0  0  0  0
 12 13  1  0  0  0  0
 12 29  1  0  0  0  0
 12 30  1  0  0  0  0
 13 14  1  0  0  0  0
 13 31  1  0  0  0  0
 13 32  1  0  0  0  0
 14 15  1  0  0  0  0
 14 33  1  0  0  0  0
 15 34  1  0  0  0  0
 15 35  1  0  0  0  0
 15 36  1  0  0  0  0
 16 17  1  0  0  0  0
M  END
> <s_m_source_file>
AV-unprocessed.smi

> <i_m_source_file_index>
2945

> <i_lp_mmshare_version>
43012

> <i_f3d_flags>
0

> <s_epik_input>
W0NIM11jMVtjSF1jKG5vMSlbTkhdQyg9TylbTkhdW0NAQEhdMltDSDJdW0NIMl1bQ0gyXVtDSDJdW0NASF0yW0NIM10=

> <s_epik_cmdline>
J2VwaWtfcHl0aG9uJywgJy1waCcsICc3LjAnLCAnLXRuJywgJzgnLCAnLW1hJywgJzIwMCcsICctbWV0YWxfYmluZGluZycsICctaW1hZScsICc8aW5maWxlLm1hZT4nLCAnLW9tYWUnLCAnPG91dGZpbGUubWFlPic=

> <r_lp_tautomer_probability>
1

> <r_epik_Ionization_Penalty>
2.357e-05

> <r_epik_Ionization_Penalty_Charging>
0

> <r_epik_Ionization_Penalty_Neutral>
2.357e-05

> <r_epik_State_Penalty>
-0

> <r_epik_Charging_Adjusted_Penalty>
0

> <i_epik_Tot_Q>
0

> <i_epik_Tot_abs_Q>
0

> <r_epik_Metal_State_Penalty>
-0

> <b_epik_Metal_Only>
0

> <s_lp_Force_Field>
OPLS_2005

> <r_lp_Energy>
8.52615

> <b_lp_Chiralities_Consistent>
1

> <s_lp_Variant>
AV-unprocessed.smi:2945-1

> <Gold.Version>
5.8.1

> <Gold.Id.Protein>
6NUR|6NUR_protein|mol2

> <Gold.PLP.Fitness>
36.1714

> <Gold.PLP.PLP>
-31.2913

> <Gold.PLP.part.hbond>
-2.6266

> <Gold.PLP.part.metal>
0.0000

> <Gold.PLP.part.buried>
-4.4640

> <Gold.PLP.part.nonpolar>
-24.1293

> <Gold.PLP.part.repulsive>
0.0844

> <Gold.PLP.ligand.clash>
0.0000

> <Gold.PLP.ligand.torsion>
0.4869

> <Gold.PLP.Chemscore.Hbond>
1.9500

> <Gold.PLP.Chemscore.CHOScore>
0.0000

> <Gold.PLP.Chemscore.Metal>
0.0000

> <Gold.Chemscore.Hbonds>
donor molecule, donor type, donor heavy atom, donor atom, acceptor molecule, acceptor atom, score
      L1  H     5    22       P1  7948  0.60
      L1  H     8    23       P1  7948  1.00

> <Gold.PLP.Chemscore.Internal.Correction>
0.0040

> <Gold.Rescore>
     Score         DG    S(hbond)    S(metal)    S(lipo)     H(rot)  DE(clash)    DE(int)     intcor
     15.50     -16.18       1.64        0.00      66.60       1.00       0.16       0.52       ----

> <Gold.Chemscore.Fitness>
15.5008

> <Gold.Chemscore.DG>
-16.1822

> <Gold.Chemscore.ZeroCoef>
-5.4800

> <Gold.Chemscore.Hbond>
1.6378

> <Gold.Chemscore.Metal>
0.0000

> <Gold.Chemscore.Lipo>
66.5982

> <Gold.Chemscore.Internal_Hbond>
0.0000

> <Gold.Chemscore.DEClash>
0.1618

> <Gold.Chemscore.DEInternal>
0.5196

> <Gold.Chemscore.Rot>
1.0000

> <Gold.Chemscore.Internal.Correction>
   9.000000E+99

> <Gold.Chemscore.Hbonds>
donor molecule, donor type, donor heavy atom, donor atom, acceptor molecule, acceptor atom, score
      L1  H     5    22       P1  7948  0.04
      L1  H     8    23       P1  7948  0.81

> <Gold.Chemscore.Hbond.Weighted>
-5.4702

> <Gold.Chemscore.Metal.Weighted>
-0.0000

> <Gold.Chemscore.Lipo.Weighted>
-7.7920

> <Gold.Chemscore.Internal_Hbond.Weighted>
0.0000

> <Gold.Chemscore.DEClash.Weighted>
0.1618

> <Gold.Chemscore.DEInternal.Weighted>
0.5196

> <Gold.Chemscore.Rot.Weighted>
2.5600

> <Gold.Chemscore.Internal.Correction.Weighted>
   9.000000E+99

> <Gold.Protein.RotatedTorsions>
[ 6907 6896 6895 6894 ] final  -77.10 input  -60.11 | X-H torsion
[ 7974 7965 7964 7962 ] final  -90.51 input  175.53 | X-H torsion
[ 8008 7997 7996 7995 ] final   98.76 input   59.86 | X-H torsion
[ 10167 10162 10161 10158 ] final  160.76 input  -65.29 | X-H torsion
[ 10718 10713 10712 10709 ] final -165.22 input   66.30 | X-H torsion
[ 10763 10752 10751 10750 ] final   -3.62 input  -60.55 | X-H torsion
[ 11005 11000 10999 10996 ] final  106.76 input  -57.11 | X-H torsion

> <Gold.Protein.ActiveResidues>
 VAL166  LYS551  ARG553  GLY616  TRP617  ASP618  TYR619  PRO620  LYS621  CYS622 
 ASP623  PHE694  ASN695  SER759  ASP760  ASP761  ALA762  ILE779  LEU786  VAL792 
 PHE793  MET794  SER795  GLU796  ALA797  LYS798  CYS799  TRP800  GLU811  SER814 

> <Gold.Protein.RotatedAtoms>
  150.7008  134.4473  159.5319 H   0  0  0  0  0  0  0  0  0  0  0  0  # atno 6907 bound_to 6896
  152.2172  134.8444  160.0499 H   0  0  0  0  0  0  0  0  0  0  0  0  # atno 6908 bound_to 6896
  151.9308  133.3575  159.3967 H   0  0  0  0  0  0  0  0  0  0  0  0  # atno 6909 bound_to 6896
  145.4255  140.9553  143.2157 H   0  0  0  0  0  0  0  0  0  0  0  0  # atno 7974 bound_to 7965
  156.1037  140.3239  155.7977 H   0  0  0  0  0  0  0  0  0  0  0  0  # atno 8008 bound_to 7997
  155.4793  140.0552  157.2986 H   0  0  0  0  0  0  0  0  0  0  0  0  # atno 8009 bound_to 7997
  154.4713  140.2013  156.0002 H   0  0  0  0  0  0  0  0  0  0  0  0  # atno 8010 bound_to 7997
  139.4843  144.4603  151.8714 H   0  0  0  0  0  0  0  0  0  0  0  0  # atno 10167 bound_to 10162
  156.6503  130.9005  151.3012 H   0  0  0  0  0  0  0  0  0  0  0  0  # atno 10718 bound_to 10713
  153.3738  135.6995  153.6618 H   0  0  0  0  0  0  0  0  0  0  0  0  # atno 10763 bound_to 10752
  153.5257  135.3602  155.2653 H   0  0  0  0  0  0  0  0  0  0  0  0  # atno 10764 bound_to 10752
  154.8684  135.4168  154.3021 H   0  0  0  0  0  0  0  0  0  0  0  0  # atno 10765 bound_to 10752
  139.8818  134.9379  156.5715 H   0  0  0  0  0  0  0  0  0  0  0  0  # atno 11005 bound_to 11000
  144.8217  139.5780  143.6984 LP  0  0  0  0  0  0  0  0  0  0  0  0  # atno 17320 bound_to 7965
  146.2634  139.6463  142.9346 LP  0  0  0  0  0  0  0  0  0  0  0  0  # atno 17321 bound_to 7965
  140.4065  144.2425  150.5890 LP  0  0  0  0  0  0  0  0  0  0  0  0  # atno 17342 bound_to 10162
  140.5008  143.2318  151.8682 LP  0  0  0  0  0  0  0  0  0  0  0  0  # atno 17343 bound_to 10162
  157.7143  130.9478  150.1198 LP  0  0  0  0  0  0  0  0  0  0  0  0  # atno 17370 bound_to 10713
  156.2089  130.3665  149.8694 LP  0  0  0  0  0  0  0  0  0  0  0  0  # atno 17371 bound_to 10713
  140.8095  133.8441  155.8797 LP  0  0  0  0  0  0  0  0  0  0  0  0  # atno 17394 bound_to 11000
  140.9519  134.1767  157.4721 LP  0  0  0  0  0  0  0  0  0  0  0  0  # atno 17395 bound_to 11000

$$$$
