AV-unprocessed.smi:877|AV-procd|sdf|4028|dock10
  -GOLD-   22720 1523D 1   1.00000     0.00000
 Structure written by MMmdl.
 43 45  0  0  0  0  0  0  0  0  1 V2000
  153.0324  142.7375  162.2097 C   0  0  0  0  0  0  0  0  0  0  0  0
  152.6711  143.7190  161.2491 O   0  0  0  0  0  0  0  0  0  0  0  0
  152.2690  143.2889  160.0027 C   0  0  0  0  0  0  0  0  0  0  0  0
  152.1453  141.9258  159.6319 C   0  0  0  0  0  0  0  0  0  0  0  0
  151.7280  141.5751  158.3334 C   0  0  0  0  0  0  0  0  0  0  0  0
  151.4290  142.5758  157.3875 C   0  0  0  0  0  0  0  0  0  0  0  0
  150.9851  142.1892  155.9869 C   0  0  0  0  0  0  0  0  0  0  0  0
  150.8406  140.7045  155.7875 C   0  0  0  0  0  0  0  0  0  0  0  0
  151.8846  139.8731  155.8405 N   0  0  0  0  0  0  0  0  0  0  0  0
  151.3108  138.6403  155.6044 C   0  0  0  0  0  0  0  0  0  0  0  0
  151.8915  137.3537  155.5396 C   0  0  0  0  0  0  0  0  0  0  0  0
  151.0916  136.2218  155.2788 C   0  0  0  0  0  0  0  0  0  0  0  0
  149.7029  136.3605  155.0779 C   0  0  0  0  0  0  0  0  0  0  0  0
  149.1049  137.6340  155.1378 C   0  0  0  0  0  0  0  0  0  0  0  0
  149.9081  138.7601  155.4001 C   0  0  0  0  0  0  0  0  0  0  0  0
  149.6426  140.1204  155.5229 N   0  0  0  0  0  0  0  0  0  0  0  0
  148.3317  140.7421  155.3855 C   0  0  0  0  0  0  0  0  0  0  0  0
  147.9735  141.0477  153.9170 C   0  0  1  0  0  0  0  0  0  0  0  0
  149.1570  141.2980  153.1840 O   0  0  0  0  0  0  0  0  0  0  0  0
  147.2254  139.8781  153.2559 C   0  0  0  0  0  0  0  0  0  0  0  0
  146.8027  140.2404  151.9577 O   0  0  0  0  0  0  0  0  0  0  0  0
  151.5491  143.9325  157.7498 C   0  0  0  0  0  0  0  0  0  0  0  0
  151.9667  144.2820  159.0483 C   0  0  0  0  0  0  0  0  0  0  0  0
  153.3233  143.2312  163.1368 H   0  0  0  0  0  0  0  0  0  0  0  0
  153.8825  142.1425  161.8729 H   0  0  0  0  0  0  0  0  0  0  0  0
  152.1949  142.0762  162.4368 H   0  0  0  0  0  0  0  0  0  0  0  0
  152.3662  141.1288  160.3251 H   0  0  0  0  0  0  0  0  0  0  0  0
  151.6414  140.5327  158.0630 H   0  0  0  0  0  0  0  0  0  0  0  0
  150.0385  142.6927  155.7953 H   0  0  0  0  0  0  0  0  0  0  0  0
  151.6957  142.5712  155.2534 H   0  0  0  0  0  0  0  0  0  0  0  0
  152.9544  137.2378  155.6911 H   0  0  0  0  0  0  0  0  0  0  0  0
  151.5461  135.2432  155.2321 H   0  0  0  0  0  0  0  0  0  0  0  0
  149.0973  135.4888  154.8780 H   0  0  0  0  0  0  0  0  0  0  0  0
  148.0415  137.7441  154.9855 H   0  0  0  0  0  0  0  0  0  0  0  0
  147.5724  140.1159  155.8535 H   0  0  0  0  0  0  0  0  0  0  0  0
  148.3418  141.6691  155.9601 H   0  0  0  0  0  0  0  0  0  0  0  0
  147.3516  141.9438  153.8862 H   0  0  0  0  0  0  0  0  0  0  0  0
  149.2571  140.6122  152.5412 H   0  0  0  0  0  0  0  0  0  0  0  0
  147.8442  138.9806  153.2135 H   0  0  0  0  0  0  0  0  0  0  0  0
  146.3345  139.6273  153.8325 H   0  0  0  0  0  0  0  0  0  0  0  0
  147.5673  140.3666  151.4167 H   0  0  0  0  0  0  0  0  0  0  0  0
  151.3271  144.7088  157.0321 H   0  0  0  0  0  0  0  0  0  0  0  0
  152.0570  145.3251  159.3143 H   0  0  0  0  0  0  0  0  0  0  0  0
  1  2  1  0  0  0  0
  1 24  1  0  0  0  0
  1 25  1  0  0  0  0
  1 26  1  0  0  0  0
  2  3  1  0  0  0  0
  3 23  1  0  0  0  0
  3  4  2  0  0  0  0
  4  5  1  0  0  0  0
  4 27  1  0  0  0  0
  5  6  2  0  0  0  0
  5 28  1  0  0  0  0
  6  7  1  0  0  0  0
  6 22  1  0  0  0  0
  7  8  1  0  0  0  0
  7 29  1  0  0  0  0
  7 30  1  0  0  0  0
  8 16  1  0  0  0  0
  8  9  2  0  0  0  0
  9 10  1  0  0  0  0
 10 15  2  0  0  0  0
 10 11  1  0  0  0  0
 11 12  2  0  0  0  0
 11 31  1  0  0  0  0
 12 13  1  0  0  0  0
 12 32  1  0  0  0  0
 13 14  2  0  0  0  0
 13 33  1  0  0  0  0
 14 15  1  0  0  0  0
 14 34  1  0  0  0  0
 15 16  1  0  0  0  0
 16 17  1  0  0  0  0
 17 18  1  0  0  0  0
 17 35  1  0  0  0  0
 17 36  1  0  0  0  0
 18 19  1  0  0  0  0
 18 20  1  0  0  0  0
 18 37  1  0  0  0  0
 19 38  1  0  0  0  0
 20 21  1  0  0  0  0
 20 39  1  0  0  0  0
 20 40  1  0  0  0  0
 21 41  1  0  0  0  0
 22 23  2  0  0  0  0
 22 42  1  0  0  0  0
 23 43  1  0  0  0  0
M  END
> <s_m_source_file>
AV-unprocessed.smi

> <i_m_source_file_index>
877

> <i_lp_mmshare_version>
43012

> <i_f3d_flags>
0

> <s_epik_input>
W0NIM11PYzFbY0hdW2NIXWMoW2NIXVtjSF0xKVtDSDJdYyhuMiluKFtDSDJdW0NASF0oW09IXSlbQ0gyXVtPSF0pYyhjMjMpW2NIXVtjSF1bY0hdW2NIXTM=

> <s_epik_cmdline>
J2VwaWtfcHl0aG9uJywgJy1waCcsICc3LjAnLCAnLXRuJywgJzgnLCAnLW1hJywgJzIwMCcsICctbWV0YWxfYmluZGluZycsICctaW1hZScsICc8aW5maWxlLm1hZT4nLCAnLW9tYWUnLCAnPG91dGZpbGUubWFlPic=

> <r_lp_tautomer_probability>
1

> <r_epik_Ionization_Penalty>
0.0616669

> <r_epik_Ionization_Penalty_Charging>
0

> <r_epik_Ionization_Penalty_Neutral>
0.0616669

> <r_epik_State_Penalty>
0.0535415

> <r_epik_Charging_Adjusted_Penalty>
0.0535415

> <i_epik_Tot_Q>
0

> <i_epik_Tot_abs_Q>
0

> <r_epik_Metal_State_Penalty>
5.60326e-05

> <b_epik_Metal_Only>
0

> <s_lp_Force_Field>
OPLS_2005

> <r_lp_Energy>
19.9882

> <b_lp_Chiralities_Consistent>
1

> <s_lp_Variant>
AV-unprocessed.smi:877-2

> <Gold.Version>
5.8.1

> <Gold.Id.Protein>
6NUR|6NUR_protein|mol2

> <Gold.PLP.Fitness>
53.7370

> <Gold.PLP.PLP>
-46.3462

> <Gold.PLP.part.hbond>
-4.0416

> <Gold.PLP.part.metal>
0.0000

> <Gold.PLP.part.buried>
-7.0281

> <Gold.PLP.part.nonpolar>
-35.6335

> <Gold.PLP.part.repulsive>
0.1133

> <Gold.PLP.ligand.clash>
0.0000

> <Gold.PLP.ligand.torsion>
0.7887

> <Gold.PLP.Chemscore.Hbond>
2.9600

> <Gold.PLP.Chemscore.CHOScore>
0.0000

> <Gold.PLP.Chemscore.Metal>
0.0000

> <Gold.Chemscore.Hbonds>
donor molecule, donor type, donor heavy atom, donor atom, acceptor molecule, acceptor atom, score
      L1  H    19    38       P1  7957  1.00
      L1  H    21    41       P1  7957  0.97
      P1  H  8011  8017       L1    19  0.80

> <Gold.PLP.Chemscore.Internal.Correction>
0.0881

> <Gold.Rescore>
     Score         DG    S(hbond)    S(metal)    S(lipo)     H(rot)  DE(clash)    DE(int)     intcor
     17.89     -19.91       2.28        0.00     127.24       3.15       0.17       1.84       ----

> <Gold.Chemscore.Fitness>
17.8928

> <Gold.Chemscore.DG>
-19.9067

> <Gold.Chemscore.ZeroCoef>
-5.4800

> <Gold.Chemscore.Hbond>
2.2756

> <Gold.Chemscore.Metal>
0.0000

> <Gold.Chemscore.Lipo>
127.2401

> <Gold.Chemscore.Internal_Hbond>
0.0000

> <Gold.Chemscore.DEClash>
0.1716

> <Gold.Chemscore.DEInternal>
1.8424

> <Gold.Chemscore.Rot>
3.1488

> <Gold.Chemscore.Internal.Correction>
   9.000000E+99

> <Gold.Chemscore.Hbonds>
donor molecule, donor type, donor heavy atom, donor atom, acceptor molecule, acceptor atom, score
      L1  H    19    38       P1  7957  0.91
      L1  H    21    41       P1  7957  0.86
      P1  H  8011  8017       L1    19  0.11

> <Gold.Chemscore.Hbond.Weighted>
-7.6005

> <Gold.Chemscore.Metal.Weighted>
-0.0000

> <Gold.Chemscore.Lipo.Weighted>
-14.8871

> <Gold.Chemscore.Internal_Hbond.Weighted>
0.0000

> <Gold.Chemscore.DEClash.Weighted>
0.1716

> <Gold.Chemscore.DEInternal.Weighted>
1.8424

> <Gold.Chemscore.Rot.Weighted>
8.0608

> <Gold.Chemscore.Internal.Correction.Weighted>
   9.000000E+99

> <Gold.Protein.RotatedTorsions>
[ 6907 6896 6895 6894 ] final -154.48 input  -60.11 | X-H torsion
[ 7974 7965 7964 7962 ] final  -52.88 input  175.53 | X-H torsion
[ 8008 7997 7996 7995 ] final  -13.90 input   59.86 | X-H torsion
[ 10167 10162 10161 10158 ] final    3.63 input  -65.29 | X-H torsion
[ 10718 10713 10712 10709 ] final   74.00 input   66.30 | X-H torsion
[ 10763 10752 10751 10750 ] final -173.87 input  -60.55 | X-H torsion
[ 11005 11000 10999 10996 ] final  129.28 input  -57.11 | X-H torsion

> <Gold.Protein.ActiveResidues>
 VAL166  LYS551  ARG553  GLY616  TRP617  ASP618  TYR619  PRO620  LYS621  CYS622 
 ASP623  PHE694  ASN695  SER759  ASP760  ASP761  ALA762  ILE779  LEU786  VAL792 
 PHE793  MET794  SER795  GLU796  ALA797  LYS798  CYS799  TRP800  GLU811  SER814 

> <Gold.Protein.RotatedAtoms>
  151.2581  133.4316  159.2614 H   0  0  0  0  0  0  0  0  0  0  0  0  # atno 6907 bound_to 6896
  151.0556  134.9702  159.8244 H   0  0  0  0  0  0  0  0  0  0  0  0  # atno 6908 bound_to 6896
  152.5390  134.2533  159.8960 H   0  0  0  0  0  0  0  0  0  0  0  0  # atno 6909 bound_to 6896
  145.9031  140.7978  142.9733 H   0  0  0  0  0  0  0  0  0  0  0  0  # atno 7974 bound_to 7965
  154.5254  140.2237  155.8900 H   0  0  0  0  0  0  0  0  0  0  0  0  # atno 8008 bound_to 7997
  156.1707  140.3122  155.8933 H   0  0  0  0  0  0  0  0  0  0  0  0  # atno 8009 bound_to 7997
  155.3563  140.0458  157.3037 H   0  0  0  0  0  0  0  0  0  0  0  0  # atno 8010 bound_to 7997
  140.6576  143.7388  150.7680 H   0  0  0  0  0  0  0  0  0  0  0  0  # atno 10167 bound_to 10162
  157.6573  130.9656  150.1149 H   0  0  0  0  0  0  0  0  0  0  0  0  # atno 10718 bound_to 10713
  154.6028  135.2856  155.0517 H   0  0  0  0  0  0  0  0  0  0  0  0  # atno 10763 bound_to 10752
  154.1775  135.6462  153.5029 H   0  0  0  0  0  0  0  0  0  0  0  0  # atno 10764 bound_to 10752
  153.0163  135.5415  154.6753 H   0  0  0  0  0  0  0  0  0  0  0  0  # atno 10765 bound_to 10752
  139.9607  134.9603  156.9125 H   0  0  0  0  0  0  0  0  0  0  0  0  # atno 11005 bound_to 11000
  144.6737  140.1707  143.7414 LP  0  0  0  0  0  0  0  0  0  0  0  0  # atno 17320 bound_to 7965
  145.8766  139.2300  143.1629 LP  0  0  0  0  0  0  0  0  0  0  0  0  # atno 17321 bound_to 7965
  140.1051  143.4752  152.2403 LP  0  0  0  0  0  0  0  0  0  0  0  0  # atno 17342 bound_to 10162
  139.5802  144.7506  151.3661 LP  0  0  0  0  0  0  0  0  0  0  0  0  # atno 17343 bound_to 10162
  156.2036  130.3662  149.8757 LP  0  0  0  0  0  0  0  0  0  0  0  0  # atno 17370 bound_to 10713
  156.6654  130.8799  151.3554 LP  0  0  0  0  0  0  0  0  0  0  0  0  # atno 17371 bound_to 10713
  140.5508  134.0629  155.7368 LP  0  0  0  0  0  0  0  0  0  0  0  0  # atno 17394 bound_to 11000
  141.1283  133.9345  157.2589 LP  0  0  0  0  0  0  0  0  0  0  0  0  # atno 17395 bound_to 11000

$$$$
