AV-unprocessed.smi:157|AV-procd|sdf|1304|dock8
  -GOLD-   2262018593D 1   1.00000     0.00000
 Structure written by MMmdl.
 35 37  0  0  0  0  0  0  0  0  1 V2000
  148.4306  140.7363  153.3952 O   0  0  0  0  0  0  0  0  0  0  0  0
  148.1105  139.5482  154.0873 C   0  0  0  0  0  0  0  0  0  0  0  0
  149.2908  139.0987  154.9631 C   0  0  2  0  0  0  0  0  0  0  0  0
  149.5965  140.1266  155.9078 O   0  0  0  0  0  0  0  0  0  0  0  0
  150.9489  140.4562  155.8308 C   0  0  1  0  0  0  0  0  0  0  0  0
  151.4689  140.6949  157.2133 N   0  0  0  0  0  0  0  0  0  0  0  0
  151.9129  139.7597  158.0632 C   0  0  0  0  0  0  0  0  0  0  0  0
  152.3289  140.2285  159.2272 N   0  0  0  0  0  0  0  0  0  0  0  0
  152.1451  141.6058  159.1197 C   0  0  0  0  0  0  0  0  0  0  0  0
  151.6186  141.9176  157.8742 C   0  0  0  0  0  0  0  0  0  0  0  0
  151.2380  143.0703  157.2139 N   0  0  0  0  0  0  0  0  0  0  0  0
  151.6745  144.2044  157.6639 C   0  0  0  0  0  0  0  0  0  0  0  0
  152.4245  144.4916  158.7954 N   0  0  0  0  0  0  0  0  0  0  0  0
  152.1161  143.9666  160.1145 C   0  0  0  0  0  0  0  0  0  0  0  0
  152.4863  142.4884  160.2855 C   0  0  2  0  0  0  0  0  0  0  0  0
  153.8794  142.3769  160.4945 O   0  0  0  0  0  0  0  0  0  0  0  0
  151.6465  139.2622  155.1961 C   0  0  0  0  0  0  0  0  0  0  0  0
  150.5964  138.8430  154.1913 C   0  0  1  0  0  0  0  0  0  0  0  0
  150.7599  137.4862  153.8335 O   0  0  0  0  0  0  0  0  0  0  0  0
  149.0155  138.2182  155.5463 H   0  0  0  0  0  0  0  0  0  0  0  0
  151.0759  141.3882  155.2790 H   0  0  0  0  0  0  0  0  0  0  0  0
  152.0014  142.1141  161.1875 H   0  0  0  0  0  0  0  0  0  0  0  0
  150.6585  139.4764  153.3052 H   0  0  0  0  0  0  0  0  0  0  0  0
  149.1165  140.5464  152.7736 H   0  0  0  0  0  0  0  0  0  0  0  0
  147.2123  139.7007  154.6866 H   0  0  0  0  0  0  0  0  0  0  0  0
  147.8789  138.7787  153.3503 H   0  0  0  0  0  0  0  0  0  0  0  0
  151.9310  138.7070  157.8217 H   0  0  0  0  0  0  0  0  0  0  0  0
  151.4358  145.1093  157.1032 H   0  0  0  0  0  0  0  0  0  0  0  0
  152.8755  145.3930  158.8574 H   0  0  0  0  0  0  0  0  0  0  0  0
  152.5971  144.5779  160.8787 H   0  0  0  0  0  0  0  0  0  0  0  0
  151.0413  144.0800  160.2651 H   0  0  0  0  0  0  0  0  0  0  0  0
  154.3146  142.5291  159.6694 H   0  0  0  0  0  0  0  0  0  0  0  0
  152.6023  139.5456  154.7543 H   0  0  0  0  0  0  0  0  0  0  0  0
  151.8064  138.4879  155.9490 H   0  0  0  0  0  0  0  0  0  0  0  0
  149.9951  137.2081  153.3533 H   0  0  0  0  0  0  0  0  0  0  0  0
  1  2  1  0  0  0  0
  1 24  1  0  0  0  0
  2  3  1  0  0  0  0
  2 25  1  0  0  0  0
  2 26  1  0  0  0  0
  3 20  1  0  0  0  0
  3 18  1  0  0  0  0
  3  4  1  0  0  0  0
  4  5  1  0  0  0  0
  5 21  1  0  0  0  0
  5  6  1  0  0  0  0
  5 17  1  0  0  0  0
  6 10  1  0  0  0  0
  6  7  1  0  0  0  0
  7  8  2  0  0  0  0
  7 27  1  0  0  0  0
  8  9  1  0  0  0  0
  9 15  1  0  0  0  0
  9 10  2  0  0  0  0
 10 11  1  0  0  0  0
 11 12  2  0  0  0  0
 12 13  1  0  0  0  0
 12 28  1  0  0  0  0
 13 14  1  0  0  0  0
 13 29  1  0  0  0  0
 14 15  1  0  0  0  0
 14 30  1  0  0  0  0
 14 31  1  0  0  0  0
 15 22  1  0  0  0  0
 15 16  1  0  0  0  0
 16 32  1  0  0  0  0
 17 18  1  0  0  0  0
 17 33  1  0  0  0  0
 17 34  1  0  0  0  0
 18 23  1  0  0  0  0
 18 19  1  0  0  0  0
 19 35  1  0  0  0  0
M  END
> <s_m_source_file>
AV-unprocessed.smi

> <i_m_source_file_index>
157

> <i_lp_mmshare_version>
43012

> <i_f3d_flags>
0

> <s_epik_input>
W09IXVtDSDJdW0NASF0xT1tDQEhdKFtDSDJdW0NAQEhdMVtPSF0pbihbY0hdbjIpYyhjMjMpTj1bQ0hdW05IXVtDSDJdW0NASF0zW09IXQ==

> <s_epik_cmdline>
J2VwaWtfcHl0aG9uJywgJy1waCcsICc3LjAnLCAnLXRuJywgJzgnLCAnLW1hJywgJzIwMCcsICctbWV0YWxfYmluZGluZycsICctaW1hZScsICc8aW5maWxlLm1hZT4nLCAnLW9tYWUnLCAnPG91dGZpbGUubWFlPic=

> <r_lp_tautomer_probability>
1

> <r_epik_Ionization_Penalty>
0.0357149

> <r_epik_Ionization_Penalty_Charging>
0.0355056

> <r_epik_Ionization_Penalty_Neutral>
0.000209255

> <r_epik_State_Penalty>
0.0296046

> <r_epik_Charging_Adjusted_Penalty>
0.0651102

> <i_epik_Tot_Q>
0

> <i_epik_Tot_abs_Q>
0

> <r_epik_Metal_State_Penalty>
3.03559e-05

> <b_epik_Metal_Only>
0

> <s_epik_Chemistry_Notes>
This compound has an imine and may undergo hydrolysis. This compound contains an acetal/aminal-like group ( X-CH(R)-Y where X, Y are N, S, or O) that may be acid/base labile, releasing an aldehyde.

> <s_lp_Force_Field>
OPLS_2005

> <r_lp_Energy>
43.9106

> <b_lp_Chiralities_Consistent>
1

> <s_lp_Variant>
AV-unprocessed.smi:157-14

> <Gold.Version>
5.8.1

> <Gold.Id.Protein>
6NUR|6NUR_protein|mol2

> <Gold.PLP.Fitness>
41.2663

> <Gold.PLP.PLP>
-36.3007

> <Gold.PLP.part.hbond>
-3.0000

> <Gold.PLP.part.metal>
0.0000

> <Gold.PLP.part.buried>
-5.6727

> <Gold.PLP.part.nonpolar>
-28.7566

> <Gold.PLP.part.repulsive>
0.1932

> <Gold.PLP.ligand.clash>
0.0000

> <Gold.PLP.ligand.torsion>
0.7073

> <Gold.PLP.Chemscore.Hbond>
2.0000

> <Gold.PLP.Chemscore.CHOScore>
0.1218

> <Gold.PLP.Chemscore.Metal>
0.0000

> <Gold.Chemscore.Hbonds>
donor molecule, donor type, donor heavy atom, donor atom, acceptor molecule, acceptor atom, score
      L1  H     1    24       P1  7957  0.99
      L1  H    19    35       P1  7948  1.00
      L1  C    12    28       P1  8028  0.04

> <Gold.PLP.Chemscore.Internal.Correction>
0.0148

> <Gold.Rescore>
     Score         DG    S(hbond)    S(metal)    S(lipo)     H(rot)  DE(clash)    DE(int)     intcor
      7.19      -8.38       1.59        0.00      58.97       3.64       0.52       0.67       ----

> <Gold.Chemscore.Fitness>
7.1876

> <Gold.Chemscore.DG>
-8.3800

> <Gold.Chemscore.ZeroCoef>
-5.4800

> <Gold.Chemscore.Hbond>
1.5897

> <Gold.Chemscore.Metal>
0.0000

> <Gold.Chemscore.Lipo>
58.9669

> <Gold.Chemscore.Internal_Hbond>
0.0000

> <Gold.Chemscore.DEClash>
0.5203

> <Gold.Chemscore.DEInternal>
0.6720

> <Gold.Chemscore.Rot>
3.6362

> <Gold.Chemscore.Internal.Correction>
   9.000000E+99

> <Gold.Chemscore.Hbonds>
donor molecule, donor type, donor heavy atom, donor atom, acceptor molecule, acceptor atom, score
      L1  H     1    24       P1  7957  0.94
      L1  H    19    35       P1  7948  0.28

> <Gold.Chemscore.Hbond.Weighted>
-5.3096

> <Gold.Chemscore.Metal.Weighted>
-0.0000

> <Gold.Chemscore.Lipo.Weighted>
-6.8991

> <Gold.Chemscore.Internal_Hbond.Weighted>
0.0000

> <Gold.Chemscore.DEClash.Weighted>
0.5203

> <Gold.Chemscore.DEInternal.Weighted>
0.6720

> <Gold.Chemscore.Rot.Weighted>
9.3087

> <Gold.Chemscore.Internal.Correction.Weighted>
   9.000000E+99

> <Gold.Protein.RotatedTorsions>
[ 6907 6896 6895 6894 ] final   80.14 input  -60.11 | X-H torsion
[ 7974 7965 7964 7962 ] final  -46.18 input  175.53 | X-H torsion
[ 8008 7997 7996 7995 ] final  -60.00 input   59.86 | X-H torsion
[ 10167 10162 10161 10158 ] final  -48.20 input  -65.29 | X-H torsion
[ 10718 10713 10712 10709 ] final -143.12 input   66.30 | X-H torsion
[ 10763 10752 10751 10750 ] final -152.14 input  -60.55 | X-H torsion
[ 11005 11000 10999 10996 ] final  -51.61 input  -57.11 | X-H torsion

> <Gold.Protein.ActiveResidues>
 VAL166  LYS551  ARG553  GLY616  TRP617  ASP618  TYR619  PRO620  LYS621  CYS622 
 ASP623  PHE694  ASN695  SER759  ASP760  ASP761  ALA762  ILE779  LEU786  VAL792 
 PHE793  MET794  SER795  GLU796  ALA797  LYS798  CYS799  TRP800  GLU811  SER814 

> <Gold.Protein.RotatedAtoms>
  152.5224  134.3404  159.9214 H   0  0  0  0  0  0  0  0  0  0  0  0  # atno 6907 bound_to 6896
  151.3353  133.3977  159.2674 H   0  0  0  0  0  0  0  0  0  0  0  0  # atno 6908 bound_to 6896
  150.9847  134.9213  159.7922 H   0  0  0  0  0  0  0  0  0  0  0  0  # atno 6909 bound_to 6896
  145.9745  140.7348  142.9394 H   0  0  0  0  0  0  0  0  0  0  0  0  # atno 7974 bound_to 7965
  154.4378  140.1049  156.6205 H   0  0  0  0  0  0  0  0  0  0  0  0  # atno 8008 bound_to 7997
  155.5713  140.3489  155.4497 H   0  0  0  0  0  0  0  0  0  0  0  0  # atno 8009 bound_to 7997
  156.0387  140.1277  157.0168 H   0  0  0  0  0  0  0  0  0  0  0  0  # atno 8010 bound_to 7997
  140.6741  143.2750  151.4037 H   0  0  0  0  0  0  0  0  0  0  0  0  # atno 10167 bound_to 10162
  156.3541  130.7704  151.1861 H   0  0  0  0  0  0  0  0  0  0  0  0  # atno 10718 bound_to 10713
  154.8013  135.3243  154.7542 H   0  0  0  0  0  0  0  0  0  0  0  0  # atno 10763 bound_to 10752
  153.8209  135.6887  153.4831 H   0  0  0  0  0  0  0  0  0  0  0  0  # atno 10764 bound_to 10752
  153.1732  135.4615  154.9873 H   0  0  0  0  0  0  0  0  0  0  0  0  # atno 10765 bound_to 10752
  141.0880  133.6638  156.3903 H   0  0  0  0  0  0  0  0  0  0  0  0  # atno 11005 bound_to 11000
  144.6845  140.2805  143.7293 LP  0  0  0  0  0  0  0  0  0  0  0  0  # atno 17320 bound_to 7965
  145.7858  139.1908  143.2131 LP  0  0  0  0  0  0  0  0  0  0  0  0  # atno 17321 bound_to 7965
  139.6024  144.1267  152.2213 LP  0  0  0  0  0  0  0  0  0  0  0  0  # atno 17342 bound_to 10162
  140.0655  144.5822  150.7230 LP  0  0  0  0  0  0  0  0  0  0  0  0  # atno 17343 bound_to 10162
  157.7465  131.0419  150.4668 LP  0  0  0  0  0  0  0  0  0  0  0  0  # atno 17370 bound_to 10713
  156.4868  130.4086  149.6429 LP  0  0  0  0  0  0  0  0  0  0  0  0  # atno 17371 bound_to 10713
  140.5317  134.6206  157.5352 LP  0  0  0  0  0  0  0  0  0  0  0  0  # atno 17394 bound_to 11000
  139.9701  134.7306  156.0058 LP  0  0  0  0  0  0  0  0  0  0  0  0  # atno 17395 bound_to 11000

$$$$
