AV-unprocessed.smi:1795|AV-procd|sdf|7238|dock10
  -GOLD-   22720 8483D 1   1.00000     0.00000
 Structure written by MMmdl.
 47 48  0  0  0  0  0  0  0  0  1 V2000
  153.2772  138.8877  154.6576 C   0  0  0  0  0  0  0  0  0  0  0  0
  151.7937  138.8057  154.2829 C   0  0  1  0  0  0  0  0  0  0  0  0
  151.1120  137.5583  154.8763 C   0  0  0  0  0  0  0  0  0  0  0  0
  149.6749  137.4979  154.5875 N   0  0  0  0  0  0  0  0  0  0  0  0
  149.0288  136.3053  155.1845 C   0  0  2  0  0  0  0  0  0  0  0  0
  149.6671  134.9755  154.7085 C   0  0  0  0  0  0  0  0  0  0  0  0
  147.4942  136.2401  154.9304 C   0  0  0  0  0  0  0  0  0  0  0  0
  147.1483  135.9749  153.5364 N   0  0  0  0  0  0  0  0  0  0  0  0
  145.9037  135.9952  153.0359 C   0  0  0  0  0  0  0  0  0  0  0  0
  144.9077  136.2384  153.7192 O   0  0  0  0  0  0  0  0  0  0  0  0
  145.7751  135.6709  151.5406 C   0  0  0  0  0  0  0  0  0  0  0  0
  145.3629  134.2819  151.2775 N   0  0  0  0  0  0  0  0  0  0  0  0
  146.2586  133.4748  150.5478 C   0  0  0  0  0  0  0  0  0  0  0  0
  145.9849  132.1928  150.2584 C   0  0  0  0  0  0  0  0  0  0  0  0
  144.7310  131.6427  150.7158 C   0  0  0  0  0  0  0  0  0  0  0  0
  143.8684  132.4049  151.4173 C   0  0  0  0  0  0  0  0  0  0  0  0
  144.1651  133.8059  151.7389 C   0  0  0  0  0  0  0  0  0  0  0  0
  143.3853  134.5079  152.3835 O   0  0  0  0  0  0  0  0  0  0  0  0
  149.0719  138.7555  155.0437 C   0  0  0  0  0  0  0  0  0  0  0  0
  149.7597  140.0025  154.4558 C   0  0  1  0  0  0  0  0  0  0  0  0
  149.1695  141.3034  155.0105 C   0  0  0  0  0  0  0  0  0  0  0  0
  151.1442  139.9696  154.7777 O   0  0  0  0  0  0  0  0  0  0  0  0
  153.8240  138.0203  154.2865 H   0  0  0  0  0  0  0  0  0  0  0  0
  153.4097  138.9302  155.7390 H   0  0  0  0  0  0  0  0  0  0  0  0
  153.7384  139.7783  154.2303 H   0  0  0  0  0  0  0  0  0  0  0  0
  151.7088  138.7861  153.1949 H   0  0  0  0  0  0  0  0  0  0  0  0
  151.6212  136.6898  154.4625 H   0  0  0  0  0  0  0  0  0  0  0  0
  151.2715  137.5350  155.9556 H   0  0  0  0  0  0  0  0  0  0  0  0
  149.1741  136.3570  156.2645 H   0  0  0  0  0  0  0  0  0  0  0  0
  149.1522  134.1011  155.1045 H   0  0  0  0  0  0  0  0  0  0  0  0
  150.6989  134.8699  155.0405 H   0  0  0  0  0  0  0  0  0  0  0  0
  149.6525  134.8989  153.6209 H   0  0  0  0  0  0  0  0  0  0  0  0
  147.0107  135.4637  155.5213 H   0  0  0  0  0  0  0  0  0  0  0  0
  147.0295  137.1821  155.2233 H   0  0  0  0  0  0  0  0  0  0  0  0
  147.9108  135.7613  152.9098 H   0  0  0  0  0  0  0  0  0  0  0  0
  145.0706  136.3659  151.0795 H   0  0  0  0  0  0  0  0  0  0  0  0
  146.7340  135.8801  151.0645 H   0  0  0  0  0  0  0  0  0  0  0  0
  147.1769  133.9594  150.2493 H   0  0  0  0  0  0  0  0  0  0  0  0
  146.6857  131.5877  149.7022 H   0  0  0  0  0  0  0  0  0  0  0  0
  144.4837  130.6146  150.4957 H   0  0  0  0  0  0  0  0  0  0  0  0
  142.9355  131.9755  151.7521 H   0  0  0  0  0  0  0  0  0  0  0  0
  148.0260  138.8087  154.7491 H   0  0  0  0  0  0  0  0  0  0  0  0
  149.0983  138.8029  156.1336 H   0  0  0  0  0  0  0  0  0  0  0  0
  149.6477  140.0030  153.3701 H   0  0  0  0  0  0  0  0  0  0  0  0
  148.1075  141.3837  154.7772 H   0  0  0  0  0  0  0  0  0  0  0  0
  149.6705  142.1719  154.5823 H   0  0  0  0  0  0  0  0  0  0  0  0
  149.2793  141.3561  156.0942 H   0  0  0  0  0  0  0  0  0  0  0  0
  1  2  1  0  0  0  0
  1 23  1  0  0  0  0
  1 24  1  0  0  0  0
  1 25  1  0  0  0  0
  2 22  1  0  0  0  0
  2  3  1  0  0  0  0
  2 26  1  0  0  0  0
  3  4  1  0  0  0  0
  3 27  1  0  0  0  0
  3 28  1  0  0  0  0
  4  5  1  0  0  0  0
  4 19  1  0  0  0  0
  5  6  1  0  0  0  0
  5  7  1  0  0  0  0
  5 29  1  0  0  0  0
  6 30  1  0  0  0  0
  6 31  1  0  0  0  0
  6 32  1  0  0  0  0
  7  8  1  0  0  0  0
  7 33  1  0  0  0  0
  7 34  1  0  0  0  0
  8  9  1  0  0  0  0
  8 35  1  0  0  0  0
  9 10  2  0  0  0  0
  9 11  1  0  0  0  0
 11 12  1  0  0  0  0
 11 36  1  0  0  0  0
 11 37  1  0  0  0  0
 12 17  1  0  0  0  0
 12 13  1  0  0  0  0
 13 14  2  0  0  0  0
 13 38  1  0  0  0  0
 14 15  1  0  0  0  0
 14 39  1  0  0  0  0
 15 16  2  0  0  0  0
 15 40  1  0  0  0  0
 16 17  1  0  0  0  0
 16 41  1  0  0  0  0
 17 18  2  0  0  0  0
 19 20  1  0  0  0  0
 19 42  1  0  0  0  0
 19 43  1  0  0  0  0
 20 21  1  0  0  0  0
 20 22  1  0  0  0  0
 20 44  1  0  0  0  0
 21 45  1  0  0  0  0
 21 46  1  0  0  0  0
 21 47  1  0  0  0  0
M  END
> <s_m_source_file>
AV-unprocessed.smi

> <i_m_source_file_index>
1795

> <i_lp_mmshare_version>
43012

> <i_f3d_flags>
0

> <s_epik_input>
W0NIM11bQ0BASF0xW0NIMl1OKFtDSDJdW0NASF0oTzEpW0NIM10pW0NASF0oW0NIM10pW0NIMl1bTkhdQyg9TylbQ0gyXW4yW2NIXVtjSF1bY0hdW2NIXWMyPU8=

> <s_epik_cmdline>
J2VwaWtfcHl0aG9uJywgJy1waCcsICc3LjAnLCAnLXRuJywgJzgnLCAnLW1hJywgJzIwMCcsICctbWV0YWxfYmluZGluZycsICctaW1hZScsICc8aW5maWxlLm1hZT4nLCAnLW9tYWUnLCAnPG91dGZpbGUubWFlPic=

> <r_lp_tautomer_probability>
1

> <r_epik_Ionization_Penalty>
0.237383

> <r_epik_Ionization_Penalty_Charging>
3.58805e-07

> <r_epik_Ionization_Penalty_Neutral>
0.237382

> <r_epik_State_Penalty>
0.228245

> <r_epik_Charging_Adjusted_Penalty>
0.228245

> <i_epik_Tot_Q>
0

> <i_epik_Tot_abs_Q>
0

> <r_epik_Metal_State_Penalty>
0.228221

> <b_epik_Metal_Only>
0

> <s_lp_Force_Field>
OPLS_2005

> <r_lp_Energy>
36.5545

> <b_lp_Chiralities_Consistent>
1

> <s_lp_Variant>
AV-unprocessed.smi:1795-2

> <Gold.Version>
5.8.1

> <Gold.Id.Protein>
6NUR|6NUR_protein|mol2

> <Gold.PLP.Fitness>
43.1192

> <Gold.PLP.PLP>
-38.7324

> <Gold.PLP.part.hbond>
-2.0000

> <Gold.PLP.part.metal>
0.0000

> <Gold.PLP.part.buried>
-4.5953

> <Gold.PLP.part.nonpolar>
-32.8660

> <Gold.PLP.part.repulsive>
1.2612

> <Gold.PLP.ligand.clash>
0.0000

> <Gold.PLP.ligand.torsion>
0.3345

> <Gold.PLP.Chemscore.Hbond>
1.6570

> <Gold.PLP.Chemscore.CHOScore>
0.0123

> <Gold.PLP.Chemscore.Metal>
0.0000

> <Gold.Chemscore.Hbonds>
donor molecule, donor type, donor heavy atom, donor atom, acceptor molecule, acceptor atom, score
      L1  H     8    35       P1  7948  1.00
      P1  H  7989  7998       L1    22  0.48

> <Gold.PLP.Chemscore.Internal.Correction>
0.0478

> <Gold.Rescore>
     Score         DG    S(hbond)    S(metal)    S(lipo)     H(rot)  DE(clash)    DE(int)     intcor
     12.94     -14.74       0.99        0.00      90.81       1.83       0.09       1.70       ----

> <Gold.Chemscore.Fitness>
12.9448

> <Gold.Chemscore.DG>
-14.7401

> <Gold.Chemscore.ZeroCoef>
-5.4800

> <Gold.Chemscore.Hbond>
0.9903

> <Gold.Chemscore.Metal>
0.0000

> <Gold.Chemscore.Lipo>
90.8099

> <Gold.Chemscore.Internal_Hbond>
0.0000

> <Gold.Chemscore.DEClash>
0.0933

> <Gold.Chemscore.DEInternal>
1.7020

> <Gold.Chemscore.Rot>
1.8251

> <Gold.Chemscore.Internal.Correction>
   9.000000E+99

> <Gold.Chemscore.Hbonds>
donor molecule, donor type, donor heavy atom, donor atom, acceptor molecule, acceptor atom, score
      L1  H     8    35       P1  7948  0.90

> <Gold.Chemscore.Hbond.Weighted>
-3.3077

> <Gold.Chemscore.Metal.Weighted>
-0.0000

> <Gold.Chemscore.Lipo.Weighted>
-10.6248

> <Gold.Chemscore.Internal_Hbond.Weighted>
0.0000

> <Gold.Chemscore.DEClash.Weighted>
0.0933

> <Gold.Chemscore.DEInternal.Weighted>
1.7020

> <Gold.Chemscore.Rot.Weighted>
4.6724

> <Gold.Chemscore.Internal.Correction.Weighted>
   9.000000E+99

> <Gold.Protein.RotatedTorsions>
[ 6907 6896 6895 6894 ] final  -97.58 input  -60.11 | X-H torsion
[ 7974 7965 7964 7962 ] final -160.64 input  175.53 | X-H torsion
[ 8008 7997 7996 7995 ] final   65.39 input   59.86 | X-H torsion
[ 10167 10162 10161 10158 ] final   -3.48 input  -65.29 | X-H torsion
[ 10718 10713 10712 10709 ] final   72.28 input   66.30 | X-H torsion
[ 10763 10752 10751 10750 ] final  -71.36 input  -60.55 | X-H torsion
[ 11005 11000 10999 10996 ] final   -7.71 input  -57.11 | X-H torsion

> <Gold.Protein.ActiveResidues>
 VAL166  LYS551  ARG553  GLY616  TRP617  ASP618  TYR619  PRO620  LYS621  CYS622 
 ASP623  PHE694  ASN695  SER759  ASP760  ASP761  ALA762  ILE779  LEU786  VAL792 
 PHE793  MET794  SER795  GLU796  ALA797  LYS798  CYS799  TRP800  GLU811  SER814 

> <Gold.Protein.RotatedAtoms>
  150.7020  134.1327  159.4075 H   0  0  0  0  0  0  0  0  0  0  0  0  # atno 6907 bound_to 6896
  151.9313  135.0253  160.0538 H   0  0  0  0  0  0  0  0  0  0  0  0  # atno 6908 bound_to 6896
  152.2173  133.4921  159.5180 H   0  0  0  0  0  0  0  0  0  0  0  0  # atno 6909 bound_to 6896
  144.7419  140.3512  143.6115 H   0  0  0  0  0  0  0  0  0  0  0  0  # atno 7974 bound_to 7965
  155.6611  140.3497  155.4783 H   0  0  0  0  0  0  0  0  0  0  0  0  # atno 8008 bound_to 7997
  155.9768  140.1166  157.0786 H   0  0  0  0  0  0  0  0  0  0  0  0  # atno 8009 bound_to 7997
  154.4181  140.1146  156.5367 H   0  0  0  0  0  0  0  0  0  0  0  0  # atno 8010 bound_to 7997
  140.6891  143.6535  150.8329 H   0  0  0  0  0  0  0  0  0  0  0  0  # atno 10167 bound_to 10162
  157.6493  130.9570  150.0906 H   0  0  0  0  0  0  0  0  0  0  0  0  # atno 10718 bound_to 10713
  154.4307  135.5964  153.6067 H   0  0  0  0  0  0  0  0  0  0  0  0  # atno 10763 bound_to 10752
  152.9799  135.5974  154.3843 H   0  0  0  0  0  0  0  0  0  0  0  0  # atno 10764 bound_to 10752
  154.3680  135.2841  155.2261 H   0  0  0  0  0  0  0  0  0  0  0  0  # atno 10765 bound_to 10752
  140.7157  133.8871  155.8783 H   0  0  0  0  0  0  0  0  0  0  0  0  # atno 11005 bound_to 11000
  145.7274  139.1726  143.2450 LP  0  0  0  0  0  0  0  0  0  0  0  0  # atno 17320 bound_to 7965
  146.1232  140.7282  142.9448 LP  0  0  0  0  0  0  0  0  0  0  0  0  # atno 17321 bound_to 7965
  140.0246  143.5506  152.2786 LP  0  0  0  0  0  0  0  0  0  0  0  0  # atno 17342 bound_to 10162
  139.6277  144.7640  151.2603 LP  0  0  0  0  0  0  0  0  0  0  0  0  # atno 17343 bound_to 10162
  156.1856  130.3652  149.8977 LP  0  0  0  0  0  0  0  0  0  0  0  0  # atno 17370 bound_to 10713
  156.6918  130.8899  151.3589 LP  0  0  0  0  0  0  0  0  0  0  0  0  # atno 17371 bound_to 10713
  141.0047  134.1103  157.4282 LP  0  0  0  0  0  0  0  0  0  0  0  0  # atno 17394 bound_to 11000
  139.8860  135.0078  156.6474 LP  0  0  0  0  0  0  0  0  0  0  0  0  # atno 17395 bound_to 11000

$$$$
