AV-unprocessed.smi:1385|AV-procd|sdf|5632|dock6
  -GOLD-   22720 5253D 1   1.00000     0.00000
 Structure written by MMmdl.
 38 39  0  0  0  0  0  0  0  0  3 V2000
  152.9117  141.1204  159.3336 C   0  0  0  0  0  0  0  0  0  0  0  0
  152.2540  140.9218  158.0112 C   0  0  0  0  0  0  0  0  0  0  0  0
  152.5210  139.8800  157.2196 N   0  0  0  0  0  0  0  0  0  0  0  0
  151.7841  139.9141  156.0447 N   0  0  0  0  0  0  0  0  0  0  0  0
  150.9645  140.9722  155.9685 C   0  0  0  0  0  0  0  0  0  0  0  0
  150.1681  141.1903  154.9089 N   0  5  0  0  0  0  0  0  0  0  0  0
  149.4299  140.1791  154.3990 C   0  0  0  0  0  0  0  0  0  0  0  0
  149.8178  139.0302  154.1750 O   0  0  0  0  0  0  0  0  0  0  0  0
  148.1625  140.5226  154.1286 N   0  0  0  0  0  0  0  0  0  0  0  0
  147.1387  139.6479  153.5655 C   0  0  2  0  0  0  0  0  0  0  0  0
  147.0921  138.3044  154.3168 C   0  0  0  0  0  0  0  0  0  0  0  0
  146.0965  137.3339  153.6619 C   0  0  0  0  0  0  0  0  0  0  0  0
  146.4209  137.1213  152.2285 N   0  3  1  0  0  0  0  0  0  0  0  0
  145.5670  136.0795  151.6022 C   0  0  0  0  0  0  0  0  0  0  0  0
  145.8242  134.6762  152.1613 C   0  0  0  0  0  0  0  0  0  0  0  0
  147.0921  134.2594  152.1822 N   0  0  0  0  0  0  0  0  0  0  0  0
  144.8966  133.9710  152.5543 O   0  0  0  0  0  0  0  0  0  0  0  0
  146.4259  138.4037  151.4746 C   0  0  0  0  0  0  0  0  0  0  0  0
  147.4329  139.3954  152.0784 C   0  0  0  0  0  0  0  0  0  0  0  0
  151.0606  142.0381  157.3700 S   0  0  0  0  0  0  0  0  0  0  0  0
  152.3615  140.5840  160.1068 H   0  0  0  0  0  0  0  0  0  0  0  0
  152.9331  142.1799  159.5889 H   0  0  0  0  0  0  0  0  0  0  0  0
  153.9361  140.7478  159.3084 H   0  0  0  0  0  0  0  0  0  0  0  0
  147.8918  141.4742  154.3300 H   0  0  0  0  0  0  0  0  0  0  0  0
  146.1664  140.1385  153.6446 H   0  0  0  0  0  0  0  0  0  0  0  0
  148.0850  137.8521  154.3286 H   0  0  0  0  0  0  0  0  0  0  0  0
  146.8138  138.4628  155.3594 H   0  0  0  0  0  0  0  0  0  0  0  0
  146.1269  136.3818  154.1928 H   0  0  0  0  0  0  0  0  0  0  0  0
  145.0791  137.7176  153.7541 H   0  0  0  0  0  0  0  0  0  0  0  0
  144.5166  136.3025  151.7938 H   0  0  0  0  0  0  0  0  0  0  0  0
  145.6973  136.0909  150.5187 H   0  0  0  0  0  0  0  0  0  0  0  0
  147.3213  133.3443  152.5425 H   0  0  0  0  0  0  0  0  0  0  0  0
  147.8233  134.8656  151.8380 H   0  0  0  0  0  0  0  0  0  0  0  0
  146.6835  138.2265  150.4301 H   0  0  0  0  0  0  0  0  0  0  0  0
  145.4241  138.8363  151.4828 H   0  0  0  0  0  0  0  0  0  0  0  0
  147.4010  140.3354  151.5260 H   0  0  0  0  0  0  0  0  0  0  0  0
  148.4436  139.0010  151.9602 H   0  0  0  0  0  0  0  0  0  0  0  0
  147.3648  136.7616  152.2030 H   0  0  0  0  0  0  0  0  0  0  0  0
  1  2  1  0  0  0  0
  1 21  1  0  0  0  0
  1 22  1  0  0  0  0
  1 23  1  0  0  0  0
  2 20  1  0  0  0  0
  2  3  2  0  0  0  0
  3  4  1  0  0  0  0
  4  5  2  0  0  0  0
  5  6  1  0  0  0  0
  5 20  1  0  0  0  0
  6  7  1  0  0  0  0
  7  8  2  0  0  0  0
  7  9  1  0  0  0  0
  9 10  1  0  0  0  0
  9 24  1  0  0  0  0
 10 19  1  0  0  0  0
 10 11  1  0  0  0  0
 10 25  1  0  0  0  0
 11 12  1  0  0  0  0
 11 26  1  0  0  0  0
 11 27  1  0  0  0  0
 12 13  1  0  0  0  0
 12 28  1  0  0  0  0
 12 29  1  0  0  0  0
 13 14  1  0  0  0  0
 13 18  1  0  0  0  0
 13 38  1  0  0  0  0
 14 15  1  0  0  0  0
 14 30  1  0  0  0  0
 14 31  1  0  0  0  0
 15 16  1  0  0  0  0
 15 17  2  0  0  0  0
 16 32  1  0  0  0  0
 16 33  1  0  0  0  0
 18 19  1  0  0  0  0
 18 34  1  0  0  0  0
 18 35  1  0  0  0  0
 19 36  1  0  0  0  0
 19 37  1  0  0  0  0
M  CHG  1   6  -1
M  CHG  1  13   1
M  END
> <s_m_source_file>
AV-unprocessed.smi

> <i_m_source_file_index>
1385

> <i_lp_mmshare_version>
43012

> <i_f3d_flags>
0

> <s_epik_input>
W0NIM11jMW5uYyhzMSlbTkhdQyg9TylbTkhdW0NIXTJbQ0gyXVtDSDJdTihbQ0gyXVtDSDJdMilbQ0gyXUMoPU8pW05IMl0=

> <s_epik_cmdline>
J2VwaWtfcHl0aG9uJywgJy1waCcsICc3LjAnLCAnLXRuJywgJzgnLCAnLW1hJywgJzIwMCcsICctbWV0YWxfYmluZGluZycsICctaW1hZScsICc8aW5maWxlLm1hZT4nLCAnLW9tYWUnLCAnPG91dGZpbGUubWFlPic=

> <r_lp_tautomer_probability>
1

> <r_epik_Ionization_Penalty>
3.90109

> <r_epik_Ionization_Penalty_Charging>
3.79141

> <r_epik_Ionization_Penalty_Neutral>
0.109679

> <r_epik_State_Penalty>
3.87237

> <r_epik_Charging_Adjusted_Penalty>
7.66378

> <i_epik_Tot_Q>
0

> <i_epik_Tot_abs_Q>
2

> <r_epik_Metal_State_Penalty>
1.33354

> <b_epik_Metal_Only>
1

> <s_lp_Force_Field>
OPLS_2005

> <r_lp_Energy>
4.67367

> <b_lp_Chiralities_Consistent>
1

> <s_lp_Variant>
AV-unprocessed.smi:1385-5

> <Gold.Version>
5.8.1

> <Gold.Id.Protein>
6NUR|6NUR_protein|mol2

> <Gold.PLP.Fitness>
39.4073

> <Gold.PLP.PLP>
-28.6565

> <Gold.PLP.part.hbond>
-4.0000

> <Gold.PLP.part.metal>
0.0000

> <Gold.PLP.part.buried>
1.1242

> <Gold.PLP.part.nonpolar>
-26.1153

> <Gold.PLP.part.repulsive>
0.5720

> <Gold.PLP.ligand.clash>
0.0000

> <Gold.PLP.ligand.torsion>
1.0365

> <Gold.PLP.Chemscore.Hbond>
4.2540

> <Gold.PLP.Chemscore.CHOScore>
0.0000

> <Gold.PLP.Chemscore.Metal>
0.0000

> <Gold.Chemscore.Hbonds>
donor molecule, donor type, donor heavy atom, donor atom, acceptor molecule, acceptor atom, score
      L1  H    13    38       P1  7948  2.00
      L1  H    16    33       P1  7948  1.00
      P1  H  7989  7998       L1     6  0.25
      P1  H  7997  8010       L1     3  1.00

> <Gold.PLP.Chemscore.Internal.Correction>
0.0619

> <Gold.Rescore>
     Score         DG    S(hbond)    S(metal)    S(lipo)     H(rot)  DE(clash)    DE(int)     intcor
     10.66     -15.89       2.71        0.00      56.32       2.04       1.36       3.86       ----

> <Gold.Chemscore.Fitness>
10.6621

> <Gold.Chemscore.DG>
-15.8906

> <Gold.Chemscore.ZeroCoef>
-5.4800

> <Gold.Chemscore.Hbond>
2.7088

> <Gold.Chemscore.Metal>
0.0000

> <Gold.Chemscore.Lipo>
56.3195

> <Gold.Chemscore.Internal_Hbond>
0.0000

> <Gold.Chemscore.DEClash>
1.3646

> <Gold.Chemscore.DEInternal>
3.8640

> <Gold.Chemscore.Rot>
2.0415

> <Gold.Chemscore.Internal.Correction>
   9.000000E+99

> <Gold.Chemscore.Hbonds>
donor molecule, donor type, donor heavy atom, donor atom, acceptor molecule, acceptor atom, score
      L1  H    13    38       P1  7948  1.00
      L1  H    16    33       P1  7948  0.45
      P1  H  7997  8010       L1     3  0.27

> <Gold.Chemscore.Hbond.Weighted>
-9.0475

> <Gold.Chemscore.Metal.Weighted>
-0.0000

> <Gold.Chemscore.Lipo.Weighted>
-6.5894

> <Gold.Chemscore.Internal_Hbond.Weighted>
0.0000

> <Gold.Chemscore.DEClash.Weighted>
1.3646

> <Gold.Chemscore.DEInternal.Weighted>
3.8640

> <Gold.Chemscore.Rot.Weighted>
5.2262

> <Gold.Chemscore.Internal.Correction.Weighted>
   9.000000E+99

> <Gold.Protein.RotatedTorsions>
[ 6907 6896 6895 6894 ] final  131.96 input  -60.11 | X-H torsion
[ 7974 7965 7964 7962 ] final  165.76 input  175.53 | X-H torsion
[ 8008 7997 7996 7995 ] final   58.26 input   59.86 | X-H torsion
[ 10167 10162 10161 10158 ] final -117.78 input  -65.29 | X-H torsion
[ 10718 10713 10712 10709 ] final  -41.30 input   66.30 | X-H torsion
[ 10763 10752 10751 10750 ] final   84.20 input  -60.55 | X-H torsion
[ 11005 11000 10999 10996 ] final  -17.94 input  -57.11 | X-H torsion

> <Gold.Protein.ActiveResidues>
 VAL166  LYS551  ARG553  GLY616  TRP617  ASP618  TYR619  PRO620  LYS621  CYS622 
 ASP623  PHE694  ASN695  SER759  ASP760  ASP761  ALA762  ILE779  LEU786  VAL792 
 PHE793  MET794  SER795  GLU796  ALA797  LYS798  CYS799  TRP800  GLU811  SER814 

> <Gold.Protein.RotatedAtoms>
  152.3373  133.6026  159.5850 H   0  0  0  0  0  0  0  0  0  0  0  0  # atno 6907 bound_to 6896
  150.7457  133.9777  159.3575 H   0  0  0  0  0  0  0  0  0  0  0  0  # atno 6908 bound_to 6896
  151.7645  135.0802  160.0401 H   0  0  0  0  0  0  0  0  0  0  0  0  # atno 6909 bound_to 6896
  144.7489  139.8516  143.6373 H   0  0  0  0  0  0  0  0  0  0  0  0  # atno 7974 bound_to 7965
  155.5471  140.3485  155.4460 H   0  0  0  0  0  0  0  0  0  0  0  0  # atno 8008 bound_to 7997
  156.0610  140.1340  156.9967 H   0  0  0  0  0  0  0  0  0  0  0  0  # atno 8009 bound_to 7997
  154.4479  140.0985  156.6501 H   0  0  0  0  0  0  0  0  0  0  0  0  # atno 8010 bound_to 7997
  140.0647  143.4934  152.2013 H   0  0  0  0  0  0  0  0  0  0  0  0  # atno 10167 bound_to 10162
  156.2719  130.4207  149.8429 H   0  0  0  0  0  0  0  0  0  0  0  0  # atno 10718 bound_to 10713
  153.1360  135.4663  154.9422 H   0  0  0  0  0  0  0  0  0  0  0  0  # atno 10763 bound_to 10752
  154.7706  135.3158  154.8200 H   0  0  0  0  0  0  0  0  0  0  0  0  # atno 10764 bound_to 10752
  153.8732  135.6901  153.4826 H   0  0  0  0  0  0  0  0  0  0  0  0  # atno 10765 bound_to 10752
  140.8218  133.8063  155.9667 H   0  0  0  0  0  0  0  0  0  0  0  0  # atno 11005 bound_to 11000
  146.1411  139.4469  143.0108 LP  0  0  0  0  0  0  0  0  0  0  0  0  # atno 17320 bound_to 7965
  145.7016  141.0134  143.1501 LP  0  0  0  0  0  0  0  0  0  0  0  0  # atno 17321 bound_to 7965
  139.5872  144.7536  151.3490 LP  0  0  0  0  0  0  0  0  0  0  0  0  # atno 17342 bound_to 10162
  140.7155  143.7278  150.7647 LP  0  0  0  0  0  0  0  0  0  0  0  0  # atno 17343 bound_to 10162
  156.5907  130.8505  151.3407 LP  0  0  0  0  0  0  0  0  0  0  0  0  # atno 17370 bound_to 10713
  157.7286  130.9660  150.1752 LP  0  0  0  0  0  0  0  0  0  0  0  0  # atno 17371 bound_to 10713
  140.9091  134.2283  157.4996 LP  0  0  0  0  0  0  0  0  0  0  0  0  # atno 17394 bound_to 11000
  139.8708  134.9742  156.4836 LP  0  0  0  0  0  0  0  0  0  0  0  0  # atno 17395 bound_to 11000

$$$$
