AV-unprocessed.smi:1231|AV-procd|sdf|5165|dock3
  -GOLD-   22720 4233D 1   1.00000     0.00000
 Structure written by MMmdl.
 43 44  0  0  0  0  0  0  0  0  2 V2000
  144.2126  145.4984  153.4540 C   0  0  0  0  0  0  0  0  0  0  0  0
  145.2430  144.6986  154.2584 C   0  0  2  0  0  0  0  0  0  0  0  0
  145.8798  143.5685  153.4282 C   0  0  0  0  0  0  0  0  0  0  0  0
  146.8168  142.7761  154.2592 N   0  3  2  0  0  0  0  0  0  0  0  0
  147.4991  141.7124  153.4812 C   0  0  0  0  0  0  0  0  0  0  0  0
  148.7239  141.1370  154.2189 C   0  0  0  0  0  0  0  0  0  0  0  0
  149.2672  142.0896  155.1799 N   0  0  0  0  0  0  0  0  0  0  0  0
  150.1055  141.7752  156.1782 C   0  0  0  0  0  0  0  0  0  0  0  0
  150.5114  140.6307  156.3832 O   0  0  0  0  0  0  0  0  0  0  0  0
  150.4309  142.8597  156.9034 N   0  0  0  0  0  0  0  0  0  0  0  0
  151.3006  142.9367  158.0238 C   0  0  0  0  0  0  0  0  0  0  0  0
  151.9019  144.1990  158.2289 C   0  0  0  0  0  0  0  0  0  0  0  0
  152.7810  144.3791  159.3142 C   0  0  0  0  0  0  0  0  0  0  0  0
  153.0382  143.2902  160.1660 C   0  0  0  0  0  0  0  0  0  0  0  0
  152.4002  142.0669  159.8898 C   0  0  0  0  0  0  0  0  0  0  0  0
  151.5563  141.8924  158.8509 N   0  0  0  0  0  0  0  0  0  0  0  0
  146.1280  142.2733  155.4737 C   0  0  0  0  0  0  0  0  0  0  0  0
  145.4790  143.4364  156.2482 C   0  0  2  0  0  0  0  0  0  0  0  0
  144.6862  142.9492  157.4659 C   0  0  0  0  0  0  0  0  0  0  0  0
  144.5848  144.1303  155.3850 O   0  0  0  0  0  0  0  0  0  0  0  0
  144.6724  145.9670  152.5836 H   0  0  0  0  0  0  0  0  0  0  0  0
  143.7725  146.2892  154.0619 H   0  0  0  0  0  0  0  0  0  0  0  0
  143.4024  144.8593  153.1015 H   0  0  0  0  0  0  0  0  0  0  0  0
  146.0192  145.3839  154.6039 H   0  0  0  0  0  0  0  0  0  0  0  0
  145.1060  142.9116  153.0265 H   0  0  0  0  0  0  0  0  0  0  0  0
  146.4130  143.9945  152.5773 H   0  0  0  0  0  0  0  0  0  0  0  0
  146.7825  140.9281  153.2325 H   0  0  0  0  0  0  0  0  0  0  0  0
  147.8410  142.1276  152.5319 H   0  0  0  0  0  0  0  0  0  0  0  0
  148.4414  140.2336  154.7597 H   0  0  0  0  0  0  0  0  0  0  0  0
  149.5122  140.8489  153.5228 H   0  0  0  0  0  0  0  0  0  0  0  0
  148.9789  143.0525  155.0831 H   0  0  0  0  0  0  0  0  0  0  0  0
  150.0090  143.7323  156.6222 H   0  0  0  0  0  0  0  0  0  0  0  0
  151.6934  145.0254  157.5648 H   0  0  0  0  0  0  0  0  0  0  0  0
  153.2493  145.3365  159.4894 H   0  0  0  0  0  0  0  0  0  0  0  0
  153.7064  143.3895  161.0086 H   0  0  0  0  0  0  0  0  0  0  0  0
  152.5711  141.2059  160.5189 H   0  0  0  0  0  0  0  0  0  0  0  0
  145.3693  141.5435  155.1858 H   0  0  0  0  0  0  0  0  0  0  0  0
  146.8333  141.7585  156.1249 H   0  0  0  0  0  0  0  0  0  0  0  0
  146.2525  144.1253  156.5924 H   0  0  0  0  0  0  0  0  0  0  0  0
  145.3307  142.4203  158.1685 H   0  0  0  0  0  0  0  0  0  0  0  0
  143.8855  142.2705  157.1707 H   0  0  0  0  0  0  0  0  0  0  0  0
  144.2335  143.7872  157.9969 H   0  0  0  0  0  0  0  0  0  0  0  0
  147.5342  143.4170  154.5672 H   0  0  0  0  0  0  0  0  0  0  0  0
  1  2  1  0  0  0  0
  1 21  1  0  0  0  0
  1 22  1  0  0  0  0
  1 23  1  0  0  0  0
  2 20  1  0  0  0  0
  2  3  1  0  0  0  0
  2 24  1  0  0  0  0
  3  4  1  0  0  0  0
  3 25  1  0  0  0  0
  3 26  1  0  0  0  0
  4  5  1  0  0  0  0
  4 17  1  0  0  0  0
  4 43  1  0  0  0  0
  5  6  1  0  0  0  0
  5 27  1  0  0  0  0
  5 28  1  0  0  0  0
  6  7  1  0  0  0  0
  6 29  1  0  0  0  0
  6 30  1  0  0  0  0
  7  8  1  0  0  0  0
  7 31  1  0  0  0  0
  8  9  2  0  0  0  0
  8 10  1  0  0  0  0
 10 11  1  0  0  0  0
 10 32  1  0  0  0  0
 11 16  1  0  0  0  0
 11 12  2  0  0  0  0
 12 13  1  0  0  0  0
 12 33  1  0  0  0  0
 13 14  2  0  0  0  0
 13 34  1  0  0  0  0
 14 15  1  0  0  0  0
 14 35  1  0  0  0  0
 15 16  2  0  0  0  0
 15 36  1  0  0  0  0
 17 18  1  0  0  0  0
 17 37  1  0  0  0  0
 17 38  1  0  0  0  0
 18 19  1  0  0  0  0
 18 20  1  0  0  0  0
 18 39  1  0  0  0  0
 19 40  1  0  0  0  0
 19 41  1  0  0  0  0
 19 42  1  0  0  0  0
M  CHG  1   4   1
M  END
> <s_m_source_file>
AV-unprocessed.smi

> <i_m_source_file_index>
1231

> <i_lp_mmshare_version>
43012

> <i_f3d_flags>
0

> <s_epik_input>
W0NIM11bQ0BASF0xW0NIMl1OKFtDSDJdW0NASF0oTzEpW0NIM10pW0NIMl1bQ0gyXVtOSF1DKD1PKVtOSF1jMltjSF1bY0hdW2NIXVtjSF1uMg==

> <s_epik_cmdline>
J2VwaWtfcHl0aG9uJywgJy1waCcsICc3LjAnLCAnLXRuJywgJzgnLCAnLW1hJywgJzIwMCcsICctbWV0YWxfYmluZGluZycsICctaW1hZScsICc8aW5maWxlLm1hZT4nLCAnLW9tYWUnLCAnPG91dGZpbGUubWFlPic=

> <r_epik_Ionization_Penalty>
0.602565

> <r_epik_Ionization_Penalty_Charging>
0.602531

> <r_epik_Ionization_Penalty_Neutral>
3.43186e-05

> <r_epik_State_Penalty>
0.617039

> <r_epik_Charging_Adjusted_Penalty>
1.21957

> <i_epik_Tot_Q>
1

> <i_epik_Tot_abs_Q>
1

> <r_epik_Metal_State_Penalty>
0.617041

> <b_epik_Metal_Only>
0

> <s_lp_Force_Field>
OPLS_2005

> <r_lp_Energy>
15.064

> <b_lp_Chiralities_Consistent>
1

> <s_lp_Variant>
AV-unprocessed.smi:1231-6

> <Gold.Version>
5.8.1

> <Gold.Id.Protein>
6NUR|6NUR_protein|mol2

> <Gold.PLP.Fitness>
49.1243

> <Gold.PLP.PLP>
-39.8480

> <Gold.PLP.part.hbond>
-2.6349

> <Gold.PLP.part.metal>
0.0000

> <Gold.PLP.part.buried>
-7.5965

> <Gold.PLP.part.nonpolar>
-29.2244

> <Gold.PLP.part.repulsive>
0.5230

> <Gold.PLP.ligand.clash>
0.0000

> <Gold.PLP.ligand.torsion>
0.5741

> <Gold.PLP.Chemscore.Hbond>
3.4625

> <Gold.PLP.Chemscore.CHOScore>
0.0000

> <Gold.PLP.Chemscore.Metal>
0.0000

> <Gold.Chemscore.Hbonds>
donor molecule, donor type, donor heavy atom, donor atom, acceptor molecule, acceptor atom, score
      L1  H     4    43       P1  8028  1.56
      L1  H     7    31       P1  8028  1.00
      L1  H    10    32       P1  8028  1.00

> <Gold.PLP.Chemscore.Internal.Correction>
0.0370

> <Gold.Rescore>
     Score         DG    S(hbond)    S(metal)    S(lipo)     H(rot)  DE(clash)    DE(int)     intcor
     17.25     -19.31       1.94        0.00      96.96       1.55       0.39       1.67       ----

> <Gold.Chemscore.Fitness>
17.2542

> <Gold.Chemscore.DG>
-19.3150

> <Gold.Chemscore.ZeroCoef>
-5.4800

> <Gold.Chemscore.Hbond>
1.9373

> <Gold.Chemscore.Metal>
0.0000

> <Gold.Chemscore.Lipo>
96.9587

> <Gold.Chemscore.Internal_Hbond>
0.0000

> <Gold.Chemscore.DEClash>
0.3896

> <Gold.Chemscore.DEInternal>
1.6712

> <Gold.Chemscore.Rot>
1.5546

> <Gold.Chemscore.Internal.Correction>
   9.000000E+99

> <Gold.Chemscore.Hbonds>
donor molecule, donor type, donor heavy atom, donor atom, acceptor molecule, acceptor atom, score
      L1  H     4    43       P1  8028  0.27
      L1  H     7    31       P1  8028  0.97
      L1  H    10    32       P1  8028  0.98

> <Gold.Chemscore.Hbond.Weighted>
-6.4705

> <Gold.Chemscore.Metal.Weighted>
-0.0000

> <Gold.Chemscore.Lipo.Weighted>
-11.3442

> <Gold.Chemscore.Internal_Hbond.Weighted>
0.0000

> <Gold.Chemscore.DEClash.Weighted>
0.3896

> <Gold.Chemscore.DEInternal.Weighted>
1.6712

> <Gold.Chemscore.Rot.Weighted>
3.9797

> <Gold.Chemscore.Internal.Correction.Weighted>
   9.000000E+99

> <Gold.Protein.RotatedTorsions>
[ 6907 6896 6895 6894 ] final -143.76 input  -60.11 | X-H torsion
[ 7974 7965 7964 7962 ] final  103.59 input  175.53 | X-H torsion
[ 8008 7997 7996 7995 ] final  160.19 input   59.86 | X-H torsion
[ 10167 10162 10161 10158 ] final -131.73 input  -65.29 | X-H torsion
[ 10718 10713 10712 10709 ] final  135.03 input   66.30 | X-H torsion
[ 10763 10752 10751 10750 ] final  -76.01 input  -60.55 | X-H torsion
[ 11005 11000 10999 10996 ] final   14.02 input  -57.11 | X-H torsion

> <Gold.Protein.ActiveResidues>
 VAL166  LYS551  ARG553  GLY616  TRP617  ASP618  TYR619  PRO620  LYS621  CYS622 
 ASP623  PHE694  ASN695  SER759  ASP760  ASP761  ALA762  ILE779  LEU786  VAL792 
 PHE793  MET794  SER795  GLU796  ALA797  LYS798  CYS799  TRP800  GLU811  SER814 

> <Gold.Protein.RotatedAtoms>
  151.1048  133.5217  159.2608 H   0  0  0  0  0  0  0  0  0  0  0  0  # atno 6907 bound_to 6896
  151.2034  135.0451  159.8891 H   0  0  0  0  0  0  0  0  0  0  0  0  # atno 6908 bound_to 6896
  152.5446  134.0873  159.8315 H   0  0  0  0  0  0  0  0  0  0  0  0  # atno 6909 bound_to 6896
  145.3439  139.2455  143.3594 H   0  0  0  0  0  0  0  0  0  0  0  0  # atno 7974 bound_to 7965
  156.2189  140.1811  156.7524 H   0  0  0  0  0  0  0  0  0  0  0  0  # atno 8008 bound_to 7997
  154.5834  140.0662  156.9165 H   0  0  0  0  0  0  0  0  0  0  0  0  # atno 8009 bound_to 7997
  155.2463  140.3325  155.4289 H   0  0  0  0  0  0  0  0  0  0  0  0  # atno 8010 bound_to 7997
  139.9158  143.6440  152.2565 H   0  0  0  0  0  0  0  0  0  0  0  0  # atno 10167 bound_to 10162
  157.4612  131.1073  150.9917 H   0  0  0  0  0  0  0  0  0  0  0  0  # atno 10718 bound_to 10713
  154.4942  135.5812  153.6482 H   0  0  0  0  0  0  0  0  0  0  0  0  # atno 10763 bound_to 10752
  152.9867  135.6120  154.3086 H   0  0  0  0  0  0  0  0  0  0  0  0  # atno 10764 bound_to 10752
  154.2988  135.2847  155.2600 H   0  0  0  0  0  0  0  0  0  0  0  0  # atno 10765 bound_to 10752
  140.4742  134.1000  155.7738 H   0  0  0  0  0  0  0  0  0  0  0  0  # atno 11005 bound_to 11000
  146.2996  140.4042  142.8709 LP  0  0  0  0  0  0  0  0  0  0  0  0  # atno 17320 bound_to 7965
  144.8769  140.7348  143.6011 LP  0  0  0  0  0  0  0  0  0  0  0  0  # atno 17321 bound_to 7965
  139.6903  144.7647  151.1450 LP  0  0  0  0  0  0  0  0  0  0  0  0  # atno 17342 bound_to 10162
  140.7674  143.5598  150.9111 LP  0  0  0  0  0  0  0  0  0  0  0  0  # atno 17343 bound_to 10162
  157.0714  130.5865  149.5403 LP  0  0  0  0  0  0  0  0  0  0  0  0  # atno 17370 bound_to 10713
  156.0029  130.5112  150.7729 LP  0  0  0  0  0  0  0  0  0  0  0  0  # atno 17371 bound_to 10713
  141.1562  133.8877  157.1970 LP  0  0  0  0  0  0  0  0  0  0  0  0  # atno 17394 bound_to 11000
  139.9866  135.0079  156.9877 LP  0  0  0  0  0  0  0  0  0  0  0  0  # atno 17395 bound_to 11000

$$$$
