AV-unprocessed.smi:2701|AV-procd|sdf|10428|dock9
  -GOLD-   2272014463D 1   1.00000     0.00000
 Structure written by MMmdl.
 31 32  0  0  0  0  0  0  0  0  2 V2000
  151.0702  143.0480  157.3070 C   0  0  0  0  0  0  0  0  0  0  0  0
  151.6910  143.3769  158.6799 C   0  0  1  0  0  0  0  0  0  0  0  0
  152.6183  142.2385  159.1724 C   0  0  0  0  0  0  0  0  0  0  0  0
  153.7905  142.4922  159.4539 O   0  0  0  0  0  0  0  0  0  0  0  0
  151.9802  141.0446  159.2423 N   0  5  0  0  0  0  0  0  0  0  0  0
  152.5485  139.6867  158.5615 S   0  0  0  0  0  0  0  0  0  0  0  0
  154.0140  139.5893  158.6519 O   0  0  0  0  0  0  0  0  0  0  0  0
  151.7771  138.5120  158.9969 O   0  0  0  0  0  0  0  0  0  0  0  0
  152.1588  139.9262  156.7648 C   0  0  0  0  0  0  0  0  0  0  0  0
  151.7002  138.6393  156.1362 C   0  0  0  0  0  0  0  0  0  0  0  0
  150.4438  138.3516  155.5344 C   0  0  0  0  0  0  0  0  0  0  0  0
  150.5730  137.0549  155.1287 C   0  0  0  0  0  0  0  0  0  0  0  0
  151.8065  136.5813  155.4368 O   0  0  0  0  0  0  0  0  0  0  0  0
  152.5213  137.6020  156.0736 N   0  0  0  0  0  0  0  0  0  0  0  0
  152.3793  144.7577  158.7024 C   0  0  0  0  0  0  0  0  0  0  0  0
  152.0767  145.2683  160.0937 C   0  0  0  0  0  0  0  0  0  0  0  0
  150.6564  144.7584  160.2889 C   0  0  0  0  0  0  0  0  0  0  0  0
  150.6111  143.5048  159.6135 O   0  0  0  0  0  0  0  0  0  0  0  0
  151.8137  143.0816  156.5097 H   0  0  0  0  0  0  0  0  0  0  0  0
  150.2870  143.7623  157.0517 H   0  0  0  0  0  0  0  0  0  0  0  0
  150.6191  142.0549  157.3018 H   0  0  0  0  0  0  0  0  0  0  0  0
  151.4131  140.7121  156.6563 H   0  0  0  0  0  0  0  0  0  0  0  0
  153.0678  140.2831  156.2810 H   0  0  0  0  0  0  0  0  0  0  0  0
  149.5842  138.9947  155.4242 H   0  0  0  0  0  0  0  0  0  0  0  0
  149.9114  136.3646  154.6268 H   0  0  0  0  0  0  0  0  0  0  0  0
  153.4494  144.7325  158.4948 H   0  0  0  0  0  0  0  0  0  0  0  0
  151.9253  145.4199  157.9639 H   0  0  0  0  0  0  0  0  0  0  0  0
  152.7475  144.8115  160.8224 H   0  0  0  0  0  0  0  0  0  0  0  0
  152.1580  146.3518  160.1810 H   0  0  0  0  0  0  0  0  0  0  0  0
  150.3870  144.6564  161.3402 H   0  0  0  0  0  0  0  0  0  0  0  0
  149.9417  145.4345  159.8180 H   0  0  0  0  0  0  0  0  0  0  0  0
  1  2  1  0  0  0  0
  1 19  1  0  0  0  0
  1 20  1  0  0  0  0
  1 21  1  0  0  0  0
  2 18  1  0  0  0  0
  2  3  1  0  0  0  0
  2 15  1  0  0  0  0
  3  4  2  0  0  0  0
  3  5  1  0  0  0  0
  5  6  1  0  0  0  0
  6  7  2  0  0  0  0
  6  8  2  0  0  0  0
  6  9  1  0  0  0  0
  9 10  1  0  0  0  0
  9 22  1  0  0  0  0
  9 23  1  0  0  0  0
 10 14  2  0  0  0  0
 10 11  1  0  0  0  0
 11 12  2  0  0  0  0
 11 24  1  0  0  0  0
 12 13  1  0  0  0  0
 12 25  1  0  0  0  0
 13 14  1  0  0  0  0
 15 16  1  0  0  0  0
 15 26  1  0  0  0  0
 15 27  1  0  0  0  0
 16 17  1  0  0  0  0
 16 28  1  0  0  0  0
 16 29  1  0  0  0  0
 17 18  1  0  0  0  0
 17 30  1  0  0  0  0
 17 31  1  0  0  0  0
M  CHG  1   5  -1
M  END
> <s_m_source_file>
AV-unprocessed.smi

> <i_m_source_file_index>
2701

> <i_lp_mmshare_version>
43012

> <i_f3d_flags>
0

> <s_epik_input>
TzFbQ0gyXVtDSDJdW0NIMl1bQ0BAXTEoW0NIM10pQyg9TylbTkhdUyg9TykoPU8pW0NIMl1jMltjSF1bY0hdb24y

> <s_epik_cmdline>
J2VwaWtfcHl0aG9uJywgJy1waCcsICc3LjAnLCAnLXRuJywgJzgnLCAnLW1hJywgJzIwMCcsICctbWV0YWxfYmluZGluZycsICctaW1hZScsICc8aW5maWxlLm1hZT4nLCAnLW9tYWUnLCAnPG91dGZpbGUubWFlPic=

> <r_lp_tautomer_probability>
1

> <r_epik_Ionization_Penalty>
0.000279175

> <r_epik_Ionization_Penalty_Charging>
0.000279174

> <r_epik_Ionization_Penalty_Neutral>
1.67252e-10

> <r_epik_State_Penalty>
-0

> <r_epik_Charging_Adjusted_Penalty>
0.000279174

> <i_epik_Tot_Q>
-1

> <i_epik_Tot_abs_Q>
1

> <r_epik_Metal_State_Penalty>
-0

> <b_epik_Metal_Only>
0

> <s_lp_Force_Field>
OPLS_2005

> <r_lp_Energy>
15.6344

> <b_lp_Chiralities_Consistent>
1

> <s_lp_Variant>
AV-unprocessed.smi:2701-1

> <Gold.Version>
5.8.1

> <Gold.Id.Protein>
6NUR|6NUR_protein|mol2

> <Gold.PLP.Fitness>
42.4575

> <Gold.PLP.PLP>
-35.0925

> <Gold.PLP.part.hbond>
-2.6036

> <Gold.PLP.part.metal>
0.0000

> <Gold.PLP.part.buried>
-4.2679

> <Gold.PLP.part.nonpolar>
-28.1823

> <Gold.PLP.part.repulsive>
0.2161

> <Gold.PLP.ligand.clash>
0.0000

> <Gold.PLP.ligand.torsion>
1.4495

> <Gold.PLP.Chemscore.Hbond>
2.0000

> <Gold.PLP.Chemscore.CHOScore>
1.0644

> <Gold.PLP.Chemscore.Metal>
0.0000

> <Gold.Chemscore.Hbonds>
donor molecule, donor type, donor heavy atom, donor atom, acceptor molecule, acceptor atom, score
      P1  H  7997  8008       L1     7  1.00
      P1  H 10752 10764       L1    13  1.00
      L1  C    12    25       P1  7948  0.08

> <Gold.PLP.Chemscore.Internal.Correction>
1.0709

> <Gold.Rescore>
     Score         DG    S(hbond)    S(metal)    S(lipo)     H(rot)  DE(clash)    DE(int)     intcor
     14.73     -17.46       1.89        0.00      82.59       1.56       0.00       2.73       ----

> <Gold.Chemscore.Fitness>
14.7290

> <Gold.Chemscore.DG>
-17.4574

> <Gold.Chemscore.ZeroCoef>
-5.4800

> <Gold.Chemscore.Hbond>
1.8880

> <Gold.Chemscore.Metal>
0.0000

> <Gold.Chemscore.Lipo>
82.5886

> <Gold.Chemscore.Internal_Hbond>
0.0000

> <Gold.Chemscore.DEClash>
0.0000

> <Gold.Chemscore.DEInternal>
2.7284

> <Gold.Chemscore.Rot>
1.5591

> <Gold.Chemscore.Internal.Correction>
   9.000000E+99

> <Gold.Chemscore.Hbonds>
donor molecule, donor type, donor heavy atom, donor atom, acceptor molecule, acceptor atom, score
      P1  H  7997  8008       L1     7  0.69
      P1  H 10752 10764       L1    13  0.62

> <Gold.Chemscore.Hbond.Weighted>
-6.3059

> <Gold.Chemscore.Metal.Weighted>
-0.0000

> <Gold.Chemscore.Lipo.Weighted>
-9.6629

> <Gold.Chemscore.Internal_Hbond.Weighted>
0.0000

> <Gold.Chemscore.DEClash.Weighted>
0.0000

> <Gold.Chemscore.DEInternal.Weighted>
2.7284

> <Gold.Chemscore.Rot.Weighted>
3.9914

> <Gold.Chemscore.Internal.Correction.Weighted>
   9.000000E+99

> <Gold.Protein.RotatedTorsions>
[ 6907 6896 6895 6894 ] final -104.59 input  -60.11 | X-H torsion
[ 7974 7965 7964 7962 ] final   80.94 input  175.53 | X-H torsion
[ 8008 7997 7996 7995 ] final  -92.24 input   59.86 | X-H torsion
[ 10167 10162 10161 10158 ] final  -24.52 input  -65.29 | X-H torsion
[ 10718 10713 10712 10709 ] final   31.08 input   66.30 | X-H torsion
[ 10763 10752 10751 10750 ] final  -65.68 input  -60.55 | X-H torsion
[ 11005 11000 10999 10996 ] final  -58.93 input  -57.11 | X-H torsion

> <Gold.Protein.ActiveResidues>
 VAL166  LYS551  ARG553  GLY616  TRP617  ASP618  TYR619  PRO620  LYS621  CYS622 
 ASP623  PHE694  ASN695  SER759  ASP760  ASP761  ALA762  ILE779  LEU786  VAL792 
 PHE793  MET794  SER795  GLU796  ALA797  LYS798  CYS799  TRP800  GLU811  SER814 

> <Gold.Protein.RotatedAtoms>
  150.7295  134.0254  159.3715 H   0  0  0  0  0  0  0  0  0  0  0  0  # atno 6907 bound_to 6896
  151.8221  135.0646  160.0435 H   0  0  0  0  0  0  0  0  0  0  0  0  # atno 6908 bound_to 6896
  152.2996  133.5606  159.5646 H   0  0  0  0  0  0  0  0  0  0  0  0  # atno 6909 bound_to 6896
  145.6447  139.2433  143.2011 H   0  0  0  0  0  0  0  0  0  0  0  0  # atno 7974 bound_to 7965
  154.7206  140.0511  157.0636 H   0  0  0  0  0  0  0  0  0  0  0  0  # atno 8008 bound_to 7997
  155.0432  140.3171  155.4698 H   0  0  0  0  0  0  0  0  0  0  0  0  # atno 8009 bound_to 7997
  156.2815  140.2129  156.5556 H   0  0  0  0  0  0  0  0  0  0  0  0  # atno 8010 bound_to 7997
  140.7288  143.4345  151.0750 H   0  0  0  0  0  0  0  0  0  0  0  0  # atno 10167 bound_to 10162
  157.2678  130.7193  149.6488 H   0  0  0  0  0  0  0  0  0  0  0  0  # atno 10718 bound_to 10713
  154.3486  135.6141  153.5631 H   0  0  0  0  0  0  0  0  0  0  0  0  # atno 10763 bound_to 10752
  152.9799  135.5787  154.4770 H   0  0  0  0  0  0  0  0  0  0  0  0  # atno 10764 bound_to 10752
  154.4487  135.2852  155.1774 H   0  0  0  0  0  0  0  0  0  0  0  0  # atno 10765 bound_to 10752
  141.1227  133.6614  156.4994 H   0  0  0  0  0  0  0  0  0  0  0  0  # atno 11005 bound_to 11000
  146.1253  140.7257  142.9438 LP  0  0  0  0  0  0  0  0  0  0  0  0  # atno 17320 bound_to 7965
  144.7144  140.4158  143.7055 LP  0  0  0  0  0  0  0  0  0  0  0  0  # atno 17321 bound_to 7965
  139.8006  143.8089  152.3162 LP  0  0  0  0  0  0  0  0  0  0  0  0  # atno 17342 bound_to 10162
  139.8104  144.7338  150.9704 LP  0  0  0  0  0  0  0  0  0  0  0  0  # atno 17343 bound_to 10162
  155.9663  130.4377  150.5186 LP  0  0  0  0  0  0  0  0  0  0  0  0  # atno 17370 bound_to 10713
  157.3105  131.0663  151.2004 LP  0  0  0  0  0  0  0  0  0  0  0  0  # atno 17371 bound_to 10713
  140.4458  134.6974  157.5015 LP  0  0  0  0  0  0  0  0  0  0  0  0  # atno 17394 bound_to 11000
  140.0199  134.6563  155.9255 LP  0  0  0  0  0  0  0  0  0  0  0  0  # atno 17395 bound_to 11000

$$$$
