AV-unprocessed.smi:38|AV-procd|sdf|343|dock5
  -GOLD-   2262016183D 1   1.00000     0.00000
 Structure written by MMmdl.
 27 28  0  0  0  0  0  0  0  0  2 V2000
  148.1334  134.9741  158.7635 O   0  0  0  0  0  0  0  0  0  0  0  0
  148.8311  135.7256  158.0842 C   0  0  0  0  0  0  0  0  0  0  0  0
  150.1325  135.4513  157.7793 N   0  5  0  0  0  0  0  0  0  0  0  0
  150.9054  136.2874  157.0255 C   0  0  0  0  0  0  0  0  0  0  0  0
  152.0744  136.0380  156.7305 O   0  0  0  0  0  0  0  0  0  0  0  0
  150.3407  137.5012  156.5460 N   0  0  0  0  0  0  0  0  0  0  0  0
  151.1914  138.4312  155.7059 C   0  0  1  0  0  0  0  0  0  0  0  0
  150.4867  138.7485  154.3845 C   0  0  0  0  0  0  0  0  0  0  0  0
  149.8128  140.0661  154.7048 C   0  0  2  0  0  0  0  0  0  0  0  0
  149.5743  140.8102  153.5277 O   0  0  0  0  0  0  0  0  0  0  0  0
  150.8441  140.7293  155.6209 C   0  0  1  0  0  0  0  0  0  0  0  0
  150.2458  141.7975  156.5500 C   0  0  0  0  0  0  0  0  0  0  0  0
  150.9224  143.0251  156.3818 O   0  0  0  0  0  0  0  0  0  0  0  0
  151.3684  139.6427  156.3850 O   0  0  0  0  0  0  0  0  0  0  0  0
  149.0184  137.7992  156.8310 C   0  0  0  0  0  0  0  0  0  0  0  0
  148.2571  136.9679  157.5713 C   0  0  0  0  0  0  0  0  0  0  0  0
  146.9766  137.2848  157.8288 F   0  0  0  0  0  0  0  0  0  0  0  0
  152.1558  137.9349  155.5868 H   0  0  0  0  0  0  0  0  0  0  0  0
  148.8763  139.8905  155.2361 H   0  0  0  0  0  0  0  0  0  0  0  0
  151.6504  141.1452  155.0131 H   0  0  0  0  0  0  0  0  0  0  0  0
  151.2497  138.8745  153.6147 H   0  0  0  0  0  0  0  0  0  0  0  0
  149.7998  137.9600  154.0741 H   0  0  0  0  0  0  0  0  0  0  0  0
  149.3803  140.2064  152.8273 H   0  0  0  0  0  0  0  0  0  0  0  0
  149.1986  141.9668  156.2984 H   0  0  0  0  0  0  0  0  0  0  0  0
  150.2796  141.4862  157.5937 H   0  0  0  0  0  0  0  0  0  0  0  0
  150.3308  143.6407  155.9771 H   0  0  0  0  0  0  0  0  0  0  0  0
  148.5733  138.7075  156.4573 H   0  0  0  0  0  0  0  0  0  0  0  0
  1  2  2  0  0  0  0
  2 16  1  0  0  0  0
  2  3  1  0  0  0  0
  3  4  1  0  0  0  0
  4  5  2  0  0  0  0
  4  6  1  0  0  0  0
  6  7  1  0  0  0  0
  6 15  1  0  0  0  0
  7 18  1  0  0  0  0
  7 14  1  0  0  0  0
  7  8  1  0  0  0  0
  8  9  1  0  0  0  0
  8 21  1  0  0  0  0
  8 22  1  0  0  0  0
  9 19  1  0  0  0  0
  9 10  1  0  0  0  0
  9 11  1  0  0  0  0
 10 23  1  0  0  0  0
 11 20  1  0  0  0  0
 11 12  1  0  0  0  0
 11 14  1  0  0  0  0
 12 13  1  0  0  0  0
 12 24  1  0  0  0  0
 12 25  1  0  0  0  0
 13 26  1  0  0  0  0
 15 16  2  0  0  0  0
 15 27  1  0  0  0  0
 16 17  1  0  0  0  0
M  CHG  1   3  -1
M  END
> <s_m_source_file>
AV-unprocessed.smi

> <i_m_source_file_index>
38

> <i_lp_mmshare_version>
43012

> <i_f3d_flags>
0

> <s_epik_input>
Tz1jMVtuSF1jKD1PKW4oW2NIXWMxRilbQ0BIXTJbQ0gyXVtDQEhdKFtPSF0pW0NASF0oTzIpW0NIMl1bT0hd

> <s_epik_cmdline>
J2VwaWtfcHl0aG9uJywgJy1waCcsICc3LjAnLCAnLXRuJywgJzgnLCAnLW1hJywgJzIwMCcsICctbWV0YWxfYmluZGluZycsICctaW1hZScsICc8aW5maWxlLm1hZT4nLCAnLW9tYWUnLCAnPG91dGZpbGUubWFlPic=

> <r_epik_Ionization_Penalty>
1.68146

> <r_epik_Ionization_Penalty_Charging>
3.4211e-08

> <r_epik_Ionization_Penalty_Neutral>
1.68146

> <r_epik_State_Penalty>
1.78593

> <r_epik_Charging_Adjusted_Penalty>
1.78593

> <i_epik_Tot_Q>
-1

> <i_epik_Tot_abs_Q>
1

> <r_epik_Metal_State_Penalty>
0.0113696

> <b_epik_Metal_Only>
0

> <s_epik_Chemistry_Notes>
This compound contains an acetal/aminal-like group ( X-CH(R)-Y where X, Y are N, S, or O) that may be acid/base labile, releasing an aldehyde.

> <s_lp_Force_Field>
OPLS_2005

> <r_lp_Energy>
36.3434

> <b_lp_Chiralities_Consistent>
1

> <s_lp_Variant>
AV-unprocessed.smi:38-9

> <Gold.Version>
5.8.1

> <Gold.Id.Protein>
6NUR|6NUR_protein|mol2

> <Gold.PLP.Fitness>
34.9302

> <Gold.PLP.PLP>
-21.1016

> <Gold.PLP.part.hbond>
-5.7671

> <Gold.PLP.part.metal>
0.0000

> <Gold.PLP.part.buried>
-2.7518

> <Gold.PLP.part.nonpolar>
-12.6740

> <Gold.PLP.part.repulsive>
0.0000

> <Gold.PLP.ligand.clash>
0.0000

> <Gold.PLP.ligand.torsion>
0.8116

> <Gold.PLP.Chemscore.Hbond>
5.1471

> <Gold.PLP.Chemscore.CHOScore>
0.0000

> <Gold.PLP.Chemscore.Metal>
0.0000

> <Gold.Chemscore.Hbonds>
donor molecule, donor type, donor heavy atom, donor atom, acceptor molecule, acceptor atom, score
      L1  H    10    23       P1  7957  0.80
      L1  H    13    26       P1  8028  1.00
      P1  H  6896  6907       L1     3  1.57
      P1  H  7989  7998       L1    10  0.07
      P1  H  8011  8017       L1    10  0.75
      P1  H 10752 10765       L1     5  0.96

> <Gold.PLP.Chemscore.Internal.Correction>
0.0104

> <Gold.Rescore>
     Score         DG    S(hbond)    S(metal)    S(lipo)     H(rot)  DE(clash)    DE(int)     intcor
     11.13     -11.88       3.04        0.00      30.92       2.88       0.02       0.73       ----

> <Gold.Chemscore.Fitness>
11.1306

> <Gold.Chemscore.DG>
-11.8782

> <Gold.Chemscore.ZeroCoef>
-5.4800

> <Gold.Chemscore.Hbond>
3.0412

> <Gold.Chemscore.Metal>
0.0000

> <Gold.Chemscore.Lipo>
30.9158

> <Gold.Chemscore.Internal_Hbond>
0.0000

> <Gold.Chemscore.DEClash>
0.0154

> <Gold.Chemscore.DEInternal>
0.7322

> <Gold.Chemscore.Rot>
2.8815

> <Gold.Chemscore.Internal.Correction>
   9.000000E+99

> <Gold.Chemscore.Hbonds>
donor molecule, donor type, donor heavy atom, donor atom, acceptor molecule, acceptor atom, score
      L1  H    10    23       P1  7957  0.80
      L1  H    13    26       P1  8028  1.00
      P1  H  6896  6907       L1     3  0.19
      P1  H  8011  8017       L1    10  0.09
      P1  H 10752 10765       L1     5  0.91

> <Gold.Chemscore.Hbond.Weighted>
-10.1576

> <Gold.Chemscore.Metal.Weighted>
-0.0000

> <Gold.Chemscore.Lipo.Weighted>
-3.6171

> <Gold.Chemscore.Internal_Hbond.Weighted>
0.0000

> <Gold.Chemscore.DEClash.Weighted>
0.0154

> <Gold.Chemscore.DEInternal.Weighted>
0.7322

> <Gold.Chemscore.Rot.Weighted>
7.3765

> <Gold.Chemscore.Internal.Correction.Weighted>
   9.000000E+99

> <Gold.Protein.RotatedTorsions>
[ 6907 6896 6895 6894 ] final  -74.16 input  -60.11 | X-H torsion
[ 7974 7965 7964 7962 ] final  130.46 input  175.53 | X-H torsion
[ 8008 7997 7996 7995 ] final  143.78 input   59.86 | X-H torsion
[ 10167 10162 10161 10158 ] final  -67.07 input  -65.29 | X-H torsion
[ 10718 10713 10712 10709 ] final  112.29 input   66.30 | X-H torsion
[ 10763 10752 10751 10750 ] final -139.88 input  -60.55 | X-H torsion
[ 11005 11000 10999 10996 ] final  159.47 input  -57.11 | X-H torsion

> <Gold.Protein.ActiveResidues>
 VAL166  LYS551  ARG553  GLY616  TRP617  ASP618  TYR619  PRO620  LYS621  CYS622 
 ASP623  PHE694  ASN695  SER759  ASP760  ASP761  ALA762  ILE779  LEU786  VAL792 
 PHE793  MET794  SER795  GLU796  ALA797  LYS798  CYS799  TRP800  GLU811  SER814 

> <Gold.Protein.RotatedAtoms>
  150.7103  134.4910  159.5515 H   0  0  0  0  0  0  0  0  0  0  0  0  # atno 6907 bound_to 6896
  152.2528  134.8112  160.0452 H   0  0  0  0  0  0  0  0  0  0  0  0  # atno 6908 bound_to 6896
  151.8854  133.3469  159.3817 H   0  0  0  0  0  0  0  0  0  0  0  0  # atno 6909 bound_to 6896
  145.0177  139.4161  143.5213 H   0  0  0  0  0  0  0  0  0  0  0  0  # atno 7974 bound_to 7965
  156.2923  140.2253  156.4946 H   0  0  0  0  0  0  0  0  0  0  0  0  # atno 8008 bound_to 7997
  154.7741  140.0464  157.1096 H   0  0  0  0  0  0  0  0  0  0  0  0  # atno 8009 bound_to 7997
  154.9838  140.3081  155.4938 H   0  0  0  0  0  0  0  0  0  0  0  0  # atno 8010 bound_to 7997
  140.5610  143.2313  151.6728 H   0  0  0  0  0  0  0  0  0  0  0  0  # atno 10167 bound_to 10162
  157.6400  131.0965  150.6873 H   0  0  0  0  0  0  0  0  0  0  0  0  # atno 10718 bound_to 10713
  154.8596  135.3569  154.5617 H   0  0  0  0  0  0  0  0  0  0  0  0  # atno 10763 bound_to 10752
  153.6232  135.7005  153.5307 H   0  0  0  0  0  0  0  0  0  0  0  0  # atno 10764 bound_to 10752
  153.3111  135.4178  155.1296 H   0  0  0  0  0  0  0  0  0  0  0  0  # atno 10765 bound_to 10752
  140.1965  134.8369  157.2970 H   0  0  0  0  0  0  0  0  0  0  0  0  # atno 11005 bound_to 11000
  146.3480  139.9657  142.8712 LP  0  0  0  0  0  0  0  0  0  0  0  0  # atno 17320 bound_to 7965
  145.1937  140.9823  143.4196 LP  0  0  0  0  0  0  0  0  0  0  0  0  # atno 17321 bound_to 7965
  139.5070  144.3661  152.0515 LP  0  0  0  0  0  0  0  0  0  0  0  0  # atno 17342 bound_to 10162
  140.2788  144.3883  150.6126 LP  0  0  0  0  0  0  0  0  0  0  0  0  # atno 17343 bound_to 10162
  156.7198  130.4677  149.5526 LP  0  0  0  0  0  0  0  0  0  0  0  0  # atno 17370 bound_to 10713
  156.1673  130.6414  151.0794 LP  0  0  0  0  0  0  0  0  0  0  0  0  # atno 17371 bound_to 10713
  140.2102  134.4148  155.7617 LP  0  0  0  0  0  0  0  0  0  0  0  0  # atno 17394 bound_to 11000
  141.2227  133.7114  156.8325 LP  0  0  0  0  0  0  0  0  0  0  0  0  # atno 17395 bound_to 11000

$$$$
