AV-unprocessed.smi:1895|AV-procd|sdf|7681|dock4
  -GOLD-   22720 9423D 1   1.00000     0.00000
 Structure written by MMmdl.
 36 37  0  0  0  0  0  0  0  0  1 V2000
  151.8151  144.9984  158.5850 C   0  0  0  0  0  0  0  0  0  0  0  0
  152.1387  143.6195  159.0793 C   0  0  0  0  0  0  0  0  0  0  0  0
  153.1117  143.2350  160.0440 C   0  0  0  0  0  0  0  0  0  0  0  0
  152.9940  141.8757  160.1184 C   0  0  0  0  0  0  0  0  0  0  0  0
  153.7431  140.8873  160.9504 C   0  0  0  0  0  0  0  0  0  0  0  0
  151.9948  141.5100  159.2334 N   0  0  0  0  0  0  0  0  0  0  0  0
  151.4754  140.1833  158.9298 C   0  0  0  0  0  0  0  0  0  0  0  0
  151.9169  139.6635  157.5554 C   0  0  0  0  0  0  0  0  0  0  0  0
  153.0988  139.4109  157.3161 O   0  0  0  0  0  0  0  0  0  0  0  0
  150.9364  139.5018  156.6542 N   0  0  0  0  0  0  0  0  0  0  0  0
  151.1182  139.0259  155.2879 C   0  0  0  0  0  0  0  0  0  0  0  0
  149.9133  139.3768  154.3999 C   0  0  1  0  0  0  0  0  0  0  0  0
  148.5698  138.9725  154.9995 C   0  0  0  0  0  0  0  0  0  0  0  0
  147.6179  139.8647  154.2347 C   0  0  0  0  0  0  0  0  0  0  0  0
  148.4308  141.1480  154.0614 C   0  0  0  0  0  0  0  0  0  0  0  0
  149.7992  140.7861  154.2364 O   0  0  0  0  0  0  0  0  0  0  0  0
  151.4726  142.5824  158.5988 N   0  0  0  0  0  0  0  0  0  0  0  0
  152.4486  145.7464  159.0619 H   0  0  0  0  0  0  0  0  0  0  0  0
  150.7779  145.2586  158.7971 H   0  0  0  0  0  0  0  0  0  0  0  0
  151.9658  145.0744  157.5079 H   0  0  0  0  0  0  0  0  0  0  0  0
  153.7943  143.8632  160.5964 H   0  0  0  0  0  0  0  0  0  0  0  0
  154.5014  141.3838  161.5557 H   0  0  0  0  0  0  0  0  0  0  0  0
  154.2455  140.1517  160.3220 H   0  0  0  0  0  0  0  0  0  0  0  0
  153.0706  140.3567  161.6245 H   0  0  0  0  0  0  0  0  0  0  0  0
  151.8083  139.4890  159.7018 H   0  0  0  0  0  0  0  0  0  0  0  0
  150.3854  140.2096  158.9764 H   0  0  0  0  0  0  0  0  0  0  0  0
  149.9943  139.7368  156.9311 H   0  0  0  0  0  0  0  0  0  0  0  0
  152.0333  139.4468  154.8677 H   0  0  0  0  0  0  0  0  0  0  0  0
  151.2603  137.9453  155.3165 H   0  0  0  0  0  0  0  0  0  0  0  0
  150.0151  138.9222  153.4127 H   0  0  0  0  0  0  0  0  0  0  0  0
  148.3516  137.9109  154.8794 H   0  0  0  0  0  0  0  0  0  0  0  0
  148.5345  139.2129  156.0631 H   0  0  0  0  0  0  0  0  0  0  0  0
  147.4022  139.4256  153.2597 H   0  0  0  0  0  0  0  0  0  0  0  0
  146.6717  140.0257  154.7521 H   0  0  0  0  0  0  0  0  0  0  0  0
  148.2674  141.5991  153.0821 H   0  0  0  0  0  0  0  0  0  0  0  0
  148.1655  141.8838  154.8212 H   0  0  0  0  0  0  0  0  0  0  0  0
  1  2  1  0  0  0  0
  1 18  1  0  0  0  0
  1 19  1  0  0  0  0
  1 20  1  0  0  0  0
  2 17  2  0  0  0  0
  2  3  1  0  0  0  0
  3  4  2  0  0  0  0
  3 21  1  0  0  0  0
  4  5  1  0  0  0  0
  4  6  1  0  0  0  0
  5 22  1  0  0  0  0
  5 23  1  0  0  0  0
  5 24  1  0  0  0  0
  6  7  1  0  0  0  0
  6 17  1  0  0  0  0
  7  8  1  0  0  0  0
  7 25  1  0  0  0  0
  7 26  1  0  0  0  0
  8  9  2  0  0  0  0
  8 10  1  0  0  0  0
 10 11  1  0  0  0  0
 10 27  1  0  0  0  0
 11 12  1  0  0  0  0
 11 28  1  0  0  0  0
 11 29  1  0  0  0  0
 12 16  1  0  0  0  0
 12 13  1  0  0  0  0
 12 30  1  0  0  0  0
 13 14  1  0  0  0  0
 13 31  1  0  0  0  0
 13 32  1  0  0  0  0
 14 15  1  0  0  0  0
 14 33  1  0  0  0  0
 14 34  1  0  0  0  0
 15 16  1  0  0  0  0
 15 35  1  0  0  0  0
 15 36  1  0  0  0  0
M  END
> <s_m_source_file>
AV-unprocessed.smi

> <i_m_source_file_index>
1895

> <i_lp_mmshare_version>
43012

> <i_f3d_flags>
0

> <s_epik_input>
W0NIM11jMVtjSF1jKFtDSDNdKW4objEpW0NIMl1DKD1PKVtOSF1bQ0gyXVtDQEBIXTJbQ0gyXVtDSDJdW0NIMl1PMg==

> <s_epik_cmdline>
J2VwaWtfcHl0aG9uJywgJy1waCcsICc3LjAnLCAnLXRuJywgJzgnLCAnLW1hJywgJzIwMCcsICctbWV0YWxfYmluZGluZycsICctaW1hZScsICc8aW5maWxlLm1hZT4nLCAnLW9tYWUnLCAnPG91dGZpbGUubWFlPic=

> <r_lp_tautomer_probability>
1

> <r_epik_Ionization_Penalty>
0.000408438

> <r_epik_Ionization_Penalty_Charging>
0

> <r_epik_Ionization_Penalty_Neutral>
0.000408438

> <r_epik_State_Penalty>
-0

> <r_epik_Charging_Adjusted_Penalty>
0

> <i_epik_Tot_Q>
0

> <i_epik_Tot_abs_Q>
0

> <r_epik_Metal_State_Penalty>
-0

> <b_epik_Metal_Only>
0

> <s_lp_Force_Field>
OPLS_2005

> <r_lp_Energy>
16.1731

> <b_lp_Chiralities_Consistent>
1

> <s_lp_Variant>
AV-unprocessed.smi:1895-2

> <Gold.Version>
5.8.1

> <Gold.Id.Protein>
6NUR|6NUR_protein|mol2

> <Gold.PLP.Fitness>
40.6943

> <Gold.PLP.PLP>
-37.2442

> <Gold.PLP.part.hbond>
-2.0000

> <Gold.PLP.part.metal>
0.0000

> <Gold.PLP.part.buried>
-5.1885

> <Gold.PLP.part.nonpolar>
-31.1058

> <Gold.PLP.part.repulsive>
0.2249

> <Gold.PLP.ligand.clash>
0.0000

> <Gold.PLP.ligand.torsion>
0.3447

> <Gold.PLP.Chemscore.Hbond>
1.3744

> <Gold.PLP.Chemscore.CHOScore>
0.0000

> <Gold.PLP.Chemscore.Metal>
0.0000

> <Gold.Chemscore.Hbonds>
donor molecule, donor type, donor heavy atom, donor atom, acceptor molecule, acceptor atom, score
      P1  H  7989  7998       L1    16  0.37
      P1  H  7997  8010       L1     9  1.00

> <Gold.PLP.Chemscore.Internal.Correction>
0.0162

> <Gold.Rescore>
     Score         DG    S(hbond)    S(metal)    S(lipo)     H(rot)  DE(clash)    DE(int)     intcor
     18.43     -18.93       1.84        0.00      96.13       1.54       0.23       0.27       ----

> <Gold.Chemscore.Fitness>
18.4295

> <Gold.Chemscore.DG>
-18.9301

> <Gold.Chemscore.ZeroCoef>
-5.4800

> <Gold.Chemscore.Hbond>
1.8389

> <Gold.Chemscore.Metal>
0.0000

> <Gold.Chemscore.Lipo>
96.1308

> <Gold.Chemscore.Internal_Hbond>
0.0000

> <Gold.Chemscore.DEClash>
0.2264

> <Gold.Chemscore.DEInternal>
0.2741

> <Gold.Chemscore.Rot>
1.5387

> <Gold.Chemscore.Internal.Correction>
   9.000000E+99

> <Gold.Chemscore.Hbonds>
donor molecule, donor type, donor heavy atom, donor atom, acceptor molecule, acceptor atom, score
      P1  H  7989  7998       L1    16  0.03
      P1  H  7997  8010       L1     9  0.98

> <Gold.Chemscore.Hbond.Weighted>
-6.1420

> <Gold.Chemscore.Metal.Weighted>
-0.0000

> <Gold.Chemscore.Lipo.Weighted>
-11.2473

> <Gold.Chemscore.Internal_Hbond.Weighted>
0.0000

> <Gold.Chemscore.DEClash.Weighted>
0.2264

> <Gold.Chemscore.DEInternal.Weighted>
0.2741

> <Gold.Chemscore.Rot.Weighted>
3.9392

> <Gold.Chemscore.Internal.Correction.Weighted>
   9.000000E+99

> <Gold.Protein.RotatedTorsions>
[ 6907 6896 6895 6894 ] final   13.94 input  -60.11 | X-H torsion
[ 7974 7965 7964 7962 ] final -132.21 input  175.53 | X-H torsion
[ 8008 7997 7996 7995 ] final   43.71 input   59.86 | X-H torsion
[ 10167 10162 10161 10158 ] final   52.31 input  -65.29 | X-H torsion
[ 10718 10713 10712 10709 ] final  -89.11 input   66.30 | X-H torsion
[ 10763 10752 10751 10750 ] final  -40.49 input  -60.55 | X-H torsion
[ 11005 11000 10999 10996 ] final -120.72 input  -57.11 | X-H torsion

> <Gold.Protein.ActiveResidues>
 VAL166  LYS551  ARG553  GLY616  TRP617  ASP618  TYR619  PRO620  LYS621  CYS622 
 ASP623  PHE694  ASN695  SER759  ASP760  ASP761  ALA762  ILE779  LEU786  VAL792 
 PHE793  MET794  SER795  GLU796  ALA797  LYS798  CYS799  TRP800  GLU811  SER814 

> <Gold.Protein.RotatedAtoms>
  151.7943  135.0727  160.0391 H   0  0  0  0  0  0  0  0  0  0  0  0  # atno 6907 bound_to 6896
  152.3134  133.5772  159.5704 H   0  0  0  0  0  0  0  0  0  0  0  0  # atno 6908 bound_to 6896
  150.7332  134.0034  159.3688 H   0  0  0  0  0  0  0  0  0  0  0  0  # atno 6909 bound_to 6896
  144.9307  140.7124  143.4908 H   0  0  0  0  0  0  0  0  0  0  0  0  # atno 7974 bound_to 7965
  155.3072  140.3389  155.4245 H   0  0  0  0  0  0  0  0  0  0  0  0  # atno 8008 bound_to 7997
  156.1973  140.1719  156.8010 H   0  0  0  0  0  0  0  0  0  0  0  0  # atno 8009 bound_to 7997
  154.5515  140.0705  156.8658 H   0  0  0  0  0  0  0  0  0  0  0  0  # atno 8010 bound_to 7997
  140.2527  144.3461  150.6343 H   0  0  0  0  0  0  0  0  0  0  0  0  # atno 10167 bound_to 10162
  155.9984  130.4860  150.5122 H   0  0  0  0  0  0  0  0  0  0  0  0  # atno 10718 bound_to 10713
  153.9468  135.6755  153.4744 H   0  0  0  0  0  0  0  0  0  0  0  0  # atno 10763 bound_to 10752
  153.0904  135.4877  154.8675 H   0  0  0  0  0  0  0  0  0  0  0  0  # atno 10764 bound_to 10752
  154.7347  135.3146  154.8790 H   0  0  0  0  0  0  0  0  0  0  0  0  # atno 10765 bound_to 10752
  141.0123  134.0247  157.3397 H   0  0  0  0  0  0  0  0  0  0  0  0  # atno 11005 bound_to 11000
  145.3147  139.1807  143.4620 LP  0  0  0  0  0  0  0  0  0  0  0  0  # atno 17320 bound_to 7965
  146.3245  140.3156  142.8630 LP  0  0  0  0  0  0  0  0  0  0  0  0  # atno 17321 bound_to 7965
  140.6028  143.2167  151.7040 LP  0  0  0  0  0  0  0  0  0  0  0  0  # atno 17342 bound_to 10162
  139.5041  144.3766  152.0417 LP  0  0  0  0  0  0  0  0  0  0  0  0  # atno 17343 bound_to 10162
  157.3093  131.0660  151.2012 LP  0  0  0  0  0  0  0  0  0  0  0  0  # atno 17370 bound_to 10713
  157.2964  130.6821  149.6141 LP  0  0  0  0  0  0  0  0  0  0  0  0  # atno 17371 bound_to 10713
  139.9097  135.0187  156.7637 LP  0  0  0  0  0  0  0  0  0  0  0  0  # atno 17394 bound_to 11000
  140.6713  133.9557  155.7858 LP  0  0  0  0  0  0  0  0  0  0  0  0  # atno 17395 bound_to 11000

$$$$
