AV-unprocessed.smi:711|AV-procd|sdf|3467|dock3
  -GOLD-   22720 0453D 1   1.00000     0.00000
 Structure written by MMmdl.
 28 29  0  0  0  0  0  0  0  0  2 V2000
  150.8672  135.3808  155.0053 O   0  0  0  0  0  0  0  0  0  0  0  0
  150.9946  136.5484  155.3711 C   0  0  0  0  0  0  0  0  0  0  0  0
  151.8372  137.4264  154.7524 N   0  5  0  0  0  0  0  0  0  0  0  0
  151.9903  138.7298  155.1418 C   0  0  0  0  0  0  0  0  0  0  0  0
  152.7585  139.5005  154.5662 O   0  0  0  0  0  0  0  0  0  0  0  0
  151.2634  139.1879  156.2037 N   0  0  0  0  0  0  0  0  0  0  0  0
  151.3622  140.5700  156.6946 C   0  0  0  0  0  0  0  0  0  0  0  0
  152.0396  140.6474  158.0791 C   0  0  1  0  0  0  0  0  0  0  0  0
  153.3766  140.2007  157.9635 O   0  0  0  0  0  0  0  0  0  0  0  0
  151.9711  142.0657  158.6320 C   0  0  0  0  0  0  0  0  0  0  0  0
  151.2069  143.0544  157.9717 C   0  0  0  0  0  0  0  0  0  0  0  0
  151.1305  144.3613  158.4907 C   0  0  0  0  0  0  0  0  0  0  0  0
  151.8142  144.6884  159.6767 C   0  0  0  0  0  0  0  0  0  0  0  0
  151.7400  145.9442  160.1776 F   0  0  0  0  0  0  0  0  0  0  0  0
  152.5719  143.7074  160.3437 C   0  0  0  0  0  0  0  0  0  0  0  0
  152.6491  142.3993  159.8268 C   0  0  0  0  0  0  0  0  0  0  0  0
  153.3739  141.4659  160.4896 F   0  0  0  0  0  0  0  0  0  0  0  0
  150.3852  138.3233  156.8792 C   0  0  0  0  0  0  0  0  0  0  0  0
  150.2229  137.0376  156.5117 C   0  0  0  0  0  0  0  0  0  0  0  0
  149.1378  135.9971  157.3632 Cl  0  0  0  0  0  0  0  0  0  0  0  0
  151.8483  141.2385  155.9817 H   0  0  0  0  0  0  0  0  0  0  0  0
  150.3434  140.9526  156.7765 H   0  0  0  0  0  0  0  0  0  0  0  0
  151.5373  139.9762  158.7763 H   0  0  0  0  0  0  0  0  0  0  0  0
  153.5900  139.6901  158.7292 H   0  0  0  0  0  0  0  0  0  0  0  0
  150.6712  142.8132  157.0651 H   0  0  0  0  0  0  0  0  0  0  0  0
  150.5452  145.1114  157.9797 H   0  0  0  0  0  0  0  0  0  0  0  0
  153.0927  143.9579  161.2560 H   0  0  0  0  0  0  0  0  0  0  0  0
  149.8595  138.7681  157.7118 H   0  0  0  0  0  0  0  0  0  0  0  0
  1  2  2  0  0  0  0
  2 19  1  0  0  0  0
  2  3  1  0  0  0  0
  3  4  1  0  0  0  0
  4  5  2  0  0  0  0
  4  6  1  0  0  0  0
  6  7  1  0  0  0  0
  6 18  1  0  0  0  0
  7  8  1  0  0  0  0
  7 21  1  0  0  0  0
  7 22  1  0  0  0  0
  8  9  1  0  0  0  0
  8 10  1  0  0  0  0
  8 23  1  0  0  0  0
  9 24  1  0  0  0  0
 10 16  1  0  0  0  0
 10 11  2  0  0  0  0
 11 12  1  0  0  0  0
 11 25  1  0  0  0  0
 12 13  2  0  0  0  0
 12 26  1  0  0  0  0
 13 14  1  0  0  0  0
 13 15  1  0  0  0  0
 15 16  2  0  0  0  0
 15 27  1  0  0  0  0
 16 17  1  0  0  0  0
 18 19  2  0  0  0  0
 18 28  1  0  0  0  0
 19 20  1  0  0  0  0
M  CHG  1   3  -1
M  END
> <s_m_source_file>
AV-unprocessed.smi

> <i_m_source_file_index>
711

> <i_lp_mmshare_version>
43012

> <i_f3d_flags>
0

> <s_epik_input>
Tz1jMVtuSF1jKD1PKW4oW2NIXWMxQ2wpW0NIMl1bQ0BIXShbT0hdKWMyW2NIXVtjSF1jKEYpW2NIXWMyRg==

> <s_epik_cmdline>
J2VwaWtfcHl0aG9uJywgJy1waCcsICc3LjAnLCAnLXRuJywgJzgnLCAnLW1hJywgJzIwMCcsICctbWV0YWxfYmluZGluZycsICctaW1hZScsICc8aW5maWxlLm1hZT4nLCAnLW9tYWUnLCAnPG91dGZpbGUubWFlPic=

> <r_epik_Ionization_Penalty>
1.7979

> <r_epik_Ionization_Penalty_Charging>
3.23819e-08

> <r_epik_Ionization_Penalty_Neutral>
1.7979

> <r_epik_State_Penalty>
1.91135

> <r_epik_Charging_Adjusted_Penalty>
1.91135

> <i_epik_Tot_Q>
-1

> <i_epik_Tot_abs_Q>
1

> <r_epik_Metal_State_Penalty>
0.014155

> <b_epik_Metal_Only>
0

> <s_lp_Force_Field>
OPLS_2005

> <r_lp_Energy>
21.7913

> <b_lp_Chiralities_Consistent>
1

> <s_lp_Variant>
AV-unprocessed.smi:711-4

> <Gold.Version>
5.8.1

> <Gold.Id.Protein>
6NUR|6NUR_protein|mol2

> <Gold.PLP.Fitness>
49.3552

> <Gold.PLP.PLP>
-42.7792

> <Gold.PLP.part.hbond>
-5.0000

> <Gold.PLP.part.metal>
0.0000

> <Gold.PLP.part.buried>
-3.2489

> <Gold.PLP.part.nonpolar>
-35.5900

> <Gold.PLP.part.repulsive>
0.2828

> <Gold.PLP.ligand.clash>
0.0000

> <Gold.PLP.ligand.torsion>
0.2136

> <Gold.PLP.Chemscore.Hbond>
2.3305

> <Gold.PLP.Chemscore.CHOScore>
0.0000

> <Gold.PLP.Chemscore.Metal>
0.0000

> <Gold.Chemscore.Hbonds>
donor molecule, donor type, donor heavy atom, donor atom, acceptor molecule, acceptor atom, score
      P1  H  7989  7998       L1     5  0.48
      P1  H  7997  8008       L1     9  0.49
      P1  H  7997  8009       L1     5  0.19
      P1  H 10752 10763       L1     3  0.35

> <Gold.PLP.Chemscore.Internal.Correction>
0.0117

> <Gold.Rescore>
     Score         DG    S(hbond)    S(metal)    S(lipo)     H(rot)  DE(clash)    DE(int)     intcor
     13.88     -15.92       1.78        0.00      89.13       2.32       0.22       1.82       ----

> <Gold.Chemscore.Fitness>
13.8787

> <Gold.Chemscore.DG>
-15.9161

> <Gold.Chemscore.ZeroCoef>
-5.4800

> <Gold.Chemscore.Hbond>
1.7779

> <Gold.Chemscore.Metal>
0.0000

> <Gold.Chemscore.Lipo>
89.1282

> <Gold.Chemscore.Internal_Hbond>
0.0000

> <Gold.Chemscore.DEClash>
0.2187

> <Gold.Chemscore.DEInternal>
1.8187

> <Gold.Chemscore.Rot>
2.3164

> <Gold.Chemscore.Internal.Correction>
   9.000000E+99

> <Gold.Chemscore.Hbonds>
donor molecule, donor type, donor heavy atom, donor atom, acceptor molecule, acceptor atom, score
      P1  H  7989  7998       L1     5  0.33
      P1  H  7997  8008       L1     9  0.07
      P1  H  7997  8009       L1     5  0.20

> <Gold.Chemscore.Hbond.Weighted>
-5.9382

> <Gold.Chemscore.Metal.Weighted>
-0.0000

> <Gold.Chemscore.Lipo.Weighted>
-10.4280

> <Gold.Chemscore.Internal_Hbond.Weighted>
0.0000

> <Gold.Chemscore.DEClash.Weighted>
0.2187

> <Gold.Chemscore.DEInternal.Weighted>
1.8187

> <Gold.Chemscore.Rot.Weighted>
5.9301

> <Gold.Chemscore.Internal.Correction.Weighted>
   9.000000E+99

> <Gold.Protein.RotatedTorsions>
[ 6907 6896 6895 6894 ] final   10.86 input  -60.11 | X-H torsion
[ 7974 7965 7964 7962 ] final  108.52 input  175.53 | X-H torsion
[ 8008 7997 7996 7995 ] final -108.23 input   59.86 | X-H torsion
[ 10167 10162 10161 10158 ] final  -56.50 input  -65.29 | X-H torsion
[ 10718 10713 10712 10709 ] final  -44.98 input   66.30 | X-H torsion
[ 10763 10752 10751 10750 ] final   30.00 input  -60.55 | X-H torsion
[ 11005 11000 10999 10996 ] final -114.01 input  -57.11 | X-H torsion

> <Gold.Protein.ActiveResidues>
 VAL166  LYS551  ARG553  GLY616  TRP617  ASP618  TYR619  PRO620  LYS621  CYS622 
 ASP623  PHE694  ASN695  SER759  ASP760  ASP761  ALA762  ILE779  LEU786  VAL792 
 PHE793  MET794  SER795  GLU796  ALA797  LYS798  CYS799  TRP800  GLU811  SER814 

> <Gold.Protein.RotatedAtoms>
  151.7450  135.0846  160.0321 H   0  0  0  0  0  0  0  0  0  0  0  0  # atno 6907 bound_to 6896
  152.3454  133.6112  159.5915 H   0  0  0  0  0  0  0  0  0  0  0  0  # atno 6908 bound_to 6896
  150.7506  133.9573  159.3546 H   0  0  0  0  0  0  0  0  0  0  0  0  # atno 6909 bound_to 6896
  145.2796  139.2637  143.3923 H   0  0  0  0  0  0  0  0  0  0  0  0  # atno 7974 bound_to 7965
  154.9412  140.0403  157.2098 H   0  0  0  0  0  0  0  0  0  0  0  0  # atno 8008 bound_to 7997
  154.8067  140.2861  155.5861 H   0  0  0  0  0  0  0  0  0  0  0  0  # atno 8009 bound_to 7997
  156.2967  140.2545  156.2946 H   0  0  0  0  0  0  0  0  0  0  0  0  # atno 8010 bound_to 7997
  140.6313  143.2461  151.5233 H   0  0  0  0  0  0  0  0  0  0  0  0  # atno 10167 bound_to 10162
  156.2330  130.4174  149.8851 H   0  0  0  0  0  0  0  0  0  0  0  0  # atno 10718 bound_to 10713
  153.0397  135.6475  154.0977 H   0  0  0  0  0  0  0  0  0  0  0  0  # atno 10763 bound_to 10752
  154.0686  135.2882  155.3314 H   0  0  0  0  0  0  0  0  0  0  0  0  # atno 10764 bound_to 10752
  154.6609  135.5391  153.8082 H   0  0  0  0  0  0  0  0  0  0  0  0  # atno 10765 bound_to 10752
  141.0579  133.9583  157.2721 H   0  0  0  0  0  0  0  0  0  0  0  0  # atno 11005 bound_to 11000
  146.3220  140.3260  142.8637 LP  0  0  0  0  0  0  0  0  0  0  0  0  # atno 17320 bound_to 7965
  144.9265  140.7927  143.5716 LP  0  0  0  0  0  0  0  0  0  0  0  0  # atno 17321 bound_to 7965
  139.5527  144.2354  152.1559 LP  0  0  0  0  0  0  0  0  0  0  0  0  # atno 17342 bound_to 10162
  140.1599  144.5036  150.6639 LP  0  0  0  0  0  0  0  0  0  0  0  0  # atno 17343 bound_to 10162
  156.6459  130.8724  151.3522 LP  0  0  0  0  0  0  0  0  0  0  0  0  # atno 17370 bound_to 10713
  157.7142  130.9476  150.1195 LP  0  0  0  0  0  0  0  0  0  0  0  0  # atno 17371 bound_to 10713
  139.9406  135.0191  156.8695 LP  0  0  0  0  0  0  0  0  0  0  0  0  # atno 17394 bound_to 11000
  140.5928  134.0245  155.7506 LP  0  0  0  0  0  0  0  0  0  0  0  0  # atno 17395 bound_to 11000

$$$$
