AV-unprocessed.smi:364|AV-procd|sdf|2426|dock10
  -GOLD-   2262022363D 1   1.00000     0.00000
 Structure written by MMmdl.
 37 38  0  0  0  0  0  0  0  0  1 V2000
  151.2000  145.4176  159.4618 C   0  0  0  0  0  0  0  0  0  0  0  0
  152.2573  144.4508  160.0134 C   0  0  2  0  0  0  0  0  0  0  0  0
  152.9480  143.6706  158.8776 C   0  0  0  0  0  0  0  0  0  0  0  0
  153.9872  142.6715  159.4196 C   0  0  0  0  0  0  0  0  0  0  0  0
  153.3772  141.7043  160.4516 C   0  0  2  0  0  0  0  0  0  0  0  0
  152.4117  140.8301  159.7950 N   0  0  0  0  0  0  0  0  0  0  0  0
  152.6661  139.8412  158.9237 C   0  0  0  0  0  0  0  0  0  0  0  0
  153.8005  139.5500  158.5478 O   0  0  0  0  0  0  0  0  0  0  0  0
  151.4650  139.0378  158.3935 C   0  0  0  0  0  0  0  0  0  0  0  0
  150.8624  139.5844  157.1627 N   0  0  0  0  0  0  0  0  0  0  0  0
  149.5308  140.0259  157.2406 C   0  0  0  0  0  0  0  0  0  0  0  0
  148.9229  140.5725  156.1782 C   0  0  0  0  0  0  0  0  0  0  0  0
  149.7233  140.6780  154.9516 C   0  0  0  0  0  0  0  0  0  0  0  0
  150.9374  140.2769  154.8768 N   0  0  0  0  0  0  0  0  0  0  0  0
  151.5740  139.7046  155.9944 C   0  0  0  0  0  0  0  0  0  0  0  0
  152.7453  139.3304  155.9339 O   0  0  0  0  0  0  0  0  0  0  0  0
  152.6925  142.4895  161.5868 C   0  0  0  0  0  0  0  0  0  0  0  0
  151.6478  143.4860  161.0499 C   0  0  0  0  0  0  0  0  0  0  0  0
  150.4057  144.8805  158.9420 H   0  0  0  0  0  0  0  0  0  0  0  0
  151.6415  146.1223  158.7567 H   0  0  0  0  0  0  0  0  0  0  0  0
  150.7408  145.9971  160.2631 H   0  0  0  0  0  0  0  0  0  0  0  0
  153.0179  145.0473  160.5194 H   0  0  0  0  0  0  0  0  0  0  0  0
  152.2010  143.1398  158.2856 H   0  0  0  0  0  0  0  0  0  0  0  0
  153.4375  144.3659  158.1948 H   0  0  0  0  0  0  0  0  0  0  0  0
  154.4296  142.1112  158.5949 H   0  0  0  0  0  0  0  0  0  0  0  0
  154.8055  143.2228  159.8845 H   0  0  0  0  0  0  0  0  0  0  0  0
  154.1843  141.1054  160.8764 H   0  0  0  0  0  0  0  0  0  0  0  0
  151.4435  140.9845  160.0362 H   0  0  0  0  0  0  0  0  0  0  0  0
  151.7802  138.0044  158.2395 H   0  0  0  0  0  0  0  0  0  0  0  0
  150.7137  138.9894  159.1830 H   0  0  0  0  0  0  0  0  0  0  0  0
  149.0541  139.9009  158.2022 H   0  0  0  0  0  0  0  0  0  0  0  0
  147.9059  140.9355  156.1721 H   0  0  0  0  0  0  0  0  0  0  0  0
  149.2110  141.1264  154.0967 H   0  0  0  0  0  0  0  0  0  0  0  0
  152.2235  141.8010  162.2910 H   0  0  0  0  0  0  0  0  0  0  0  0
  153.4489  143.0346  162.1529 H   0  0  0  0  0  0  0  0  0  0  0  0
  151.2267  144.0524  161.8812 H   0  0  0  0  0  0  0  0  0  0  0  0
  150.8159  142.9404  160.6020 H   0  0  0  0  0  0  0  0  0  0  0  0
  1  2  1  0  0  0  0
  1 19  1  0  0  0  0
  1 20  1  0  0  0  0
  1 21  1  0  0  0  0
  2 18  1  0  0  0  0
  2  3  1  0  0  0  0
  2 22  1  0  0  0  0
  3  4  1  0  0  0  0
  3 23  1  0  0  0  0
  3 24  1  0  0  0  0
  4  5  1  0  0  0  0
  4 25  1  0  0  0  0
  4 26  1  0  0  0  0
  5  6  1  0  0  0  0
  5 17  1  0  0  0  0
  5 27  1  0  0  0  0
  6  7  1  0  0  0  0
  6 28  1  0  0  0  0
  7  8  2  0  0  0  0
  7  9  1  0  0  0  0
  9 10  1  0  0  0  0
  9 29  1  0  0  0  0
  9 30  1  0  0  0  0
 10 15  1  0  0  0  0
 10 11  1  0  0  0  0
 11 12  2  0  0  0  0
 11 31  1  0  0  0  0
 12 13  1  0  0  0  0
 12 32  1  0  0  0  0
 13 14  2  0  0  0  0
 13 33  1  0  0  0  0
 14 15  1  0  0  0  0
 15 16  2  0  0  0  0
 17 18  1  0  0  0  0
 17 34  1  0  0  0  0
 17 35  1  0  0  0  0
 18 36  1  0  0  0  0
 18 37  1  0  0  0  0
M  END
> <s_m_source_file>
AV-unprocessed.smi

> <i_m_source_file_index>
364

> <i_lp_mmshare_version>
43012

> <i_f3d_flags>
0

> <s_epik_input>
W0NIM11bQ0BASF0xW0NIMl1bQ0gyXVtDQEhdKFtDSDJdW0NIMl0xKVtOSF1DKD1PKVtDSDJdbjJbY0hdW2NIXVtjSF1uYzI9Tw==

> <s_epik_cmdline>
J2VwaWtfcHl0aG9uJywgJy1waCcsICc3LjAnLCAnLXRuJywgJzgnLCAnLW1hJywgJzIwMCcsICctbWV0YWxfYmluZGluZycsICctaW1hZScsICc8aW5maWxlLm1hZT4nLCAnLW9tYWUnLCAnPG91dGZpbGUubWFlPic=

> <r_lp_tautomer_probability>
1

> <r_epik_Ionization_Penalty>
7.65306e-06

> <r_epik_Ionization_Penalty_Charging>
1.81354e-08

> <r_epik_Ionization_Penalty_Neutral>
7.63492e-06

> <r_epik_State_Penalty>
-0

> <r_epik_Charging_Adjusted_Penalty>
1.81354e-08

> <i_epik_Tot_Q>
0

> <i_epik_Tot_abs_Q>
0

> <r_epik_Metal_State_Penalty>
-0

> <b_epik_Metal_Only>
0

> <s_lp_Force_Field>
OPLS_2005

> <r_lp_Energy>
9.99244

> <b_lp_Chiralities_Consistent>
1

> <s_lp_Variant>
AV-unprocessed.smi:364-2

> <Gold.Version>
5.8.1

> <Gold.Id.Protein>
6NUR|6NUR_protein|mol2

> <Gold.PLP.Fitness>
42.3688

> <Gold.PLP.PLP>
-37.3541

> <Gold.PLP.part.hbond>
-3.0000

> <Gold.PLP.part.metal>
0.0000

> <Gold.PLP.part.buried>
-4.3385

> <Gold.PLP.part.nonpolar>
-29.5955

> <Gold.PLP.part.repulsive>
0.2033

> <Gold.PLP.ligand.clash>
0.0000

> <Gold.PLP.ligand.torsion>
0.4950

> <Gold.PLP.Chemscore.Hbond>
2.0000

> <Gold.PLP.Chemscore.CHOScore>
0.0000

> <Gold.PLP.Chemscore.Metal>
0.0000

> <Gold.Chemscore.Hbonds>
donor molecule, donor type, donor heavy atom, donor atom, acceptor molecule, acceptor atom, score
      P1  H  7989  7998       L1    14  1.00
      P1  H  7997  8010       L1    16  1.00

> <Gold.PLP.Chemscore.Internal.Correction>
0.0047

> <Gold.Rescore>
     Score         DG    S(hbond)    S(metal)    S(lipo)     H(rot)  DE(clash)    DE(int)     intcor
     19.48     -19.97       1.94        0.00     101.33       1.50       0.09       0.41       ----

> <Gold.Chemscore.Fitness>
19.4804

> <Gold.Chemscore.DG>
-19.9742

> <Gold.Chemscore.ZeroCoef>
-5.4800

> <Gold.Chemscore.Hbond>
1.9379

> <Gold.Chemscore.Metal>
0.0000

> <Gold.Chemscore.Lipo>
101.3314

> <Gold.Chemscore.Internal_Hbond>
0.0000

> <Gold.Chemscore.DEClash>
0.0862

> <Gold.Chemscore.DEInternal>
0.4075

> <Gold.Chemscore.Rot>
1.4977

> <Gold.Chemscore.Internal.Correction>
   9.000000E+99

> <Gold.Chemscore.Hbonds>
donor molecule, donor type, donor heavy atom, donor atom, acceptor molecule, acceptor atom, score
      P1  H  7989  7998       L1    14  0.74
      P1  H  7997  8010       L1    16  1.00

> <Gold.Chemscore.Hbond.Weighted>
-6.4725

> <Gold.Chemscore.Metal.Weighted>
-0.0000

> <Gold.Chemscore.Lipo.Weighted>
-11.8558

> <Gold.Chemscore.Internal_Hbond.Weighted>
0.0000

> <Gold.Chemscore.DEClash.Weighted>
0.0862

> <Gold.Chemscore.DEInternal.Weighted>
0.4075

> <Gold.Chemscore.Rot.Weighted>
3.8341

> <Gold.Chemscore.Internal.Correction.Weighted>
   9.000000E+99

> <Gold.Protein.RotatedTorsions>
[ 6907 6896 6895 6894 ] final   76.93 input  -60.11 | X-H torsion
[ 7974 7965 7964 7962 ] final  -80.39 input  175.53 | X-H torsion
[ 8008 7997 7996 7995 ] final   74.72 input   59.86 | X-H torsion
[ 10167 10162 10161 10158 ] final   68.38 input  -65.29 | X-H torsion
[ 10718 10713 10712 10709 ] final  -95.45 input   66.30 | X-H torsion
[ 10763 10752 10751 10750 ] final  -53.43 input  -60.55 | X-H torsion
[ 11005 11000 10999 10996 ] final   83.02 input  -57.11 | X-H torsion

> <Gold.Protein.ActiveResidues>
 VAL166  LYS551  ARG553  GLY616  TRP617  ASP618  TYR619  PRO620  LYS621  CYS622 
 ASP623  PHE694  ASN695  SER759  ASP760  ASP761  ALA762  ILE779  LEU786  VAL792 
 PHE793  MET794  SER795  GLU796  ALA797  LYS798  CYS799  TRP800  GLU811  SER814 

> <Gold.Protein.RotatedAtoms>
  152.5095  134.3894  159.9378 H   0  0  0  0  0  0  0  0  0  0  0  0  # atno 6907 bound_to 6896
  151.3854  133.3800  159.2722 H   0  0  0  0  0  0  0  0  0  0  0  0  # atno 6908 bound_to 6896
  150.9473  134.8897  159.7708 H   0  0  0  0  0  0  0  0  0  0  0  0  # atno 6909 bound_to 6896
  145.5605  140.9483  143.1450 H   0  0  0  0  0  0  0  0  0  0  0  0  # atno 7974 bound_to 7965
  155.8024  140.3476  155.5410 H   0  0  0  0  0  0  0  0  0  0  0  0  # atno 8008 bound_to 7997
  155.8524  140.0958  157.1686 H   0  0  0  0  0  0  0  0  0  0  0  0  # atno 8009 bound_to 7997
  154.4008  140.1374  156.3848 H   0  0  0  0  0  0  0  0  0  0  0  0  # atno 8010 bound_to 7997
  140.0793  144.5085  150.7173 H   0  0  0  0  0  0  0  0  0  0  0  0  # atno 10167 bound_to 10162
  156.0043  130.5109  150.6078 H   0  0  0  0  0  0  0  0  0  0  0  0  # atno 10718 bound_to 10713
  154.1588  135.6478  153.4981 H   0  0  0  0  0  0  0  0  0  0  0  0  # atno 10763 bound_to 10752
  153.0116  135.5355  154.6732 H   0  0  0  0  0  0  0  0  0  0  0  0  # atno 10764 bound_to 10752
  154.6040  135.2947  155.0476 H   0  0  0  0  0  0  0  0  0  0  0  0  # atno 10765 bound_to 10752
  139.9044  134.8114  156.2253 H   0  0  0  0  0  0  0  0  0  0  0  0  # atno 11005 bound_to 11000
  144.7485  139.7256  143.7282 LP  0  0  0  0  0  0  0  0  0  0  0  0  # atno 17320 bound_to 7965
  146.1854  139.5067  142.9839 LP  0  0  0  0  0  0  0  0  0  0  0  0  # atno 17321 bound_to 7965
  140.7086  143.2487  151.4651 LP  0  0  0  0  0  0  0  0  0  0  0  0  # atno 17342 bound_to 10162
  139.5789  144.1755  152.1941 LP  0  0  0  0  0  0  0  0  0  0  0  0  # atno 17343 bound_to 10162
  157.3915  131.0796  151.1389 LP  0  0  0  0  0  0  0  0  0  0  0  0  # atno 17370 bound_to 10713
  157.2079  130.6424  149.5763 LP  0  0  0  0  0  0  0  0  0  0  0  0  # atno 17371 bound_to 10713
  141.0380  133.6953  156.1546 LP  0  0  0  0  0  0  0  0  0  0  0  0  # atno 17394 bound_to 11000
  140.6998  134.4576  157.5586 LP  0  0  0  0  0  0  0  0  0  0  0  0  # atno 17395 bound_to 11000

$$$$
