AV-unprocessed.smi:837|AV-procd|sdf|3895|dock7
  -GOLD-   22720 1353D 1   1.00000     0.00000
 Structure written by MMmdl.
 49 51  0  0  0  0  0  0  0  0  1 V2000
  149.7499  141.8073  155.5709 C   0  0  0  0  0  0  0  0  0  0  0  0
  150.9080  141.7199  156.5882 C   0  0  1  0  0  0  0  0  0  0  0  0
  150.5464  142.4967  157.8730 C   0  0  0  0  0  0  0  0  0  0  0  0
  151.6981  142.4947  158.8903 C   0  0  0  0  0  0  0  0  0  0  0  0
  152.1316  141.0643  159.2395 C   0  0  0  0  0  0  0  0  0  0  0  0
  152.5115  140.2822  157.9721 C   0  0  0  0  0  0  0  0  0  0  0  0
  151.3639  140.2680  156.9336 C   0  0  1  0  0  0  0  0  0  0  0  0
  150.2619  139.4357  157.3879 N   0  0  0  0  0  0  0  0  0  0  0  0
  150.0680  138.3586  156.6160 C   0  0  0  0  0  0  0  0  0  0  0  0
  149.2092  137.4984  156.8036 O   0  0  0  0  0  0  0  0  0  0  0  0
  150.9676  138.3878  155.6159 N   0  0  0  0  0  0  0  0  0  0  0  0
  151.0955  137.3566  154.5789 C   0  0  0  0  0  0  0  0  0  0  0  0
  150.7623  135.9531  155.1017 C   0  0  0  0  0  0  0  0  0  0  0  0
  151.4271  135.4446  156.0052 O   0  0  0  0  0  0  0  0  0  0  0  0
  149.7186  135.3407  154.5239 N   0  0  0  0  0  0  0  0  0  0  0  0
  149.2512  133.9945  154.8415 C   0  0  0  0  0  0  0  0  0  0  0  0
  148.8781  133.1741  153.5895 C   0  0  0  0  0  0  0  0  0  0  0  0
  147.5166  133.5267  153.0147 C   0  0  0  0  0  0  0  0  0  0  0  0
  147.0215  132.8700  151.8688 C   0  0  0  0  0  0  0  0  0  0  0  0
  145.7602  133.2418  151.3658 C   0  0  0  0  0  0  0  0  0  0  0  0
  145.0454  134.2566  152.0325 C   0  0  0  0  0  0  0  0  0  0  0  0
  145.5079  134.8907  153.1318 N   0  0  0  0  0  0  0  0  0  0  0  0
  146.7185  134.5277  153.6077 C   0  0  0  0  0  0  0  0  0  0  0  0
  151.7684  139.4583  155.7086 C   0  0  0  0  0  0  0  0  0  0  0  0
  152.6883  139.7665  154.9504 O   0  0  0  0  0  0  0  0  0  0  0  0
  148.8470  141.3246  155.9454 H   0  0  0  0  0  0  0  0  0  0  0  0
  150.0077  141.3414  154.6197 H   0  0  0  0  0  0  0  0  0  0  0  0
  149.4991  142.8465  155.3576 H   0  0  0  0  0  0  0  0  0  0  0  0
  151.7605  142.2312  156.1373 H   0  0  0  0  0  0  0  0  0  0  0  0
  150.2900  143.5271  157.6244 H   0  0  0  0  0  0  0  0  0  0  0  0
  149.6563  142.0634  158.3309 H   0  0  0  0  0  0  0  0  0  0  0  0
  152.5472  143.0442  158.4821 H   0  0  0  0  0  0  0  0  0  0  0  0
  151.3952  143.0221  159.7952 H   0  0  0  0  0  0  0  0  0  0  0  0
  152.9780  141.0906  159.9263 H   0  0  0  0  0  0  0  0  0  0  0  0
  151.3244  140.5524  159.7647 H   0  0  0  0  0  0  0  0  0  0  0  0
  153.4000  140.7377  157.5316 H   0  0  0  0  0  0  0  0  0  0  0  0
  152.7975  139.2644  158.2431 H   0  0  0  0  0  0  0  0  0  0  0  0
  149.7175  139.6515  158.2105 H   0  0  0  0  0  0  0  0  0  0  0  0
  150.4373  137.5773  153.7372 H   0  0  0  0  0  0  0  0  0  0  0  0
  152.1095  137.3691  154.1741 H   0  0  0  0  0  0  0  0  0  0  0  0
  149.2263  135.8324  153.7922 H   0  0  0  0  0  0  0  0  0  0  0  0
  149.9972  133.4659  155.4365 H   0  0  0  0  0  0  0  0  0  0  0  0
  148.3715  134.1024  155.4764 H   0  0  0  0  0  0  0  0  0  0  0  0
  149.6349  133.3167  152.8171 H   0  0  0  0  0  0  0  0  0  0  0  0
  148.8939  132.1105  153.8299 H   0  0  0  0  0  0  0  0  0  0  0  0
  147.5998  132.1017  151.3762 H   0  0  0  0  0  0  0  0  0  0  0  0
  145.3538  132.7644  150.4867 H   0  0  0  0  0  0  0  0  0  0  0  0
  144.0762  134.5685  151.6720 H   0  0  0  0  0  0  0  0  0  0  0  0
  147.0631  135.0559  154.4846 H   0  0  0  0  0  0  0  0  0  0  0  0
  1  2  1  0  0  0  0
  1 26  1  0  0  0  0
  1 27  1  0  0  0  0
  1 28  1  0  0  0  0
  2  7  1  0  0  0  0
  2  3  1  0  0  0  0
  2 29  1  0  0  0  0
  3  4  1  0  0  0  0
  3 30  1  0  0  0  0
  3 31  1  0  0  0  0
  4  5  1  0  0  0  0
  4 32  1  0  0  0  0
  4 33  1  0  0  0  0
  5  6  1  0  0  0  0
  5 34  1  0  0  0  0
  5 35  1  0  0  0  0
  6  7  1  0  0  0  0
  6 36  1  0  0  0  0
  6 37  1  0  0  0  0
  7 24  1  0  0  0  0
  7  8  1  0  0  0  0
  8  9  1  0  0  0  0
  8 38  1  0  0  0  0
  9 10  2  0  0  0  0
  9 11  1  0  0  0  0
 11 12  1  0  0  0  0
 11 24  1  0  0  0  0
 12 13  1  0  0  0  0
 12 39  1  0  0  0  0
 12 40  1  0  0  0  0
 13 14  2  0  0  0  0
 13 15  1  0  0  0  0
 15 16  1  0  0  0  0
 15 41  1  0  0  0  0
 16 17  1  0  0  0  0
 16 42  1  0  0  0  0
 16 43  1  0  0  0  0
 17 18  1  0  0  0  0
 17 44  1  0  0  0  0
 17 45  1  0  0  0  0
 18 23  1  0  0  0  0
 18 19  2  0  0  0  0
 19 20  1  0  0  0  0
 19 46  1  0  0  0  0
 20 21  2  0  0  0  0
 20 47  1  0  0  0  0
 21 22  1  0  0  0  0
 21 48  1  0  0  0  0
 22 23  2  0  0  0  0
 23 49  1  0  0  0  0
 24 25  2  0  0  0  0
M  END
> <s_m_source_file>
AV-unprocessed.smi

> <i_m_source_file_index>
837

> <i_lp_mmshare_version>
43012

> <i_f3d_flags>
0

> <s_epik_input>
W0NIMl0xW0NIMl1bQ0gyXVtDSDJdW0NAQEhdKFtDSDNdKVtDQEBdMTJbTkhdQyg9TylOKEMyPU8pW0NIMl1DKD1PKVtOSF1bQ0gyXVtDSDJdYzNbY0hdW2NIXVtjSF1uW2NIXTM=

> <s_epik_cmdline>
J2VwaWtfcHl0aG9uJywgJy1waCcsICc3LjAnLCAnLXRuJywgJzgnLCAnLW1hJywgJzIwMCcsICctbWV0YWxfYmluZGluZycsICctaW1hZScsICc8aW5maWxlLm1hZT4nLCAnLW9tYWUnLCAnPG91dGZpbGUubWFlPic=

> <r_lp_tautomer_probability>
1

> <r_epik_Ionization_Penalty>
0.0127837

> <r_epik_Ionization_Penalty_Charging>
0

> <r_epik_Ionization_Penalty_Neutral>
0.0127837

> <r_epik_State_Penalty>
0.00987657

> <r_epik_Charging_Adjusted_Penalty>
0.00987657

> <i_epik_Tot_Q>
0

> <i_epik_Tot_abs_Q>
0

> <r_epik_Metal_State_Penalty>
0.0309865

> <b_epik_Metal_Only>
0

> <s_lp_Force_Field>
OPLS_2005

> <r_lp_Energy>
22.8196

> <b_lp_Chiralities_Consistent>
1

> <s_lp_Variant>
AV-unprocessed.smi:837-4

> <Gold.Version>
5.8.1

> <Gold.Id.Protein>
6NUR|6NUR_protein|mol2

> <Gold.PLP.Fitness>
48.6056

> <Gold.PLP.PLP>
-39.3591

> <Gold.PLP.part.hbond>
-3.9920

> <Gold.PLP.part.metal>
0.0000

> <Gold.PLP.part.buried>
-0.4910

> <Gold.PLP.part.nonpolar>
-34.4532

> <Gold.PLP.part.repulsive>
0.2105

> <Gold.PLP.ligand.clash>
0.0000

> <Gold.PLP.ligand.torsion>
0.5592

> <Gold.PLP.Chemscore.Hbond>
3.4462

> <Gold.PLP.Chemscore.CHOScore>
0.0000

> <Gold.PLP.Chemscore.Metal>
0.0000

> <Gold.Chemscore.Hbonds>
donor molecule, donor type, donor heavy atom, donor atom, acceptor molecule, acceptor atom, score
      L1  H    15    41       P1  7948  0.98
      P1  H  7989  7998       L1    25  0.47
      P1  H  7997  8010       L1    25  0.98
      P1  H 10752 10764       L1    14  1.00

> <Gold.PLP.Chemscore.Internal.Correction>
0.0264

> <Gold.Rescore>
     Score         DG    S(hbond)    S(metal)    S(lipo)     H(rot)  DE(clash)    DE(int)     intcor
     17.30     -19.80       2.47        0.00      92.55       1.86       0.61       1.89       ----

> <Gold.Chemscore.Fitness>
17.3032

> <Gold.Chemscore.DG>
-19.7970

> <Gold.Chemscore.ZeroCoef>
-5.4800

> <Gold.Chemscore.Hbond>
2.4667

> <Gold.Chemscore.Metal>
0.0000

> <Gold.Chemscore.Lipo>
92.5468

> <Gold.Chemscore.Internal_Hbond>
0.0000

> <Gold.Chemscore.DEClash>
0.6052

> <Gold.Chemscore.DEInternal>
1.8886

> <Gold.Chemscore.Rot>
1.8553

> <Gold.Chemscore.Internal.Correction>
   9.000000E+99

> <Gold.Chemscore.Hbonds>
donor molecule, donor type, donor heavy atom, donor atom, acceptor molecule, acceptor atom, score
      L1  H    15    41       P1  7948  0.68
      P1  H  7989  7998       L1    25  0.16
      P1  H  7997  8010       L1    25  0.83
      P1  H 10752 10764       L1    14  0.24

> <Gold.Chemscore.Hbond.Weighted>
-8.2387

> <Gold.Chemscore.Metal.Weighted>
-0.0000

> <Gold.Chemscore.Lipo.Weighted>
-10.8280

> <Gold.Chemscore.Internal_Hbond.Weighted>
0.0000

> <Gold.Chemscore.DEClash.Weighted>
0.6052

> <Gold.Chemscore.DEInternal.Weighted>
1.8886

> <Gold.Chemscore.Rot.Weighted>
4.7497

> <Gold.Chemscore.Internal.Correction.Weighted>
   9.000000E+99

> <Gold.Protein.RotatedTorsions>
[ 6907 6896 6895 6894 ] final   10.07 input  -60.11 | X-H torsion
[ 7974 7965 7964 7962 ] final -129.51 input  175.53 | X-H torsion
[ 8008 7997 7996 7995 ] final  104.49 input   59.86 | X-H torsion
[ 10167 10162 10161 10158 ] final   11.74 input  -65.29 | X-H torsion
[ 10718 10713 10712 10709 ] final  -78.82 input   66.30 | X-H torsion
[ 10763 10752 10751 10750 ] final  -21.78 input  -60.55 | X-H torsion
[ 11005 11000 10999 10996 ] final -155.27 input  -57.11 | X-H torsion

> <Gold.Protein.ActiveResidues>
 VAL166  LYS551  ARG553  GLY616  TRP617  ASP618  TYR619  PRO620  LYS621  CYS622 
 ASP623  PHE694  ASN695  SER759  ASP760  ASP761  ALA762  ILE779  LEU786  VAL792 
 PHE793  MET794  SER795  GLU796  ALA797  LYS798  CYS799  TRP800  GLU811  SER814 

> <Gold.Protein.RotatedAtoms>
  151.7323  135.0872  160.0301 H   0  0  0  0  0  0  0  0  0  0  0  0  # atno 6907 bound_to 6896
  152.3533  133.6202  159.5969 H   0  0  0  0  0  0  0  0  0  0  0  0  # atno 6908 bound_to 6896
  150.7554  133.9456  159.3511 H   0  0  0  0  0  0  0  0  0  0  0  0  # atno 6909 bound_to 6896
  144.9564  140.7400  143.4756 H   0  0  0  0  0  0  0  0  0  0  0  0  # atno 7974 bound_to 7965
  156.1577  140.3147  155.8753 H   0  0  0  0  0  0  0  0  0  0  0  0  # atno 8008 bound_to 7997
  155.3845  140.0490  157.3059 H   0  0  0  0  0  0  0  0  0  0  0  0  # atno 8009 bound_to 7997
  154.5117  140.2167  155.9155 H   0  0  0  0  0  0  0  0  0  0  0  0  # atno 8010 bound_to 7997
  140.6113  143.8402  150.7068 H   0  0  0  0  0  0  0  0  0  0  0  0  # atno 10167 bound_to 10162
  156.0108  130.4528  150.3555 H   0  0  0  0  0  0  0  0  0  0  0  0  # atno 10718 bound_to 10713
  153.6416  135.6985  153.5240 H   0  0  0  0  0  0  0  0  0  0  0  0  # atno 10763 bound_to 10752
  153.2778  135.4195  155.1049 H   0  0  0  0  0  0  0  0  0  0  0  0  # atno 10764 bound_to 10752
  154.8498  135.3594  154.5960 H   0  0  0  0  0  0  0  0  0  0  0  0  # atno 10765 bound_to 10752
  140.6883  134.4069  157.5221 H   0  0  0  0  0  0  0  0  0  0  0  0  # atno 11005 bound_to 11000
  145.2765  139.1934  143.4813 LP  0  0  0  0  0  0  0  0  0  0  0  0  # atno 17320 bound_to 7965
  146.3339  140.2720  142.8606 LP  0  0  0  0  0  0  0  0  0  0  0  0  # atno 17321 bound_to 7965
  140.1971  143.3989  152.1820 LP  0  0  0  0  0  0  0  0  0  0  0  0  # atno 17342 bound_to 10162
  139.5363  144.7213  151.4882 LP  0  0  0  0  0  0  0  0  0  0  0  0  # atno 17343 bound_to 10162
  157.1646  131.0353  151.2825 LP  0  0  0  0  0  0  0  0  0  0  0  0  # atno 17370 bound_to 10713
  157.4282  130.7475  149.6968 LP  0  0  0  0  0  0  0  0  0  0  0  0  # atno 17371 bound_to 10713
  139.8931  134.8739  156.2240 LP  0  0  0  0  0  0  0  0  0  0  0  0  # atno 17394 bound_to 11000
  141.0262  133.7014  156.1351 LP  0  0  0  0  0  0  0  0  0  0  0  0  # atno 17395 bound_to 11000

$$$$
