AV-unprocessed.smi:1426|AV-procd|sdf|5808|dock2
  -GOLD-   22720 5463D 1   1.00000     0.00000
 Structure written by MMmdl.
 44 46  0  0  0  0  0  0  0  0  2 V2000
  150.8087  140.7119  156.1854 O   0  0  0  0  0  0  0  0  0  0  0  0
  150.2394  141.8013  156.1205 C   0  0  0  0  0  0  0  0  0  0  0  0
  150.6669  142.9010  156.7563 N   0  0  0  0  0  0  0  0  0  0  0  0
  151.8483  142.9675  157.6101 C   0  0  0  0  0  0  0  0  0  0  0  0
  151.4995  143.4113  159.0436 C   0  0  1  0  0  0  0  0  0  0  0  0
  152.5667  143.0820  160.0664 C   0  0  0  0  0  0  0  0  0  0  0  0
  152.1939  144.0116  161.2169 C   0  0  0  0  0  0  0  0  0  0  0  0
  151.6332  145.1722  160.6098 O   0  0  0  0  0  0  0  0  0  0  0  0
  151.3654  144.9238  159.2325 C   0  0  0  0  0  0  0  0  0  0  0  0
  149.1104  142.0432  155.4335 N   0  0  0  0  0  0  0  0  0  0  0  0
  148.3485  141.1305  154.6496 C   0  0  0  0  0  0  0  0  0  0  0  0
  148.8933  139.8894  154.2297 C   0  0  0  0  0  0  0  0  0  0  0  0
  148.1111  138.9984  153.4711 C   0  0  0  0  0  0  0  0  0  0  0  0
  146.7953  139.3625  153.1388 C   0  0  0  0  0  0  0  0  0  0  0  0
  146.3125  140.5581  153.5352 N   0  3  0  0  0  0  0  0  0  0  0  0
  147.0204  141.4651  154.2543 C   0  0  0  0  0  0  0  0  0  0  0  0
  146.3851  142.6839  154.5854 N   0  0  0  0  0  0  0  0  0  0  0  0
  145.4634  142.7535  155.7132 C   0  0  0  0  0  0  0  0  0  0  0  0
  144.7247  144.0776  155.5396 C   0  0  0  0  0  0  0  0  0  0  0  0
  144.6089  144.1898  154.0226 C   0  0  0  0  0  0  0  0  0  0  0  0
  145.9037  143.5480  153.5122 C   0  0  0  0  0  0  0  0  0  0  0  0
  150.1370  143.7536  156.6488 H   0  0  0  0  0  0  0  0  0  0  0  0
  152.3520  141.9995  157.6263 H   0  0  0  0  0  0  0  0  0  0  0  0
  152.5499  143.6704  157.1602 H   0  0  0  0  0  0  0  0  0  0  0  0
  150.5686  142.9359  159.3582 H   0  0  0  0  0  0  0  0  0  0  0  0
  152.5741  142.0307  160.3559 H   0  0  0  0  0  0  0  0  0  0  0  0
  153.5560  143.3388  159.6845 H   0  0  0  0  0  0  0  0  0  0  0  0
  151.4338  143.5491  161.8477 H   0  0  0  0  0  0  0  0  0  0  0  0
  153.0489  144.2620  161.8451 H   0  0  0  0  0  0  0  0  0  0  0  0
  152.1099  145.4557  158.6386 H   0  0  0  0  0  0  0  0  0  0  0  0
  150.3800  145.2933  158.9470 H   0  0  0  0  0  0  0  0  0  0  0  0
  148.7007  142.9569  155.5610 H   0  0  0  0  0  0  0  0  0  0  0  0
  149.9066  139.6077  154.4734 H   0  0  0  0  0  0  0  0  0  0  0  0
  148.5159  138.0496  153.1505 H   0  0  0  0  0  0  0  0  0  0  0  0
  146.1214  138.7434  152.5644 H   0  0  0  0  0  0  0  0  0  0  0  0
  144.7496  141.9295  155.6752 H   0  0  0  0  0  0  0  0  0  0  0  0
  145.9935  142.7074  156.6651 H   0  0  0  0  0  0  0  0  0  0  0  0
  143.7592  144.0962  156.0459 H   0  0  0  0  0  0  0  0  0  0  0  0
  145.3300  144.8978  155.9287 H   0  0  0  0  0  0  0  0  0  0  0  0
  143.7511  143.6102  153.6785 H   0  0  0  0  0  0  0  0  0  0  0  0
  144.4799  145.2167  153.6788 H   0  0  0  0  0  0  0  0  0  0  0  0
  146.6506  144.3192  153.3218 H   0  0  0  0  0  0  0  0  0  0  0  0
  145.7350  142.9990  152.5848 H   0  0  0  0  0  0  0  0  0  0  0  0
  145.3573  140.7974  153.2694 H   0  0  0  0  0  0  0  0  0  0  0  0
  1  2  2  0  0  0  0
  2  3  1  0  0  0  0
  2 10  1  0  0  0  0
  3  4  1  0  0  0  0
  3 22  1  0  0  0  0
  4  5  1  0  0  0  0
  4 23  1  0  0  0  0
  4 24  1  0  0  0  0
  5  9  1  0  0  0  0
  5  6  1  0  0  0  0
  5 25  1  0  0  0  0
  6  7  1  0  0  0  0
  6 26  1  0  0  0  0
  6 27  1  0  0  0  0
  7  8  1  0  0  0  0
  7 28  1  0  0  0  0
  7 29  1  0  0  0  0
  8  9  1  0  0  0  0
  9 30  1  0  0  0  0
  9 31  1  0  0  0  0
 10 11  1  0  0  0  0
 10 32  1  0  0  0  0
 11 16  1  0  0  0  0
 11 12  2  0  0  0  0
 12 13  1  0  0  0  0
 12 33  1  0  0  0  0
 13 14  2  0  0  0  0
 13 34  1  0  0  0  0
 14 15  1  0  0  0  0
 14 35  1  0  0  0  0
 15 16  2  0  0  0  0
 15 44  1  0  0  0  0
 16 17  1  0  0  0  0
 17 21  1  0  0  0  0
 17 18  1  0  0  0  0
 18 19  1  0  0  0  0
 18 36  1  0  0  0  0
 18 37  1  0  0  0  0
 19 20  1  0  0  0  0
 19 38  1  0  0  0  0
 19 39  1  0  0  0  0
 20 21  1  0  0  0  0
 20 40  1  0  0  0  0
 20 41  1  0  0  0  0
 21 42  1  0  0  0  0
 21 43  1  0  0  0  0
M  CHG  1  15   1
M  END
> <s_m_source_file>
AV-unprocessed.smi

> <i_m_source_file_index>
1426

> <i_lp_mmshare_version>
43012

> <i_f3d_flags>
0

> <s_epik_input>
W0NIMl0xT1tDSDJdW0NIMl1bQ0BIXTFbQ0gyXVtOSF1DKD1PKVtOSF1jMltjSF1bY0hdW2NIXW5jMk4zW0NIMl1bQ0gyXVtDSDJdW0NIMl0z

> <s_epik_cmdline>
J2VwaWtfcHl0aG9uJywgJy1waCcsICc3LjAnLCAnLXRuJywgJzgnLCAnLW1hJywgJzIwMCcsICctbWV0YWxfYmluZGluZycsICctaW1hZScsICc8aW5maWxlLm1hZT4nLCAnLW9tYWUnLCAnPG91dGZpbGUubWFlPic=

> <r_lp_tautomer_probability>
0.999994

> <r_epik_Ionization_Penalty>
1.10677

> <r_epik_Ionization_Penalty_Charging>
1.10675

> <r_epik_Ionization_Penalty_Neutral>
2.02663e-05

> <r_epik_State_Penalty>
1.16438

> <r_epik_Charging_Adjusted_Penalty>
2.27113

> <i_epik_Tot_Q>
1

> <i_epik_Tot_abs_Q>
1

> <r_epik_Metal_State_Penalty>
1.25078

> <b_epik_Metal_Only>
0

> <s_lp_Force_Field>
OPLS_2005

> <r_lp_Energy>
54.362

> <b_lp_Chiralities_Consistent>
1

> <s_lp_Variant>
AV-unprocessed.smi:1426-4

> <Gold.Version>
5.8.1

> <Gold.Id.Protein>
6NUR|6NUR_protein|mol2

> <Gold.PLP.Fitness>
53.2701

> <Gold.PLP.PLP>
-42.0063

> <Gold.PLP.part.hbond>
-3.0000

> <Gold.PLP.part.metal>
0.0000

> <Gold.PLP.part.buried>
-5.6702

> <Gold.PLP.part.nonpolar>
-34.3290

> <Gold.PLP.part.repulsive>
0.6340

> <Gold.PLP.ligand.clash>
0.0000

> <Gold.PLP.ligand.torsion>
0.5538

> <Gold.PLP.Chemscore.Hbond>
3.9920

> <Gold.PLP.Chemscore.CHOScore>
0.0000

> <Gold.PLP.Chemscore.Metal>
0.0000

> <Gold.Chemscore.Hbonds>
donor molecule, donor type, donor heavy atom, donor atom, acceptor molecule, acceptor atom, score
      L1  H     3    22       P1  8028  0.98
      L1  H    10    32       P1  8028  1.00
      L1  H    15    44       P1 10175  2.00

> <Gold.PLP.Chemscore.Internal.Correction>
0.3953

> <Gold.Rescore>
     Score         DG    S(hbond)    S(metal)    S(lipo)     H(rot)  DE(clash)    DE(int)     intcor
     21.31     -23.86       2.89        0.00     105.40       1.40       0.91       1.63       ----

> <Gold.Chemscore.Fitness>
21.3121

> <Gold.Chemscore.DG>
-23.8576

> <Gold.Chemscore.ZeroCoef>
-5.4800

> <Gold.Chemscore.Hbond>
2.8851

> <Gold.Chemscore.Metal>
0.0000

> <Gold.Chemscore.Lipo>
105.3954

> <Gold.Chemscore.Internal_Hbond>
0.0000

> <Gold.Chemscore.DEClash>
0.9128

> <Gold.Chemscore.DEInternal>
1.6327

> <Gold.Chemscore.Rot>
1.4023

> <Gold.Chemscore.Internal.Correction>
   9.000000E+99

> <Gold.Chemscore.Hbonds>
donor molecule, donor type, donor heavy atom, donor atom, acceptor molecule, acceptor atom, score
      L1  H     3    22       P1  8028  0.93
      L1  H    10    32       P1  8028  0.95
      L1  H    15    44       P1 10175  0.73

> <Gold.Chemscore.Hbond.Weighted>
-9.6361

> <Gold.Chemscore.Metal.Weighted>
-0.0000

> <Gold.Chemscore.Lipo.Weighted>
-12.3313

> <Gold.Chemscore.Internal_Hbond.Weighted>
0.0000

> <Gold.Chemscore.DEClash.Weighted>
0.9128

> <Gold.Chemscore.DEInternal.Weighted>
1.6327

> <Gold.Chemscore.Rot.Weighted>
3.5898

> <Gold.Chemscore.Internal.Correction.Weighted>
   9.000000E+99

> <Gold.Protein.RotatedTorsions>
[ 6907 6896 6895 6894 ] final   20.59 input  -60.11 | X-H torsion
[ 7974 7965 7964 7962 ] final   84.74 input  175.53 | X-H torsion
[ 8008 7997 7996 7995 ] final   85.10 input   59.86 | X-H torsion
[ 10167 10162 10161 10158 ] final -129.72 input  -65.29 | X-H torsion
[ 10718 10713 10712 10709 ] final   -9.66 input   66.30 | X-H torsion
[ 10763 10752 10751 10750 ] final -151.46 input  -60.55 | X-H torsion
[ 11005 11000 10999 10996 ] final   97.12 input  -57.11 | X-H torsion

> <Gold.Protein.ActiveResidues>
 VAL166  LYS551  ARG553  GLY616  TRP617  ASP618  TYR619  PRO620  LYS621  CYS622 
 ASP623  PHE694  ASN695  SER759  ASP760  ASP761  ALA762  ILE779  LEU786  VAL792 
 PHE793  MET794  SER795  GLU796  ALA797  LYS798  CYS799  TRP800  GLU811  SER814 

> <Gold.Protein.RotatedAtoms>
  151.8987  135.0387  160.0504 H   0  0  0  0  0  0  0  0  0  0  0  0  # atno 6907 bound_to 6896
  152.2376  133.5104  159.5260 H   0  0  0  0  0  0  0  0  0  0  0  0  # atno 6908 bound_to 6896
  150.7044  134.1049  159.4021 H   0  0  0  0  0  0  0  0  0  0  0  0  # atno 6909 bound_to 6896
  145.5948  139.2343  143.2279 H   0  0  0  0  0  0  0  0  0  0  0  0  # atno 7974 bound_to 7965
  155.9456  140.3405  155.6364 H   0  0  0  0  0  0  0  0  0  0  0  0  # atno 8008 bound_to 7997
  155.6984  140.0757  157.2438 H   0  0  0  0  0  0  0  0  0  0  0  0  # atno 8009 bound_to 7997
  154.4111  140.1644  156.2151 H   0  0  0  0  0  0  0  0  0  0  0  0  # atno 8010 bound_to 7997
  139.9368  143.6209  152.2515 H   0  0  0  0  0  0  0  0  0  0  0  0  # atno 10167 bound_to 10162
  156.6848  130.5047  149.5961 H   0  0  0  0  0  0  0  0  0  0  0  0  # atno 10718 bound_to 10713
  154.8056  135.3259  154.7439 H   0  0  0  0  0  0  0  0  0  0  0  0  # atno 10763 bound_to 10752
  153.8098  135.6896  153.4847 H   0  0  0  0  0  0  0  0  0  0  0  0  # atno 10764 bound_to 10752
  153.1799  135.4590  154.9959 H   0  0  0  0  0  0  0  0  0  0  0  0  # atno 10765 bound_to 10752
  139.8777  134.8985  156.4260 H   0  0  0  0  0  0  0  0  0  0  0  0  # atno 11005 bound_to 11000
  146.1620  140.6773  142.9273 LP  0  0  0  0  0  0  0  0  0  0  0  0  # atno 17320 bound_to 7965
  144.7335  140.4742  143.6920 LP  0  0  0  0  0  0  0  0  0  0  0  0  # atno 17321 bound_to 7965
  139.6737  144.7659  151.1736 LP  0  0  0  0  0  0  0  0  0  0  0  0  # atno 17342 bound_to 10162
  140.7622  143.5827  150.8878 LP  0  0  0  0  0  0  0  0  0  0  0  0  # atno 17343 bound_to 10162
  156.1841  130.6518  151.0986 LP  0  0  0  0  0  0  0  0  0  0  0  0  # atno 17370 bound_to 10713
  157.7030  131.0768  150.6757 LP  0  0  0  0  0  0  0  0  0  0  0  0  # atno 17371 bound_to 10713
  140.9100  133.7718  155.9780 LP  0  0  0  0  0  0  0  0  0  0  0  0  # atno 17394 bound_to 11000
  140.8557  134.2901  157.5256 LP  0  0  0  0  0  0  0  0  0  0  0  0  # atno 17395 bound_to 11000

$$$$
