AV-unprocessed.smi:21|AV-procd|sdf|147|dock5
  -GOLD-   2262015363D 1   1.00000     0.00000
 Structure written by MMmdl.
 62 65  0  0  0  0  0  0  0  0  2 V2000
  150.1432  144.8915  160.2030 C   0  0  0  0  0  0  0  0  0  0  0  0
  150.9813  143.7811  160.4801 O   0  0  0  0  0  0  0  0  0  0  0  0
  152.0451  143.6262  159.5509 C   0  0  1  0  0  0  0  0  0  0  0  0
  152.6128  142.2228  159.7103 C   0  0  0  0  0  0  0  0  0  0  0  0
  151.7464  141.3558  158.7915 C   0  0  2  0  0  0  0  0  0  0  0  0
  152.4229  140.0384  158.3419 C   0  0  0  0  0  0  0  0  0  0  0  0
  151.9321  138.8580  159.0559 N   0  0  0  0  0  0  0  0  0  0  0  0
  152.8821  138.0773  159.8375 C   0  0  0  0  0  0  0  0  0  0  0  0
  150.8456  138.2330  158.5346 C   0  0  0  0  0  0  0  0  0  0  0  0
  150.6360  138.3472  157.1974 N   0  0  0  0  0  0  0  0  0  0  0  0
  149.6289  137.6942  156.6118 C   0  0  0  0  0  0  0  0  0  0  0  0
  148.7430  136.8636  157.1625 N   0  0  0  0  0  0  0  0  0  0  0  0
  148.9487  136.7402  158.5044 C   0  0  0  0  0  0  0  0  0  0  0  0
  149.9495  137.4025  159.2711 C   0  0  0  0  0  0  0  0  0  0  0  0
  149.8432  137.0216  160.6047 N   0  0  0  0  0  0  0  0  0  0  0  0
  148.8519  136.1739  160.6221 C   0  0  0  0  0  0  0  0  0  0  0  0
  148.2868  135.9138  159.3950 N   0  0  0  0  0  0  0  0  0  0  0  0
  147.2158  134.9753  159.1145 C   0  0  0  0  0  0  0  0  0  0  0  0
  145.8956  135.2613  159.8816 C   0  0  2  0  0  0  0  0  0  0  0  0
  145.3837  136.6708  159.5047 C   0  0  0  0  0  0  0  0  0  0  0  0
  146.3143  137.6758  159.8541 O   0  0  0  0  0  0  0  0  0  0  0  0
  145.9730  135.0437  161.4238 C   0  0  1  0  0  0  0  0  0  0  0  0
  144.6277  134.8403  162.1042 C   0  0  0  0  0  0  0  0  0  0  0  0
  145.0258  134.2111  163.4317 C   0  0  0  0  0  0  0  0  0  0  0  0
  146.0968  133.3411  163.1017 O   0  0  0  0  0  0  0  0  0  0  0  0
  146.7089  133.7753  161.8909 C   0  0  0  0  0  0  0  0  0  0  0  0
  151.4478  142.2387  157.6416 N   0  3  1  0  0  0  0  0  0  0  0  0
  150.1956  141.9106  156.9256 C   0  0  0  0  0  0  0  0  0  0  0  0
  151.5150  143.6454  158.1078 C   0  0  0  0  0  0  0  0  0  0  0  0
  152.8211  144.3744  159.7225 H   0  0  0  0  0  0  0  0  0  0  0  0
  150.8088  141.1403  159.3072 H   0  0  0  0  0  0  0  0  0  0  0  0
  149.3416  144.9356  160.9400 H   0  0  0  0  0  0  0  0  0  0  0  0
  149.6877  144.8171  159.2151 H   0  0  0  0  0  0  0  0  0  0  0  0
  150.7006  145.8274  160.2606 H   0  0  0  0  0  0  0  0  0  0  0  0
  153.6494  142.2106  159.3709 H   0  0  0  0  0  0  0  0  0  0  0  0
  152.5976  141.8912  160.7473 H   0  0  0  0  0  0  0  0  0  0  0  0
  152.2304  139.8740  157.2818 H   0  0  0  0  0  0  0  0  0  0  0  0
  153.5067  140.1226  158.4287 H   0  0  0  0  0  0  0  0  0  0  0  0
  152.3664  137.3690  160.4869 H   0  0  0  0  0  0  0  0  0  0  0  0
  153.4781  138.7339  160.4714 H   0  0  0  0  0  0  0  0  0  0  0  0
  153.5629  137.5256  159.1893 H   0  0  0  0  0  0  0  0  0  0  0  0
  149.5296  137.8449  155.5468 H   0  0  0  0  0  0  0  0  0  0  0  0
  148.5294  135.6851  161.5301 H   0  0  0  0  0  0  0  0  0  0  0  0
  147.0330  134.9766  158.0392 H   0  0  0  0  0  0  0  0  0  0  0  0
  147.5836  133.9788  159.3620 H   0  0  0  0  0  0  0  0  0  0  0  0
  145.1436  134.5689  159.5015 H   0  0  0  0  0  0  0  0  0  0  0  0
  145.1925  136.7313  158.4328 H   0  0  0  0  0  0  0  0  0  0  0  0
  144.4335  136.8875  159.9922 H   0  0  0  0  0  0  0  0  0  0  0  0
  146.7767  137.9420  159.0743 H   0  0  0  0  0  0  0  0  0  0  0  0
  146.4523  135.9093  161.8840 H   0  0  0  0  0  0  0  0  0  0  0  0
  144.0682  135.7668  162.2374 H   0  0  0  0  0  0  0  0  0  0  0  0
  144.0105  134.1447  161.5336 H   0  0  0  0  0  0  0  0  0  0  0  0
  145.3868  134.9731  164.1238 H   0  0  0  0  0  0  0  0  0  0  0  0
  144.2055  133.6749  163.9091 H   0  0  0  0  0  0  0  0  0  0  0  0
  146.6117  132.9691  161.1636 H   0  0  0  0  0  0  0  0  0  0  0  0
  147.7696  133.9553  162.0599 H   0  0  0  0  0  0  0  0  0  0  0  0
  149.3293  142.0153  157.5801 H   0  0  0  0  0  0  0  0  0  0  0  0
  150.2181  140.8882  156.5487 H   0  0  0  0  0  0  0  0  0  0  0  0
  150.0618  142.5765  156.0725 H   0  0  0  0  0  0  0  0  0  0  0  0
  150.5473  144.1447  158.0426 H   0  0  0  0  0  0  0  0  0  0  0  0
  152.2005  144.1860  157.4550 H   0  0  0  0  0  0  0  0  0  0  0  0
  152.2104  142.1238  156.9892 H   0  0  0  0  0  0  0  0  0  0  0  0
  1  2  1  0  0  0  0
  1 32  1  0  0  0  0
  1 33  1  0  0  0  0
  1 34  1  0  0  0  0
  2  3  1  0  0  0  0
  3 30  1  0  0  0  0
  3 29  1  0  0  0  0
  3  4  1  0  0  0  0
  4  5  1  0  0  0  0
  4 35  1  0  0  0  0
  4 36  1  0  0  0  0
  5 31  1  0  0  0  0
  5  6  1  0  0  0  0
  5 27  1  0  0  0  0
  6  7  1  0  0  0  0
  6 37  1  0  0  0  0
  6 38  1  0  0  0  0
  7  8  1  0  0  0  0
  7  9  1  0  0  0  0
  8 39  1  0  0  0  0
  8 40  1  0  0  0  0
  8 41  1  0  0  0  0
  9 14  1  0  0  0  0
  9 10  2  0  0  0  0
 10 11  1  0  0  0  0
 11 12  2  0  0  0  0
 11 42  1  0  0  0  0
 12 13  1  0  0  0  0
 13 17  1  0  0  0  0
 13 14  2  0  0  0  0
 14 15  1  0  0  0  0
 15 16  2  0  0  0  0
 16 17  1  0  0  0  0
 16 43  1  0  0  0  0
 17 18  1  0  0  0  0
 18 19  1  0  0  0  0
 18 44  1  0  0  0  0
 18 45  1  0  0  0  0
 19 20  1  0  0  0  0
 19 22  1  0  0  0  0
 19 46  1  0  0  0  0
 20 21  1  0  0  0  0
 20 47  1  0  0  0  0
 20 48  1  0  0  0  0
 21 49  1  0  0  0  0
 22 26  1  0  0  0  0
 22 23  1  0  0  0  0
 22 50  1  0  0  0  0
 23 24  1  0  0  0  0
 23 51  1  0  0  0  0
 23 52  1  0  0  0  0
 24 25  1  0  0  0  0
 24 53  1  0  0  0  0
 24 54  1  0  0  0  0
 25 26  1  0  0  0  0
 26 55  1  0  0  0  0
 26 56  1  0  0  0  0
 27 28  1  0  0  0  0
 27 29  1  0  0  0  0
 27 62  1  0  0  0  0
 28 57  1  0  0  0  0
 28 58  1  0  0  0  0
 28 59  1  0  0  0  0
 29 60  1  0  0  0  0
 29 61  1  0  0  0  0
M  CHG  1  27   1
M  END
> <s_m_source_file>
AV-unprocessed.smi

> <i_m_source_file_index>
21

> <i_lp_mmshare_version>
43012

> <i_f3d_flags>
0

> <s_epik_input>
W0NIM11PW0NASF0xW0NIMl1bQ0BIXShOKFtDSDNdKVtDSDJdMSlbQ0gyXU4oW0NIM10pYyhuW2NIXW4yKWMoYzIzKW5bY0hdbjNbQ0gyXVtDQEhdKFtDSDJdW09IXSlbQ0BASF00W0NIMl1bQ0gyXU9bQ0gyXTQ=

> <s_epik_cmdline>
J2VwaWtfcHl0aG9uJywgJy1waCcsICc3LjAnLCAnLXRuJywgJzgnLCAnLW1hJywgJzIwMCcsICctbWV0YWxfYmluZGluZycsICctaW1hZScsICc8aW5maWxlLm1hZT4nLCAnLW9tYWUnLCAnPG91dGZpbGUubWFlPic=

> <r_lp_tautomer_probability>
1

> <r_epik_Ionization_Penalty>
0.0157465

> <r_epik_Ionization_Penalty_Charging>
0.015354

> <r_epik_Ionization_Penalty_Neutral>
0.000392529

> <r_epik_State_Penalty>
0.0120612

> <r_epik_Charging_Adjusted_Penalty>
0.0274152

> <i_epik_Tot_Q>
1

> <i_epik_Tot_abs_Q>
1

> <r_epik_Metal_State_Penalty>
0.0121253

> <b_epik_Metal_Only>
0

> <s_lp_Force_Field>
OPLS_2005

> <r_lp_Energy>
57.9391

> <b_lp_Chiralities_Consistent>
1

> <s_lp_Variant>
AV-unprocessed.smi:21-27

> <Gold.Version>
5.8.1

> <Gold.Id.Protein>
6NUR|6NUR_protein|mol2

> <Gold.PLP.Fitness>
41.0956

> <Gold.PLP.PLP>
-40.1916

> <Gold.PLP.part.hbond>
-2.7008

> <Gold.PLP.part.metal>
0.0000

> <Gold.PLP.part.buried>
-5.8348

> <Gold.PLP.part.nonpolar>
-31.9210

> <Gold.PLP.part.repulsive>
0.2078

> <Gold.PLP.ligand.clash>
0.0000

> <Gold.PLP.ligand.torsion>
1.7513

> <Gold.PLP.Chemscore.Hbond>
1.1664

> <Gold.PLP.Chemscore.CHOScore>
0.0000

> <Gold.PLP.Chemscore.Metal>
0.0000

> <Gold.Chemscore.Hbonds>
donor molecule, donor type, donor heavy atom, donor atom, acceptor molecule, acceptor atom, score
      P1  H  6931  6943       L1    15  0.35
      P1  H  6934  6947       L1    21  0.60

> <Gold.PLP.Chemscore.Internal.Correction>
0.9074

> <Gold.Rescore>
     Score         DG    S(hbond)    S(metal)    S(lipo)     H(rot)  DE(clash)    DE(int)     intcor
      7.81     -11.04       0.50        0.00     100.54       3.08       0.13       3.10       ----

> <Gold.Chemscore.Fitness>
7.8085

> <Gold.Chemscore.DG>
-11.0397

> <Gold.Chemscore.ZeroCoef>
-5.4800

> <Gold.Chemscore.Hbond>
0.5002

> <Gold.Chemscore.Metal>
0.0000

> <Gold.Chemscore.Lipo>
100.5394

> <Gold.Chemscore.Internal_Hbond>
0.0000

> <Gold.Chemscore.DEClash>
0.1346

> <Gold.Chemscore.DEInternal>
3.0966

> <Gold.Chemscore.Rot>
3.0758

> <Gold.Chemscore.Internal.Correction>
   9.000000E+99

> <Gold.Chemscore.Hbonds>
donor molecule, donor type, donor heavy atom, donor atom, acceptor molecule, acceptor atom, score
      P1  H  6931  6943       L1    15  0.06
      P1  H  6934  6947       L1    21  0.04

> <Gold.Chemscore.Hbond.Weighted>
-1.6707

> <Gold.Chemscore.Metal.Weighted>
-0.0000

> <Gold.Chemscore.Lipo.Weighted>
-11.7631

> <Gold.Chemscore.Internal_Hbond.Weighted>
0.0000

> <Gold.Chemscore.DEClash.Weighted>
0.1346

> <Gold.Chemscore.DEInternal.Weighted>
3.0966

> <Gold.Chemscore.Rot.Weighted>
7.8741

> <Gold.Chemscore.Internal.Correction.Weighted>
   9.000000E+99

> <Gold.Protein.RotatedTorsions>
[ 6907 6896 6895 6894 ] final  -17.93 input  -60.11 | X-H torsion
[ 7974 7965 7964 7962 ] final -166.23 input  175.53 | X-H torsion
[ 8008 7997 7996 7995 ] final   73.16 input   59.86 | X-H torsion
[ 10167 10162 10161 10158 ] final -125.91 input  -65.29 | X-H torsion
[ 10718 10713 10712 10709 ] final  -22.54 input   66.30 | X-H torsion
[ 10763 10752 10751 10750 ] final  121.35 input  -60.55 | X-H torsion
[ 11005 11000 10999 10996 ] final   26.00 input  -57.11 | X-H torsion

> <Gold.Protein.ActiveResidues>
 VAL166  LYS551  ARG553  GLY616  TRP617  ASP618  TYR619  PRO620  LYS621  CYS622 
 ASP623  PHE694  ASN695  SER759  ASP760  ASP761  ALA762  ILE779  LEU786  VAL792 
 PHE793  MET794  SER795  GLU796  ALA797  LYS798  CYS799  TRP800  GLU811  SER814 

> <Gold.Protein.RotatedAtoms>
  151.2859  135.0727  159.9186 H   0  0  0  0  0  0  0  0  0  0  0  0  # atno 6907 bound_to 6896
  152.5325  133.9982  159.7893 H   0  0  0  0  0  0  0  0  0  0  0  0  # atno 6908 bound_to 6896
  151.0244  133.5796  159.2698 H   0  0  0  0  0  0  0  0  0  0  0  0  # atno 6909 bound_to 6896
  144.7250  140.2697  143.6252 H   0  0  0  0  0  0  0  0  0  0  0  0  # atno 7974 bound_to 7965
  155.7795  140.3482  155.5290 H   0  0  0  0  0  0  0  0  0  0  0  0  # atno 8008 bound_to 7997
  155.8743  140.0991  157.1550 H   0  0  0  0  0  0  0  0  0  0  0  0  # atno 8009 bound_to 7997
  154.4020  140.1334  156.4104 H   0  0  0  0  0  0  0  0  0  0  0  0  # atno 8010 bound_to 7997
  139.9770  143.5783  152.2392 H   0  0  0  0  0  0  0  0  0  0  0  0  # atno 10167 bound_to 10162
  156.5032  130.4593  149.6689 H   0  0  0  0  0  0  0  0  0  0  0  0  # atno 10718 bound_to 10713
  153.6127  135.3427  155.2984 H   0  0  0  0  0  0  0  0  0  0  0  0  # atno 10763 bound_to 10752
  154.8615  135.4254  154.2292 H   0  0  0  0  0  0  0  0  0  0  0  0  # atno 10764 bound_to 10752
  153.3147  135.7034  153.7156 H   0  0  0  0  0  0  0  0  0  0  0  0  # atno 10765 bound_to 10752
  140.3417  134.2325  155.7689 H   0  0  0  0  0  0  0  0  0  0  0  0  # atno 11005 bound_to 11000
  145.8055  139.1981  143.2023 LP  0  0  0  0  0  0  0  0  0  0  0  0  # atno 17320 bound_to 7965
  146.0640  140.7940  142.9720 LP  0  0  0  0  0  0  0  0  0  0  0  0  # atno 17321 bound_to 7965
  139.6438  144.7656  151.2285 LP  0  0  0  0  0  0  0  0  0  0  0  0  # atno 17342 bound_to 10162
  140.7502  143.6273  150.8456 LP  0  0  0  0  0  0  0  0  0  0  0  0  # atno 17343 bound_to 10162
  156.3313  130.7333  151.2262 LP  0  0  0  0  0  0  0  0  0  0  0  0  # atno 17370 bound_to 10713
  157.7460  131.0429  150.4718 LP  0  0  0  0  0  0  0  0  0  0  0  0  # atno 17371 bound_to 10713
  141.2036  133.7906  157.0328 LP  0  0  0  0  0  0  0  0  0  0  0  0  # atno 17394 bound_to 11000
  140.0775  134.9667  157.1570 LP  0  0  0  0  0  0  0  0  0  0  0  0  # atno 17395 bound_to 11000

$$$$
