AV-unprocessed.smi:2842|AV-procd|sdf|10936|dock4
  -GOLD-   2272015383D 1   1.00000     0.00000
 Structure written by MMmdl.
 35 37  0  0  0  0  0  0  0  0  1 V2000
  151.9282  136.7634  155.6914 O   0  0  0  0  0  0  0  0  0  0  0  0
  151.0719  137.0211  154.8441 C   0  0  0  0  0  0  0  0  0  0  0  0
  151.0128  138.4089  154.1876 C   0  0  0  0  0  0  0  0  0  0  0  0
  151.0196  139.5153  155.1625 N   0  0  0  0  0  0  0  0  0  0  0  0
  149.8926  140.3609  155.1690 C   0  0  0  0  0  0  0  0  0  0  0  0
  149.7961  141.3622  155.9846 N   0  0  0  0  0  0  0  0  0  0  0  0
  150.8334  141.6283  156.8860 C   0  0  0  0  0  0  0  0  0  0  0  0
  150.6859  142.8346  157.8030 C   0  0  0  0  0  0  0  0  0  0  0  0
  151.6254  144.0221  157.5318 C   0  0  0  0  0  0  0  0  0  0  0  0
  151.7387  144.1931  159.0507 C   0  0  0  0  0  0  0  0  0  0  0  0
  151.3630  142.7124  159.1775 C   0  0  0  0  0  0  0  0  0  0  0  0
  151.9403  140.8489  156.9119 C   0  0  0  0  0  0  0  0  0  0  0  0
  152.0737  139.7055  156.0098 C   0  0  0  0  0  0  0  0  0  0  0  0
  153.0611  138.9699  156.0126 O   0  0  0  0  0  0  0  0  0  0  0  0
  150.1596  136.1335  154.4230 N   0  0  0  0  0  0  0  0  0  0  0  0
  150.0262  134.7936  154.8960 C   0  0  0  0  0  0  0  0  0  0  0  0
  149.0879  133.8723  154.1470 C   0  0  0  0  0  0  0  0  0  0  0  0
  148.6985  134.3940  155.5026 C   0  0  0  0  0  0  0  0  0  0  0  0
  151.8455  138.4852  153.4859 H   0  0  0  0  0  0  0  0  0  0  0  0
  150.1162  138.4778  153.5682 H   0  0  0  0  0  0  0  0  0  0  0  0
  149.1165  140.1156  154.4421 H   0  0  0  0  0  0  0  0  0  0  0  0
  149.6450  143.1513  157.8902 H   0  0  0  0  0  0  0  0  0  0  0  0
  152.5757  143.7362  157.0769 H   0  0  0  0  0  0  0  0  0  0  0  0
  151.1632  144.8606  157.0103 H   0  0  0  0  0  0  0  0  0  0  0  0
  152.7367  144.4456  159.4099 H   0  0  0  0  0  0  0  0  0  0  0  0
  150.9782  144.8598  159.4606 H   0  0  0  0  0  0  0  0  0  0  0  0
  150.6878  142.4800  160.0014 H   0  0  0  0  0  0  0  0  0  0  0  0
  152.2372  142.0583  159.1739 H   0  0  0  0  0  0  0  0  0  0  0  0
  152.7398  141.0670  157.6049 H   0  0  0  0  0  0  0  0  0  0  0  0
  149.5007  136.4333  153.7190 H   0  0  0  0  0  0  0  0  0  0  0  0
  150.9087  134.3260  155.3305 H   0  0  0  0  0  0  0  0  0  0  0  0
  148.5603  134.2737  153.2839 H   0  0  0  0  0  0  0  0  0  0  0  0
  149.3678  132.8233  154.0742 H   0  0  0  0  0  0  0  0  0  0  0  0
  148.7196  133.6947  156.3361 H   0  0  0  0  0  0  0  0  0  0  0  0
  147.9113  135.1446  155.5450 H   0  0  0  0  0  0  0  0  0  0  0  0
  1  2  2  0  0  0  0
  2  3  1  0  0  0  0
  2 15  1  0  0  0  0
  3  4  1  0  0  0  0
  3 19  1  0  0  0  0
  3 20  1  0  0  0  0
  4 13  1  0  0  0  0
  4  5  1  0  0  0  0
  5  6  2  0  0  0  0
  5 21  1  0  0  0  0
  6  7  1  0  0  0  0
  7  8  1  0  0  0  0
  7 12  2  0  0  0  0
  8 11  1  0  0  0  0
  8  9  1  0  0  0  0
  8 22  1  0  0  0  0
  9 10  1  0  0  0  0
  9 23  1  0  0  0  0
  9 24  1  0  0  0  0
 10 11  1  0  0  0  0
 10 25  1  0  0  0  0
 10 26  1  0  0  0  0
 11 27  1  0  0  0  0
 11 28  1  0  0  0  0
 12 13  1  0  0  0  0
 12 29  1  0  0  0  0
 13 14  2  0  0  0  0
 15 16  1  0  0  0  0
 15 30  1  0  0  0  0
 16 18  1  0  0  0  0
 16 17  1  0  0  0  0
 16 31  1  0  0  0  0
 17 18  1  0  0  0  0
 17 32  1  0  0  0  0
 17 33  1  0  0  0  0
 18 34  1  0  0  0  0
 18 35  1  0  0  0  0
M  END
> <s_m_source_file>
AV-unprocessed.smi

> <i_m_source_file_index>
2842

> <i_lp_mmshare_version>
43012

> <i_f3d_flags>
0

> <s_epik_input>
W0NIMl0xW0NIMl1bQ0hdMVtOSF1DKD1PKVtDSDJdbjJbY0hdbmMoW2NIXWMyPU8pW0NIXTNbQ0gyXVtDSDJdW0NIMl0z

> <s_epik_cmdline>
J2VwaWtfcHl0aG9uJywgJy1waCcsICc3LjAnLCAnLXRuJywgJzgnLCAnLW1hJywgJzIwMCcsICctbWV0YWxfYmluZGluZycsICctaW1hZScsICc8aW5maWxlLm1hZT4nLCAnLW9tYWUnLCAnPG91dGZpbGUubWFlPic=

> <r_lp_tautomer_probability>
1

> <r_epik_Ionization_Penalty>
7.30946e-06

> <r_epik_Ionization_Penalty_Charging>
8.23701e-09

> <r_epik_Ionization_Penalty_Neutral>
7.30122e-06

> <r_epik_State_Penalty>
-0

> <r_epik_Charging_Adjusted_Penalty>
8.23701e-09

> <i_epik_Tot_Q>
0

> <i_epik_Tot_abs_Q>
0

> <r_epik_Metal_State_Penalty>
-0

> <b_epik_Metal_Only>
0

> <s_lp_Force_Field>
OPLS_2005

> <r_lp_Energy>
30.4853

> <b_lp_Chiralities_Consistent>
1

> <s_lp_Variant>
AV-unprocessed.smi:2842-1

> <Gold.Version>
5.8.1

> <Gold.Id.Protein>
6NUR|6NUR_protein|mol2

> <Gold.PLP.Fitness>
45.3755

> <Gold.PLP.PLP>
-37.4947

> <Gold.PLP.part.hbond>
-3.9660

> <Gold.PLP.part.metal>
0.0000

> <Gold.PLP.part.buried>
-3.3471

> <Gold.PLP.part.nonpolar>
-30.7015

> <Gold.PLP.part.repulsive>
0.1873

> <Gold.PLP.ligand.clash>
0.0000

> <Gold.PLP.ligand.torsion>
0.5850

> <Gold.PLP.Chemscore.Hbond>
2.8800

> <Gold.PLP.Chemscore.CHOScore>
0.0000

> <Gold.PLP.Chemscore.Metal>
0.0000

> <Gold.Chemscore.Hbonds>
donor molecule, donor type, donor heavy atom, donor atom, acceptor molecule, acceptor atom, score
      L1  H    15    30       P1  7948  0.86
      P1  H  7997  8008       L1    14  1.00
      P1  H 10752 10765       L1     1  0.95

> <Gold.PLP.Chemscore.Internal.Correction>
0.4108

> <Gold.Rescore>
     Score         DG    S(hbond)    S(metal)    S(lipo)     H(rot)  DE(clash)    DE(int)     intcor
     13.43     -15.91       1.82        0.00      75.14       1.73       0.37       2.11       ----

> <Gold.Chemscore.Fitness>
13.4289

> <Gold.Chemscore.DG>
-15.9116

> <Gold.Chemscore.ZeroCoef>
-5.4800

> <Gold.Chemscore.Hbond>
1.8173

> <Gold.Chemscore.Metal>
0.0000

> <Gold.Chemscore.Lipo>
75.1447

> <Gold.Chemscore.Internal_Hbond>
0.0000

> <Gold.Chemscore.DEClash>
0.3714

> <Gold.Chemscore.DEInternal>
2.1113

> <Gold.Chemscore.Rot>
1.7305

> <Gold.Chemscore.Internal.Correction>
   9.000000E+99

> <Gold.Chemscore.Hbonds>
donor molecule, donor type, donor heavy atom, donor atom, acceptor molecule, acceptor atom, score
      L1  H    15    30       P1  7948  0.63
      P1  H  7997  8008       L1    14  0.34
      P1  H 10752 10765       L1     1  0.21

> <Gold.Chemscore.Hbond.Weighted>
-6.0697

> <Gold.Chemscore.Metal.Weighted>
-0.0000

> <Gold.Chemscore.Lipo.Weighted>
-8.7919

> <Gold.Chemscore.Internal_Hbond.Weighted>
0.0000

> <Gold.Chemscore.DEClash.Weighted>
0.3714

> <Gold.Chemscore.DEInternal.Weighted>
2.1113

> <Gold.Chemscore.Rot.Weighted>
4.4300

> <Gold.Chemscore.Internal.Correction.Weighted>
   9.000000E+99

> <Gold.Protein.RotatedTorsions>
[ 6907 6896 6895 6894 ] final   25.68 input  -60.11 | X-H torsion
[ 7974 7965 7964 7962 ] final  135.81 input  175.53 | X-H torsion
[ 8008 7997 7996 7995 ] final  -29.20 input   59.86 | X-H torsion
[ 10167 10162 10161 10158 ] final -133.22 input  -65.29 | X-H torsion
[ 10718 10713 10712 10709 ] final  -74.74 input   66.30 | X-H torsion
[ 10763 10752 10751 10750 ] final -174.25 input  -60.55 | X-H torsion
[ 11005 11000 10999 10996 ] final   27.25 input  -57.11 | X-H torsion

> <Gold.Protein.ActiveResidues>
 VAL166  LYS551  ARG553  GLY616  TRP617  ASP618  TYR619  PRO620  LYS621  CYS622 
 ASP623  PHE694  ASN695  SER759  ASP760  ASP761  ALA762  ILE779  LEU786  VAL792 
 PHE793  MET794  SER795  GLU796  ALA797  LYS798  CYS799  TRP800  GLU811  SER814 

> <Gold.Protein.RotatedAtoms>
  151.9762  135.0052  160.0554 H   0  0  0  0  0  0  0  0  0  0  0  0  # atno 6907 bound_to 6896
  152.1738  133.4656  159.4931 H   0  0  0  0  0  0  0  0  0  0  0  0  # atno 6908 bound_to 6896
  150.6906  134.1837  159.4301 H   0  0  0  0  0  0  0  0  0  0  0  0  # atno 6909 bound_to 6896
  144.9627  139.4692  143.5472 H   0  0  0  0  0  0  0  0  0  0  0  0  # atno 7974 bound_to 7965
  154.4300  140.1825  156.1210 H   0  0  0  0  0  0  0  0  0  0  0  0  # atno 8008 bound_to 7997
  156.0143  140.3347  155.6947 H   0  0  0  0  0  0  0  0  0  0  0  0  # atno 8009 bound_to 7997
  155.6067  140.0646  157.2708 H   0  0  0  0  0  0  0  0  0  0  0  0  # atno 8010 bound_to 7997
  139.9005  143.6613  152.2596 H   0  0  0  0  0  0  0  0  0  0  0  0  # atno 10167 bound_to 10162
  156.0232  130.4424  150.2938 H   0  0  0  0  0  0  0  0  0  0  0  0  # atno 10718 bound_to 10713
  154.5985  135.2852  155.0561 H   0  0  0  0  0  0  0  0  0  0  0  0  # atno 10763 bound_to 10752
  154.1835  135.6453  153.5044 H   0  0  0  0  0  0  0  0  0  0  0  0  # atno 10764 bound_to 10752
  153.0147  135.5429  154.6695 H   0  0  0  0  0  0  0  0  0  0  0  0  # atno 10765 bound_to 10752
  140.3283  134.2466  155.7706 H   0  0  0  0  0  0  0  0  0  0  0  0  # atno 11005 bound_to 11000
  146.3358  139.8787  142.8828 LP  0  0  0  0  0  0  0  0  0  0  0  0  # atno 17320 bound_to 7965
  145.2676  141.0098  143.3790 LP  0  0  0  0  0  0  0  0  0  0  0  0  # atno 17321 bound_to 7965
  139.7030  144.7632  151.1242 LP  0  0  0  0  0  0  0  0  0  0  0  0  # atno 17342 bound_to 10162
  140.7708  143.5433  150.9288 LP  0  0  0  0  0  0  0  0  0  0  0  0  # atno 17343 bound_to 10162
  157.1041  131.0203  151.3074 LP  0  0  0  0  0  0  0  0  0  0  0  0  # atno 17370 bound_to 10713
  157.4756  130.7735  149.7365 LP  0  0  0  0  0  0  0  0  0  0  0  0  # atno 17371 bound_to 10713
  141.2070  133.7819  157.0146 LP  0  0  0  0  0  0  0  0  0  0  0  0  # atno 17394 bound_to 11000
  140.0882  134.9608  157.1734 LP  0  0  0  0  0  0  0  0  0  0  0  0  # atno 17395 bound_to 11000

$$$$
