AV-unprocessed.smi:938|AV-procd|sdf|4217|dock3
  -GOLD-   22720 2123D 1   1.00000     0.00000
 Structure written by MMmdl.
 42 43  0  0  0  0  0  0  0  0  1 V2000
  150.1422  144.8274  159.7932 C   0  0  0  0  0  0  0  0  0  0  0  0
  151.6306  145.0020  160.1217 C   0  0  0  0  0  0  0  0  0  0  0  0
  152.3800  145.7456  159.0075 C   0  0  0  0  0  0  0  0  0  0  0  0
  152.2392  143.6917  160.3334 N   0  0  0  0  0  0  0  0  0  0  0  0
  152.4425  142.7490  159.3962 C   0  0  0  0  0  0  0  0  0  0  0  0
  152.1178  142.8845  158.2157 O   0  0  0  0  0  0  0  0  0  0  0  0
  153.0720  141.4694  159.8802 C   0  0  0  0  0  0  0  0  0  0  0  0
  153.7293  141.4315  161.1297 C   0  0  0  0  0  0  0  0  0  0  0  0
  154.2928  140.2112  161.5392 C   0  0  0  0  0  0  0  0  0  0  0  0
  154.1615  139.1087  160.6741 C   0  0  0  0  0  0  0  0  0  0  0  0
  154.7145  137.8757  161.0456 N   0  0  0  0  0  0  0  0  0  0  0  0
  154.8291  136.9352  159.9405 C   0  0  0  0  0  0  0  0  0  0  0  0
  155.5941  135.6846  160.3980 C   0  0  0  0  0  0  0  0  0  0  0  0
  154.9637  135.1190  161.5471 O   0  0  0  0  0  0  0  0  0  0  0  0
  154.8199  136.0031  162.6655 C   0  0  0  0  0  0  0  0  0  0  0  0
  153.9650  135.2384  163.6880 C   0  0  0  0  0  0  0  0  0  0  0  0
  156.1926  136.3272  163.2934 C   0  0  0  0  0  0  0  0  0  0  0  0
  154.0736  137.2800  162.2116 C   0  0  0  0  0  0  0  0  0  0  0  0
  153.5150  139.2017  159.4859 N   0  0  0  0  0  0  0  0  0  0  0  0
  152.9776  140.3631  159.0983 N   0  0  0  0  0  0  0  0  0  0  0  0
  149.6561  145.7932  159.6520 H   0  0  0  0  0  0  0  0  0  0  0  0
  149.6209  144.3121  160.6007 H   0  0  0  0  0  0  0  0  0  0  0  0
  150.0014  144.2467  158.8810 H   0  0  0  0  0  0  0  0  0  0  0  0
  151.7004  145.6024  161.0301 H   0  0  0  0  0  0  0  0  0  0  0  0
  151.9553  146.7363  158.8430 H   0  0  0  0  0  0  0  0  0  0  0  0
  152.3311  145.2016  158.0634 H   0  0  0  0  0  0  0  0  0  0  0  0
  153.4323  145.8772  159.2621 H   0  0  0  0  0  0  0  0  0  0  0  0
  152.5346  143.4772  161.2752 H   0  0  0  0  0  0  0  0  0  0  0  0
  153.8053  142.3059  161.7596 H   0  0  0  0  0  0  0  0  0  0  0  0
  154.8088  140.1261  162.4844 H   0  0  0  0  0  0  0  0  0  0  0  0
  153.8347  136.6532  159.5910 H   0  0  0  0  0  0  0  0  0  0  0  0
  155.3452  137.4058  159.1028 H   0  0  0  0  0  0  0  0  0  0  0  0
  155.5994  134.9407  159.6015 H   0  0  0  0  0  0  0  0  0  0  0  0
  156.6378  135.9196  160.6068 H   0  0  0  0  0  0  0  0  0  0  0  0
  153.7851  135.8370  164.5816 H   0  0  0  0  0  0  0  0  0  0  0  0
  154.4542  134.3151  164.0001 H   0  0  0  0  0  0  0  0  0  0  0  0
  152.9944  134.9689  163.2699 H   0  0  0  0  0  0  0  0  0  0  0  0
  156.0749  136.9044  164.2109 H   0  0  0  0  0  0  0  0  0  0  0  0
  156.8262  136.9148  162.6296 H   0  0  0  0  0  0  0  0  0  0  0  0
  156.7350  135.4154  163.5453 H   0  0  0  0  0  0  0  0  0  0  0  0
  154.0338  138.0051  163.0259 H   0  0  0  0  0  0  0  0  0  0  0  0
  153.0411  137.0331  161.9579 H   0  0  0  0  0  0  0  0  0  0  0  0
  1  2  1  0  0  0  0
  1 21  1  0  0  0  0
  1 22  1  0  0  0  0
  1 23  1  0  0  0  0
  2  3  1  0  0  0  0
  2  4  1  0  0  0  0
  2 24  1  0  0  0  0
  3 25  1  0  0  0  0
  3 26  1  0  0  0  0
  3 27  1  0  0  0  0
  4  5  1  0  0  0  0
  4 28  1  0  0  0  0
  5  6  2  0  0  0  0
  5  7  1  0  0  0  0
  7 20  1  0  0  0  0
  7  8  2  0  0  0  0
  8  9  1  0  0  0  0
  8 29  1  0  0  0  0
  9 10  2  0  0  0  0
  9 30  1  0  0  0  0
 10 11  1  0  0  0  0
 10 19  1  0  0  0  0
 11 18  1  0  0  0  0
 11 12  1  0  0  0  0
 12 13  1  0  0  0  0
 12 31  1  0  0  0  0
 12 32  1  0  0  0  0
 13 14  1  0  0  0  0
 13 33  1  0  0  0  0
 13 34  1  0  0  0  0
 14 15  1  0  0  0  0
 15 16  1  0  0  0  0
 15 17  1  0  0  0  0
 15 18  1  0  0  0  0
 16 35  1  0  0  0  0
 16 36  1  0  0  0  0
 16 37  1  0  0  0  0
 17 38  1  0  0  0  0
 17 39  1  0  0  0  0
 17 40  1  0  0  0  0
 18 41  1  0  0  0  0
 18 42  1  0  0  0  0
 19 20  2  0  0  0  0
M  END
> <s_m_source_file>
AV-unprocessed.smi

> <i_m_source_file_index>
938

> <i_lp_mmshare_version>
43012

> <i_f3d_flags>
0

> <s_epik_input>
W0NIM11bQ0hdKFtDSDNdKVtOSF1DKD1PKWMxW2NIXVtjSF1jKG5uMSlOKFtDSDJdMilbQ0gyXVtDSDJdT0MyKFtDSDNdKVtDSDNd

> <s_epik_cmdline>
J2VwaWtfcHl0aG9uJywgJy1waCcsICc3LjAnLCAnLXRuJywgJzgnLCAnLW1hJywgJzIwMCcsICctbWV0YWxfYmluZGluZycsICctaW1hZScsICc8aW5maWxlLm1hZT4nLCAnLW9tYWUnLCAnPG91dGZpbGUubWFlPic=

> <r_lp_tautomer_probability>
1

> <r_epik_Ionization_Penalty>
1.44833e-06

> <r_epik_Ionization_Penalty_Charging>
0

> <r_epik_Ionization_Penalty_Neutral>
1.44833e-06

> <r_epik_State_Penalty>
-0

> <r_epik_Charging_Adjusted_Penalty>
0

> <i_epik_Tot_Q>
0

> <i_epik_Tot_abs_Q>
0

> <r_epik_Metal_State_Penalty>
-0

> <b_epik_Metal_Only>
0

> <s_lp_Force_Field>
OPLS_2005

> <r_lp_Energy>
32.4644

> <b_lp_Chiralities_Consistent>
1

> <s_lp_Variant>
AV-unprocessed.smi:938-1

> <Gold.Version>
5.8.1

> <Gold.Id.Protein>
6NUR|6NUR_protein|mol2

> <Gold.PLP.Fitness>
35.7698

> <Gold.PLP.PLP>
-36.4731

> <Gold.PLP.part.hbond>
0.0000

> <Gold.PLP.part.metal>
0.0000

> <Gold.PLP.part.buried>
-5.7518

> <Gold.PLP.part.nonpolar>
-29.9159

> <Gold.PLP.part.repulsive>
0.0825

> <Gold.PLP.ligand.clash>
0.0000

> <Gold.PLP.ligand.torsion>
0.4018

> <Gold.PLP.Chemscore.Hbond>
0.0000

> <Gold.PLP.Chemscore.CHOScore>
0.0000

> <Gold.PLP.Chemscore.Metal>
0.0000

> <Gold.PLP.Chemscore.Internal.Correction>
0.1002

> <Gold.Rescore>
     Score         DG    S(hbond)    S(metal)    S(lipo)     H(rot)  DE(clash)    DE(int)     intcor
     12.67     -13.73       0.00        0.00      96.20       1.17       0.01       1.05       ----

> <Gold.Chemscore.Fitness>
12.6732

> <Gold.Chemscore.DG>
-13.7278

> <Gold.Chemscore.ZeroCoef>
-5.4800

> <Gold.Chemscore.Hbond>
0.0000

> <Gold.Chemscore.Metal>
0.0000

> <Gold.Chemscore.Lipo>
96.2002

> <Gold.Chemscore.Internal_Hbond>
0.0000

> <Gold.Chemscore.DEClash>
0.0073

> <Gold.Chemscore.DEInternal>
1.0473

> <Gold.Chemscore.Rot>
1.1749

> <Gold.Chemscore.Internal.Correction>
   9.000000E+99

> <Gold.Chemscore.Hbond.Weighted>
-0.0000

> <Gold.Chemscore.Metal.Weighted>
-0.0000

> <Gold.Chemscore.Lipo.Weighted>
-11.2554

> <Gold.Chemscore.Internal_Hbond.Weighted>
0.0000

> <Gold.Chemscore.DEClash.Weighted>
0.0073

> <Gold.Chemscore.DEInternal.Weighted>
1.0473

> <Gold.Chemscore.Rot.Weighted>
3.0076

> <Gold.Chemscore.Internal.Correction.Weighted>
   9.000000E+99

> <Gold.Protein.RotatedTorsions>
[ 6907 6896 6895 6894 ] final -133.48 input  -60.11 | X-H torsion
[ 7974 7965 7964 7962 ] final  144.25 input  175.53 | X-H torsion
[ 8008 7997 7996 7995 ] final  -47.07 input   59.86 | X-H torsion
[ 10167 10162 10161 10158 ] final  -82.19 input  -65.29 | X-H torsion
[ 10718 10713 10712 10709 ] final  177.47 input   66.30 | X-H torsion
[ 10763 10752 10751 10750 ] final -114.60 input  -60.55 | X-H torsion
[ 11005 11000 10999 10996 ] final -177.33 input  -57.11 | X-H torsion

> <Gold.Protein.ActiveResidues>
 VAL166  LYS551  ARG553  GLY616  TRP617  ASP618  TYR619  PRO620  LYS621  CYS622 
 ASP623  PHE694  ASN695  SER759  ASP760  ASP761  ALA762  ILE779  LEU786  VAL792 
 PHE793  MET794  SER795  GLU796  ALA797  LYS798  CYS799  TRP800  GLU811  SER814 

> <Gold.Protein.RotatedAtoms>
  150.9745  133.6309  159.2732 H   0  0  0  0  0  0  0  0  0  0  0  0  # atno 6907 bound_to 6896
  151.3587  135.0898  159.9437 H   0  0  0  0  0  0  0  0  0  0  0  0  # atno 6908 bound_to 6896
  152.5194  133.9323  159.7641 H   0  0  0  0  0  0  0  0  0  0  0  0  # atno 6909 bound_to 6896
  144.8852  139.5640  143.5824 H   0  0  0  0  0  0  0  0  0  0  0  0  # atno 7974 bound_to 7965
  154.4013  140.1355  156.4115 H   0  0  0  0  0  0  0  0  0  0  0  0  # atno 8008 bound_to 7997
  155.7729  140.3483  155.5236 H   0  0  0  0  0  0  0  0  0  0  0  0  # atno 8009 bound_to 7997
  155.8749  140.0978  157.1515 H   0  0  0  0  0  0  0  0  0  0  0  0  # atno 8010 bound_to 7997
  140.4343  143.2537  151.8716 H   0  0  0  0  0  0  0  0  0  0  0  0  # atno 10167 bound_to 10162
  156.9048  130.9890  151.3030 H   0  0  0  0  0  0  0  0  0  0  0  0  # atno 10718 bound_to 10713
  154.8447  135.4412  154.1531 H   0  0  0  0  0  0  0  0  0  0  0  0  # atno 10763 bound_to 10752
  153.2687  135.6943  153.7509 H   0  0  0  0  0  0  0  0  0  0  0  0  # atno 10764 bound_to 10752
  153.6758  135.3411  155.3140 H   0  0  0  0  0  0  0  0  0  0  0  0  # atno 10765 bound_to 10752
  140.4421  134.6421  157.4762 H   0  0  0  0  0  0  0  0  0  0  0  0  # atno 11005 bound_to 11000
  146.3019  139.7455  142.9084 LP  0  0  0  0  0  0  0  0  0  0  0  0  # atno 17320 bound_to 7965
  145.3883  141.0368  143.3138 LP  0  0  0  0  0  0  0  0  0  0  0  0  # atno 17321 bound_to 7965
  139.4786  144.5300  151.8680 LP  0  0  0  0  0  0  0  0  0  0  0  0  # atno 17342 bound_to 10162
  140.4392  144.2010  150.5890 LP  0  0  0  0  0  0  0  0  0  0  0  0  # atno 17343 bound_to 10162
  157.6004  130.8508  149.8793 LP  0  0  0  0  0  0  0  0  0  0  0  0  # atno 17370 bound_to 10713
  156.0564  130.3707  150.1081 LP  0  0  0  0  0  0  0  0  0  0  0  0  # atno 17371 bound_to 10713
  140.0063  134.6759  155.9450 LP  0  0  0  0  0  0  0  0  0  0  0  0  # atno 17394 bound_to 11000
  141.1701  133.6537  156.4620 LP  0  0  0  0  0  0  0  0  0  0  0  0  # atno 17395 bound_to 11000

$$$$
