AV-unprocessed.smi:113|AV-procd|sdf|1092|dock7
  -GOLD-   2262018193D 1   1.00000     0.00000
 Structure written by MMmdl.
 52 55  0  0  0  0  0  0  0  0  1 V2000
  154.8084  139.6608  162.9221 C   0  0  0  0  0  0  0  0  0  0  0  0
  154.0034  140.0774  161.7087 C   0  0  0  0  0  0  0  0  0  0  0  0
  153.6875  139.1481  160.7019 C   0  0  0  0  0  0  0  0  0  0  0  0
  152.9381  139.5773  159.5824 C   0  0  0  0  0  0  0  0  0  0  0  0
  152.5692  138.6054  158.4559 C   0  0  0  0  0  0  0  0  0  0  0  0
  151.1552  138.3000  158.2891 N   0  0  0  0  0  0  0  0  0  0  0  0
  150.5515  137.4376  159.2348 C   0  0  0  0  0  0  0  0  0  0  0  0
  151.1950  136.9499  160.1667 O   0  0  0  0  0  0  0  0  0  0  0  0
  149.1232  137.1907  159.0273 C   0  0  0  0  0  0  0  0  0  0  0  0
  148.4154  136.2479  159.9885 C   0  0  0  0  0  0  0  0  0  0  0  0
  148.4749  137.7953  158.0019 C   0  0  0  0  0  0  0  0  0  0  0  0
  149.0835  138.6638  157.1061 N   0  0  0  0  0  0  0  0  0  0  0  0
  148.3367  139.3796  155.9954 C   0  0  1  0  0  0  0  0  0  0  0  0
  148.7688  139.0416  154.5709 C   0  0  0  0  0  0  0  0  0  0  0  0
  147.5585  139.5407  153.8086 C   0  0  1  0  0  0  0  0  0  0  0  0
  147.4717  138.9300  152.5361 O   0  0  0  0  0  0  0  0  0  0  0  0
  146.3892  139.2348  154.7738 C   0  0  1  0  0  0  0  0  0  0  0  0
  145.5239  138.0043  154.4404 C   0  0  0  0  0  0  0  0  0  0  0  0
  144.6893  138.2646  153.3306 O   0  0  0  0  0  0  0  0  0  0  0  0
  147.0026  138.9844  156.0394 O   0  0  0  0  0  0  0  0  0  0  0  0
  150.4636  138.9315  157.2316 C   0  0  0  0  0  0  0  0  0  0  0  0
  151.0320  139.6995  156.4510 O   0  0  0  0  0  0  0  0  0  0  0  0
  152.5372  140.9397  159.5334 C   0  0  0  0  0  0  0  0  0  0  0  0
  151.7809  141.4495  158.4503 C   0  0  0  0  0  0  0  0  0  0  0  0
  151.3962  142.8018  158.4194 C   0  0  0  0  0  0  0  0  0  0  0  0
  151.7638  143.6589  159.4696 C   0  0  0  0  0  0  0  0  0  0  0  0
  152.5138  143.1603  160.5498 C   0  0  0  0  0  0  0  0  0  0  0  0
  152.9098  141.8065  160.6031 C   0  0  0  0  0  0  0  0  0  0  0  0
  153.6281  141.3703  161.6613 N   0  0  0  0  0  0  0  0  0  0  0  0
  154.7900  138.5781  163.0521 H   0  0  0  0  0  0  0  0  0  0  0  0
  154.4072  140.1158  163.8283 H   0  0  0  0  0  0  0  0  0  0  0  0
  155.8466  139.9744  162.8097 H   0  0  0  0  0  0  0  0  0  0  0  0
  154.0227  138.1268  160.8009 H   0  0  0  0  0  0  0  0  0  0  0  0
  152.9388  138.9810  157.5006 H   0  0  0  0  0  0  0  0  0  0  0  0
  153.0897  137.6559  158.5909 H   0  0  0  0  0  0  0  0  0  0  0  0
  147.3585  136.1339  159.7459 H   0  0  0  0  0  0  0  0  0  0  0  0
  148.4821  136.6262  161.0093 H   0  0  0  0  0  0  0  0  0  0  0  0
  148.8724  135.2583  159.9592 H   0  0  0  0  0  0  0  0  0  0  0  0
  147.4294  137.5580  157.8929 H   0  0  0  0  0  0  0  0  0  0  0  0
  148.4361  140.4453  156.2140 H   0  0  0  0  0  0  0  0  0  0  0  0
  149.7063  139.5287  154.3006 H   0  0  0  0  0  0  0  0  0  0  0  0
  148.8492  137.9616  154.4438 H   0  0  0  0  0  0  0  0  0  0  0  0
  147.6394  140.6202  153.6731 H   0  0  0  0  0  0  0  0  0  0  0  0
  148.0374  139.3962  151.9392 H   0  0  0  0  0  0  0  0  0  0  0  0
  145.7544  140.1161  154.8755 H   0  0  0  0  0  0  0  0  0  0  0  0
  146.1396  137.1237  154.2535 H   0  0  0  0  0  0  0  0  0  0  0  0
  144.8781  137.7656  155.2860 H   0  0  0  0  0  0  0  0  0  0  0  0
  144.5722  139.1995  153.2548 H   0  0  0  0  0  0  0  0  0  0  0  0
  151.4821  140.8185  157.6273 H   0  0  0  0  0  0  0  0  0  0  0  0
  150.8192  143.1809  157.5888 H   0  0  0  0  0  0  0  0  0  0  0  0
  151.4709  144.6982  159.4481 H   0  0  0  0  0  0  0  0  0  0  0  0
  152.7896  143.8293  161.3520 H   0  0  0  0  0  0  0  0  0  0  0  0
  1  2  1  0  0  0  0
  1 30  1  0  0  0  0
  1 31  1  0  0  0  0
  1 32  1  0  0  0  0
  2 29  1  0  0  0  0
  2  3  2  0  0  0  0
  3  4  1  0  0  0  0
  3 33  1  0  0  0  0
  4  5  1  0  0  0  0
  4 23  2  0  0  0  0
  5  6  1  0  0  0  0
  5 34  1  0  0  0  0
  5 35  1  0  0  0  0
  6 21  1  0  0  0  0
  6  7  1  0  0  0  0
  7  8  2  0  0  0  0
  7  9  1  0  0  0  0
  9 10  1  0  0  0  0
  9 11  2  0  0  0  0
 10 36  1  0  0  0  0
 10 37  1  0  0  0  0
 10 38  1  0  0  0  0
 11 12  1  0  0  0  0
 11 39  1  0  0  0  0
 12 13  1  0  0  0  0
 12 21  1  0  0  0  0
 13 20  1  0  0  0  0
 13 14  1  0  0  0  0
 13 40  1  0  0  0  0
 14 15  1  0  0  0  0
 14 41  1  0  0  0  0
 14 42  1  0  0  0  0
 15 16  1  0  0  0  0
 15 17  1  0  0  0  0
 15 43  1  0  0  0  0
 16 44  1  0  0  0  0
 17 18  1  0  0  0  0
 17 20  1  0  0  0  0
 17 45  1  0  0  0  0
 18 19  1  0  0  0  0
 18 46  1  0  0  0  0
 18 47  1  0  0  0  0
 19 48  1  0  0  0  0
 21 22  2  0  0  0  0
 23 28  1  0  0  0  0
 23 24  1  0  0  0  0
 24 25  2  0  0  0  0
 24 49  1  0  0  0  0
 25 26  1  0  0  0  0
 25 50  1  0  0  0  0
 26 27  2  0  0  0  0
 26 51  1  0  0  0  0
 27 28  1  0  0  0  0
 27 52  1  0  0  0  0
 28 29  2  0  0  0  0
M  END
> <s_m_source_file>
AV-unprocessed.smi

> <i_m_source_file_index>
113

> <i_lp_mmshare_version>
43012

> <i_f3d_flags>
0

> <s_epik_input>
W2NIXTFbY0hdW2NIXVtjSF1jKGMxMiluYyhbQ0gzXSlbY0hdYzJbQ0gyXW4zYyg9TyljKFtDSDNdKVtjSF1uKGMzPU8pW0NAQEhdNFtDSDJdW0NAQEhdKFtPSF0pW0NASF0oTzQpW0NIMl1bT0hd

> <s_epik_cmdline>
J2VwaWtfcHl0aG9uJywgJy1waCcsICc3LjAnLCAnLXRuJywgJzgnLCAnLW1hJywgJzIwMCcsICctbWV0YWxfYmluZGluZycsICctaW1hZScsICc8aW5maWxlLm1hZT4nLCAnLW9tYWUnLCAnPG91dGZpbGUubWFlPic=

> <r_lp_tautomer_probability>
1

> <r_epik_Ionization_Penalty>
0.214728

> <r_epik_Ionization_Penalty_Charging>
3.04883e-08

> <r_epik_Ionization_Penalty_Neutral>
0.214728

> <r_epik_State_Penalty>
0.204913

> <r_epik_Charging_Adjusted_Penalty>
0.204913

> <i_epik_Tot_Q>
0

> <i_epik_Tot_abs_Q>
0

> <r_epik_Metal_State_Penalty>
0.000244761

> <b_epik_Metal_Only>
0

> <s_epik_Chemistry_Notes>
This compound contains an acetal/aminal-like group ( X-CH(R)-Y where X, Y are N, S, or O) that may be acid/base labile, releasing an aldehyde.

> <s_lp_Force_Field>
OPLS_2005

> <r_lp_Energy>
43.3088

> <b_lp_Chiralities_Consistent>
1

> <s_lp_Variant>
AV-unprocessed.smi:113-2

> <Gold.Version>
5.8.1

> <Gold.Id.Protein>
6NUR|6NUR_protein|mol2

> <Gold.PLP.Fitness>
54.3670

> <Gold.PLP.PLP>
-45.9865

> <Gold.PLP.part.hbond>
-3.9926

> <Gold.PLP.part.metal>
0.0000

> <Gold.PLP.part.buried>
-7.4340

> <Gold.PLP.part.nonpolar>
-34.8783

> <Gold.PLP.part.repulsive>
0.0000

> <Gold.PLP.ligand.clash>
0.0000

> <Gold.PLP.ligand.torsion>
0.3255

> <Gold.PLP.Chemscore.Hbond>
3.0000

> <Gold.PLP.Chemscore.CHOScore>
0.0000

> <Gold.PLP.Chemscore.Metal>
0.0000

> <Gold.Chemscore.Hbonds>
donor molecule, donor type, donor heavy atom, donor atom, acceptor molecule, acceptor atom, score
      L1  H    16    44       P1  7957  1.00
      L1  H    19    48       P1 10175  0.90
      P1  H  6896  6909       L1     8  1.00

> <Gold.PLP.Chemscore.Internal.Correction>
0.0314

> <Gold.Rescore>
     Score         DG    S(hbond)    S(metal)    S(lipo)     H(rot)  DE(clash)    DE(int)     intcor
     19.71     -20.87       2.83        0.00     115.28       2.95       0.00       1.16       ----

> <Gold.Chemscore.Fitness>
19.7063

> <Gold.Chemscore.DG>
-20.8715

> <Gold.Chemscore.ZeroCoef>
-5.4800

> <Gold.Chemscore.Hbond>
2.8287

> <Gold.Chemscore.Metal>
0.0000

> <Gold.Chemscore.Lipo>
115.2795

> <Gold.Chemscore.Internal_Hbond>
0.0000

> <Gold.Chemscore.DEClash>
0.0021

> <Gold.Chemscore.DEInternal>
1.1630

> <Gold.Chemscore.Rot>
2.9469

> <Gold.Chemscore.Internal.Correction>
   9.000000E+99

> <Gold.Chemscore.Hbonds>
donor molecule, donor type, donor heavy atom, donor atom, acceptor molecule, acceptor atom, score
      L1  H    16    44       P1  7957  1.00
      L1  H    19    48       P1 10175  0.88
      P1  H  6896  6909       L1     8  0.85

> <Gold.Chemscore.Hbond.Weighted>
-9.4477

> <Gold.Chemscore.Metal.Weighted>
-0.0000

> <Gold.Chemscore.Lipo.Weighted>
-13.4877

> <Gold.Chemscore.Internal_Hbond.Weighted>
0.0000

> <Gold.Chemscore.DEClash.Weighted>
0.0021

> <Gold.Chemscore.DEInternal.Weighted>
1.1630

> <Gold.Chemscore.Rot.Weighted>
7.5439

> <Gold.Chemscore.Internal.Correction.Weighted>
   9.000000E+99

> <Gold.Protein.RotatedTorsions>
[ 6907 6896 6895 6894 ] final  114.30 input  -60.11 | X-H torsion
[ 7974 7965 7964 7962 ] final   30.47 input  175.53 | X-H torsion
[ 8008 7997 7996 7995 ] final   62.51 input   59.86 | X-H torsion
[ 10167 10162 10161 10158 ] final  152.26 input  -65.29 | X-H torsion
[ 10718 10713 10712 10709 ] final -101.95 input   66.30 | X-H torsion
[ 10763 10752 10751 10750 ] final -110.26 input  -60.55 | X-H torsion
[ 11005 11000 10999 10996 ] final  141.27 input  -57.11 | X-H torsion

> <Gold.Protein.ActiveResidues>
 VAL166  LYS551  ARG553  GLY616  TRP617  ASP618  TYR619  PRO620  LYS621  CYS622 
 ASP623  PHE694  ASN695  SER759  ASP760  ASP761  ALA762  ILE779  LEU786  VAL792 
 PHE793  MET794  SER795  GLU796  ALA797  LYS798  CYS799  TRP800  GLU811  SER814 

> <Gold.Protein.RotatedAtoms>
  152.4810  133.8255  159.7075 H   0  0  0  0  0  0  0  0  0  0  0  0  # atno 6907 bound_to 6896
  150.8861  133.7297  159.2924 H   0  0  0  0  0  0  0  0  0  0  0  0  # atno 6908 bound_to 6896
  151.4785  135.1054  159.9823 H   0  0  0  0  0  0  0  0  0  0  0  0  # atno 6909 bound_to 6896
  146.1610  139.6784  142.9034 H   0  0  0  0  0  0  0  0  0  0  0  0  # atno 7974 bound_to 7965
  155.6155  140.3495  155.4635 H   0  0  0  0  0  0  0  0  0  0  0  0  # atno 8008 bound_to 7997
  156.0120  140.1235  157.0468 H   0  0  0  0  0  0  0  0  0  0  0  0  # atno 8009 bound_to 7997
  154.4284  140.1079  156.5829 H   0  0  0  0  0  0  0  0  0  0  0  0  # atno 8010 bound_to 7997
  139.4834  144.5372  151.7625 H   0  0  0  0  0  0  0  0  0  0  0  0  # atno 10167 bound_to 10162
  156.0212  130.5397  150.7038 H   0  0  0  0  0  0  0  0  0  0  0  0  # atno 10718 bound_to 10713
  154.8238  135.4571  154.0858 H   0  0  0  0  0  0  0  0  0  0  0  0  # atno 10763 bound_to 10752
  153.2189  135.6891  153.8030 H   0  0  0  0  0  0  0  0  0  0  0  0  # atno 10764 bound_to 10752
  153.7454  135.3306  155.3288 H   0  0  0  0  0  0  0  0  0  0  0  0  # atno 10765 bound_to 10752
  140.0388  134.9315  157.0804 H   0  0  0  0  0  0  0  0  0  0  0  0  # atno 11005 bound_to 11000
  145.4589  141.0432  143.2762 LP  0  0  0  0  0  0  0  0  0  0  0  0  # atno 17320 bound_to 7965
  144.8026  139.6111  143.7065 LP  0  0  0  0  0  0  0  0  0  0  0  0  # atno 17321 bound_to 7965
  140.4907  144.1315  150.5949 LP  0  0  0  0  0  0  0  0  0  0  0  0  # atno 17342 bound_to 10162
  140.4175  143.2627  151.9757 LP  0  0  0  0  0  0  0  0  0  0  0  0  # atno 17343 bound_to 10162
  157.4692  131.0891  151.0661 LP  0  0  0  0  0  0  0  0  0  0  0  0  # atno 17370 bound_to 10713
  157.1126  130.6028  149.5485 LP  0  0  0  0  0  0  0  0  0  0  0  0  # atno 17371 bound_to 10713
  140.4102  134.1989  155.7163 LP  0  0  0  0  0  0  0  0  0  0  0  0  # atno 17394 bound_to 11000
  141.1872  133.8286  157.1040 LP  0  0  0  0  0  0  0  0  0  0  0  0  # atno 17395 bound_to 11000

$$$$
