AV-unprocessed.smi:1421|AV-procd|sdf|5791|dock1
  -GOLD-   22720 5443D 1   1.00000     0.00000
 Structure written by MMmdl.
 44 45  0  0  0  0  0  0  0  0  2 V2000
  156.2186  133.7064  157.2348 C   0  0  0  0  0  0  0  0  0  0  0  0
  154.7117  134.4246  158.0180 S   0  0  0  0  0  0  0  0  0  0  0  0
  154.0968  135.2503  156.9680 O   0  0  0  0  0  0  0  0  0  0  0  0
  153.9215  133.2844  158.5120 O   0  0  0  0  0  0  0  0  0  0  0  0
  155.3380  135.3541  159.1969 N   0  5  0  0  0  0  0  0  0  0  0  0
  154.5181  136.3192  159.9151 C   0  0  0  0  0  0  0  0  0  0  0  0
  153.8959  137.3185  158.9156 C   0  0  0  0  0  0  0  0  0  0  0  0
  152.5382  137.8778  159.3672 C   0  0  0  0  0  0  0  0  0  0  0  0
  151.7653  137.1935  160.0419 O   0  0  0  0  0  0  0  0  0  0  0  0
  152.2400  139.1196  158.9553 N   0  0  0  0  0  0  0  0  0  0  0  0
  151.0113  139.8296  159.2845 C   0  0  0  0  0  0  0  0  0  0  0  0
  151.0196  141.2776  158.8003 C   0  0  0  0  0  0  0  0  0  0  0  0
  151.5461  142.2873  159.6376 C   0  0  0  0  0  0  0  0  0  0  0  0
  151.5250  143.6253  159.2058 C   0  0  0  0  0  0  0  0  0  0  0  0
  150.9668  143.9089  157.9473 C   0  0  0  0  0  0  0  0  0  0  0  0
  150.4539  142.9603  157.1376 N   0  0  0  0  0  0  0  0  0  0  0  0
  150.4732  141.6680  157.5469 C   0  0  0  0  0  0  0  0  0  0  0  0
  149.9536  140.7080  156.6602 N   0  0  0  0  0  0  0  0  0  0  0  0
  148.9684  141.1705  155.6885 C   0  0  0  0  0  0  0  0  0  0  0  0
  148.3638  139.9648  154.9487 C   0  0  0  0  0  0  0  0  0  0  0  0
  149.4067  139.2064  154.3418 O   0  0  0  0  0  0  0  0  0  0  0  0
  150.3322  138.7013  155.3011 C   0  0  0  0  0  0  0  0  0  0  0  0
  150.9839  139.8709  156.0588 C   0  0  0  0  0  0  0  0  0  0  0  0
  155.9246  133.1344  156.3556 H   0  0  0  0  0  0  0  0  0  0  0  0
  156.7262  133.0449  157.9357 H   0  0  0  0  0  0  0  0  0  0  0  0
  156.8908  134.5096  156.9344 H   0  0  0  0  0  0  0  0  0  0  0  0
  153.7188  135.8319  160.4746 H   0  0  0  0  0  0  0  0  0  0  0  0
  155.1059  136.8687  160.6517 H   0  0  0  0  0  0  0  0  0  0  0  0
  154.5843  138.1481  158.7446 H   0  0  0  0  0  0  0  0  0  0  0  0
  153.7575  136.8346  157.9477 H   0  0  0  0  0  0  0  0  0  0  0  0
  152.9167  139.6095  158.3884 H   0  0  0  0  0  0  0  0  0  0  0  0
  150.1744  139.2625  158.8791 H   0  0  0  0  0  0  0  0  0  0  0  0
  150.8802  139.8441  160.3675 H   0  0  0  0  0  0  0  0  0  0  0  0
  151.9581  142.0446  160.6064 H   0  0  0  0  0  0  0  0  0  0  0  0
  151.9220  144.4152  159.8261 H   0  0  0  0  0  0  0  0  0  0  0  0
  150.9299  144.9239  157.5804 H   0  0  0  0  0  0  0  0  0  0  0  0
  148.1839  141.7343  156.1946 H   0  0  0  0  0  0  0  0  0  0  0  0
  149.4416  141.8414  154.9700 H   0  0  0  0  0  0  0  0  0  0  0  0
  147.7924  139.3352  155.6330 H   0  0  0  0  0  0  0  0  0  0  0  0
  147.6744  140.3044  154.1758 H   0  0  0  0  0  0  0  0  0  0  0  0
  149.8241  138.0264  155.9918 H   0  0  0  0  0  0  0  0  0  0  0  0
  151.0942  138.1160  154.7864 H   0  0  0  0  0  0  0  0  0  0  0  0
  151.5802  140.4741  155.3727 H   0  0  0  0  0  0  0  0  0  0  0  0
  151.6631  139.4902  156.8225 H   0  0  0  0  0  0  0  0  0  0  0  0
  1  2  1  0  0  0  0
  1 24  1  0  0  0  0
  1 25  1  0  0  0  0
  1 26  1  0  0  0  0
  2  3  2  0  0  0  0
  2  4  2  0  0  0  0
  2  5  1  0  0  0  0
  5  6  1  0  0  0  0
  6  7  1  0  0  0  0
  6 27  1  0  0  0  0
  6 28  1  0  0  0  0
  7  8  1  0  0  0  0
  7 29  1  0  0  0  0
  7 30  1  0  0  0  0
  8  9  2  0  0  0  0
  8 10  1  0  0  0  0
 10 11  1  0  0  0  0
 10 31  1  0  0  0  0
 11 12  1  0  0  0  0
 11 32  1  0  0  0  0
 11 33  1  0  0  0  0
 12 17  1  0  0  0  0
 12 13  2  0  0  0  0
 13 14  1  0  0  0  0
 13 34  1  0  0  0  0
 14 15  2  0  0  0  0
 14 35  1  0  0  0  0
 15 16  1  0  0  0  0
 15 36  1  0  0  0  0
 16 17  2  0  0  0  0
 17 18  1  0  0  0  0
 18 23  1  0  0  0  0
 18 19  1  0  0  0  0
 19 20  1  0  0  0  0
 19 37  1  0  0  0  0
 19 38  1  0  0  0  0
 20 21  1  0  0  0  0
 20 39  1  0  0  0  0
 20 40  1  0  0  0  0
 21 22  1  0  0  0  0
 22 23  1  0  0  0  0
 22 41  1  0  0  0  0
 22 42  1  0  0  0  0
 23 43  1  0  0  0  0
 23 44  1  0  0  0  0
M  CHG  1   5  -1
M  END
> <s_m_source_file>
AV-unprocessed.smi

> <i_m_source_file_index>
1421

> <i_lp_mmshare_version>
43012

> <i_f3d_flags>
0

> <s_epik_input>
W0NIM11TKD1PKSg9TylbTkhdW0NIMl1bQ0gyXUMoPU8pW05IXVtDSDJdYzFbY0hdW2NIXVtjSF1uYzFOMltDSDJdW0NIMl1PW0NIMl1bQ0gyXTI=

> <s_epik_cmdline>
J2VwaWtfcHl0aG9uJywgJy1waCcsICc3LjAnLCAnLXRuJywgJzgnLCAnLW1hJywgJzIwMCcsICctbWV0YWxfYmluZGluZycsICctaW1hZScsICc8aW5maWxlLm1hZT4nLCAnLW9tYWUnLCAnPG91dGZpbGUubWFlPic=

> <r_lp_tautomer_probability>
1

> <r_epik_Ionization_Penalty>
6.31253

> <r_epik_Ionization_Penalty_Charging>
6.30704

> <r_epik_Ionization_Penalty_Neutral>
0.00548981

> <r_epik_State_Penalty>
6.31049

> <r_epik_Charging_Adjusted_Penalty>
12.6175

> <i_epik_Tot_Q>
-1

> <i_epik_Tot_abs_Q>
1

> <r_epik_Metal_State_Penalty>
2.24651

> <b_epik_Metal_Only>
1

> <s_lp_Force_Field>
OPLS_2005

> <r_lp_Energy>
12.571

> <b_lp_Chiralities_Consistent>
1

> <s_lp_Variant>
AV-unprocessed.smi:1421-2

> <Gold.Version>
5.8.1

> <Gold.Id.Protein>
6NUR|6NUR_protein|mol2

> <Gold.PLP.Fitness>
45.5418

> <Gold.PLP.PLP>
-36.3128

> <Gold.PLP.part.hbond>
-3.8954

> <Gold.PLP.part.metal>
0.0000

> <Gold.PLP.part.buried>
-4.1177

> <Gold.PLP.part.nonpolar>
-29.2029

> <Gold.PLP.part.repulsive>
0.6463

> <Gold.PLP.ligand.clash>
0.0000

> <Gold.PLP.ligand.torsion>
2.0365

> <Gold.PLP.Chemscore.Hbond>
3.9425

> <Gold.PLP.Chemscore.CHOScore>
0.0000

> <Gold.PLP.Chemscore.Metal>
0.0000

> <Gold.Chemscore.Hbonds>
donor molecule, donor type, donor heavy atom, donor atom, acceptor molecule, acceptor atom, score
      P1  H  6896  6907       L1     9  1.00
      P1  H  6896  6908       L1     4  1.00
      P1  H 10752 10765       L1     3  1.00
      L1  C    15    36       P1  8028  0.18

> <Gold.PLP.Chemscore.Internal.Correction>
1.4746

> <Gold.Rescore>
     Score         DG    S(hbond)    S(metal)    S(lipo)     H(rot)  DE(clash)    DE(int)     intcor
     18.02     -20.31       3.34        0.00      85.19       2.46       0.03       2.26       ----

> <Gold.Chemscore.Fitness>
18.0250

> <Gold.Chemscore.DG>
-20.3146

> <Gold.Chemscore.ZeroCoef>
-5.4800

> <Gold.Chemscore.Hbond>
3.3449

> <Gold.Chemscore.Metal>
0.0000

> <Gold.Chemscore.Lipo>
85.1857

> <Gold.Chemscore.Internal_Hbond>
0.0000

> <Gold.Chemscore.DEClash>
0.0294

> <Gold.Chemscore.DEInternal>
2.2603

> <Gold.Chemscore.Rot>
2.4625

> <Gold.Chemscore.Internal.Correction>
   9.000000E+99

> <Gold.Chemscore.Hbonds>
donor molecule, donor type, donor heavy atom, donor atom, acceptor molecule, acceptor atom, score
      P1  H  6896  6907       L1     9  0.93
      P1  H  6896  6908       L1     4  0.95
      P1  H 10752 10765       L1     3  0.97

> <Gold.Chemscore.Hbond.Weighted>
-11.1719

> <Gold.Chemscore.Metal.Weighted>
-0.0000

> <Gold.Chemscore.Lipo.Weighted>
-9.9667

> <Gold.Chemscore.Internal_Hbond.Weighted>
0.0000

> <Gold.Chemscore.DEClash.Weighted>
0.0294

> <Gold.Chemscore.DEInternal.Weighted>
2.2603

> <Gold.Chemscore.Rot.Weighted>
6.3040

> <Gold.Chemscore.Internal.Correction.Weighted>
   9.000000E+99

> <Gold.Protein.RotatedTorsions>
[ 6907 6896 6895 6894 ] final    5.51 input  -60.11 | X-H torsion
[ 7974 7965 7964 7962 ] final  147.35 input  175.53 | X-H torsion
[ 8008 7997 7996 7995 ] final  174.73 input   59.86 | X-H torsion
[ 10167 10162 10161 10158 ] final -174.66 input  -65.29 | X-H torsion
[ 10718 10713 10712 10709 ] final -104.98 input   66.30 | X-H torsion
[ 10763 10752 10751 10750 ] final  -94.75 input  -60.55 | X-H torsion
[ 11005 11000 10999 10996 ] final   17.86 input  -57.11 | X-H torsion

> <Gold.Protein.ActiveResidues>
 VAL166  LYS551  ARG553  GLY616  TRP617  ASP618  TYR619  PRO620  LYS621  CYS622 
 ASP623  PHE694  ASN695  SER759  ASP760  ASP761  ALA762  ILE779  LEU786  VAL792 
 PHE793  MET794  SER795  GLU796  ALA797  LYS798  CYS799  TRP800  GLU811  SER814 

> <Gold.Protein.RotatedAtoms>
  151.6586  135.0992  160.0174 H   0  0  0  0  0  0  0  0  0  0  0  0  # atno 6907 bound_to 6896
  152.3960  133.6743  159.6285 H   0  0  0  0  0  0  0  0  0  0  0  0  # atno 6908 bound_to 6896
  150.7867  133.8790  159.3321 H   0  0  0  0  0  0  0  0  0  0  0  0  # atno 6909 bound_to 6896
  144.8598  139.6018  143.5935 H   0  0  0  0  0  0  0  0  0  0  0  0  # atno 7974 bound_to 7965
  156.0943  140.1427  156.9551 H   0  0  0  0  0  0  0  0  0  0  0  0  # atno 8008 bound_to 7997
  154.4662  140.0925  156.7071 H   0  0  0  0  0  0  0  0  0  0  0  0  # atno 8009 bound_to 7997
  155.4867  140.3446  155.4350 H   0  0  0  0  0  0  0  0  0  0  0  0  # atno 8010 bound_to 7997
  139.5622  144.1843  152.1256 H   0  0  0  0  0  0  0  0  0  0  0  0  # atno 10167 bound_to 10162
  156.0326  130.5541  150.7473 H   0  0  0  0  0  0  0  0  0  0  0  0  # atno 10718 bound_to 10713
  154.7084  135.5146  153.8630 H   0  0  0  0  0  0  0  0  0  0  0  0  # atno 10763 bound_to 10752
  153.0760  135.6616  154.0153 H   0  0  0  0  0  0  0  0  0  0  0  0  # atno 10764 bound_to 10752
  154.0000  135.3012  155.3383 H   0  0  0  0  0  0  0  0  0  0  0  0  # atno 10765 bound_to 10752
  140.4312  134.1418  155.7681 H   0  0  0  0  0  0  0  0  0  0  0  0  # atno 11005 bound_to 11000
  146.2852  139.6984  142.9201 LP  0  0  0  0  0  0  0  0  0  0  0  0  # atno 17320 bound_to 7965
  145.4334  141.0417  143.2898 LP  0  0  0  0  0  0  0  0  0  0  0  0  # atno 17321 bound_to 7965
  140.1359  144.5246  150.6774 LP  0  0  0  0  0  0  0  0  0  0  0  0  # atno 17342 bound_to 10162
  140.6902  143.2372  151.5151 LP  0  0  0  0  0  0  0  0  0  0  0  0  # atno 17343 bound_to 10162
  157.5027  131.0920  151.0295 LP  0  0  0  0  0  0  0  0  0  0  0  0  # atno 17370 bound_to 10713
  157.0672  130.5849  149.5396 LP  0  0  0  0  0  0  0  0  0  0  0  0  # atno 17371 bound_to 10713
  141.1745  133.8542  157.1466 LP  0  0  0  0  0  0  0  0  0  0  0  0  # atno 17394 bound_to 11000
  140.0133  134.9978  157.0441 LP  0  0  0  0  0  0  0  0  0  0  0  0  # atno 17395 bound_to 11000

$$$$
