AV-unprocessed.smi:2681|AV-procd|sdf|10373|dock7
  -GOLD-   2272014403D 1   1.00000     0.00000
 Structure written by MMmdl.
 42 43  0  0  0  0  0  0  0  0  1 V2000
  143.8675  145.1841  153.1706 N   0  0  0  0  0  0  0  0  0  0  0  0
  144.4698  144.4031  153.7755 C   0  0  0  0  0  0  0  0  0  0  0  0
  145.2277  143.4192  154.5374 C   0  0  0  0  0  0  0  0  0  0  0  0
  146.4451  142.9335  154.0157 C   0  0  0  0  0  0  0  0  0  0  0  0
  147.1894  141.9939  154.7572 C   0  0  0  0  0  0  0  0  0  0  0  0
  148.4578  141.5072  154.2348 C   0  0  0  0  0  0  0  0  0  0  0  0
  149.4658  141.1204  153.8187 N   0  0  0  0  0  0  0  0  0  0  0  0
  146.6664  141.5750  156.0036 C   0  0  0  0  0  0  0  0  0  0  0  0
  147.5102  140.4198  157.0494 S   0  0  0  0  0  0  0  0  0  0  0  0
  148.9036  141.3174  157.7974 C   0  0  0  0  0  0  0  0  0  0  0  0
  150.1225  141.3875  156.8668 C   0  0  0  0  0  0  0  0  0  0  0  0
  151.3124  141.3298  157.6405 O   0  0  0  0  0  0  0  0  0  0  0  0
  151.3915  142.2681  158.7058 C   0  0  0  0  0  0  0  0  0  0  0  0
  151.4312  143.6983  158.1212 C   0  0  0  0  0  0  0  0  0  0  0  0
  152.0460  144.7980  159.0058 C   0  0  0  0  0  0  0  0  0  0  0  0
  151.7105  144.7091  160.5029 C   0  0  0  0  0  0  0  0  0  0  0  0
  152.6868  143.8063  161.2756 C   0  0  0  0  0  0  0  0  0  0  0  0
  152.5138  142.3028  161.0167 C   0  0  0  0  0  0  0  0  0  0  0  0
  152.6255  141.8802  159.5417 C   0  0  0  0  0  0  0  0  0  0  0  0
  145.4959  142.0225  156.5073 N   0  0  0  0  0  0  0  0  0  0  0  0
  144.7934  142.9287  155.7955 C   0  0  0  0  0  0  0  0  0  0  0  0
  143.6024  143.3558  156.3860 N   0  0  0  0  0  0  0  0  0  0  0  0
  146.8098  143.2869  153.0612 H   0  0  0  0  0  0  0  0  0  0  0  0
  148.5846  142.3175  158.0917 H   0  0  0  0  0  0  0  0  0  0  0  0
  149.1784  140.7942  158.7132 H   0  0  0  0  0  0  0  0  0  0  0  0
  150.0932  140.5522  156.1670 H   0  0  0  0  0  0  0  0  0  0  0  0
  150.0868  142.3067  156.2802 H   0  0  0  0  0  0  0  0  0  0  0  0
  150.5086  142.1541  159.3370 H   0  0  0  0  0  0  0  0  0  0  0  0
  151.9821  143.6864  157.1798 H   0  0  0  0  0  0  0  0  0  0  0  0
  150.4136  143.9905  157.8607 H   0  0  0  0  0  0  0  0  0  0  0  0
  153.1289  144.8072  158.8770 H   0  0  0  0  0  0  0  0  0  0  0  0
  151.7062  145.7615  158.6242 H   0  0  0  0  0  0  0  0  0  0  0  0
  151.7856  145.7122  160.9243 H   0  0  0  0  0  0  0  0  0  0  0  0
  150.6766  144.3978  160.6567 H   0  0  0  0  0  0  0  0  0  0  0  0
  153.7137  144.1002  161.0547 H   0  0  0  0  0  0  0  0  0  0  0  0
  152.5543  143.9838  162.3433 H   0  0  0  0  0  0  0  0  0  0  0  0
  153.2759  141.7714  161.5875 H   0  0  0  0  0  0  0  0  0  0  0  0
  151.5586  141.9681  161.4233 H   0  0  0  0  0  0  0  0  0  0  0  0
  152.7125  140.7940  159.5335 H   0  0  0  0  0  0  0  0  0  0  0  0
  153.5445  142.2524  159.0873 H   0  0  0  0  0  0  0  0  0  0  0  0
  143.0017  144.0332  155.9383 H   0  0  0  0  0  0  0  0  0  0  0  0
  143.3032  142.9981  157.2819 H   0  0  0  0  0  0  0  0  0  0  0  0
  1  2  3  0  0  0  0
  2  3  1  0  0  0  0
  3 21  1  0  0  0  0
  3  4  2  0  0  0  0
  4  5  1  0  0  0  0
  4 23  1  0  0  0  0
  5  6  1  0  0  0  0
  5  8  2  0  0  0  0
  6  7  3  0  0  0  0
  8  9  1  0  0  0  0
  8 20  1  0  0  0  0
  9 10  1  0  0  0  0
 10 11  1  0  0  0  0
 10 24  1  0  0  0  0
 10 25  1  0  0  0  0
 11 12  1  0  0  0  0
 11 26  1  0  0  0  0
 11 27  1  0  0  0  0
 12 13  1  0  0  0  0
 13 19  1  0  0  0  0
 13 14  1  0  0  0  0
 13 28  1  0  0  0  0
 14 15  1  0  0  0  0
 14 29  1  0  0  0  0
 14 30  1  0  0  0  0
 15 16  1  0  0  0  0
 15 31  1  0  0  0  0
 15 32  1  0  0  0  0
 16 17  1  0  0  0  0
 16 33  1  0  0  0  0
 16 34  1  0  0  0  0
 17 18  1  0  0  0  0
 17 35  1  0  0  0  0
 17 36  1  0  0  0  0
 18 19  1  0  0  0  0
 18 37  1  0  0  0  0
 18 38  1  0  0  0  0
 19 39  1  0  0  0  0
 19 40  1  0  0  0  0
 20 21  2  0  0  0  0
 21 22  1  0  0  0  0
 22 41  1  0  0  0  0
 22 42  1  0  0  0  0
M  END
> <s_m_source_file>
AV-unprocessed.smi

> <i_m_source_file_index>
2681

> <i_lp_mmshare_version>
43012

> <i_f3d_flags>
0

> <s_epik_input>
TiNDYzFbY0hdYyhDI04pYyhuYzFbTkgyXSlTW0NIMl1bQ0gyXU9bQ0hdMltDSDJdW0NIMl1bQ0gyXVtDSDJdW0NIMl1bQ0gyXTI=

> <s_epik_cmdline>
J2VwaWtfcHl0aG9uJywgJy1waCcsICc3LjAnLCAnLXRuJywgJzgnLCAnLW1hJywgJzIwMCcsICctbWV0YWxfYmluZGluZycsICctaW1hZScsICc8aW5maWxlLm1hZT4nLCAnLW9tYWUnLCAnPG91dGZpbGUubWFlPic=

> <r_epik_Ionization_Penalty>
0.00177186

> <r_epik_Ionization_Penalty_Charging>
0

> <r_epik_Ionization_Penalty_Neutral>
0.00177186

> <r_epik_State_Penalty>
0.00120048

> <r_epik_Charging_Adjusted_Penalty>
0.00120048

> <i_epik_Tot_Q>
0

> <i_epik_Tot_abs_Q>
0

> <r_epik_Metal_State_Penalty>
-0

> <b_epik_Metal_Only>
0

> <s_lp_Force_Field>
OPLS_2005

> <r_lp_Energy>
17.568

> <b_lp_Chiralities_Consistent>
1

> <s_lp_Variant>
AV-unprocessed.smi:2681-1

> <Gold.Version>
5.8.1

> <Gold.Id.Protein>
6NUR|6NUR_protein|mol2

> <Gold.PLP.Fitness>
48.9783

> <Gold.PLP.PLP>
-46.7314

> <Gold.PLP.part.hbond>
-3.0000

> <Gold.PLP.part.metal>
0.0000

> <Gold.PLP.part.buried>
-6.8303

> <Gold.PLP.part.nonpolar>
-39.0662

> <Gold.PLP.part.repulsive>
2.1235

> <Gold.PLP.ligand.clash>
0.0000

> <Gold.PLP.ligand.torsion>
0.5660

> <Gold.PLP.Chemscore.Hbond>
1.1176

> <Gold.PLP.Chemscore.CHOScore>
0.0000

> <Gold.PLP.Chemscore.Metal>
0.0000

> <Gold.Chemscore.Hbonds>
donor molecule, donor type, donor heavy atom, donor atom, acceptor molecule, acceptor atom, score
      P1  H  7989  7998       L1     7  0.21
      P1  H  8011  8017       L1     7  0.91

> <Gold.PLP.Chemscore.Internal.Correction>
0.0262

> <Gold.Rescore>
     Score         DG    S(hbond)    S(metal)    S(lipo)     H(rot)  DE(clash)    DE(int)     intcor
     13.60     -14.66       0.65        0.00     106.06       2.12       0.46       0.59       ----

> <Gold.Chemscore.Fitness>
13.6011

> <Gold.Chemscore.DG>
-14.6571

> <Gold.Chemscore.ZeroCoef>
-5.4800

> <Gold.Chemscore.Hbond>
0.6536

> <Gold.Chemscore.Metal>
0.0000

> <Gold.Chemscore.Lipo>
106.0607

> <Gold.Chemscore.Internal_Hbond>
0.0000

> <Gold.Chemscore.DEClash>
0.4622

> <Gold.Chemscore.DEInternal>
0.5939

> <Gold.Chemscore.Rot>
2.1152

> <Gold.Chemscore.Internal.Correction>
   9.000000E+99

> <Gold.Chemscore.Hbonds>
donor molecule, donor type, donor heavy atom, donor atom, acceptor molecule, acceptor atom, score
      P1  H  7989  7998       L1     7  0.21
      P1  H  8011  8017       L1     7  0.26

> <Gold.Chemscore.Hbond.Weighted>
-2.1830

> <Gold.Chemscore.Metal.Weighted>
-0.0000

> <Gold.Chemscore.Lipo.Weighted>
-12.4091

> <Gold.Chemscore.Internal_Hbond.Weighted>
0.0000

> <Gold.Chemscore.DEClash.Weighted>
0.4622

> <Gold.Chemscore.DEInternal.Weighted>
0.5939

> <Gold.Chemscore.Rot.Weighted>
5.4149

> <Gold.Chemscore.Internal.Correction.Weighted>
   9.000000E+99

> <Gold.Protein.RotatedTorsions>
[ 6907 6896 6895 6894 ] final  -73.30 input  -60.11 | X-H torsion
[ 7974 7965 7964 7962 ] final  -80.71 input  175.53 | X-H torsion
[ 8008 7997 7996 7995 ] final    3.03 input   59.86 | X-H torsion
[ 10167 10162 10161 10158 ] final  -10.60 input  -65.29 | X-H torsion
[ 10718 10713 10712 10709 ] final  167.41 input   66.30 | X-H torsion
[ 10763 10752 10751 10750 ] final -114.86 input  -60.55 | X-H torsion
[ 11005 11000 10999 10996 ] final  -51.95 input  -57.11 | X-H torsion

> <Gold.Protein.ActiveResidues>
 VAL166  LYS551  ARG553  GLY616  TRP617  ASP618  TYR619  PRO620  LYS621  CYS622 
 ASP623  PHE694  ASN695  SER759  ASP760  ASP761  ALA762  ILE779  LEU786  VAL792 
 PHE793  MET794  SER795  GLU796  ALA797  LYS798  CYS799  TRP800  GLU811  SER814 

> <Gold.Protein.RotatedAtoms>
  150.7135  134.5036  159.5572 H   0  0  0  0  0  0  0  0  0  0  0  0  # atno 6907 bound_to 6896
  152.2628  134.8013  160.0437 H   0  0  0  0  0  0  0  0  0  0  0  0  # atno 6908 bound_to 6896
  151.8721  133.3442  159.3775 H   0  0  0  0  0  0  0  0  0  0  0  0  # atno 6909 bound_to 6896
  145.5564  140.9489  143.1471 H   0  0  0  0  0  0  0  0  0  0  0  0  # atno 7974 bound_to 7965
  154.6988  140.2668  155.6740 H   0  0  0  0  0  0  0  0  0  0  0  0  # atno 8008 bound_to 7997
  156.2757  140.2776  156.1515 H   0  0  0  0  0  0  0  0  0  0  0  0  # atno 8009 bound_to 7997
  155.0794  140.0372  157.2624 H   0  0  0  0  0  0  0  0  0  0  0  0  # atno 8010 bound_to 7997
  140.7118  143.5730  150.9072 H   0  0  0  0  0  0  0  0  0  0  0  0  # atno 10167 bound_to 10162
  157.0519  131.0316  151.2678 H   0  0  0  0  0  0  0  0  0  0  0  0  # atno 10718 bound_to 10713
  154.8457  135.4402  154.1572 H   0  0  0  0  0  0  0  0  0  0  0  0  # atno 10763 bound_to 10752
  153.2718  135.6946  153.7479 H   0  0  0  0  0  0  0  0  0  0  0  0  # atno 10764 bound_to 10752
  153.6717  135.3418  155.3130 H   0  0  0  0  0  0  0  0  0  0  0  0  # atno 10765 bound_to 10752
  141.0899  133.6635  156.3953 H   0  0  0  0  0  0  0  0  0  0  0  0  # atno 11005 bound_to 11000
  144.7504  139.7208  143.7275 LP  0  0  0  0  0  0  0  0  0  0  0  0  # atno 17320 bound_to 7965
  146.1882  139.5108  142.9822 LP  0  0  0  0  0  0  0  0  0  0  0  0  # atno 17321 bound_to 7965
  139.9456  143.6331  152.3042 LP  0  0  0  0  0  0  0  0  0  0  0  0  # atno 17342 bound_to 10162
  139.6831  144.7654  151.1572 LP  0  0  0  0  0  0  0  0  0  0  0  0  # atno 17343 bound_to 10162
  157.5023  130.7888  149.7618 LP  0  0  0  0  0  0  0  0  0  0  0  0  # atno 17370 bound_to 10713
  156.0005  130.3883  150.2625 LP  0  0  0  0  0  0  0  0  0  0  0  0  # atno 17371 bound_to 10713
  140.5277  134.6242  157.5339 LP  0  0  0  0  0  0  0  0  0  0  0  0  # atno 17394 bound_to 11000
  139.9722  134.7273  156.0018 LP  0  0  0  0  0  0  0  0  0  0  0  0  # atno 17395 bound_to 11000

$$$$
