AV-unprocessed.smi:573|AV-procd|sdf|2969|dock7
  -GOLD-   2262023473D 1   1.00000     0.00000
 Structure written by MMmdl.
 45 47  0  0  0  0  0  0  0  0  2 V2000
  148.9018  139.1356  155.5736 C   0  0  0  0  0  0  0  0  0  0  0  0
  149.2032  140.2229  154.5315 C   0  0  2  0  0  0  0  0  0  0  0  0
  150.0346  139.6677  153.5353 O   0  0  0  0  0  0  0  0  0  0  0  0
  149.9254  141.4476  155.1239 C   0  0  0  0  0  0  0  0  0  0  0  0
  150.8563  141.0936  156.1860 N   0  0  0  0  0  0  0  0  0  0  0  0
  151.1196  142.0145  157.2066 C   0  0  0  0  0  0  0  0  0  0  0  0
  150.8305  143.3431  157.1832 N   0  3  0  0  0  0  0  0  0  0  0  0
  151.2370  143.9028  158.3976 C   0  0  0  0  0  0  0  0  0  0  0  0
  151.1591  145.2117  158.8632 C   0  0  0  0  0  0  0  0  0  0  0  0
  151.6580  145.4536  160.1597 C   0  0  0  0  0  0  0  0  0  0  0  0
  152.2060  144.4165  160.9421 C   0  0  0  0  0  0  0  0  0  0  0  0
  152.2834  143.0929  160.4612 C   0  0  0  0  0  0  0  0  0  0  0  0
  151.7931  142.8591  159.1765 C   0  0  0  0  0  0  0  0  0  0  0  0
  151.7081  141.7026  158.3894 N   0  0  0  0  0  0  0  0  0  0  0  0
  152.2013  140.4168  158.9031 C   0  0  0  0  0  0  0  0  0  0  0  0
  153.5885  140.5488  159.5523 C   0  0  1  0  0  0  0  0  0  0  0  0
  153.5267  140.3864  161.0826 C   0  0  0  0  0  0  0  0  0  0  0  0
  154.9326  140.4657  161.6885 C   0  0  0  0  0  0  0  0  0  0  0  0
  155.8568  139.4670  160.9837 C   0  0  0  0  0  0  0  0  0  0  0  0
  155.7998  139.6669  159.4606 C   0  0  0  0  0  0  0  0  0  0  0  0
  154.4547  139.5556  159.0058 O   0  0  0  0  0  0  0  0  0  0  0  0
  148.2288  139.5058  156.3475 H   0  0  0  0  0  0  0  0  0  0  0  0
  149.8128  138.7897  156.0632 H   0  0  0  0  0  0  0  0  0  0  0  0
  148.4227  138.2712  155.1125 H   0  0  0  0  0  0  0  0  0  0  0  0
  148.2746  140.5295  154.0490 H   0  0  0  0  0  0  0  0  0  0  0  0
  149.6097  139.7671  152.6968 H   0  0  0  0  0  0  0  0  0  0  0  0
  150.4804  141.9664  154.3416 H   0  0  0  0  0  0  0  0  0  0  0  0
  149.2000  142.1654  155.5093 H   0  0  0  0  0  0  0  0  0  0  0  0
  151.0655  140.1171  156.3375 H   0  0  0  0  0  0  0  0  0  0  0  0
  150.7372  146.0080  158.2678 H   0  0  0  0  0  0  0  0  0  0  0  0
  151.6173  146.4551  160.5635 H   0  0  0  0  0  0  0  0  0  0  0  0
  152.5745  144.6402  161.9330 H   0  0  0  0  0  0  0  0  0  0  0  0
  152.7002  142.3069  161.0731 H   0  0  0  0  0  0  0  0  0  0  0  0
  151.4770  140.0564  159.6346 H   0  0  0  0  0  0  0  0  0  0  0  0
  152.2099  139.6849  158.0956 H   0  0  0  0  0  0  0  0  0  0  0  0
  153.9899  141.5350  159.3107 H   0  0  0  0  0  0  0  0  0  0  0  0
  152.8886  141.1545  161.5204 H   0  0  0  0  0  0  0  0  0  0  0  0
  153.0758  139.4250  161.3329 H   0  0  0  0  0  0  0  0  0  0  0  0
  155.3262  141.4765  161.5725 H   0  0  0  0  0  0  0  0  0  0  0  0
  154.8986  140.2628  162.7592 H   0  0  0  0  0  0  0  0  0  0  0  0
  156.8800  139.5819  161.3420 H   0  0  0  0  0  0  0  0  0  0  0  0
  155.5514  138.4491  161.2288 H   0  0  0  0  0  0  0  0  0  0  0  0
  156.2102  140.6379  159.1793 H   0  0  0  0  0  0  0  0  0  0  0  0
  156.4037  138.9097  158.9606 H   0  0  0  0  0  0  0  0  0  0  0  0
  150.3923  143.8220  156.4072 H   0  0  0  0  0  0  0  0  0  0  0  0
  1  2  1  0  0  0  0
  1 22  1  0  0  0  0
  1 23  1  0  0  0  0
  1 24  1  0  0  0  0
  2  3  1  0  0  0  0
  2  4  1  0  0  0  0
  2 25  1  0  0  0  0
  3 26  1  0  0  0  0
  4  5  1  0  0  0  0
  4 27  1  0  0  0  0
  4 28  1  0  0  0  0
  5  6  1  0  0  0  0
  5 29  1  0  0  0  0
  6 14  1  0  0  0  0
  6  7  2  0  0  0  0
  7  8  1  0  0  0  0
  7 45  1  0  0  0  0
  8 13  2  0  0  0  0
  8  9  1  0  0  0  0
  9 10  2  0  0  0  0
  9 30  1  0  0  0  0
 10 11  1  0  0  0  0
 10 31  1  0  0  0  0
 11 12  2  0  0  0  0
 11 32  1  0  0  0  0
 12 13  1  0  0  0  0
 12 33  1  0  0  0  0
 13 14  1  0  0  0  0
 14 15  1  0  0  0  0
 15 16  1  0  0  0  0
 15 34  1  0  0  0  0
 15 35  1  0  0  0  0
 16 21  1  0  0  0  0
 16 17  1  0  0  0  0
 16 36  1  0  0  0  0
 17 18  1  0  0  0  0
 17 37  1  0  0  0  0
 17 38  1  0  0  0  0
 18 19  1  0  0  0  0
 18 39  1  0  0  0  0
 18 40  1  0  0  0  0
 19 20  1  0  0  0  0
 19 41  1  0  0  0  0
 19 42  1  0  0  0  0
 20 21  1  0  0  0  0
 20 43  1  0  0  0  0
 20 44  1  0  0  0  0
M  CHG  1   7   1
M  END
> <s_m_source_file>
AV-unprocessed.smi

> <i_m_source_file_index>
573

> <i_lp_mmshare_version>
43012

> <i_f3d_flags>
0

> <s_epik_input>
W0NIM11bQ0BIXShbT0hdKVtDSDJdW05IXWMobjEpbihjKGMxMilbY0hdW2NIXVtjSF1bY0hdMilbQ0gyXVtDQEBIXTNbQ0gyXVtDSDJdW0NIMl1bQ0gyXU8z

> <s_epik_cmdline>
J2VwaWtfcHl0aG9uJywgJy1waCcsICc3LjAnLCAnLXRuJywgJzgnLCAnLW1hJywgJzIwMCcsICctbWV0YWxfYmluZGluZycsICctaW1hZScsICc8aW5maWxlLm1hZT4nLCAnLW9tYWUnLCAnPG91dGZpbGUubWFlPic=

> <r_epik_Ionization_Penalty>
0.0692245

> <r_epik_Ionization_Penalty_Charging>
0.0692223

> <r_epik_Ionization_Penalty_Neutral>
2.1869e-06

> <r_epik_State_Penalty>
0.0606215

> <r_epik_Charging_Adjusted_Penalty>
0.129844

> <i_epik_Tot_Q>
1

> <i_epik_Tot_abs_Q>
1

> <r_epik_Metal_State_Penalty>
2.77811

> <b_epik_Metal_Only>
0

> <s_lp_Force_Field>
OPLS_2005

> <r_lp_Energy>
19.2261

> <b_lp_Chiralities_Consistent>
1

> <s_lp_Variant>
AV-unprocessed.smi:573-3

> <Gold.Version>
5.8.1

> <Gold.Id.Protein>
6NUR|6NUR_protein|mol2

> <Gold.PLP.Fitness>
55.9210

> <Gold.PLP.PLP>
-44.5227

> <Gold.PLP.part.hbond>
-4.0000

> <Gold.PLP.part.metal>
0.0000

> <Gold.PLP.part.buried>
-3.2957

> <Gold.PLP.part.nonpolar>
-36.6850

> <Gold.PLP.part.repulsive>
0.1154

> <Gold.PLP.ligand.clash>
0.0000

> <Gold.PLP.ligand.torsion>
1.3340

> <Gold.PLP.Chemscore.Hbond>
4.6820

> <Gold.PLP.Chemscore.CHOScore>
0.0000

> <Gold.PLP.Chemscore.Metal>
0.0000

> <Gold.Chemscore.Hbonds>
donor molecule, donor type, donor heavy atom, donor atom, acceptor molecule, acceptor atom, score
      L1  H     3    26       P1  7957  1.00
      L1  H     7    45       P1  8028  2.00
      P1  H  7989  7998       L1     3  0.77
      P1  H  7997  8010       L1    21  0.70

> <Gold.PLP.Chemscore.Internal.Correction>
0.0203

> <Gold.Rescore>
     Score         DG    S(hbond)    S(metal)    S(lipo)     H(rot)  DE(clash)    DE(int)     intcor
     21.80     -24.60       2.79        0.00     128.99       2.07       0.06       2.73       ----

> <Gold.Chemscore.Fitness>
21.8030

> <Gold.Chemscore.DG>
-24.5972

> <Gold.Chemscore.ZeroCoef>
-5.4800

> <Gold.Chemscore.Hbond>
2.7917

> <Gold.Chemscore.Metal>
0.0000

> <Gold.Chemscore.Lipo>
128.9921

> <Gold.Chemscore.Internal_Hbond>
0.0000

> <Gold.Chemscore.DEClash>
0.0617

> <Gold.Chemscore.DEInternal>
2.7325

> <Gold.Chemscore.Rot>
2.0699

> <Gold.Chemscore.Internal.Correction>
   9.000000E+99

> <Gold.Chemscore.Hbonds>
donor molecule, donor type, donor heavy atom, donor atom, acceptor molecule, acceptor atom, score
      L1  H     3    26       P1  7957  0.93
      L1  H     7    45       P1  8028  0.94
      P1  H  7989  7998       L1     3  0.19
      P1  H  7997  8010       L1    21  0.05

> <Gold.Chemscore.Hbond.Weighted>
-9.3241

> <Gold.Chemscore.Metal.Weighted>
-0.0000

> <Gold.Chemscore.Lipo.Weighted>
-15.0921

> <Gold.Chemscore.Internal_Hbond.Weighted>
0.0000

> <Gold.Chemscore.DEClash.Weighted>
0.0617

> <Gold.Chemscore.DEInternal.Weighted>
2.7325

> <Gold.Chemscore.Rot.Weighted>
5.2991

> <Gold.Chemscore.Internal.Correction.Weighted>
   9.000000E+99

> <Gold.Protein.RotatedTorsions>
[ 6907 6896 6895 6894 ] final   68.89 input  -60.11 | X-H torsion
[ 7974 7965 7964 7962 ] final  160.69 input  175.53 | X-H torsion
[ 8008 7997 7996 7995 ] final   15.56 input   59.86 | X-H torsion
[ 10167 10162 10161 10158 ] final  -39.63 input  -65.29 | X-H torsion
[ 10718 10713 10712 10709 ] final  -71.79 input   66.30 | X-H torsion
[ 10763 10752 10751 10750 ] final  135.35 input  -60.55 | X-H torsion
[ 11005 11000 10999 10996 ] final   36.78 input  -57.11 | X-H torsion

> <Gold.Protein.ActiveResidues>
 VAL166  LYS551  ARG553  GLY616  TRP617  ASP618  TYR619  PRO620  LYS621  CYS622 
 ASP623  PHE694  ASN695  SER759  ASP760  ASP761  ALA762  ILE779  LEU786  VAL792 
 PHE793  MET794  SER795  GLU796  ALA797  LYS798  CYS799  TRP800  GLU811  SER814 

> <Gold.Protein.RotatedAtoms>
  152.4650  134.5096  159.9749 H   0  0  0  0  0  0  0  0  0  0  0  0  # atno 6907 bound_to 6896
  151.5136  133.3474  159.2897 H   0  0  0  0  0  0  0  0  0  0  0  0  # atno 6908 bound_to 6896
  150.8630  134.8015  159.7159 H   0  0  0  0  0  0  0  0  0  0  0  0  # atno 6909 bound_to 6896
  144.7724  139.7793  143.6292 H   0  0  0  0  0  0  0  0  0  0  0  0  # atno 7974 bound_to 7965
  154.8644  140.2949  155.5519 H   0  0  0  0  0  0  0  0  0  0  0  0  # atno 8008 bound_to 7997
  156.3020  140.2472  156.3555 H   0  0  0  0  0  0  0  0  0  0  0  0  # atno 8009 bound_to 7997
  154.8884  140.0395  157.1813 H   0  0  0  0  0  0  0  0  0  0  0  0  # atno 8010 bound_to 7997
  140.7058  143.3202  151.2810 H   0  0  0  0  0  0  0  0  0  0  0  0  # atno 10167 bound_to 10162
  156.0347  130.4358  150.2496 H   0  0  0  0  0  0  0  0  0  0  0  0  # atno 10718 bound_to 10713
  153.8386  135.3094  155.3424 H   0  0  0  0  0  0  0  0  0  0  0  0  # atno 10763 bound_to 10752
  154.7942  135.4765  154.0126 H   0  0  0  0  0  0  0  0  0  0  0  0  # atno 10764 bound_to 10752
  153.1589  135.6857  153.8863 H   0  0  0  0  0  0  0  0  0  0  0  0  # atno 10765 bound_to 10752
  140.2291  134.3549  155.7971 H   0  0  0  0  0  0  0  0  0  0  0  0  # atno 11005 bound_to 11000
  146.1879  139.5105  142.9824 LP  0  0  0  0  0  0  0  0  0  0  0  0  # atno 17320 bound_to 7965
  145.6286  141.0308  143.1876 LP  0  0  0  0  0  0  0  0  0  0  0  0  # atno 17321 bound_to 7965
  139.6654  144.0115  152.2719 LP  0  0  0  0  0  0  0  0  0  0  0  0  # atno 17342 bound_to 10162
  139.9696  144.6503  150.8002 LP  0  0  0  0  0  0  0  0  0  0  0  0  # atno 17343 bound_to 10162
  157.0596  131.0086  151.3227 LP  0  0  0  0  0  0  0  0  0  0  0  0  # atno 17370 bound_to 10713
  157.5080  130.7921  149.7674 LP  0  0  0  0  0  0  0  0  0  0  0  0  # atno 17371 bound_to 10713
  141.2219  133.7235  156.8702 LP  0  0  0  0  0  0  0  0  0  0  0  0  # atno 17394 bound_to 11000
  140.1769  134.9060  157.2902 LP  0  0  0  0  0  0  0  0  0  0  0  0  # atno 17395 bound_to 11000

$$$$
