AV-unprocessed.smi:1697|AV-procd|sdf|6805|dock1
  -GOLD-   22720 7573D 1   1.00000     0.00000
 Structure written by MMmdl.
 54 56  0  0  0  0  0  0  0  0  2 V2000
  148.6729  130.7935  154.8891 C   0  0  0  0  0  0  0  0  0  0  0  0
  149.0951  131.7429  156.0187 C   0  0  0  0  0  0  0  0  0  0  0  0
  148.3887  132.9760  155.9679 O   0  0  0  0  0  0  0  0  0  0  0  0
  148.1902  133.5119  154.6634 C   0  0  2  0  0  0  0  0  0  0  0  0
  149.5536  133.6228  153.9645 C   0  0  0  0  0  0  0  0  0  0  0  0
  150.4564  134.6715  154.6377 C   0  0  0  0  0  0  0  0  0  0  0  0
  149.7878  135.9967  154.7027 N   0  3  2  0  0  0  0  0  0  0  0  0
  150.6920  137.0574  155.2162 C   0  0  0  0  0  0  0  0  0  0  0  0
  150.2007  138.4815  154.8725 C   0  0  2  0  0  0  0  0  0  0  0  0
  149.7292  138.4847  153.5389 O   0  0  0  0  0  0  0  0  0  0  0  0
  151.2937  139.5624  155.0273 C   0  0  0  0  0  0  0  0  0  0  0  0
  151.8915  139.6026  156.3523 N   0  0  0  0  0  0  0  0  0  0  0  0
  152.5817  138.6193  156.9620 C   0  0  0  0  0  0  0  0  0  0  0  0
  153.0339  138.8619  158.1885 N   0  0  0  0  0  0  0  0  0  0  0  0
  152.5932  140.1572  158.3972 C   0  0  0  0  0  0  0  0  0  0  0  0
  152.7388  141.0058  159.5160 C   0  0  0  0  0  0  0  0  0  0  0  0
  152.1938  142.3093  159.5130 C   0  0  0  0  0  0  0  0  0  0  0  0
  152.3678  143.1850  160.7413 C   0  0  0  0  0  0  0  0  0  0  0  0
  151.4961  142.7849  158.3737 C   0  0  0  0  0  0  0  0  0  0  0  0
  150.9053  144.1835  158.3455 C   0  0  0  0  0  0  0  0  0  0  0  0
  151.3421  141.9505  157.2470 C   0  0  0  0  0  0  0  0  0  0  0  0
  151.8821  140.6523  157.2652 C   0  0  0  0  0  0  0  0  0  0  0  0
  148.4961  135.9174  155.4350 C   0  0  0  0  0  0  0  0  0  0  0  0
  147.5457  134.9029  154.7759 C   0  0  0  0  0  0  0  0  0  0  0  0
  149.1751  129.8309  154.9871 H   0  0  0  0  0  0  0  0  0  0  0  0
  148.9251  131.1952  153.9078 H   0  0  0  0  0  0  0  0  0  0  0  0
  147.5983  130.6115  154.9122 H   0  0  0  0  0  0  0  0  0  0  0  0
  148.8706  131.2739  156.9769 H   0  0  0  0  0  0  0  0  0  0  0  0
  150.1722  131.9157  156.0056 H   0  0  0  0  0  0  0  0  0  0  0  0
  147.5459  132.8648  154.0654 H   0  0  0  0  0  0  0  0  0  0  0  0
  150.0494  132.6514  153.9571 H   0  0  0  0  0  0  0  0  0  0  0  0
  149.4024  133.8970  152.9196 H   0  0  0  0  0  0  0  0  0  0  0  0
  150.7265  134.3495  155.6448 H   0  0  0  0  0  0  0  0  0  0  0  0
  151.3855  134.7534  154.0723 H   0  0  0  0  0  0  0  0  0  0  0  0
  150.8040  136.9406  156.2951 H   0  0  0  0  0  0  0  0  0  0  0  0
  151.6868  136.9190  154.7904 H   0  0  0  0  0  0  0  0  0  0  0  0
  149.3682  138.7627  155.5162 H   0  0  0  0  0  0  0  0  0  0  0  0
  149.5105  137.5981  153.2939 H   0  0  0  0  0  0  0  0  0  0  0  0
  152.0873  139.4057  154.2953 H   0  0  0  0  0  0  0  0  0  0  0  0
  150.8735  140.5455  154.8121 H   0  0  0  0  0  0  0  0  0  0  0  0
  152.7548  137.6675  156.4808 H   0  0  0  0  0  0  0  0  0  0  0  0
  153.2736  140.6442  160.3823 H   0  0  0  0  0  0  0  0  0  0  0  0
  152.9628  144.0659  160.4996 H   0  0  0  0  0  0  0  0  0  0  0  0
  152.8739  142.6486  161.5443 H   0  0  0  0  0  0  0  0  0  0  0  0
  151.3990  143.5131  161.1188 H   0  0  0  0  0  0  0  0  0  0  0  0
  150.4784  144.4155  157.3695 H   0  0  0  0  0  0  0  0  0  0  0  0
  151.6716  144.9289  158.5589 H   0  0  0  0  0  0  0  0  0  0  0  0
  150.1142  144.2772  159.0896 H   0  0  0  0  0  0  0  0  0  0  0  0
  150.8117  142.3015  156.3744 H   0  0  0  0  0  0  0  0  0  0  0  0
  148.6819  135.6384  156.4734 H   0  0  0  0  0  0  0  0  0  0  0  0
  148.0081  136.8909  155.4569 H   0  0  0  0  0  0  0  0  0  0  0  0
  147.2768  135.2575  153.7800 H   0  0  0  0  0  0  0  0  0  0  0  0
  146.6150  134.8436  155.3406 H   0  0  0  0  0  0  0  0  0  0  0  0
  149.5744  136.2503  153.7482 H   0  0  0  0  0  0  0  0  0  0  0  0
  1  2  1  0  0  0  0
  1 25  1  0  0  0  0
  1 26  1  0  0  0  0
  1 27  1  0  0  0  0
  2  3  1  0  0  0  0
  2 28  1  0  0  0  0
  2 29  1  0  0  0  0
  3  4  1  0  0  0  0
  4 24  1  0  0  0  0
  4  5  1  0  0  0  0
  4 30  1  0  0  0  0
  5  6  1  0  0  0  0
  5 31  1  0  0  0  0
  5 32  1  0  0  0  0
  6  7  1  0  0  0  0
  6 33  1  0  0  0  0
  6 34  1  0  0  0  0
  7  8  1  0  0  0  0
  7 23  1  0  0  0  0
  7 54  1  0  0  0  0
  8  9  1  0  0  0  0
  8 35  1  0  0  0  0
  8 36  1  0  0  0  0
  9 10  1  0  0  0  0
  9 11  1  0  0  0  0
  9 37  1  0  0  0  0
 10 38  1  0  0  0  0
 11 12  1  0  0  0  0
 11 39  1  0  0  0  0
 11 40  1  0  0  0  0
 12 22  1  0  0  0  0
 12 13  1  0  0  0  0
 13 14  2  0  0  0  0
 13 41  1  0  0  0  0
 14 15  1  0  0  0  0
 15 22  2  0  0  0  0
 15 16  1  0  0  0  0
 16 17  2  0  0  0  0
 16 42  1  0  0  0  0
 17 18  1  0  0  0  0
 17 19  1  0  0  0  0
 18 43  1  0  0  0  0
 18 44  1  0  0  0  0
 18 45  1  0  0  0  0
 19 20  1  0  0  0  0
 19 21  2  0  0  0  0
 20 46  1  0  0  0  0
 20 47  1  0  0  0  0
 20 48  1  0  0  0  0
 21 22  1  0  0  0  0
 21 49  1  0  0  0  0
 23 24  1  0  0  0  0
 23 50  1  0  0  0  0
 23 51  1  0  0  0  0
 24 52  1  0  0  0  0
 24 53  1  0  0  0  0
M  CHG  1   7   1
M  END
> <s_m_source_file>
AV-unprocessed.smi

> <i_m_source_file_index>
1697

> <i_lp_mmshare_version>
43012

> <i_f3d_flags>
0

> <s_epik_input>
W0NIM11bQ0gyXU9bQ0hdMVtDSDJdW0NIMl1OKFtDSDJdW0NIMl0xKVtDSDJdW0NASF0oW09IXSlbQ0gyXW4oW2NIXW4yKWMoYzIzKVtjSF1jKFtDSDNdKWMoW2NIXTMpW0NIM10=

> <s_epik_cmdline>
J2VwaWtfcHl0aG9uJywgJy1waCcsICc3LjAnLCAnLXRuJywgJzgnLCAnLW1hJywgJzIwMCcsICctbWV0YWxfYmluZGluZycsICctaW1hZScsICc8aW5maWxlLm1hZT4nLCAnLW9tYWUnLCAnPG91dGZpbGUubWFlPic=

> <r_epik_Ionization_Penalty>
0.112476

> <r_epik_Ionization_Penalty_Charging>
0.0244612

> <r_epik_Ionization_Penalty_Neutral>
0.0880147

> <r_epik_State_Penalty>
0.0961447

> <r_epik_Charging_Adjusted_Penalty>
0.120606

> <i_epik_Tot_Q>
1

> <i_epik_Tot_abs_Q>
1

> <r_epik_Metal_State_Penalty>
0.0206204

> <b_epik_Metal_Only>
0

> <s_lp_Force_Field>
OPLS_2005

> <r_lp_Energy>
22.8908

> <b_lp_Chiralities_Consistent>
1

> <s_lp_Variant>
AV-unprocessed.smi:1697-3

> <Gold.Version>
5.8.1

> <Gold.Id.Protein>
6NUR|6NUR_protein|mol2

> <Gold.PLP.Fitness>
48.2392

> <Gold.PLP.PLP>
-39.7728

> <Gold.PLP.part.hbond>
-3.1207

> <Gold.PLP.part.metal>
0.0000

> <Gold.PLP.part.buried>
-4.1083

> <Gold.PLP.part.nonpolar>
-32.8104

> <Gold.PLP.part.repulsive>
0.0417

> <Gold.PLP.ligand.clash>
0.0000

> <Gold.PLP.ligand.torsion>
0.3753

> <Gold.PLP.Chemscore.Hbond>
3.0000

> <Gold.PLP.Chemscore.CHOScore>
0.0000

> <Gold.PLP.Chemscore.Metal>
0.0000

> <Gold.Chemscore.Hbonds>
donor molecule, donor type, donor heavy atom, donor atom, acceptor molecule, acceptor atom, score
      L1  H     7    54       P1  7948  2.00
      L1  H    10    38       P1  7948  0.99

> <Gold.PLP.Chemscore.Internal.Correction>
0.2170

> <Gold.Rescore>
     Score         DG    S(hbond)    S(metal)    S(lipo)     H(rot)  DE(clash)    DE(int)     intcor
     17.83     -19.10       1.86        0.00     112.90       2.27       0.12       1.15       ----

> <Gold.Chemscore.Fitness>
17.8350

> <Gold.Chemscore.DG>
-19.1048

> <Gold.Chemscore.ZeroCoef>
-5.4800

> <Gold.Chemscore.Hbond>
1.8650

> <Gold.Chemscore.Metal>
0.0000

> <Gold.Chemscore.Lipo>
112.9019

> <Gold.Chemscore.Internal_Hbond>
0.0000

> <Gold.Chemscore.DEClash>
0.1210

> <Gold.Chemscore.DEInternal>
1.1489

> <Gold.Chemscore.Rot>
2.2710

> <Gold.Chemscore.Internal.Correction>
   9.000000E+99

> <Gold.Chemscore.Hbonds>
donor molecule, donor type, donor heavy atom, donor atom, acceptor molecule, acceptor atom, score
      L1  H     7    54       P1  7948  0.55
      L1  H    10    38       P1  7948  0.79

> <Gold.Chemscore.Hbond.Weighted>
-6.2290

> <Gold.Chemscore.Metal.Weighted>
-0.0000

> <Gold.Chemscore.Lipo.Weighted>
-13.2095

> <Gold.Chemscore.Internal_Hbond.Weighted>
0.0000

> <Gold.Chemscore.DEClash.Weighted>
0.1210

> <Gold.Chemscore.DEInternal.Weighted>
1.1489

> <Gold.Chemscore.Rot.Weighted>
5.8137

> <Gold.Chemscore.Internal.Correction.Weighted>
   9.000000E+99

> <Gold.Protein.RotatedTorsions>
[ 6907 6896 6895 6894 ] final   29.03 input  -60.11 | X-H torsion
[ 7974 7965 7964 7962 ] final -158.52 input  175.53 | X-H torsion
[ 8008 7997 7996 7995 ] final   27.06 input   59.86 | X-H torsion
[ 10167 10162 10161 10158 ] final   43.18 input  -65.29 | X-H torsion
[ 10718 10713 10712 10709 ] final  147.60 input   66.30 | X-H torsion
[ 10763 10752 10751 10750 ] final  -48.63 input  -60.55 | X-H torsion
[ 11005 11000 10999 10996 ] final   -7.50 input  -57.11 | X-H torsion

> <Gold.Protein.ActiveResidues>
 VAL166  LYS551  ARG553  GLY616  TRP617  ASP618  TYR619  PRO620  LYS621  CYS622 
 ASP623  PHE694  ASN695  SER759  ASP760  ASP761  ALA762  ILE779  LEU786  VAL792 
 PHE793  MET794  SER795  GLU796  ALA797  LYS798  CYS799  TRP800  GLU811  SER814 

> <Gold.Protein.RotatedAtoms>
  152.0255  134.9798  160.0571 H   0  0  0  0  0  0  0  0  0  0  0  0  # atno 6907 bound_to 6896
  152.1295  133.4395  159.4722 H   0  0  0  0  0  0  0  0  0  0  0  0  # atno 6908 bound_to 6896
  150.6855  134.2356  159.4495 H   0  0  0  0  0  0  0  0  0  0  0  0  # atno 6909 bound_to 6896
  144.7502  140.3816  143.6054 H   0  0  0  0  0  0  0  0  0  0  0  0  # atno 7974 bound_to 7965
  155.0370  140.3165  155.4738 H   0  0  0  0  0  0  0  0  0  0  0  0  # atno 8008 bound_to 7997
  156.2862  140.2170  156.5436 H   0  0  0  0  0  0  0  0  0  0  0  0  # atno 8009 bound_to 7997
  154.7322  140.0480  157.0724 H   0  0  0  0  0  0  0  0  0  0  0  0  # atno 8010 bound_to 7997
  140.3469  144.2399  150.6149 H   0  0  0  0  0  0  0  0  0  0  0  0  # atno 10167 bound_to 10162
  157.3189  131.0901  151.1256 H   0  0  0  0  0  0  0  0  0  0  0  0  # atno 10718 bound_to 10713
  154.0809  135.6591  153.4838 H   0  0  0  0  0  0  0  0  0  0  0  0  # atno 10763 bound_to 10752
  153.0356  135.5180  154.7474 H   0  0  0  0  0  0  0  0  0  0  0  0  # atno 10764 bound_to 10752
  154.6569  135.3009  154.9884 H   0  0  0  0  0  0  0  0  0  0  0  0  # atno 10765 bound_to 10752
  140.7134  133.8889  155.8767 H   0  0  0  0  0  0  0  0  0  0  0  0  # atno 11005 bound_to 11000
  145.6972  139.1652  143.2613 LP  0  0  0  0  0  0  0  0  0  0  0  0  # atno 17320 bound_to 7965
  146.1442  140.7016  142.9353 LP  0  0  0  0  0  0  0  0  0  0  0  0  # atno 17321 bound_to 7965
  140.5256  143.2255  151.8320 LP  0  0  0  0  0  0  0  0  0  0  0  0  # atno 17342 bound_to 10162
  139.4832  144.4784  151.9338 LP  0  0  0  0  0  0  0  0  0  0  0  0  # atno 17343 bound_to 10162
  157.2549  130.6631  149.5948 LP  0  0  0  0  0  0  0  0  0  0  0  0  # atno 17370 bound_to 10713
  155.9684  130.4527  150.5783 LP  0  0  0  0  0  0  0  0  0  0  0  0  # atno 17371 bound_to 10713
  141.0065  134.1079  157.4265 LP  0  0  0  0  0  0  0  0  0  0  0  0  # atno 17394 bound_to 11000
  139.8866  135.0082  156.6507 LP  0  0  0  0  0  0  0  0  0  0  0  0  # atno 17395 bound_to 11000

$$$$
