AV-unprocessed.smi:696|AV-procd|sdf|3387|dock7
  -GOLD-   22720 0363D 1   1.00000     0.00000
 Structure written by MMmdl.
 37 38  0  0  0  0  0  0  0  0  2 V2000
  150.9660  140.3592  155.6891 O   0  0  0  0  0  0  0  0  0  0  0  0
  150.4316  141.4011  156.0708 C   0  0  0  0  0  0  0  0  0  0  0  0
  149.4523  142.0170  155.3902 N   0  0  0  0  0  0  0  0  0  0  0  0
  148.8837  141.5503  154.1309 C   0  0  0  0  0  0  0  0  0  0  0  0
  147.3561  141.3621  154.2372 C   0  0  0  0  0  0  0  0  0  0  0  0
  146.8068  140.1202  153.5483 C   0  0  0  0  0  0  0  0  0  0  0  0
  145.9944  139.2491  154.0235 N   0  0  0  0  0  0  0  0  0  0  0  0
  145.8063  138.3005  152.9661 N   0  5  0  0  0  0  0  0  0  0  0  0
  146.5579  138.7196  151.9194 C   0  0  0  0  0  0  0  0  0  0  0  0
  146.6893  138.2039  150.8114 O   0  0  0  0  0  0  0  0  0  0  0  0
  147.1815  139.8413  152.2633 N   0  0  0  0  0  0  0  0  0  0  0  0
  150.8788  142.0623  157.3834 C   0  0  0  0  0  0  0  0  0  0  0  0
  151.3616  143.5069  157.1141 C   0  0  0  0  0  0  0  0  0  0  0  0
  151.4141  144.3706  158.3859 C   0  0  0  0  0  0  0  0  0  0  0  0
  152.7272  144.2932  159.1856 C   0  0  0  0  0  0  0  0  0  0  0  0
  153.4000  142.9117  159.2775 C   0  0  0  0  0  0  0  0  0  0  0  0
  152.4422  141.7192  159.4314 C   0  0  0  0  0  0  0  0  0  0  0  0
  151.9355  141.1802  158.0817 C   0  0  0  0  0  0  0  0  0  0  0  0
  147.8096  140.3891  151.6946 H   0  0  0  0  0  0  0  0  0  0  0  0
  149.0695  142.8682  155.7753 H   0  0  0  0  0  0  0  0  0  0  0  0
  149.1185  142.2932  153.3677 H   0  0  0  0  0  0  0  0  0  0  0  0
  149.3713  140.6223  153.8262 H   0  0  0  0  0  0  0  0  0  0  0  0
  147.0595  141.3256  155.2860 H   0  0  0  0  0  0  0  0  0  0  0  0
  146.8574  142.2323  153.8088 H   0  0  0  0  0  0  0  0  0  0  0  0
  150.0035  142.1134  158.0336 H   0  0  0  0  0  0  0  0  0  0  0  0
  152.3268  143.5125  156.6056 H   0  0  0  0  0  0  0  0  0  0  0  0
  150.6633  143.9854  156.4250 H   0  0  0  0  0  0  0  0  0  0  0  0
  151.2537  145.4137  158.1112 H   0  0  0  0  0  0  0  0  0  0  0  0
  150.5752  144.1164  159.0347 H   0  0  0  0  0  0  0  0  0  0  0  0
  153.4473  144.9906  158.7564 H   0  0  0  0  0  0  0  0  0  0  0  0
  152.5314  144.6619  160.1929 H   0  0  0  0  0  0  0  0  0  0  0  0
  154.0348  142.7555  158.4044 H   0  0  0  0  0  0  0  0  0  0  0  0
  154.0835  142.9290  160.1270 H   0  0  0  0  0  0  0  0  0  0  0  0
  152.9893  140.9134  159.9221 H   0  0  0  0  0  0  0  0  0  0  0  0
  151.6133  141.9635  160.0967 H   0  0  0  0  0  0  0  0  0  0  0  0
  151.5004  140.1946  158.2560 H   0  0  0  0  0  0  0  0  0  0  0  0
  152.7857  141.0099  157.4193 H   0  0  0  0  0  0  0  0  0  0  0  0
  1  2  2  0  0  0  0
  2  3  1  0  0  0  0
  2 12  1  0  0  0  0
  3  4  1  0  0  0  0
  3 20  1  0  0  0  0
  4  5  1  0  0  0  0
  4 21  1  0  0  0  0
  4 22  1  0  0  0  0
  5  6  1  0  0  0  0
  5 23  1  0  0  0  0
  5 24  1  0  0  0  0
  6 11  1  0  0  0  0
  6  7  2  0  0  0  0
  7  8  1  0  0  0  0
  8  9  1  0  0  0  0
  9 10  2  0  0  0  0
  9 11  1  0  0  0  0
 11 19  1  0  0  0  0
 12 18  1  0  0  0  0
 12 13  1  0  0  0  0
 12 25  1  0  0  0  0
 13 14  1  0  0  0  0
 13 26  1  0  0  0  0
 13 27  1  0  0  0  0
 14 15  1  0  0  0  0
 14 28  1  0  0  0  0
 14 29  1  0  0  0  0
 15 16  1  0  0  0  0
 15 30  1  0  0  0  0
 15 31  1  0  0  0  0
 16 17  1  0  0  0  0
 16 32  1  0  0  0  0
 16 33  1  0  0  0  0
 17 18  1  0  0  0  0
 17 34  1  0  0  0  0
 17 35  1  0  0  0  0
 18 36  1  0  0  0  0
 18 37  1  0  0  0  0
M  CHG  1   8  -1
M  END
> <s_m_source_file>
AV-unprocessed.smi

> <i_m_source_file_index>
696

> <i_lp_mmshare_version>
43012

> <i_f3d_flags>
0

> <s_epik_input>
W0NIMl0xW0NIMl1bQ0gyXVtDSDJdW0NIMl1bQ0gyXVtDSF0xQyg9TylbTkhdW0NIMl1bQ0gyXWMybltuSF1jKD1PKVtuSF0y

> <s_epik_cmdline>
J2VwaWtfcHl0aG9uJywgJy1waCcsICc3LjAnLCAnLXRuJywgJzgnLCAnLW1hJywgJzIwMCcsICctbWV0YWxfYmluZGluZycsICctaW1hZScsICc8aW5maWxlLm1hZT4nLCAnLW9tYWUnLCAnPG91dGZpbGUubWFlPic=

> <r_lp_tautomer_probability>
1

> <r_epik_Ionization_Penalty>
14.1589

> <r_epik_Ionization_Penalty_Charging>
13.7723

> <r_epik_Ionization_Penalty_Neutral>
0.386566

> <r_epik_State_Penalty>
4.88838

> <r_epik_Charging_Adjusted_Penalty>
18.6607

> <i_epik_Tot_Q>
-1

> <i_epik_Tot_abs_Q>
1

> <r_epik_Metal_State_Penalty>
1.30742

> <b_epik_Metal_Only>
1

> <s_lp_Force_Field>
OPLS_2005

> <r_lp_Energy>
24.8818

> <b_lp_Chiralities_Consistent>
1

> <s_lp_Variant>
AV-unprocessed.smi:696-2

> <Gold.Version>
5.8.1

> <Gold.Id.Protein>
6NUR|6NUR_protein|mol2

> <Gold.PLP.Fitness>
45.9484

> <Gold.PLP.PLP>
-38.0046

> <Gold.PLP.part.hbond>
-3.6851

> <Gold.PLP.part.metal>
0.0000

> <Gold.PLP.part.buried>
-3.7344

> <Gold.PLP.part.nonpolar>
-34.2716

> <Gold.PLP.part.repulsive>
1.7636

> <Gold.PLP.ligand.clash>
0.0000

> <Gold.PLP.ligand.torsion>
0.4337

> <Gold.PLP.Chemscore.Hbond>
2.9244

> <Gold.PLP.Chemscore.CHOScore>
0.0000

> <Gold.PLP.Chemscore.Metal>
0.0000

> <Gold.Chemscore.Hbonds>
donor molecule, donor type, donor heavy atom, donor atom, acceptor molecule, acceptor atom, score
      L1  H     3    20       P1  8028  0.96
      L1  H    11    19       P1  7957  0.62
      P1  H  7954  7966       L1    10  1.00
      P1  H  7989  7998       L1     1  0.22

> <Gold.PLP.Chemscore.Internal.Correction>
0.0381

> <Gold.Rescore>
     Score         DG    S(hbond)    S(metal)    S(lipo)     H(rot)  DE(clash)    DE(int)     intcor
     17.71     -19.77       2.88        0.00      89.18       2.25       1.49       0.58       ----

> <Gold.Chemscore.Fitness>
17.7060

> <Gold.Chemscore.DG>
-19.7720

> <Gold.Chemscore.ZeroCoef>
-5.4800

> <Gold.Chemscore.Hbond>
2.8799

> <Gold.Chemscore.Metal>
0.0000

> <Gold.Chemscore.Lipo>
89.1754

> <Gold.Chemscore.Internal_Hbond>
0.0000

> <Gold.Chemscore.DEClash>
1.4888

> <Gold.Chemscore.DEInternal>
0.5772

> <Gold.Chemscore.Rot>
2.2501

> <Gold.Chemscore.Internal.Correction>
   9.000000E+99

> <Gold.Chemscore.Hbonds>
donor molecule, donor type, donor heavy atom, donor atom, acceptor molecule, acceptor atom, score
      L1  H     3    20       P1  8028  0.92
      L1  H    11    19       P1  7957  0.62
      P1  H  7954  7966       L1    10  0.98
      P1  H  7989  7998       L1     1  0.09

> <Gold.Chemscore.Hbond.Weighted>
-9.6188

> <Gold.Chemscore.Metal.Weighted>
-0.0000

> <Gold.Chemscore.Lipo.Weighted>
-10.4335

> <Gold.Chemscore.Internal_Hbond.Weighted>
0.0000

> <Gold.Chemscore.DEClash.Weighted>
1.4888

> <Gold.Chemscore.DEInternal.Weighted>
0.5772

> <Gold.Chemscore.Rot.Weighted>
5.7603

> <Gold.Chemscore.Internal.Correction.Weighted>
   9.000000E+99

> <Gold.Protein.RotatedTorsions>
[ 6907 6896 6895 6894 ] final   47.51 input  -60.11 | X-H torsion
[ 7974 7965 7964 7962 ] final  -87.53 input  175.53 | X-H torsion
[ 8008 7997 7996 7995 ] final  -40.31 input   59.86 | X-H torsion
[ 10167 10162 10161 10158 ] final -138.78 input  -65.29 | X-H torsion
[ 10718 10713 10712 10709 ] final  -32.61 input   66.30 | X-H torsion
[ 10763 10752 10751 10750 ] final   58.99 input  -60.55 | X-H torsion
[ 11005 11000 10999 10996 ] final  -50.56 input  -57.11 | X-H torsion

> <Gold.Protein.ActiveResidues>
 VAL166  LYS551  ARG553  GLY616  TRP617  ASP618  TYR619  PRO620  LYS621  CYS622 
 ASP623  PHE694  ASN695  SER759  ASP760  ASP761  ALA762  ILE779  LEU786  VAL792 
 PHE793  MET794  SER795  GLU796  ALA797  LYS798  CYS799  TRP800  GLU811  SER814 

> <Gold.Protein.RotatedAtoms>
  152.2689  134.7954  160.0417 H   0  0  0  0  0  0  0  0  0  0  0  0  # atno 6907 bound_to 6896
  151.8574  133.3445  159.3701 H   0  0  0  0  0  0  0  0  0  0  0  0  # atno 6908 bound_to 6896
  150.7144  134.5167  159.5678 H   0  0  0  0  0  0  0  0  0  0  0  0  # atno 6909 bound_to 6896
  145.4652  140.9560  143.1947 H   0  0  0  0  0  0  0  0  0  0  0  0  # atno 7974 bound_to 7965
  154.4013  140.1528  156.3006 H   0  0  0  0  0  0  0  0  0  0  0  0  # atno 8008 bound_to 7997
  155.8704  140.3449  155.5795 H   0  0  0  0  0  0  0  0  0  0  0  0  # atno 8009 bound_to 7997
  155.7781  140.0839  157.2064 H   0  0  0  0  0  0  0  0  0  0  0  0  # atno 8010 bound_to 7997
  139.8444  143.7280  152.2661 H   0  0  0  0  0  0  0  0  0  0  0  0  # atno 10167 bound_to 10162
  156.3728  130.4342  149.7531 H   0  0  0  0  0  0  0  0  0  0  0  0  # atno 10718 bound_to 10713
  152.9883  135.5587  154.5641 H   0  0  0  0  0  0  0  0  0  0  0  0  # atno 10763 bound_to 10752
  154.5054  135.2799  155.1388 H   0  0  0  0  0  0  0  0  0  0  0  0  # atno 10764 bound_to 10752
  154.2802  135.6346  153.5397 H   0  0  0  0  0  0  0  0  0  0  0  0  # atno 10765 bound_to 10752
  141.0822  133.6650  156.3749 H   0  0  0  0  0  0  0  0  0  0  0  0  # atno 11005 bound_to 11000
  144.7978  139.6199  143.7085 LP  0  0  0  0  0  0  0  0  0  0  0  0  # atno 17320 bound_to 7965
  146.2428  139.6036  142.9480 LP  0  0  0  0  0  0  0  0  0  0  0  0  # atno 17321 bound_to 7965
  139.7527  144.7529  151.0482 LP  0  0  0  0  0  0  0  0  0  0  0  0  # atno 17342 bound_to 10162
  140.7794  143.4841  150.9979 LP  0  0  0  0  0  0  0  0  0  0  0  0  # atno 17343 bound_to 10162
  156.4652  130.7971  151.2990 LP  0  0  0  0  0  0  0  0  0  0  0  0  # atno 17370 bound_to 10713
  157.7485  131.0053  150.3108 LP  0  0  0  0  0  0  0  0  0  0  0  0  # atno 17371 bound_to 10713
  140.5442  134.6091  157.5389 LP  0  0  0  0  0  0  0  0  0  0  0  0  # atno 17394 bound_to 11000
  139.9637  134.7409  156.0182 LP  0  0  0  0  0  0  0  0  0  0  0  0  # atno 17395 bound_to 11000

$$$$
