AV-unprocessed.smi:917|AV-procd|sdf|4162|dock4
  -GOLD-   22720 2 63D 1   1.00000     0.00000
 Structure written by MMmdl.
 43 44  0  0  0  0  0  0  0  0  1 V2000
  156.0247  139.1673  164.6046 C   0  0  0  0  0  0  0  0  0  0  0  0
  155.8941  137.6713  164.5970 C   0  0  0  0  0  0  0  0  0  0  0  0
  156.7152  136.9389  165.3305 N   0  0  0  0  0  0  0  0  0  0  0  0
  156.3406  135.6097  165.1126 O   0  0  0  0  0  0  0  0  0  0  0  0
  155.2972  135.5934  164.2450 C   0  0  0  0  0  0  0  0  0  0  0  0
  154.7494  134.2524  163.8903 C   0  0  0  0  0  0  0  0  0  0  0  0
  154.9657  136.8682  163.8744 C   0  0  0  0  0  0  0  0  0  0  0  0
  153.8802  137.3289  162.9358 C   0  0  0  0  0  0  0  0  0  0  0  0
  154.5112  137.9322  161.6807 C   0  0  0  0  0  0  0  0  0  0  0  0
  155.3372  137.2863  161.0356 O   0  0  0  0  0  0  0  0  0  0  0  0
  154.1279  139.1768  161.3573 N   0  0  0  0  0  0  0  0  0  0  0  0
  154.6575  139.9530  160.2432 C   0  0  0  0  0  0  0  0  0  0  0  0
  153.5931  140.9045  159.6741 C   0  0  0  0  0  0  0  0  0  0  0  0
  153.2505  142.0483  160.6410 C   0  0  0  0  0  0  0  0  0  0  0  0
  152.3081  143.0994  160.0283 C   0  0  0  0  0  0  0  0  0  0  0  0
  152.7929  143.6425  158.6827 C   0  0  0  0  0  0  0  0  0  0  0  0
  152.0089  144.9421  158.4829 C   0  0  0  0  0  0  0  0  0  0  0  0
  151.6598  145.4486  159.8906 C   0  0  0  0  0  0  0  0  0  0  0  0
  152.1354  144.3682  160.8706 C   0  0  0  0  0  0  0  0  0  0  0  0
  155.0523  139.6428  164.7345 H   0  0  0  0  0  0  0  0  0  0  0  0
  156.4459  139.5250  163.6651 H   0  0  0  0  0  0  0  0  0  0  0  0
  156.6711  139.5130  165.4126 H   0  0  0  0  0  0  0  0  0  0  0  0
  153.7540  134.3378  163.4552 H   0  0  0  0  0  0  0  0  0  0  0  0
  154.6750  133.6183  164.7740 H   0  0  0  0  0  0  0  0  0  0  0  0
  155.3931  133.7521  163.1669 H   0  0  0  0  0  0  0  0  0  0  0  0
  153.2347  136.5028  162.6359 H   0  0  0  0  0  0  0  0  0  0  0  0
  153.2285  138.0614  163.4138 H   0  0  0  0  0  0  0  0  0  0  0  0
  153.4415  139.6295  161.9434 H   0  0  0  0  0  0  0  0  0  0  0  0
  155.5428  140.5093  160.5558 H   0  0  0  0  0  0  0  0  0  0  0  0
  154.9855  139.2567  159.4710 H   0  0  0  0  0  0  0  0  0  0  0  0
  153.9465  141.3199  158.7293 H   0  0  0  0  0  0  0  0  0  0  0  0
  152.6887  140.3402  159.4437 H   0  0  0  0  0  0  0  0  0  0  0  0
  152.8075  141.6388  161.5498 H   0  0  0  0  0  0  0  0  0  0  0  0
  154.1739  142.5407  160.9483 H   0  0  0  0  0  0  0  0  0  0  0  0
  151.3253  142.6506  159.8749 H   0  0  0  0  0  0  0  0  0  0  0  0
  153.8597  143.8662  158.7338 H   0  0  0  0  0  0  0  0  0  0  0  0
  152.6424  142.9359  157.8660 H   0  0  0  0  0  0  0  0  0  0  0  0
  152.5790  145.6743  157.9101 H   0  0  0  0  0  0  0  0  0  0  0  0
  151.0909  144.7379  157.9303 H   0  0  0  0  0  0  0  0  0  0  0  0
  152.1367  146.4058  160.1050 H   0  0  0  0  0  0  0  0  0  0  0  0
  150.5824  145.5962  159.9762 H   0  0  0  0  0  0  0  0  0  0  0  0
  151.4395  144.2275  161.6981 H   0  0  0  0  0  0  0  0  0  0  0  0
  153.0952  144.6647  161.2965 H   0  0  0  0  0  0  0  0  0  0  0  0
  1  2  1  0  0  0  0
  1 20  1  0  0  0  0
  1 21  1  0  0  0  0
  1 22  1  0  0  0  0
  2  7  1  0  0  0  0
  2  3  2  0  0  0  0
  3  4  1  0  0  0  0
  4  5  1  0  0  0  0
  5  6  1  0  0  0  0
  5  7  2  0  0  0  0
  6 23  1  0  0  0  0
  6 24  1  0  0  0  0
  6 25  1  0  0  0  0
  7  8  1  0  0  0  0
  8  9  1  0  0  0  0
  8 26  1  0  0  0  0
  8 27  1  0  0  0  0
  9 10  2  0  0  0  0
  9 11  1  0  0  0  0
 11 12  1  0  0  0  0
 11 28  1  0  0  0  0
 12 13  1  0  0  0  0
 12 29  1  0  0  0  0
 12 30  1  0  0  0  0
 13 14  1  0  0  0  0
 13 31  1  0  0  0  0
 13 32  1  0  0  0  0
 14 15  1  0  0  0  0
 14 33  1  0  0  0  0
 14 34  1  0  0  0  0
 15 19  1  0  0  0  0
 15 16  1  0  0  0  0
 15 35  1  0  0  0  0
 16 17  1  0  0  0  0
 16 36  1  0  0  0  0
 16 37  1  0  0  0  0
 17 18  1  0  0  0  0
 17 38  1  0  0  0  0
 17 39  1  0  0  0  0
 18 19  1  0  0  0  0
 18 40  1  0  0  0  0
 18 41  1  0  0  0  0
 19 42  1  0  0  0  0
 19 43  1  0  0  0  0
M  END
> <s_m_source_file>
AV-unprocessed.smi

> <i_m_source_file_index>
917

> <i_lp_mmshare_version>
43012

> <i_f3d_flags>
0

> <s_epik_input>
W0NIM11jMW5vYyhbQ0gzXSljMVtDSDJdQyg9TylbTkhdW0NIMl1bQ0gyXVtDSDJdW0NIXTJbQ0gyXVtDSDJdW0NIMl1bQ0gyXTI=

> <s_epik_cmdline>
J2VwaWtfcHl0aG9uJywgJy1waCcsICc3LjAnLCAnLXRuJywgJzgnLCAnLW1hJywgJzIwMCcsICctbWV0YWxfYmluZGluZycsICctaW1hZScsICc8aW5maWxlLm1hZT4nLCAnLW9tYWUnLCAnPG91dGZpbGUubWFlPic=

> <r_lp_tautomer_probability>
1

> <r_epik_Ionization_Penalty>
1.90047e-08

> <r_epik_Ionization_Penalty_Charging>
0

> <r_epik_Ionization_Penalty_Neutral>
1.90047e-08

> <r_epik_State_Penalty>
-0

> <r_epik_Charging_Adjusted_Penalty>
0

> <i_epik_Tot_Q>
0

> <i_epik_Tot_abs_Q>
0

> <r_epik_Metal_State_Penalty>
-0

> <b_epik_Metal_Only>
0

> <s_lp_Force_Field>
OPLS_2005

> <r_lp_Energy>
14.8475

> <b_lp_Chiralities_Consistent>
1

> <s_lp_Variant>
AV-unprocessed.smi:917-1

> <Gold.Version>
5.8.1

> <Gold.Id.Protein>
6NUR|6NUR_protein|mol2

> <Gold.PLP.Fitness>
44.9346

> <Gold.PLP.PLP>
-45.5808

> <Gold.PLP.part.hbond>
0.0000

> <Gold.PLP.part.metal>
0.0000

> <Gold.PLP.part.buried>
-5.0498

> <Gold.PLP.part.nonpolar>
-39.7875

> <Gold.PLP.part.repulsive>
0.2028

> <Gold.PLP.ligand.clash>
0.0000

> <Gold.PLP.ligand.torsion>
0.3544

> <Gold.PLP.Chemscore.Hbond>
0.0000

> <Gold.PLP.Chemscore.CHOScore>
0.0000

> <Gold.PLP.Chemscore.Metal>
0.0000

> <Gold.PLP.Chemscore.Internal.Correction>
0.0626

> <Gold.Rescore>
     Score         DG    S(hbond)    S(metal)    S(lipo)     H(rot)  DE(clash)    DE(int)     intcor
     16.27     -16.79       0.00        0.00     132.72       1.65       0.13       0.39       ----

> <Gold.Chemscore.Fitness>
16.2702

> <Gold.Chemscore.DG>
-16.7857

> <Gold.Chemscore.ZeroCoef>
-5.4800

> <Gold.Chemscore.Hbond>
0.0000

> <Gold.Chemscore.Metal>
0.0000

> <Gold.Chemscore.Lipo>
132.7221

> <Gold.Chemscore.Internal_Hbond>
0.0000

> <Gold.Chemscore.DEClash>
0.1266

> <Gold.Chemscore.DEInternal>
0.3890

> <Gold.Chemscore.Rot>
1.6495

> <Gold.Chemscore.Internal.Correction>
   9.000000E+99

> <Gold.Chemscore.Hbond.Weighted>
-0.0000

> <Gold.Chemscore.Metal.Weighted>
-0.0000

> <Gold.Chemscore.Lipo.Weighted>
-15.5285

> <Gold.Chemscore.Internal_Hbond.Weighted>
0.0000

> <Gold.Chemscore.DEClash.Weighted>
0.1266

> <Gold.Chemscore.DEInternal.Weighted>
0.3890

> <Gold.Chemscore.Rot.Weighted>
4.2228

> <Gold.Chemscore.Internal.Correction.Weighted>
   9.000000E+99

> <Gold.Protein.RotatedTorsions>
[ 6907 6896 6895 6894 ] final  -71.92 input  -60.11 | X-H torsion
[ 7974 7965 7964 7962 ] final  -83.67 input  175.53 | X-H torsion
[ 8008 7997 7996 7995 ] final   36.89 input   59.86 | X-H torsion
[ 10167 10162 10161 10158 ] final  176.99 input  -65.29 | X-H torsion
[ 10718 10713 10712 10709 ] final   66.34 input   66.30 | X-H torsion
[ 10763 10752 10751 10750 ] final -112.90 input  -60.55 | X-H torsion
[ 11005 11000 10999 10996 ] final  110.71 input  -57.11 | X-H torsion

> <Gold.Protein.ActiveResidues>
 VAL166  LYS551  ARG553  GLY616  TRP617  ASP618  TYR619  PRO620  LYS621  CYS622 
 ASP623  PHE694  ASN695  SER759  ASP760  ASP761  ALA762  ILE779  LEU786  VAL792 
 PHE793  MET794  SER795  GLU796  ALA797  LYS798  CYS799  TRP800  GLU811  SER814 

> <Gold.Protein.RotatedAtoms>
  150.7192  134.5238  159.5666 H   0  0  0  0  0  0  0  0  0  0  0  0  # atno 6907 bound_to 6896
  152.2787  134.7849  160.0409 H   0  0  0  0  0  0  0  0  0  0  0  0  # atno 6908 bound_to 6896
  151.8504  133.3403  159.3708 H   0  0  0  0  0  0  0  0  0  0  0  0  # atno 6909 bound_to 6896
  145.5169  140.9535  143.1677 H   0  0  0  0  0  0  0  0  0  0  0  0  # atno 7974 bound_to 7965
  155.1948  140.3311  155.4352 H   0  0  0  0  0  0  0  0  0  0  0  0  # atno 8008 bound_to 7997
  156.2429  140.1904  156.6989 H   0  0  0  0  0  0  0  0  0  0  0  0  # atno 8009 bound_to 7997
  154.6181  140.0599  156.9566 H   0  0  0  0  0  0  0  0  0  0  0  0  # atno 8010 bound_to 7997
  139.5236  144.2850  152.0513 H   0  0  0  0  0  0  0  0  0  0  0  0  # atno 10167 bound_to 10162
  157.6163  130.9262  150.0096 H   0  0  0  0  0  0  0  0  0  0  0  0  # atno 10718 bound_to 10713
  154.8371  135.4474  154.1265 H   0  0  0  0  0  0  0  0  0  0  0  0  # atno 10763 bound_to 10752
  153.2487  135.6924  153.7709 H   0  0  0  0  0  0  0  0  0  0  0  0  # atno 10764 bound_to 10752
  153.7030  135.3369  155.3205 H   0  0  0  0  0  0  0  0  0  0  0  0  # atno 10765 bound_to 10752
  139.8888  134.9490  156.6321 H   0  0  0  0  0  0  0  0  0  0  0  0  # atno 11005 bound_to 11000
  144.7697  139.6763  143.7200 LP  0  0  0  0  0  0  0  0  0  0  0  0  # atno 17320 bound_to 7965
  146.2131  139.5501  142.9668 LP  0  0  0  0  0  0  0  0  0  0  0  0  # atno 17321 bound_to 7965
  140.2304  144.4374  150.6302 LP  0  0  0  0  0  0  0  0  0  0  0  0  # atno 17342 bound_to 10162
  140.6359  143.2195  151.6396 LP  0  0  0  0  0  0  0  0  0  0  0  0  # atno 17343 bound_to 10162
  156.1287  130.3644  149.9768 LP  0  0  0  0  0  0  0  0  0  0  0  0  # atno 17370 bound_to 10713
  156.7833  130.9229  151.3646 LP  0  0  0  0  0  0  0  0  0  0  0  0  # atno 17371 bound_to 10713
  140.7659  133.8779  155.8454 LP  0  0  0  0  0  0  0  0  0  0  0  0  # atno 17394 bound_to 11000
  140.9883  134.1313  157.4432 LP  0  0  0  0  0  0  0  0  0  0  0  0  # atno 17395 bound_to 11000

$$$$
