AV-unprocessed.smi:949|AV-procd|sdf|4249|dock9
  -GOLD-   22720 2153D 1   1.00000     0.00000
 Structure written by MMmdl.
 32 33  0  0  0  0  0  0  0  0  1 V2000
  152.8353  139.4675  159.5348 C   0  0  0  0  0  0  0  0  0  0  0  0
  151.9313  139.9762  158.3963 C   0  0  1  0  0  0  0  0  0  0  0  0
  152.3390  141.3156  157.9883 N   0  0  0  0  0  0  0  0  0  0  0  0
  151.9698  142.4761  158.6915 C   0  0  0  0  0  0  0  0  0  0  0  0
  152.4626  142.7794  159.9831 C   0  0  0  0  0  0  0  0  0  0  0  0
  152.0362  143.9644  160.6143 C   0  0  0  0  0  0  0  0  0  0  0  0
  151.1748  144.8372  160.0536 N   0  0  0  0  0  0  0  0  0  0  0  0
  150.7041  144.5495  158.8228 C   0  0  0  0  0  0  0  0  0  0  0  0
  151.0650  143.3925  158.1004 C   0  0  0  0  0  0  0  0  0  0  0  0
  150.5255  143.1796  156.8292 N   0  0  0  0  0  0  0  0  0  0  0  0
  151.9694  139.0332  157.1781 C   0  0  1  0  0  0  0  0  0  0  0  0
  151.1221  139.4856  155.9873 C   0  0  0  0  0  0  0  0  0  0  0  0
  151.7955  138.8259  154.7941 C   0  0  0  0  0  0  0  0  0  0  0  0
  153.1700  138.4118  155.3253 C   0  0  0  0  0  0  0  0  0  0  0  0
  153.2694  139.0155  156.6073 O   0  0  0  0  0  0  0  0  0  0  0  0
  152.5101  138.4918  159.8954 H   0  0  0  0  0  0  0  0  0  0  0  0
  152.8264  140.1427  160.3903 H   0  0  0  0  0  0  0  0  0  0  0  0
  153.8699  139.3713  159.2036 H   0  0  0  0  0  0  0  0  0  0  0  0
  150.9006  140.0124  158.7497 H   0  0  0  0  0  0  0  0  0  0  0  0
  152.8088  141.4161  157.1002 H   0  0  0  0  0  0  0  0  0  0  0  0
  153.1557  142.1337  160.4994 H   0  0  0  0  0  0  0  0  0  0  0  0
  152.3988  144.2177  161.5996 H   0  0  0  0  0  0  0  0  0  0  0  0
  150.0162  145.2681  158.4011 H   0  0  0  0  0  0  0  0  0  0  0  0
  150.7633  142.3616  156.2863 H   0  0  0  0  0  0  0  0  0  0  0  0
  149.9316  143.8659  156.3868 H   0  0  0  0  0  0  0  0  0  0  0  0
  151.6921  138.0170  157.4668 H   0  0  0  0  0  0  0  0  0  0  0  0
  150.0725  139.2068  156.0854 H   0  0  0  0  0  0  0  0  0  0  0  0
  151.1736  140.5699  155.8798 H   0  0  0  0  0  0  0  0  0  0  0  0
  151.2376  137.9526  154.4542 H   0  0  0  0  0  0  0  0  0  0  0  0
  151.8760  139.5203  153.9571 H   0  0  0  0  0  0  0  0  0  0  0  0
  153.2292  137.3278  155.4328 H   0  0  0  0  0  0  0  0  0  0  0  0
  153.9849  138.7345  154.6772 H   0  0  0  0  0  0  0  0  0  0  0  0
  1  2  1  0  0  0  0
  1 16  1  0  0  0  0
  1 17  1  0  0  0  0
  1 18  1  0  0  0  0
  2  3  1  0  0  0  0
  2 11  1  0  0  0  0
  2 19  1  0  0  0  0
  3  4  1  0  0  0  0
  3 20  1  0  0  0  0
  4  9  1  0  0  0  0
  4  5  2  0  0  0  0
  5  6  1  0  0  0  0
  5 21  1  0  0  0  0
  6  7  2  0  0  0  0
  6 22  1  0  0  0  0
  7  8  1  0  0  0  0
  8  9  2  0  0  0  0
  8 23  1  0  0  0  0
  9 10  1  0  0  0  0
 10 24  1  0  0  0  0
 10 25  1  0  0  0  0
 11 15  1  0  0  0  0
 11 12  1  0  0  0  0
 11 26  1  0  0  0  0
 12 13  1  0  0  0  0
 12 27  1  0  0  0  0
 12 28  1  0  0  0  0
 13 14  1  0  0  0  0
 13 29  1  0  0  0  0
 13 30  1  0  0  0  0
 14 15  1  0  0  0  0
 14 31  1  0  0  0  0
 14 32  1  0  0  0  0
M  END
> <s_m_source_file>
AV-unprocessed.smi

> <i_m_source_file_index>
949

> <i_lp_mmshare_version>
43012

> <i_f3d_flags>
0

> <s_epik_input>
TzFbQ0gyXVtDSDJdW0NIMl1bQ0BIXTFbQ0BIXShbQ0gzXSlbTkhdYzJbY0hdW2NIXW5bY0hdYzJbTkgyXQ==

> <s_epik_cmdline>
J2VwaWtfcHl0aG9uJywgJy1waCcsICc3LjAnLCAnLXRuJywgJzgnLCAnLW1hJywgJzIwMCcsICctbWV0YWxfYmluZGluZycsICctaW1hZScsICc8aW5maWxlLm1hZT4nLCAnLW9tYWUnLCAnPG91dGZpbGUubWFlPic=

> <r_epik_Ionization_Penalty>
3.88091

> <r_epik_Ionization_Penalty_Charging>
0

> <r_epik_Ionization_Penalty_Neutral>
3.88091

> <r_epik_State_Penalty>
3.88049

> <r_epik_Charging_Adjusted_Penalty>
3.88049

> <i_epik_Tot_Q>
0

> <i_epik_Tot_abs_Q>
0

> <r_epik_Metal_State_Penalty>
0.313783

> <b_epik_Metal_Only>
1

> <s_lp_Force_Field>
OPLS_2005

> <r_lp_Energy>
24.4145

> <b_lp_Chiralities_Consistent>
1

> <s_lp_Variant>
AV-unprocessed.smi:949-8

> <Gold.Version>
5.8.1

> <Gold.Id.Protein>
6NUR|6NUR_protein|mol2

> <Gold.PLP.Fitness>
36.6582

> <Gold.PLP.PLP>
-29.6045

> <Gold.PLP.part.hbond>
-1.9845

> <Gold.PLP.part.metal>
0.0000

> <Gold.PLP.part.buried>
-3.5483

> <Gold.PLP.part.nonpolar>
-24.7687

> <Gold.PLP.part.repulsive>
0.2361

> <Gold.PLP.ligand.clash>
0.0000

> <Gold.PLP.ligand.torsion>
0.9736

> <Gold.PLP.Chemscore.Hbond>
1.9913

> <Gold.PLP.Chemscore.CHOScore>
1.0000

> <Gold.PLP.Chemscore.Metal>
0.0000

> <Gold.Chemscore.Hbonds>
donor molecule, donor type, donor heavy atom, donor atom, acceptor molecule, acceptor atom, score
      L1  H    10    25       P1  8028  0.98
      P1  H  7997  8009       L1    15  1.00
      L1  C     8    23       P1  8029  1.00

> <Gold.PLP.Chemscore.Internal.Correction>
0.0271

> <Gold.Rescore>
     Score         DG    S(hbond)    S(metal)    S(lipo)     H(rot)  DE(clash)    DE(int)     intcor
     18.59     -19.65       1.97        0.00      91.58       1.22       0.15       0.91       ----

> <Gold.Chemscore.Fitness>
18.5863

> <Gold.Chemscore.DG>
-19.6507

> <Gold.Chemscore.ZeroCoef>
-5.4800

> <Gold.Chemscore.Hbond>
1.9674

> <Gold.Chemscore.Metal>
0.0000

> <Gold.Chemscore.Lipo>
91.5783

> <Gold.Chemscore.Internal_Hbond>
0.0000

> <Gold.Chemscore.DEClash>
0.1531

> <Gold.Chemscore.DEInternal>
0.9113

> <Gold.Chemscore.Rot>
1.2169

> <Gold.Chemscore.Internal.Correction>
   9.000000E+99

> <Gold.Chemscore.Hbonds>
donor molecule, donor type, donor heavy atom, donor atom, acceptor molecule, acceptor atom, score
      L1  H    10    25       P1  8028  0.92
      P1  H  7997  8009       L1    15  0.23

> <Gold.Chemscore.Hbond.Weighted>
-6.5712

> <Gold.Chemscore.Metal.Weighted>
-0.0000

> <Gold.Chemscore.Lipo.Weighted>
-10.7147

> <Gold.Chemscore.Internal_Hbond.Weighted>
0.0000

> <Gold.Chemscore.DEClash.Weighted>
0.1531

> <Gold.Chemscore.DEInternal.Weighted>
0.9113

> <Gold.Chemscore.Rot.Weighted>
3.1152

> <Gold.Chemscore.Internal.Correction.Weighted>
   9.000000E+99

> <Gold.Protein.RotatedTorsions>
[ 6907 6896 6895 6894 ] final   91.43 input  -60.11 | X-H torsion
[ 7974 7965 7964 7962 ] final  -57.27 input  175.53 | X-H torsion
[ 8008 7997 7996 7995 ] final -159.54 input   59.86 | X-H torsion
[ 10167 10162 10161 10158 ] final   19.54 input  -65.29 | X-H torsion
[ 10718 10713 10712 10709 ] final   27.08 input   66.30 | X-H torsion
[ 10763 10752 10751 10750 ] final   17.77 input  -60.55 | X-H torsion
[ 11005 11000 10999 10996 ] final  -23.36 input  -57.11 | X-H torsion

> <Gold.Protein.ActiveResidues>
 VAL166  LYS551  ARG553  GLY616  TRP617  ASP618  TYR619  PRO620  LYS621  CYS622 
 ASP623  PHE694  ASN695  SER759  ASP760  ASP761  ALA762  ILE779  LEU786  VAL792 
 PHE793  MET794  SER795  GLU796  ALA797  LYS798  CYS799  TRP800  GLU811  SER814 

> <Gold.Protein.RotatedAtoms>
  152.5450  134.1659  159.8576 H   0  0  0  0  0  0  0  0  0  0  0  0  # atno 6907 bound_to 6896
  151.1673  133.4800  159.2601 H   0  0  0  0  0  0  0  0  0  0  0  0  # atno 6908 bound_to 6896
  151.1311  135.0142  159.8638 H   0  0  0  0  0  0  0  0  0  0  0  0  # atno 6909 bound_to 6896
  145.8530  140.8339  142.9976 H   0  0  0  0  0  0  0  0  0  0  0  0  # atno 7974 bound_to 7965
  155.7641  140.0843  157.2140 H   0  0  0  0  0  0  0  0  0  0  0  0  # atno 8008 bound_to 7997
  154.4001  140.1537  156.2923 H   0  0  0  0  0  0  0  0  0  0  0  0  # atno 8009 bound_to 7997
  155.8810  140.3420  155.5891 H   0  0  0  0  0  0  0  0  0  0  0  0  # atno 8010 bound_to 7997
  140.5571  143.9405  150.6617 H   0  0  0  0  0  0  0  0  0  0  0  0  # atno 10167 bound_to 10162
  157.2155  130.6954  149.6247 H   0  0  0  0  0  0  0  0  0  0  0  0  # atno 10718 bound_to 10713
  153.1309  135.6740  153.9180 H   0  0  0  0  0  0  0  0  0  0  0  0  # atno 10763 bound_to 10752
  153.8667  135.3074  155.3441 H   0  0  0  0  0  0  0  0  0  0  0  0  # atno 10764 bound_to 10752
  154.7706  135.4941  153.9723 H   0  0  0  0  0  0  0  0  0  0  0  0  # atno 10765 bound_to 10752
  140.8744  133.7697  156.0226 H   0  0  0  0  0  0  0  0  0  0  0  0  # atno 11005 bound_to 11000
  144.6728  140.0981  143.7462 LP  0  0  0  0  0  0  0  0  0  0  0  0  # atno 17320 bound_to 7965
  145.9336  139.2622  143.1310 LP  0  0  0  0  0  0  0  0  0  0  0  0  # atno 17321 bound_to 7965
  140.2846  143.3366  152.1119 LP  0  0  0  0  0  0  0  0  0  0  0  0  # atno 17342 bound_to 10162
  139.5053  144.6792  151.6052 LP  0  0  0  0  0  0  0  0  0  0  0  0  # atno 17343 bound_to 10162
  155.9687  130.4537  150.5822 LP  0  0  0  0  0  0  0  0  0  0  0  0  # atno 17370 bound_to 10713
  157.3629  131.0753  151.1621 LP  0  0  0  0  0  0  0  0  0  0  0  0  # atno 17371 bound_to 10713
  140.8535  134.2926  157.5265 LP  0  0  0  0  0  0  0  0  0  0  0  0  # atno 17394 bound_to 11000
  139.8714  134.9480  156.3984 LP  0  0  0  0  0  0  0  0  0  0  0  0  # atno 17395 bound_to 11000

$$$$
