AV-unprocessed.smi:1703|AV-procd|sdf|6857|dock2
  -GOLD-   22720 8 43D 1   1.00000     0.00000
 Structure written by MMmdl.
 48 50  0  0  0  0  0  0  0  0  1 V2000
  146.4525  138.6064  152.4654 C   0  0  0  0  0  0  0  0  0  0  0  0
  147.1221  139.4446  153.5594 C   0  0  1  0  0  0  0  0  0  0  0  0
  148.5824  139.0226  153.8012 C   0  0  0  0  0  0  0  0  0  0  0  0
  149.2382  139.8737  154.7854 N   0  0  0  0  0  0  0  0  0  0  0  0
  150.6083  139.4294  155.0396 C   0  0  0  0  0  0  0  0  0  0  0  0
  151.4040  140.3037  156.0323 C   0  0  2  0  0  0  0  0  0  0  0  0
  152.7002  139.7592  156.1914 O   0  0  0  0  0  0  0  0  0  0  0  0
  150.7189  140.3766  157.4125 C   0  0  0  0  0  0  0  0  0  0  0  0
  151.5262  141.0671  158.4102 N   0  0  0  0  0  0  0  0  0  0  0  0
  152.4863  140.5438  159.2141 C   0  0  0  0  0  0  0  0  0  0  0  0
  152.8509  139.0870  159.1509 C   0  0  0  0  0  0  0  0  0  0  0  0
  154.1702  138.8426  158.7061 O   0  0  0  0  0  0  0  0  0  0  0  0
  153.0787  141.4079  160.0418 N   0  0  0  0  0  0  0  0  0  0  0  0
  152.4455  142.5990  159.7467 C   0  0  0  0  0  0  0  0  0  0  0  0
  152.6268  143.8930  160.2852 C   0  0  0  0  0  0  0  0  0  0  0  0
  151.8525  144.9754  159.8182 C   0  0  0  0  0  0  0  0  0  0  0  0
  150.8891  144.7799  158.8076 C   0  0  0  0  0  0  0  0  0  0  0  0
  150.6933  143.4986  158.2571 C   0  0  0  0  0  0  0  0  0  0  0  0
  151.4681  142.4211  158.7274 C   0  0  0  0  0  0  0  0  0  0  0  0
  149.1737  141.2616  154.3332 C   0  0  0  0  0  0  0  0  0  0  0  0
  147.7329  141.7266  154.0419 C   0  0  2  0  0  0  0  0  0  0  0  0
  146.9043  141.9712  155.3147 C   0  0  0  0  0  0  0  0  0  0  0  0
  147.0858  140.8121  153.1554 O   0  0  0  0  0  0  0  0  0  0  0  0
  146.4371  137.5501  152.7352 H   0  0  0  0  0  0  0  0  0  0  0  0
  146.9792  138.7021  151.5153 H   0  0  0  0  0  0  0  0  0  0  0  0
  145.4214  138.9237  152.3085 H   0  0  0  0  0  0  0  0  0  0  0  0
  146.5511  139.3238  154.4805 H   0  0  0  0  0  0  0  0  0  0  0  0
  148.6028  137.9858  154.1391 H   0  0  0  0  0  0  0  0  0  0  0  0
  149.1333  139.0544  152.8596 H   0  0  0  0  0  0  0  0  0  0  0  0
  150.5516  138.4250  155.4616 H   0  0  0  0  0  0  0  0  0  0  0  0
  151.1553  139.3151  154.1020 H   0  0  0  0  0  0  0  0  0  0  0  0
  151.5029  141.3137  155.6336 H   0  0  0  0  0  0  0  0  0  0  0  0
  152.6301  138.9509  156.6753 H   0  0  0  0  0  0  0  0  0  0  0  0
  149.7582  140.8854  157.3310 H   0  0  0  0  0  0  0  0  0  0  0  0
  150.4958  139.3733  157.7780 H   0  0  0  0  0  0  0  0  0  0  0  0
  152.7379  138.6408  160.1384 H   0  0  0  0  0  0  0  0  0  0  0  0
  152.1590  138.5768  158.4801 H   0  0  0  0  0  0  0  0  0  0  0  0
  154.7475  138.8595  159.4538 H   0  0  0  0  0  0  0  0  0  0  0  0
  153.3625  144.0527  161.0596 H   0  0  0  0  0  0  0  0  0  0  0  0
  151.9988  145.9601  160.2375 H   0  0  0  0  0  0  0  0  0  0  0  0
  150.2999  145.6139  158.4554 H   0  0  0  0  0  0  0  0  0  0  0  0
  149.9549  143.3465  157.4844 H   0  0  0  0  0  0  0  0  0  0  0  0
  149.6154  141.9255  155.0761 H   0  0  0  0  0  0  0  0  0  0  0  0
  149.7709  141.3741  153.4270 H   0  0  0  0  0  0  0  0  0  0  0  0
  147.7894  142.6781  153.5125 H   0  0  0  0  0  0  0  0  0  0  0  0
  147.3547  142.7543  155.9250 H   0  0  0  0  0  0  0  0  0  0  0  0
  146.8311  141.0783  155.9351 H   0  0  0  0  0  0  0  0  0  0  0  0
  145.8918  142.2889  155.0650 H   0  0  0  0  0  0  0  0  0  0  0  0
  1  2  1  0  0  0  0
  1 24  1  0  0  0  0
  1 25  1  0  0  0  0
  1 26  1  0  0  0  0
  2 23  1  0  0  0  0
  2  3  1  0  0  0  0
  2 27  1  0  0  0  0
  3  4  1  0  0  0  0
  3 28  1  0  0  0  0
  3 29  1  0  0  0  0
  4  5  1  0  0  0  0
  4 20  1  0  0  0  0
  5  6  1  0  0  0  0
  5 30  1  0  0  0  0
  5 31  1  0  0  0  0
  6  7  1  0  0  0  0
  6  8  1  0  0  0  0
  6 32  1  0  0  0  0
  7 33  1  0  0  0  0
  8  9  1  0  0  0  0
  8 34  1  0  0  0  0
  8 35  1  0  0  0  0
  9 19  1  0  0  0  0
  9 10  1  0  0  0  0
 10 11  1  0  0  0  0
 10 13  2  0  0  0  0
 11 12  1  0  0  0  0
 11 36  1  0  0  0  0
 11 37  1  0  0  0  0
 12 38  1  0  0  0  0
 13 14  1  0  0  0  0
 14 19  2  0  0  0  0
 14 15  1  0  0  0  0
 15 16  2  0  0  0  0
 15 39  1  0  0  0  0
 16 17  1  0  0  0  0
 16 40  1  0  0  0  0
 17 18  2  0  0  0  0
 17 41  1  0  0  0  0
 18 19  1  0  0  0  0
 18 42  1  0  0  0  0
 20 21  1  0  0  0  0
 20 43  1  0  0  0  0
 20 44  1  0  0  0  0
 21 22  1  0  0  0  0
 21 23  1  0  0  0  0
 21 45  1  0  0  0  0
 22 46  1  0  0  0  0
 22 47  1  0  0  0  0
 22 48  1  0  0  0  0
M  END
> <s_m_source_file>
AV-unprocessed.smi

> <i_m_source_file_index>
1703

> <i_lp_mmshare_version>
43012

> <i_f3d_flags>
0

> <s_epik_input>
W0NIM11bQ0BASF0xW0NIMl1OKFtDSDJdW0NASF0oTzEpW0NIM10pW0NIMl1bQ0BIXShbT0hdKVtDSDJdbihjKG4yKVtDSDJdW09IXSljKGMyMylbY0hdW2NIXVtjSF1bY0hdMw==

> <s_epik_cmdline>
J2VwaWtfcHl0aG9uJywgJy1waCcsICc3LjAnLCAnLXRuJywgJzgnLCAnLW1hJywgJzIwMCcsICctbWV0YWxfYmluZGluZycsICctaW1hZScsICc8aW5maWxlLm1hZT4nLCAnLW9tYWUnLCAnPG91dGZpbGUubWFlPic=

> <r_epik_Ionization_Penalty>
0.307685

> <r_epik_Ionization_Penalty_Charging>
0

> <r_epik_Ionization_Penalty_Neutral>
0.307685

> <r_epik_State_Penalty>
0.277856

> <r_epik_Charging_Adjusted_Penalty>
0.277856

> <i_epik_Tot_Q>
0

> <i_epik_Tot_abs_Q>
0

> <r_epik_Metal_State_Penalty>
0.238959

> <b_epik_Metal_Only>
0

> <s_lp_Force_Field>
OPLS_2005

> <r_lp_Energy>
32.6891

> <b_lp_Chiralities_Consistent>
1

> <s_lp_Variant>
AV-unprocessed.smi:1703-5

> <Gold.Version>
5.8.1

> <Gold.Id.Protein>
6NUR|6NUR_protein|mol2

> <Gold.PLP.Fitness>
52.1358

> <Gold.PLP.PLP>
-47.8409

> <Gold.PLP.part.hbond>
-2.0000

> <Gold.PLP.part.metal>
0.0000

> <Gold.PLP.part.buried>
-3.6902

> <Gold.PLP.part.nonpolar>
-42.1332

> <Gold.PLP.part.repulsive>
0.2675

> <Gold.PLP.ligand.clash>
0.0000

> <Gold.PLP.ligand.torsion>
0.4222

> <Gold.PLP.Chemscore.Hbond>
1.6400

> <Gold.PLP.Chemscore.CHOScore>
0.0000

> <Gold.PLP.Chemscore.Metal>
0.0000

> <Gold.Chemscore.Hbonds>
donor molecule, donor type, donor heavy atom, donor atom, acceptor molecule, acceptor atom, score
      P1  H  7997  8009       L1    12  0.85
      P1  H  7997  8010       L1     7  0.67

> <Gold.PLP.Chemscore.Internal.Correction>
0.2194

> <Gold.Rescore>
     Score         DG    S(hbond)    S(metal)    S(lipo)     H(rot)  DE(clash)    DE(int)     intcor
     16.05     -16.66       1.26        0.00     122.56       2.88       0.16       0.46       ----

> <Gold.Chemscore.Fitness>
16.0456

> <Gold.Chemscore.DG>
-16.6596

> <Gold.Chemscore.ZeroCoef>
-5.4800

> <Gold.Chemscore.Hbond>
1.2596

> <Gold.Chemscore.Metal>
0.0000

> <Gold.Chemscore.Lipo>
122.5623

> <Gold.Chemscore.Internal_Hbond>
0.0000

> <Gold.Chemscore.DEClash>
0.1573

> <Gold.Chemscore.DEInternal>
0.4567

> <Gold.Chemscore.Rot>
2.8778

> <Gold.Chemscore.Internal.Correction>
   9.000000E+99

> <Gold.Chemscore.Hbonds>
donor molecule, donor type, donor heavy atom, donor atom, acceptor molecule, acceptor atom, score
      P1  H  7997  8009       L1    12  0.24
      P1  H  7997  8010       L1     7  0.54

> <Gold.Chemscore.Hbond.Weighted>
-4.2069

> <Gold.Chemscore.Metal.Weighted>
-0.0000

> <Gold.Chemscore.Lipo.Weighted>
-14.3398

> <Gold.Chemscore.Internal_Hbond.Weighted>
0.0000

> <Gold.Chemscore.DEClash.Weighted>
0.1573

> <Gold.Chemscore.DEInternal.Weighted>
0.4567

> <Gold.Chemscore.Rot.Weighted>
7.3671

> <Gold.Chemscore.Internal.Correction.Weighted>
   9.000000E+99

> <Gold.Protein.RotatedTorsions>
[ 6907 6896 6895 6894 ] final    1.54 input  -60.11 | X-H torsion
[ 7974 7965 7964 7962 ] final -110.28 input  175.53 | X-H torsion
[ 8008 7997 7996 7995 ] final  110.71 input   59.86 | X-H torsion
[ 10167 10162 10161 10158 ] final   -2.90 input  -65.29 | X-H torsion
[ 10718 10713 10712 10709 ] final  105.04 input   66.30 | X-H torsion
[ 10763 10752 10751 10750 ] final  108.93 input  -60.55 | X-H torsion
[ 11005 11000 10999 10996 ] final -110.18 input  -57.11 | X-H torsion

> <Gold.Protein.ActiveResidues>
 VAL166  LYS551  ARG553  GLY616  TRP617  ASP618  TYR619  PRO620  LYS621  CYS622 
 ASP623  PHE694  ASN695  SER759  ASP760  ASP761  ALA762  ILE779  LEU786  VAL792 
 PHE793  MET794  SER795  GLU796  ALA797  LYS798  CYS799  TRP800  GLU811  SER814 

> <Gold.Protein.RotatedAtoms>
  151.5944  135.1051  160.0045 H   0  0  0  0  0  0  0  0  0  0  0  0  # atno 6907 bound_to 6896
  152.4290  133.7240  159.6560 H   0  0  0  0  0  0  0  0  0  0  0  0  # atno 6908 bound_to 6896
  150.8181  133.8230  159.3174 H   0  0  0  0  0  0  0  0  0  0  0  0  # atno 6909 bound_to 6896
  145.1701  140.8921  143.3540 H   0  0  0  0  0  0  0  0  0  0  0  0  # atno 7974 bound_to 7965
  156.2072  140.3033  155.9653 H   0  0  0  0  0  0  0  0  0  0  0  0  # atno 8008 bound_to 7997
  155.2812  140.0438  157.3032 H   0  0  0  0  0  0  0  0  0  0  0  0  # atno 8009 bound_to 7997
  154.5650  140.2331  155.8286 H   0  0  0  0  0  0  0  0  0  0  0  0  # atno 8010 bound_to 7997
  140.6869  143.6603  150.8272 H   0  0  0  0  0  0  0  0  0  0  0  0  # atno 10167 bound_to 10162
  157.6719  131.0818  150.5796 H   0  0  0  0  0  0  0  0  0  0  0  0  # atno 10718 bound_to 10713
  153.4276  135.3796  155.2150 H   0  0  0  0  0  0  0  0  0  0  0  0  # atno 10763 bound_to 10752
  154.8748  135.3832  154.4307 H   0  0  0  0  0  0  0  0  0  0  0  0  # atno 10764 bound_to 10752
  153.4835  135.7088  153.5987 H   0  0  0  0  0  0  0  0  0  0  0  0  # atno 10765 bound_to 10752
  141.0806  133.9226  157.2296 H   0  0  0  0  0  0  0  0  0  0  0  0  # atno 11005 bound_to 11000
  145.0241  139.3398  143.6057 LP  0  0  0  0  0  0  0  0  0  0  0  0  # atno 17320 bound_to 7965
  146.3470  139.9553  142.8724 LP  0  0  0  0  0  0  0  0  0  0  0  0  # atno 17321 bound_to 7965
  140.0311  143.5443  152.2759 LP  0  0  0  0  0  0  0  0  0  0  0  0  # atno 17342 bound_to 10162
  139.6236  144.7633  151.2688 LP  0  0  0  0  0  0  0  0  0  0  0  0  # atno 17343 bound_to 10162
  156.6097  130.4376  149.5864 LP  0  0  0  0  0  0  0  0  0  0  0  0  # atno 17370 bound_to 10713
  156.2440  130.6868  151.1583 LP  0  0  0  0  0  0  0  0  0  0  0  0  # atno 17371 bound_to 10713
  139.9620  135.0152  156.9286 LP  0  0  0  0  0  0  0  0  0  0  0  0  # atno 17394 bound_to 11000
  140.5476  134.0658  155.7359 LP  0  0  0  0  0  0  0  0  0  0  0  0  # atno 17395 bound_to 11000

$$$$
