AV-unprocessed.smi:2784|AV-procd|sdf|10733|dock3
  -GOLD-   2272015173D 1   1.00000     0.00000
 Structure written by MMmdl.
 32 33  0  0  0  0  0  0  0  0  2 V2000
  153.0259  141.2483  160.9099 C   0  0  0  0  0  0  0  0  0  0  0  0
  152.8048  141.5884  159.5503 O   0  0  0  0  0  0  0  0  0  0  0  0
  151.9609  142.7178  159.3710 C   0  0  1  0  0  0  0  0  0  0  0  0
  152.2787  143.8465  160.3605 C   0  0  0  0  0  0  0  0  0  0  0  0
  151.9010  145.1205  159.6139 C   0  0  0  0  0  0  0  0  0  0  0  0
  152.3339  144.8444  158.1749 C   0  0  0  0  0  0  0  0  0  0  0  0
  152.1759  143.3243  157.9676 C   0  0  2  0  0  0  0  0  0  0  0  0
  151.0422  143.0232  157.0962 N   0  0  0  0  0  0  0  0  0  0  0  0
  150.6516  141.7901  156.7426 C   0  0  0  0  0  0  0  0  0  0  0  0
  151.2211  140.7616  157.1091 O   0  0  0  0  0  0  0  0  0  0  0  0
  149.5737  141.8222  155.9444 N   0  0  0  0  0  0  0  0  0  0  0  0
  148.9196  140.6949  155.3963 C   0  0  0  0  0  0  0  0  0  0  0  0
  147.6023  140.6115  155.2177 N   0  3  0  0  0  0  0  0  0  0  0  0
  147.3088  139.3883  154.6676 C   0  0  0  0  0  0  0  0  0  0  0  0
  148.5141  138.7434  154.5261 C   0  0  0  0  0  0  0  0  0  0  0  0
  149.5367  139.5526  154.9798 O   0  0  0  0  0  0  0  0  0  0  0  0
  153.6495  140.3561  160.9644 H   0  0  0  0  0  0  0  0  0  0  0  0
  152.0871  141.0317  161.4210 H   0  0  0  0  0  0  0  0  0  0  0  0
  153.5406  142.0463  161.4457 H   0  0  0  0  0  0  0  0  0  0  0  0
  150.9148  142.4267  159.4893 H   0  0  0  0  0  0  0  0  0  0  0  0
  151.7468  143.7408  161.3065 H   0  0  0  0  0  0  0  0  0  0  0  0
  153.3475  143.8607  160.5788 H   0  0  0  0  0  0  0  0  0  0  0  0
  150.8205  145.2654  159.6539 H   0  0  0  0  0  0  0  0  0  0  0  0
  152.3744  146.0095  160.0320 H   0  0  0  0  0  0  0  0  0  0  0  0
  151.7733  145.4456  157.4577 H   0  0  0  0  0  0  0  0  0  0  0  0
  153.3851  145.1125  158.0601 H   0  0  0  0  0  0  0  0  0  0  0  0
  153.0925  142.9261  157.5273 H   0  0  0  0  0  0  0  0  0  0  0  0
  150.5174  143.8131  156.7500 H   0  0  0  0  0  0  0  0  0  0  0  0
  146.9015  141.3086  155.4365 H   0  0  0  0  0  0  0  0  0  0  0  0
  146.2921  139.1035  154.4368 H   0  0  0  0  0  0  0  0  0  0  0  0
  148.8017  137.7734  154.1469 H   0  0  0  0  0  0  0  0  0  0  0  0
  149.1907  142.7258  155.7094 H   0  0  0  0  0  0  0  0  0  0  0  0
  1  2  1  0  0  0  0
  1 17  1  0  0  0  0
  1 18  1  0  0  0  0
  1 19  1  0  0  0  0
  2  3  1  0  0  0  0
  3  7  1  0  0  0  0
  3  4  1  0  0  0  0
  3 20  1  0  0  0  0
  4  5  1  0  0  0  0
  4 21  1  0  0  0  0
  4 22  1  0  0  0  0
  5  6  1  0  0  0  0
  5 23  1  0  0  0  0
  5 24  1  0  0  0  0
  6  7  1  0  0  0  0
  6 25  1  0  0  0  0
  6 26  1  0  0  0  0
  7  8  1  0  0  0  0
  7 27  1  0  0  0  0
  8 28  1  0  0  0  0
  8  9  1  0  0  0  0
  9 11  1  0  0  0  0
  9 10  2  0  0  0  0
 11 12  1  0  0  0  0
 11 32  1  0  0  0  0
 12 16  1  0  0  0  0
 12 13  2  0  0  0  0
 13 29  1  0  0  0  0
 13 14  1  0  0  0  0
 14 30  1  0  0  0  0
 14 15  2  0  0  0  0
 15 31  1  0  0  0  0
 15 16  1  0  0  0  0
M  CHG  1  13   1
M  END
> <s_m_source_file>
AV-unprocessed.smi

> <i_m_source_file_index>
2784

> <i_lp_mmshare_version>
43012

> <i_f3d_flags>
0

> <s_epik_input>
W0NIM11PW0NAQEhdMVtDSDJdW0NIMl1bQ0gyXVtDQEhdMVtOSF1DKD1PKVtOSF1jMm5bY0hdW2NIXW8y

> <s_epik_cmdline>
J2VwaWtfcHl0aG9uJywgJy1waCcsICc3LjAnLCAnLXRuJywgJzgnLCAnLW1hJywgJzIwMCcsICctbWV0YWxfYmluZGluZycsICctaW1hZScsICc8aW5maWxlLm1hZT4nLCAnLW9tYWUnLCAnPG91dGZpbGUubWFlPic=

> <r_epik_Ionization_Penalty>
6.73843

> <r_epik_Ionization_Penalty_Charging>
6.66704

> <r_epik_Ionization_Penalty_Neutral>
0.0713889

> <r_epik_State_Penalty>
1.94951

> <r_epik_Charging_Adjusted_Penalty>
8.61656

> <i_epik_Tot_Q>
1

> <i_epik_Tot_abs_Q>
1

> <r_epik_Metal_State_Penalty>
1.97013

> <b_epik_Metal_Only>
0

> <s_lp_Force_Field>
OPLS_2005

> <r_lp_Energy>
26.913

> <b_lp_Chiralities_Consistent>
1

> <s_lp_Variant>
AV-unprocessed.smi:2784-8

> <Gold.Version>
5.8.1

> <Gold.Id.Protein>
6NUR|6NUR_protein|mol2

> <Gold.PLP.Fitness>
45.3637

> <Gold.PLP.PLP>
-34.1604

> <Gold.PLP.part.hbond>
-3.0000

> <Gold.PLP.part.metal>
0.0000

> <Gold.PLP.part.buried>
-3.4041

> <Gold.PLP.part.nonpolar>
-28.0049

> <Gold.PLP.part.repulsive>
0.3308

> <Gold.PLP.ligand.clash>
0.0000

> <Gold.PLP.ligand.torsion>
0.4311

> <Gold.PLP.Chemscore.Hbond>
2.9920

> <Gold.PLP.Chemscore.CHOScore>
1.0277

> <Gold.PLP.Chemscore.Metal>
0.0000

> <Gold.Chemscore.Hbonds>
donor molecule, donor type, donor heavy atom, donor atom, acceptor molecule, acceptor atom, score
      L1  H     8    28       P1  8028  0.71
      L1  H    11    32       P1  8028  1.00
      L1  C    15    31       P1  7948  0.46

> <Gold.PLP.Chemscore.Internal.Correction>
0.0065

> <Gold.Rescore>
     Score         DG    S(hbond)    S(metal)    S(lipo)     H(rot)  DE(clash)    DE(int)     intcor
     13.97     -18.18       1.96        0.00      81.92       1.34       0.11       4.10       ----

> <Gold.Chemscore.Fitness>
13.9671

> <Gold.Chemscore.DG>
-18.1811

> <Gold.Chemscore.ZeroCoef>
-5.4800

> <Gold.Chemscore.Hbond>
1.9564

> <Gold.Chemscore.Metal>
0.0000

> <Gold.Chemscore.Lipo>
81.9179

> <Gold.Chemscore.Internal_Hbond>
0.0000

> <Gold.Chemscore.DEClash>
0.1144

> <Gold.Chemscore.DEInternal>
4.0996

> <Gold.Chemscore.Rot>
1.3351

> <Gold.Chemscore.Internal.Correction>
   9.000000E+99

> <Gold.Chemscore.Hbonds>
donor molecule, donor type, donor heavy atom, donor atom, acceptor molecule, acceptor atom, score
      L1  H     8    28       P1  8028  0.69
      L1  H    11    32       P1  8028  0.94

> <Gold.Chemscore.Hbond.Weighted>
-6.5344

> <Gold.Chemscore.Metal.Weighted>
-0.0000

> <Gold.Chemscore.Lipo.Weighted>
-9.5844

> <Gold.Chemscore.Internal_Hbond.Weighted>
0.0000

> <Gold.Chemscore.DEClash.Weighted>
0.1144

> <Gold.Chemscore.DEInternal.Weighted>
4.0996

> <Gold.Chemscore.Rot.Weighted>
3.4177

> <Gold.Chemscore.Internal.Correction.Weighted>
   9.000000E+99

> <Gold.Protein.RotatedTorsions>
[ 6907 6896 6895 6894 ] final  -32.36 input  -60.11 | X-H torsion
[ 7974 7965 7964 7962 ] final -151.52 input  175.53 | X-H torsion
[ 8008 7997 7996 7995 ] final -119.89 input   59.86 | X-H torsion
[ 10167 10162 10161 10158 ] final  104.41 input  -65.29 | X-H torsion
[ 10718 10713 10712 10709 ] final -152.11 input   66.30 | X-H torsion
[ 10763 10752 10751 10750 ] final   86.82 input  -60.55 | X-H torsion
[ 11005 11000 10999 10996 ] final  -18.95 input  -57.11 | X-H torsion

> <Gold.Protein.ActiveResidues>
 VAL166  LYS551  ARG553  GLY616  TRP617  ASP618  TYR619  PRO620  LYS621  CYS622 
 ASP623  PHE694  ASN695  SER759  ASP760  ASP761  ALA762  ILE779  LEU786  VAL792 
 PHE793  MET794  SER795  GLU796  ALA797  LYS798  CYS799  TRP800  GLU811  SER814 

> <Gold.Protein.RotatedAtoms>
  151.0798  134.9851  159.8350 H   0  0  0  0  0  0  0  0  0  0  0  0  # atno 6907 bound_to 6896
  152.5418  134.2195  159.8792 H   0  0  0  0  0  0  0  0  0  0  0  0  # atno 6908 bound_to 6896
  151.2225  133.4451  159.2634 H   0  0  0  0  0  0  0  0  0  0  0  0  # atno 6909 bound_to 6896
  144.7845  140.4786  143.5816 H   0  0  0  0  0  0  0  0  0  0  0  0  # atno 7974 bound_to 7965
  155.1230  140.0399  157.2755 H   0  0  0  0  0  0  0  0  0  0  0  0  # atno 8008 bound_to 7997
  154.6599  140.2588  155.7094 H   0  0  0  0  0  0  0  0  0  0  0  0  # atno 8009 bound_to 7997
  156.2614  140.2819  156.1067 H   0  0  0  0  0  0  0  0  0  0  0  0  # atno 8010 bound_to 7997
  139.7180  144.7064  151.0919 H   0  0  0  0  0  0  0  0  0  0  0  0  # atno 10167 bound_to 10162
  156.4682  130.8246  151.2476 H   0  0  0  0  0  0  0  0  0  0  0  0  # atno 10718 bound_to 10713
  153.1608  135.4566  154.9769 H   0  0  0  0  0  0  0  0  0  0  0  0  # atno 10763 bound_to 10752
  154.7896  135.3216  154.7810 H   0  0  0  0  0  0  0  0  0  0  0  0  # atno 10764 bound_to 10752
  153.8300  135.6939  153.4870 H   0  0  0  0  0  0  0  0  0  0  0  0  # atno 10765 bound_to 10752
  140.8318  133.7991  155.9767 H   0  0  0  0  0  0  0  0  0  0  0  0  # atno 11005 bound_to 11000
  145.5959  139.1499  143.3156 LP  0  0  0  0  0  0  0  0  0  0  0  0  # atno 17320 bound_to 7965
  146.2070  140.6083  142.9076 LP  0  0  0  0  0  0  0  0  0  0  0  0  # atno 17321 bound_to 7965
  140.7748  143.5204  150.9543 LP  0  0  0  0  0  0  0  0  0  0  0  0  # atno 17342 bound_to 10162
  139.8890  143.6976  152.3147 LP  0  0  0  0  0  0  0  0  0  0  0  0  # atno 17343 bound_to 10162
  157.7493  131.0085  150.3230 LP  0  0  0  0  0  0  0  0  0  0  0  0  # atno 17370 bound_to 10713
  156.3646  130.3853  149.7224 LP  0  0  0  0  0  0  0  0  0  0  0  0  # atno 17371 bound_to 10713
  140.8990  134.2402  157.5052 LP  0  0  0  0  0  0  0  0  0  0  0  0  # atno 17394 bound_to 11000
  139.8705  134.9697  156.4676 LP  0  0  0  0  0  0  0  0  0  0  0  0  # atno 17395 bound_to 11000

$$$$
