AV-unprocessed.smi:514|AV-procd|sdf|2779|dock1
  -GOLD-   2262023253D 1   1.00000     0.00000
 Structure written by MMmdl.
 44 46  0  0  0  0  0  0  0  0  2 V2000
  148.2928  141.5629  154.1901 C   0  0  0  0  0  0  0  0  0  0  0  0
  148.8613  140.7823  155.3835 C   0  0  0  0  0  0  0  0  0  0  0  0
  149.9527  141.4638  155.9859 O   0  0  0  0  0  0  0  0  0  0  0  0
  150.5727  140.7480  157.0437 C   0  0  0  0  0  0  0  0  0  0  0  0
  151.9849  141.3161  157.2576 C   0  0  0  0  0  0  0  0  0  0  0  0
  152.5982  140.8225  158.4876 N   0  0  0  0  0  0  0  0  0  0  0  0
  152.9716  141.5195  159.6000 C   0  0  0  0  0  0  0  0  0  0  0  0
  152.8314  142.9078  159.7298 N   0  0  0  0  0  0  0  0  0  0  0  0
  152.5415  143.5812  160.9951 C   0  0  0  0  0  0  0  0  0  0  0  0
  151.3703  144.5719  160.8415 C   0  0  0  0  0  0  0  0  0  0  0  0
  151.7185  145.5998  159.8673 N   0  0  0  0  0  0  0  0  0  0  0  0
  151.9969  144.9498  158.5920 C   0  0  0  0  0  0  0  0  0  0  0  0
  153.1635  143.9572  158.7649 C   0  0  0  0  0  0  0  0  0  0  0  0
  153.4543  140.7581  160.5852 N   0  0  0  0  0  0  0  0  0  0  0  0
  153.4060  139.4793  160.0560 C   0  0  0  0  0  0  0  0  0  0  0  0
  152.8845  139.4883  158.8012 C   0  0  0  0  0  0  0  0  0  0  0  0
  152.6729  138.2658  157.9925 C   0  0  0  0  0  0  0  0  0  0  0  0
  152.1813  138.3243  156.8674 O   0  0  0  0  0  0  0  0  0  0  0  0
  153.0774  137.1332  158.6501 N   0  5  0  0  0  0  0  0  0  0  0  0
  153.6147  137.0809  159.9183 C   0  0  0  0  0  0  0  0  0  0  0  0
  153.9458  136.0156  160.4405 O   0  0  0  0  0  0  0  0  0  0  0  0
  153.7895  138.2375  160.6313 N   0  0  0  0  0  0  0  0  0  0  0  0
  154.3599  138.2142  161.9813 C   0  0  0  0  0  0  0  0  0  0  0  0
  147.3996  141.0737  153.8016 H   0  0  0  0  0  0  0  0  0  0  0  0
  149.0074  141.6326  153.3708 H   0  0  0  0  0  0  0  0  0  0  0  0
  148.0165  142.5761  154.4827 H   0  0  0  0  0  0  0  0  0  0  0  0
  148.0823  140.6812  156.1391 H   0  0  0  0  0  0  0  0  0  0  0  0
  149.1435  139.7693  155.0933 H   0  0  0  0  0  0  0  0  0  0  0  0
  149.9795  140.8427  157.9531 H   0  0  0  0  0  0  0  0  0  0  0  0
  150.6214  139.6854  156.8115 H   0  0  0  0  0  0  0  0  0  0  0  0
  152.6269  141.0814  156.4116 H   0  0  0  0  0  0  0  0  0  0  0  0
  151.9555  142.4048  157.2872 H   0  0  0  0  0  0  0  0  0  0  0  0
  152.2827  142.8429  161.7545 H   0  0  0  0  0  0  0  0  0  0  0  0
  153.4358  144.0931  161.3531 H   0  0  0  0  0  0  0  0  0  0  0  0
  150.4631  144.0528  160.5291 H   0  0  0  0  0  0  0  0  0  0  0  0
  151.1550  145.0500  161.7971 H   0  0  0  0  0  0  0  0  0  0  0  0
  150.9464  146.2419  159.7604 H   0  0  0  0  0  0  0  0  0  0  0  0
  151.1019  144.4449  158.2262 H   0  0  0  0  0  0  0  0  0  0  0  0
  152.2584  145.7119  157.8579 H   0  0  0  0  0  0  0  0  0  0  0  0
  154.0534  144.4862  159.1092 H   0  0  0  0  0  0  0  0  0  0  0  0
  153.4351  143.5327  157.8038 H   0  0  0  0  0  0  0  0  0  0  0  0
  153.6877  137.6980  162.6676 H   0  0  0  0  0  0  0  0  0  0  0  0
  154.5349  139.2130  162.3802 H   0  0  0  0  0  0  0  0  0  0  0  0
  155.3191  137.6947  161.9867 H   0  0  0  0  0  0  0  0  0  0  0  0
  1  2  1  0  0  0  0
  1 24  1  0  0  0  0
  1 25  1  0  0  0  0
  1 26  1  0  0  0  0
  2  3  1  0  0  0  0
  2 27  1  0  0  0  0
  2 28  1  0  0  0  0
  3  4  1  0  0  0  0
  4  5  1  0  0  0  0
  4 29  1  0  0  0  0
  4 30  1  0  0  0  0
  5  6  1  0  0  0  0
  5 31  1  0  0  0  0
  5 32  1  0  0  0  0
  6 16  1  0  0  0  0
  6  7  1  0  0  0  0
  7  8  1  0  0  0  0
  7 14  2  0  0  0  0
  8 13  1  0  0  0  0
  8  9  1  0  0  0  0
  9 10  1  0  0  0  0
  9 33  1  0  0  0  0
  9 34  1  0  0  0  0
 10 11  1  0  0  0  0
 10 35  1  0  0  0  0
 10 36  1  0  0  0  0
 11 12  1  0  0  0  0
 11 37  1  0  0  0  0
 12 13  1  0  0  0  0
 12 38  1  0  0  0  0
 12 39  1  0  0  0  0
 13 40  1  0  0  0  0
 13 41  1  0  0  0  0
 14 15  1  0  0  0  0
 15 22  1  0  0  0  0
 15 16  2  0  0  0  0
 16 17  1  0  0  0  0
 17 18  2  0  0  0  0
 17 19  1  0  0  0  0
 19 20  1  0  0  0  0
 20 21  2  0  0  0  0
 20 22  1  0  0  0  0
 22 23  1  0  0  0  0
 23 42  1  0  0  0  0
 23 43  1  0  0  0  0
 23 44  1  0  0  0  0
M  CHG  1  19  -1
M  END
> <s_m_source_file>
AV-unprocessed.smi

> <i_m_source_file_index>
514

> <i_lp_mmshare_version>
43012

> <i_f3d_flags>
0

> <s_epik_input>
W0NIM11uMWMoPU8pW25IXWMoPU8pYyhjMTIpbihbQ0gyXVtDSDJdT1tDSDJdW0NIM10pYyhuMilOM1tDSDJdW0NIMl1bTkhdW0NIMl1bQ0gyXTM=

> <s_epik_cmdline>
J2VwaWtfcHl0aG9uJywgJy1waCcsICc3LjAnLCAnLXRuJywgJzgnLCAnLW1hJywgJzIwMCcsICctbWV0YWxfYmluZGluZycsICctaW1hZScsICc8aW5maWxlLm1hZT4nLCAnLW9tYWUnLCAnPG91dGZpbGUubWFlPic=

> <r_epik_Ionization_Penalty>
8.82895

> <r_epik_Ionization_Penalty_Charging>
0.0771612

> <r_epik_Ionization_Penalty_Neutral>
8.75178

> <r_epik_State_Penalty>
8.91747

> <r_epik_Charging_Adjusted_Penalty>
8.99464

> <i_epik_Tot_Q>
-1

> <i_epik_Tot_abs_Q>
1

> <r_epik_Metal_State_Penalty>
4.86816

> <b_epik_Metal_Only>
1

> <s_lp_Force_Field>
OPLS_2005

> <r_lp_Energy>
52.9187

> <b_lp_Chiralities_Consistent>
1

> <s_lp_Variant>
AV-unprocessed.smi:514-4

> <Gold.Version>
5.8.1

> <Gold.Id.Protein>
6NUR|6NUR_protein|mol2

> <Gold.PLP.Fitness>
43.7842

> <Gold.PLP.PLP>
-42.1230

> <Gold.PLP.part.hbond>
-1.2419

> <Gold.PLP.part.metal>
0.0000

> <Gold.PLP.part.buried>
-7.1712

> <Gold.PLP.part.nonpolar>
-33.2718

> <Gold.PLP.part.repulsive>
0.0866

> <Gold.PLP.ligand.clash>
0.0000

> <Gold.PLP.ligand.torsion>
0.7207

> <Gold.PLP.Chemscore.Hbond>
1.0000

> <Gold.PLP.Chemscore.CHOScore>
0.0000

> <Gold.PLP.Chemscore.Metal>
0.0000

> <Gold.Chemscore.Hbonds>
donor molecule, donor type, donor heavy atom, donor atom, acceptor molecule, acceptor atom, score
      P1  H  6896  6907       L1    21  0.96

> <Gold.PLP.Chemscore.Internal.Correction>
0.1025

> <Gold.Rescore>
     Score         DG    S(hbond)    S(metal)    S(lipo)     H(rot)  DE(clash)    DE(int)     intcor
     13.05     -13.93       0.74        0.00      88.10       1.70       0.26       0.62       ----

> <Gold.Chemscore.Fitness>
13.0507

> <Gold.Chemscore.DG>
-13.9329

> <Gold.Chemscore.ZeroCoef>
-5.4800

> <Gold.Chemscore.Hbond>
0.7441

> <Gold.Chemscore.Metal>
0.0000

> <Gold.Chemscore.Lipo>
88.0979

> <Gold.Chemscore.Internal_Hbond>
0.0000

> <Gold.Chemscore.DEClash>
0.2589

> <Gold.Chemscore.DEInternal>
0.6233

> <Gold.Chemscore.Rot>
1.6953

> <Gold.Chemscore.Internal.Correction>
   9.000000E+99

> <Gold.Chemscore.Hbonds>
donor molecule, donor type, donor heavy atom, donor atom, acceptor molecule, acceptor atom, score
      P1  H  6896  6907       L1    21  0.50

> <Gold.Chemscore.Hbond.Weighted>
-2.4854

> <Gold.Chemscore.Metal.Weighted>
-0.0000

> <Gold.Chemscore.Lipo.Weighted>
-10.3074

> <Gold.Chemscore.Internal_Hbond.Weighted>
0.0000

> <Gold.Chemscore.DEClash.Weighted>
0.2589

> <Gold.Chemscore.DEInternal.Weighted>
0.6233

> <Gold.Chemscore.Rot.Weighted>
4.3399

> <Gold.Chemscore.Internal.Correction.Weighted>
   9.000000E+99

> <Gold.Protein.RotatedTorsions>
[ 6907 6896 6895 6894 ] final   58.42 input  -60.11 | X-H torsion
[ 7974 7965 7964 7962 ] final   92.68 input  175.53 | X-H torsion
[ 8008 7997 7996 7995 ] final   29.07 input   59.86 | X-H torsion
[ 10167 10162 10161 10158 ] final   77.41 input  -65.29 | X-H torsion
[ 10718 10713 10712 10709 ] final   68.34 input   66.30 | X-H torsion
[ 10763 10752 10751 10750 ] final   82.21 input  -60.55 | X-H torsion
[ 11005 11000 10999 10996 ] final -139.19 input  -57.11 | X-H torsion

> <Gold.Protein.ActiveResidues>
 VAL166  LYS551  ARG553  GLY616  TRP617  ASP618  TYR619  PRO620  LYS621  CYS622 
 ASP623  PHE694  ASN695  SER759  ASP760  ASP761  ALA762  ILE779  LEU786  VAL792 
 PHE793  MET794  SER795  GLU796  ALA797  LYS798  CYS799  TRP800  GLU811  SER814 

> <Gold.Protein.RotatedAtoms>
  152.3822  134.6572  160.0138 H   0  0  0  0  0  0  0  0  0  0  0  0  # atno 6907 bound_to 6896
  151.6832  133.3306  159.3232 H   0  0  0  0  0  0  0  0  0  0  0  0  # atno 6908 bound_to 6896
  150.7757  134.6699  159.6430 H   0  0  0  0  0  0  0  0  0  0  0  0  # atno 6909 bound_to 6896
  145.4890  139.2277  143.2840 H   0  0  0  0  0  0  0  0  0  0  0  0  # atno 7974 bound_to 7965
  155.0687  140.3198  155.4637 H   0  0  0  0  0  0  0  0  0  0  0  0  # atno 8008 bound_to 7997
  156.2796  140.2116  156.5760 H   0  0  0  0  0  0  0  0  0  0  0  0  # atno 8009 bound_to 7997
  154.7072  140.0501  157.0503 H   0  0  0  0  0  0  0  0  0  0  0  0  # atno 8010 bound_to 7997
  139.9819  144.5820  150.7893 H   0  0  0  0  0  0  0  0  0  0  0  0  # atno 10167 bound_to 10162
  157.6284  130.9368  150.0365 H   0  0  0  0  0  0  0  0  0  0  0  0  # atno 10718 bound_to 10713
  153.1183  135.4736  154.9153 H   0  0  0  0  0  0  0  0  0  0  0  0  # atno 10763 bound_to 10752
  154.7551  135.3116  154.8488 H   0  0  0  0  0  0  0  0  0  0  0  0  # atno 10764 bound_to 10752
  153.9059  135.6870  153.4807 H   0  0  0  0  0  0  0  0  0  0  0  0  # atno 10765 bound_to 10752
  140.8544  134.2246  157.4743 H   0  0  0  0  0  0  0  0  0  0  0  0  # atno 11005 bound_to 11000
  146.2295  140.5683  142.8981 LP  0  0  0  0  0  0  0  0  0  0  0  0  # atno 17320 bound_to 7965
  144.7845  140.5908  143.6583 LP  0  0  0  0  0  0  0  0  0  0  0  0  # atno 17321 bound_to 7965
  140.7486  143.2925  151.3293 LP  0  0  0  0  0  0  0  0  0  0  0  0  # atno 17342 bound_to 10162
  139.6403  144.0551  152.2549 LP  0  0  0  0  0  0  0  0  0  0  0  0  # atno 17343 bound_to 10162
  156.1470  130.3642  149.9495 LP  0  0  0  0  0  0  0  0  0  0  0  0  # atno 17370 bound_to 10713
  156.7523  130.9120  151.3638 LP  0  0  0  0  0  0  0  0  0  0  0  0  # atno 17371 bound_to 10713
  139.8705  134.9699  156.4682 LP  0  0  0  0  0  0  0  0  0  0  0  0  # atno 17394 bound_to 11000
  140.8754  133.7957  155.9409 LP  0  0  0  0  0  0  0  0  0  0  0  0  # atno 17395 bound_to 11000

$$$$
