AV-unprocessed.smi:1897|AV-procd|sdf|7685|dock3
  -GOLD-   22720 9423D 1   1.00000     0.00000
 Structure written by MMmdl.
 39 41  0  0  0  0  0  0  0  0  2 V2000
  151.1868  141.0783  156.0687 C   0  0  0  0  0  0  0  0  0  0  0  0
  150.0571  140.2224  155.6069 C   0  0  0  0  0  0  0  0  0  0  0  0
  148.7743  140.5280  155.8355 N   0  0  0  0  0  0  0  0  0  0  0  0
  147.9070  139.5851  155.3043 N   0  0  0  0  0  0  0  0  0  0  0  0
  148.5621  138.5812  154.7029 C   0  0  0  0  0  0  0  0  0  0  0  0
  147.9260  137.4867  154.0480 N   0  0  0  0  0  0  0  0  0  0  0  0
  146.7239  136.9104  154.2576 C   0  0  0  0  0  0  0  0  0  0  0  0
  145.9635  137.3172  155.1342 O   0  0  0  0  0  0  0  0  0  0  0  0
  146.4172  135.8792  153.4536 N   0  0  0  0  0  0  0  0  0  0  0  0
  145.2075  135.0699  153.5474 C   0  0  1  0  0  0  0  0  0  0  0  0
  143.9745  135.7644  152.9839 C   0  0  0  0  0  0  0  0  0  0  0  0
  143.0074  134.6029  152.7348 C   0  0  0  0  0  0  0  0  0  0  0  0
  143.8369  133.3936  152.5093 N   0  3  1  0  0  0  0  0  0  0  0  0
  143.5596  132.7027  151.2213 C   0  0  0  0  0  0  0  0  0  0  0  0
  144.6897  131.7247  150.8675 C   0  0  0  0  0  0  0  0  0  0  0  0
  146.0314  132.4582  150.6798 C   0  0  0  0  0  0  0  0  0  0  0  0
  146.0783  133.8028  151.4305 C   0  0  0  0  0  0  0  0  0  0  0  0
  145.2636  133.7549  152.7472 C   0  0  1  0  0  0  0  0  0  0  0  0
  150.3114  138.7307  154.7099 S   0  0  0  0  0  0  0  0  0  0  0  0
  150.8214  141.8947  156.6927 H   0  0  0  0  0  0  0  0  0  0  0  0
  151.7088  141.5010  155.2102 H   0  0  0  0  0  0  0  0  0  0  0  0
  151.8916  140.4838  156.6502 H   0  0  0  0  0  0  0  0  0  0  0  0
  148.4225  137.1420  153.2391 H   0  0  0  0  0  0  0  0  0  0  0  0
  147.0945  135.6106  152.7535 H   0  0  0  0  0  0  0  0  0  0  0  0
  145.0085  134.8381  154.5961 H   0  0  0  0  0  0  0  0  0  0  0  0
  143.5652  136.5172  153.6583 H   0  0  0  0  0  0  0  0  0  0  0  0
  144.2148  136.2544  152.0389 H   0  0  0  0  0  0  0  0  0  0  0  0
  142.3964  134.4289  153.6210 H   0  0  0  0  0  0  0  0  0  0  0  0
  142.3270  134.8186  151.9100 H   0  0  0  0  0  0  0  0  0  0  0  0
  142.6063  132.1789  151.2968 H   0  0  0  0  0  0  0  0  0  0  0  0
  143.4552  133.4333  150.4173 H   0  0  0  0  0  0  0  0  0  0  0  0
  144.7847  130.9892  151.6677 H   0  0  0  0  0  0  0  0  0  0  0  0
  144.4424  131.1636  149.9658 H   0  0  0  0  0  0  0  0  0  0  0  0
  146.8402  131.8109  151.0205 H   0  0  0  0  0  0  0  0  0  0  0  0
  146.2150  132.6391  149.6202 H   0  0  0  0  0  0  0  0  0  0  0  0
  147.1195  134.0664  151.6180 H   0  0  0  0  0  0  0  0  0  0  0  0
  145.6789  134.5891  150.7883 H   0  0  0  0  0  0  0  0  0  0  0  0
  145.7062  132.9816  153.3767 H   0  0  0  0  0  0  0  0  0  0  0  0
  143.5940  132.7438  153.2435 H   0  0  0  0  0  0  0  0  0  0  0  0
  1  2  1  0  0  0  0
  1 20  1  0  0  0  0
  1 21  1  0  0  0  0
  1 22  1  0  0  0  0
  2 19  1  0  0  0  0
  2  3  2  0  0  0  0
  3  4  1  0  0  0  0
  4  5  2  0  0  0  0
  5  6  1  0  0  0  0
  5 19  1  0  0  0  0
  6  7  1  0  0  0  0
  6 23  1  0  0  0  0
  7  8  2  0  0  0  0
  7  9  1  0  0  0  0
  9 10  1  0  0  0  0
  9 24  1  0  0  0  0
 10 18  1  0  0  0  0
 10 11  1  0  0  0  0
 10 25  1  0  0  0  0
 11 12  1  0  0  0  0
 11 26  1  0  0  0  0
 11 27  1  0  0  0  0
 12 13  1  0  0  0  0
 12 28  1  0  0  0  0
 12 29  1  0  0  0  0
 13 18  1  0  0  0  0
 13 14  1  0  0  0  0
 13 39  1  0  0  0  0
 14 15  1  0  0  0  0
 14 30  1  0  0  0  0
 14 31  1  0  0  0  0
 15 16  1  0  0  0  0
 15 32  1  0  0  0  0
 15 33  1  0  0  0  0
 16 17  1  0  0  0  0
 16 34  1  0  0  0  0
 16 35  1  0  0  0  0
 17 18  1  0  0  0  0
 17 36  1  0  0  0  0
 17 37  1  0  0  0  0
 18 38  1  0  0  0  0
M  CHG  1  13   1
M  END
> <s_m_source_file>
AV-unprocessed.smi

> <i_m_source_file_index>
1897

> <i_lp_mmshare_version>
43012

> <i_f3d_flags>
0

> <s_epik_input>
W0NIM11jMW5uYyhzMSlbTkhdQyg9TylbTkhdW0NASF0oW0NIMl1bQ0gyXTIpW0NAQEhdKE4yMylbQ0gyXVtDSDJdW0NIMl1bQ0gyXTM=

> <s_epik_cmdline>
J2VwaWtfcHl0aG9uJywgJy1waCcsICc3LjAnLCAnLXRuJywgJzgnLCAnLW1hJywgJzIwMCcsICctbWV0YWxfYmluZGluZycsICctaW1hZScsICc8aW5maWxlLm1hZT4nLCAnLW9tYWUnLCAnPG91dGZpbGUubWFlPic=

> <r_lp_tautomer_probability>
1

> <r_epik_Ionization_Penalty>
0.00228891

> <r_epik_Ionization_Penalty_Charging>
0.00107044

> <r_epik_Ionization_Penalty_Neutral>
0.00121847

> <r_epik_State_Penalty>
-0

> <r_epik_Charging_Adjusted_Penalty>
0.00107044

> <i_epik_Tot_Q>
1

> <i_epik_Tot_abs_Q>
1

> <r_epik_Metal_State_Penalty>
0.304057

> <b_epik_Metal_Only>
0

> <s_lp_Force_Field>
OPLS_2005

> <r_lp_Energy>
41.6574

> <b_lp_Chiralities_Consistent>
1

> <s_lp_Variant>
AV-unprocessed.smi:1897-2

> <Gold.Version>
5.8.1

> <Gold.Id.Protein>
6NUR|6NUR_protein|mol2

> <Gold.PLP.Fitness>
37.4194

> <Gold.PLP.PLP>
-27.5141

> <Gold.PLP.part.hbond>
-2.9791

> <Gold.PLP.part.metal>
0.0000

> <Gold.PLP.part.buried>
-5.3163

> <Gold.PLP.part.nonpolar>
-20.2275

> <Gold.PLP.part.repulsive>
0.1333

> <Gold.PLP.ligand.clash>
0.0000

> <Gold.PLP.ligand.torsion>
0.3479

> <Gold.PLP.Chemscore.Hbond>
3.5324

> <Gold.PLP.Chemscore.CHOScore>
0.0000

> <Gold.PLP.Chemscore.Metal>
0.0000

> <Gold.Chemscore.Hbonds>
donor molecule, donor type, donor heavy atom, donor atom, acceptor molecule, acceptor atom, score
      L1  H     6    23       P1  7948  1.00
      L1  H     9    24       P1  7948  0.63
      L1  H    13    39       P1 10957  1.98

> <Gold.PLP.Chemscore.Internal.Correction>
0.0039

> <Gold.Rescore>
     Score         DG    S(hbond)    S(metal)    S(lipo)     H(rot)  DE(clash)    DE(int)     intcor
     18.39     -18.88       2.60        0.00      62.14       1.00       0.01       0.48       ----

> <Gold.Chemscore.Fitness>
18.3925

> <Gold.Chemscore.DG>
-18.8826

> <Gold.Chemscore.ZeroCoef>
-5.4800

> <Gold.Chemscore.Hbond>
2.6024

> <Gold.Chemscore.Metal>
0.0000

> <Gold.Chemscore.Lipo>
62.1410

> <Gold.Chemscore.Internal_Hbond>
0.0000

> <Gold.Chemscore.DEClash>
0.0126

> <Gold.Chemscore.DEInternal>
0.4775

> <Gold.Chemscore.Rot>
1.0000

> <Gold.Chemscore.Internal.Correction>
   9.000000E+99

> <Gold.Chemscore.Hbonds>
donor molecule, donor type, donor heavy atom, donor atom, acceptor molecule, acceptor atom, score
      L1  H     6    23       P1  7948  1.00
      L1  H     9    24       P1  7948  0.62
      L1  H    13    39       P1 10957  0.37

> <Gold.Chemscore.Hbond.Weighted>
-8.6921

> <Gold.Chemscore.Metal.Weighted>
-0.0000

> <Gold.Chemscore.Lipo.Weighted>
-7.2705

> <Gold.Chemscore.Internal_Hbond.Weighted>
0.0000

> <Gold.Chemscore.DEClash.Weighted>
0.0126

> <Gold.Chemscore.DEInternal.Weighted>
0.4775

> <Gold.Chemscore.Rot.Weighted>
2.5600

> <Gold.Chemscore.Internal.Correction.Weighted>
   9.000000E+99

> <Gold.Protein.RotatedTorsions>
[ 6907 6896 6895 6894 ] final   37.02 input  -60.11 | X-H torsion
[ 7974 7965 7964 7962 ] final   71.52 input  175.53 | X-H torsion
[ 8008 7997 7996 7995 ] final  -36.60 input   59.86 | X-H torsion
[ 10167 10162 10161 10158 ] final  176.47 input  -65.29 | X-H torsion
[ 10718 10713 10712 10709 ] final  -26.50 input   66.30 | X-H torsion
[ 10763 10752 10751 10750 ] final  -83.82 input  -60.55 | X-H torsion
[ 11005 11000 10999 10996 ] final   79.94 input  -57.11 | X-H torsion

> <Gold.Protein.ActiveResidues>
 VAL166  LYS551  ARG553  GLY616  TRP617  ASP618  TYR619  PRO620  LYS621  CYS622 
 ASP623  PHE694  ASN695  SER759  ASP760  ASP761  ALA762  ILE779  LEU786  VAL792 
 PHE793  MET794  SER795  GLU796  ALA797  LYS798  CYS799  TRP800  GLU811  SER814 

> <Gold.Protein.RotatedAtoms>
  152.1376  134.9087  160.0555 H   0  0  0  0  0  0  0  0  0  0  0  0  # atno 6907 bound_to 6896
  152.0167  133.3878  159.4250 H   0  0  0  0  0  0  0  0  0  0  0  0  # atno 6908 bound_to 6896
  150.6862  134.3592  159.4986 H   0  0  0  0  0  0  0  0  0  0  0  0  # atno 6909 bound_to 6896
  145.7648  139.2816  143.1355 H   0  0  0  0  0  0  0  0  0  0  0  0  # atno 7974 bound_to 7965
  154.4070  140.1626  156.2401 H   0  0  0  0  0  0  0  0  0  0  0  0  # atno 8008 bound_to 7997
  155.9208  140.3421  155.6149 H   0  0  0  0  0  0  0  0  0  0  0  0  # atno 8009 bound_to 7997
  155.7224  140.0770  157.2315 H   0  0  0  0  0  0  0  0  0  0  0  0  # atno 8010 bound_to 7997
  139.5216  144.2911  152.0463 H   0  0  0  0  0  0  0  0  0  0  0  0  # atno 10167 bound_to 10162
  156.4504  130.4482  149.6994 H   0  0  0  0  0  0  0  0  0  0  0  0  # atno 10718 bound_to 10713
  154.5922  135.5542  153.7290 H   0  0  0  0  0  0  0  0  0  0  0  0  # atno 10763 bound_to 10752
  153.0121  135.6346  154.1833 H   0  0  0  0  0  0  0  0  0  0  0  0  # atno 10764 bound_to 10752
  154.1773  135.2889  155.3043 H   0  0  0  0  0  0  0  0  0  0  0  0  # atno 10765 bound_to 10752
  139.9153  134.7882  156.1844 H   0  0  0  0  0  0  0  0  0  0  0  0  # atno 11005 bound_to 11000
  146.0228  140.8332  142.9914 LP  0  0  0  0  0  0  0  0  0  0  0  0  # atno 17320 bound_to 7965
  144.6823  140.2654  143.7313 LP  0  0  0  0  0  0  0  0  0  0  0  0  # atno 17321 bound_to 7965
  140.2362  144.4317  150.6279 LP  0  0  0  0  0  0  0  0  0  0  0  0  # atno 17342 bound_to 10162
  140.6322  143.2189  151.6472 LP  0  0  0  0  0  0  0  0  0  0  0  0  # atno 17343 bound_to 10162
  156.3822  130.7585  151.2579 LP  0  0  0  0  0  0  0  0  0  0  0  0  # atno 17370 bound_to 10713
  157.7503  131.0292  150.4083 LP  0  0  0  0  0  0  0  0  0  0  0  0  # atno 17371 bound_to 10713
  141.0622  133.6836  156.1975 LP  0  0  0  0  0  0  0  0  0  0  0  0  # atno 17394 bound_to 11000
  140.6642  134.4936  157.5585 LP  0  0  0  0  0  0  0  0  0  0  0  0  # atno 17395 bound_to 11000

$$$$
