AV-unprocessed.smi:3150|AV-procd|sdf|12010|dock10
  -GOLD-   2272017423D 1   1.00000     0.00000
 Structure written by MMmdl.
 33 34  0  0  0  0  0  0  0  0  3 V2000
  149.9374  138.4272  154.4503 C   0  0  0  0  0  0  0  0  0  0  0  0
  149.7204  139.9455  154.5384 C   0  0  1  0  0  0  0  0  0  0  0  0
  148.3770  140.2084  154.1420 O   0  0  0  0  0  0  0  0  0  0  0  0
  148.0718  141.5740  153.8864 C   0  0  0  0  0  0  0  0  0  0  0  0
  146.5926  141.7923  154.1205 C   0  0  0  0  0  0  0  0  0  0  0  0
  145.9527  143.1171  153.7732 C   0  0  0  0  0  0  0  0  0  0  0  0
  146.1130  142.7160  155.2174 C   0  0  0  0  0  0  0  0  0  0  0  0
  149.9679  140.4683  155.9629 C   0  0  0  0  0  0  0  0  0  0  0  0
  149.3105  140.0172  156.9023 O   0  0  0  0  0  0  0  0  0  0  0  0
  150.9077  141.4254  156.0777 N   0  0  0  0  0  0  0  0  0  0  0  0
  151.3465  142.1072  157.2466 C   0  0  0  0  0  0  0  0  0  0  0  0
  150.9448  143.3694  157.5399 N   0  3  0  0  0  0  0  0  0  0  0  0
  151.3423  144.0437  158.6402 C   0  0  0  0  0  0  0  0  0  0  0  0
  152.2212  143.4337  159.5556 C   0  0  0  0  0  0  0  0  0  0  0  0
  152.6702  142.1230  159.3002 C   0  0  0  0  0  0  0  0  0  0  0  0
  152.2315  141.4530  158.1380 C   0  0  0  0  0  0  0  0  0  0  0  0
  152.6682  140.1817  157.8902 O   0  5  0  0  0  0  0  0  0  0  0  0
  150.9486  138.1520  154.7520 H   0  0  0  0  0  0  0  0  0  0  0  0
  149.7922  138.0759  153.4286 H   0  0  0  0  0  0  0  0  0  0  0  0
  149.2370  137.8828  155.0850 H   0  0  0  0  0  0  0  0  0  0  0  0
  150.4062  140.4289  153.8397 H   0  0  0  0  0  0  0  0  0  0  0  0
  148.6440  142.2421  154.5312 H   0  0  0  0  0  0  0  0  0  0  0  0
  148.3051  141.8260  152.8511 H   0  0  0  0  0  0  0  0  0  0  0  0
  145.9826  140.9114  153.9293 H   0  0  0  0  0  0  0  0  0  0  0  0
  146.5971  143.9098  153.3981 H   0  0  0  0  0  0  0  0  0  0  0  0
  144.9493  143.0941  153.3529 H   0  0  0  0  0  0  0  0  0  0  0  0
  145.2169  142.4258  155.7621 H   0  0  0  0  0  0  0  0  0  0  0  0
  146.8651  143.2402  155.8040 H   0  0  0  0  0  0  0  0  0  0  0  0
  151.3661  141.7107  155.2240 H   0  0  0  0  0  0  0  0  0  0  0  0
  150.9472  145.0426  158.7531 H   0  0  0  0  0  0  0  0  0  0  0  0
  152.5466  143.9616  160.4399 H   0  0  0  0  0  0  0  0  0  0  0  0
  153.3449  141.6373  159.9904 H   0  0  0  0  0  0  0  0  0  0  0  0
  150.3074  143.8330  156.8916 H   0  0  0  0  0  0  0  0  0  0  0  0
  1  2  1  0  0  0  0
  1 18  1  0  0  0  0
  1 19  1  0  0  0  0
  1 20  1  0  0  0  0
  2  3  1  0  0  0  0
  2  8  1  0  0  0  0
  2 21  1  0  0  0  0
  3  4  1  0  0  0  0
  4  5  1  0  0  0  0
  4 22  1  0  0  0  0
  4 23  1  0  0  0  0
  5  7  1  0  0  0  0
  5  6  1  0  0  0  0
  5 24  1  0  0  0  0
  6  7  1  0  0  0  0
  6 25  1  0  0  0  0
  6 26  1  0  0  0  0
  7 27  1  0  0  0  0
  7 28  1  0  0  0  0
  8  9  2  0  0  0  0
  8 10  1  0  0  0  0
 10 29  1  0  0  0  0
 10 11  1  0  0  0  0
 11 16  2  0  0  0  0
 11 12  1  0  0  0  0
 12 33  1  0  0  0  0
 12 13  2  0  0  0  0
 13 30  1  0  0  0  0
 13 14  1  0  0  0  0
 14 31  1  0  0  0  0
 14 15  2  0  0  0  0
 15 16  1  0  0  0  0
 15 32  1  0  0  0  0
 16 17  1  0  0  0  0
M  CHG  1  12   1
M  CHG  1  17  -1
M  END
> <s_m_source_file>
AV-unprocessed.smi

> <i_m_source_file_index>
3150

> <i_lp_mmshare_version>
43012

> <i_f3d_flags>
0

> <s_epik_input>
W0NIMl0xW0NIMl1bQ0hdMVtDSDJdT1tDQEBIXShbQ0gzXSlDKD1PKVtOSF1jMm5bY0hdW2NIXVtjSF1jMltPSF0=

> <s_epik_cmdline>
J2VwaWtfcHl0aG9uJywgJy1waCcsICc3LjAnLCAnLXRuJywgJzgnLCAnLW1hJywgJzIwMCcsICctbWV0YWxfYmluZGluZycsICctaW1hZScsICc8aW5maWxlLm1hZT4nLCAnLW9tYWUnLCAnPG91dGZpbGUubWFlPic=

> <r_lp_tautomer_probability>
0.56342

> <r_epik_Ionization_Penalty>
0.213151

> <r_epik_Ionization_Penalty_Charging>
0.0249427

> <r_epik_Ionization_Penalty_Neutral>
0.188209

> <r_epik_State_Penalty>
0.538305

> <r_epik_Charging_Adjusted_Penalty>
0.563248

> <i_epik_Tot_Q>
0

> <i_epik_Tot_abs_Q>
2

> <r_epik_Metal_State_Penalty>
2.57454

> <b_epik_Metal_Only>
0

> <s_lp_Force_Field>
OPLS_2005

> <r_lp_Energy>
15.4349

> <b_lp_Chiralities_Consistent>
1

> <s_lp_Variant>
AV-unprocessed.smi:3150-4

> <Gold.Version>
5.8.1

> <Gold.Id.Protein>
6NUR|6NUR_protein|mol2

> <Gold.PLP.Fitness>
45.8918

> <Gold.PLP.PLP>
-35.4792

> <Gold.PLP.part.hbond>
-2.0000

> <Gold.PLP.part.metal>
0.0000

> <Gold.PLP.part.buried>
-3.5467

> <Gold.PLP.part.nonpolar>
-28.2516

> <Gold.PLP.part.repulsive>
0.2789

> <Gold.PLP.ligand.clash>
0.0000

> <Gold.PLP.ligand.torsion>
1.3277

> <Gold.PLP.Chemscore.Hbond>
4.0000

> <Gold.PLP.Chemscore.CHOScore>
0.0000

> <Gold.PLP.Chemscore.Metal>
0.0000

> <Gold.Chemscore.Hbonds>
donor molecule, donor type, donor heavy atom, donor atom, acceptor molecule, acceptor atom, score
      L1  H    12    33       P1  8028  1.82
      P1  H  7997  8009       L1    17  1.79

> <Gold.PLP.Chemscore.Internal.Correction>
1.0681

> <Gold.Rescore>
     Score         DG    S(hbond)    S(metal)    S(lipo)     H(rot)  DE(clash)    DE(int)     intcor
     15.42     -16.87       1.88        0.00      80.53       1.68       0.04       1.41       ----

> <Gold.Chemscore.Fitness>
15.4203

> <Gold.Chemscore.DG>
-16.8674

> <Gold.Chemscore.ZeroCoef>
-5.4800

> <Gold.Chemscore.Hbond>
1.8785

> <Gold.Chemscore.Metal>
0.0000

> <Gold.Chemscore.Lipo>
80.5342

> <Gold.Chemscore.Internal_Hbond>
0.0000

> <Gold.Chemscore.DEClash>
0.0361

> <Gold.Chemscore.DEInternal>
1.4110

> <Gold.Chemscore.Rot>
1.6833

> <Gold.Chemscore.Internal.Correction>
   9.000000E+99

> <Gold.Chemscore.Hbonds>
donor molecule, donor type, donor heavy atom, donor atom, acceptor molecule, acceptor atom, score
      L1  H    12    33       P1  8028  0.88
      P1  H  7997  8009       L1    17  0.73

> <Gold.Chemscore.Hbond.Weighted>
-6.2742

> <Gold.Chemscore.Metal.Weighted>
-0.0000

> <Gold.Chemscore.Lipo.Weighted>
-9.4225

> <Gold.Chemscore.Internal_Hbond.Weighted>
0.0000

> <Gold.Chemscore.DEClash.Weighted>
0.0361

> <Gold.Chemscore.DEInternal.Weighted>
1.4110

> <Gold.Chemscore.Rot.Weighted>
4.3094

> <Gold.Chemscore.Internal.Correction.Weighted>
   9.000000E+99

> <Gold.Protein.RotatedTorsions>
[ 6907 6896 6895 6894 ] final -136.06 input  -60.11 | X-H torsion
[ 7974 7965 7964 7962 ] final -110.43 input  175.53 | X-H torsion
[ 8008 7997 7996 7995 ] final  166.36 input   59.86 | X-H torsion
[ 10167 10162 10161 10158 ] final  -96.78 input  -65.29 | X-H torsion
[ 10718 10713 10712 10709 ] final -154.49 input   66.30 | X-H torsion
[ 10763 10752 10751 10750 ] final  -35.33 input  -60.55 | X-H torsion
[ 11005 11000 10999 10996 ] final   95.90 input  -57.11 | X-H torsion

> <Gold.Protein.ActiveResidues>
 VAL166  LYS551  ARG553  GLY616  TRP617  ASP618  TYR619  PRO620  LYS621  CYS622 
 ASP623  PHE694  ASN695  SER759  ASP760  ASP761  ALA762  ILE779  LEU786  VAL792 
 PHE793  MET794  SER795  GLU796  ALA797  LYS798  CYS799  TRP800  GLU811  SER814 

> <Gold.Protein.RotatedAtoms>
  151.0055  133.6015  159.2689 H   0  0  0  0  0  0  0  0  0  0  0  0  # atno 6907 bound_to 6896
  151.3186  135.0811  159.9307 H   0  0  0  0  0  0  0  0  0  0  0  0  # atno 6908 bound_to 6896
  152.5285  133.9707  159.7814 H   0  0  0  0  0  0  0  0  0  0  0  0  # atno 6909 bound_to 6896
  145.1684  140.8913  143.3550 H   0  0  0  0  0  0  0  0  0  0  0  0  # atno 7974 bound_to 7965
  156.1725  140.1645  156.8422 H   0  0  0  0  0  0  0  0  0  0  0  0  # atno 8008 bound_to 7997
  154.5272  140.0765  156.8313 H   0  0  0  0  0  0  0  0  0  0  0  0  # atno 8009 bound_to 7997
  155.3483  140.3388  155.4241 H   0  0  0  0  0  0  0  0  0  0  0  0  # atno 8010 bound_to 7997
  140.2902  143.3226  152.0353 H   0  0  0  0  0  0  0  0  0  0  0  0  # atno 10167 bound_to 10162
  156.5001  130.8387  151.2605 H   0  0  0  0  0  0  0  0  0  0  0  0  # atno 10718 bound_to 10713
  153.8614  135.6839  153.4782 H   0  0  0  0  0  0  0  0  0  0  0  0  # atno 10763 bound_to 10752
  153.1340  135.4686  154.9391 H   0  0  0  0  0  0  0  0  0  0  0  0  # atno 10764 bound_to 10752
  154.7757  135.3252  154.8046 H   0  0  0  0  0  0  0  0  0  0  0  0  # atno 10765 bound_to 10752
  139.8785  134.8923  156.4079 H   0  0  0  0  0  0  0  0  0  0  0  0  # atno 11005 bound_to 11000
  145.0258  139.3384  143.6049 LP  0  0  0  0  0  0  0  0  0  0  0  0  # atno 17320 bound_to 7965
  146.3472  139.9577  142.8721 LP  0  0  0  0  0  0  0  0  0  0  0  0  # atno 17321 bound_to 7965
  139.4940  144.6530  151.6634 LP  0  0  0  0  0  0  0  0  0  0  0  0  # atno 17342 bound_to 10162
  140.5738  144.0063  150.6231 LP  0  0  0  0  0  0  0  0  0  0  0  0  # atno 17343 bound_to 10162
  157.7464  130.9984  150.2853 LP  0  0  0  0  0  0  0  0  0  0  0  0  # atno 17370 bound_to 10713
  156.3341  130.3805  149.7465 LP  0  0  0  0  0  0  0  0  0  0  0  0  # atno 17371 bound_to 10713
  140.9221  133.7637  155.9919 LP  0  0  0  0  0  0  0  0  0  0  0  0  # atno 17394 bound_to 11000
  140.8427  134.3047  157.5307 LP  0  0  0  0  0  0  0  0  0  0  0  0  # atno 17395 bound_to 11000

$$$$
