AV-unprocessed.smi:2874|AV-procd|sdf|11038|dock9
  -GOLD-   2272015503D 1   1.00000     0.00000
 Structure written by MMmdl.
 39 41  0  0  0  0  0  0  0  0  1 V2000
  149.9768  132.9254  154.3229 C   0  0  0  0  0  0  0  0  0  0  0  0
  150.6049  132.0684  155.2594 O   0  0  0  0  0  0  0  0  0  0  0  0
  150.1679  130.7236  155.1446 C   0  0  0  0  0  0  0  0  0  0  0  0
  148.7118  130.6116  155.6175 C   0  0  0  0  0  0  0  0  0  0  0  0
  147.8496  130.0270  154.6005 N   0  0  0  0  0  0  0  0  0  0  0  0
  146.9246  130.6541  153.8319 C   0  0  0  0  0  0  0  0  0  0  0  0
  146.6329  132.3923  153.9730 S   0  0  0  0  0  0  0  0  0  0  0  0
  147.3499  132.9514  152.3987 C   0  0  0  0  0  0  0  0  0  0  0  0
  146.2878  133.6442  151.5685 C   0  0  0  0  0  0  0  0  0  0  0  0
  146.5900  134.8604  151.1012 N   0  0  0  0  0  0  0  0  0  0  0  0
  145.6468  135.4809  150.3602 C   0  0  0  0  0  0  0  0  0  0  0  0
  144.3997  134.8809  150.0926 C   0  0  0  0  0  0  0  0  0  0  0  0
  144.1944  133.5988  150.6411 C   0  0  0  0  0  0  0  0  0  0  0  0
  142.9945  132.9216  150.4406 N   0  0  0  0  0  0  0  0  0  0  0  0
  145.1417  132.9812  151.3786 N   0  0  0  0  0  0  0  0  0  0  0  0
  146.2728  129.8722  152.9689 N   0  0  0  0  0  0  0  0  0  0  0  0
  146.8253  128.6283  153.1993 C   0  0  0  0  0  0  0  0  0  0  0  0
  146.5566  127.3785  152.5975 C   0  0  0  0  0  0  0  0  0  0  0  0
  147.2607  126.2254  153.0023 C   0  0  0  0  0  0  0  0  0  0  0  0
  146.9209  124.7069  152.2573 Cl  0  0  0  0  0  0  0  0  0  0  0  0
  148.2417  126.3067  154.0121 C   0  0  0  0  0  0  0  0  0  0  0  0
  148.5243  127.5427  154.6246 C   0  0  0  0  0  0  0  0  0  0  0  0
  147.8176  128.6900  154.2170 C   0  0  0  0  0  0  0  0  0  0  0  0
  150.3359  133.9450  154.4621 H   0  0  0  0  0  0  0  0  0  0  0  0
  148.8941  132.9289  154.4546 H   0  0  0  0  0  0  0  0  0  0  0  0
  150.2050  132.6244  153.2997 H   0  0  0  0  0  0  0  0  0  0  0  0
  150.2444  130.3952  154.1072 H   0  0  0  0  0  0  0  0  0  0  0  0
  150.8068  130.0704  155.7411 H   0  0  0  0  0  0  0  0  0  0  0  0
  148.6583  129.9962  156.5161 H   0  0  0  0  0  0  0  0  0  0  0  0
  148.3255  131.5913  155.8991 H   0  0  0  0  0  0  0  0  0  0  0  0
  148.1847  133.6273  152.5904 H   0  0  0  0  0  0  0  0  0  0  0  0
  147.7403  132.0951  151.8471 H   0  0  0  0  0  0  0  0  0  0  0  0
  145.8873  136.4627  149.9807 H   0  0  0  0  0  0  0  0  0  0  0  0
  143.6469  135.3809  149.5014 H   0  0  0  0  0  0  0  0  0  0  0  0
  142.2431  133.3260  149.9010 H   0  0  0  0  0  0  0  0  0  0  0  0
  142.8343  132.0079  150.8397 H   0  0  0  0  0  0  0  0  0  0  0  0
  145.8081  127.3078  151.8222 H   0  0  0  0  0  0  0  0  0  0  0  0
  148.7790  125.4205  154.3168 H   0  0  0  0  0  0  0  0  0  0  0  0
  149.2768  127.6088  155.3963 H   0  0  0  0  0  0  0  0  0  0  0  0
  1  2  1  0  0  0  0
  1 24  1  0  0  0  0
  1 25  1  0  0  0  0
  1 26  1  0  0  0  0
  2  3  1  0  0  0  0
  3  4  1  0  0  0  0
  3 27  1  0  0  0  0
  3 28  1  0  0  0  0
  4  5  1  0  0  0  0
  4 29  1  0  0  0  0
  4 30  1  0  0  0  0
  5 23  1  0  0  0  0
  5  6  1  0  0  0  0
  6  7  1  0  0  0  0
  6 16  2  0  0  0  0
  7  8  1  0  0  0  0
  8  9  1  0  0  0  0
  8 31  1  0  0  0  0
  8 32  1  0  0  0  0
  9 15  1  0  0  0  0
  9 10  2  0  0  0  0
 10 11  1  0  0  0  0
 11 12  2  0  0  0  0
 11 33  1  0  0  0  0
 12 13  1  0  0  0  0
 12 34  1  0  0  0  0
 13 14  1  0  0  0  0
 13 15  2  0  0  0  0
 14 35  1  0  0  0  0
 14 36  1  0  0  0  0
 16 17  1  0  0  0  0
 17 23  2  0  0  0  0
 17 18  1  0  0  0  0
 18 19  2  0  0  0  0
 18 37  1  0  0  0  0
 19 20  1  0  0  0  0
 19 21  1  0  0  0  0
 21 22  2  0  0  0  0
 21 38  1  0  0  0  0
 22 23  1  0  0  0  0
 22 39  1  0  0  0  0
M  END
> <s_m_source_file>
AV-unprocessed.smi

> <i_m_source_file_index>
2874

> <i_lp_mmshare_version>
43012

> <i_f3d_flags>
0

> <s_epik_input>
W2NIXTFjKENsKVtjSF1bY0hdYyhjMTIpbihbQ0gyXVtDSDJdT1tDSDNdKWMobjIpU1tDSDJdYzNuW2NIXVtjSF1jKG4zKVtOSDJd

> <s_epik_cmdline>
J2VwaWtfcHl0aG9uJywgJy1waCcsICc3LjAnLCAnLXRuJywgJzgnLCAnLW1hJywgJzIwMCcsICctbWV0YWxfYmluZGluZycsICctaW1hZScsICc8aW5maWxlLm1hZT4nLCAnLW9tYWUnLCAnPG91dGZpbGUubWFlPic=

> <r_lp_tautomer_probability>
1

> <r_epik_Ionization_Penalty>
0.0126717

> <r_epik_Ionization_Penalty_Charging>
0

> <r_epik_Ionization_Penalty_Neutral>
0.0126717

> <r_epik_State_Penalty>
0.00687269

> <r_epik_Charging_Adjusted_Penalty>
0.00687269

> <i_epik_Tot_Q>
0

> <i_epik_Tot_abs_Q>
0

> <r_epik_Metal_State_Penalty>
0.00678378

> <b_epik_Metal_Only>
0

> <s_lp_Force_Field>
OPLS_2005

> <r_lp_Energy>
1.60018

> <b_lp_Chiralities_Consistent>
1

> <s_lp_Variant>
AV-unprocessed.smi:2874-1

> <Gold.Version>
5.8.1

> <Gold.Id.Protein>
6NUR|6NUR_protein|mol2

> <Gold.PLP.Fitness>
46.6542

> <Gold.PLP.PLP>
-43.0394

> <Gold.PLP.part.hbond>
-1.0780

> <Gold.PLP.part.metal>
0.0000

> <Gold.PLP.part.buried>
-6.2227

> <Gold.PLP.part.nonpolar>
-36.6774

> <Gold.PLP.part.repulsive>
1.7264

> <Gold.PLP.ligand.clash>
0.0000

> <Gold.PLP.ligand.torsion>
1.0927

> <Gold.PLP.Chemscore.Hbond>
0.9280

> <Gold.PLP.Chemscore.CHOScore>
1.0000

> <Gold.PLP.Chemscore.Metal>
0.0000

> <Gold.Chemscore.Hbonds>
donor molecule, donor type, donor heavy atom, donor atom, acceptor molecule, acceptor atom, score
      L1  H    14    35       P1 10186  1.00
      L1  C    11    33       P1 10171  0.03

> <Gold.PLP.Chemscore.Internal.Correction>
0.0163

> <Gold.Rescore>
     Score         DG    S(hbond)    S(metal)    S(lipo)     H(rot)  DE(clash)    DE(int)     intcor
     11.17     -12.87       0.99        0.00      88.41       2.44       0.28       1.42       ----

> <Gold.Chemscore.Fitness>
11.1744

> <Gold.Chemscore.DG>
-12.8675

> <Gold.Chemscore.ZeroCoef>
-5.4800

> <Gold.Chemscore.Hbond>
0.9869

> <Gold.Chemscore.Metal>
0.0000

> <Gold.Chemscore.Lipo>
88.4123

> <Gold.Chemscore.Internal_Hbond>
0.0000

> <Gold.Chemscore.DEClash>
0.2769

> <Gold.Chemscore.DEInternal>
1.4162

> <Gold.Chemscore.Rot>
2.4426

> <Gold.Chemscore.Internal.Correction>
   9.000000E+99

> <Gold.Chemscore.Hbonds>
donor molecule, donor type, donor heavy atom, donor atom, acceptor molecule, acceptor atom, score
      L1  H    14    35       P1 10186  0.99

> <Gold.Chemscore.Hbond.Weighted>
-3.2963

> <Gold.Chemscore.Metal.Weighted>
-0.0000

> <Gold.Chemscore.Lipo.Weighted>
-10.3442

> <Gold.Chemscore.Internal_Hbond.Weighted>
0.0000

> <Gold.Chemscore.DEClash.Weighted>
0.2769

> <Gold.Chemscore.DEInternal.Weighted>
1.4162

> <Gold.Chemscore.Rot.Weighted>
6.2531

> <Gold.Chemscore.Internal.Correction.Weighted>
   9.000000E+99

> <Gold.Protein.RotatedTorsions>
[ 6907 6896 6895 6894 ] final -130.46 input  -60.11 | X-H torsion
[ 7974 7965 7964 7962 ] final  -15.73 input  175.53 | X-H torsion
[ 8008 7997 7996 7995 ] final  -24.17 input   59.86 | X-H torsion
[ 10167 10162 10161 10158 ] final   -4.02 input  -65.29 | X-H torsion
[ 10718 10713 10712 10709 ] final -157.99 input   66.30 | X-H torsion
[ 10763 10752 10751 10750 ] final  -83.12 input  -60.55 | X-H torsion
[ 11005 11000 10999 10996 ] final   12.88 input  -57.11 | X-H torsion

> <Gold.Protein.ActiveResidues>
 VAL166  LYS551  ARG553  GLY616  TRP617  ASP618  TYR619  PRO620  LYS621  CYS622 
 ASP623  PHE694  ASN695  SER759  ASP760  ASP761  ALA762  ILE779  LEU786  VAL792 
 PHE793  MET794  SER795  GLU796  ALA797  LYS798  CYS799  TRP800  GLU811  SER814 

> <Gold.Protein.RotatedAtoms>
  150.9399  133.6668  159.2792 H   0  0  0  0  0  0  0  0  0  0  0  0  # atno 6907 bound_to 6896
  151.4060  135.0977  159.9580 H   0  0  0  0  0  0  0  0  0  0  0  0  # atno 6908 bound_to 6896
  152.5065  133.8883  159.7436 H   0  0  0  0  0  0  0  0  0  0  0  0  # atno 6909 bound_to 6896
  146.2019  140.3534  142.8420 H   0  0  0  0  0  0  0  0  0  0  0  0  # atno 7974 bound_to 7965
  154.4544  140.1961  156.0423 H   0  0  0  0  0  0  0  0  0  0  0  0  # atno 8008 bound_to 7997
  156.0715  140.3284  155.7554 H   0  0  0  0  0  0  0  0  0  0  0  0  # atno 8009 bound_to 7997
  155.5255  140.0573  157.2889 H   0  0  0  0  0  0  0  0  0  0  0  0  # atno 8010 bound_to 7997
  140.6912  143.6472  150.8382 H   0  0  0  0  0  0  0  0  0  0  0  0  # atno 10167 bound_to 10162
  156.5479  130.8592  151.2770 H   0  0  0  0  0  0  0  0  0  0  0  0  # atno 10718 bound_to 10713
  154.5840  135.5567  153.7213 H   0  0  0  0  0  0  0  0  0  0  0  0  # atno 10763 bound_to 10752
  153.0092  135.6327  154.1943 H   0  0  0  0  0  0  0  0  0  0  0  0  # atno 10764 bound_to 10752
  154.1884  135.2883  155.3010 H   0  0  0  0  0  0  0  0  0  0  0  0  # atno 10765 bound_to 10752
  140.4870  134.0878  155.7763 H   0  0  0  0  0  0  0  0  0  0  0  0  # atno 11005 bound_to 11000
  144.8703  140.7263  143.6051 LP  0  0  0  0  0  0  0  0  0  0  0  0  # atno 17320 bound_to 7965
  145.3454  139.1720  143.4463 LP  0  0  0  0  0  0  0  0  0  0  0  0  # atno 17321 bound_to 7965
  140.0185  143.5567  152.2810 LP  0  0  0  0  0  0  0  0  0  0  0  0  # atno 17342 bound_to 10162
  139.6317  144.7645  151.2523 LP  0  0  0  0  0  0  0  0  0  0  0  0  # atno 17343 bound_to 10162
  157.7393  130.9829  150.2306 LP  0  0  0  0  0  0  0  0  0  0  0  0  # atno 17370 bound_to 10713
  156.2911  130.3746  149.7840 LP  0  0  0  0  0  0  0  0  0  0  0  0  # atno 17371 bound_to 10713
  141.1503  133.8981  157.2114 LP  0  0  0  0  0  0  0  0  0  0  0  0  # atno 17394 bound_to 11000
  139.9792  135.0104  156.9707 LP  0  0  0  0  0  0  0  0  0  0  0  0  # atno 17395 bound_to 11000

$$$$
