AV-unprocessed.smi:3311|AV-procd|sdf|12720|dock10
  -GOLD-   2272019 63D 1   1.00000     0.00000
 Structure written by MMmdl.
 44 45  0  0  0  0  0  0  0  0  2 V2000
  148.0203  132.7710  152.8902 C   0  0  0  0  0  0  0  0  0  0  0  0
  147.0974  133.9557  153.2291 C   0  0  1  0  0  0  0  0  0  0  0  0
  147.8911  134.9969  153.9181 N   0  3  0  0  0  0  0  0  0  0  0  0
  148.9128  134.4841  154.8567 C   0  0  0  0  0  0  0  0  0  0  0  0
  149.7589  135.6163  155.4793 C   0  0  0  0  0  0  0  0  0  0  0  0
  150.2569  136.4015  154.4099 O   0  0  0  0  0  0  0  0  0  0  0  0
  148.8607  136.5203  156.3566 C   0  0  0  0  0  0  0  0  0  0  0  0
  149.6485  137.6189  157.0930 C   0  0  0  0  0  0  0  0  0  0  0  0
  150.7913  137.0223  157.9260 C   0  0  0  0  0  0  0  0  0  0  0  0
  151.7208  136.1685  157.0522 C   0  0  0  0  0  0  0  0  0  0  0  0
  150.9431  135.0651  156.3120 C   0  0  0  0  0  0  0  0  0  0  0  0
  146.3883  134.5578  151.9879 C   0  0  2  0  0  0  0  0  0  0  0  0
  145.5410  135.7983  152.3274 C   0  0  0  0  0  0  0  0  0  0  0  0
  145.5668  133.5695  151.3003 N   0  0  0  0  0  0  0  0  0  0  0  0
  145.9443  132.3568  150.7577 C   0  0  0  0  0  0  0  0  0  0  0  0
  144.8302  131.7908  150.2077 C   0  0  0  0  0  0  0  0  0  0  0  0
  143.8059  132.7442  150.4627 C   0  0  0  0  0  0  0  0  0  0  0  0
  144.2499  133.8075  151.1134 N   0  0  0  0  0  0  0  0  0  0  0  0
  147.4655  131.9286  152.4765 H   0  0  0  0  0  0  0  0  0  0  0  0
  148.5330  132.4076  153.7814 H   0  0  0  0  0  0  0  0  0  0  0  0
  148.7808  133.0575  152.1632 H   0  0  0  0  0  0  0  0  0  0  0  0
  146.3325  133.5782  153.9103 H   0  0  0  0  0  0  0  0  0  0  0  0
  148.3556  135.5609  153.2212 H   0  0  0  0  0  0  0  0  0  0  0  0
  148.4161  133.9155  155.6447 H   0  0  0  0  0  0  0  0  0  0  0  0
  149.5579  133.7851  154.3225 H   0  0  0  0  0  0  0  0  0  0  0  0
  149.7649  136.1916  153.6301 H   0  0  0  0  0  0  0  0  0  0  0  0
  148.0756  136.9764  155.7517 H   0  0  0  0  0  0  0  0  0  0  0  0
  148.3486  135.9059  157.0985 H   0  0  0  0  0  0  0  0  0  0  0  0
  150.0522  138.3329  156.3742 H   0  0  0  0  0  0  0  0  0  0  0  0
  148.9770  138.1846  157.7396 H   0  0  0  0  0  0  0  0  0  0  0  0
  151.3598  137.8211  158.4036 H   0  0  0  0  0  0  0  0  0  0  0  0
  150.3794  136.4115  158.7304 H   0  0  0  0  0  0  0  0  0  0  0  0
  152.2337  136.8064  156.3315 H   0  0  0  0  0  0  0  0  0  0  0  0
  152.4988  135.7201  157.6708 H   0  0  0  0  0  0  0  0  0  0  0  0
  150.5636  134.3542  157.0473 H   0  0  0  0  0  0  0  0  0  0  0  0
  151.6322  134.5055  155.6783 H   0  0  0  0  0  0  0  0  0  0  0  0
  147.1617  134.8782  151.2868 H   0  0  0  0  0  0  0  0  0  0  0  0
  146.1556  136.6059  152.7254 H   0  0  0  0  0  0  0  0  0  0  0  0
  144.7741  135.5705  153.0686 H   0  0  0  0  0  0  0  0  0  0  0  0
  145.0400  136.1842  151.4388 H   0  0  0  0  0  0  0  0  0  0  0  0
  146.9629  132.0006  150.8067 H   0  0  0  0  0  0  0  0  0  0  0  0
  144.7579  130.8404  149.6996 H   0  0  0  0  0  0  0  0  0  0  0  0
  142.7605  132.6967  150.1954 H   0  0  0  0  0  0  0  0  0  0  0  0
  147.2575  135.5899  154.4359 H   0  0  0  0  0  0  0  0  0  0  0  0
  1  2  1  0  0  0  0
  1 19  1  0  0  0  0
  1 20  1  0  0  0  0
  1 21  1  0  0  0  0
  2  3  1  0  0  0  0
  2 12  1  0  0  0  0
  2 22  1  0  0  0  0
  3  4  1  0  0  0  0
  3 23  1  0  0  0  0
  3 44  1  0  0  0  0
  4  5  1  0  0  0  0
  4 24  1  0  0  0  0
  4 25  1  0  0  0  0
  5 11  1  0  0  0  0
  5  6  1  0  0  0  0
  5  7  1  0  0  0  0
  6 26  1  0  0  0  0
  7  8  1  0  0  0  0
  7 27  1  0  0  0  0
  7 28  1  0  0  0  0
  8  9  1  0  0  0  0
  8 29  1  0  0  0  0
  8 30  1  0  0  0  0
  9 10  1  0  0  0  0
  9 31  1  0  0  0  0
  9 32  1  0  0  0  0
 10 11  1  0  0  0  0
 10 33  1  0  0  0  0
 10 34  1  0  0  0  0
 11 35  1  0  0  0  0
 11 36  1  0  0  0  0
 12 13  1  0  0  0  0
 12 14  1  0  0  0  0
 12 37  1  0  0  0  0
 13 38  1  0  0  0  0
 13 39  1  0  0  0  0
 13 40  1  0  0  0  0
 14 18  1  0  0  0  0
 14 15  1  0  0  0  0
 15 16  2  0  0  0  0
 15 41  1  0  0  0  0
 16 17  1  0  0  0  0
 16 42  1  0  0  0  0
 17 18  2  0  0  0  0
 17 43  1  0  0  0  0
M  CHG  1   3   1
M  END
> <s_m_source_file>
AV-unprocessed.smi

> <i_m_source_file_index>
3311

> <i_lp_mmshare_version>
43012

> <i_f3d_flags>
0

> <s_epik_input>
bjFbY0hdW2NIXVtjSF1uMVtDQEBIXShbQ0gzXSlbQ0BIXShbQ0gzXSlbTkhdW0NIMl1DMihbT0hdKVtDSDJdW0NIMl1bQ0gyXVtDSDJdW0NIMl0y

> <s_epik_cmdline>
J2VwaWtfcHl0aG9uJywgJy1waCcsICc3LjAnLCAnLXRuJywgJzgnLCAnLW1hJywgJzIwMCcsICctbWV0YWxfYmluZGluZycsICctaW1hZScsICc8aW5maWxlLm1hZT4nLCAnLW9tYWUnLCAnPG91dGZpbGUubWFlPic=

> <r_lp_tautomer_probability>
1

> <r_epik_Ionization_Penalty>
0.0141403

> <r_epik_Ionization_Penalty_Charging>
0.0141276

> <r_epik_Ionization_Penalty_Neutral>
1.27139e-05

> <r_epik_State_Penalty>
0.0110334

> <r_epik_Charging_Adjusted_Penalty>
0.025161

> <i_epik_Tot_Q>
1

> <i_epik_Tot_abs_Q>
1

> <r_epik_Metal_State_Penalty>
0.0110573

> <b_epik_Metal_Only>
0

> <s_lp_Force_Field>
OPLS_2005

> <r_lp_Energy>
23.6471

> <b_lp_Chiralities_Consistent>
1

> <s_lp_Variant>
AV-unprocessed.smi:3311-2

> <Gold.Version>
5.8.1

> <Gold.Id.Protein>
6NUR|6NUR_protein|mol2

> <Gold.PLP.Fitness>
41.9312

> <Gold.PLP.PLP>
-27.3797

> <Gold.PLP.part.hbond>
-2.8722

> <Gold.PLP.part.metal>
0.0000

> <Gold.PLP.part.buried>
-2.6952

> <Gold.PLP.part.nonpolar>
-22.0196

> <Gold.PLP.part.repulsive>
0.1438

> <Gold.PLP.ligand.clash>
0.0000

> <Gold.PLP.ligand.torsion>
0.2556

> <Gold.PLP.Chemscore.Hbond>
3.0000

> <Gold.PLP.Chemscore.CHOScore>
1.9987

> <Gold.PLP.Chemscore.Metal>
0.0000

> <Gold.Chemscore.Hbonds>
donor molecule, donor type, donor heavy atom, donor atom, acceptor molecule, acceptor atom, score
      L1  H     3    23       P1  7948  2.00
      L1  H     6    26       P1  7948  1.00
      L1  C    15    41       P1 10747  1.00
      L1  C    17    43       P1 10186  0.98

> <Gold.PLP.Chemscore.Internal.Correction>
0.0667

> <Gold.Rescore>
     Score         DG    S(hbond)    S(metal)    S(lipo)     H(rot)  DE(clash)    DE(int)     intcor
     14.16     -14.58       1.94        0.00      69.26       2.14       0.05       0.37       ----

> <Gold.Chemscore.Fitness>
14.1578

> <Gold.Chemscore.DG>
-14.5782

> <Gold.Chemscore.ZeroCoef>
-5.4800

> <Gold.Chemscore.Hbond>
1.9399

> <Gold.Chemscore.Metal>
0.0000

> <Gold.Chemscore.Lipo>
69.2617

> <Gold.Chemscore.Internal_Hbond>
0.0000

> <Gold.Chemscore.DEClash>
0.0519

> <Gold.Chemscore.DEInternal>
0.3684

> <Gold.Chemscore.Rot>
2.1424

> <Gold.Chemscore.Internal.Correction>
   9.000000E+99

> <Gold.Chemscore.Hbonds>
donor molecule, donor type, donor heavy atom, donor atom, acceptor molecule, acceptor atom, score
      L1  H     3    23       P1  7948  0.99
      L1  H     6    26       P1  7948  0.26

> <Gold.Chemscore.Hbond.Weighted>
-6.4792

> <Gold.Chemscore.Metal.Weighted>
-0.0000

> <Gold.Chemscore.Lipo.Weighted>
-8.1036

> <Gold.Chemscore.Internal_Hbond.Weighted>
0.0000

> <Gold.Chemscore.DEClash.Weighted>
0.0519

> <Gold.Chemscore.DEInternal.Weighted>
0.3684

> <Gold.Chemscore.Rot.Weighted>
5.4846

> <Gold.Chemscore.Internal.Correction.Weighted>
   9.000000E+99

> <Gold.Protein.RotatedTorsions>
[ 6907 6896 6895 6894 ] final  -11.12 input  -60.11 | X-H torsion
[ 7974 7965 7964 7962 ] final    3.36 input  175.53 | X-H torsion
[ 8008 7997 7996 7995 ] final   53.22 input   59.86 | X-H torsion
[ 10167 10162 10161 10158 ] final  111.46 input  -65.29 | X-H torsion
[ 10718 10713 10712 10709 ] final  -50.05 input   66.30 | X-H torsion
[ 10763 10752 10751 10750 ] final   96.51 input  -60.55 | X-H torsion
[ 11005 11000 10999 10996 ] final   13.81 input  -57.11 | X-H torsion

> <Gold.Protein.ActiveResidues>
 VAL166  LYS551  ARG553  GLY616  TRP617  ASP618  TYR619  PRO620  LYS621  CYS622 
 ASP623  PHE694  ASN695  SER759  ASP760  ASP761  ALA762  ILE779  LEU786  VAL792 
 PHE793  MET794  SER795  GLU796  ALA797  LYS798  CYS799  TRP800  GLU811  SER814 

> <Gold.Protein.RotatedAtoms>
  151.3912  135.0956  159.9526 H   0  0  0  0  0  0  0  0  0  0  0  0  # atno 6907 bound_to 6896
  152.5079  133.8978  159.7436 H   0  0  0  0  0  0  0  0  0  0  0  0  # atno 6908 bound_to 6896
  150.9432  133.6577  159.2815 H   0  0  0  0  0  0  0  0  0  0  0  0  # atno 6909 bound_to 6896
  146.2445  140.0697  142.8363 H   0  0  0  0  0  0  0  0  0  0  0  0  # atno 7974 bound_to 7965
  155.4647  140.3463  155.4317 H   0  0  0  0  0  0  0  0  0  0  0  0  # atno 8008 bound_to 7997
  156.1138  140.1468  156.9330 H   0  0  0  0  0  0  0  0  0  0  0  0  # atno 8009 bound_to 7997
  154.4775  140.0880  156.7276 H   0  0  0  0  0  0  0  0  0  0  0  0  # atno 8010 bound_to 7997
  139.6609  144.7128  151.1866 H   0  0  0  0  0  0  0  0  0  0  0  0  # atno 10167 bound_to 10162
  156.1836  130.4151  149.9471 H   0  0  0  0  0  0  0  0  0  0  0  0  # atno 10718 bound_to 10713
  153.2658  135.4216  155.0939 H   0  0  0  0  0  0  0  0  0  0  0  0  # atno 10763 bound_to 10752
  154.8437  135.3460  154.6314 H   0  0  0  0  0  0  0  0  0  0  0  0  # atno 10764 bound_to 10752
  153.6734  135.7042  153.5197 H   0  0  0  0  0  0  0  0  0  0  0  0  # atno 10765 bound_to 10752
  140.4766  134.0977  155.7742 H   0  0  0  0  0  0  0  0  0  0  0  0  # atno 11005 bound_to 11000
  145.0827  140.9232  143.4816 LP  0  0  0  0  0  0  0  0  0  0  0  0  # atno 17320 bound_to 7965
  145.0853  139.2929  143.5762 LP  0  0  0  0  0  0  0  0  0  0  0  0  # atno 17321 bound_to 7965
  140.7579  143.5995  150.8714 LP  0  0  0  0  0  0  0  0  0  0  0  0  # atno 17342 bound_to 10162
  139.9653  143.6118  152.2990 LP  0  0  0  0  0  0  0  0  0  0  0  0  # atno 17343 bound_to 10162
  156.7234  130.9015  151.3620 LP  0  0  0  0  0  0  0  0  0  0  0  0  # atno 17370 bound_to 10713
  157.6884  130.9209  150.0448 LP  0  0  0  0  0  0  0  0  0  0  0  0  # atno 17371 bound_to 10713
  141.1551  133.8897  157.1997 LP  0  0  0  0  0  0  0  0  0  0  0  0  # atno 17394 bound_to 11000
  139.9852  135.0084  156.9846 LP  0  0  0  0  0  0  0  0  0  0  0  0  # atno 17395 bound_to 11000

$$$$
