AV-unprocessed.smi:1007|AV-procd|sdf|4408|dock3
  -GOLD-   22720 2353D 1   1.00000     0.00000
 Structure written by MMmdl.
 57 59  0  0  0  0  0  0  0  0  3 V2000
  147.4033  132.5213  152.3067 C   0  0  0  0  0  0  0  0  0  0  0  0
  146.7262  133.7631  152.3939 O   0  0  0  0  0  0  0  0  0  0  0  0
  146.8045  134.3361  153.6885 C   0  0  0  0  0  0  0  0  0  0  0  0
  145.9937  135.6411  153.7007 C   0  0  0  0  0  0  0  0  0  0  0  0
  146.8176  136.8249  153.3466 N   0  3  2  0  0  0  0  0  0  0  0  0
  147.6167  137.3187  154.4959 C   0  0  0  0  0  0  0  0  0  0  0  0
  148.5370  138.4802  154.0739 C   0  0  0  0  0  0  0  0  0  0  0  0
  147.7708  139.5929  153.4594 N   0  3  2  0  0  0  0  0  0  0  0  0
  147.0294  140.4138  154.4542 C   0  0  0  0  0  0  0  0  0  0  0  0
  147.8706  141.5817  155.0163 C   0  0  2  0  0  0  0  0  0  0  0  0
  147.4735  142.7779  154.3777 O   0  0  0  0  0  0  0  0  0  0  0  0
  149.3870  141.4088  154.7985 C   0  0  0  0  0  0  0  0  0  0  0  0
  150.0604  140.8995  155.9794 N   0  0  0  0  0  0  0  0  0  0  0  0
  150.1483  139.6134  156.3694 C   0  0  0  0  0  0  0  0  0  0  0  0
  150.8376  139.3599  157.4777 N   0  0  0  0  0  0  0  0  0  0  0  0
  151.2339  140.6304  157.8583 C   0  0  0  0  0  0  0  0  0  0  0  0
  152.0063  141.0597  158.9595 C   0  0  0  0  0  0  0  0  0  0  0  0
  152.3016  142.4288  159.1481 C   0  0  0  0  0  0  0  0  0  0  0  0
  153.1364  142.8458  160.3463 C   0  0  0  0  0  0  0  0  0  0  0  0
  151.8204  143.3933  158.2265 C   0  0  0  0  0  0  0  0  0  0  0  0
  152.1237  144.8700  158.4094 C   0  0  0  0  0  0  0  0  0  0  0  0
  151.0456  142.9819  157.1223 C   0  0  0  0  0  0  0  0  0  0  0  0
  150.7604  141.6166  156.9443 C   0  0  0  0  0  0  0  0  0  0  0  0
  146.9510  139.1033  152.3192 C   0  0  0  0  0  0  0  0  0  0  0  0
  146.0395  137.9228  152.7156 C   0  0  0  0  0  0  0  0  0  0  0  0
  147.3137  132.1252  151.2951 H   0  0  0  0  0  0  0  0  0  0  0  0
  146.9753  131.7896  152.9932 H   0  0  0  0  0  0  0  0  0  0  0  0
  148.4648  132.6335  152.5315 H   0  0  0  0  0  0  0  0  0  0  0  0
  146.4470  133.6354  154.4433 H   0  0  0  0  0  0  0  0  0  0  0  0
  147.8461  134.5559  153.9266 H   0  0  0  0  0  0  0  0  0  0  0  0
  145.1415  135.5684  153.0234 H   0  0  0  0  0  0  0  0  0  0  0  0
  145.5791  135.7689  154.7018 H   0  0  0  0  0  0  0  0  0  0  0  0
  146.9491  137.6307  155.3006 H   0  0  0  0  0  0  0  0  0  0  0  0
  148.2277  136.5065  154.8917 H   0  0  0  0  0  0  0  0  0  0  0  0
  149.1168  138.8404  154.9247 H   0  0  0  0  0  0  0  0  0  0  0  0
  149.2637  138.1197  153.3445 H   0  0  0  0  0  0  0  0  0  0  0  0
  146.1116  140.7784  153.9967 H   0  0  0  0  0  0  0  0  0  0  0  0
  146.7163  139.7857  155.2896 H   0  0  0  0  0  0  0  0  0  0  0  0
  147.6937  141.6996  156.0847 H   0  0  0  0  0  0  0  0  0  0  0  0
  146.5465  142.9043  154.5154 H   0  0  0  0  0  0  0  0  0  0  0  0
  149.5811  140.7286  153.9679 H   0  0  0  0  0  0  0  0  0  0  0  0
  149.8425  142.3635  154.5312 H   0  0  0  0  0  0  0  0  0  0  0  0
  149.6889  138.8170  155.8016 H   0  0  0  0  0  0  0  0  0  0  0  0
  152.3723  140.3251  159.6621 H   0  0  0  0  0  0  0  0  0  0  0  0
  152.5877  143.5535  160.9681 H   0  0  0  0  0  0  0  0  0  0  0  0
  154.0637  143.3171  160.0204 H   0  0  0  0  0  0  0  0  0  0  0  0
  153.3972  141.9889  160.9679 H   0  0  0  0  0  0  0  0  0  0  0  0
  151.7035  145.4660  157.5989 H   0  0  0  0  0  0  0  0  0  0  0  0
  153.2002  145.0412  158.4269 H   0  0  0  0  0  0  0  0  0  0  0  0
  151.6998  145.2330  159.3461 H   0  0  0  0  0  0  0  0  0  0  0  0
  150.6727  143.7072  156.4144 H   0  0  0  0  0  0  0  0  0  0  0  0
  146.3598  139.9075  151.8838 H   0  0  0  0  0  0  0  0  0  0  0  0
  147.6327  138.7773  151.5325 H   0  0  0  0  0  0  0  0  0  0  0  0
  145.5344  137.5586  151.8217 H   0  0  0  0  0  0  0  0  0  0  0  0
  145.2558  138.2558  153.3973 H   0  0  0  0  0  0  0  0  0  0  0  0
  148.4602  140.2214  153.0701 H   0  0  0  0  0  0  0  0  0  0  0  0
  147.4857  136.5036  152.6599 H   0  0  0  0  0  0  0  0  0  0  0  0
  1  2  1  0  0  0  0
  1 26  1  0  0  0  0
  1 27  1  0  0  0  0
  1 28  1  0  0  0  0
  2  3  1  0  0  0  0
  3  4  1  0  0  0  0
  3 29  1  0  0  0  0
  3 30  1  0  0  0  0
  4  5  1  0  0  0  0
  4 31  1  0  0  0  0
  4 32  1  0  0  0  0
  5 25  1  0  0  0  0
  5  6  1  0  0  0  0
  5 57  1  0  0  0  0
  6  7  1  0  0  0  0
  6 33  1  0  0  0  0
  6 34  1  0  0  0  0
  7  8  1  0  0  0  0
  7 35  1  0  0  0  0
  7 36  1  0  0  0  0
  8  9  1  0  0  0  0
  8 24  1  0  0  0  0
  8 56  1  0  0  0  0
  9 10  1  0  0  0  0
  9 37  1  0  0  0  0
  9 38  1  0  0  0  0
 10 11  1  0  0  0  0
 10 12  1  0  0  0  0
 10 39  1  0  0  0  0
 11 40  1  0  0  0  0
 12 13  1  0  0  0  0
 12 41  1  0  0  0  0
 12 42  1  0  0  0  0
 13 23  1  0  0  0  0
 13 14  1  0  0  0  0
 14 15  2  0  0  0  0
 14 43  1  0  0  0  0
 15 16  1  0  0  0  0
 16 23  2  0  0  0  0
 16 17  1  0  0  0  0
 17 18  2  0  0  0  0
 17 44  1  0  0  0  0
 18 19  1  0  0  0  0
 18 20  1  0  0  0  0
 19 45  1  0  0  0  0
 19 46  1  0  0  0  0
 19 47  1  0  0  0  0
 20 21  1  0  0  0  0
 20 22  2  0  0  0  0
 21 48  1  0  0  0  0
 21 49  1  0  0  0  0
 21 50  1  0  0  0  0
 22 23  1  0  0  0  0
 22 51  1  0  0  0  0
 24 25  1  0  0  0  0
 24 52  1  0  0  0  0
 24 53  1  0  0  0  0
 25 54  1  0  0  0  0
 25 55  1  0  0  0  0
M  CHG  1   5   1
M  CHG  1   8   1
M  END
> <s_m_source_file>
AV-unprocessed.smi

> <i_m_source_file_index>
1007

> <i_lp_mmshare_version>
43012

> <i_f3d_flags>
0

> <s_epik_input>
W0NIM11PW0NIMl1bQ0gyXU4xW0NIMl1bQ0gyXU4oW0NIMl1bQ0gyXTEpW0NIMl1bQ0BIXShbT0hdKVtDSDJdbihbY0hdbjIpYyhjMjMpW2NIXWMoW0NIM10pYyhbY0hdMylbQ0gzXQ==

> <s_epik_cmdline>
J2VwaWtfcHl0aG9uJywgJy1waCcsICc3LjAnLCAnLXRuJywgJzgnLCAnLW1hJywgJzIwMCcsICctbWV0YWxfYmluZGluZycsICctaW1hZScsICc8aW5maWxlLm1hZT4nLCAnLW9tYWUnLCAnPG91dGZpbGUubWFlPic=

> <r_epik_Ionization_Penalty>
3.88944

> <r_epik_Ionization_Penalty_Charging>
3.80608

> <r_epik_Ionization_Penalty_Neutral>
0.0833653

> <r_epik_State_Penalty>
2.70739

> <r_epik_Charging_Adjusted_Penalty>
6.51347

> <i_epik_Tot_Q>
2

> <i_epik_Tot_abs_Q>
2

> <r_epik_Metal_State_Penalty>
2.62239

> <b_epik_Metal_Only>
0

> <s_lp_Force_Field>
OPLS_2005

> <r_lp_Energy>
30.4149

> <b_lp_Chiralities_Consistent>
1

> <s_lp_Variant>
AV-unprocessed.smi:1007-11

> <Gold.Version>
5.8.1

> <Gold.Id.Protein>
6NUR|6NUR_protein|mol2

> <Gold.PLP.Fitness>
51.4903

> <Gold.PLP.PLP>
-45.8624

> <Gold.PLP.part.hbond>
-5.0000

> <Gold.PLP.part.metal>
0.0000

> <Gold.PLP.part.buried>
2.2413

> <Gold.PLP.part.nonpolar>
-42.6036

> <Gold.PLP.part.repulsive>
0.2043

> <Gold.PLP.ligand.clash>
0.0000

> <Gold.PLP.ligand.torsion>
2.3523

> <Gold.PLP.Chemscore.Hbond>
3.3686

> <Gold.PLP.Chemscore.CHOScore>
0.0000

> <Gold.PLP.Chemscore.Metal>
0.0000

> <Gold.Chemscore.Hbonds>
donor molecule, donor type, donor heavy atom, donor atom, acceptor molecule, acceptor atom, score
      L1  H     5    57       P1  7948  2.00
      L1  H     8    56       P1  7957  0.29
      P1  H  8022  8030       L1    11  0.08

> <Gold.PLP.Chemscore.Internal.Correction>
0.2267

> <Gold.Rescore>
     Score         DG    S(hbond)    S(metal)    S(lipo)     H(rot)  DE(clash)    DE(int)     intcor
     16.07     -21.02       1.81        0.00     138.88       2.63       2.33       2.62       ----

> <Gold.Chemscore.Fitness>
16.0654

> <Gold.Chemscore.DG>
-21.0151

> <Gold.Chemscore.ZeroCoef>
-5.4800

> <Gold.Chemscore.Hbond>
1.8058

> <Gold.Chemscore.Metal>
0.0000

> <Gold.Chemscore.Lipo>
138.8758

> <Gold.Chemscore.Internal_Hbond>
0.0000

> <Gold.Chemscore.DEClash>
2.3307

> <Gold.Chemscore.DEInternal>
2.6190

> <Gold.Chemscore.Rot>
2.6347

> <Gold.Chemscore.Internal.Correction>
   9.000000E+99

> <Gold.Chemscore.Hbonds>
donor molecule, donor type, donor heavy atom, donor atom, acceptor molecule, acceptor atom, score
      L1  H     5    57       P1  7948  1.00
      L1  H     8    56       P1  7957  0.29
      P1  H  8022  8030       L1    11  0.08

> <Gold.Chemscore.Hbond.Weighted>
-6.0313

> <Gold.Chemscore.Metal.Weighted>
-0.0000

> <Gold.Chemscore.Lipo.Weighted>
-16.2485

> <Gold.Chemscore.Internal_Hbond.Weighted>
0.0000

> <Gold.Chemscore.DEClash.Weighted>
2.3307

> <Gold.Chemscore.DEInternal.Weighted>
2.6190

> <Gold.Chemscore.Rot.Weighted>
6.7448

> <Gold.Chemscore.Internal.Correction.Weighted>
   9.000000E+99

> <Gold.Protein.RotatedTorsions>
[ 6907 6896 6895 6894 ] final  -53.87 input  -60.11 | X-H torsion
[ 7974 7965 7964 7962 ] final   74.77 input  175.53 | X-H torsion
[ 8008 7997 7996 7995 ] final   -6.65 input   59.86 | X-H torsion
[ 10167 10162 10161 10158 ] final  -54.38 input  -65.29 | X-H torsion
[ 10718 10713 10712 10709 ] final   88.81 input   66.30 | X-H torsion
[ 10763 10752 10751 10750 ] final -150.38 input  -60.55 | X-H torsion
[ 11005 11000 10999 10996 ] final  168.51 input  -57.11 | X-H torsion

> <Gold.Protein.ActiveResidues>
 VAL166  LYS551  ARG553  GLY616  TRP617  ASP618  TYR619  PRO620  LYS621  CYS622 
 ASP623  PHE694  ASN695  SER759  ASP760  ASP761  ALA762  ILE779  LEU786  VAL792 
 PHE793  MET794  SER795  GLU796  ALA797  LYS798  CYS799  TRP800  GLU811  SER814 

> <Gold.Protein.RotatedAtoms>
  150.8388  134.7672  159.6914 H   0  0  0  0  0  0  0  0  0  0  0  0  # atno 6907 bound_to 6896
  152.4479  134.5452  159.9860 H   0  0  0  0  0  0  0  0  0  0  0  0  # atno 6908 bound_to 6896
  151.5596  133.3367  159.3004 H   0  0  0  0  0  0  0  0  0  0  0  0  # atno 6909 bound_to 6896
  145.7241  139.2659  143.1579 H   0  0  0  0  0  0  0  0  0  0  0  0  # atno 7974 bound_to 7965
  154.5916  140.2427  155.7913 H   0  0  0  0  0  0  0  0  0  0  0  0  # atno 8008 bound_to 7997
  156.2251  140.2985  156.0001 H   0  0  0  0  0  0  0  0  0  0  0  0  # atno 8009 bound_to 7997
  155.2364  140.0405  157.2959 H   0  0  0  0  0  0  0  0  0  0  0  0  # atno 8010 bound_to 7997
  140.6433  143.2520  151.4928 H   0  0  0  0  0  0  0  0  0  0  0  0  # atno 10167 bound_to 10162
  157.6951  131.0309  150.3331 H   0  0  0  0  0  0  0  0  0  0  0  0  # atno 10718 bound_to 10713
  154.8122  135.3286  154.7274 H   0  0  0  0  0  0  0  0  0  0  0  0  # atno 10763 bound_to 10752
  153.7921  135.6910  153.4874 H   0  0  0  0  0  0  0  0  0  0  0  0  # atno 10764 bound_to 10752
  153.1910  135.4551  155.0095 H   0  0  0  0  0  0  0  0  0  0  0  0  # atno 10765 bound_to 10752
  140.2880  134.7696  157.3814 H   0  0  0  0  0  0  0  0  0  0  0  0  # atno 11005 bound_to 11000
  146.0598  140.7982  142.9740 LP  0  0  0  0  0  0  0  0  0  0  0  0  # atno 17320 bound_to 7965
  144.6909  140.3180  143.7237 LP  0  0  0  0  0  0  0  0  0  0  0  0  # atno 17321 bound_to 7965
  139.5643  144.2080  152.1740 LP  0  0  0  0  0  0  0  0  0  0  0  0  # atno 17342 bound_to 10162
  140.1358  144.5247  150.6774 LP  0  0  0  0  0  0  0  0  0  0  0  0  # atno 17343 bound_to 10162
  156.3802  130.3879  149.7108 LP  0  0  0  0  0  0  0  0  0  0  0  0  # atno 17370 bound_to 10713
  156.4493  130.7899  151.2920 LP  0  0  0  0  0  0  0  0  0  0  0  0  # atno 17371 bound_to 10713
  140.1222  134.5205  155.8174 LP  0  0  0  0  0  0  0  0  0  0  0  0  # atno 17394 bound_to 11000
  141.2151  133.6760  156.6886 LP  0  0  0  0  0  0  0  0  0  0  0  0  # atno 17395 bound_to 11000

$$$$
