AV-unprocessed.smi:2969|AV-procd|sdf|11330|dock1
  -GOLD-   2272016243D 1   1.00000     0.00000
 Structure written by MMmdl.
 39 39  0  0  0  0  0  0  0  0  2 V2000
  147.2664  131.9028  152.9414 C   0  0  0  0  0  0  0  0  0  0  0  0
  147.9338  131.2177  154.1412 C   0  0  0  0  0  0  0  0  0  0  0  0
  149.4593  131.4353  154.2319 C   0  0  0  0  0  0  0  0  0  0  0  0
  149.8366  132.4847  155.2066 N   0  0  0  0  0  0  0  0  0  0  0  0
  149.6675  133.8485  154.8438 C   0  0  0  0  0  0  0  0  0  0  0  0
  149.1452  134.1544  153.5954 N   0  0  0  0  0  0  0  0  0  0  0  0
  150.0253  134.8323  155.7111 C   0  0  0  0  0  0  0  0  0  0  0  0
  149.8691  136.1974  155.4107 N   0  0  0  0  0  0  0  0  0  0  0  0
  148.4874  136.6992  155.3360 C   0  0  0  0  0  0  0  0  0  0  0  0
  147.7565  136.6302  156.6926 C   0  0  0  0  0  0  0  0  0  0  0  0
  147.7613  135.3129  157.2245 O   0  0  0  0  0  0  0  0  0  0  0  0
  147.3594  135.2370  158.5836 C   0  0  0  0  0  0  0  0  0  0  0  0
  150.9256  137.0487  155.3075 C   0  0  0  0  0  0  0  0  0  0  0  0
  152.0883  136.6457  155.3885 O   0  0  0  0  0  0  0  0  0  0  0  0
  150.6976  138.5617  155.1002 C   0  0  0  0  0  0  0  0  0  0  0  0
  150.0358  138.7788  153.9645 F   0  0  0  0  0  0  0  0  0  0  0  0
  150.0196  139.0743  156.1267 F   0  0  0  0  0  0  0  0  0  0  0  0
  151.8749  139.1852  155.0249 F   0  0  0  0  0  0  0  0  0  0  0  0
  150.5445  134.4604  157.0319 C   0  0  0  0  0  0  0  0  0  0  0  0
  150.8421  135.3346  157.8462 O   0  0  0  0  0  0  0  0  0  0  0  0
  150.6776  133.1369  157.3089 N   0  5  0  0  0  0  0  0  0  0  0  0
  150.3444  132.1463  156.4329 C   0  0  0  0  0  0  0  0  0  0  0  0
  150.4939  130.9578  156.7194 O   0  0  0  0  0  0  0  0  0  0  0  0
  146.2063  131.6540  152.8942 H   0  0  0  0  0  0  0  0  0  0  0  0
  147.7248  131.5884  152.0035 H   0  0  0  0  0  0  0  0  0  0  0  0
  147.3452  132.9881  153.0078 H   0  0  0  0  0  0  0  0  0  0  0  0
  147.4509  131.5566  155.0578 H   0  0  0  0  0  0  0  0  0  0  0  0
  147.7398  130.1464  154.0816 H   0  0  0  0  0  0  0  0  0  0  0  0
  149.9457  130.4957  154.4953 H   0  0  0  0  0  0  0  0  0  0  0  0
  149.8478  131.6448  153.2345 H   0  0  0  0  0  0  0  0  0  0  0  0
  148.8811  133.4373  152.9354 H   0  0  0  0  0  0  0  0  0  0  0  0
  148.9842  135.1094  153.3090 H   0  0  0  0  0  0  0  0  0  0  0  0
  148.4870  137.7346  154.9904 H   0  0  0  0  0  0  0  0  0  0  0  0
  147.9470  136.1408  154.5708 H   0  0  0  0  0  0  0  0  0  0  0  0
  148.1695  137.3352  157.4154 H   0  0  0  0  0  0  0  0  0  0  0  0
  146.7133  136.9108  156.5524 H   0  0  0  0  0  0  0  0  0  0  0  0
  147.3470  134.1940  158.8994 H   0  0  0  0  0  0  0  0  0  0  0  0
  146.3546  135.6385  158.7211 H   0  0  0  0  0  0  0  0  0  0  0  0
  148.0426  135.7725  159.2423 H   0  0  0  0  0  0  0  0  0  0  0  0
  1  2  1  0  0  0  0
  1 24  1  0  0  0  0
  1 25  1  0  0  0  0
  1 26  1  0  0  0  0
  2  3  1  0  0  0  0
  2 27  1  0  0  0  0
  2 28  1  0  0  0  0
  3  4  1  0  0  0  0
  3 29  1  0  0  0  0
  3 30  1  0  0  0  0
  4 22  1  0  0  0  0
  4  5  1  0  0  0  0
  5  6  1  0  0  0  0
  5  7  2  0  0  0  0
  6 31  1  0  0  0  0
  6 32  1  0  0  0  0
  7  8  1  0  0  0  0
  7 19  1  0  0  0  0
  8  9  1  0  0  0  0
  8 13  1  0  0  0  0
  9 10  1  0  0  0  0
  9 33  1  0  0  0  0
  9 34  1  0  0  0  0
 10 11  1  0  0  0  0
 10 35  1  0  0  0  0
 10 36  1  0  0  0  0
 11 12  1  0  0  0  0
 12 37  1  0  0  0  0
 12 38  1  0  0  0  0
 12 39  1  0  0  0  0
 13 14  2  0  0  0  0
 13 15  1  0  0  0  0
 15 16  1  0  0  0  0
 15 17  1  0  0  0  0
 15 18  1  0  0  0  0
 19 20  2  0  0  0  0
 19 21  1  0  0  0  0
 21 22  1  0  0  0  0
 22 23  2  0  0  0  0
M  CHG  1  21  -1
M  END
> <s_m_source_file>
AV-unprocessed.smi

> <i_m_source_file_index>
2969

> <i_lp_mmshare_version>
43012

> <i_f3d_flags>
0

> <s_epik_input>
W0NIM11bQ0gyXVtDSDJdbjFjKFtOSDJdKWMoYyg9TylbbkhdYzE9TylOKEMoPU8pQyhGKShGKUYpW0NIMl1bQ0gyXU9bQ0gzXQ==

> <s_epik_cmdline>
J2VwaWtfcHl0aG9uJywgJy1waCcsICc3LjAnLCAnLXRuJywgJzgnLCAnLW1hJywgJzIwMCcsICctbWV0YWxfYmluZGluZycsICctaW1hZScsICc8aW5maWxlLm1hZT4nLCAnLW9tYWUnLCAnPG91dGZpbGUubWFlPic=

> <r_lp_tautomer_probability>
1

> <r_epik_Ionization_Penalty>
4.29138

> <r_epik_Ionization_Penalty_Charging>
0.0262752

> <r_epik_Ionization_Penalty_Neutral>
4.26511

> <r_epik_State_Penalty>
4.26466

> <r_epik_Charging_Adjusted_Penalty>
4.29094

> <i_epik_Tot_Q>
-1

> <i_epik_Tot_abs_Q>
1

> <r_epik_Metal_State_Penalty>
0.502851

> <b_epik_Metal_Only>
1

> <s_epik_Chemistry_Notes>
This compound has an imine and may undergo hydrolysis.

> <s_lp_Force_Field>
OPLS_2005

> <r_lp_Energy>
42.256

> <b_lp_Chiralities_Consistent>
1

> <s_lp_Variant>
AV-unprocessed.smi:2969-2

> <Gold.Version>
5.8.1

> <Gold.Id.Protein>
6NUR|6NUR_protein|mol2

> <Gold.PLP.Fitness>
35.6036

> <Gold.PLP.PLP>
-27.2656

> <Gold.PLP.part.hbond>
-4.2037

> <Gold.PLP.part.metal>
0.0000

> <Gold.PLP.part.buried>
2.5045

> <Gold.PLP.part.nonpolar>
-26.0433

> <Gold.PLP.part.repulsive>
0.0708

> <Gold.PLP.ligand.clash>
4.3499

> <Gold.PLP.ligand.torsion>
1.8882

> <Gold.PLP.Chemscore.Hbond>
3.4582

> <Gold.PLP.Chemscore.CHOScore>
0.0000

> <Gold.PLP.Chemscore.Metal>
0.0000

> <Gold.Chemscore.Hbonds>
donor molecule, donor type, donor heavy atom, donor atom, acceptor molecule, acceptor atom, score
      L1  H     6    32       P1  7948  0.85
      P1  H  6896  6908       L1    21  1.32
      P1  H  6896  6909       L1    20  0.19
      P1  H 10752 10765       L1    14  1.00

> <Gold.PLP.Chemscore.Internal.Correction>
6.0897

> <Gold.Rescore>
     Score         DG    S(hbond)    S(metal)    S(lipo)     H(rot)  DE(clash)    DE(int)     intcor
      1.97      -9.79       2.02        0.00      28.20       2.24       0.66       7.16       ----

> <Gold.Chemscore.Fitness>
1.9705

> <Gold.Chemscore.DG>
-9.7865

> <Gold.Chemscore.ZeroCoef>
-5.4800

> <Gold.Chemscore.Hbond>
2.0159

> <Gold.Chemscore.Metal>
0.0000

> <Gold.Chemscore.Lipo>
28.1978

> <Gold.Chemscore.Internal_Hbond>
0.0000

> <Gold.Chemscore.DEClash>
0.6571

> <Gold.Chemscore.DEInternal>
7.1588

> <Gold.Chemscore.Rot>
2.2366

> <Gold.Chemscore.Internal.Correction>
   9.000000E+99

> <Gold.Chemscore.Hbonds>
donor molecule, donor type, donor heavy atom, donor atom, acceptor molecule, acceptor atom, score
      L1  H     6    32       P1  7948  0.29
      P1  H  6896  6908       L1    21  0.06
      P1  H  6896  6909       L1    20  0.18
      P1  H 10752 10765       L1    14  0.92

> <Gold.Chemscore.Hbond.Weighted>
-6.7330

> <Gold.Chemscore.Metal.Weighted>
-0.0000

> <Gold.Chemscore.Lipo.Weighted>
-3.2991

> <Gold.Chemscore.Internal_Hbond.Weighted>
0.0000

> <Gold.Chemscore.DEClash.Weighted>
0.6571

> <Gold.Chemscore.DEInternal.Weighted>
7.1588

> <Gold.Chemscore.Rot.Weighted>
5.7257

> <Gold.Chemscore.Internal.Correction.Weighted>
   9.000000E+99

> <Gold.Protein.RotatedTorsions>
[ 6907 6896 6895 6894 ] final   86.55 input  -60.11 | X-H torsion
[ 7974 7965 7964 7962 ] final  120.94 input  175.53 | X-H torsion
[ 8008 7997 7996 7995 ] final   88.22 input   59.86 | X-H torsion
[ 10167 10162 10161 10158 ] final -126.59 input  -65.29 | X-H torsion
[ 10718 10713 10712 10709 ] final   -4.14 input   66.30 | X-H torsion
[ 10763 10752 10751 10750 ] final -167.26 input  -60.55 | X-H torsion
[ 11005 11000 10999 10996 ] final  120.87 input  -57.11 | X-H torsion

> <Gold.Protein.ActiveResidues>
 VAL166  LYS551  ARG553  GLY616  TRP617  ASP618  TYR619  PRO620  LYS621  CYS622 
 ASP623  PHE694  ASN695  SER759  ASP760  ASP761  ALA762  ILE779  LEU786  VAL792 
 PHE793  MET794  SER795  GLU796  ALA797  LYS798  CYS799  TRP800  GLU811  SER814 

> <Gold.Protein.RotatedAtoms>
  152.5396  134.2414  159.8862 H   0  0  0  0  0  0  0  0  0  0  0  0  # atno 6907 bound_to 6896
  151.2381  133.4407  159.2614 H   0  0  0  0  0  0  0  0  0  0  0  0  # atno 6908 bound_to 6896
  151.0652  134.9777  159.8337 H   0  0  0  0  0  0  0  0  0  0  0  0  # atno 6909 bound_to 6896
  145.1252  139.3363  143.4693 H   0  0  0  0  0  0  0  0  0  0  0  0  # atno 7974 bound_to 7965
  155.9851  140.3374  155.6699 H   0  0  0  0  0  0  0  0  0  0  0  0  # atno 8008 bound_to 7997
  155.6497  140.0704  157.2609 H   0  0  0  0  0  0  0  0  0  0  0  0  # atno 8009 bound_to 7997
  154.4203  140.1728  156.1648 H   0  0  0  0  0  0  0  0  0  0  0  0  # atno 8010 bound_to 7997
  139.9698  143.5858  152.2416 H   0  0  0  0  0  0  0  0  0  0  0  0  # atno 10167 bound_to 10162
  156.7657  130.5284  149.5776 H   0  0  0  0  0  0  0  0  0  0  0  0  # atno 10718 bound_to 10713
  154.6750  135.2945  154.9690 H   0  0  0  0  0  0  0  0  0  0  0  0  # atno 10763 bound_to 10752
  154.0704  135.6619  153.4827 H   0  0  0  0  0  0  0  0  0  0  0  0  # atno 10764 bound_to 10752
  153.0511  135.5173  154.7765 H   0  0  0  0  0  0  0  0  0  0  0  0  # atno 10765 bound_to 10752
  139.9203  134.9636  156.7873 H   0  0  0  0  0  0  0  0  0  0  0  0  # atno 11005 bound_to 11000
  146.3518  140.1228  142.8599 LP  0  0  0  0  0  0  0  0  0  0  0  0  # atno 17320 bound_to 7965
  145.0696  140.9146  143.4890 LP  0  0  0  0  0  0  0  0  0  0  0  0  # atno 17321 bound_to 7965
  139.6490  144.7660  151.2186 LP  0  0  0  0  0  0  0  0  0  0  0  0  # atno 17342 bound_to 10162
  140.7526  143.6192  150.8530 LP  0  0  0  0  0  0  0  0  0  0  0  0  # atno 17343 bound_to 10162
  156.1310  130.6178  151.0333 LP  0  0  0  0  0  0  0  0  0  0  0  0  # atno 17370 bound_to 10713
  157.6714  131.0860  150.7602 LP  0  0  0  0  0  0  0  0  0  0  0  0  # atno 17371 bound_to 10713
  140.6496  133.9744  155.7748 LP  0  0  0  0  0  0  0  0  0  0  0  0  # atno 17394 bound_to 11000
  141.0717  134.0195  157.3516 LP  0  0  0  0  0  0  0  0  0  0  0  0  # atno 17395 bound_to 11000

$$$$
