AV-unprocessed.smi:3308|AV-procd|sdf|12711|dock9
  -GOLD-   2272019 43D 1   1.00000     0.00000
 Structure written by MMmdl.
 41 42  0  0  0  0  0  0  0  0  2 V2000
  149.2911  143.6210  159.0303 C   0  0  0  0  0  0  0  0  0  0  0  0
  150.4093  142.8633  158.2876 C   0  0  1  0  0  0  0  0  0  0  0  0
  150.1217  142.7845  156.8358 N   0  3  0  0  0  0  0  0  0  0  0  0
  151.2347  142.3085  155.9857 C   0  0  0  0  0  0  0  0  0  0  0  0
  151.3217  140.7762  155.9467 C   0  0  0  0  0  0  0  0  0  0  0  0
  152.3021  140.2083  156.4306 O   0  0  0  0  0  0  0  0  0  0  0  0
  150.3084  140.0952  155.3727 N   0  0  0  0  0  0  0  0  0  0  0  0
  150.2686  138.6373  155.2730 C   0  0  0  0  0  0  0  0  0  0  0  0
  148.8547  138.2923  154.8052 C   0  0  0  0  0  0  0  0  0  0  0  0
  148.3916  139.5403  154.0664 C   0  0  0  0  0  0  0  0  0  0  0  0
  149.1105  140.6875  154.7775 C   0  0  0  0  0  0  0  0  0  0  0  0
  151.8059  143.4878  158.5459 C   0  0  1  0  0  0  0  0  0  0  0  0
  151.8158  145.0223  158.4106 C   0  0  0  0  0  0  0  0  0  0  0  0
  152.4057  143.0503  159.8032 N   0  0  0  0  0  0  0  0  0  0  0  0
  153.5078  142.2388  159.9828 C   0  0  0  0  0  0  0  0  0  0  0  0
  153.6913  142.0871  161.3272 C   0  0  0  0  0  0  0  0  0  0  0  0
  152.6364  142.8497  161.9005 C   0  0  0  0  0  0  0  0  0  0  0  0
  151.8668  143.4197  160.9878 N   0  0  0  0  0  0  0  0  0  0  0  0
  149.5333  143.7336  160.0875 H   0  0  0  0  0  0  0  0  0  0  0  0
  148.3400  143.0917  158.9776 H   0  0  0  0  0  0  0  0  0  0  0  0
  149.1372  144.6187  158.6178 H   0  0  0  0  0  0  0  0  0  0  0  0
  150.4388  141.8433  158.6736 H   0  0  0  0  0  0  0  0  0  0  0  0
  149.3165  142.1907  156.6935 H   0  0  0  0  0  0  0  0  0  0  0  0
  151.0960  142.6872  154.9723 H   0  0  0  0  0  0  0  0  0  0  0  0
  152.1784  142.7012  156.3635 H   0  0  0  0  0  0  0  0  0  0  0  0
  151.0054  138.3119  154.5372 H   0  0  0  0  0  0  0  0  0  0  0  0
  150.5008  138.1524  156.2226 H   0  0  0  0  0  0  0  0  0  0  0  0
  148.8213  137.3962  154.1846 H   0  0  0  0  0  0  0  0  0  0  0  0
  148.2141  138.1220  155.6716 H   0  0  0  0  0  0  0  0  0  0  0  0
  148.7209  139.4909  153.0275 H   0  0  0  0  0  0  0  0  0  0  0  0
  147.3071  139.6548  154.0677 H   0  0  0  0  0  0  0  0  0  0  0  0
  148.4823  141.0957  155.5707 H   0  0  0  0  0  0  0  0  0  0  0  0
  149.3452  141.4913  154.0787 H   0  0  0  0  0  0  0  0  0  0  0  0
  152.4613  143.1164  157.7563 H   0  0  0  0  0  0  0  0  0  0  0  0
  151.4499  145.3308  157.4310 H   0  0  0  0  0  0  0  0  0  0  0  0
  152.8270  145.4158  158.5201 H   0  0  0  0  0  0  0  0  0  0  0  0
  151.1920  145.5050  159.1633 H   0  0  0  0  0  0  0  0  0  0  0  0
  154.0648  141.8396  159.1479 H   0  0  0  0  0  0  0  0  0  0  0  0
  154.4620  141.5178  161.8258 H   0  0  0  0  0  0  0  0  0  0  0  0
  152.4071  143.0026  162.9449 H   0  0  0  0  0  0  0  0  0  0  0  0
  149.8820  143.7136  156.5198 H   0  0  0  0  0  0  0  0  0  0  0  0
  1  2  1  0  0  0  0
  1 19  1  0  0  0  0
  1 20  1  0  0  0  0
  1 21  1  0  0  0  0
  2  3  1  0  0  0  0
  2 12  1  0  0  0  0
  2 22  1  0  0  0  0
  3  4  1  0  0  0  0
  3 23  1  0  0  0  0
  3 41  1  0  0  0  0
  4  5  1  0  0  0  0
  4 24  1  0  0  0  0
  4 25  1  0  0  0  0
  5  6  2  0  0  0  0
  5  7  1  0  0  0  0
  7 11  1  0  0  0  0
  7  8  1  0  0  0  0
  8  9  1  0  0  0  0
  8 26  1  0  0  0  0
  8 27  1  0  0  0  0
  9 10  1  0  0  0  0
  9 28  1  0  0  0  0
  9 29  1  0  0  0  0
 10 11  1  0  0  0  0
 10 30  1  0  0  0  0
 10 31  1  0  0  0  0
 11 32  1  0  0  0  0
 11 33  1  0  0  0  0
 12 13  1  0  0  0  0
 12 14  1  0  0  0  0
 12 34  1  0  0  0  0
 13 35  1  0  0  0  0
 13 36  1  0  0  0  0
 13 37  1  0  0  0  0
 14 18  1  0  0  0  0
 14 15  1  0  0  0  0
 15 16  2  0  0  0  0
 15 38  1  0  0  0  0
 16 17  1  0  0  0  0
 16 39  1  0  0  0  0
 17 18  2  0  0  0  0
 17 40  1  0  0  0  0
M  CHG  1   3   1
M  END
> <s_m_source_file>
AV-unprocessed.smi

> <i_m_source_file_index>
3308

> <i_lp_mmshare_version>
43012

> <i_f3d_flags>
0

> <s_epik_input>
bjFbY0hdW2NIXVtjSF1uMVtDQEBIXShbQ0gzXSlbQ0BIXShbQ0gzXSlbTkhdW0NIMl1DKD1PKU4yW0NIMl1bQ0gyXVtDSDJdW0NIMl0y

> <s_epik_cmdline>
J2VwaWtfcHl0aG9uJywgJy1waCcsICc3LjAnLCAnLXRuJywgJzgnLCAnLW1hJywgJzIwMCcsICctbWV0YWxfYmluZGluZycsICctaW1hZScsICc8aW5maWxlLm1hZT4nLCAnLW9tYWUnLCAnPG91dGZpbGUubWFlPic=

> <r_lp_tautomer_probability>
1

> <r_epik_Ionization_Penalty>
0.141739

> <r_epik_Ionization_Penalty_Charging>
0.141731

> <r_epik_Ionization_Penalty_Neutral>
8.82171e-06

> <r_epik_State_Penalty>
0.131043

> <r_epik_Charging_Adjusted_Penalty>
0.272773

> <i_epik_Tot_Q>
1

> <i_epik_Tot_abs_Q>
1

> <r_epik_Metal_State_Penalty>
0.131385

> <b_epik_Metal_Only>
0

> <s_lp_Force_Field>
OPLS_2005

> <r_lp_Energy>
32.7398

> <b_lp_Chiralities_Consistent>
1

> <s_lp_Variant>
AV-unprocessed.smi:3308-4

> <Gold.Version>
5.8.1

> <Gold.Id.Protein>
6NUR|6NUR_protein|mol2

> <Gold.PLP.Fitness>
47.3410

> <Gold.PLP.PLP>
-39.7032

> <Gold.PLP.part.hbond>
-2.5429

> <Gold.PLP.part.metal>
0.0000

> <Gold.PLP.part.buried>
-3.2537

> <Gold.PLP.part.nonpolar>
-33.8178

> <Gold.PLP.part.repulsive>
0.1407

> <Gold.PLP.ligand.clash>
0.0000

> <Gold.PLP.ligand.torsion>
0.7084

> <Gold.PLP.Chemscore.Hbond>
2.9590

> <Gold.PLP.Chemscore.CHOScore>
0.0000

> <Gold.PLP.Chemscore.Metal>
0.0000

> <Gold.Chemscore.Hbonds>
donor molecule, donor type, donor heavy atom, donor atom, acceptor molecule, acceptor atom, score
      L1  H     3    41       P1  8028  2.00
      P1  H  7997  8009       L1     6  1.00

> <Gold.PLP.Chemscore.Internal.Correction>
0.1776

> <Gold.Rescore>
     Score         DG    S(hbond)    S(metal)    S(lipo)     H(rot)  DE(clash)    DE(int)     intcor
     17.15     -19.21       1.94        0.00     101.06       1.78       1.42       0.64       ----

> <Gold.Chemscore.Fitness>
17.1457

> <Gold.Chemscore.DG>
-19.2147

> <Gold.Chemscore.ZeroCoef>
-5.4800

> <Gold.Chemscore.Hbond>
1.9390

> <Gold.Chemscore.Metal>
0.0000

> <Gold.Chemscore.Lipo>
101.0622

> <Gold.Chemscore.Internal_Hbond>
0.0000

> <Gold.Chemscore.DEClash>
1.4244

> <Gold.Chemscore.DEInternal>
0.6446

> <Gold.Chemscore.Rot>
1.7836

> <Gold.Chemscore.Internal.Correction>
   9.000000E+99

> <Gold.Chemscore.Hbonds>
donor molecule, donor type, donor heavy atom, donor atom, acceptor molecule, acceptor atom, score
      L1  H     3    41       P1  8028  0.95
      P1  H  7997  8009       L1     6  0.92

> <Gold.Chemscore.Hbond.Weighted>
-6.4764

> <Gold.Chemscore.Metal.Weighted>
-0.0000

> <Gold.Chemscore.Lipo.Weighted>
-11.8243

> <Gold.Chemscore.Internal_Hbond.Weighted>
0.0000

> <Gold.Chemscore.DEClash.Weighted>
1.4244

> <Gold.Chemscore.DEInternal.Weighted>
0.6446

> <Gold.Chemscore.Rot.Weighted>
4.5660

> <Gold.Chemscore.Internal.Correction.Weighted>
   9.000000E+99

> <Gold.Protein.RotatedTorsions>
[ 6907 6896 6895 6894 ] final  -48.32 input  -60.11 | X-H torsion
[ 7974 7965 7964 7962 ] final  169.67 input  175.53 | X-H torsion
[ 8008 7997 7996 7995 ] final -161.42 input   59.86 | X-H torsion
[ 10167 10162 10161 10158 ] final   49.95 input  -65.29 | X-H torsion
[ 10718 10713 10712 10709 ] final  178.03 input   66.30 | X-H torsion
[ 10763 10752 10751 10750 ] final -129.44 input  -60.55 | X-H torsion
[ 11005 11000 10999 10996 ] final -148.65 input  -57.11 | X-H torsion

> <Gold.Protein.ActiveResidues>
 VAL166  LYS551  ARG553  GLY616  TRP617  ASP618  TYR619  PRO620  LYS621  CYS622 
 ASP623  PHE694  ASN695  SER759  ASP760  ASP761  ALA762  ILE779  LEU786  VAL792 
 PHE793  MET794  SER795  GLU796  ALA797  LYS798  CYS799  TRP800  GLU811  SER814 

> <Gold.Protein.RotatedAtoms>
  150.8918  134.8322  159.7298 H   0  0  0  0  0  0  0  0  0  0  0  0  # atno 6907 bound_to 6896
  152.4841  134.4637  159.9623 H   0  0  0  0  0  0  0  0  0  0  0  0  # atno 6908 bound_to 6896
  151.4699  133.3533  159.2857 H   0  0  0  0  0  0  0  0  0  0  0  0  # atno 6909 bound_to 6896
  144.7348  139.9088  143.6414 H   0  0  0  0  0  0  0  0  0  0  0  0  # atno 7974 bound_to 7965
  155.7919  140.0879  157.2004 H   0  0  0  0  0  0  0  0  0  0  0  0  # atno 8008 bound_to 7997
  154.3985  140.1488  156.3231 H   0  0  0  0  0  0  0  0  0  0  0  0  # atno 8009 bound_to 7997
  155.8550  140.3433  155.5721 H   0  0  0  0  0  0  0  0  0  0  0  0  # atno 8010 bound_to 7997
  140.2775  144.3195  150.6273 H   0  0  0  0  0  0  0  0  0  0  0  0  # atno 10167 bound_to 10162
  156.8967  130.9865  151.3042 H   0  0  0  0  0  0  0  0  0  0  0  0  # atno 10718 bound_to 10713
  154.8757  135.3895  154.3920 H   0  0  0  0  0  0  0  0  0  0  0  0  # atno 10763 bound_to 10752
  153.4655  135.7029  153.6030 H   0  0  0  0  0  0  0  0  0  0  0  0  # atno 10764 bound_to 10752
  153.4510  135.3834  155.2252 H   0  0  0  0  0  0  0  0  0  0  0  0  # atno 10765 bound_to 10752
  140.7590  134.3319  157.5106 H   0  0  0  0  0  0  0  0  0  0  0  0  # atno 11005 bound_to 11000
  146.1017  139.4013  143.0343 LP  0  0  0  0  0  0  0  0  0  0  0  0  # atno 17320 bound_to 7965
  145.7570  140.9950  143.1220 LP  0  0  0  0  0  0  0  0  0  0  0  0  # atno 17321 bound_to 7965
  140.5839  143.2171  151.7378 LP  0  0  0  0  0  0  0  0  0  0  0  0  # atno 17342 bound_to 10162
  139.4971  144.4039  152.0152 LP  0  0  0  0  0  0  0  0  0  0  0  0  # atno 17343 bound_to 10162
  157.6051  130.8541  149.8863 LP  0  0  0  0  0  0  0  0  0  0  0  0  # atno 17370 bound_to 10713
  156.0602  130.3701  150.0999 LP  0  0  0  0  0  0  0  0  0  0  0  0  # atno 17371 bound_to 10713
  139.8774  134.9190  156.3216 LP  0  0  0  0  0  0  0  0  0  0  0  0  # atno 17394 bound_to 11000
  140.9680  133.7345  156.0495 LP  0  0  0  0  0  0  0  0  0  0  0  0  # atno 17395 bound_to 11000

$$$$
