AV-unprocessed.smi:3343|AV-procd|sdf|12895|dock7
  -GOLD-   2272019303D 1   1.00000     0.00000
 Structure written by MMmdl.
 42 43  0  0  0  0  0  0  0  0  2 V2000
  149.1148  139.2056  154.9913 C   0  0  0  0  0  0  0  0  0  0  0  0
  150.0139  138.0596  154.4850 C   0  0  2  0  0  0  0  0  0  0  0  0
  149.6745  136.6991  155.1212 C   0  0  0  0  0  0  0  0  0  0  0  0
  149.7209  136.5441  156.3420 O   0  0  0  0  0  0  0  0  0  0  0  0
  149.3250  135.7166  154.2753 N   0  0  0  0  0  0  0  0  0  0  0  0
  148.9961  134.3520  154.6665 C   0  0  0  0  0  0  0  0  0  0  0  0
  147.5051  134.0723  154.4180 C   0  0  0  0  0  0  0  0  0  0  0  0
  147.1331  134.2029  152.9869 N   0  3  0  0  0  0  0  0  0  0  0  0
  145.8661  134.9505  152.7997 C   0  0  0  0  0  0  0  0  0  0  0  0
  145.5639  135.1441  151.2987 C   0  0  0  0  0  0  0  0  0  0  0  0
  145.5016  133.8708  150.5795 N   0  0  0  0  0  0  0  0  0  0  0  0
  144.3113  133.0896  150.8980 C   0  0  0  0  0  0  0  0  0  0  0  0
  146.7473  133.1272  150.7741 C   0  0  0  0  0  0  0  0  0  0  0  0
  147.0685  132.9058  152.2675 C   0  0  0  0  0  0  0  0  0  0  0  0
  151.4280  138.3741  154.6555 N   0  0  0  0  0  0  0  0  0  0  0  0
  152.0111  139.4454  155.1978 C   0  0  0  0  0  0  0  0  0  0  0  0
  153.3356  139.4180  155.1533 N   0  0  0  0  0  0  0  0  0  0  0  0
  153.5184  138.2171  154.5280 C   0  0  0  0  0  0  0  0  0  0  0  0
  152.4090  137.5558  154.1987 N   0  0  0  0  0  0  0  0  0  0  0  0
  148.0625  139.0004  154.7914 H   0  0  0  0  0  0  0  0  0  0  0  0
  149.3627  140.1428  154.4922 H   0  0  0  0  0  0  0  0  0  0  0  0
  149.2239  139.3651  156.0648 H   0  0  0  0  0  0  0  0  0  0  0  0
  149.8352  137.9565  153.4135 H   0  0  0  0  0  0  0  0  0  0  0  0
  149.3019  135.9289  153.2884 H   0  0  0  0  0  0  0  0  0  0  0  0
  149.5979  133.6334  154.1074 H   0  0  0  0  0  0  0  0  0  0  0  0
  149.2515  134.2349  155.7192 H   0  0  0  0  0  0  0  0  0  0  0  0
  147.2283  133.0824  154.7843 H   0  0  0  0  0  0  0  0  0  0  0  0
  146.9263  134.7907  155.0010 H   0  0  0  0  0  0  0  0  0  0  0  0
  145.0480  134.4341  153.3036 H   0  0  0  0  0  0  0  0  0  0  0  0
  145.9513  135.9306  153.2705 H   0  0  0  0  0  0  0  0  0  0  0  0
  144.6273  135.6869  151.1653 H   0  0  0  0  0  0  0  0  0  0  0  0
  146.3435  135.7593  150.8468 H   0  0  0  0  0  0  0  0  0  0  0  0
  144.2801  132.1854  150.2898 H   0  0  0  0  0  0  0  0  0  0  0  0
  143.4123  133.6659  150.6774 H   0  0  0  0  0  0  0  0  0  0  0  0
  144.2716  132.7921  151.9452 H   0  0  0  0  0  0  0  0  0  0  0  0
  146.6890  132.1717  150.2514 H   0  0  0  0  0  0  0  0  0  0  0  0
  147.5598  133.6852  150.3063 H   0  0  0  0  0  0  0  0  0  0  0  0
  148.0248  132.3899  152.3417 H   0  0  0  0  0  0  0  0  0  0  0  0
  146.3293  132.2538  152.7347 H   0  0  0  0  0  0  0  0  0  0  0  0
  151.4553  140.2652  155.6289 H   0  0  0  0  0  0  0  0  0  0  0  0
  154.4979  137.8221  154.3016 H   0  0  0  0  0  0  0  0  0  0  0  0
  147.8553  134.7541  152.5453 H   0  0  0  0  0  0  0  0  0  0  0  0
  1  2  1  0  0  0  0
  1 20  1  0  0  0  0
  1 21  1  0  0  0  0
  1 22  1  0  0  0  0
  2  3  1  0  0  0  0
  2 15  1  0  0  0  0
  2 23  1  0  0  0  0
  3  4  2  0  0  0  0
  3  5  1  0  0  0  0
  5  6  1  0  0  0  0
  5 24  1  0  0  0  0
  6  7  1  0  0  0  0
  6 25  1  0  0  0  0
  6 26  1  0  0  0  0
  7  8  1  0  0  0  0
  7 27  1  0  0  0  0
  7 28  1  0  0  0  0
  8 14  1  0  0  0  0
  8  9  1  0  0  0  0
  8 42  1  0  0  0  0
  9 10  1  0  0  0  0
  9 29  1  0  0  0  0
  9 30  1  0  0  0  0
 10 11  1  0  0  0  0
 10 31  1  0  0  0  0
 10 32  1  0  0  0  0
 11 12  1  0  0  0  0
 11 13  1  0  0  0  0
 12 33  1  0  0  0  0
 12 34  1  0  0  0  0
 12 35  1  0  0  0  0
 13 14  1  0  0  0  0
 13 36  1  0  0  0  0
 13 37  1  0  0  0  0
 14 38  1  0  0  0  0
 14 39  1  0  0  0  0
 15 19  1  0  0  0  0
 15 16  1  0  0  0  0
 16 17  2  0  0  0  0
 16 40  1  0  0  0  0
 17 18  1  0  0  0  0
 18 19  2  0  0  0  0
 18 41  1  0  0  0  0
M  CHG  1   8   1
M  END
> <s_m_source_file>
AV-unprocessed.smi

> <i_m_source_file_index>
3343

> <i_lp_mmshare_version>
43012

> <i_f3d_flags>
0

> <s_epik_input>
bjFbY0hdbltjSF1uMVtDQEhdKFtDSDNdKUMoPU8pW05IXVtDSDJdW0NIMl1OMltDSDJdW0NIMl1OKFtDSDNdKVtDSDJdW0NIMl0y

> <s_epik_cmdline>
J2VwaWtfcHl0aG9uJywgJy1waCcsICc3LjAnLCAnLXRuJywgJzgnLCAnLW1hJywgJzIwMCcsICctbWV0YWxfYmluZGluZycsICctaW1hZScsICc8aW5maWxlLm1hZT4nLCAnLW9tYWUnLCAnPG91dGZpbGUubWFlPic=

> <r_epik_Ionization_Penalty>
0.559944

> <r_epik_Ionization_Penalty_Charging>
0.558624

> <r_epik_Ionization_Penalty_Neutral>
0.00131959

> <r_epik_State_Penalty>
2.08679

> <r_epik_Charging_Adjusted_Penalty>
2.64542

> <i_epik_Tot_Q>
1

> <i_epik_Tot_abs_Q>
1

> <r_epik_Metal_State_Penalty>
2.0868

> <b_epik_Metal_Only>
0

> <s_lp_Force_Field>
OPLS_2005

> <r_lp_Energy>
23.1114

> <b_lp_Chiralities_Consistent>
1

> <s_lp_Variant>
AV-unprocessed.smi:3343-5

> <Gold.Version>
5.8.1

> <Gold.Id.Protein>
6NUR|6NUR_protein|mol2

> <Gold.PLP.Fitness>
42.6357

> <Gold.PLP.PLP>
-30.3303

> <Gold.PLP.part.hbond>
-3.8840

> <Gold.PLP.part.metal>
0.0000

> <Gold.PLP.part.buried>
-3.6122

> <Gold.PLP.part.nonpolar>
-23.8347

> <Gold.PLP.part.repulsive>
0.3460

> <Gold.PLP.ligand.clash>
0.0000

> <Gold.PLP.ligand.torsion>
0.6951

> <Gold.PLP.Chemscore.Hbond>
4.5175

> <Gold.PLP.Chemscore.CHOScore>
0.0000

> <Gold.PLP.Chemscore.Metal>
0.0000

> <Gold.Chemscore.Hbonds>
donor molecule, donor type, donor heavy atom, donor atom, acceptor molecule, acceptor atom, score
      L1  H     5    24       P1  7948  0.84
      L1  H     8    42       P1  7948  2.00
      P1  H  7997  8008       L1    17  1.00
      P1  H 10752 10764       L1    19  0.70

> <Gold.PLP.Chemscore.Internal.Correction>
0.1431

> <Gold.Rescore>
     Score         DG    S(hbond)    S(metal)    S(lipo)     H(rot)  DE(clash)    DE(int)     intcor
     12.81     -13.47       2.83        0.00      44.98       2.63       0.00       0.65       ----

> <Gold.Chemscore.Fitness>
12.8086

> <Gold.Chemscore.DG>
-13.4653

> <Gold.Chemscore.ZeroCoef>
-5.4800

> <Gold.Chemscore.Hbond>
2.8294

> <Gold.Chemscore.Metal>
0.0000

> <Gold.Chemscore.Lipo>
44.9766

> <Gold.Chemscore.Internal_Hbond>
0.0000

> <Gold.Chemscore.DEClash>
0.0021

> <Gold.Chemscore.DEInternal>
0.6545

> <Gold.Chemscore.Rot>
2.6278

> <Gold.Chemscore.Internal.Correction>
   9.000000E+99

> <Gold.Chemscore.Hbonds>
donor molecule, donor type, donor heavy atom, donor atom, acceptor molecule, acceptor atom, score
      L1  H     5    24       P1  7948  0.45
      L1  H     8    42       P1  7948  0.82
      P1  H  7997  8008       L1    17  0.95
      P1  H 10752 10764       L1    19  0.28

> <Gold.Chemscore.Hbond.Weighted>
-9.4501

> <Gold.Chemscore.Metal.Weighted>
-0.0000

> <Gold.Chemscore.Lipo.Weighted>
-5.2623

> <Gold.Chemscore.Internal_Hbond.Weighted>
0.0000

> <Gold.Chemscore.DEClash.Weighted>
0.0021

> <Gold.Chemscore.DEInternal.Weighted>
0.6545

> <Gold.Chemscore.Rot.Weighted>
6.7271

> <Gold.Chemscore.Internal.Correction.Weighted>
   9.000000E+99

> <Gold.Protein.RotatedTorsions>
[ 6907 6896 6895 6894 ] final  -51.26 input  -60.11 | X-H torsion
[ 7974 7965 7964 7962 ] final  139.98 input  175.53 | X-H torsion
[ 8008 7997 7996 7995 ] final   -8.74 input   59.86 | X-H torsion
[ 10167 10162 10161 10158 ] final   82.03 input  -65.29 | X-H torsion
[ 10718 10713 10712 10709 ] final  -22.80 input   66.30 | X-H torsion
[ 10763 10752 10751 10750 ] final  -86.88 input  -60.55 | X-H torsion
[ 11005 11000 10999 10996 ] final   34.61 input  -57.11 | X-H torsion

> <Gold.Protein.ActiveResidues>
 VAL166  LYS551  ARG553  GLY616  TRP617  ASP618  TYR619  PRO620  LYS621  CYS622 
 ASP623  PHE694  ASN695  SER759  ASP760  ASP761  ALA762  ILE779  LEU786  VAL792 
 PHE793  MET794  SER795  GLU796  ALA797  LYS798  CYS799  TRP800  GLU811  SER814 

> <Gold.Protein.RotatedAtoms>
  150.8628  134.7984  159.7095 H   0  0  0  0  0  0  0  0  0  0  0  0  # atno 6907 bound_to 6896
  152.4659  134.5072  159.9752 H   0  0  0  0  0  0  0  0  0  0  0  0  # atno 6908 bound_to 6896
  151.5173  133.3435  159.2931 H   0  0  0  0  0  0  0  0  0  0  0  0  # atno 6909 bound_to 6896
  144.9228  139.5145  143.5655 H   0  0  0  0  0  0  0  0  0  0  0  0  # atno 7974 bound_to 7965
  154.5713  140.2373  155.8188 H   0  0  0  0  0  0  0  0  0  0  0  0  # atno 8008 bound_to 7997
  156.2108  140.3026  155.9687 H   0  0  0  0  0  0  0  0  0  0  0  0  # atno 8009 bound_to 7997
  155.2708  140.0418  157.2997 H   0  0  0  0  0  0  0  0  0  0  0  0  # atno 8010 bound_to 7997
  139.9331  144.6139  150.8326 H   0  0  0  0  0  0  0  0  0  0  0  0  # atno 10167 bound_to 10162
  156.4996  130.4585  149.6708 H   0  0  0  0  0  0  0  0  0  0  0  0  # atno 10718 bound_to 10713
  154.6274  135.5433  153.7642 H   0  0  0  0  0  0  0  0  0  0  0  0  # atno 10763 bound_to 10752
  153.0267  135.6427  154.1351 H   0  0  0  0  0  0  0  0  0  0  0  0  # atno 10764 bound_to 10752
  154.1283  135.2916  155.3171 H   0  0  0  0  0  0  0  0  0  0  0  0  # atno 10765 bound_to 10752
  140.2510  134.3303  155.7890 H   0  0  0  0  0  0  0  0  0  0  0  0  # atno 11005 bound_to 11000
  146.3212  139.8121  142.8943 LP  0  0  0  0  0  0  0  0  0  0  0  0  # atno 17320 bound_to 7965
  145.3267  141.0257  143.3469 LP  0  0  0  0  0  0  0  0  0  0  0  0  # atno 17321 bound_to 7965
  140.7632  143.3217  151.2607 LP  0  0  0  0  0  0  0  0  0  0  0  0  # atno 17342 bound_to 10162
  139.6766  143.9927  152.2784 LP  0  0  0  0  0  0  0  0  0  0  0  0  # atno 17343 bound_to 10162
  156.3345  130.7349  151.2284 LP  0  0  0  0  0  0  0  0  0  0  0  0  # atno 17370 bound_to 10713
  157.7464  131.0420  150.4676 LP  0  0  0  0  0  0  0  0  0  0  0  0  # atno 17371 bound_to 10713
  141.2201  133.7354  156.9038 LP  0  0  0  0  0  0  0  0  0  0  0  0  # atno 17394 bound_to 11000
  140.1558  134.9199  157.2651 LP  0  0  0  0  0  0  0  0  0  0  0  0  # atno 17395 bound_to 11000

$$$$
