AV-unprocessed.smi:1905|AV-procd|sdf|7726|dock8
  -GOLD-   22720 9463D 1   1.00000     0.00000
 Structure written by MMmdl.
 38 39  0  0  0  0  0  0  0  0  1 V2000
  145.6452  143.6419  153.5142 C   0  0  0  0  0  0  0  0  0  0  0  0
  146.0011  142.2914  154.1400 C   0  0  0  0  0  0  0  0  0  0  0  0
  147.3752  142.3113  154.5134 O   0  0  0  0  0  0  0  0  0  0  0  0
  148.1117  141.1469  154.4029 C   0  0  0  0  0  0  0  0  0  0  0  0
  147.5716  140.1038  153.7243 N   0  0  0  0  0  0  0  0  0  0  0  0
  148.2907  138.9686  153.6124 C   0  0  0  0  0  0  0  0  0  0  0  0
  149.5771  138.8153  154.1601 C   0  0  0  0  0  0  0  0  0  0  0  0
  150.1400  139.8958  154.8647 C   0  0  0  0  0  0  0  0  0  0  0  0
  149.3924  141.0914  155.0016 C   0  0  0  0  0  0  0  0  0  0  0  0
  149.8578  142.2542  155.6782 N   0  0  0  0  0  0  0  0  0  0  0  0
  150.8711  142.3867  156.5510 C   0  0  0  0  0  0  0  0  0  0  0  0
  151.6033  141.4794  156.9438 O   0  0  0  0  0  0  0  0  0  0  0  0
  150.9837  143.6566  156.9646 N   0  0  0  0  0  0  0  0  0  0  0  0
  151.9788  144.1484  157.9117 C   0  0  0  0  0  0  0  0  0  0  0  0
  151.6589  143.7430  159.3641 C   0  0  1  0  0  0  0  0  0  0  0  0
  152.5185  142.5988  159.8900 C   0  0  0  0  0  0  0  0  0  0  0  0
  152.8059  142.9760  161.3475 C   0  0  0  0  0  0  0  0  0  0  0  0
  151.9961  144.1127  161.6109 O   0  0  0  0  0  0  0  0  0  0  0  0
  151.8883  144.8416  160.4007 C   0  0  0  0  0  0  0  0  0  0  0  0
  144.5989  143.6670  153.2089 H   0  0  0  0  0  0  0  0  0  0  0  0
  146.2558  143.8374  152.6324 H   0  0  0  0  0  0  0  0  0  0  0  0
  145.8072  144.4554  154.2218 H   0  0  0  0  0  0  0  0  0  0  0  0
  145.3690  142.1150  155.0119 H   0  0  0  0  0  0  0  0  0  0  0  0
  145.8153  141.4935  153.4191 H   0  0  0  0  0  0  0  0  0  0  0  0
  147.8280  138.1599  153.0664 H   0  0  0  0  0  0  0  0  0  0  0  0
  150.1215  137.8904  154.0401 H   0  0  0  0  0  0  0  0  0  0  0  0
  151.1323  139.7830  155.2707 H   0  0  0  0  0  0  0  0  0  0  0  0
  149.3181  143.0894  155.5043 H   0  0  0  0  0  0  0  0  0  0  0  0
  150.3369  144.3362  156.5917 H   0  0  0  0  0  0  0  0  0  0  0  0
  152.9685  143.7868  157.6283 H   0  0  0  0  0  0  0  0  0  0  0  0
  152.0111  145.2348  157.8258 H   0  0  0  0  0  0  0  0  0  0  0  0
  150.6151  143.4317  159.4324 H   0  0  0  0  0  0  0  0  0  0  0  0
  151.9894  141.6482  159.8145 H   0  0  0  0  0  0  0  0  0  0  0  0
  153.4535  142.5017  159.3368 H   0  0  0  0  0  0  0  0  0  0  0  0
  152.5800  142.1665  162.0417 H   0  0  0  0  0  0  0  0  0  0  0  0
  153.8550  143.2477  161.4721 H   0  0  0  0  0  0  0  0  0  0  0  0
  152.8183  145.3808  160.2125 H   0  0  0  0  0  0  0  0  0  0  0  0
  151.0713  145.5627  160.4388 H   0  0  0  0  0  0  0  0  0  0  0  0
  1  2  1  0  0  0  0
  1 20  1  0  0  0  0
  1 21  1  0  0  0  0
  1 22  1  0  0  0  0
  2  3  1  0  0  0  0
  2 23  1  0  0  0  0
  2 24  1  0  0  0  0
  3  4  1  0  0  0  0
  4  9  1  0  0  0  0
  4  5  2  0  0  0  0
  5  6  1  0  0  0  0
  6  7  2  0  0  0  0
  6 25  1  0  0  0  0
  7  8  1  0  0  0  0
  7 26  1  0  0  0  0
  8  9  2  0  0  0  0
  8 27  1  0  0  0  0
  9 10  1  0  0  0  0
 10 11  1  0  0  0  0
 10 28  1  0  0  0  0
 11 12  2  0  0  0  0
 11 13  1  0  0  0  0
 13 14  1  0  0  0  0
 13 29  1  0  0  0  0
 14 15  1  0  0  0  0
 14 30  1  0  0  0  0
 14 31  1  0  0  0  0
 15 19  1  0  0  0  0
 15 16  1  0  0  0  0
 15 32  1  0  0  0  0
 16 17  1  0  0  0  0
 16 33  1  0  0  0  0
 16 34  1  0  0  0  0
 17 18  1  0  0  0  0
 17 35  1  0  0  0  0
 17 36  1  0  0  0  0
 18 19  1  0  0  0  0
 19 37  1  0  0  0  0
 19 38  1  0  0  0  0
M  END
> <s_m_source_file>
AV-unprocessed.smi

> <i_m_source_file_index>
1905

> <i_lp_mmshare_version>
43012

> <i_f3d_flags>
0

> <s_epik_input>
W0NIM11bQ0gyXU9jMW5bY0hdW2NIXVtjSF1jMVtOSF1DKD1PKVtOSF1bQ0gyXVtDQEBIXTJbQ0gyXVtDSDJdT1tDSDJdMg==

> <s_epik_cmdline>
J2VwaWtfcHl0aG9uJywgJy1waCcsICc3LjAnLCAnLXRuJywgJzgnLCAnLW1hJywgJzIwMCcsICctbWV0YWxfYmluZGluZycsICctaW1hZScsICc8aW5maWxlLm1hZT4nLCAnLW9tYWUnLCAnPG91dGZpbGUubWFlPic=

> <r_lp_tautomer_probability>
1

> <r_epik_Ionization_Penalty>
0.000115153

> <r_epik_Ionization_Penalty_Charging>
0

> <r_epik_Ionization_Penalty_Neutral>
0.000115153

> <r_epik_State_Penalty>
-0

> <r_epik_Charging_Adjusted_Penalty>
0

> <i_epik_Tot_Q>
0

> <i_epik_Tot_abs_Q>
0

> <r_epik_Metal_State_Penalty>
-0

> <b_epik_Metal_Only>
0

> <s_lp_Force_Field>
OPLS_2005

> <r_lp_Energy>
21.5364

> <b_lp_Chiralities_Consistent>
1

> <s_lp_Variant>
AV-unprocessed.smi:1905-2

> <Gold.Version>
5.8.1

> <Gold.Id.Protein>
6NUR|6NUR_protein|mol2

> <Gold.PLP.Fitness>
50.2020

> <Gold.PLP.PLP>
-43.6211

> <Gold.PLP.part.hbond>
-2.0000

> <Gold.PLP.part.metal>
0.0000

> <Gold.PLP.part.buried>
-4.1983

> <Gold.PLP.part.nonpolar>
-39.0375

> <Gold.PLP.part.repulsive>
1.3707

> <Gold.PLP.ligand.clash>
0.0000

> <Gold.PLP.ligand.torsion>
1.1227

> <Gold.PLP.Chemscore.Hbond>
2.0000

> <Gold.PLP.Chemscore.CHOScore>
0.9403

> <Gold.PLP.Chemscore.Metal>
0.0000

> <Gold.Chemscore.Hbonds>
donor molecule, donor type, donor heavy atom, donor atom, acceptor molecule, acceptor atom, score
      L1  H    10    28       P1  8028  1.00
      L1  H    13    29       P1  8028  1.00
      L1  C     6    25       P1  7948  0.96

> <Gold.PLP.Chemscore.Internal.Correction>
0.0055

> <Gold.Rescore>
     Score         DG    S(hbond)    S(metal)    S(lipo)     H(rot)  DE(clash)    DE(int)     intcor
     16.60     -19.26       1.97        0.00      96.92       1.61       0.04       2.62       ----

> <Gold.Chemscore.Fitness>
16.6035

> <Gold.Chemscore.DG>
-19.2635

> <Gold.Chemscore.ZeroCoef>
-5.4800

> <Gold.Chemscore.Hbond>
1.9681

> <Gold.Chemscore.Metal>
0.0000

> <Gold.Chemscore.Lipo>
96.9193

> <Gold.Chemscore.Internal_Hbond>
0.0000

> <Gold.Chemscore.DEClash>
0.0434

> <Gold.Chemscore.DEInternal>
2.6166

> <Gold.Chemscore.Rot>
1.6131

> <Gold.Chemscore.Internal.Correction>
   9.000000E+99

> <Gold.Chemscore.Hbonds>
donor molecule, donor type, donor heavy atom, donor atom, acceptor molecule, acceptor atom, score
      L1  H    10    28       P1  8028  0.99
      L1  H    13    29       P1  8028  0.95

> <Gold.Chemscore.Hbond.Weighted>
-6.5736

> <Gold.Chemscore.Metal.Weighted>
-0.0000

> <Gold.Chemscore.Lipo.Weighted>
-11.3396

> <Gold.Chemscore.Internal_Hbond.Weighted>
0.0000

> <Gold.Chemscore.DEClash.Weighted>
0.0434

> <Gold.Chemscore.DEInternal.Weighted>
2.6166

> <Gold.Chemscore.Rot.Weighted>
4.1296

> <Gold.Chemscore.Internal.Correction.Weighted>
   9.000000E+99

> <Gold.Protein.RotatedTorsions>
[ 6907 6896 6895 6894 ] final   58.50 input  -60.11 | X-H torsion
[ 7974 7965 7964 7962 ] final  -77.50 input  175.53 | X-H torsion
[ 8008 7997 7996 7995 ] final  -54.84 input   59.86 | X-H torsion
[ 10167 10162 10161 10158 ] final  -73.94 input  -65.29 | X-H torsion
[ 10718 10713 10712 10709 ] final  109.32 input   66.30 | X-H torsion
[ 10763 10752 10751 10750 ] final  127.00 input  -60.55 | X-H torsion
[ 11005 11000 10999 10996 ] final  137.77 input  -57.11 | X-H torsion

> <Gold.Protein.ActiveResidues>
 VAL166  LYS551  ARG553  GLY616  TRP617  ASP618  TYR619  PRO620  LYS621  CYS622 
 ASP623  PHE694  ASN695  SER759  ASP760  ASP761  ALA762  ILE779  LEU786  VAL792 
 PHE793  MET794  SER795  GLU796  ALA797  LYS798  CYS799  TRP800  GLU811  SER814 

> <Gold.Protein.RotatedAtoms>
  152.3829  134.6562  160.0135 H   0  0  0  0  0  0  0  0  0  0  0  0  # atno 6907 bound_to 6896
  151.6819  133.3306  159.3229 H   0  0  0  0  0  0  0  0  0  0  0  0  # atno 6908 bound_to 6896
  150.7762  134.6709  159.6436 H   0  0  0  0  0  0  0  0  0  0  0  0  # atno 6909 bound_to 6896
  145.5989  140.9413  143.1251 H   0  0  0  0  0  0  0  0  0  0  0  0  # atno 7974 bound_to 7965
  154.4175  140.1167  156.5381 H   0  0  0  0  0  0  0  0  0  0  0  0  # atno 8008 bound_to 7997
  155.6537  140.3496  155.4738 H   0  0  0  0  0  0  0  0  0  0  0  0  # atno 8009 bound_to 7997
  155.9771  140.1153  157.0750 H   0  0  0  0  0  0  0  0  0  0  0  0  # atno 8010 bound_to 7997
  140.5068  143.2351  151.7660 H   0  0  0  0  0  0  0  0  0  0  0  0  # atno 10167 bound_to 10162
  157.6547  131.0911  150.6436 H   0  0  0  0  0  0  0  0  0  0  0  0  # atno 10718 bound_to 10713
  153.7024  135.3281  155.3228 H   0  0  0  0  0  0  0  0  0  0  0  0  # atno 10763 bound_to 10752
  154.8409  135.4457  154.1397 H   0  0  0  0  0  0  0  0  0  0  0  0  # atno 10764 bound_to 10752
  153.2468  135.6977  153.7801 H   0  0  0  0  0  0  0  0  0  0  0  0  # atno 10765 bound_to 10752
  140.0137  134.9428  157.0331 H   0  0  0  0  0  0  0  0  0  0  0  0  # atno 11005 bound_to 11000
  144.7318  139.7702  143.7344 LP  0  0  0  0  0  0  0  0  0  0  0  0  # atno 17320 bound_to 7965
  146.1591  139.4699  143.0000 LP  0  0  0  0  0  0  0  0  0  0  0  0  # atno 17321 bound_to 7965
  139.4886  144.4445  151.9725 LP  0  0  0  0  0  0  0  0  0  0  0  0  # atno 17342 bound_to 10162
  140.3536  144.3058  150.5945 LP  0  0  0  0  0  0  0  0  0  0  0  0  # atno 17343 bound_to 10162
  156.6744  130.4549  149.5647 LP  0  0  0  0  0  0  0  0  0  0  0  0  # atno 17370 bound_to 10713
  156.1974  130.6598  151.1129 LP  0  0  0  0  0  0  0  0  0  0  0  0  # atno 17371 bound_to 10713
  140.4509  134.1583  155.7181 LP  0  0  0  0  0  0  0  0  0  0  0  0  # atno 17394 bound_to 11000
  141.1728  133.8574  157.1517 LP  0  0  0  0  0  0  0  0  0  0  0  0  # atno 17395 bound_to 11000

$$$$
