AV-unprocessed.smi:2587|AV-procd|sdf|10147|dock9
  -GOLD-   2272014163D 1   1.00000     0.00000
 Structure written by MMmdl.
 40 41  0  0  0  0  0  0  0  0  2 V2000
  154.2012  139.0799  159.9670 C   0  0  0  0  0  0  0  0  0  0  0  0
  153.4587  140.1888  160.1003 C   0  0  0  0  0  0  0  0  0  0  0  0
  153.9917  141.5248  160.5770 C   0  0  0  0  0  0  0  0  0  0  0  0
  152.9417  142.5270  160.7434 N   0  0  0  0  0  0  0  0  0  0  0  0
  152.8229  143.1964  162.0391 C   0  0  0  0  0  0  0  0  0  0  0  0
  153.7013  142.5448  163.1180 C   0  0  0  0  0  0  0  0  0  0  0  0
  153.6883  143.3455  164.2786 O   0  0  0  0  0  0  0  0  0  0  0  0
  152.2312  143.0136  159.6182 C   0  0  0  0  0  0  0  0  0  0  0  0
  151.4640  142.1661  158.7882 C   0  0  0  0  0  0  0  0  0  0  0  0
  150.7882  142.7385  157.6841 C   0  0  0  0  0  0  0  0  0  0  0  0
  149.9794  141.9972  156.7935 N   0  0  0  0  0  0  0  0  0  0  0  0
  148.7013  141.4850  157.2813 C   0  0  0  0  0  0  0  0  0  0  0  0
  147.8317  140.9952  156.1112 C   0  0  0  0  0  0  0  0  0  0  0  0
  148.5574  140.0467  155.3383 O   0  0  0  0  0  0  0  0  0  0  0  0
  149.7246  140.6209  154.7619 C   0  0  0  0  0  0  0  0  0  0  0  0
  150.6736  141.0953  155.8751 C   0  0  0  0  0  0  0  0  0  0  0  0
  150.9075  144.0746  157.4683 N   0  3  0  0  0  0  0  0  0  0  0  0
  151.6463  144.8320  158.2887 C   0  0  0  0  0  0  0  0  0  0  0  0
  152.2977  144.3349  159.3422 N   0  0  0  0  0  0  0  0  0  0  0  0
  155.2566  139.0797  160.1968 H   0  0  0  0  0  0  0  0  0  0  0  0
  153.7597  138.1550  159.6256 H   0  0  0  0  0  0  0  0  0  0  0  0
  152.4048  140.1494  159.8657 H   0  0  0  0  0  0  0  0  0  0  0  0
  154.4808  141.3596  161.5376 H   0  0  0  0  0  0  0  0  0  0  0  0
  154.7713  141.8887  159.9068 H   0  0  0  0  0  0  0  0  0  0  0  0
  153.0526  144.2586  161.9469 H   0  0  0  0  0  0  0  0  0  0  0  0
  151.7784  143.1523  162.3504 H   0  0  0  0  0  0  0  0  0  0  0  0
  153.3349  141.5493  163.3708 H   0  0  0  0  0  0  0  0  0  0  0  0
  154.7303  142.4378  162.7740 H   0  0  0  0  0  0  0  0  0  0  0  0
  154.3362  144.0266  164.1821 H   0  0  0  0  0  0  0  0  0  0  0  0
  151.3964  141.1103  158.9922 H   0  0  0  0  0  0  0  0  0  0  0  0
  148.8842  140.6689  157.9814 H   0  0  0  0  0  0  0  0  0  0  0  0
  148.1581  142.2646  157.8161 H   0  0  0  0  0  0  0  0  0  0  0  0
  146.9237  140.5254  156.4895 H   0  0  0  0  0  0  0  0  0  0  0  0
  147.5191  141.8300  155.4816 H   0  0  0  0  0  0  0  0  0  0  0  0
  150.2188  139.8732  154.1415 H   0  0  0  0  0  0  0  0  0  0  0  0
  149.4509  141.4480  154.1046 H   0  0  0  0  0  0  0  0  0  0  0  0
  151.5373  141.5759  155.4158 H   0  0  0  0  0  0  0  0  0  0  0  0
  151.0460  140.2391  156.4388 H   0  0  0  0  0  0  0  0  0  0  0  0
  151.6964  145.8874  158.0646 H   0  0  0  0  0  0  0  0  0  0  0  0
  150.4213  144.4990  156.6781 H   0  0  0  0  0  0  0  0  0  0  0  0
  1  2  2  0  0  0  0
  1 20  1  0  0  0  0
  1 21  1  0  0  0  0
  2  3  1  0  0  0  0
  2 22  1  0  0  0  0
  3  4  1  0  0  0  0
  3 23  1  0  0  0  0
  3 24  1  0  0  0  0
  4  5  1  0  0  0  0
  4  8  1  0  0  0  0
  5  6  1  0  0  0  0
  5 25  1  0  0  0  0
  5 26  1  0  0  0  0
  6  7  1  0  0  0  0
  6 27  1  0  0  0  0
  6 28  1  0  0  0  0
  7 29  1  0  0  0  0
  8 19  1  0  0  0  0
  8  9  2  0  0  0  0
  9 10  1  0  0  0  0
  9 30  1  0  0  0  0
 10 11  1  0  0  0  0
 10 17  2  0  0  0  0
 11 16  1  0  0  0  0
 11 12  1  0  0  0  0
 12 13  1  0  0  0  0
 12 31  1  0  0  0  0
 12 32  1  0  0  0  0
 13 14  1  0  0  0  0
 13 33  1  0  0  0  0
 13 34  1  0  0  0  0
 14 15  1  0  0  0  0
 15 16  1  0  0  0  0
 15 35  1  0  0  0  0
 15 36  1  0  0  0  0
 16 37  1  0  0  0  0
 16 38  1  0  0  0  0
 17 18  1  0  0  0  0
 17 40  1  0  0  0  0
 18 19  2  0  0  0  0
 18 39  1  0  0  0  0
M  CHG  1  17   1
M  END
> <s_m_source_file>
AV-unprocessed.smi

> <i_m_source_file_index>
2587

> <i_lp_mmshare_version>
43012

> <i_f3d_flags>
0

> <s_epik_input>
W0NIMl09W0NIXVtDSDJdTihbQ0gyXVtDSDJdW09IXSljMVtjSF1jKG5bY0hdbjEpTjJbQ0gyXVtDSDJdT1tDSDJdW0NIMl0y

> <s_epik_cmdline>
J2VwaWtfcHl0aG9uJywgJy1waCcsICc3LjAnLCAnLXRuJywgJzgnLCAnLW1hJywgJzIwMCcsICctbWV0YWxfYmluZGluZycsICctaW1hZScsICc8aW5maWxlLm1hZT4nLCAnLW9tYWUnLCAnPG91dGZpbGUubWFlPic=

> <r_lp_tautomer_probability>
0.999336

> <r_epik_Ionization_Penalty>
3.67622

> <r_epik_Ionization_Penalty_Charging>
3.67622

> <r_epik_Ionization_Penalty_Neutral>
1.25637e-07

> <r_epik_State_Penalty>
2.4309

> <r_epik_Charging_Adjusted_Penalty>
6.10712

> <i_epik_Tot_Q>
1

> <i_epik_Tot_abs_Q>
1

> <r_epik_Metal_State_Penalty>
2.43203

> <b_epik_Metal_Only>
0

> <s_lp_Force_Field>
OPLS_2005

> <r_lp_Energy>
13.6673

> <b_lp_Chiralities_Consistent>
1

> <s_lp_Variant>
AV-unprocessed.smi:2587-2

> <Gold.Version>
5.8.1

> <Gold.Id.Protein>
6NUR|6NUR_protein|mol2

> <Gold.PLP.Fitness>
47.3724

> <Gold.PLP.PLP>
-43.3799

> <Gold.PLP.part.hbond>
-1.7355

> <Gold.PLP.part.metal>
0.0000

> <Gold.PLP.part.buried>
-6.6477

> <Gold.PLP.part.nonpolar>
-34.6197

> <Gold.PLP.part.repulsive>
0.1989

> <Gold.PLP.ligand.clash>
0.0000

> <Gold.PLP.ligand.torsion>
1.3341

> <Gold.PLP.Chemscore.Hbond>
2.0000

> <Gold.PLP.Chemscore.CHOScore>
0.0000

> <Gold.PLP.Chemscore.Metal>
0.0000

> <Gold.Chemscore.Hbonds>
donor molecule, donor type, donor heavy atom, donor atom, acceptor molecule, acceptor atom, score
      L1  H    17    40       P1  8028  2.00

> <Gold.PLP.Chemscore.Internal.Correction>
0.6607

> <Gold.Rescore>
     Score         DG    S(hbond)    S(metal)    S(lipo)     H(rot)  DE(clash)    DE(int)     intcor
      9.63     -11.04       0.99        0.00      75.37       2.57       0.01       1.40       ----

> <Gold.Chemscore.Fitness>
9.6339

> <Gold.Chemscore.DG>
-11.0377

> <Gold.Chemscore.ZeroCoef>
-5.4800

> <Gold.Chemscore.Hbond>
0.9898

> <Gold.Chemscore.Metal>
0.0000

> <Gold.Chemscore.Lipo>
75.3748

> <Gold.Chemscore.Internal_Hbond>
0.0000

> <Gold.Chemscore.DEClash>
0.0073

> <Gold.Chemscore.DEInternal>
1.3965

> <Gold.Chemscore.Rot>
2.5653

> <Gold.Chemscore.Internal.Correction>
   9.000000E+99

> <Gold.Chemscore.Hbonds>
donor molecule, donor type, donor heavy atom, donor atom, acceptor molecule, acceptor atom, score
      L1  H    17    40       P1  8028  0.91

> <Gold.Chemscore.Hbond.Weighted>
-3.3060

> <Gold.Chemscore.Metal.Weighted>
-0.0000

> <Gold.Chemscore.Lipo.Weighted>
-8.8189

> <Gold.Chemscore.Internal_Hbond.Weighted>
0.0000

> <Gold.Chemscore.DEClash.Weighted>
0.0073

> <Gold.Chemscore.DEInternal.Weighted>
1.3965

> <Gold.Chemscore.Rot.Weighted>
6.5671

> <Gold.Chemscore.Internal.Correction.Weighted>
   9.000000E+99

> <Gold.Protein.RotatedTorsions>
[ 6907 6896 6895 6894 ] final   -6.17 input  -60.11 | X-H torsion
[ 7974 7965 7964 7962 ] final   65.56 input  175.53 | X-H torsion
[ 8008 7997 7996 7995 ] final -102.04 input   59.86 | X-H torsion
[ 10167 10162 10161 10158 ] final -149.92 input  -65.29 | X-H torsion
[ 10718 10713 10712 10709 ] final  174.47 input   66.30 | X-H torsion
[ 10763 10752 10751 10750 ] final  -54.38 input  -60.55 | X-H torsion
[ 11005 11000 10999 10996 ] final   64.51 input  -57.11 | X-H torsion

> <Gold.Protein.ActiveResidues>
 VAL166  LYS551  ARG553  GLY616  TRP617  ASP618  TYR619  PRO620  LYS621  CYS622 
 ASP623  PHE694  ASN695  SER759  ASP760  ASP761  ALA762  ILE779  LEU786  VAL792 
 PHE793  MET794  SER795  GLU796  ALA797  LYS798  CYS799  TRP800  GLU811  SER814 

> <Gold.Protein.RotatedAtoms>
  151.4699  135.1045  159.9748 H   0  0  0  0  0  0  0  0  0  0  0  0  # atno 6907 bound_to 6896
  152.4820  133.8275  159.7096 H   0  0  0  0  0  0  0  0  0  0  0  0  # atno 6908 bound_to 6896
  150.8900  133.7195  159.2934 H   0  0  0  0  0  0  0  0  0  0  0  0  # atno 6909 bound_to 6896
  145.8371  139.3173  143.0953 H   0  0  0  0  0  0  0  0  0  0  0  0  # atno 7974 bound_to 7965
  154.8510  140.0431  157.1604 H   0  0  0  0  0  0  0  0  0  0  0  0  # atno 8008 bound_to 7997
  154.8942  140.2991  155.5333 H   0  0  0  0  0  0  0  0  0  0  0  0  # atno 8009 bound_to 7997
  156.2996  140.2388  156.3962 H   0  0  0  0  0  0  0  0  0  0  0  0  # atno 8010 bound_to 7997
  139.7400  143.8676  152.2559 H   0  0  0  0  0  0  0  0  0  0  0  0  # atno 10167 bound_to 10162
  156.9492  131.0025  151.2952 H   0  0  0  0  0  0  0  0  0  0  0  0  # atno 10718 bound_to 10713
  154.1740  135.6454  153.5016 H   0  0  0  0  0  0  0  0  0  0  0  0  # atno 10763 bound_to 10752
  153.0077  135.5390  154.6584 H   0  0  0  0  0  0  0  0  0  0  0  0  # atno 10764 bound_to 10752
  154.5930  135.2936  155.0588 H   0  0  0  0  0  0  0  0  0  0  0  0  # atno 10765 bound_to 10752
  139.9954  134.6525  156.0019 H   0  0  0  0  0  0  0  0  0  0  0  0  # atno 11005 bound_to 11000
  145.9507  140.8911  143.0260 LP  0  0  0  0  0  0  0  0  0  0  0  0  # atno 17320 bound_to 7965
  144.6736  140.1676  143.7417 LP  0  0  0  0  0  0  0  0  0  0  0  0  # atno 17321 bound_to 7965
  139.8624  144.7110  150.9083 LP  0  0  0  0  0  0  0  0  0  0  0  0  # atno 17342 bound_to 10162
  140.7784  143.3806  151.1483 LP  0  0  0  0  0  0  0  0  0  0  0  0  # atno 17343 bound_to 10162
  157.5733  130.8326  149.8422 LP  0  0  0  0  0  0  0  0  0  0  0  0  # atno 17370 bound_to 10713
  156.0370  130.3748  150.1534 LP  0  0  0  0  0  0  0  0  0  0  0  0  # atno 17371 bound_to 10713
  141.1600  133.6539  156.4288 LP  0  0  0  0  0  0  0  0  0  0  0  0  # atno 17394 bound_to 11000
  140.4828  134.6649  157.5178 LP  0  0  0  0  0  0  0  0  0  0  0  0  # atno 17395 bound_to 11000

$$$$
