AV-unprocessed.smi:3082|AV-procd|sdf|11743|dock10
  -GOLD-   2272017133D 1   1.00000     0.00000
 Structure written by MMmdl.
 28 29  0  0  0  0  0  0  0  0  2 V2000
  154.0323  141.4818  162.0353 C   0  0  0  0  0  0  0  0  0  0  0  0
  153.0119  142.1046  161.1267 C   0  0  0  0  0  0  0  0  0  0  0  0
  152.2169  143.2609  161.3663 C   0  0  0  0  0  0  0  0  0  0  0  0
  151.4129  143.5489  160.3563 N   0  0  0  0  0  0  0  0  0  0  0  0
  151.6622  142.5895  159.4375 N   0  0  0  0  0  0  0  0  0  0  0  0
  150.9486  142.5836  158.1691 C   0  0  1  0  0  0  0  0  0  0  0  0
  151.4481  141.4572  157.2418 C   0  0  0  0  0  0  0  0  0  0  0  0
  150.6608  141.4646  155.9225 C   0  0  0  0  0  0  0  0  0  0  0  0
  149.1478  141.3819  156.1855 C   0  0  0  0  0  0  0  0  0  0  0  0
  148.7112  142.4745  157.0821 N   0  3  0  0  0  0  0  0  0  0  0  0
  149.4228  142.4762  158.3790 C   0  0  0  0  0  0  0  0  0  0  0  0
  152.6229  141.7042  159.8800 C   0  0  0  0  0  0  0  0  0  0  0  0
  154.1121  142.0156  162.9827 H   0  0  0  0  0  0  0  0  0  0  0  0
  155.0247  141.4806  161.5838 H   0  0  0  0  0  0  0  0  0  0  0  0
  153.7830  140.4469  162.2703 H   0  0  0  0  0  0  0  0  0  0  0  0
  152.2016  143.8968  162.2392 H   0  0  0  0  0  0  0  0  0  0  0  0
  151.1557  143.5381  157.6817 H   0  0  0  0  0  0  0  0  0  0  0  0
  152.5134  141.5768  157.0413 H   0  0  0  0  0  0  0  0  0  0  0  0
  151.3294  140.4867  157.7257 H   0  0  0  0  0  0  0  0  0  0  0  0
  150.8877  142.3745  155.3653 H   0  0  0  0  0  0  0  0  0  0  0  0
  150.9768  140.6307  155.2952 H   0  0  0  0  0  0  0  0  0  0  0  0
  148.5963  141.4495  155.2475 H   0  0  0  0  0  0  0  0  0  0  0  0
  148.8926  140.4225  156.6378 H   0  0  0  0  0  0  0  0  0  0  0  0
  148.8819  143.3566  156.6208 H   0  0  0  0  0  0  0  0  0  0  0  0
  149.1666  141.5637  158.9196 H   0  0  0  0  0  0  0  0  0  0  0  0
  149.0617  143.3129  158.9779 H   0  0  0  0  0  0  0  0  0  0  0  0
  152.9496  140.8695  159.2771 H   0  0  0  0  0  0  0  0  0  0  0  0
  147.7199  142.3823  157.2530 H   0  0  0  0  0  0  0  0  0  0  0  0
  1  2  1  0  0  0  0
  1 13  1  0  0  0  0
  1 14  1  0  0  0  0
  1 15  1  0  0  0  0
  2 12  2  0  0  0  0
  2  3  1  0  0  0  0
  3  4  2  0  0  0  0
  3 16  1  0  0  0  0
  4  5  1  0  0  0  0
  5  6  1  0  0  0  0
  5 12  1  0  0  0  0
  6 11  1  0  0  0  0
  6  7  1  0  0  0  0
  6 17  1  0  0  0  0
  7  8  1  0  0  0  0
  7 18  1  0  0  0  0
  7 19  1  0  0  0  0
  8  9  1  0  0  0  0
  8 20  1  0  0  0  0
  8 21  1  0  0  0  0
  9 10  1  0  0  0  0
  9 22  1  0  0  0  0
  9 23  1  0  0  0  0
 10 11  1  0  0  0  0
 10 24  1  0  0  0  0
 10 28  1  0  0  0  0
 11 25  1  0  0  0  0
 11 26  1  0  0  0  0
 12 27  1  0  0  0  0
M  CHG  1  10   1
M  END
> <s_m_source_file>
AV-unprocessed.smi

> <i_m_source_file_index>
3082

> <i_lp_mmshare_version>
43012

> <i_f3d_flags>
0

> <s_epik_input>
W0NIM11jMVtjSF1ubihbY0hdMSlbQ0BASF0yW0NIMl1bQ0gyXVtDSDJdW05IXVtDSDJdMg==

> <s_epik_cmdline>
J2VwaWtfcHl0aG9uJywgJy1waCcsICc3LjAnLCAnLXRuJywgJzgnLCAnLW1hJywgJzIwMCcsICctbWV0YWxfYmluZGluZycsICctaW1hZScsICc8aW5maWxlLm1hZT4nLCAnLW9tYWUnLCAnPG91dGZpbGUubWFlPic=

> <r_lp_tautomer_probability>
1

> <r_epik_Ionization_Penalty>
0.000667973

> <r_epik_Ionization_Penalty_Charging>
0.000651447

> <r_epik_Ionization_Penalty_Neutral>
1.65255e-05

> <r_epik_State_Penalty>
-0

> <r_epik_Charging_Adjusted_Penalty>
0.000651447

> <i_epik_Tot_Q>
1

> <i_epik_Tot_abs_Q>
1

> <r_epik_Metal_State_Penalty>
-0

> <b_epik_Metal_Only>
0

> <s_lp_Force_Field>
OPLS_2005

> <r_lp_Energy>
15.6496

> <b_lp_Chiralities_Consistent>
1

> <s_lp_Variant>
AV-unprocessed.smi:3082-2

> <Gold.Version>
5.8.1

> <Gold.Id.Protein>
6NUR|6NUR_protein|mol2

> <Gold.PLP.Fitness>
33.3491

> <Gold.PLP.PLP>
-27.3565

> <Gold.PLP.part.hbond>
-1.1130

> <Gold.PLP.part.metal>
0.0000

> <Gold.PLP.part.buried>
-3.1891

> <Gold.PLP.part.nonpolar>
-22.6945

> <Gold.PLP.part.repulsive>
0.0959

> <Gold.PLP.ligand.clash>
0.0000

> <Gold.PLP.ligand.torsion>
0.0126

> <Gold.PLP.Chemscore.Hbond>
2.0000

> <Gold.PLP.Chemscore.CHOScore>
0.0000

> <Gold.PLP.Chemscore.Metal>
0.0000

> <Gold.Chemscore.Hbonds>
donor molecule, donor type, donor heavy atom, donor atom, acceptor molecule, acceptor atom, score
      L1  H    10    24       P1  8028  2.00

> <Gold.PLP.Chemscore.Internal.Correction>
0.0179

> <Gold.Rescore>
     Score         DG    S(hbond)    S(metal)    S(lipo)     H(rot)  DE(clash)    DE(int)     intcor
     14.96     -15.04       1.00        0.00      75.14       1.00       0.06       0.02       ----

> <Gold.Chemscore.Fitness>
14.9565

> <Gold.Chemscore.DG>
-15.0354

> <Gold.Chemscore.ZeroCoef>
-5.4800

> <Gold.Chemscore.Hbond>
0.9951

> <Gold.Chemscore.Metal>
0.0000

> <Gold.Chemscore.Lipo>
75.1435

> <Gold.Chemscore.Internal_Hbond>
0.0000

> <Gold.Chemscore.DEClash>
0.0615

> <Gold.Chemscore.DEInternal>
0.0174

> <Gold.Chemscore.Rot>
1.0000

> <Gold.Chemscore.Internal.Correction>
   9.000000E+99

> <Gold.Chemscore.Hbonds>
donor molecule, donor type, donor heavy atom, donor atom, acceptor molecule, acceptor atom, score
      L1  H    10    24       P1  8028  0.88

> <Gold.Chemscore.Hbond.Weighted>
-3.3236

> <Gold.Chemscore.Metal.Weighted>
-0.0000

> <Gold.Chemscore.Lipo.Weighted>
-8.7918

> <Gold.Chemscore.Internal_Hbond.Weighted>
0.0000

> <Gold.Chemscore.DEClash.Weighted>
0.0615

> <Gold.Chemscore.DEInternal.Weighted>
0.0174

> <Gold.Chemscore.Rot.Weighted>
2.5600

> <Gold.Chemscore.Internal.Correction.Weighted>
   9.000000E+99

> <Gold.Protein.RotatedTorsions>
[ 6907 6896 6895 6894 ] final -145.80 input  -60.11 | X-H torsion
[ 7974 7965 7964 7962 ] final  133.47 input  175.53 | X-H torsion
[ 8008 7997 7996 7995 ] final   48.20 input   59.86 | X-H torsion
[ 10167 10162 10161 10158 ] final  -41.50 input  -65.29 | X-H torsion
[ 10718 10713 10712 10709 ] final  -10.65 input   66.30 | X-H torsion
[ 10763 10752 10751 10750 ] final   77.41 input  -60.55 | X-H torsion
[ 11005 11000 10999 10996 ] final   59.29 input  -57.11 | X-H torsion

> <Gold.Protein.ActiveResidues>
 VAL166  LYS551  ARG553  GLY616  TRP617  ASP618  TYR619  PRO620  LYS621  CYS622 
 ASP623  PHE694  ASN695  SER759  ASP760  ASP761  ALA762  ILE779  LEU786  VAL792 
 PHE793  MET794  SER795  GLU796  ALA797  LYS798  CYS799  TRP800  GLU811  SER814 

> <Gold.Protein.RotatedAtoms>
  151.1328  133.5025  159.2598 H   0  0  0  0  0  0  0  0  0  0  0  0  # atno 6907 bound_to 6896
  151.1739  135.0330  159.8773 H   0  0  0  0  0  0  0  0  0  0  0  0  # atno 6908 bound_to 6896
  152.5460  134.1188  159.8443 H   0  0  0  0  0  0  0  0  0  0  0  0  # atno 6909 bound_to 6896
  144.9862  139.4453  143.5362 H   0  0  0  0  0  0  0  0  0  0  0  0  # atno 7974 bound_to 7965
  155.3818  140.3429  155.4247 H   0  0  0  0  0  0  0  0  0  0  0  0  # atno 8008 bound_to 7997
  156.1606  140.1599  156.8651 H   0  0  0  0  0  0  0  0  0  0  0  0  # atno 8009 bound_to 7997
  154.5136  140.0784  156.8020 H   0  0  0  0  0  0  0  0  0  0  0  0  # atno 8010 bound_to 7997
  140.7000  143.3091  151.3075 H   0  0  0  0  0  0  0  0  0  0  0  0  # atno 10167 bound_to 10162
  156.6705  130.5008  149.6002 H   0  0  0  0  0  0  0  0  0  0  0  0  # atno 10718 bound_to 10713
  153.0796  135.4915  154.8476 H   0  0  0  0  0  0  0  0  0  0  0  0  # atno 10763 bound_to 10752
  154.7133  135.3024  154.9165 H   0  0  0  0  0  0  0  0  0  0  0  0  # atno 10764 bound_to 10752
  153.9851  135.6785  153.4804 H   0  0  0  0  0  0  0  0  0  0  0  0  # atno 10765 bound_to 10752
  140.0314  134.6006  155.9501 H   0  0  0  0  0  0  0  0  0  0  0  0  # atno 11005 bound_to 11000
  146.3420  139.9166  142.8772 LP  0  0  0  0  0  0  0  0  0  0  0  0  # atno 17320 bound_to 7965
  145.2350  140.9987  143.3969 LP  0  0  0  0  0  0  0  0  0  0  0  0  # atno 17321 bound_to 7965
  139.6507  144.0367  152.2624 LP  0  0  0  0  0  0  0  0  0  0  0  0  # atno 17342 bound_to 10162
  139.9902  144.6367  150.7821 LP  0  0  0  0  0  0  0  0  0  0  0  0  # atno 17343 bound_to 10162
  156.1942  130.6579  151.1096 LP  0  0  0  0  0  0  0  0  0  0  0  0  # atno 17370 bound_to 10713
  157.7079  131.0748  150.6604 LP  0  0  0  0  0  0  0  0  0  0  0  0  # atno 17371 bound_to 10713
  141.1833  133.6550  156.5112 LP  0  0  0  0  0  0  0  0  0  0  0  0  # atno 17394 bound_to 11000
  140.4219  134.7180  157.4894 LP  0  0  0  0  0  0  0  0  0  0  0  0  # atno 17395 bound_to 11000

$$$$
