AV-unprocessed.smi:2850|AV-procd|sdf|10967|dock5
  -GOLD-   2272015423D 1   1.00000     0.00000
 Structure written by MMmdl.
 45 46  0  0  0  0  0  0  0  0  2 V2000
  153.7014  141.3153  161.7844 C   0  0  0  0  0  0  0  0  0  0  0  0
  152.6571  142.7793  161.5401 S   0  0  0  0  0  0  0  0  0  0  0  0
  151.9599  142.6587  159.9211 C   0  0  0  0  0  0  0  0  0  0  0  0
  152.1118  143.7060  158.9948 C   0  0  0  0  0  0  0  0  0  0  0  0
  151.5334  143.5251  157.7262 C   0  0  0  0  0  0  0  0  0  0  0  0
  150.8485  142.3171  157.4836 C   0  0  0  0  0  0  0  0  0  0  0  0
  150.2748  142.1070  156.2210 N   0  0  0  0  0  0  0  0  0  0  0  0
  150.4275  140.8446  155.5051 C   0  0  0  0  0  0  0  0  0  0  0  0
  149.1401  140.3949  154.7892 C   0  0  2  0  0  0  0  0  0  0  0  0
  149.3456  139.1457  153.9050 C   0  0  0  0  0  0  0  0  0  0  0  0
  148.0941  138.7832  153.1965 N   0  3  1  0  0  0  0  0  0  0  0  0
  147.0918  138.1139  154.0703 C   0  0  0  0  0  0  0  0  0  0  0  0
  145.7378  137.8772  153.3686 C   0  0  0  0  0  0  0  0  0  0  0  0
  144.8029  137.0575  154.2707 C   0  0  0  0  0  0  0  0  0  0  0  0
  145.9099  137.1863  152.0056 C   0  0  0  0  0  0  0  0  0  0  0  0
  147.5764  139.9491  152.4356 C   0  0  0  0  0  0  0  0  0  0  0  0
  147.4630  141.2019  153.3264 C   0  0  0  0  0  0  0  0  0  0  0  0
  148.7129  141.4651  153.9537 O   0  0  0  0  0  0  0  0  0  0  0  0
  150.7366  141.3539  158.4334 N   0  0  0  0  0  0  0  0  0  0  0  0
  151.2892  141.5188  159.6400 N   0  0  0  0  0  0  0  0  0  0  0  0
  154.1783  141.3549  162.7636 H   0  0  0  0  0  0  0  0  0  0  0  0
  154.4803  141.2718  161.0229 H   0  0  0  0  0  0  0  0  0  0  0  0
  153.1057  140.4038  161.7289 H   0  0  0  0  0  0  0  0  0  0  0  0
  152.6523  144.6072  159.2434 H   0  0  0  0  0  0  0  0  0  0  0  0
  151.6173  144.2882  156.9662 H   0  0  0  0  0  0  0  0  0  0  0  0
  149.7381  142.8461  155.7901 H   0  0  0  0  0  0  0  0  0  0  0  0
  151.2438  140.9360  154.7875 H   0  0  0  0  0  0  0  0  0  0  0  0
  150.7372  140.0821  156.2202 H   0  0  0  0  0  0  0  0  0  0  0  0
  148.3647  140.2039  155.5317 H   0  0  0  0  0  0  0  0  0  0  0  0
  150.1180  139.3470  153.1612 H   0  0  0  0  0  0  0  0  0  0  0  0
  149.7027  138.2992  154.4925 H   0  0  0  0  0  0  0  0  0  0  0  0
  147.4798  137.1460  154.3914 H   0  0  0  0  0  0  0  0  0  0  0  0
  146.9484  138.6931  154.9825 H   0  0  0  0  0  0  0  0  0  0  0  0
  145.2493  138.8361  153.1982 H   0  0  0  0  0  0  0  0  0  0  0  0
  145.2230  136.0753  154.4901 H   0  0  0  0  0  0  0  0  0  0  0  0
  143.8319  136.9052  153.7984 H   0  0  0  0  0  0  0  0  0  0  0  0
  144.6287  137.5642  155.2205 H   0  0  0  0  0  0  0  0  0  0  0  0
  146.3927  136.2142  152.1108 H   0  0  0  0  0  0  0  0  0  0  0  0
  146.5142  137.7873  151.3259 H   0  0  0  0  0  0  0  0  0  0  0  0
  144.9447  137.0261  151.5241 H   0  0  0  0  0  0  0  0  0  0  0  0
  148.2715  140.1549  151.6205 H   0  0  0  0  0  0  0  0  0  0  0  0
  146.6194  139.7245  151.9668 H   0  0  0  0  0  0  0  0  0  0  0  0
  147.1875  142.0647  152.7199 H   0  0  0  0  0  0  0  0  0  0  0  0
  146.6816  141.0892  154.0790 H   0  0  0  0  0  0  0  0  0  0  0  0
  148.3558  138.0850  152.5151 H   0  0  0  0  0  0  0  0  0  0  0  0
  1  2  1  0  0  0  0
  1 21  1  0  0  0  0
  1 22  1  0  0  0  0
  1 23  1  0  0  0  0
  2  3  1  0  0  0  0
  3 20  1  0  0  0  0
  3  4  2  0  0  0  0
  4  5  1  0  0  0  0
  4 24  1  0  0  0  0
  5  6  2  0  0  0  0
  5 25  1  0  0  0  0
  6  7  1  0  0  0  0
  6 19  1  0  0  0  0
  7  8  1  0  0  0  0
  7 26  1  0  0  0  0
  8  9  1  0  0  0  0
  8 27  1  0  0  0  0
  8 28  1  0  0  0  0
  9 18  1  0  0  0  0
  9 10  1  0  0  0  0
  9 29  1  0  0  0  0
 10 11  1  0  0  0  0
 10 30  1  0  0  0  0
 10 31  1  0  0  0  0
 11 12  1  0  0  0  0
 11 16  1  0  0  0  0
 11 45  1  0  0  0  0
 12 13  1  0  0  0  0
 12 32  1  0  0  0  0
 12 33  1  0  0  0  0
 13 14  1  0  0  0  0
 13 15  1  0  0  0  0
 13 34  1  0  0  0  0
 14 35  1  0  0  0  0
 14 36  1  0  0  0  0
 14 37  1  0  0  0  0
 15 38  1  0  0  0  0
 15 39  1  0  0  0  0
 15 40  1  0  0  0  0
 16 17  1  0  0  0  0
 16 41  1  0  0  0  0
 16 42  1  0  0  0  0
 17 18  1  0  0  0  0
 17 43  1  0  0  0  0
 17 44  1  0  0  0  0
 19 20  2  0  0  0  0
M  CHG  1  11   1
M  END
> <s_m_source_file>
AV-unprocessed.smi

> <i_m_source_file_index>
2850

> <i_lp_mmshare_version>
43012

> <i_f3d_flags>
0

> <s_epik_input>
W0NIM11TYzFbY0hdW2NIXWMobm4xKVtOSF1bQ0gyXVtDQEBIXTJbQ0gyXU4oW0NIMl1bQ0gyXU8yKVtDSDJdW0NIXShbQ0gzXSlbQ0gzXQ==

> <s_epik_cmdline>
J2VwaWtfcHl0aG9uJywgJy1waCcsICc3LjAnLCAnLXRuJywgJzgnLCAnLW1hJywgJzIwMCcsICctbWV0YWxfYmluZGluZycsICctaW1hZScsICc8aW5maWxlLm1hZT4nLCAnLW9tYWUnLCAnPG91dGZpbGUubWFlPic=

> <r_lp_tautomer_probability>
0.999978

> <r_epik_Ionization_Penalty>
0.0874875

> <r_epik_Ionization_Penalty_Charging>
0.0831532

> <r_epik_Ionization_Penalty_Neutral>
0.00433433

> <r_epik_State_Penalty>
0.0738301

> <r_epik_Charging_Adjusted_Penalty>
0.156983

> <i_epik_Tot_Q>
1

> <i_epik_Tot_abs_Q>
1

> <r_epik_Metal_State_Penalty>
0.073888

> <b_epik_Metal_Only>
0

> <s_lp_Force_Field>
OPLS_2005

> <r_lp_Energy>
26.7302

> <b_lp_Chiralities_Consistent>
1

> <s_lp_Variant>
AV-unprocessed.smi:2850-3

> <Gold.Version>
5.8.1

> <Gold.Id.Protein>
6NUR|6NUR_protein|mol2

> <Gold.PLP.Fitness>
47.7225

> <Gold.PLP.PLP>
-37.8828

> <Gold.PLP.part.hbond>
-4.7672

> <Gold.PLP.part.metal>
0.0000

> <Gold.PLP.part.buried>
3.5850

> <Gold.PLP.part.nonpolar>
-36.1612

> <Gold.PLP.part.repulsive>
0.3692

> <Gold.PLP.ligand.clash>
0.0000

> <Gold.PLP.ligand.torsion>
0.6590

> <Gold.PLP.Chemscore.Hbond>
3.6800

> <Gold.PLP.Chemscore.CHOScore>
0.0000

> <Gold.PLP.Chemscore.Metal>
0.0000

> <Gold.Chemscore.Hbonds>
donor molecule, donor type, donor heavy atom, donor atom, acceptor molecule, acceptor atom, score
      L1  H     7    26       P1  8028  0.93
      L1  H    11    45       P1  7948  2.00
      P1  H  8011  8017       L1    18  0.46

> <Gold.PLP.Chemscore.Internal.Correction>
0.1176

> <Gold.Rescore>
     Score         DG    S(hbond)    S(metal)    S(lipo)     H(rot)  DE(clash)    DE(int)     intcor
     19.08     -21.86       2.30        0.00     109.21       1.60       2.17       0.60       ----

> <Gold.Chemscore.Fitness>
19.0826

> <Gold.Chemscore.DG>
-21.8587

> <Gold.Chemscore.ZeroCoef>
-5.4800

> <Gold.Chemscore.Hbond>
2.3048

> <Gold.Chemscore.Metal>
0.0000

> <Gold.Chemscore.Lipo>
109.2087

> <Gold.Chemscore.Internal_Hbond>
0.0000

> <Gold.Chemscore.DEClash>
2.1743

> <Gold.Chemscore.DEInternal>
0.6018

> <Gold.Chemscore.Rot>
1.6003

> <Gold.Chemscore.Internal.Correction>
   9.000000E+99

> <Gold.Chemscore.Hbonds>
donor molecule, donor type, donor heavy atom, donor atom, acceptor molecule, acceptor atom, score
      L1  H     7    26       P1  8028  0.87
      L1  H    11    45       P1  7948  0.92
      P1  H  8011  8017       L1    18  0.14

> <Gold.Chemscore.Hbond.Weighted>
-7.6981

> <Gold.Chemscore.Metal.Weighted>
-0.0000

> <Gold.Chemscore.Lipo.Weighted>
-12.7774

> <Gold.Chemscore.Internal_Hbond.Weighted>
0.0000

> <Gold.Chemscore.DEClash.Weighted>
2.1743

> <Gold.Chemscore.DEInternal.Weighted>
0.6018

> <Gold.Chemscore.Rot.Weighted>
4.0968

> <Gold.Chemscore.Internal.Correction.Weighted>
   9.000000E+99

> <Gold.Protein.RotatedTorsions>
[ 6907 6896 6895 6894 ] final  -89.52 input  -60.11 | X-H torsion
[ 7974 7965 7964 7962 ] final -136.65 input  175.53 | X-H torsion
[ 8008 7997 7996 7995 ] final  109.43 input   59.86 | X-H torsion
[ 10167 10162 10161 10158 ] final   -8.71 input  -65.29 | X-H torsion
[ 10718 10713 10712 10709 ] final  -42.30 input   66.30 | X-H torsion
[ 10763 10752 10751 10750 ] final -174.41 input  -60.55 | X-H torsion
[ 11005 11000 10999 10996 ] final -168.11 input  -57.11 | X-H torsion

> <Gold.Protein.ActiveResidues>
 VAL166  LYS551  ARG553  GLY616  TRP617  ASP618  TYR619  PRO620  LYS621  CYS622 
 ASP623  PHE694  ASN695  SER759  ASP760  ASP761  ALA762  ILE779  LEU786  VAL792 
 PHE793  MET794  SER795  GLU796  ALA797  LYS798  CYS799  TRP800  GLU811  SER814 

> <Gold.Protein.RotatedAtoms>
  150.6874  134.2574  159.4535 H   0  0  0  0  0  0  0  0  0  0  0  0  # atno 6907 bound_to 6896
  152.0507  134.9653  160.0584 H   0  0  0  0  0  0  0  0  0  0  0  0  # atno 6908 bound_to 6896
  152.1118  133.4270  159.4671 H   0  0  0  0  0  0  0  0  0  0  0  0  # atno 6909 bound_to 6896
  144.8909  140.6641  143.5146 H   0  0  0  0  0  0  0  0  0  0  0  0  # atno 7974 bound_to 7965
  156.1978  140.3058  155.9464 H   0  0  0  0  0  0  0  0  0  0  0  0  # atno 8008 bound_to 7997
  155.3024  140.0447  157.3047 H   0  0  0  0  0  0  0  0  0  0  0  0  # atno 8009 bound_to 7997
  154.5532  140.2298  155.8461 H   0  0  0  0  0  0  0  0  0  0  0  0  # atno 8010 bound_to 7997
  140.7067  143.5938  150.8866 H   0  0  0  0  0  0  0  0  0  0  0  0  # atno 10167 bound_to 10162
  156.2611  130.4197  149.8542 H   0  0  0  0  0  0  0  0  0  0  0  0  # atno 10718 bound_to 10713
  154.5966  135.2850  155.0580 H   0  0  0  0  0  0  0  0  0  0  0  0  # atno 10763 bound_to 10752
  154.1860  135.6448  153.5051 H   0  0  0  0  0  0  0  0  0  0  0  0  # atno 10764 bound_to 10752
  153.0141  135.5435  154.6670 H   0  0  0  0  0  0  0  0  0  0  0  0  # atno 10765 bound_to 10752
  140.5456  134.5479  157.5110 H   0  0  0  0  0  0  0  0  0  0  0  0  # atno 11005 bound_to 11000
  145.3785  139.1642  143.4293 LP  0  0  0  0  0  0  0  0  0  0  0  0  # atno 17320 bound_to 7965
  146.3053  140.3863  142.8689 LP  0  0  0  0  0  0  0  0  0  0  0  0  # atno 17321 bound_to 7965
  139.9663  143.6106  152.2987 LP  0  0  0  0  0  0  0  0  0  0  0  0  # atno 17342 bound_to 10162
  139.6677  144.7662  151.1841 LP  0  0  0  0  0  0  0  0  0  0  0  0  # atno 17343 bound_to 10162
  156.6057  130.8565  151.3442 LP  0  0  0  0  0  0  0  0  0  0  0  0  # atno 17370 bound_to 10713
  157.7251  130.9611  150.1599 LP  0  0  0  0  0  0  0  0  0  0  0  0  # atno 17371 bound_to 10713
  139.9481  134.7666  156.0513 LP  0  0  0  0  0  0  0  0  0  0  0  0  # atno 17394 bound_to 11000
  141.1201  133.6615  156.3194 LP  0  0  0  0  0  0  0  0  0  0  0  0  # atno 17395 bound_to 11000

$$$$
