AV-unprocessed.smi:2649|AV-procd|sdf|10290|dock5
  -GOLD-   2272014303D 1   1.00000     0.00000
 Structure written by MMmdl.
 34 35  0  0  0  0  0  0  0  0  1 V2000
  150.1927  144.7656  159.8222 C   0  0  0  0  0  0  0  0  0  0  0  0
  151.6738  145.4924  160.5757 S   0  0  0  0  0  0  0  0  0  0  0  0
  152.0356  144.2752  161.8775 C   0  0  0  0  0  0  0  0  0  0  0  0
  152.5268  142.9667  161.2788 C   0  0  0  0  0  0  0  0  0  0  0  0
  152.0326  142.6671  160.0569 N   0  0  0  0  0  0  0  0  0  0  0  0
  152.4058  141.5162  159.4463 C   0  0  0  0  0  0  0  0  0  0  0  0
  151.9344  141.1162  158.1684 N   0  0  0  0  0  0  0  0  0  0  0  0
  150.9700  141.6828  157.4172 C   0  0  0  0  0  0  0  0  0  0  0  0
  150.3015  142.6561  157.7684 O   0  0  0  0  0  0  0  0  0  0  0  0
  150.6981  141.0213  156.0570 C   0  0  1  0  0  0  0  0  0  0  0  0
  151.6091  139.7989  155.7972 C   0  0  0  0  0  0  0  0  0  0  0  0
  151.2743  139.2177  154.5437 O   0  0  0  0  0  0  0  0  0  0  0  0
  149.9193  138.7925  154.5143 C   0  0  0  0  0  0  0  0  0  0  0  0
  149.0112  140.0088  154.7551 C   0  0  0  0  0  0  0  0  0  0  0  0
  149.3393  140.5889  156.0103 O   0  0  0  0  0  0  0  0  0  0  0  0
  153.3128  140.6240  160.0587 C   0  0  0  0  0  0  0  0  0  0  0  0
  153.8357  140.9333  161.3286 C   0  0  0  0  0  0  0  0  0  0  0  0
  153.4391  142.1275  161.9579 C   0  0  0  0  0  0  0  0  0  0  0  0
  154.0707  142.5276  163.5162 Cl  0  0  0  0  0  0  0  0  0  0  0  0
  149.8997  145.3416  158.9444 H   0  0  0  0  0  0  0  0  0  0  0  0
  149.3596  144.7684  160.5249 H   0  0  0  0  0  0  0  0  0  0  0  0
  150.3864  143.7382  159.5133 H   0  0  0  0  0  0  0  0  0  0  0  0
  152.7810  144.6900  162.5576 H   0  0  0  0  0  0  0  0  0  0  0  0
  151.1362  144.0995  162.4681 H   0  0  0  0  0  0  0  0  0  0  0  0
  152.3892  140.3086  157.7680 H   0  0  0  0  0  0  0  0  0  0  0  0
  150.8629  141.7751  155.2852 H   0  0  0  0  0  0  0  0  0  0  0  0
  152.6574  140.0971  155.7653 H   0  0  0  0  0  0  0  0  0  0  0  0
  151.5101  139.0562  156.5909 H   0  0  0  0  0  0  0  0  0  0  0  0
  149.7066  138.3463  153.5426 H   0  0  0  0  0  0  0  0  0  0  0  0
  149.7477  138.0219  155.2676 H   0  0  0  0  0  0  0  0  0  0  0  0
  149.1249  140.7444  153.9576 H   0  0  0  0  0  0  0  0  0  0  0  0
  147.9646  139.7046  154.7660 H   0  0  0  0  0  0  0  0  0  0  0  0
  153.6076  139.7097  159.5644 H   0  0  0  0  0  0  0  0  0  0  0  0
  154.5307  140.2623  161.8113 H   0  0  0  0  0  0  0  0  0  0  0  0
  1  2  1  0  0  0  0
  1 20  1  0  0  0  0
  1 21  1  0  0  0  0
  1 22  1  0  0  0  0
  2  3  1  0  0  0  0
  3  4  1  0  0  0  0
  3 23  1  0  0  0  0
  3 24  1  0  0  0  0
  4 18  1  0  0  0  0
  4  5  2  0  0  0  0
  5  6  1  0  0  0  0
  6  7  1  0  0  0  0
  6 16  2  0  0  0  0
  7  8  1  0  0  0  0
  7 25  1  0  0  0  0
  8  9  2  0  0  0  0
  8 10  1  0  0  0  0
 10 15  1  0  0  0  0
 10 11  1  0  0  0  0
 10 26  1  0  0  0  0
 11 12  1  0  0  0  0
 11 27  1  0  0  0  0
 11 28  1  0  0  0  0
 12 13  1  0  0  0  0
 13 14  1  0  0  0  0
 13 29  1  0  0  0  0
 13 30  1  0  0  0  0
 14 15  1  0  0  0  0
 14 31  1  0  0  0  0
 14 32  1  0  0  0  0
 16 17  1  0  0  0  0
 16 33  1  0  0  0  0
 17 18  2  0  0  0  0
 17 34  1  0  0  0  0
 18 19  1  0  0  0  0
M  END
> <s_m_source_file>
AV-unprocessed.smi

> <i_m_source_file_index>
2649

> <i_lp_mmshare_version>
43012

> <i_f3d_flags>
0

> <s_epik_input>
W0NIM11TW0NIMl1jMW5jKFtjSF1bY0hdYzFDbClbTkhdQyg9TylbQ0BASF0yW0NIMl1PW0NIMl1bQ0gyXU8y

> <s_epik_cmdline>
J2VwaWtfcHl0aG9uJywgJy1waCcsICc3LjAnLCAnLXRuJywgJzgnLCAnLW1hJywgJzIwMCcsICctbWV0YWxfYmluZGluZycsICctaW1hZScsICc8aW5maWxlLm1hZT4nLCAnLW9tYWUnLCAnPG91dGZpbGUubWFlPic=

> <r_lp_tautomer_probability>
1

> <r_epik_Ionization_Penalty>
9.71596e-06

> <r_epik_Ionization_Penalty_Charging>
0

> <r_epik_Ionization_Penalty_Neutral>
9.71596e-06

> <r_epik_State_Penalty>
-0

> <r_epik_Charging_Adjusted_Penalty>
0

> <i_epik_Tot_Q>
0

> <i_epik_Tot_abs_Q>
0

> <r_epik_Metal_State_Penalty>
-0

> <b_epik_Metal_Only>
0

> <s_lp_Force_Field>
OPLS_2005

> <r_lp_Energy>
11.632

> <b_lp_Chiralities_Consistent>
1

> <s_lp_Variant>
AV-unprocessed.smi:2649-2

> <Gold.Version>
5.8.1

> <Gold.Id.Protein>
6NUR|6NUR_protein|mol2

> <Gold.PLP.Fitness>
45.9709

> <Gold.PLP.PLP>
-45.1825

> <Gold.PLP.part.hbond>
-1.0000

> <Gold.PLP.part.metal>
0.0000

> <Gold.PLP.part.buried>
-3.8340

> <Gold.PLP.part.nonpolar>
-40.0127

> <Gold.PLP.part.repulsive>
0.3797

> <Gold.PLP.ligand.clash>
0.6519

> <Gold.PLP.ligand.torsion>
0.4154

> <Gold.PLP.Chemscore.Hbond>
0.7500

> <Gold.PLP.Chemscore.CHOScore>
0.0000

> <Gold.PLP.Chemscore.Metal>
0.0000

> <Gold.Chemscore.Hbonds>
donor molecule, donor type, donor heavy atom, donor atom, acceptor molecule, acceptor atom, score
      P1  H  7989  7998       L1    12  0.75

> <Gold.PLP.Chemscore.Internal.Correction>
0.0210

> <Gold.Rescore>
     Score         DG    S(hbond)    S(metal)    S(lipo)     H(rot)  DE(clash)    DE(int)     intcor
     12.25     -14.98       0.02        0.00     110.01       1.34       0.49       2.24       ----

> <Gold.Chemscore.Fitness>
12.2538

> <Gold.Chemscore.DG>
-14.9819

> <Gold.Chemscore.ZeroCoef>
-5.4800

> <Gold.Chemscore.Hbond>
0.0192

> <Gold.Chemscore.Metal>
0.0000

> <Gold.Chemscore.Lipo>
110.0062

> <Gold.Chemscore.Internal_Hbond>
0.0000

> <Gold.Chemscore.DEClash>
0.4851

> <Gold.Chemscore.DEInternal>
2.2429

> <Gold.Chemscore.Rot>
1.3410

> <Gold.Chemscore.Internal.Correction>
   9.000000E+99

> <Gold.Chemscore.Hbonds>
donor molecule, donor type, donor heavy atom, donor atom, acceptor molecule, acceptor atom, score
      P1  H  7989  7998       L1    12  0.08

> <Gold.Chemscore.Hbond.Weighted>
-0.0642

> <Gold.Chemscore.Metal.Weighted>
-0.0000

> <Gold.Chemscore.Lipo.Weighted>
-12.8707

> <Gold.Chemscore.Internal_Hbond.Weighted>
0.0000

> <Gold.Chemscore.DEClash.Weighted>
0.4851

> <Gold.Chemscore.DEInternal.Weighted>
2.2429

> <Gold.Chemscore.Rot.Weighted>
3.4331

> <Gold.Chemscore.Internal.Correction.Weighted>
   9.000000E+99

> <Gold.Protein.RotatedTorsions>
[ 6907 6896 6895 6894 ] final    1.95 input  -60.11 | X-H torsion
[ 7974 7965 7964 7962 ] final   66.45 input  175.53 | X-H torsion
[ 8008 7997 7996 7995 ] final   20.42 input   59.86 | X-H torsion
[ 10167 10162 10161 10158 ] final   89.58 input  -65.29 | X-H torsion
[ 10718 10713 10712 10709 ] final   32.63 input   66.30 | X-H torsion
[ 10763 10752 10751 10750 ] final   52.51 input  -60.55 | X-H torsion
[ 11005 11000 10999 10996 ] final  176.53 input  -57.11 | X-H torsion

> <Gold.Protein.ActiveResidues>
 VAL166  LYS551  ARG553  GLY616  TRP617  ASP618  TYR619  PRO620  LYS621  CYS622 
 ASP623  PHE694  ASN695  SER759  ASP760  ASP761  ALA762  ILE779  LEU786  VAL792 
 PHE793  MET794  SER795  GLU796  ALA797  LYS798  CYS799  TRP800  GLU811  SER814 

> <Gold.Protein.RotatedAtoms>
  151.6009  135.1047  160.0059 H   0  0  0  0  0  0  0  0  0  0  0  0  # atno 6907 bound_to 6896
  152.4258  133.7189  159.6532 H   0  0  0  0  0  0  0  0  0  0  0  0  # atno 6908 bound_to 6896
  150.8147  133.8286  159.3188 H   0  0  0  0  0  0  0  0  0  0  0  0  # atno 6909 bound_to 6896
  145.8265  139.3114  143.1012 H   0  0  0  0  0  0  0  0  0  0  0  0  # atno 7974 bound_to 7965
  154.9354  140.3046  155.5147 H   0  0  0  0  0  0  0  0  0  0  0  0  # atno 8008 bound_to 7997
  156.3000  140.2346  156.4354 H   0  0  0  0  0  0  0  0  0  0  0  0  # atno 8009 bound_to 7997
  154.8197  140.0424  157.1390 H   0  0  0  0  0  0  0  0  0  0  0  0  # atno 8010 bound_to 7997
  139.8559  144.6569  150.9115 H   0  0  0  0  0  0  0  0  0  0  0  0  # atno 10167 bound_to 10162
  157.2877  130.7287  149.6592 H   0  0  0  0  0  0  0  0  0  0  0  0  # atno 10718 bound_to 10713
  152.9789  135.5810  154.4590 H   0  0  0  0  0  0  0  0  0  0  0  0  # atno 10763 bound_to 10752
  154.4168  135.2771  155.2003 H   0  0  0  0  0  0  0  0  0  0  0  0  # atno 10764 bound_to 10752
  154.3769  135.6155  153.5824 H   0  0  0  0  0  0  0  0  0  0  0  0  # atno 10765 bound_to 10752
  140.3742  134.7003  157.4411 H   0  0  0  0  0  0  0  0  0  0  0  0  # atno 11005 bound_to 11000
  145.9618  140.8830  143.0207 LP  0  0  0  0  0  0  0  0  0  0  0  0  # atno 17320 bound_to 7965
  144.6743  140.1822  143.7404 LP  0  0  0  0  0  0  0  0  0  0  0  0  # atno 17321 bound_to 7965
  140.7781  143.3787  151.1517 LP  0  0  0  0  0  0  0  0  0  0  0  0  # atno 17342 bound_to 10162
  139.7421  143.8909  152.3053 LP  0  0  0  0  0  0  0  0  0  0  0  0  # atno 17343 bound_to 10162
  155.9666  130.4318  150.4938 LP  0  0  0  0  0  0  0  0  0  0  0  0  # atno 17370 bound_to 10713
  157.2894  131.0623  151.2144 LP  0  0  0  0  0  0  0  0  0  0  0  0  # atno 17371 bound_to 10713
  140.0528  134.6106  155.8841 LP  0  0  0  0  0  0  0  0  0  0  0  0  # atno 17394 bound_to 11000
  141.1945  133.6583  156.5597 LP  0  0  0  0  0  0  0  0  0  0  0  0  # atno 17395 bound_to 11000

$$$$
