AV-unprocessed.smi:3311|AV-procd|sdf|12726|dock2
  -GOLD-   2272019 63D 1   1.00000     0.00000
 Structure written by MMmdl.
 43 44  0  0  0  0  0  0  0  0  1 V2000
  147.7029  141.8472  155.1061 C   0  0  0  0  0  0  0  0  0  0  0  0
  148.9754  141.0451  155.4283 C   0  0  1  0  0  0  0  0  0  0  0  0
  149.0446  140.8503  156.8815 N   0  0  0  0  0  0  0  0  0  0  0  0
  150.3901  140.7108  157.4458 C   0  0  0  0  0  0  0  0  0  0  0  0
  150.8871  142.0090  158.1224 C   0  0  0  0  0  0  0  0  0  0  0  0
  149.8072  142.5185  158.8846 O   0  0  0  0  0  0  0  0  0  0  0  0
  152.0312  141.6680  159.1071 C   0  0  0  0  0  0  0  0  0  0  0  0
  152.6554  142.9118  159.7655 C   0  0  0  0  0  0  0  0  0  0  0  0
  153.1351  143.9182  158.7109 C   0  0  0  0  0  0  0  0  0  0  0  0
  151.9897  144.3106  157.7677 C   0  0  0  0  0  0  0  0  0  0  0  0
  151.3594  143.0749  157.1005 C   0  0  0  0  0  0  0  0  0  0  0  0
  149.0243  139.7184  154.6123 C   0  0  1  0  0  0  0  0  0  0  0  0
  148.4422  139.7867  153.1903 C   0  0  0  0  0  0  0  0  0  0  0  0
  150.3454  139.0964  154.6104 N   0  0  0  0  0  0  0  0  0  0  0  0
  150.6937  137.7996  154.2858 C   0  0  0  0  0  0  0  0  0  0  0  0
  152.0479  137.6917  154.4212 C   0  0  0  0  0  0  0  0  0  0  0  0
  152.4493  138.9913  154.8370 C   0  0  0  0  0  0  0  0  0  0  0  0
  151.4311  139.8283  154.9481 N   0  0  0  0  0  0  0  0  0  0  0  0
  147.6172  142.0347  154.0356 H   0  0  0  0  0  0  0  0  0  0  0  0
  147.7144  142.8163  155.6061 H   0  0  0  0  0  0  0  0  0  0  0  0
  146.8008  141.3239  155.4249 H   0  0  0  0  0  0  0  0  0  0  0  0
  149.8162  141.6651  155.1142 H   0  0  0  0  0  0  0  0  0  0  0  0
  148.5682  141.6155  157.3478 H   0  0  0  0  0  0  0  0  0  0  0  0
  150.4403  139.8932  158.1597 H   0  0  0  0  0  0  0  0  0  0  0  0
  151.0805  140.4482  156.6434 H   0  0  0  0  0  0  0  0  0  0  0  0
  149.8503  142.1435  159.7507 H   0  0  0  0  0  0  0  0  0  0  0  0
  151.6744  140.9850  159.8795 H   0  0  0  0  0  0  0  0  0  0  0  0
  152.8161  141.1311  158.5725 H   0  0  0  0  0  0  0  0  0  0  0  0
  151.9283  143.3881  160.4241 H   0  0  0  0  0  0  0  0  0  0  0  0
  153.4915  142.6137  160.3990 H   0  0  0  0  0  0  0  0  0  0  0  0
  153.5366  144.8069  159.1992 H   0  0  0  0  0  0  0  0  0  0  0  0
  153.9535  143.4847  158.1343 H   0  0  0  0  0  0  0  0  0  0  0  0
  151.2283  144.8584  158.3243 H   0  0  0  0  0  0  0  0  0  0  0  0
  152.3592  144.9935  157.0024 H   0  0  0  0  0  0  0  0  0  0  0  0
  152.0936  142.6262  156.4299 H   0  0  0  0  0  0  0  0  0  0  0  0
  150.5309  143.3986  156.4694 H   0  0  0  0  0  0  0  0  0  0  0  0
  148.3597  139.0339  155.1434 H   0  0  0  0  0  0  0  0  0  0  0  0
  147.4827  140.3041  153.1801 H   0  0  0  0  0  0  0  0  0  0  0  0
  148.2772  138.7836  152.7962 H   0  0  0  0  0  0  0  0  0  0  0  0
  149.1122  140.2916  152.4954 H   0  0  0  0  0  0  0  0  0  0  0  0
  149.9565  137.0692  153.9858 H   0  0  0  0  0  0  0  0  0  0  0  0
  152.6582  136.8180  154.2480 H   0  0  0  0  0  0  0  0  0  0  0  0
  153.4438  139.3493  155.0588 H   0  0  0  0  0  0  0  0  0  0  0  0
  1  2  1  0  0  0  0
  1 19  1  0  0  0  0
  1 20  1  0  0  0  0
  1 21  1  0  0  0  0
  2  3  1  0  0  0  0
  2 12  1  0  0  0  0
  2 22  1  0  0  0  0
  3  4  1  0  0  0  0
  3 23  1  0  0  0  0
  4  5  1  0  0  0  0
  4 24  1  0  0  0  0
  4 25  1  0  0  0  0
  5 11  1  0  0  0  0
  5  6  1  0  0  0  0
  5  7  1  0  0  0  0
  6 26  1  0  0  0  0
  7  8  1  0  0  0  0
  7 27  1  0  0  0  0
  7 28  1  0  0  0  0
  8  9  1  0  0  0  0
  8 29  1  0  0  0  0
  8 30  1  0  0  0  0
  9 10  1  0  0  0  0
  9 31  1  0  0  0  0
  9 32  1  0  0  0  0
 10 11  1  0  0  0  0
 10 33  1  0  0  0  0
 10 34  1  0  0  0  0
 11 35  1  0  0  0  0
 11 36  1  0  0  0  0
 12 13  1  0  0  0  0
 12 14  1  0  0  0  0
 12 37  1  0  0  0  0
 13 38  1  0  0  0  0
 13 39  1  0  0  0  0
 13 40  1  0  0  0  0
 14 18  1  0  0  0  0
 14 15  1  0  0  0  0
 15 16  2  0  0  0  0
 15 41  1  0  0  0  0
 16 17  1  0  0  0  0
 16 42  1  0  0  0  0
 17 18  2  0  0  0  0
 17 43  1  0  0  0  0
M  END
> <s_m_source_file>
AV-unprocessed.smi

> <i_m_source_file_index>
3311

> <i_lp_mmshare_version>
43012

> <i_f3d_flags>
0

> <s_epik_input>
bjFbY0hdW2NIXVtjSF1uMVtDQEBIXShbQ0gzXSlbQ0BIXShbQ0gzXSlbTkhdW0NIMl1DMihbT0hdKVtDSDJdW0NIMl1bQ0gyXVtDSDJdW0NIMl0y

> <s_epik_cmdline>
J2VwaWtfcHl0aG9uJywgJy1waCcsICc3LjAnLCAnLXRuJywgJzgnLCAnLW1hJywgJzIwMCcsICctbWV0YWxfYmluZGluZycsICctaW1hZScsICc8aW5maWxlLm1hZT4nLCAnLW9tYWUnLCAnPG91dGZpbGUubWFlPic=

> <r_lp_tautomer_probability>
1

> <r_epik_Ionization_Penalty>
2.222

> <r_epik_Ionization_Penalty_Charging>
0

> <r_epik_Ionization_Penalty_Neutral>
2.222

> <r_epik_State_Penalty>
2.36562

> <r_epik_Charging_Adjusted_Penalty>
2.36562

> <i_epik_Tot_Q>
0

> <i_epik_Tot_abs_Q>
0

> <r_epik_Metal_State_Penalty>
2.36435

> <b_epik_Metal_Only>
0

> <s_lp_Force_Field>
OPLS_2005

> <r_lp_Energy>
31.437

> <b_lp_Chiralities_Consistent>
1

> <s_lp_Variant>
AV-unprocessed.smi:3311-8

> <Gold.Version>
5.8.1

> <Gold.Id.Protein>
6NUR|6NUR_protein|mol2

> <Gold.PLP.Fitness>
41.7830

> <Gold.PLP.PLP>
-38.3581

> <Gold.PLP.part.hbond>
-1.9398

> <Gold.PLP.part.metal>
0.0000

> <Gold.PLP.part.buried>
3.1897

> <Gold.PLP.part.nonpolar>
-39.6667

> <Gold.PLP.part.repulsive>
0.0483

> <Gold.PLP.ligand.clash>
0.0000

> <Gold.PLP.ligand.torsion>
1.4384

> <Gold.PLP.Chemscore.Hbond>
1.0000

> <Gold.PLP.Chemscore.CHOScore>
1.0134

> <Gold.PLP.Chemscore.Metal>
0.0000

> <Gold.Chemscore.Hbonds>
donor molecule, donor type, donor heavy atom, donor atom, acceptor molecule, acceptor atom, score
      P1  H  7989  7998       L1    18  1.00
      L1  C    15    41       P1  7948  1.00

> <Gold.PLP.Chemscore.Internal.Correction>
0.2615

> <Gold.Rescore>
     Score         DG    S(hbond)    S(metal)    S(lipo)     H(rot)  DE(clash)    DE(int)     intcor
     10.98     -15.88       0.39        0.00     122.95       2.07       2.18       2.71       ----

> <Gold.Chemscore.Fitness>
10.9839

> <Gold.Chemscore.DG>
-15.8791

> <Gold.Chemscore.ZeroCoef>
-5.4800

> <Gold.Chemscore.Hbond>
0.3920

> <Gold.Chemscore.Metal>
0.0000

> <Gold.Chemscore.Lipo>
122.9521

> <Gold.Chemscore.Internal_Hbond>
0.0000

> <Gold.Chemscore.DEClash>
2.1825

> <Gold.Chemscore.DEInternal>
2.7127

> <Gold.Chemscore.Rot>
2.0686

> <Gold.Chemscore.Internal.Correction>
   9.000000E+99

> <Gold.Chemscore.Hbonds>
donor molecule, donor type, donor heavy atom, donor atom, acceptor molecule, acceptor atom, score
      P1  H  7989  7998       L1    18  0.12

> <Gold.Chemscore.Hbond.Weighted>
-1.3094

> <Gold.Chemscore.Metal.Weighted>
-0.0000

> <Gold.Chemscore.Lipo.Weighted>
-14.3854

> <Gold.Chemscore.Internal_Hbond.Weighted>
0.0000

> <Gold.Chemscore.DEClash.Weighted>
2.1825

> <Gold.Chemscore.DEInternal.Weighted>
2.7127

> <Gold.Chemscore.Rot.Weighted>
5.2957

> <Gold.Chemscore.Internal.Correction.Weighted>
   9.000000E+99

> <Gold.Protein.RotatedTorsions>
[ 6907 6896 6895 6894 ] final  150.87 input  -60.11 | X-H torsion
[ 7974 7965 7964 7962 ] final  135.21 input  175.53 | X-H torsion
[ 8008 7997 7996 7995 ] final  177.72 input   59.86 | X-H torsion
[ 10167 10162 10161 10158 ] final -164.82 input  -65.29 | X-H torsion
[ 10718 10713 10712 10709 ] final  -71.51 input   66.30 | X-H torsion
[ 10763 10752 10751 10750 ] final -114.22 input  -60.55 | X-H torsion
[ 11005 11000 10999 10996 ] final  120.59 input  -57.11 | X-H torsion

> <Gold.Protein.ActiveResidues>
 VAL166  LYS551  ARG553  GLY616  TRP617  ASP618  TYR619  PRO620  LYS621  CYS622 
 ASP623  PHE694  ASN695  SER759  ASP760  ASP761  ALA762  ILE779  LEU786  VAL792 
 PHE793  MET794  SER795  GLU796  ALA797  LYS798  CYS799  TRP800  GLU811  SER814 

> <Gold.Protein.RotatedAtoms>
  152.1085  133.4287  159.4619 H   0  0  0  0  0  0  0  0  0  0  0  0  # atno 6907 bound_to 6896
  150.6866  134.2677  159.4584 H   0  0  0  0  0  0  0  0  0  0  0  0  # atno 6908 bound_to 6896
  152.0543  134.9633  160.0625 H   0  0  0  0  0  0  0  0  0  0  0  0  # atno 6909 bound_to 6896
  144.9686  139.4630  143.5444 H   0  0  0  0  0  0  0  0  0  0  0  0  # atno 7974 bound_to 7965
  156.0625  140.1351  156.9924 H   0  0  0  0  0  0  0  0  0  0  0  0  # atno 8008 bound_to 7997
  154.4489  140.0988  156.6610 H   0  0  0  0  0  0  0  0  0  0  0  0  # atno 8009 bound_to 7997
  155.5354  140.3459  155.4437 H   0  0  0  0  0  0  0  0  0  0  0  0  # atno 8010 bound_to 7997
  139.6224  144.0598  152.1944 H   0  0  0  0  0  0  0  0  0  0  0  0  # atno 10167 bound_to 10162
  156.0360  130.4353  150.2455 H   0  0  0  0  0  0  0  0  0  0  0  0  # atno 10718 bound_to 10713
  154.8430  135.4426  154.1471 H   0  0  0  0  0  0  0  0  0  0  0  0  # atno 10763 bound_to 10752
  153.2641  135.6939  153.7554 H   0  0  0  0  0  0  0  0  0  0  0  0  # atno 10764 bound_to 10752
  153.6819  135.3401  155.3156 H   0  0  0  0  0  0  0  0  0  0  0  0  # atno 10765 bound_to 10752
  139.9191  134.9635  156.7830 H   0  0  0  0  0  0  0  0  0  0  0  0  # atno 11005 bound_to 11000
  146.3375  139.8884  142.8813 LP  0  0  0  0  0  0  0  0  0  0  0  0  # atno 17320 bound_to 7965
  145.2592  141.0071  143.3836 LP  0  0  0  0  0  0  0  0  0  0  0  0  # atno 17321 bound_to 7965
  140.0243  144.6129  150.7540 LP  0  0  0  0  0  0  0  0  0  0  0  0  # atno 17342 bound_to 10162
  140.7390  143.2786  151.3667 LP  0  0  0  0  0  0  0  0  0  0  0  0  # atno 17343 bound_to 10162
  157.0554  131.0074  151.3240 LP  0  0  0  0  0  0  0  0  0  0  0  0  # atno 17370 bound_to 10713
  157.5110  130.7938  149.7705 LP  0  0  0  0  0  0  0  0  0  0  0  0  # atno 17371 bound_to 10713
  140.6529  133.9715  155.7764 LP  0  0  0  0  0  0  0  0  0  0  0  0  # atno 17394 bound_to 11000
  141.0696  134.0225  157.3545 LP  0  0  0  0  0  0  0  0  0  0  0  0  # atno 17395 bound_to 11000

$$$$
