AV-unprocessed.smi:3125|AV-procd|sdf|11908|dock8
  -GOLD-   2272017293D 1   1.00000     0.00000
 Structure written by MMmdl.
 28 29  0  0  0  0  0  0  0  0  2 V2000
  152.1905  139.2001  155.0017 C   0  0  0  0  0  0  0  0  0  0  0  0
  151.4532  140.0994  155.8685 N   0  0  0  0  0  0  0  0  0  0  0  0
  151.8865  140.5671  157.1024 C   0  0  0  0  0  0  0  0  0  0  0  0
  150.8979  141.3901  157.5831 C   0  0  0  0  0  0  0  0  0  0  0  0
  149.8562  141.4409  156.6644 N   0  0  0  0  0  0  0  0  0  0  0  0
  150.2382  140.6493  155.6653 C   0  0  0  0  0  0  0  0  0  0  0  0
  149.4079  140.4120  154.4343 C   0  0  2  0  0  0  0  0  0  0  0  0
  148.0247  141.0835  154.5368 C   0  0  0  0  0  0  0  0  0  0  0  0
  147.1920  140.8008  153.2769 C   0  0  0  0  0  0  0  0  0  0  0  0
  147.0974  139.2896  153.0097 C   0  0  0  0  0  0  0  0  0  0  0  0
  148.4467  138.6924  152.9076 N   0  3  0  0  0  0  0  0  0  0  0  0
  149.2663  138.9080  154.1206 C   0  0  0  0  0  0  0  0  0  0  0  0
  153.1587  138.9609  155.4428 H   0  0  0  0  0  0  0  0  0  0  0  0
  152.3542  139.6718  154.0324 H   0  0  0  0  0  0  0  0  0  0  0  0
  151.6289  138.2757  154.8650 H   0  0  0  0  0  0  0  0  0  0  0  0
  152.8395  140.2846  157.5257 H   0  0  0  0  0  0  0  0  0  0  0  0
  150.8567  141.9442  158.5092 H   0  0  0  0  0  0  0  0  0  0  0  0
  149.9185  140.8628  153.5835 H   0  0  0  0  0  0  0  0  0  0  0  0
  147.4923  140.7109  155.4131 H   0  0  0  0  0  0  0  0  0  0  0  0
  148.1372  142.1596  154.6747 H   0  0  0  0  0  0  0  0  0  0  0  0
  146.1929  141.2234  153.3876 H   0  0  0  0  0  0  0  0  0  0  0  0
  147.6446  141.2981  152.4179 H   0  0  0  0  0  0  0  0  0  0  0  0
  146.5450  138.7956  153.8106 H   0  0  0  0  0  0  0  0  0  0  0  0
  146.5530  139.1021  152.0839 H   0  0  0  0  0  0  0  0  0  0  0  0
  148.3547  137.6995  152.7465 H   0  0  0  0  0  0  0  0  0  0  0  0
  150.2478  138.4589  153.9665 H   0  0  0  0  0  0  0  0  0  0  0  0
  148.8028  138.3814  154.9564 H   0  0  0  0  0  0  0  0  0  0  0  0
  148.9230  139.1075  152.1196 H   0  0  0  0  0  0  0  0  0  0  0  0
  1  2  1  0  0  0  0
  1 13  1  0  0  0  0
  1 14  1  0  0  0  0
  1 15  1  0  0  0  0
  2  6  1  0  0  0  0
  2  3  1  0  0  0  0
  3  4  2  0  0  0  0
  3 16  1  0  0  0  0
  4  5  1  0  0  0  0
  4 17  1  0  0  0  0
  5  6  2  0  0  0  0
  6  7  1  0  0  0  0
  7 12  1  0  0  0  0
  7  8  1  0  0  0  0
  7 18  1  0  0  0  0
  8  9  1  0  0  0  0
  8 19  1  0  0  0  0
  8 20  1  0  0  0  0
  9 10  1  0  0  0  0
  9 21  1  0  0  0  0
  9 22  1  0  0  0  0
 10 11  1  0  0  0  0
 10 23  1  0  0  0  0
 10 24  1  0  0  0  0
 11 12  1  0  0  0  0
 11 25  1  0  0  0  0
 11 28  1  0  0  0  0
 12 26  1  0  0  0  0
 12 27  1  0  0  0  0
M  CHG  1  11   1
M  END
> <s_m_source_file>
AV-unprocessed.smi

> <i_m_source_file_index>
3125

> <i_lp_mmshare_version>
43012

> <i_f3d_flags>
0

> <s_epik_input>
W0NIM11uMVtjSF1bY0hdbmMxW0NAQEhdMltDSDJdW0NIMl1bQ0gyXVtOSF1bQ0gyXTI=

> <s_epik_cmdline>
J2VwaWtfcHl0aG9uJywgJy1waCcsICc3LjAnLCAnLXRuJywgJzgnLCAnLW1hJywgJzIwMCcsICctbWV0YWxfYmluZGluZycsICctaW1hZScsICc8aW5maWxlLm1hZT4nLCAnLW9tYWUnLCAnPG91dGZpbGUubWFlPic=

> <r_lp_tautomer_probability>
1

> <r_epik_Ionization_Penalty>
0.177191

> <r_epik_Ionization_Penalty_Charging>
0.177191

> <r_epik_Ionization_Penalty_Neutral>
7.05152e-14

> <r_epik_State_Penalty>
0.46716

> <r_epik_Charging_Adjusted_Penalty>
0.644351

> <i_epik_Tot_Q>
1

> <i_epik_Tot_abs_Q>
1

> <r_epik_Metal_State_Penalty>
0.000708398

> <b_epik_Metal_Only>
0

> <s_lp_Force_Field>
OPLS_2005

> <r_lp_Energy>
12.4076

> <b_lp_Chiralities_Consistent>
1

> <s_lp_Variant>
AV-unprocessed.smi:3125-3

> <Gold.Version>
5.8.1

> <Gold.Id.Protein>
6NUR|6NUR_protein|mol2

> <Gold.PLP.Fitness>
35.2769

> <Gold.PLP.PLP>
-27.2301

> <Gold.PLP.part.hbond>
-1.8290

> <Gold.PLP.part.metal>
0.0000

> <Gold.PLP.part.buried>
-1.1506

> <Gold.PLP.part.nonpolar>
-23.7026

> <Gold.PLP.part.repulsive>
0.1552

> <Gold.PLP.ligand.clash>
0.0000

> <Gold.PLP.ligand.torsion>
0.1143

> <Gold.PLP.Chemscore.Hbond>
2.7498

> <Gold.PLP.Chemscore.CHOScore>
0.0000

> <Gold.PLP.Chemscore.Metal>
0.0000

> <Gold.Chemscore.Hbonds>
donor molecule, donor type, donor heavy atom, donor atom, acceptor molecule, acceptor atom, score
      L1  H    11    25       P1  7948  1.86
      L1  H    11    28       P1  7957  0.89

> <Gold.PLP.Chemscore.Internal.Correction>
0.0262

> <Gold.Rescore>
     Score         DG    S(hbond)    S(metal)    S(lipo)     H(rot)  DE(clash)    DE(int)     intcor
     15.53     -15.60       1.95        0.00      52.88       1.00       0.02       0.06       ----

> <Gold.Chemscore.Fitness>
15.5273

> <Gold.Chemscore.DG>
-15.6036

> <Gold.Chemscore.ZeroCoef>
-5.4800

> <Gold.Chemscore.Hbond>
1.9452

> <Gold.Chemscore.Metal>
0.0000

> <Gold.Chemscore.Lipo>
52.8769

> <Gold.Chemscore.Internal_Hbond>
0.0000

> <Gold.Chemscore.DEClash>
0.0199

> <Gold.Chemscore.DEInternal>
0.0564

> <Gold.Chemscore.Rot>
1.0000

> <Gold.Chemscore.Internal.Correction>
   9.000000E+99

> <Gold.Chemscore.Hbonds>
donor molecule, donor type, donor heavy atom, donor atom, acceptor molecule, acceptor atom, score
      L1  H    11    25       P1  7948  0.90
      L1  H    11    28       P1  7957  0.84

> <Gold.Chemscore.Hbond.Weighted>
-6.4970

> <Gold.Chemscore.Metal.Weighted>
-0.0000

> <Gold.Chemscore.Lipo.Weighted>
-6.1866

> <Gold.Chemscore.Internal_Hbond.Weighted>
0.0000

> <Gold.Chemscore.DEClash.Weighted>
0.0199

> <Gold.Chemscore.DEInternal.Weighted>
0.0564

> <Gold.Chemscore.Rot.Weighted>
2.5600

> <Gold.Chemscore.Internal.Correction.Weighted>
   9.000000E+99

> <Gold.Protein.RotatedTorsions>
[ 6907 6896 6895 6894 ] final  -34.77 input  -60.11 | X-H torsion
[ 7974 7965 7964 7962 ] final  -32.23 input  175.53 | X-H torsion
[ 8008 7997 7996 7995 ] final   -5.89 input   59.86 | X-H torsion
[ 10167 10162 10161 10158 ] final -158.37 input  -65.29 | X-H torsion
[ 10718 10713 10712 10709 ] final  157.63 input   66.30 | X-H torsion
[ 10763 10752 10751 10750 ] final  -84.34 input  -60.55 | X-H torsion
[ 11005 11000 10999 10996 ] final  -53.45 input  -57.11 | X-H torsion

> <Gold.Protein.ActiveResidues>
 VAL166  LYS551  ARG553  GLY616  TRP617  ASP618  TYR619  PRO620  LYS621  CYS622 
 ASP623  PHE694  ASN695  SER759  ASP760  ASP761  ALA762  ILE779  LEU786  VAL792 
 PHE793  MET794  SER795  GLU796  ALA797  LYS798  CYS799  TRP800  GLU811  SER814 

> <Gold.Protein.RotatedAtoms>
  151.0484  134.9656  159.8198 H   0  0  0  0  0  0  0  0  0  0  0  0  # atno 6907 bound_to 6896
  152.5376  134.2569  159.8930 H   0  0  0  0  0  0  0  0  0  0  0  0  # atno 6908 bound_to 6896
  151.2584  133.4272  159.2648 H   0  0  0  0  0  0  0  0  0  0  0  0  # atno 6909 bound_to 6896
  146.1006  140.5767  142.8823 H   0  0  0  0  0  0  0  0  0  0  0  0  # atno 7974 bound_to 7965
  154.5992  140.2447  155.7815 H   0  0  0  0  0  0  0  0  0  0  0  0  # atno 8008 bound_to 7997
  156.2300  140.2970  156.0116 H   0  0  0  0  0  0  0  0  0  0  0  0  # atno 8009 bound_to 7997
  155.2239  140.0401  157.2943 H   0  0  0  0  0  0  0  0  0  0  0  0  # atno 8010 bound_to 7997
  139.6697  143.9767  152.2276 H   0  0  0  0  0  0  0  0  0  0  0  0  # atno 10167 bound_to 10162
  157.1889  131.0650  151.2090 H   0  0  0  0  0  0  0  0  0  0  0  0  # atno 10718 bound_to 10713
  154.5984  135.5524  153.7349 H   0  0  0  0  0  0  0  0  0  0  0  0  # atno 10763 bound_to 10752
  153.0144  135.6360  154.1750 H   0  0  0  0  0  0  0  0  0  0  0  0  # atno 10764 bound_to 10752
  154.1690  135.2893  155.3066 H   0  0  0  0  0  0  0  0  0  0  0  0  # atno 10765 bound_to 10752
  141.0976  133.6622  156.4173 H   0  0  0  0  0  0  0  0  0  0  0  0  # atno 11005 bound_to 11000
  144.7430  140.4992  143.6856 LP  0  0  0  0  0  0  0  0  0  0  0  0  # atno 17320 bound_to 7965
  145.5862  139.1492  143.3208 LP  0  0  0  0  0  0  0  0  0  0  0  0  # atno 17321 bound_to 7965
  139.9528  144.6609  150.8155 LP  0  0  0  0  0  0  0  0  0  0  0  0  # atno 17342 bound_to 10162
  140.7613  143.3171  151.2707 LP  0  0  0  0  0  0  0  0  0  0  0  0  # atno 17343 bound_to 10162
  157.3880  130.7266  149.6677 LP  0  0  0  0  0  0  0  0  0  0  0  0  # atno 17370 bound_to 10713
  155.9714  130.4154  150.4181 LP  0  0  0  0  0  0  0  0  0  0  0  0  # atno 17371 bound_to 10713
  140.5101  134.6403  157.5281 LP  0  0  0  0  0  0  0  0  0  0  0  0  # atno 17394 bound_to 11000
  139.9818  134.7126  155.9846 LP  0  0  0  0  0  0  0  0  0  0  0  0  # atno 17395 bound_to 11000

$$$$
