AV-unprocessed.smi:1699|AV-procd|sdf|6815|dock8
  -GOLD-   22720 7593D 1   1.00000     0.00000
 Structure written by MMmdl.
 37 38  0  0  0  0  0  0  0  0  1 V2000
  149.9414  144.7891  159.4621 C   0  0  0  0  0  0  0  0  0  0  0  0
  151.0038  143.7022  159.4898 C   0  0  0  0  0  0  0  0  0  0  0  0
  152.0343  143.7692  160.4516 C   0  0  0  0  0  0  0  0  0  0  0  0
  153.0149  142.7630  160.4770 C   0  0  0  0  0  0  0  0  0  0  0  0
  152.9235  141.7264  159.5325 C   0  0  0  0  0  0  0  0  0  0  0  0
  151.9432  141.6551  158.6094 N   0  0  0  0  0  0  0  0  0  0  0  0
  150.9878  142.6179  158.5717 C   0  0  0  0  0  0  0  0  0  0  0  0
  149.9214  142.6057  157.6286 N   0  0  0  0  0  0  0  0  0  0  0  0
  149.4981  141.5909  156.8546 C   0  0  0  0  0  0  0  0  0  0  0  0
  150.0013  140.4681  156.8129 O   0  0  0  0  0  0  0  0  0  0  0  0
  148.4384  141.9582  156.1191 N   0  0  0  0  0  0  0  0  0  0  0  0
  147.7101  141.1074  155.1795 C   0  0  2  0  0  0  0  0  0  0  0  0
  148.1855  141.4101  153.7505 C   0  0  0  0  0  0  0  0  0  0  0  0
  146.1933  141.3249  155.3440 C   0  0  2  0  0  0  0  0  0  0  0  0
  145.6658  142.6222  154.7253 C   0  0  0  0  0  0  0  0  0  0  0  0
  144.4191  142.8684  155.5422 C   0  0  0  0  0  0  0  0  0  0  0  0
  144.8718  142.4334  156.9317 C   0  0  0  0  0  0  0  0  0  0  0  0
  145.8439  141.4118  156.7245 O   0  0  0  0  0  0  0  0  0  0  0  0
  150.1028  145.5230  160.2524 H   0  0  0  0  0  0  0  0  0  0  0  0
  148.9496  144.3587  159.6033 H   0  0  0  0  0  0  0  0  0  0  0  0
  149.9597  145.3149  158.5070 H   0  0  0  0  0  0  0  0  0  0  0  0
  152.0755  144.5807  161.1633 H   0  0  0  0  0  0  0  0  0  0  0  0
  153.8158  142.7850  161.2013 H   0  0  0  0  0  0  0  0  0  0  0  0
  153.6560  140.9330  159.5170 H   0  0  0  0  0  0  0  0  0  0  0  0
  149.4127  143.4729  157.5432 H   0  0  0  0  0  0  0  0  0  0  0  0
  148.0998  142.9035  156.2217 H   0  0  0  0  0  0  0  0  0  0  0  0
  147.9187  140.0565  155.3876 H   0  0  0  0  0  0  0  0  0  0  0  0
  147.6757  140.7773  153.0237 H   0  0  0  0  0  0  0  0  0  0  0  0
  149.2559  141.2297  153.6465 H   0  0  0  0  0  0  0  0  0  0  0  0
  147.9934  142.4487  153.4790 H   0  0  0  0  0  0  0  0  0  0  0  0
  145.6440  140.4832  154.9184 H   0  0  0  0  0  0  0  0  0  0  0  0
  146.3757  143.4372  154.8751 H   0  0  0  0  0  0  0  0  0  0  0  0
  145.4658  142.5352  153.6570 H   0  0  0  0  0  0  0  0  0  0  0  0
  144.0792  143.9039  155.5085 H   0  0  0  0  0  0  0  0  0  0  0  0
  143.6085  142.2284  155.1909 H   0  0  0  0  0  0  0  0  0  0  0  0
  145.3497  143.2632  157.4537 H   0  0  0  0  0  0  0  0  0  0  0  0
  144.0439  142.0786  157.5460 H   0  0  0  0  0  0  0  0  0  0  0  0
  1  2  1  0  0  0  0
  1 19  1  0  0  0  0
  1 20  1  0  0  0  0
  1 21  1  0  0  0  0
  2  7  1  0  0  0  0
  2  3  2  0  0  0  0
  3  4  1  0  0  0  0
  3 22  1  0  0  0  0
  4  5  2  0  0  0  0
  4 23  1  0  0  0  0
  5  6  1  0  0  0  0
  5 24  1  0  0  0  0
  6  7  2  0  0  0  0
  7  8  1  0  0  0  0
  8  9  1  0  0  0  0
  8 25  1  0  0  0  0
  9 10  2  0  0  0  0
  9 11  1  0  0  0  0
 11 12  1  0  0  0  0
 11 26  1  0  0  0  0
 12 13  1  0  0  0  0
 12 14  1  0  0  0  0
 12 27  1  0  0  0  0
 13 28  1  0  0  0  0
 13 29  1  0  0  0  0
 13 30  1  0  0  0  0
 14 18  1  0  0  0  0
 14 15  1  0  0  0  0
 14 31  1  0  0  0  0
 15 16  1  0  0  0  0
 15 32  1  0  0  0  0
 15 33  1  0  0  0  0
 16 17  1  0  0  0  0
 16 34  1  0  0  0  0
 16 35  1  0  0  0  0
 17 18  1  0  0  0  0
 17 36  1  0  0  0  0
 17 37  1  0  0  0  0
M  END
> <s_m_source_file>
AV-unprocessed.smi

> <i_m_source_file_index>
1699

> <i_lp_mmshare_version>
43012

> <i_f3d_flags>
0

> <s_epik_input>
W0NIM11jMVtjSF1bY0hdW2NIXW5jMVtOSF1DKD1PKVtOSF1bQ0BIXShbQ0gzXSlbQ0BASF0yW0NIMl1bQ0gyXVtDSDJdTzI=

> <s_epik_cmdline>
J2VwaWtfcHl0aG9uJywgJy1waCcsICc3LjAnLCAnLXRuJywgJzgnLCAnLW1hJywgJzIwMCcsICctbWV0YWxfYmluZGluZycsICctaW1hZScsICc8aW5maWxlLm1hZT4nLCAnLW9tYWUnLCAnPG91dGZpbGUubWFlPic=

> <r_lp_tautomer_probability>
1

> <r_epik_Ionization_Penalty>
5.52788e-05

> <r_epik_Ionization_Penalty_Charging>
0

> <r_epik_Ionization_Penalty_Neutral>
5.52788e-05

> <r_epik_State_Penalty>
-0

> <r_epik_Charging_Adjusted_Penalty>
0

> <i_epik_Tot_Q>
0

> <i_epik_Tot_abs_Q>
0

> <r_epik_Metal_State_Penalty>
-0

> <b_epik_Metal_Only>
0

> <s_lp_Force_Field>
OPLS_2005

> <r_lp_Energy>
20.4349

> <b_lp_Chiralities_Consistent>
1

> <s_lp_Variant>
AV-unprocessed.smi:1699-1

> <Gold.Version>
5.8.1

> <Gold.Id.Protein>
6NUR|6NUR_protein|mol2

> <Gold.PLP.Fitness>
40.7027

> <Gold.PLP.PLP>
-35.9539

> <Gold.PLP.part.hbond>
-2.0000

> <Gold.PLP.part.metal>
0.0000

> <Gold.PLP.part.buried>
-4.4444

> <Gold.PLP.part.nonpolar>
-29.7567

> <Gold.PLP.part.repulsive>
0.2320

> <Gold.PLP.ligand.clash>
0.0000

> <Gold.PLP.ligand.torsion>
0.5715

> <Gold.PLP.Chemscore.Hbond>
1.9600

> <Gold.PLP.Chemscore.CHOScore>
0.0000

> <Gold.PLP.Chemscore.Metal>
0.0000

> <Gold.Chemscore.Hbonds>
donor molecule, donor type, donor heavy atom, donor atom, acceptor molecule, acceptor atom, score
      L1  H     8    25       P1  8028  0.20
      L1  H    11    26       P1  8028  0.66

> <Gold.PLP.Chemscore.Internal.Correction>
0.0118

> <Gold.Rescore>
     Score         DG    S(hbond)    S(metal)    S(lipo)     H(rot)  DE(clash)    DE(int)     intcor
     17.22     -18.00       1.93        0.00      78.52       1.22       0.05       0.74       ----

> <Gold.Chemscore.Fitness>
17.2174

> <Gold.Chemscore.DG>
-18.0008

> <Gold.Chemscore.ZeroCoef>
-5.4800

> <Gold.Chemscore.Hbond>
1.9334

> <Gold.Chemscore.Metal>
0.0000

> <Gold.Chemscore.Lipo>
78.5175

> <Gold.Chemscore.Internal_Hbond>
0.0000

> <Gold.Chemscore.DEClash>
0.0451

> <Gold.Chemscore.DEInternal>
0.7384

> <Gold.Chemscore.Rot>
1.2200

> <Gold.Chemscore.Internal.Correction>
   9.000000E+99

> <Gold.Chemscore.Hbonds>
donor molecule, donor type, donor heavy atom, donor atom, acceptor molecule, acceptor atom, score
      L1  H     8    25       P1  8028  0.12
      L1  H    11    26       P1  8028  0.39

> <Gold.Chemscore.Hbond.Weighted>
-6.4574

> <Gold.Chemscore.Metal.Weighted>
-0.0000

> <Gold.Chemscore.Lipo.Weighted>
-9.1866

> <Gold.Chemscore.Internal_Hbond.Weighted>
0.0000

> <Gold.Chemscore.DEClash.Weighted>
0.0451

> <Gold.Chemscore.DEInternal.Weighted>
0.7384

> <Gold.Chemscore.Rot.Weighted>
3.1232

> <Gold.Chemscore.Internal.Correction.Weighted>
   9.000000E+99

> <Gold.Protein.RotatedTorsions>
[ 6907 6896 6895 6894 ] final -172.94 input  -60.11 | X-H torsion
[ 7974 7965 7964 7962 ] final  -20.39 input  175.53 | X-H torsion
[ 8008 7997 7996 7995 ] final   -6.20 input   59.86 | X-H torsion
[ 10167 10162 10161 10158 ] final -139.28 input  -65.29 | X-H torsion
[ 10718 10713 10712 10709 ] final   31.81 input   66.30 | X-H torsion
[ 10763 10752 10751 10750 ] final   94.08 input  -60.55 | X-H torsion
[ 11005 11000 10999 10996 ] final   43.14 input  -57.11 | X-H torsion

> <Gold.Protein.ActiveResidues>
 VAL166  LYS551  ARG553  GLY616  TRP617  ASP618  TYR619  PRO620  LYS621  CYS622 
 ASP623  PHE694  ASN695  SER759  ASP760  ASP761  ALA762  ILE779  LEU786  VAL792 
 PHE793  MET794  SER795  GLU796  ALA797  LYS798  CYS799  TRP800  GLU811  SER814 

> <Gold.Protein.RotatedAtoms>
  151.5480  133.3422  159.2947 H   0  0  0  0  0  0  0  0  0  0  0  0  # atno 6907 bound_to 6896
  150.8495  134.7818  159.7009 H   0  0  0  0  0  0  0  0  0  0  0  0  # atno 6908 bound_to 6896
  152.4545  134.5330  159.9868 H   0  0  0  0  0  0  0  0  0  0  0  0  # atno 6909 bound_to 6896
  146.1791  140.4195  142.8502 H   0  0  0  0  0  0  0  0  0  0  0  0  # atno 7974 bound_to 7965
  154.5962  140.2439  155.7854 H   0  0  0  0  0  0  0  0  0  0  0  0  # atno 8008 bound_to 7997
  156.2280  140.2976  156.0070 H   0  0  0  0  0  0  0  0  0  0  0  0  # atno 8009 bound_to 7997
  155.2289  140.0403  157.2950 H   0  0  0  0  0  0  0  0  0  0  0  0  # atno 8010 bound_to 7997
  139.8395  143.7340  152.2663 H   0  0  0  0  0  0  0  0  0  0  0  0  # atno 10167 bound_to 10162
  157.2772  130.7237  149.6536 H   0  0  0  0  0  0  0  0  0  0  0  0  # atno 10718 bound_to 10713
  153.2375  135.4302  155.0662 H   0  0  0  0  0  0  0  0  0  0  0  0  # atno 10763 bound_to 10752
  154.8325  135.3394  154.6697 H   0  0  0  0  0  0  0  0  0  0  0  0  # atno 10764 bound_to 10752
  153.7122  135.7022  153.5091 H   0  0  0  0  0  0  0  0  0  0  0  0  # atno 10765 bound_to 10752
  140.1673  134.4266  155.8279 H   0  0  0  0  0  0  0  0  0  0  0  0  # atno 11005 bound_to 11000
  144.8284  140.6667  143.6307 LP  0  0  0  0  0  0  0  0  0  0  0  0  # atno 17320 bound_to 7965
  145.4129  139.1577  143.4116 LP  0  0  0  0  0  0  0  0  0  0  0  0  # atno 17321 bound_to 7965
  139.7573  144.7517  151.0416 LP  0  0  0  0  0  0  0  0  0  0  0  0  # atno 17342 bound_to 10162
  140.7799  143.4791  151.0042 LP  0  0  0  0  0  0  0  0  0  0  0  0  # atno 17343 bound_to 10162
  155.9664  130.4349  150.5070 LP  0  0  0  0  0  0  0  0  0  0  0  0  # atno 17370 bound_to 10713
  157.3006  131.0644  151.2071 LP  0  0  0  0  0  0  0  0  0  0  0  0  # atno 17371 bound_to 10713
  141.2214  133.6940  156.7700 LP  0  0  0  0  0  0  0  0  0  0  0  0  # atno 17394 bound_to 11000
  140.2419  134.8607  157.3582 LP  0  0  0  0  0  0  0  0  0  0  0  0  # atno 17395 bound_to 11000

$$$$
