AV-unprocessed.smi:229|AV-procd|sdf|1748|dock2
  -GOLD-   2262020263D 1   1.00000     0.00000
 Structure written by MMmdl.
 58 62  0  0  0  0  0  0  0  0  1 V2000
  154.9287  140.7853  160.7552 C   0  0  0  0  0  0  0  0  0  0  0  0
  153.5010  141.3335  160.8714 C   0  0  0  0  0  0  0  0  0  0  0  0
  152.9154  141.7650  159.5187 C   0  0  1  0  0  0  0  0  0  0  0  0
  152.2224  140.5978  158.7960 C   0  0  0  0  0  0  0  0  0  0  0  0
  151.5802  141.0781  157.5774 N   0  0  0  0  0  0  0  0  0  0  0  0
  151.1706  140.1605  156.6659 C   0  0  0  0  0  0  0  0  0  0  0  0
  150.6493  140.5666  155.4768 N   0  0  0  0  0  0  0  0  0  0  0  0
  150.2545  139.6676  154.5703 C   0  0  0  0  0  0  0  0  0  0  0  0
  150.2865  138.3359  154.6472 N   0  0  0  0  0  0  0  0  0  0  0  0
  150.7999  137.9222  155.8406 C   0  0  0  0  0  0  0  0  0  0  0  0
  151.2629  138.7587  156.8954 C   0  0  0  0  0  0  0  0  0  0  0  0
  151.7085  137.9781  157.9561 N   0  0  0  0  0  0  0  0  0  0  0  0
  151.5284  136.7515  157.5479 C   0  0  0  0  0  0  0  0  0  0  0  0
  150.9882  136.6268  156.2885 N   0  0  0  0  0  0  0  0  0  0  0  0
  150.6870  135.3875  155.5933 C   0  0  0  0  0  0  0  0  0  0  0  0
  149.3851  134.7351  156.0976 C   0  0  2  0  0  0  0  0  0  0  0  0
  149.3761  134.6626  157.5114 O   0  0  0  0  0  0  0  0  0  0  0  0
  149.1338  133.3424  155.4835 C   0  0  2  0  0  0  0  0  0  0  0  0
  149.2220  133.2591  153.9496 C   0  0  0  0  0  0  0  0  0  0  0  0
  147.8511  132.7532  153.5381 C   0  0  0  0  0  0  0  0  0  0  0  0
  147.3744  132.0266  154.7890 C   0  0  0  0  0  0  0  0  0  0  0  0
  147.8422  132.8562  155.8391 O   0  0  0  0  0  0  0  0  0  0  0  0
  150.6297  142.1551  157.8274 C   0  0  0  0  0  0  0  0  0  0  0  0
  151.3034  143.3155  158.5895 C   0  0  1  0  0  0  0  0  0  0  0  0
  152.2207  144.1804  157.7301 C   0  0  0  0  0  0  0  0  0  0  0  0
  152.2304  145.4930  158.4981 C   0  0  0  0  0  0  0  0  0  0  0  0
  150.8860  145.6426  158.9273 O   0  0  0  0  0  0  0  0  0  0  0  0
  150.2880  144.3577  159.0860 C   0  0  0  0  0  0  0  0  0  0  0  0
  151.9652  142.8057  159.7534 O   0  0  0  0  0  0  0  0  0  0  0  0
  155.3056  140.4754  161.7300 H   0  0  0  0  0  0  0  0  0  0  0  0
  155.6111  141.5380  160.3596 H   0  0  0  0  0  0  0  0  0  0  0  0
  154.9655  139.9194  160.0938 H   0  0  0  0  0  0  0  0  0  0  0  0
  152.8653  140.5636  161.3105 H   0  0  0  0  0  0  0  0  0  0  0  0
  153.4880  142.1750  161.5652 H   0  0  0  0  0  0  0  0  0  0  0  0
  153.7317  142.1335  158.8982 H   0  0  0  0  0  0  0  0  0  0  0  0
  152.9562  139.8269  158.5557 H   0  0  0  0  0  0  0  0  0  0  0  0
  151.4725  140.1436  159.4455 H   0  0  0  0  0  0  0  0  0  0  0  0
  149.8567  140.0733  153.6518 H   0  0  0  0  0  0  0  0  0  0  0  0
  151.7868  135.8979  158.1578 H   0  0  0  0  0  0  0  0  0  0  0  0
  150.6106  135.6044  154.5272 H   0  0  0  0  0  0  0  0  0  0  0  0
  151.5310  134.7066  155.7115 H   0  0  0  0  0  0  0  0  0  0  0  0
  148.5493  135.3773  155.8172 H   0  0  0  0  0  0  0  0  0  0  0  0
  149.8831  135.3837  157.8519 H   0  0  0  0  0  0  0  0  0  0  0  0
  149.8586  132.6433  155.9036 H   0  0  0  0  0  0  0  0  0  0  0  0
  149.4660  134.2076  153.4707 H   0  0  0  0  0  0  0  0  0  0  0  0
  149.9905  132.5408  153.6616 H   0  0  0  0  0  0  0  0  0  0  0  0
  147.1926  133.5970  153.3284 H   0  0  0  0  0  0  0  0  0  0  0  0
  147.8770  132.1133  152.6559 H   0  0  0  0  0  0  0  0  0  0  0  0
  146.2914  131.9074  154.8218 H   0  0  0  0  0  0  0  0  0  0  0  0
  147.8349  131.0405  154.8683 H   0  0  0  0  0  0  0  0  0  0  0  0
  150.1867  142.5256  156.9032 H   0  0  0  0  0  0  0  0  0  0  0  0
  149.8094  141.7520  158.4234 H   0  0  0  0  0  0  0  0  0  0  0  0
  153.2183  143.7764  157.5680 H   0  0  0  0  0  0  0  0  0  0  0  0
  151.7724  144.3410  156.7485 H   0  0  0  0  0  0  0  0  0  0  0  0
  152.8828  145.4253  159.3700 H   0  0  0  0  0  0  0  0  0  0  0  0
  152.5542  146.3376  157.8900 H   0  0  0  0  0  0  0  0  0  0  0  0
  149.3780  144.3409  158.4851 H   0  0  0  0  0  0  0  0  0  0  0  0
  149.9977  144.1885  160.1237 H   0  0  0  0  0  0  0  0  0  0  0  0
  1  2  1  0  0  0  0
  1 30  1  0  0  0  0
  1 31  1  0  0  0  0
  1 32  1  0  0  0  0
  2  3  1  0  0  0  0
  2 33  1  0  0  0  0
  2 34  1  0  0  0  0
  3 29  1  0  0  0  0
  3  4  1  0  0  0  0
  3 35  1  0  0  0  0
  4  5  1  0  0  0  0
  4 36  1  0  0  0  0
  4 37  1  0  0  0  0
  5  6  1  0  0  0  0
  5 23  1  0  0  0  0
  6 11  1  0  0  0  0
  6  7  2  0  0  0  0
  7  8  1  0  0  0  0
  8  9  2  0  0  0  0
  8 38  1  0  0  0  0
  9 10  1  0  0  0  0
 10 14  1  0  0  0  0
 10 11  2  0  0  0  0
 11 12  1  0  0  0  0
 12 13  2  0  0  0  0
 13 14  1  0  0  0  0
 13 39  1  0  0  0  0
 14 15  1  0  0  0  0
 15 16  1  0  0  0  0
 15 40  1  0  0  0  0
 15 41  1  0  0  0  0
 16 17  1  0  0  0  0
 16 18  1  0  0  0  0
 16 42  1  0  0  0  0
 17 43  1  0  0  0  0
 18 22  1  0  0  0  0
 18 19  1  0  0  0  0
 18 44  1  0  0  0  0
 19 20  1  0  0  0  0
 19 45  1  0  0  0  0
 19 46  1  0  0  0  0
 20 21  1  0  0  0  0
 20 47  1  0  0  0  0
 20 48  1  0  0  0  0
 21 22  1  0  0  0  0
 21 49  1  0  0  0  0
 21 50  1  0  0  0  0
 23 24  1  0  0  0  0
 23 51  1  0  0  0  0
 23 52  1  0  0  0  0
 24 28  1  0  0  0  0
 24 25  1  0  0  0  0
 24 29  1  0  0  0  0
 25 26  1  0  0  0  0
 25 53  1  0  0  0  0
 25 54  1  0  0  0  0
 26 27  1  0  0  0  0
 26 55  1  0  0  0  0
 26 56  1  0  0  0  0
 27 28  1  0  0  0  0
 28 57  1  0  0  0  0
 28 58  1  0  0  0  0
M  END
> <s_m_source_file>
AV-unprocessed.smi

> <i_m_source_file_index>
229

> <i_lp_mmshare_version>
43012

> <i_f3d_flags>
0

> <s_epik_input>
W0NIMl0xT1tDSDJdW0NIMl1bQ0BdMTJbQ0gyXU4oW0NIMl1bQ0BIXShPMilbQ0gyXVtDSDNdKWMobltjSF1uMyljKGMzNCluW2NIXW40W0NIMl1bQ0BIXShbT0hdKVtDQEBIXTVbQ0gyXVtDSDJdW0NIMl1PNQ==

> <s_epik_cmdline>
J2VwaWtfcHl0aG9uJywgJy1waCcsICc3LjAnLCAnLXRuJywgJzgnLCAnLW1hJywgJzIwMCcsICctbWV0YWxfYmluZGluZycsICctaW1hZScsICc8aW5maWxlLm1hZT4nLCAnLW9tYWUnLCAnPG91dGZpbGUubWFlPic=

> <r_lp_tautomer_probability>
1

> <r_epik_Ionization_Penalty>
0.00318402

> <r_epik_Ionization_Penalty_Charging>
0

> <r_epik_Ionization_Penalty_Neutral>
0.00318402

> <r_epik_State_Penalty>
0.00215642

> <r_epik_Charging_Adjusted_Penalty>
0.00215642

> <i_epik_Tot_Q>
0

> <i_epik_Tot_abs_Q>
0

> <r_epik_Metal_State_Penalty>
-0

> <b_epik_Metal_Only>
0

> <s_lp_Force_Field>
OPLS_2005

> <r_lp_Energy>
56.2374

> <b_lp_Chiralities_Consistent>
1

> <s_lp_Variant>
AV-unprocessed.smi:229-2

> <Gold.Version>
5.8.1

> <Gold.Id.Protein>
6NUR|6NUR_protein|mol2

> <Gold.PLP.Fitness>
48.4852

> <Gold.PLP.PLP>
-46.7736

> <Gold.PLP.part.hbond>
-1.0977

> <Gold.PLP.part.metal>
0.0000

> <Gold.PLP.part.buried>
-6.9668

> <Gold.PLP.part.nonpolar>
-39.1844

> <Gold.PLP.part.repulsive>
0.4307

> <Gold.PLP.ligand.clash>
0.0164

> <Gold.PLP.ligand.torsion>
0.8187

> <Gold.PLP.Chemscore.Hbond>
0.0000

> <Gold.PLP.Chemscore.CHOScore>
1.0000

> <Gold.PLP.Chemscore.Metal>
0.0000

> <Gold.Chemscore.Hbonds>
donor molecule, donor type, donor heavy atom, donor atom, acceptor molecule, acceptor atom, score
      L1  C     8    38       P1  7957  1.00

> <Gold.PLP.Chemscore.Internal.Correction>
0.3654

> <Gold.Rescore>
     Score         DG    S(hbond)    S(metal)    S(lipo)     H(rot)  DE(clash)    DE(int)     intcor
      9.37     -12.94       0.00        0.00     117.57       2.46       0.06       3.51       ----

> <Gold.Chemscore.Fitness>
9.3696

> <Gold.Chemscore.DG>
-12.9403

> <Gold.Chemscore.ZeroCoef>
-5.4800

> <Gold.Chemscore.Hbond>
0.0000

> <Gold.Chemscore.Metal>
0.0000

> <Gold.Chemscore.Lipo>
117.5696

> <Gold.Chemscore.Internal_Hbond>
0.0000

> <Gold.Chemscore.DEClash>
0.0581

> <Gold.Chemscore.DEInternal>
3.5126

> <Gold.Chemscore.Rot>
2.4591

> <Gold.Chemscore.Internal.Correction>
   9.000000E+99

> <Gold.Chemscore.Hbond.Weighted>
-0.0000

> <Gold.Chemscore.Metal.Weighted>
-0.0000

> <Gold.Chemscore.Lipo.Weighted>
-13.7556

> <Gold.Chemscore.Internal_Hbond.Weighted>
0.0000

> <Gold.Chemscore.DEClash.Weighted>
0.0581

> <Gold.Chemscore.DEInternal.Weighted>
3.5126

> <Gold.Chemscore.Rot.Weighted>
6.2953

> <Gold.Chemscore.Internal.Correction.Weighted>
   9.000000E+99

> <Gold.Protein.RotatedTorsions>
[ 6907 6896 6895 6894 ] final   26.09 input  -60.11 | X-H torsion
[ 7974 7965 7964 7962 ] final  -86.06 input  175.53 | X-H torsion
[ 8008 7997 7996 7995 ] final   36.64 input   59.86 | X-H torsion
[ 10167 10162 10161 10158 ] final -104.38 input  -65.29 | X-H torsion
[ 10718 10713 10712 10709 ] final   66.93 input   66.30 | X-H torsion
[ 10763 10752 10751 10750 ] final   77.36 input  -60.55 | X-H torsion
[ 11005 11000 10999 10996 ] final  111.34 input  -57.11 | X-H torsion

> <Gold.Protein.ActiveResidues>
 VAL166  LYS551  ARG553  GLY616  TRP617  ASP618  TYR619  PRO620  LYS621  CYS622 
 ASP623  PHE694  ASN695  SER759  ASP760  ASP761  ALA762  ILE779  LEU786  VAL792 
 PHE793  MET794  SER795  GLU796  ALA797  LYS798  CYS799  TRP800  GLU811  SER814 

> <Gold.Protein.RotatedAtoms>
  151.9823  135.0022  160.0557 H   0  0  0  0  0  0  0  0  0  0  0  0  # atno 6907 bound_to 6896
  152.1685  133.4623  159.4905 H   0  0  0  0  0  0  0  0  0  0  0  0  # atno 6908 bound_to 6896
  150.6898  134.1900  159.4324 H   0  0  0  0  0  0  0  0  0  0  0  0  # atno 6909 bound_to 6896
  145.4849  140.9555  143.1844 H   0  0  0  0  0  0  0  0  0  0  0  0  # atno 7974 bound_to 7965
  155.1907  140.3307  155.4359 H   0  0  0  0  0  0  0  0  0  0  0  0  # atno 8008 bound_to 7997
  156.2443  140.1911  156.6950 H   0  0  0  0  0  0  0  0  0  0  0  0  # atno 8009 bound_to 7997
  154.6208  140.0596  156.9598 H   0  0  0  0  0  0  0  0  0  0  0  0  # atno 8010 bound_to 7997
  140.2099  143.3754  152.1059 H   0  0  0  0  0  0  0  0  0  0  0  0  # atno 10167 bound_to 10162
  157.6199  130.9294  150.0174 H   0  0  0  0  0  0  0  0  0  0  0  0  # atno 10718 bound_to 10713
  153.0792  135.4917  154.8469 H   0  0  0  0  0  0  0  0  0  0  0  0  # atno 10763 bound_to 10752
  154.7129  135.3023  154.9172 H   0  0  0  0  0  0  0  0  0  0  0  0  # atno 10764 bound_to 10752
  153.9860  135.6784  153.4805 H   0  0  0  0  0  0  0  0  0  0  0  0  # atno 10765 bound_to 10752
  139.8901  134.9505  156.6417 H   0  0  0  0  0  0  0  0  0  0  0  0  # atno 11005 bound_to 11000
  144.7867  139.6412  143.7131 LP  0  0  0  0  0  0  0  0  0  0  0  0  # atno 17320 bound_to 7965
  146.2319  139.5829  142.9550 LP  0  0  0  0  0  0  0  0  0  0  0  0  # atno 17321 bound_to 7965
  139.5184  144.7005  151.5507 LP  0  0  0  0  0  0  0  0  0  0  0  0  # atno 17342 bound_to 10162
  140.6331  143.9038  150.6623 LP  0  0  0  0  0  0  0  0  0  0  0  0  # atno 17343 bound_to 10162
  156.1339  130.3643  149.9688 LP  0  0  0  0  0  0  0  0  0  0  0  0  # atno 17370 bound_to 10713
  156.7743  130.9198  151.3645 LP  0  0  0  0  0  0  0  0  0  0  0  0  # atno 17371 bound_to 10713
  140.7588  133.8835  155.8402 LP  0  0  0  0  0  0  0  0  0  0  0  0  # atno 17394 bound_to 11000
  140.9939  134.1241  157.4382 LP  0  0  0  0  0  0  0  0  0  0  0  0  # atno 17395 bound_to 11000

$$$$
