AV-unprocessed.smi:2997|AV-procd|sdf|11415|dock7
  -GOLD-   2272016333D 1   1.00000     0.00000
 Structure written by MMmdl.
 39 41  0  0  0  0  0  0  0  0  2 V2000
  151.9178  144.7966  160.3060 C   0  0  0  0  0  0  0  0  0  0  0  0
  151.8312  143.6273  159.3399 C   0  0  0  0  0  0  0  0  0  0  0  0
  151.0022  143.7527  158.2020 C   0  0  0  0  0  0  0  0  0  0  0  0
  150.9416  142.6651  157.3387 C   0  0  0  0  0  0  0  0  0  0  0  0
  150.2289  142.4754  156.1526 N   0  3  0  0  0  0  0  0  0  0  0  0
  150.4902  141.2331  155.6591 C   0  0  0  0  0  0  0  0  0  0  0  0
  151.3602  140.6280  156.5125 N   0  0  0  0  0  0  0  0  0  0  0  0
  151.9600  139.2884  156.4621 C   0  0  0  0  0  0  0  0  0  0  0  0
  152.2033  138.8012  155.0211 C   0  0  1  0  0  0  0  0  0  0  0  0
  153.3423  137.9606  154.9925 O   0  0  0  0  0  0  0  0  0  0  0  0
  150.9828  138.0545  154.4500 C   0  0  0  0  0  0  0  0  0  0  0  0
  150.7238  136.8013  155.1361 N   0  0  0  0  0  0  0  0  0  0  0  0
  149.6115  135.9904  155.0523 C   0  0  0  0  0  0  0  0  0  0  0  0
  149.8241  134.9230  155.8769 C   0  0  0  0  0  0  0  0  0  0  0  0
  151.1126  135.1725  156.4271 C   0  0  0  0  0  0  0  0  0  0  0  0
  151.6503  136.2955  155.9790 N   0  0  0  0  0  0  0  0  0  0  0  0
  151.6699  141.4833  157.5748 C   0  0  0  0  0  0  0  0  0  0  0  0
  152.4914  141.3426  158.6904 C   0  0  0  0  0  0  0  0  0  0  0  0
  152.5662  142.4374  159.5808 C   0  0  0  0  0  0  0  0  0  0  0  0
  153.4528  142.3129  160.8084 C   0  0  0  0  0  0  0  0  0  0  0  0
  151.3204  145.6421  159.9635 H   0  0  0  0  0  0  0  0  0  0  0  0
  152.9487  145.1370  160.4058 H   0  0  0  0  0  0  0  0  0  0  0  0
  151.5511  144.5056  161.2906 H   0  0  0  0  0  0  0  0  0  0  0  0
  150.4388  144.6547  158.0129 H   0  0  0  0  0  0  0  0  0  0  0  0
  150.0778  140.8040  154.7574 H   0  0  0  0  0  0  0  0  0  0  0  0
  152.8992  139.3262  157.0157 H   0  0  0  0  0  0  0  0  0  0  0  0
  151.3091  138.6002  157.0029 H   0  0  0  0  0  0  0  0  0  0  0  0
  152.4164  139.6627  154.3870 H   0  0  0  0  0  0  0  0  0  0  0  0
  153.8721  138.1967  154.2466 H   0  0  0  0  0  0  0  0  0  0  0  0
  150.0895  138.6775  154.5135 H   0  0  0  0  0  0  0  0  0  0  0  0
  151.1360  137.8374  153.3918 H   0  0  0  0  0  0  0  0  0  0  0  0
  148.7701  136.2382  154.4222 H   0  0  0  0  0  0  0  0  0  0  0  0
  149.1606  134.0909  156.0595 H   0  0  0  0  0  0  0  0  0  0  0  0
  151.6699  134.5743  157.1330 H   0  0  0  0  0  0  0  0  0  0  0  0
  153.0483  140.4356  158.8740 H   0  0  0  0  0  0  0  0  0  0  0  0
  153.9460  141.3412  160.8476 H   0  0  0  0  0  0  0  0  0  0  0  0
  152.8633  142.4237  161.7189 H   0  0  0  0  0  0  0  0  0  0  0  0
  154.2282  143.0791  160.8011 H   0  0  0  0  0  0  0  0  0  0  0  0
  149.6072  143.1412  155.7119 H   0  0  0  0  0  0  0  0  0  0  0  0
  1  2  1  0  0  0  0
  1 21  1  0  0  0  0
  1 22  1  0  0  0  0
  1 23  1  0  0  0  0
  2 19  1  0  0  0  0
  2  3  2  0  0  0  0
  3  4  1  0  0  0  0
  3 24  1  0  0  0  0
  4 17  2  0  0  0  0
  4  5  1  0  0  0  0
  5  6  2  0  0  0  0
  5 39  1  0  0  0  0
  6  7  1  0  0  0  0
  6 25  1  0  0  0  0
  7  8  1  0  0  0  0
  7 17  1  0  0  0  0
  8  9  1  0  0  0  0
  8 26  1  0  0  0  0
  8 27  1  0  0  0  0
  9 10  1  0  0  0  0
  9 11  1  0  0  0  0
  9 28  1  0  0  0  0
 10 29  1  0  0  0  0
 11 12  1  0  0  0  0
 11 30  1  0  0  0  0
 11 31  1  0  0  0  0
 12 16  1  0  0  0  0
 12 13  1  0  0  0  0
 13 14  2  0  0  0  0
 13 32  1  0  0  0  0
 14 15  1  0  0  0  0
 14 33  1  0  0  0  0
 15 16  2  0  0  0  0
 15 34  1  0  0  0  0
 17 18  1  0  0  0  0
 18 19  2  0  0  0  0
 18 35  1  0  0  0  0
 19 20  1  0  0  0  0
 20 36  1  0  0  0  0
 20 37  1  0  0  0  0
 20 38  1  0  0  0  0
M  CHG  1   5   1
M  END
> <s_m_source_file>
AV-unprocessed.smi

> <i_m_source_file_index>
2997

> <i_lp_mmshare_version>
43012

> <i_f3d_flags>
0

> <s_epik_input>
W0NIM11jKFtjSF0xKWMoW0NIM10pW2NIXWMoYzEyKW4oW2NIXW4yKVtDSDJdW0NASF0oW09IXSlbQ0gyXW4zW2NIXVtjSF1bY0hdbjM=

> <s_epik_cmdline>
J2VwaWtfcHl0aG9uJywgJy1waCcsICc3LjAnLCAnLXRuJywgJzgnLCAnLW1hJywgJzIwMCcsICctbWV0YWxfYmluZGluZycsICctaW1hZScsICc8aW5maWxlLm1hZT4nLCAnLW9tYWUnLCAnPG91dGZpbGUubWFlPic=

> <r_lp_tautomer_probability>
1

> <r_epik_Ionization_Penalty>
1.09215

> <r_epik_Ionization_Penalty_Charging>
1.09214

> <r_epik_Ionization_Penalty_Neutral>
1.42327e-05

> <r_epik_State_Penalty>
1.14852

> <r_epik_Charging_Adjusted_Penalty>
2.24066

> <i_epik_Tot_Q>
1

> <i_epik_Tot_abs_Q>
1

> <r_epik_Metal_State_Penalty>
1.23686

> <b_epik_Metal_Only>
0

> <s_lp_Force_Field>
OPLS_2005

> <r_lp_Energy>
12.1799

> <b_lp_Chiralities_Consistent>
1

> <s_lp_Variant>
AV-unprocessed.smi:2997-4

> <Gold.Version>
5.8.1

> <Gold.Id.Protein>
6NUR|6NUR_protein|mol2

> <Gold.PLP.Fitness>
56.4739

> <Gold.PLP.PLP>
-46.7890

> <Gold.PLP.part.hbond>
-3.0000

> <Gold.PLP.part.metal>
0.0000

> <Gold.PLP.part.buried>
-5.6085

> <Gold.PLP.part.nonpolar>
-38.7432

> <Gold.PLP.part.repulsive>
0.1452

> <Gold.PLP.ligand.clash>
0.0000

> <Gold.PLP.ligand.torsion>
0.8949

> <Gold.PLP.Chemscore.Hbond>
3.0000

> <Gold.PLP.Chemscore.CHOScore>
0.8224

> <Gold.PLP.Chemscore.Metal>
0.0000

> <Gold.Chemscore.Hbonds>
donor molecule, donor type, donor heavy atom, donor atom, acceptor molecule, acceptor atom, score
      L1  H     5    39       P1  8028  2.00
      P1  H 10752 10765       L1    16  0.94
      L1  C    13    32       P1  7948  0.77

> <Gold.PLP.Chemscore.Internal.Correction>
0.0073

> <Gold.Rescore>
     Score         DG    S(hbond)    S(metal)    S(lipo)     H(rot)  DE(clash)    DE(int)     intcor
     17.82     -19.99       1.99        0.00     115.73       2.21       0.01       2.16       ----

> <Gold.Chemscore.Fitness>
17.8162

> <Gold.Chemscore.DG>
-19.9893

> <Gold.Chemscore.ZeroCoef>
-5.4800

> <Gold.Chemscore.Hbond>
1.9860

> <Gold.Chemscore.Metal>
0.0000

> <Gold.Chemscore.Lipo>
115.7339

> <Gold.Chemscore.Internal_Hbond>
0.0000

> <Gold.Chemscore.DEClash>
0.0137

> <Gold.Chemscore.DEInternal>
2.1595

> <Gold.Chemscore.Rot>
2.2129

> <Gold.Chemscore.Internal.Correction>
   9.000000E+99

> <Gold.Chemscore.Hbonds>
donor molecule, donor type, donor heavy atom, donor atom, acceptor molecule, acceptor atom, score
      L1  H     5    39       P1  8028  0.94
      P1  H 10752 10765       L1    16  0.06

> <Gold.Chemscore.Hbond.Weighted>
-6.6333

> <Gold.Chemscore.Metal.Weighted>
-0.0000

> <Gold.Chemscore.Lipo.Weighted>
-13.5409

> <Gold.Chemscore.Internal_Hbond.Weighted>
0.0000

> <Gold.Chemscore.DEClash.Weighted>
0.0137

> <Gold.Chemscore.DEInternal.Weighted>
2.1595

> <Gold.Chemscore.Rot.Weighted>
5.6649

> <Gold.Chemscore.Internal.Correction.Weighted>
   9.000000E+99

> <Gold.Protein.RotatedTorsions>
[ 6907 6896 6895 6894 ] final  -18.22 input  -60.11 | X-H torsion
[ 7974 7965 7964 7962 ] final  -89.95 input  175.53 | X-H torsion
[ 8008 7997 7996 7995 ] final   90.56 input   59.86 | X-H torsion
[ 10167 10162 10161 10158 ] final  -12.33 input  -65.29 | X-H torsion
[ 10718 10713 10712 10709 ] final  170.35 input   66.30 | X-H torsion
[ 10763 10752 10751 10750 ] final  179.32 input  -60.55 | X-H torsion
[ 11005 11000 10999 10996 ] final   13.31 input  -57.11 | X-H torsion

> <Gold.Protein.ActiveResidues>
 VAL166  LYS551  ARG553  GLY616  TRP617  ASP618  TYR619  PRO620  LYS621  CYS622 
 ASP623  PHE694  ASN695  SER759  ASP760  ASP761  ALA762  ILE779  LEU786  VAL792 
 PHE793  MET794  SER795  GLU796  ALA797  LYS798  CYS799  TRP800  GLU811  SER814 

> <Gold.Protein.RotatedAtoms>
  151.2814  135.0715  159.9170 H   0  0  0  0  0  0  0  0  0  0  0  0  # atno 6907 bound_to 6896
  152.5333  134.0027  159.7912 H   0  0  0  0  0  0  0  0  0  0  0  0  # atno 6908 bound_to 6896
  151.0281  133.5764  159.2694 H   0  0  0  0  0  0  0  0  0  0  0  0  # atno 6909 bound_to 6896
  145.4329  140.9556  143.2118 H   0  0  0  0  0  0  0  0  0  0  0  0  # atno 7974 bound_to 7965
  156.0134  140.3348  155.6964 H   0  0  0  0  0  0  0  0  0  0  0  0  # atno 8008 bound_to 7997
  155.6126  140.0667  157.2719 H   0  0  0  0  0  0  0  0  0  0  0  0  # atno 8009 bound_to 7997
  154.4289  140.1791  156.1276 H   0  0  0  0  0  0  0  0  0  0  0  0  # atno 8010 bound_to 7997
  140.7159  143.5543  150.9265 H   0  0  0  0  0  0  0  0  0  0  0  0  # atno 10167 bound_to 10162
  157.0093  131.0199  151.2808 H   0  0  0  0  0  0  0  0  0  0  0  0  # atno 10718 bound_to 10713
  154.5191  135.2793  155.1277 H   0  0  0  0  0  0  0  0  0  0  0  0  # atno 10763 bound_to 10752
  154.2842  135.6279  153.5363 H   0  0  0  0  0  0  0  0  0  0  0  0  # atno 10764 bound_to 10752
  152.9933  135.5658  154.5676 H   0  0  0  0  0  0  0  0  0  0  0  0  # atno 10765 bound_to 10752
  140.4821  134.0925  155.7753 H   0  0  0  0  0  0  0  0  0  0  0  0  # atno 11005 bound_to 11000
  144.8171  139.5858  143.7003 LP  0  0  0  0  0  0  0  0  0  0  0  0  # atno 17320 bound_to 7965
  146.2597  139.6383  142.9370 LP  0  0  0  0  0  0  0  0  0  0  0  0  # atno 17321 bound_to 7965
  139.9268  143.6540  152.3085 LP  0  0  0  0  0  0  0  0  0  0  0  0  # atno 17342 bound_to 10162
  139.6977  144.7639  151.1328 LP  0  0  0  0  0  0  0  0  0  0  0  0  # atno 17343 bound_to 10162
  157.5332  130.8072  149.7941 LP  0  0  0  0  0  0  0  0  0  0  0  0  # atno 17370 bound_to 10713
  156.0142  130.3820  150.2165 LP  0  0  0  0  0  0  0  0  0  0  0  0  # atno 17371 bound_to 10713
  141.1526  133.8941  157.2060 LP  0  0  0  0  0  0  0  0  0  0  0  0  # atno 17394 bound_to 11000
  139.9820  135.0095  156.9772 LP  0  0  0  0  0  0  0  0  0  0  0  0  # atno 17395 bound_to 11000

$$$$
