AV-unprocessed.smi:1496|AV-procd|sdf|6056|dock10
  -GOLD-   22720 6173D 1   1.00000     0.00000
 Structure written by MMmdl.
 43 44  0  0  0  0  0  0  0  0  2 V2000
  147.6658  137.8950  154.1891 C   0  0  0  0  0  0  0  0  0  0  0  0
  148.6592  137.9792  155.3680 C   0  0  0  0  0  0  0  0  0  0  0  0
  147.9063  138.4426  156.6257 C   0  0  0  0  0  0  0  0  0  0  0  0
  149.3530  136.6237  155.6418 C   0  0  0  0  0  0  0  0  0  0  0  0
  150.3100  136.2699  154.5655 N   0  3  2  0  0  0  0  0  0  0  0  0
  150.9262  134.9362  154.7767 C   0  0  0  0  0  0  0  0  0  0  0  0
  149.9203  133.7833  154.5937 C   0  0  0  0  0  0  0  0  0  0  0  0
  148.9499  134.0853  153.5478 N   0  0  0  0  0  0  0  0  0  0  0  0
  147.8938  133.3195  153.2387 C   0  0  0  0  0  0  0  0  0  0  0  0
  147.6304  132.2700  153.8246 O   0  0  0  0  0  0  0  0  0  0  0  0
  147.1842  133.8555  152.2305 N   0  0  0  0  0  0  0  0  0  0  0  0
  146.0190  133.3574  151.5838 C   0  0  0  0  0  0  0  0  0  0  0  0
  145.1079  134.1450  150.8374 C   0  0  0  0  0  0  0  0  0  0  0  0
  143.9856  133.5219  150.2584 C   0  0  0  0  0  0  0  0  0  0  0  0
  143.8102  132.1380  150.4490 C   0  0  0  0  0  0  0  0  0  0  0  0
  144.6643  131.3763  151.1641 N   0  0  0  0  0  0  0  0  0  0  0  0
  145.7382  131.9805  151.7159 C   0  0  0  0  0  0  0  0  0  0  0  0
  151.2976  137.3594  154.3805 C   0  0  0  0  0  0  0  0  0  0  0  0
  150.5789  138.6848  154.0909 C   0  0  0  0  0  0  0  0  0  0  0  0
  149.6540  138.9792  155.1333 O   0  0  0  0  0  0  0  0  0  0  0  0
  146.8412  137.2204  154.4216 H   0  0  0  0  0  0  0  0  0  0  0  0
  148.1302  137.5236  153.2762 H   0  0  0  0  0  0  0  0  0  0  0  0
  147.2367  138.8726  153.9673 H   0  0  0  0  0  0  0  0  0  0  0  0
  147.1294  137.7313  156.9084 H   0  0  0  0  0  0  0  0  0  0  0  0
  147.4273  139.4093  156.4663 H   0  0  0  0  0  0  0  0  0  0  0  0
  148.5813  138.5494  157.4755 H   0  0  0  0  0  0  0  0  0  0  0  0
  149.8954  136.6643  156.5882 H   0  0  0  0  0  0  0  0  0  0  0  0
  148.6015  135.8397  155.7456 H   0  0  0  0  0  0  0  0  0  0  0  0
  151.7814  134.8131  154.1102 H   0  0  0  0  0  0  0  0  0  0  0  0
  151.3196  134.8917  155.7934 H   0  0  0  0  0  0  0  0  0  0  0  0
  150.4414  132.8525  154.3627 H   0  0  0  0  0  0  0  0  0  0  0  0
  149.3602  133.6067  155.5111 H   0  0  0  0  0  0  0  0  0  0  0  0
  149.0937  134.9345  153.0205 H   0  0  0  0  0  0  0  0  0  0  0  0
  147.5072  134.7509  151.8943 H   0  0  0  0  0  0  0  0  0  0  0  0
  145.2330  135.2069  150.7011 H   0  0  0  0  0  0  0  0  0  0  0  0
  143.2730  134.0939  149.6828 H   0  0  0  0  0  0  0  0  0  0  0  0
  142.9592  131.6305  150.0191 H   0  0  0  0  0  0  0  0  0  0  0  0
  146.3974  131.3394  152.2830 H   0  0  0  0  0  0  0  0  0  0  0  0
  151.9114  137.4548  155.2776 H   0  0  0  0  0  0  0  0  0  0  0  0
  151.9715  137.1342  153.5550 H   0  0  0  0  0  0  0  0  0  0  0  0
  151.3051  139.4958  154.0347 H   0  0  0  0  0  0  0  0  0  0  0  0
  150.0775  138.6546  153.1236 H   0  0  0  0  0  0  0  0  0  0  0  0
  149.7695  136.2076  153.7143 H   0  0  0  0  0  0  0  0  0  0  0  0
  1  2  1  0  0  0  0
  1 21  1  0  0  0  0
  1 22  1  0  0  0  0
  1 23  1  0  0  0  0
  2 20  1  0  0  0  0
  2  3  1  0  0  0  0
  2  4  1  0  0  0  0
  3 24  1  0  0  0  0
  3 25  1  0  0  0  0
  3 26  1  0  0  0  0
  4  5  1  0  0  0  0
  4 27  1  0  0  0  0
  4 28  1  0  0  0  0
  5  6  1  0  0  0  0
  5 18  1  0  0  0  0
  5 43  1  0  0  0  0
  6  7  1  0  0  0  0
  6 29  1  0  0  0  0
  6 30  1  0  0  0  0
  7  8  1  0  0  0  0
  7 31  1  0  0  0  0
  7 32  1  0  0  0  0
  8  9  1  0  0  0  0
  8 33  1  0  0  0  0
  9 10  2  0  0  0  0
  9 11  1  0  0  0  0
 11 12  1  0  0  0  0
 11 34  1  0  0  0  0
 12 17  1  0  0  0  0
 12 13  2  0  0  0  0
 13 14  1  0  0  0  0
 13 35  1  0  0  0  0
 14 15  2  0  0  0  0
 14 36  1  0  0  0  0
 15 16  1  0  0  0  0
 15 37  1  0  0  0  0
 16 17  2  0  0  0  0
 17 38  1  0  0  0  0
 18 19  1  0  0  0  0
 18 39  1  0  0  0  0
 18 40  1  0  0  0  0
 19 20  1  0  0  0  0
 19 41  1  0  0  0  0
 19 42  1  0  0  0  0
M  CHG  1   5   1
M  END
> <s_m_source_file>
AV-unprocessed.smi

> <i_m_source_file_index>
1496

> <i_lp_mmshare_version>
43012

> <i_f3d_flags>
0

> <s_epik_input>
W0NIM11DMShbQ0gzXSlbQ0gyXU4oW0NIMl1bQ0gyXU8xKVtDSDJdW0NIMl1bTkhdQyg9TylbTkhdYzJbY0hdW2NIXVtjSF1uW2NIXTI=

> <s_epik_cmdline>
J2VwaWtfcHl0aG9uJywgJy1waCcsICc3LjAnLCAnLXRuJywgJzgnLCAnLW1hJywgJzIwMCcsICctbWV0YWxfYmluZGluZycsICctaW1hZScsICc8aW5maWxlLm1hZT4nLCAnLW9tYWUnLCAnPG91dGZpbGUubWFlPic=

> <r_epik_Ionization_Penalty>
0.606681

> <r_epik_Ionization_Penalty_Charging>
0.602531

> <r_epik_Ionization_Penalty_Neutral>
0.00415082

> <r_epik_State_Penalty>
0.607427

> <r_epik_Charging_Adjusted_Penalty>
1.20996

> <i_epik_Tot_Q>
1

> <i_epik_Tot_abs_Q>
1

> <r_epik_Metal_State_Penalty>
0.604583

> <b_epik_Metal_Only>
0

> <s_lp_Force_Field>
OPLS_2005

> <r_lp_Energy>
20.8776

> <b_lp_Chiralities_Consistent>
1

> <s_lp_Variant>
AV-unprocessed.smi:1496-2

> <Gold.Version>
5.8.1

> <Gold.Id.Protein>
6NUR|6NUR_protein|mol2

> <Gold.PLP.Fitness>
43.4707

> <Gold.PLP.PLP>
-29.4807

> <Gold.PLP.part.hbond>
-3.0000

> <Gold.PLP.part.metal>
0.0000

> <Gold.PLP.part.buried>
-4.0380

> <Gold.PLP.part.nonpolar>
-22.8198

> <Gold.PLP.part.repulsive>
0.3616

> <Gold.PLP.ligand.clash>
0.0000

> <Gold.PLP.ligand.torsion>
0.3231

> <Gold.PLP.Chemscore.Hbond>
3.9920

> <Gold.PLP.Chemscore.CHOScore>
0.8822

> <Gold.PLP.Chemscore.Metal>
0.0000

> <Gold.Chemscore.Hbonds>
donor molecule, donor type, donor heavy atom, donor atom, acceptor molecule, acceptor atom, score
      L1  H     5    43       P1  7948  2.00
      L1  H     8    33       P1  7948  0.65
      L1  H    11    34       P1  7948  0.99
      L1  C    15    37       P1 10952  0.99

> <Gold.PLP.Chemscore.Internal.Correction>
0.0136

> <Gold.Rescore>
     Score         DG    S(hbond)    S(metal)    S(lipo)     H(rot)  DE(clash)    DE(int)     intcor
     15.80     -17.51       2.32        0.00      69.56       1.50       0.05       1.66       ----

> <Gold.Chemscore.Fitness>
15.7963

> <Gold.Chemscore.DG>
-17.5085

> <Gold.Chemscore.ZeroCoef>
-5.4800

> <Gold.Chemscore.Hbond>
2.3152

> <Gold.Chemscore.Metal>
0.0000

> <Gold.Chemscore.Lipo>
69.5568

> <Gold.Chemscore.Internal_Hbond>
0.0000

> <Gold.Chemscore.DEClash>
0.0476

> <Gold.Chemscore.DEInternal>
1.6646

> <Gold.Chemscore.Rot>
1.5010

> <Gold.Chemscore.Internal.Correction>
   9.000000E+99

> <Gold.Chemscore.Hbonds>
donor molecule, donor type, donor heavy atom, donor atom, acceptor molecule, acceptor atom, score
      L1  H     5    43       P1  7948  0.29
      L1  H     8    33       P1  7948  0.06
      L1  H    11    34       P1  7948  0.58

> <Gold.Chemscore.Hbond.Weighted>
-7.7329

> <Gold.Chemscore.Metal.Weighted>
-0.0000

> <Gold.Chemscore.Lipo.Weighted>
-8.1382

> <Gold.Chemscore.Internal_Hbond.Weighted>
0.0000

> <Gold.Chemscore.DEClash.Weighted>
0.0476

> <Gold.Chemscore.DEInternal.Weighted>
1.6646

> <Gold.Chemscore.Rot.Weighted>
3.8426

> <Gold.Chemscore.Internal.Correction.Weighted>
   9.000000E+99

> <Gold.Protein.RotatedTorsions>
[ 6907 6896 6895 6894 ] final  167.68 input  -60.11 | X-H torsion
[ 7974 7965 7964 7962 ] final    6.45 input  175.53 | X-H torsion
[ 8008 7997 7996 7995 ] final  100.50 input   59.86 | X-H torsion
[ 10167 10162 10161 10158 ] final  105.00 input  -65.29 | X-H torsion
[ 10718 10713 10712 10709 ] final   11.11 input   66.30 | X-H torsion
[ 10763 10752 10751 10750 ] final -119.80 input  -60.55 | X-H torsion
[ 11005 11000 10999 10996 ] final    6.20 input  -57.11 | X-H torsion

> <Gold.Protein.ActiveResidues>
 VAL166  LYS551  ARG553  GLY616  TRP617  ASP618  TYR619  PRO620  LYS621  CYS622 
 ASP623  PHE694  ASN695  SER759  ASP760  ASP761  ALA762  ILE779  LEU786  VAL792 
 PHE793  MET794  SER795  GLU796  ALA797  LYS798  CYS799  TRP800  GLU811  SER814 

> <Gold.Protein.RotatedAtoms>
  151.8595  133.3454  159.3698 H   0  0  0  0  0  0  0  0  0  0  0  0  # atno 6907 bound_to 6896
  150.7183  134.5220  159.5668 H   0  0  0  0  0  0  0  0  0  0  0  0  # atno 6908 bound_to 6896
  152.2731  134.7912  160.0461 H   0  0  0  0  0  0  0  0  0  0  0  0  # atno 6909 bound_to 6896
  146.2434  140.0232  142.8396 H   0  0  0  0  0  0  0  0  0  0  0  0  # atno 7974 bound_to 7965
  156.1209  140.3212  155.8207 H   0  0  0  0  0  0  0  0  0  0  0  0  # atno 8008 bound_to 7997
  155.4505  140.0532  157.3018 H   0  0  0  0  0  0  0  0  0  0  0  0  # atno 8009 bound_to 7997
  154.4827  140.2060  155.9740 H   0  0  0  0  0  0  0  0  0  0  0  0  # atno 8010 bound_to 7997
  139.7129  144.7074  151.0997 H   0  0  0  0  0  0  0  0  0  0  0  0  # atno 10167 bound_to 10162
  156.9908  130.6042  149.5686 H   0  0  0  0  0  0  0  0  0  0  0  0  # atno 10718 bound_to 10713
  154.8627  135.4225  154.2357 H   0  0  0  0  0  0  0  0  0  0  0  0  # atno 10763 bound_to 10752
  153.3332  135.6989  153.6935 H   0  0  0  0  0  0  0  0  0  0  0  0  # atno 10764 bound_to 10752
  153.5943  135.3549  155.2895 H   0  0  0  0  0  0  0  0  0  0  0  0  # atno 10765 bound_to 10752
  140.5621  134.0182  155.7976 H   0  0  0  0  0  0  0  0  0  0  0  0  # atno 11005 bound_to 11000
  145.1222  140.9469  143.4593 LP  0  0  0  0  0  0  0  0  0  0  0  0  # atno 17320 bound_to 7965
  145.0470  139.3213  143.5948 LP  0  0  0  0  0  0  0  0  0  0  0  0  # atno 17321 bound_to 7965
  140.7737  143.5269  150.9470 LP  0  0  0  0  0  0  0  0  0  0  0  0  # atno 17342 bound_to 10162
  139.8954  143.6902  152.3139 LP  0  0  0  0  0  0  0  0  0  0  0  0  # atno 17343 bound_to 10162
  156.0208  130.5302  150.8269 LP  0  0  0  0  0  0  0  0  0  0  0  0  # atno 17370 bound_to 10713
  157.5460  131.0942  150.9762 LP  0  0  0  0  0  0  0  0  0  0  0  0  # atno 17371 bound_to 10713
  141.1108  133.9620  157.2914 LP  0  0  0  0  0  0  0  0  0  0  0  0  # atno 17394 bound_to 11000
  139.9402  135.0192  156.8685 LP  0  0  0  0  0  0  0  0  0  0  0  0  # atno 17395 bound_to 11000

$$$$
