AV-unprocessed.smi:193|AV-procd|sdf|1506|dock8
  -GOLD-   2262019333D 1   1.00000     0.00000
 Structure written by MMmdl.
 62 66  0  0  0  0  0  0  0  0  2 V2000
  153.2898  137.6913  160.2845 C   0  0  0  0  0  0  0  0  0  0  0  0
  151.9945  138.1457  159.5946 C   0  0  2  0  0  0  0  0  0  0  0  0
  151.0524  136.9499  159.3521 C   0  0  0  0  0  0  0  0  0  0  0  0
  149.6478  137.3565  159.3615 N   0  0  0  0  0  0  0  0  0  0  0  0
  148.8241  136.3483  159.7149 C   0  0  0  0  0  0  0  0  0  0  0  0
  148.8996  135.1992  159.0008 N   0  0  0  0  0  0  0  0  0  0  0  0
  148.0983  134.1733  159.3057 C   0  0  0  0  0  0  0  0  0  0  0  0
  147.1726  134.0927  160.2647 N   0  0  0  0  0  0  0  0  0  0  0  0
  147.0979  135.2498  160.9834 C   0  0  0  0  0  0  0  0  0  0  0  0
  147.8797  136.4199  160.7762 C   0  0  0  0  0  0  0  0  0  0  0  0
  147.5248  137.4005  161.6945 N   0  0  0  0  0  0  0  0  0  0  0  0
  146.5890  136.8382  162.4102 C   0  0  0  0  0  0  0  0  0  0  0  0
  146.2739  135.5455  162.0551 N   0  0  0  0  0  0  0  0  0  0  0  0
  145.2768  134.6902  162.6802 C   0  0  0  0  0  0  0  0  0  0  0  0
  143.8164  135.0702  162.3320 C   0  0  0  0  0  0  0  0  0  0  0  0
  143.6527  134.9160  160.9323 O   0  0  0  0  0  0  0  0  0  0  0  0
  142.8313  134.1220  163.0446 C   0  0  0  0  0  0  0  0  0  0  0  0
  141.3678  134.5651  162.8698 C   0  0  0  0  0  0  0  0  0  0  0  0
  141.2092  135.9054  163.3183 O   0  0  0  0  0  0  0  0  0  0  0  0
  141.9747  136.8330  162.5590 C   0  0  0  0  0  0  0  0  0  0  0  0
  143.4761  136.5295  162.7069 C   0  0  0  0  0  0  0  0  0  0  0  0
  149.1135  138.1530  158.2595 C   0  0  0  0  0  0  0  0  0  0  0  0
  149.9121  139.4358  157.9828 C   0  0  0  0  0  0  0  0  0  0  0  0
  151.2106  139.0991  157.3519 N   0  3  1  0  0  0  0  0  0  0  0  0
  151.5672  140.0054  156.2353 C   0  0  2  0  0  0  0  0  0  0  0  0
  150.4775  140.1552  155.1970 C   0  0  0  0  0  0  0  0  0  0  0  0
  151.7075  139.3340  154.8796 C   0  0  2  0  0  0  0  0  0  0  0  0
  151.5842  137.8363  154.6640 C   0  0  0  0  0  0  0  0  0  0  0  0
  152.3346  138.9371  158.3101 C   0  0  0  0  0  0  0  0  0  0  0  0
  153.8489  136.9919  159.6621 H   0  0  0  0  0  0  0  0  0  0  0  0
  153.0787  137.1955  161.2326 H   0  0  0  0  0  0  0  0  0  0  0  0
  153.9393  138.5404  160.4989 H   0  0  0  0  0  0  0  0  0  0  0  0
  151.5011  138.8209  160.2959 H   0  0  0  0  0  0  0  0  0  0  0  0
  151.2970  136.4470  158.4153 H   0  0  0  0  0  0  0  0  0  0  0  0
  151.2032  136.2130  160.1435 H   0  0  0  0  0  0  0  0  0  0  0  0
  148.2154  133.2908  158.6941 H   0  0  0  0  0  0  0  0  0  0  0  0
  146.1006  137.3515  163.2259 H   0  0  0  0  0  0  0  0  0  0  0  0
  145.4803  133.6593  162.3865 H   0  0  0  0  0  0  0  0  0  0  0  0
  145.4258  134.7311  163.7599 H   0  0  0  0  0  0  0  0  0  0  0  0
  144.3842  134.4196  160.5981 H   0  0  0  0  0  0  0  0  0  0  0  0
  142.9582  133.0986  162.6884 H   0  0  0  0  0  0  0  0  0  0  0  0
  143.0586  134.1032  164.1114 H   0  0  0  0  0  0  0  0  0  0  0  0
  141.0501  134.4761  161.8300 H   0  0  0  0  0  0  0  0  0  0  0  0
  140.7123  133.9206  163.4556 H   0  0  0  0  0  0  0  0  0  0  0  0
  141.6690  136.8034  161.5122 H   0  0  0  0  0  0  0  0  0  0  0  0
  141.7627  137.8395  162.9200 H   0  0  0  0  0  0  0  0  0  0  0  0
  143.7637  136.7089  163.7436 H   0  0  0  0  0  0  0  0  0  0  0  0
  144.0520  137.2321  162.1033 H   0  0  0  0  0  0  0  0  0  0  0  0
  149.0608  137.5500  157.3521 H   0  0  0  0  0  0  0  0  0  0  0  0
  148.0869  138.4300  158.5054 H   0  0  0  0  0  0  0  0  0  0  0  0
  149.3216  140.0439  157.2966 H   0  0  0  0  0  0  0  0  0  0  0  0
  150.0419  140.0442  158.8789 H   0  0  0  0  0  0  0  0  0  0  0  0
  152.1812  140.8651  156.4978 H   0  0  0  0  0  0  0  0  0  0  0  0
  149.5402  139.6240  155.3550 H   0  0  0  0  0  0  0  0  0  0  0  0
  150.3841  141.1197  154.7018 H   0  0  0  0  0  0  0  0  0  0  0  0
  152.4253  139.8001  154.2072 H   0  0  0  0  0  0  0  0  0  0  0  0
  150.8032  137.4047  155.2908 H   0  0  0  0  0  0  0  0  0  0  0  0
  152.5297  137.3441  154.8920 H   0  0  0  0  0  0  0  0  0  0  0  0
  151.3350  137.6319  153.6226 H   0  0  0  0  0  0  0  0  0  0  0  0
  152.7126  139.9209  158.5928 H   0  0  0  0  0  0  0  0  0  0  0  0
  153.1474  138.4400  157.7804 H   0  0  0  0  0  0  0  0  0  0  0  0
  151.0694  138.1931  156.9280 H   0  0  0  0  0  0  0  0  0  0  0  0
  1  2  1  0  0  0  0
  1 30  1  0  0  0  0
  1 31  1  0  0  0  0
  1 32  1  0  0  0  0
  2 29  1  0  0  0  0
  2  3  1  0  0  0  0
  2 33  1  0  0  0  0
  3  4  1  0  0  0  0
  3 34  1  0  0  0  0
  3 35  1  0  0  0  0
  4  5  1  0  0  0  0
  4 22  1  0  0  0  0
  5 10  1  0  0  0  0
  5  6  2  0  0  0  0
  6  7  1  0  0  0  0
  7  8  2  0  0  0  0
  7 36  1  0  0  0  0
  8  9  1  0  0  0  0
  9 13  1  0  0  0  0
  9 10  2  0  0  0  0
 10 11  1  0  0  0  0
 11 12  2  0  0  0  0
 12 13  1  0  0  0  0
 12 37  1  0  0  0  0
 13 14  1  0  0  0  0
 14 15  1  0  0  0  0
 14 38  1  0  0  0  0
 14 39  1  0  0  0  0
 15 21  1  0  0  0  0
 15 16  1  0  0  0  0
 15 17  1  0  0  0  0
 16 40  1  0  0  0  0
 17 18  1  0  0  0  0
 17 41  1  0  0  0  0
 17 42  1  0  0  0  0
 18 19  1  0  0  0  0
 18 43  1  0  0  0  0
 18 44  1  0  0  0  0
 19 20  1  0  0  0  0
 20 21  1  0  0  0  0
 20 45  1  0  0  0  0
 20 46  1  0  0  0  0
 21 47  1  0  0  0  0
 21 48  1  0  0  0  0
 22 23  1  0  0  0  0
 22 49  1  0  0  0  0
 22 50  1  0  0  0  0
 23 24  1  0  0  0  0
 23 51  1  0  0  0  0
 23 52  1  0  0  0  0
 24 25  1  0  0  0  0
 24 29  1  0  0  0  0
 24 62  1  0  0  0  0
 25 27  1  0  0  0  0
 25 26  1  0  0  0  0
 25 53  1  0  0  0  0
 26 27  1  0  0  0  0
 26 54  1  0  0  0  0
 26 55  1  0  0  0  0
 27 28  1  0  0  0  0
 27 56  1  0  0  0  0
 28 57  1  0  0  0  0
 28 58  1  0  0  0  0
 28 59  1  0  0  0  0
 29 60  1  0  0  0  0
 29 61  1  0  0  0  0
M  CHG  1  24   1
M  END
> <s_m_source_file>
AV-unprocessed.smi

> <i_m_source_file_index>
193

> <i_lp_mmshare_version>
43012

> <i_f3d_flags>
0

> <s_epik_input>
W0NIM11bQ0BASF0xW0NIMl1bQ0BIXTFOKFtDSDJdMilbQ0gyXVtDSDJdTihbQ0gyXVtDQEhdMltDSDNdKWMobltjSF1uMyljKGMzNCluW2NIXW40W0NIMl1DNShbT0hdKVtDSDJdW0NIMl1PW0NIMl1bQ0gyXTU=

> <s_epik_cmdline>
J2VwaWtfcHl0aG9uJywgJy1waCcsICc3LjAnLCAnLXRuJywgJzgnLCAnLW1hJywgJzIwMCcsICctbWV0YWxfYmluZGluZycsICctaW1hZScsICc8aW5maWxlLm1hZT4nLCAnLW9tYWUnLCAnPG91dGZpbGUubWFlPic=

> <r_lp_tautomer_probability>
1

> <r_epik_Ionization_Penalty>
0.0540825

> <r_epik_Ionization_Penalty_Charging>
0.0538476

> <r_epik_Ionization_Penalty_Neutral>
0.000234891

> <r_epik_State_Penalty>
0.0200719

> <r_epik_Charging_Adjusted_Penalty>
0.0739194

> <i_epik_Tot_Q>
1

> <i_epik_Tot_abs_Q>
1

> <r_epik_Metal_State_Penalty>
0.0199414

> <b_epik_Metal_Only>
0

> <s_lp_Force_Field>
OPLS_2005

> <r_lp_Energy>
59.2238

> <b_lp_Chiralities_Consistent>
1

> <s_lp_Variant>
AV-unprocessed.smi:193-11

> <Gold.Version>
5.8.1

> <Gold.Id.Protein>
6NUR|6NUR_protein|mol2

> <Gold.PLP.Fitness>
51.3150

> <Gold.PLP.PLP>
-44.6808

> <Gold.PLP.part.hbond>
-3.4352

> <Gold.PLP.part.metal>
0.0000

> <Gold.PLP.part.buried>
-0.8159

> <Gold.PLP.part.nonpolar>
-40.8280

> <Gold.PLP.part.repulsive>
0.6619

> <Gold.PLP.ligand.clash>
0.0000

> <Gold.PLP.ligand.torsion>
1.2913

> <Gold.PLP.Chemscore.Hbond>
2.5360

> <Gold.PLP.Chemscore.CHOScore>
0.0000

> <Gold.PLP.Chemscore.Metal>
0.0000

> <Gold.Chemscore.Hbonds>
donor molecule, donor type, donor heavy atom, donor atom, acceptor molecule, acceptor atom, score
      P1  H  6896  6909       L1     6  1.00
      P1  H  6931  6943       L1    11  0.85
      P1  H  6934  6947       L1    11  0.74

> <Gold.PLP.Chemscore.Internal.Correction>
1.6089

> <Gold.Rescore>
     Score         DG    S(hbond)    S(metal)    S(lipo)     H(rot)  DE(clash)    DE(int)     intcor
     13.42     -15.85       1.39        0.00      97.13       2.20       1.12       1.31       ----

> <Gold.Chemscore.Fitness>
13.4248

> <Gold.Chemscore.DG>
-15.8530

> <Gold.Chemscore.ZeroCoef>
-5.4800

> <Gold.Chemscore.Hbond>
1.3909

> <Gold.Chemscore.Metal>
0.0000

> <Gold.Chemscore.Lipo>
97.1295

> <Gold.Chemscore.Internal_Hbond>
0.0000

> <Gold.Chemscore.DEClash>
1.1166

> <Gold.Chemscore.DEInternal>
1.3115

> <Gold.Chemscore.Rot>
2.2018

> <Gold.Chemscore.Internal.Correction>
   9.000000E+99

> <Gold.Chemscore.Hbonds>
donor molecule, donor type, donor heavy atom, donor atom, acceptor molecule, acceptor atom, score
      P1  H  6896  6909       L1     6  0.10
      P1  H  6931  6943       L1    11  0.34
      P1  H  6934  6947       L1    11  0.62

> <Gold.Chemscore.Hbond.Weighted>
-4.6455

> <Gold.Chemscore.Metal.Weighted>
-0.0000

> <Gold.Chemscore.Lipo.Weighted>
-11.3642

> <Gold.Chemscore.Internal_Hbond.Weighted>
0.0000

> <Gold.Chemscore.DEClash.Weighted>
1.1166

> <Gold.Chemscore.DEInternal.Weighted>
1.3115

> <Gold.Chemscore.Rot.Weighted>
5.6366

> <Gold.Chemscore.Internal.Correction.Weighted>
   9.000000E+99

> <Gold.Protein.RotatedTorsions>
[ 6907 6896 6895 6894 ] final   48.43 input  -60.11 | X-H torsion
[ 7974 7965 7964 7962 ] final  132.58 input  175.53 | X-H torsion
[ 8008 7997 7996 7995 ] final   56.10 input   59.86 | X-H torsion
[ 10167 10162 10161 10158 ] final  -30.16 input  -65.29 | X-H torsion
[ 10718 10713 10712 10709 ] final  -53.68 input   66.30 | X-H torsion
[ 10763 10752 10751 10750 ] final -154.26 input  -60.55 | X-H torsion
[ 11005 11000 10999 10996 ] final  -71.08 input  -57.11 | X-H torsion

> <Gold.Protein.ActiveResidues>
 VAL166  LYS551  ARG553  GLY616  TRP617  ASP618  TYR619  PRO620  LYS621  CYS622 
 ASP623  PHE694  ASN695  SER759  ASP760  ASP761  ALA762  ILE779  LEU786  VAL792 
 PHE793  MET794  SER795  GLU796  ALA797  LYS798  CYS799  TRP800  GLU811  SER814 

> <Gold.Protein.RotatedAtoms>
  152.2795  134.7845  160.0399 H   0  0  0  0  0  0  0  0  0  0  0  0  # atno 6907 bound_to 6896
  151.8429  133.3421  159.3657 H   0  0  0  0  0  0  0  0  0  0  0  0  # atno 6908 bound_to 6896
  150.7184  134.5302  159.5741 H   0  0  0  0  0  0  0  0  0  0  0  0  # atno 6909 bound_to 6896
  144.9954  139.4365  143.5318 H   0  0  0  0  0  0  0  0  0  0  0  0  # atno 7974 bound_to 7965
  155.5119  140.3477  155.4390 H   0  0  0  0  0  0  0  0  0  0  0  0  # atno 8008 bound_to 7997
  156.0843  140.1394  156.9700 H   0  0  0  0  0  0  0  0  0  0  0  0  # atno 8009 bound_to 7997
  154.4598  140.0939  156.6837 H   0  0  0  0  0  0  0  0  0  0  0  0  # atno 8010 bound_to 7997
  140.7252  143.3871  151.1496 H   0  0  0  0  0  0  0  0  0  0  0  0  # atno 10167 bound_to 10162
  156.1514  130.4151  149.9938 H   0  0  0  0  0  0  0  0  0  0  0  0  # atno 10718 bound_to 10713
  154.7871  135.3194  154.7862 H   0  0  0  0  0  0  0  0  0  0  0  0  # atno 10763 bound_to 10752
  153.8559  135.6858  153.4792 H   0  0  0  0  0  0  0  0  0  0  0  0  # atno 10764 bound_to 10752
  153.1526  135.4693  154.9598 H   0  0  0  0  0  0  0  0  0  0  0  0  # atno 10765 bound_to 10752
  141.1586  133.6807  156.6851 H   0  0  0  0  0  0  0  0  0  0  0  0  # atno 11005 bound_to 11000
  146.3440  139.9310  142.8753 LP  0  0  0  0  0  0  0  0  0  0  0  0  # atno 17320 bound_to 7965
  145.2227  140.9941  143.4036 LP  0  0  0  0  0  0  0  0  0  0  0  0  # atno 17321 bound_to 7965
  139.7470  143.8837  152.3066 LP  0  0  0  0  0  0  0  0  0  0  0  0  # atno 17342 bound_to 10162
  139.8678  144.7084  150.9024 LP  0  0  0  0  0  0  0  0  0  0  0  0  # atno 17343 bound_to 10162
  156.7795  130.9216  151.3646 LP  0  0  0  0  0  0  0  0  0  0  0  0  # atno 17370 bound_to 10713
  157.6660  130.9008  149.9933 LP  0  0  0  0  0  0  0  0  0  0  0  0  # atno 17371 bound_to 10713
  140.3073  134.8115  157.4147 LP  0  0  0  0  0  0  0  0  0  0  0  0  # atno 17394 bound_to 11000
  140.1209  134.5220  155.8184 LP  0  0  0  0  0  0  0  0  0  0  0  0  # atno 17395 bound_to 11000

$$$$
