AV-unprocessed.smi:2588|AV-procd|sdf|10148|dock9
  -GOLD-   2272014163D 1   1.00000     0.00000
 Structure written by MMmdl.
 40 41  0  0  0  0  0  0  0  0  2 V2000
  144.6222  131.1938  150.9175 C   0  0  0  0  0  0  0  0  0  0  0  0
  144.1098  132.5992  150.5370 C   0  0  0  0  0  0  0  0  0  0  0  0
  143.9062  132.6436  149.0074 C   0  0  0  0  0  0  0  0  0  0  0  0
  145.0130  133.6887  151.0359 N   0  3  2  0  0  0  0  0  0  0  0  0
  145.3777  133.5329  152.4754 C   0  0  0  0  0  0  0  0  0  0  0  0
  146.3822  134.6005  152.9402 C   0  0  0  0  0  0  0  0  0  0  0  0
  145.8405  136.0138  152.6992 C   0  0  1  0  0  0  0  0  0  0  0  0
  146.8348  137.0055  153.0974 N   0  0  0  0  0  0  0  0  0  0  0  0
  146.6483  137.9547  154.0276 C   0  0  0  0  0  0  0  0  0  0  0  0
  145.5871  138.1004  154.6360 O   0  0  0  0  0  0  0  0  0  0  0  0
  147.8400  138.8871  154.2852 C   0  0  0  0  0  0  0  0  0  0  0  0
  149.0560  138.1763  154.6839 N   0  0  0  0  0  0  0  0  0  0  0  0
  148.9517  136.8633  155.0231 N   0  0  0  0  0  0  0  0  0  0  0  0
  150.0894  136.3703  155.3472 C   0  0  0  0  0  0  0  0  0  0  0  0
  151.4669  137.4773  155.2804 S   0  0  0  0  0  0  0  0  0  0  0  0
  150.3259  138.7432  154.7488 C   0  0  0  0  0  0  0  0  0  0  0  0
  150.6621  139.8991  154.4976 O   0  0  0  0  0  0  0  0  0  0  0  0
  145.4816  136.1553  151.2131 C   0  0  0  0  0  0  0  0  0  0  0  0
  144.4940  135.0633  150.7699 C   0  0  0  0  0  0  0  0  0  0  0  0
  144.0242  130.4161  150.4414 H   0  0  0  0  0  0  0  0  0  0  0  0
  144.5592  131.0019  151.9878 H   0  0  0  0  0  0  0  0  0  0  0  0
  145.6565  131.0489  150.6033 H   0  0  0  0  0  0  0  0  0  0  0  0
  143.1321  132.7348  151.0024 H   0  0  0  0  0  0  0  0  0  0  0  0
  143.3555  131.7692  148.6588 H   0  0  0  0  0  0  0  0  0  0  0  0
  144.8593  132.6619  148.4777 H   0  0  0  0  0  0  0  0  0  0  0  0
  143.3213  133.5075  148.6930 H   0  0  0  0  0  0  0  0  0  0  0  0
  144.4748  133.5771  153.0867 H   0  0  0  0  0  0  0  0  0  0  0  0
  145.8377  132.5640  152.6588 H   0  0  0  0  0  0  0  0  0  0  0  0
  146.6006  134.4605  153.9996 H   0  0  0  0  0  0  0  0  0  0  0  0
  147.3261  134.4661  152.4093 H   0  0  0  0  0  0  0  0  0  0  0  0
  144.9405  136.1478  153.3032 H   0  0  0  0  0  0  0  0  0  0  0  0
  147.7351  136.9608  152.6420 H   0  0  0  0  0  0  0  0  0  0  0  0
  148.0497  139.4654  153.3838 H   0  0  0  0  0  0  0  0  0  0  0  0
  147.5563  139.6078  155.0538 H   0  0  0  0  0  0  0  0  0  0  0  0
  150.2810  135.3430  155.6567 H   0  0  0  0  0  0  0  0  0  0  0  0
  145.0456  137.1367  151.0223 H   0  0  0  0  0  0  0  0  0  0  0  0
  146.3857  136.0965  150.6049 H   0  0  0  0  0  0  0  0  0  0  0  0
  144.3177  135.2147  149.7065 H   0  0  0  0  0  0  0  0  0  0  0  0
  143.5361  135.1952  151.2756 H   0  0  0  0  0  0  0  0  0  0  0  0
  145.8727  133.6059  150.5121 H   0  0  0  0  0  0  0  0  0  0  0  0
  1  2  1  0  0  0  0
  1 20  1  0  0  0  0
  1 21  1  0  0  0  0
  1 22  1  0  0  0  0
  2  3  1  0  0  0  0
  2  4  1  0  0  0  0
  2 23  1  0  0  0  0
  3 24  1  0  0  0  0
  3 25  1  0  0  0  0
  3 26  1  0  0  0  0
  4 19  1  0  0  0  0
  4  5  1  0  0  0  0
  4 40  1  0  0  0  0
  5  6  1  0  0  0  0
  5 27  1  0  0  0  0
  5 28  1  0  0  0  0
  6  7  1  0  0  0  0
  6 29  1  0  0  0  0
  6 30  1  0  0  0  0
  7  8  1  0  0  0  0
  7 18  1  0  0  0  0
  7 31  1  0  0  0  0
  8  9  1  0  0  0  0
  8 32  1  0  0  0  0
  9 10  2  0  0  0  0
  9 11  1  0  0  0  0
 11 12  1  0  0  0  0
 11 33  1  0  0  0  0
 11 34  1  0  0  0  0
 12 16  1  0  0  0  0
 12 13  1  0  0  0  0
 13 14  2  0  0  0  0
 14 15  1  0  0  0  0
 14 35  1  0  0  0  0
 15 16  1  0  0  0  0
 16 17  2  0  0  0  0
 18 19  1  0  0  0  0
 18 36  1  0  0  0  0
 18 37  1  0  0  0  0
 19 38  1  0  0  0  0
 19 39  1  0  0  0  0
M  CHG  1   4   1
M  END
> <s_m_source_file>
AV-unprocessed.smi

> <i_m_source_file_index>
2588

> <i_lp_mmshare_version>
43012

> <i_f3d_flags>
0

> <s_epik_input>
W0NIM11bQ0hdKFtDSDNdKU4xW0NIMl1bQ0gyXVtDSF0oW0NIMl1bQ0gyXTEpW05IXUMoPU8pW0NIMl1uMm5bY0hdc2MyPU8=

> <s_epik_cmdline>
J2VwaWtfcHl0aG9uJywgJy1waCcsICc3LjAnLCAnLXRuJywgJzgnLCAnLW1hJywgJzIwMCcsICctbWV0YWxfYmluZGluZycsICctaW1hZScsICc8aW5maWxlLm1hZT4nLCAnLW9tYWUnLCAnPG91dGZpbGUubWFlPic=

> <r_lp_tautomer_probability>
1

> <r_epik_Ionization_Penalty>
0.00923155

> <r_epik_Ionization_Penalty_Charging>
0.00923117

> <r_epik_Ionization_Penalty_Neutral>
3.88423e-07

> <r_epik_State_Penalty>
0.0069994

> <r_epik_Charging_Adjusted_Penalty>
0.0162306

> <i_epik_Tot_Q>
1

> <i_epik_Tot_abs_Q>
1

> <r_epik_Metal_State_Penalty>
0.0069994

> <b_epik_Metal_Only>
0

> <s_lp_Force_Field>
OPLS_2005

> <r_lp_Energy>
22.17

> <b_lp_Chiralities_Consistent>
1

> <s_lp_Variant>
AV-unprocessed.smi:2588-1

> <Gold.Version>
5.8.1

> <Gold.Id.Protein>
6NUR|6NUR_protein|mol2

> <Gold.PLP.Fitness>
35.8656

> <Gold.PLP.PLP>
-30.2223

> <Gold.PLP.part.hbond>
-2.0000

> <Gold.PLP.part.metal>
0.0000

> <Gold.PLP.part.buried>
-4.1513

> <Gold.PLP.part.nonpolar>
-25.0925

> <Gold.PLP.part.repulsive>
0.6766

> <Gold.PLP.ligand.clash>
0.0000

> <Gold.PLP.ligand.torsion>
0.1976

> <Gold.PLP.Chemscore.Hbond>
2.0000

> <Gold.PLP.Chemscore.CHOScore>
0.0000

> <Gold.PLP.Chemscore.Metal>
0.0000

> <Gold.Chemscore.Hbonds>
donor molecule, donor type, donor heavy atom, donor atom, acceptor molecule, acceptor atom, score
      L1  H     8    32       P1  7948  1.00
      P1  H  7989  7998       L1    17  1.00

> <Gold.PLP.Chemscore.Internal.Correction>
0.0386

> <Gold.Rescore>
     Score         DG    S(hbond)    S(metal)    S(lipo)     H(rot)  DE(clash)    DE(int)     intcor
     14.09     -15.60       1.98        0.00      71.03       1.88       0.09       1.42       ----

> <Gold.Chemscore.Fitness>
14.0926

> <Gold.Chemscore.DG>
-15.6018

> <Gold.Chemscore.ZeroCoef>
-5.4800

> <Gold.Chemscore.Hbond>
1.9800

> <Gold.Chemscore.Metal>
0.0000

> <Gold.Chemscore.Lipo>
71.0279

> <Gold.Chemscore.Internal_Hbond>
0.0000

> <Gold.Chemscore.DEClash>
0.0861

> <Gold.Chemscore.DEInternal>
1.4232

> <Gold.Chemscore.Rot>
1.8756

> <Gold.Chemscore.Internal.Correction>
   9.000000E+99

> <Gold.Chemscore.Hbonds>
donor molecule, donor type, donor heavy atom, donor atom, acceptor molecule, acceptor atom, score
      L1  H     8    32       P1  7948  0.97
      P1  H  7989  7998       L1    17  1.00

> <Gold.Chemscore.Hbond.Weighted>
-6.6131

> <Gold.Chemscore.Metal.Weighted>
-0.0000

> <Gold.Chemscore.Lipo.Weighted>
-8.3103

> <Gold.Chemscore.Internal_Hbond.Weighted>
0.0000

> <Gold.Chemscore.DEClash.Weighted>
0.0861

> <Gold.Chemscore.DEInternal.Weighted>
1.4232

> <Gold.Chemscore.Rot.Weighted>
4.8015

> <Gold.Chemscore.Internal.Correction.Weighted>
   9.000000E+99

> <Gold.Protein.RotatedTorsions>
[ 6907 6896 6895 6894 ] final  -29.00 input  -60.11 | X-H torsion
[ 7974 7965 7964 7962 ] final -148.96 input  175.53 | X-H torsion
[ 8008 7997 7996 7995 ] final  -81.19 input   59.86 | X-H torsion
[ 10167 10162 10161 10158 ] final  -27.57 input  -65.29 | X-H torsion
[ 10718 10713 10712 10709 ] final  163.21 input   66.30 | X-H torsion
[ 10763 10752 10751 10750 ] final  -33.66 input  -60.55 | X-H torsion
[ 11005 11000 10999 10996 ] final   70.63 input  -57.11 | X-H torsion

> <Gold.Protein.ActiveResidues>
 VAL166  LYS551  ARG553  GLY616  TRP617  ASP618  TYR619  PRO620  LYS621  CYS622 
 ASP623  PHE694  ASN695  SER759  ASP760  ASP761  ALA762  ILE779  LEU786  VAL792 
 PHE793  MET794  SER795  GLU796  ALA797  LYS798  CYS799  TRP800  GLU811  SER814 

> <Gold.Protein.RotatedAtoms>
  151.1252  135.0101  159.8556 H   0  0  0  0  0  0  0  0  0  0  0  0  # atno 6907 bound_to 6896
  152.5449  134.1676  159.8593 H   0  0  0  0  0  0  0  0  0  0  0  0  # atno 6908 bound_to 6896
  151.1737  133.4723  159.2627 H   0  0  0  0  0  0  0  0  0  0  0  0  # atno 6909 bound_to 6896
  144.7997  140.5127  143.5716 H   0  0  0  0  0  0  0  0  0  0  0  0  # atno 7974 bound_to 7965
  154.5958  140.0651  156.9301 H   0  0  0  0  0  0  0  0  0  0  0  0  # atno 8008 bound_to 7997
  155.2217  140.3330  155.4296 H   0  0  0  0  0  0  0  0  0  0  0  0  # atno 8009 bound_to 7997
  156.2286  140.1830  156.7284 H   0  0  0  0  0  0  0  0  0  0  0  0  # atno 8010 bound_to 7997
  140.7276  143.4082  151.1149 H   0  0  0  0  0  0  0  0  0  0  0  0  # atno 10167 bound_to 10162
  157.1117  131.0469  151.2454 H   0  0  0  0  0  0  0  0  0  0  0  0  # atno 10718 bound_to 10713
  153.8338  135.6863  153.4811 H   0  0  0  0  0  0  0  0  0  0  0  0  # atno 10763 bound_to 10752
  153.1495  135.4624  154.9613 H   0  0  0  0  0  0  0  0  0  0  0  0  # atno 10764 bound_to 10752
  154.7875  135.3290  154.7799 H   0  0  0  0  0  0  0  0  0  0  0  0  # atno 10765 bound_to 10752
  139.9587  134.7098  156.0694 H   0  0  0  0  0  0  0  0  0  0  0  0  # atno 11005 bound_to 11000
  145.5585  139.1478  143.3354 LP  0  0  0  0  0  0  0  0  0  0  0  0  # atno 17320 bound_to 7965
  146.2275  140.5721  142.8990 LP  0  0  0  0  0  0  0  0  0  0  0  0  # atno 17321 bound_to 7965
  139.7712  143.8491  152.3121 LP  0  0  0  0  0  0  0  0  0  0  0  0  # atno 17342 bound_to 10162
  139.8410  144.7210  150.9331 LP  0  0  0  0  0  0  0  0  0  0  0  0  # atno 17343 bound_to 10162
  157.4553  130.7622  149.7188 LP  0  0  0  0  0  0  0  0  0  0  0  0  # atno 17370 bound_to 10713
  155.9849  130.3988  150.3289 LP  0  0  0  0  0  0  0  0  0  0  0  0  # atno 17371 bound_to 10713
  141.1262  133.6598  156.3343 LP  0  0  0  0  0  0  0  0  0  0  0  0  # atno 17394 bound_to 11000
  140.5549  134.5991  157.5418 LP  0  0  0  0  0  0  0  0  0  0  0  0  # atno 17395 bound_to 11000

$$$$
