AV-unprocessed.smi:3143|AV-procd|sdf|11975|dock5
  -GOLD-   2272017373D 1   1.00000     0.00000
 Structure written by MMmdl.
 38 39  0  0  0  0  0  0  0  0  2 V2000
  150.0962  140.1634  156.3549 C   0  0  0  0  0  0  0  0  0  0  0  0
  150.3178  141.6180  156.7993 C   0  0  1  0  0  0  0  0  0  0  0  0
  149.0097  142.3018  156.9218 N   0  3  0  0  0  0  0  0  0  0  0  0
  148.3617  142.1748  158.2445 C   0  0  0  0  0  0  0  0  0  0  0  0
  147.0128  142.9065  158.2705 C   0  0  0  0  0  0  0  0  0  0  0  0
  146.7081  143.4157  159.5933 N   0  0  0  0  0  0  0  0  0  0  0  0
  146.5450  144.7250  159.9952 C   0  0  0  0  0  0  0  0  0  0  0  0
  146.2687  144.7067  161.3324 C   0  0  0  0  0  0  0  0  0  0  0  0
  146.2833  143.3226  161.6626 C   0  0  0  0  0  0  0  0  0  0  0  0
  146.5465  142.5525  160.6190 N   0  0  0  0  0  0  0  0  0  0  0  0
  151.0980  141.6485  158.1291 C   0  0  0  0  0  0  0  0  0  0  0  0
  151.3133  140.5854  158.7135 O   0  0  0  0  0  0  0  0  0  0  0  0
  151.5355  142.8305  158.6143 N   0  0  0  0  0  0  0  0  0  0  0  0
  152.2824  143.0361  159.8556 C   0  0  0  0  0  0  0  0  0  0  0  0
  152.3231  144.5493  160.0704 C   0  0  0  0  0  0  0  0  0  0  0  0
  152.1805  145.1274  158.6699 C   0  0  0  0  0  0  0  0  0  0  0  0
  151.3157  144.1052  157.9324 C   0  0  0  0  0  0  0  0  0  0  0  0
  151.0415  139.6331  156.2343 H   0  0  0  0  0  0  0  0  0  0  0  0
  149.5768  140.1227  155.3970 H   0  0  0  0  0  0  0  0  0  0  0  0
  149.4971  139.6097  157.0793 H   0  0  0  0  0  0  0  0  0  0  0  0
  150.8743  142.1317  156.0154 H   0  0  0  0  0  0  0  0  0  0  0  0
  149.1524  143.2855  156.7443 H   0  0  0  0  0  0  0  0  0  0  0  0
  148.2146  141.1198  158.4794 H   0  0  0  0  0  0  0  0  0  0  0  0
  149.0223  142.5854  159.0093 H   0  0  0  0  0  0  0  0  0  0  0  0
  147.0162  143.7414  157.5683 H   0  0  0  0  0  0  0  0  0  0  0  0
  146.2080  142.2364  157.9641 H   0  0  0  0  0  0  0  0  0  0  0  0
  146.6383  145.5520  159.3063 H   0  0  0  0  0  0  0  0  0  0  0  0
  146.0830  145.5532  161.9770 H   0  0  0  0  0  0  0  0  0  0  0  0
  146.1110  142.8575  162.6223 H   0  0  0  0  0  0  0  0  0  0  0  0
  151.8232  142.5339  160.7079 H   0  0  0  0  0  0  0  0  0  0  0  0
  153.2936  142.6459  159.7313 H   0  0  0  0  0  0  0  0  0  0  0  0
  151.4717  144.8563  160.6795 H   0  0  0  0  0  0  0  0  0  0  0  0
  153.2311  144.8813  160.5746 H   0  0  0  0  0  0  0  0  0  0  0  0
  151.7478  146.1283  158.6665 H   0  0  0  0  0  0  0  0  0  0  0  0
  153.1621  145.1865  158.1973 H   0  0  0  0  0  0  0  0  0  0  0  0
  151.5779  144.0570  156.8742 H   0  0  0  0  0  0  0  0  0  0  0  0
  150.2601  144.3705  158.0091 H   0  0  0  0  0  0  0  0  0  0  0  0
  148.3904  141.9323  156.2141 H   0  0  0  0  0  0  0  0  0  0  0  0
  1  2  1  0  0  0  0
  1 18  1  0  0  0  0
  1 19  1  0  0  0  0
  1 20  1  0  0  0  0
  2  3  1  0  0  0  0
  2 11  1  0  0  0  0
  2 21  1  0  0  0  0
  3  4  1  0  0  0  0
  3 22  1  0  0  0  0
  3 38  1  0  0  0  0
  4  5  1  0  0  0  0
  4 23  1  0  0  0  0
  4 24  1  0  0  0  0
  5  6  1  0  0  0  0
  5 25  1  0  0  0  0
  5 26  1  0  0  0  0
  6 10  1  0  0  0  0
  6  7  1  0  0  0  0
  7  8  2  0  0  0  0
  7 27  1  0  0  0  0
  8  9  1  0  0  0  0
  8 28  1  0  0  0  0
  9 10  2  0  0  0  0
  9 29  1  0  0  0  0
 11 12  2  0  0  0  0
 11 13  1  0  0  0  0
 13 17  1  0  0  0  0
 13 14  1  0  0  0  0
 14 15  1  0  0  0  0
 14 30  1  0  0  0  0
 14 31  1  0  0  0  0
 15 16  1  0  0  0  0
 15 32  1  0  0  0  0
 15 33  1  0  0  0  0
 16 17  1  0  0  0  0
 16 34  1  0  0  0  0
 16 35  1  0  0  0  0
 17 36  1  0  0  0  0
 17 37  1  0  0  0  0
M  CHG  1   3   1
M  END
> <s_m_source_file>
AV-unprocessed.smi

> <i_m_source_file_index>
3143

> <i_lp_mmshare_version>
43012

> <i_f3d_flags>
0

> <s_epik_input>
W0NIMl0xW0NIMl1bQ0gyXVtDSDJdTjFDKD1PKVtDQEhdKFtDSDNdKVtOSF1bQ0gyXVtDSDJdbjJbY0hdW2NIXVtjSF1uMg==

> <s_epik_cmdline>
J2VwaWtfcHl0aG9uJywgJy1waCcsICc3LjAnLCAnLXRuJywgJzgnLCAnLW1hJywgJzIwMCcsICctbWV0YWxfYmluZGluZycsICctaW1hZScsICc8aW5maWxlLm1hZT4nLCAnLW9tYWUnLCAnPG91dGZpbGUubWFlPic=

> <r_lp_tautomer_probability>
1

> <r_epik_Ionization_Penalty>
0.203171

> <r_epik_Ionization_Penalty_Charging>
0.203168

> <r_epik_Ionization_Penalty_Neutral>
2.46932e-06

> <r_epik_State_Penalty>
0.193072

> <r_epik_Charging_Adjusted_Penalty>
0.39624

> <i_epik_Tot_Q>
1

> <i_epik_Tot_abs_Q>
1

> <r_epik_Metal_State_Penalty>
0.193323

> <b_epik_Metal_Only>
0

> <s_lp_Force_Field>
OPLS_2005

> <r_lp_Energy>
30.1321

> <b_lp_Chiralities_Consistent>
1

> <s_lp_Variant>
AV-unprocessed.smi:3143-2

> <Gold.Version>
5.8.1

> <Gold.Id.Protein>
6NUR|6NUR_protein|mol2

> <Gold.PLP.Fitness>
47.9548

> <Gold.PLP.PLP>
-36.7386

> <Gold.PLP.part.hbond>
-3.0000

> <Gold.PLP.part.metal>
0.0000

> <Gold.PLP.part.buried>
-5.5050

> <Gold.PLP.part.nonpolar>
-29.0442

> <Gold.PLP.part.repulsive>
0.0055

> <Gold.PLP.ligand.clash>
0.0000

> <Gold.PLP.ligand.torsion>
0.6137

> <Gold.PLP.Chemscore.Hbond>
3.1347

> <Gold.PLP.Chemscore.CHOScore>
1.0000

> <Gold.PLP.Chemscore.Metal>
0.0000

> <Gold.Chemscore.Hbonds>
donor molecule, donor type, donor heavy atom, donor atom, acceptor molecule, acceptor atom, score
      L1  H     3    22       P1  8028  1.95
      P1  H  6933  6944       L1    10  0.17
      P1  H  6934  6946       L1    10  1.00
      L1  C     7    27       P1  8029  1.00

> <Gold.PLP.Chemscore.Internal.Correction>
0.0395

> <Gold.Rescore>
     Score         DG    S(hbond)    S(metal)    S(lipo)     H(rot)  DE(clash)    DE(int)     intcor
     16.02     -16.64       1.94        0.00      80.37       1.84       0.01       0.60       ----

> <Gold.Chemscore.Fitness>
16.0224

> <Gold.Chemscore.DG>
-16.6373

> <Gold.Chemscore.ZeroCoef>
-5.4800

> <Gold.Chemscore.Hbond>
1.9359

> <Gold.Chemscore.Metal>
0.0000

> <Gold.Chemscore.Lipo>
80.3690

> <Gold.Chemscore.Internal_Hbond>
0.0000

> <Gold.Chemscore.DEClash>
0.0103

> <Gold.Chemscore.DEInternal>
0.6046

> <Gold.Chemscore.Rot>
1.8405

> <Gold.Chemscore.Internal.Correction>
   9.000000E+99

> <Gold.Chemscore.Hbonds>
donor molecule, donor type, donor heavy atom, donor atom, acceptor molecule, acceptor atom, score
      L1  H     3    22       P1  8028  0.89
      P1  H  6934  6946       L1    10  0.96

> <Gold.Chemscore.Hbond.Weighted>
-6.4658

> <Gold.Chemscore.Metal.Weighted>
-0.0000

> <Gold.Chemscore.Lipo.Weighted>
-9.4032

> <Gold.Chemscore.Internal_Hbond.Weighted>
0.0000

> <Gold.Chemscore.DEClash.Weighted>
0.0103

> <Gold.Chemscore.DEInternal.Weighted>
0.6046

> <Gold.Chemscore.Rot.Weighted>
4.7117

> <Gold.Chemscore.Internal.Correction.Weighted>
   9.000000E+99

> <Gold.Protein.RotatedTorsions>
[ 6907 6896 6895 6894 ] final    4.89 input  -60.11 | X-H torsion
[ 7974 7965 7964 7962 ] final   13.66 input  175.53 | X-H torsion
[ 8008 7997 7996 7995 ] final -112.21 input   59.86 | X-H torsion
[ 10167 10162 10161 10158 ] final   -8.27 input  -65.29 | X-H torsion
[ 10718 10713 10712 10709 ] final  -65.49 input   66.30 | X-H torsion
[ 10763 10752 10751 10750 ] final  -55.41 input  -60.55 | X-H torsion
[ 11005 11000 10999 10996 ] final  -88.14 input  -57.11 | X-H torsion

> <Gold.Protein.ActiveResidues>
 VAL166  LYS551  ARG553  GLY616  TRP617  ASP618  TYR619  PRO620  LYS621  CYS622 
 ASP623  PHE694  ASN695  SER759  ASP760  ASP761  ALA762  ILE779  LEU786  VAL792 
 PHE793  MET794  SER795  GLU796  ALA797  LYS798  CYS799  TRP800  GLU811  SER814 

> <Gold.Protein.RotatedAtoms>
  151.6487  135.1004  160.0155 H   0  0  0  0  0  0  0  0  0  0  0  0  # atno 6907 bound_to 6896
  152.4013  133.6818  159.6327 H   0  0  0  0  0  0  0  0  0  0  0  0  # atno 6908 bound_to 6896
  150.7913  133.8703  159.3298 H   0  0  0  0  0  0  0  0  0  0  0  0  # atno 6909 bound_to 6896
  146.2324  139.9155  142.8518 H   0  0  0  0  0  0  0  0  0  0  0  0  # atno 7974 bound_to 7965
  155.0017  140.0394  157.2363 H   0  0  0  0  0  0  0  0  0  0  0  0  # atno 8008 bound_to 7997
  154.7537  140.2771  155.6248 H   0  0  0  0  0  0  0  0  0  0  0  0  # atno 8009 bound_to 7997
  156.2890  140.2642  156.2298 H   0  0  0  0  0  0  0  0  0  0  0  0  # atno 8010 bound_to 7997
  140.7054  143.5988  150.8819 H   0  0  0  0  0  0  0  0  0  0  0  0  # atno 10167 bound_to 10162
  156.0666  130.4248  150.1572 H   0  0  0  0  0  0  0  0  0  0  0  0  # atno 10718 bound_to 10713
  154.1903  135.6428  153.5058 H   0  0  0  0  0  0  0  0  0  0  0  0  # atno 10763 bound_to 10752
  153.0037  135.5427  154.6422 H   0  0  0  0  0  0  0  0  0  0  0  0  # atno 10764 bound_to 10752
  154.5809  135.2925  155.0706 H   0  0  0  0  0  0  0  0  0  0  0  0  # atno 10765 bound_to 10752
  141.1606  133.7552  156.9409 H   0  0  0  0  0  0  0  0  0  0  0  0  # atno 11005 bound_to 11000
  145.2187  140.9926  143.4058 LP  0  0  0  0  0  0  0  0  0  0  0  0  # atno 17320 bound_to 7965
  144.9628  139.3961  143.6347 LP  0  0  0  0  0  0  0  0  0  0  0  0  # atno 17321 bound_to 7965
  139.9712  143.6054  152.2973 LP  0  0  0  0  0  0  0  0  0  0  0  0  # atno 17342 bound_to 10162
  139.6642  144.7662  151.1905 LP  0  0  0  0  0  0  0  0  0  0  0  0  # atno 17343 bound_to 10162
  156.9631  130.9811  151.3475 LP  0  0  0  0  0  0  0  0  0  0  0  0  # atno 17370 bound_to 10713
  157.5712  130.8311  149.8394 LP  0  0  0  0  0  0  0  0  0  0  0  0  # atno 17371 bound_to 10713
  140.1322  134.9348  157.2353 LP  0  0  0  0  0  0  0  0  0  0  0  0  # atno 17394 bound_to 11000
  140.2939  134.3209  155.7308 LP  0  0  0  0  0  0  0  0  0  0  0  0  # atno 17395 bound_to 11000

$$$$
