AV-unprocessed.smi:527|AV-procd|sdf|2826|dock2
  -GOLD-   2262023313D 1   1.00000     0.00000
 Structure written by MMmdl.
 43 44  0  0  0  0  0  0  0  0  2 V2000
  149.4467  141.6065  156.8851 C   0  0  0  0  0  0  0  0  0  0  0  0
  150.1080  141.5382  155.4931 C   0  0  1  0  0  0  0  0  0  0  0  0
  151.4787  140.8340  155.5495 C   0  0  0  0  0  0  0  0  0  0  0  0
  151.3436  139.3170  155.7549 C   0  0  0  0  0  0  0  0  0  0  0  0
  150.4584  138.6868  154.6707 C   0  0  0  0  0  0  0  0  0  0  0  0
  149.0749  139.3662  154.5880 C   0  0  2  0  0  0  0  0  0  0  0  0
  148.3055  138.7837  153.4895 N   0  0  0  0  0  0  0  0  0  0  0  0
  147.0347  138.3619  153.5694 C   0  0  0  0  0  0  0  0  0  0  0  0
  146.2558  138.7223  154.4547 O   0  0  0  0  0  0  0  0  0  0  0  0
  146.7440  137.5095  152.5672 N   0  0  0  0  0  0  0  0  0  0  0  0
  145.5408  136.9834  152.2596 C   0  0  0  0  0  0  0  0  0  0  0  0
  144.4931  137.2128  152.8694 O   0  0  0  0  0  0  0  0  0  0  0  0
  145.5412  136.0358  151.0529 C   0  0  0  0  0  0  0  0  0  0  0  0
  144.8429  134.7702  151.3145 N   0  0  0  0  0  0  0  0  0  0  0  0
  144.5362  133.7866  150.4088 C   0  0  0  0  0  0  0  0  0  0  0  0
  143.8757  132.8068  151.1042 C   0  0  0  0  0  0  0  0  0  0  0  0
  143.8076  133.2324  152.4038 N   0  3  0  0  0  0  0  0  0  0  0  0
  144.3959  134.4264  152.5300 C   0  0  0  0  0  0  0  0  0  0  0  0
  149.2161  140.8987  154.3953 C   0  0  1  0  0  0  0  0  0  0  0  0
  147.8588  141.6151  154.2506 C   0  0  0  0  0  0  0  0  0  0  0  0
  149.1661  140.6221  157.2579 H   0  0  0  0  0  0  0  0  0  0  0  0
  148.5486  142.2234  156.8726 H   0  0  0  0  0  0  0  0  0  0  0  0
  150.1243  142.0509  157.6145 H   0  0  0  0  0  0  0  0  0  0  0  0
  150.2983  142.5707  155.1967 H   0  0  0  0  0  0  0  0  0  0  0  0
  152.0155  141.0193  154.6181 H   0  0  0  0  0  0  0  0  0  0  0  0
  152.0933  141.2642  156.3410 H   0  0  0  0  0  0  0  0  0  0  0  0
  152.3302  138.8534  155.7404 H   0  0  0  0  0  0  0  0  0  0  0  0
  150.9244  139.1082  156.7395 H   0  0  0  0  0  0  0  0  0  0  0  0
  150.9641  138.7640  153.7069 H   0  0  0  0  0  0  0  0  0  0  0  0
  150.3440  137.6210  154.8719 H   0  0  0  0  0  0  0  0  0  0  0  0
  148.5394  139.1861  155.5217 H   0  0  0  0  0  0  0  0  0  0  0  0
  148.7773  138.7094  152.6003 H   0  0  0  0  0  0  0  0  0  0  0  0
  147.5164  137.2330  151.9791 H   0  0  0  0  0  0  0  0  0  0  0  0
  145.0550  136.5195  150.2045 H   0  0  0  0  0  0  0  0  0  0  0  0
  146.5670  135.8088  150.7582 H   0  0  0  0  0  0  0  0  0  0  0  0
  144.8002  133.8568  149.3632 H   0  0  0  0  0  0  0  0  0  0  0  0
  143.4586  131.8643  150.7800 H   0  0  0  0  0  0  0  0  0  0  0  0
  144.4866  135.0010  153.4345 H   0  0  0  0  0  0  0  0  0  0  0  0
  149.7400  141.0525  153.4501 H   0  0  0  0  0  0  0  0  0  0  0  0
  147.2049  141.4122  155.0989 H   0  0  0  0  0  0  0  0  0  0  0  0
  147.3325  141.2971  153.3505 H   0  0  0  0  0  0  0  0  0  0  0  0
  147.9908  142.6952  154.1799 H   0  0  0  0  0  0  0  0  0  0  0  0
  143.3721  132.7212  153.1614 H   0  0  0  0  0  0  0  0  0  0  0  0
  1  2  1  0  0  0  0
  1 21  1  0  0  0  0
  1 22  1  0  0  0  0
  1 23  1  0  0  0  0
  2 19  1  0  0  0  0
  2  3  1  0  0  0  0
  2 24  1  0  0  0  0
  3  4  1  0  0  0  0
  3 25  1  0  0  0  0
  3 26  1  0  0  0  0
  4  5  1  0  0  0  0
  4 27  1  0  0  0  0
  4 28  1  0  0  0  0
  5  6  1  0  0  0  0
  5 29  1  0  0  0  0
  5 30  1  0  0  0  0
  6  7  1  0  0  0  0
  6 19  1  0  0  0  0
  6 31  1  0  0  0  0
  7  8  1  0  0  0  0
  7 32  1  0  0  0  0
  8  9  2  0  0  0  0
  8 10  1  0  0  0  0
 10 11  1  0  0  0  0
 10 33  1  0  0  0  0
 11 12  2  0  0  0  0
 11 13  1  0  0  0  0
 13 14  1  0  0  0  0
 13 34  1  0  0  0  0
 13 35  1  0  0  0  0
 14 18  1  0  0  0  0
 14 15  1  0  0  0  0
 15 16  2  0  0  0  0
 15 36  1  0  0  0  0
 16 17  1  0  0  0  0
 16 37  1  0  0  0  0
 17 18  2  0  0  0  0
 17 43  1  0  0  0  0
 18 38  1  0  0  0  0
 19 20  1  0  0  0  0
 19 39  1  0  0  0  0
 20 40  1  0  0  0  0
 20 41  1  0  0  0  0
 20 42  1  0  0  0  0
M  CHG  1  17   1
M  END
> <s_m_source_file>
AV-unprocessed.smi

> <i_m_source_file_index>
527

> <i_lp_mmshare_version>
43012

> <i_f3d_flags>
0

> <s_epik_input>
W0NIM11bQ0BASF0xW0NIMl1bQ0gyXVtDSDJdW0NASF0oW0NASF0xW0NIM10pW05IXUMoPU8pW05IXUMoPU8pW0NIMl1uMltjSF1bY0hdbltjSF0y

> <s_epik_cmdline>
J2VwaWtfcHl0aG9uJywgJy1waCcsICc3LjAnLCAnLXRuJywgJzgnLCAnLW1hJywgJzIwMCcsICctbWV0YWxfYmluZGluZycsICctaW1hZScsICc8aW5maWxlLm1hZT4nLCAnLW9tYWUnLCAnPG91dGZpbGUubWFlPic=

> <r_lp_tautomer_probability>
1

> <r_epik_Ionization_Penalty>
0.816441

> <r_epik_Ionization_Penalty_Charging>
0

> <r_epik_Ionization_Penalty_Neutral>
0.816441

> <r_epik_State_Penalty>
0.849034

> <r_epik_Charging_Adjusted_Penalty>
0.849034

> <i_epik_Tot_Q>
1

> <i_epik_Tot_abs_Q>
1

> <r_epik_Metal_State_Penalty>
0.984327

> <b_epik_Metal_Only>
0

> <s_lp_Force_Field>
OPLS_2005

> <r_lp_Energy>
18.63

> <b_lp_Chiralities_Consistent>
1

> <s_lp_Variant>
AV-unprocessed.smi:527-12

> <Gold.Version>
5.8.1

> <Gold.Id.Protein>
6NUR|6NUR_protein|mol2

> <Gold.PLP.Fitness>
50.0910

> <Gold.PLP.PLP>
-37.3888

> <Gold.PLP.part.hbond>
-3.8548

> <Gold.PLP.part.metal>
0.0000

> <Gold.PLP.part.buried>
-4.5070

> <Gold.PLP.part.nonpolar>
-30.0077

> <Gold.PLP.part.repulsive>
0.3823

> <Gold.PLP.ligand.clash>
0.0000

> <Gold.PLP.ligand.torsion>
0.4309

> <Gold.PLP.Chemscore.Hbond>
3.5142

> <Gold.PLP.Chemscore.CHOScore>
1.0000

> <Gold.PLP.Chemscore.Metal>
0.0000

> <Gold.Chemscore.Hbonds>
donor molecule, donor type, donor heavy atom, donor atom, acceptor molecule, acceptor atom, score
      L1  H     7    32       P1  7957  0.61
      L1  H    10    33       P1  7948  0.94
      L1  H    17    43       P1 10957  2.00
      L1  C    15    36       P1  7921  1.00

> <Gold.PLP.Chemscore.Internal.Correction>
0.0213

> <Gold.Rescore>
     Score         DG    S(hbond)    S(metal)    S(lipo)     H(rot)  DE(clash)    DE(int)     intcor
     14.02     -17.57       2.33        0.00      74.20       1.71       0.42       3.12       ----

> <Gold.Chemscore.Fitness>
14.0246

> <Gold.Chemscore.DG>
-17.5727

> <Gold.Chemscore.ZeroCoef>
-5.4800

> <Gold.Chemscore.Hbond>
2.3283

> <Gold.Chemscore.Metal>
0.0000

> <Gold.Chemscore.Lipo>
74.2012

> <Gold.Chemscore.Internal_Hbond>
0.0000

> <Gold.Chemscore.DEClash>
0.4236

> <Gold.Chemscore.DEInternal>
3.1245

> <Gold.Chemscore.Rot>
1.7052

> <Gold.Chemscore.Internal.Correction>
   9.000000E+99

> <Gold.Chemscore.Hbonds>
donor molecule, donor type, donor heavy atom, donor atom, acceptor molecule, acceptor atom, score
      L1  H     7    32       P1  7957  0.58
      L1  H    10    33       P1  7948  0.91
      L1  H    17    43       P1 10957  0.34

> <Gold.Chemscore.Hbond.Weighted>
-7.7764

> <Gold.Chemscore.Metal.Weighted>
-0.0000

> <Gold.Chemscore.Lipo.Weighted>
-8.6815

> <Gold.Chemscore.Internal_Hbond.Weighted>
0.0000

> <Gold.Chemscore.DEClash.Weighted>
0.4236

> <Gold.Chemscore.DEInternal.Weighted>
3.1245

> <Gold.Chemscore.Rot.Weighted>
4.3653

> <Gold.Chemscore.Internal.Correction.Weighted>
   9.000000E+99

> <Gold.Protein.RotatedTorsions>
[ 6907 6896 6895 6894 ] final  -96.06 input  -60.11 | X-H torsion
[ 7974 7965 7964 7962 ] final -157.16 input  175.53 | X-H torsion
[ 8008 7997 7996 7995 ] final -107.95 input   59.86 | X-H torsion
[ 10167 10162 10161 10158 ] final  -85.51 input  -65.29 | X-H torsion
[ 10718 10713 10712 10709 ] final   84.40 input   66.30 | X-H torsion
[ 10763 10752 10751 10750 ] final  -74.07 input  -60.55 | X-H torsion
[ 11005 11000 10999 10996 ] final -120.91 input  -57.11 | X-H torsion

> <Gold.Protein.ActiveResidues>
 VAL166  LYS551  ARG553  GLY616  TRP617  ASP618  TYR619  PRO620  LYS621  CYS622 
 ASP623  PHE694  ASN695  SER759  ASP760  ASP761  ALA762  ILE779  LEU786  VAL792 
 PHE793  MET794  SER795  GLU796  ALA797  LYS798  CYS799  TRP800  GLU811  SER814 

> <Gold.Protein.RotatedAtoms>
  150.6979  134.1561  159.4158 H   0  0  0  0  0  0  0  0  0  0  0  0  # atno 6907 bound_to 6896
  151.9542  135.0152  160.0553 H   0  0  0  0  0  0  0  0  0  0  0  0  # atno 6908 bound_to 6896
  152.1984  133.4788  159.5082 H   0  0  0  0  0  0  0  0  0  0  0  0  # atno 6909 bound_to 6896
  144.7560  140.4008  143.6012 H   0  0  0  0  0  0  0  0  0  0  0  0  # atno 7974 bound_to 7965
  154.9370  140.0403  157.2077 H   0  0  0  0  0  0  0  0  0  0  0  0  # atno 8008 bound_to 7997
  154.8106  140.2867  155.5834 H   0  0  0  0  0  0  0  0  0  0  0  0  # atno 8009 bound_to 7997
  156.2971  140.2537  156.2993 H   0  0  0  0  0  0  0  0  0  0  0  0  # atno 8010 bound_to 7997
  140.4030  143.2654  151.9118 H   0  0  0  0  0  0  0  0  0  0  0  0  # atno 10167 bound_to 10162
  157.6897  131.0131  150.2666 H   0  0  0  0  0  0  0  0  0  0  0  0  # atno 10718 bound_to 10713
  154.4681  135.5876  153.6302 H   0  0  0  0  0  0  0  0  0  0  0  0  # atno 10763 bound_to 10752
  152.9831  135.6060  154.3401 H   0  0  0  0  0  0  0  0  0  0  0  0  # atno 10764 bound_to 10752
  154.3280  135.2843  155.2465 H   0  0  0  0  0  0  0  0  0  0  0  0  # atno 10765 bound_to 10752
  141.0109  134.0266  157.3415 H   0  0  0  0  0  0  0  0  0  0  0  0  # atno 11005 bound_to 11000
  145.6777  139.1612  143.2718 LP  0  0  0  0  0  0  0  0  0  0  0  0  # atno 17320 bound_to 7965
  146.1571  140.6842  142.9295 LP  0  0  0  0  0  0  0  0  0  0  0  0  # atno 17321 bound_to 7965
  139.4784  144.5614  151.8233 LP  0  0  0  0  0  0  0  0  0  0  0  0  # atno 17342 bound_to 10162
  140.4719  144.1574  150.5919 LP  0  0  0  0  0  0  0  0  0  0  0  0  # atno 17343 bound_to 10162
  156.3236  130.3789  149.7553 LP  0  0  0  0  0  0  0  0  0  0  0  0  # atno 17370 bound_to 10713
  156.5115  130.8174  151.3170 LP  0  0  0  0  0  0  0  0  0  0  0  0  # atno 17371 bound_to 10713
  139.9089  135.0186  156.7608 LP  0  0  0  0  0  0  0  0  0  0  0  0  # atno 17394 bound_to 11000
  140.6735  133.9538  155.7870 LP  0  0  0  0  0  0  0  0  0  0  0  0  # atno 17395 bound_to 11000

$$$$
