AV-unprocessed.smi:2124|AV-procd|sdf|8652|dock3
  -GOLD-   2272011403D 1   1.00000     0.00000
 Structure written by MMmdl.
 47 49  0  0  0  0  0  0  0  0  1 V2000
  143.6177  138.8183  156.4771 C   0  0  0  0  0  0  0  0  0  0  0  0
  144.8353  139.4813  155.8691 C   0  0  0  0  0  0  0  0  0  0  0  0
  145.4213  139.0640  154.7956 N   0  0  0  0  0  0  0  0  0  0  0  0
  146.5440  139.7601  154.3266 C   0  0  0  0  0  0  0  0  0  0  0  0
  147.1736  139.2108  153.0585 C   0  0  0  0  0  0  0  0  0  0  0  0
  147.0290  140.8578  154.9778 C   0  0  0  0  0  0  0  0  0  0  0  0
  148.2500  141.6393  154.4941 C   0  0  0  0  0  0  0  0  0  0  0  0
  149.5796  141.3140  155.1799 C   0  0  0  0  0  0  0  0  0  0  0  0
  150.2833  140.3875  154.7769 O   0  0  0  0  0  0  0  0  0  0  0  0
  149.9098  142.1008  156.2158 N   0  0  0  0  0  0  0  0  0  0  0  0
  151.1320  142.0054  157.0128 C   0  0  2  0  0  0  0  0  0  0  0  0
  151.3629  140.5273  157.3678 C   0  0  0  0  0  0  0  0  0  0  0  0
  151.0243  142.9036  158.2708 C   0  0  1  0  0  0  0  0  0  0  0  0
  152.1709  142.6809  159.2879 C   0  0  0  0  0  0  0  0  0  0  0  0
  152.7384  144.0953  159.5006 C   0  0  2  0  0  0  0  0  0  0  0  0
  151.7192  144.9487  160.2767 C   0  0  0  0  0  0  0  0  0  0  0  0
  150.6212  145.1987  159.2265 C   0  0  0  0  0  0  0  0  0  0  0  0
  151.1418  144.4266  157.9989 C   0  0  1  0  0  0  0  0  0  0  0  0
  152.6424  144.6781  158.0971 C   0  0  0  0  0  0  0  0  0  0  0  0
  146.3487  141.3291  156.1995 C   0  0  0  0  0  0  0  0  0  0  0  0
  146.6928  142.3124  156.8536 O   0  0  0  0  0  0  0  0  0  0  0  0
  145.2768  140.5974  156.5782 N   0  0  0  0  0  0  0  0  0  0  0  0
  144.7768  140.8797  157.4086 H   0  0  0  0  0  0  0  0  0  0  0  0
  142.7927  138.8241  155.7646 H   0  0  0  0  0  0  0  0  0  0  0  0
  143.2902  139.3292  157.3835 H   0  0  0  0  0  0  0  0  0  0  0  0
  143.8433  137.7827  156.7319 H   0  0  0  0  0  0  0  0  0  0  0  0
  148.1751  138.8317  153.2630 H   0  0  0  0  0  0  0  0  0  0  0  0
  147.2436  139.9860  152.2954 H   0  0  0  0  0  0  0  0  0  0  0  0
  146.5829  138.3917  152.6465 H   0  0  0  0  0  0  0  0  0  0  0  0
  148.3747  141.5097  153.4181 H   0  0  0  0  0  0  0  0  0  0  0  0
  148.0597  142.7046  154.6250 H   0  0  0  0  0  0  0  0  0  0  0  0
  149.2650  142.8356  156.4685 H   0  0  0  0  0  0  0  0  0  0  0  0
  151.9875  142.3369  156.4222 H   0  0  0  0  0  0  0  0  0  0  0  0
  152.2944  140.3856  157.9153 H   0  0  0  0  0  0  0  0  0  0  0  0
  151.4212  139.9138  156.4679 H   0  0  0  0  0  0  0  0  0  0  0  0
  150.5532  140.1355  157.9844 H   0  0  0  0  0  0  0  0  0  0  0  0
  150.0645  142.6983  158.7483 H   0  0  0  0  0  0  0  0  0  0  0  0
  151.8198  142.2297  160.2167 H   0  0  0  0  0  0  0  0  0  0  0  0
  152.9481  142.0327  158.8810 H   0  0  0  0  0  0  0  0  0  0  0  0
  153.7381  144.1038  159.9357 H   0  0  0  0  0  0  0  0  0  0  0  0
  151.3410  144.4361  161.1621 H   0  0  0  0  0  0  0  0  0  0  0  0
  152.1639  145.8915  160.5982 H   0  0  0  0  0  0  0  0  0  0  0  0
  149.6407  144.8521  159.5547 H   0  0  0  0  0  0  0  0  0  0  0  0
  150.5402  146.2640  159.0066 H   0  0  0  0  0  0  0  0  0  0  0  0
  150.6846  144.7639  157.0689 H   0  0  0  0  0  0  0  0  0  0  0  0
  152.9081  145.7356  158.0482 H   0  0  0  0  0  0  0  0  0  0  0  0
  153.2263  144.1290  157.3567 H   0  0  0  0  0  0  0  0  0  0  0  0
  1  2  1  0  0  0  0
  1 24  1  0  0  0  0
  1 25  1  0  0  0  0
  1 26  1  0  0  0  0
  2 22  1  0  0  0  0
  2  3  2  0  0  0  0
  3  4  1  0  0  0  0
  4  5  1  0  0  0  0
  4  6  2  0  0  0  0
  5 27  1  0  0  0  0
  5 28  1  0  0  0  0
  5 29  1  0  0  0  0
  6  7  1  0  0  0  0
  6 20  1  0  0  0  0
  7  8  1  0  0  0  0
  7 30  1  0  0  0  0
  7 31  1  0  0  0  0
  8  9  2  0  0  0  0
  8 10  1  0  0  0  0
 10 11  1  0  0  0  0
 10 32  1  0  0  0  0
 11 12  1  0  0  0  0
 11 13  1  0  0  0  0
 11 33  1  0  0  0  0
 12 34  1  0  0  0  0
 12 35  1  0  0  0  0
 12 36  1  0  0  0  0
 13 18  1  0  0  0  0
 13 14  1  0  0  0  0
 13 37  1  0  0  0  0
 14 15  1  0  0  0  0
 14 38  1  0  0  0  0
 14 39  1  0  0  0  0
 15 19  1  0  0  0  0
 15 16  1  0  0  0  0
 15 40  1  0  0  0  0
 16 17  1  0  0  0  0
 16 41  1  0  0  0  0
 16 42  1  0  0  0  0
 17 18  1  0  0  0  0
 17 43  1  0  0  0  0
 17 44  1  0  0  0  0
 18 19  1  0  0  0  0
 18 45  1  0  0  0  0
 19 46  1  0  0  0  0
 19 47  1  0  0  0  0
 20 21  2  0  0  0  0
 20 22  1  0  0  0  0
 22 23  1  0  0  0  0
M  END
> <s_m_source_file>
AV-unprocessed.smi

> <i_m_source_file_index>
2124

> <i_lp_mmshare_version>
43012

> <i_f3d_flags>
0

> <s_epik_input>
W0NIM11jMW5jKFtDSDNdKWMoYyg9TylbbkhdMSlbQ0gyXUMoPU8pW05IXVtDQEhdKFtDSDNdKVtDQEhdKFtDSDJdW0NASF0yMylbQ0BIXShbQ0gyXTMpW0NIMl1bQ0gyXTI=

> <s_epik_cmdline>
J2VwaWtfcHl0aG9uJywgJy1waCcsICc3LjAnLCAnLXRuJywgJzgnLCAnLW1hJywgJzIwMCcsICctbWV0YWxfYmluZGluZycsICctaW1hZScsICc8aW5maWxlLm1hZT4nLCAnLW9tYWUnLCAnPG91dGZpbGUubWFlPic=

> <r_lp_tautomer_probability>
0.839158

> <r_epik_Ionization_Penalty>
0.000383628

> <r_epik_Ionization_Penalty_Charging>
0.00035045

> <r_epik_Ionization_Penalty_Neutral>
3.31781e-05

> <r_epik_State_Penalty>
0.09125

> <r_epik_Charging_Adjusted_Penalty>
0.0916005

> <i_epik_Tot_Q>
0

> <i_epik_Tot_abs_Q>
0

> <r_epik_Metal_State_Penalty>
0.255229

> <b_epik_Metal_Only>
0

> <s_lp_Force_Field>
OPLS_2005

> <r_lp_Energy>
52.5512

> <b_lp_Chiralities_Consistent>
1

> <s_lp_Variant>
AV-unprocessed.smi:2124-3

> <Gold.Version>
5.8.1

> <Gold.Id.Protein>
6NUR|6NUR_protein|mol2

> <Gold.PLP.Fitness>
46.7619

> <Gold.PLP.PLP>
-43.1770

> <Gold.PLP.part.hbond>
-2.0000

> <Gold.PLP.part.metal>
0.0000

> <Gold.PLP.part.buried>
-5.2654

> <Gold.PLP.part.nonpolar>
-36.9695

> <Gold.PLP.part.repulsive>
1.1055

> <Gold.PLP.ligand.clash>
0.0000

> <Gold.PLP.ligand.torsion>
0.9525

> <Gold.PLP.Chemscore.Hbond>
1.8160

> <Gold.PLP.Chemscore.CHOScore>
0.0000

> <Gold.PLP.Chemscore.Metal>
0.0000

> <Gold.Chemscore.Hbonds>
donor molecule, donor type, donor heavy atom, donor atom, acceptor molecule, acceptor atom, score
      L1  H    10    32       P1  8028  0.56
      P1  H  7989  7998       L1     9  1.00

> <Gold.PLP.Chemscore.Internal.Correction>
0.0419

> <Gold.Rescore>
     Score         DG    S(hbond)    S(metal)    S(lipo)     H(rot)  DE(clash)    DE(int)     intcor
     18.40     -20.65       1.56        0.00     121.18       1.65       0.05       2.21       ----

> <Gold.Chemscore.Fitness>
18.3974

> <Gold.Chemscore.DG>
-20.6499

> <Gold.Chemscore.ZeroCoef>
-5.4800

> <Gold.Chemscore.Hbond>
1.5642

> <Gold.Chemscore.Metal>
0.0000

> <Gold.Chemscore.Lipo>
121.1807

> <Gold.Chemscore.Internal_Hbond>
0.0000

> <Gold.Chemscore.DEClash>
0.0469

> <Gold.Chemscore.DEInternal>
2.2056

> <Gold.Chemscore.Rot>
1.6534

> <Gold.Chemscore.Internal.Correction>
   9.000000E+99

> <Gold.Chemscore.Hbonds>
donor molecule, donor type, donor heavy atom, donor atom, acceptor molecule, acceptor atom, score
      L1  H    10    32       P1  8028  0.55
      P1  H  7989  7998       L1     9  0.86

> <Gold.Chemscore.Hbond.Weighted>
-5.2244

> <Gold.Chemscore.Metal.Weighted>
-0.0000

> <Gold.Chemscore.Lipo.Weighted>
-14.1781

> <Gold.Chemscore.Internal_Hbond.Weighted>
0.0000

> <Gold.Chemscore.DEClash.Weighted>
0.0469

> <Gold.Chemscore.DEInternal.Weighted>
2.2056

> <Gold.Chemscore.Rot.Weighted>
4.2326

> <Gold.Chemscore.Internal.Correction.Weighted>
   9.000000E+99

> <Gold.Protein.RotatedTorsions>
[ 6907 6896 6895 6894 ] final  129.50 input  -60.11 | X-H torsion
[ 7974 7965 7964 7962 ] final  -17.74 input  175.53 | X-H torsion
[ 8008 7997 7996 7995 ] final    2.56 input   59.86 | X-H torsion
[ 10167 10162 10161 10158 ] final  133.65 input  -65.29 | X-H torsion
[ 10718 10713 10712 10709 ] final  -90.95 input   66.30 | X-H torsion
[ 10763 10752 10751 10750 ] final  123.41 input  -60.55 | X-H torsion
[ 11005 11000 10999 10996 ] final   91.18 input  -57.11 | X-H torsion

> <Gold.Protein.ActiveResidues>
 VAL166  LYS551  ARG553  GLY616  TRP617  ASP618  TYR619  PRO620  LYS621  CYS622 
 ASP623  PHE694  ASN695  SER759  ASP760  ASP761  ALA762  ILE779  LEU786  VAL792 
 PHE793  MET794  SER795  GLU796  ALA797  LYS798  CYS799  TRP800  GLU811  SER814 

> <Gold.Protein.RotatedAtoms>
  152.3618  133.6306  159.6020 H   0  0  0  0  0  0  0  0  0  0  0  0  # atno 6907 bound_to 6896
  150.7606  133.9412  159.3465 H   0  0  0  0  0  0  0  0  0  0  0  0  # atno 6908 bound_to 6896
  151.7249  135.0888  160.0341 H   0  0  0  0  0  0  0  0  0  0  0  0  # atno 6909 bound_to 6896
  146.1926  140.3822  142.8452 H   0  0  0  0  0  0  0  0  0  0  0  0  # atno 7974 bound_to 7965
  154.6931  140.2657  155.6793 H   0  0  0  0  0  0  0  0  0  0  0  0  # atno 8008 bound_to 7997
  156.2739  140.2787  156.1440 H   0  0  0  0  0  0  0  0  0  0  0  0  # atno 8009 bound_to 7997
  155.0868  140.0373  157.2646 H   0  0  0  0  0  0  0  0  0  0  0  0  # atno 8010 bound_to 7997
  139.5288  144.6605  151.5026 H   0  0  0  0  0  0  0  0  0  0  0  0  # atno 10167 bound_to 10162
  155.9990  130.4929  150.5401 H   0  0  0  0  0  0  0  0  0  0  0  0  # atno 10718 bound_to 10713
  153.6451  135.3372  155.3083 H   0  0  0  0  0  0  0  0  0  0  0  0  # atno 10763 bound_to 10752
  154.8551  135.4327  154.1964 H   0  0  0  0  0  0  0  0  0  0  0  0  # atno 10764 bound_to 10752
  153.2892  135.7015  153.7384 H   0  0  0  0  0  0  0  0  0  0  0  0  # atno 10765 bound_to 10752
  139.8843  134.8658  156.3391 H   0  0  0  0  0  0  0  0  0  0  0  0  # atno 11005 bound_to 11000
  144.8517  140.7011  143.6164 LP  0  0  0  0  0  0  0  0  0  0  0  0  # atno 17320 bound_to 7965
  145.3743  139.1651  143.4315 LP  0  0  0  0  0  0  0  0  0  0  0  0  # atno 17321 bound_to 7965
  140.6452  143.8810  150.6730 LP  0  0  0  0  0  0  0  0  0  0  0  0  # atno 17342 bound_to 10162
  140.2157  143.3848  152.1683 LP  0  0  0  0  0  0  0  0  0  0  0  0  # atno 17343 bound_to 10162
  157.3338  131.0704  151.1840 LP  0  0  0  0  0  0  0  0  0  0  0  0  # atno 17370 bound_to 10713
  157.2712  130.6705  149.6020 LP  0  0  0  0  0  0  0  0  0  0  0  0  # atno 17371 bound_to 10713
  140.9671  133.7351  156.0482 LP  0  0  0  0  0  0  0  0  0  0  0  0  # atno 17394 bound_to 11000
  140.7917  134.3610  157.5463 LP  0  0  0  0  0  0  0  0  0  0  0  0  # atno 17395 bound_to 11000

$$$$
