AV-unprocessed.smi:1042|AV-procd|sdf|4537|dock7
  -GOLD-   22720 2563D 1   1.00000     0.00000
 Structure written by MMmdl.
 40 42  0  0  0  0  0  0  0  0  2 V2000
  146.2182  139.0608  153.8963 O   0  0  0  0  0  0  0  0  0  0  0  0
  146.9734  138.2842  153.3113 C   0  0  0  0  0  0  0  0  0  0  0  0
  146.5400  137.2803  152.5346 N   0  0  0  0  0  0  0  0  0  0  0  0
  145.1386  136.9709  152.2671 C   0  0  0  0  0  0  0  0  0  0  0  0
  144.9070  135.4701  152.0003 C   0  0  1  0  0  0  0  0  0  0  0  0
  143.6627  134.9016  152.6751 C   0  0  0  0  0  0  0  0  0  0  0  0
  143.4289  133.6093  151.8968 C   0  0  0  0  0  0  0  0  0  0  0  0
  143.8187  133.9096  150.5016 N   0  3  2  0  0  0  0  0  0  0  0  0
  144.3853  132.7520  149.7767 C   0  0  0  0  0  0  0  0  0  0  0  0
  144.9783  131.7022  150.6859 C   0  0  0  0  0  0  0  0  0  0  0  0
  145.8847  132.6311  149.9077 C   0  0  0  0  0  0  0  0  0  0  0  0
  144.7023  135.0991  150.5243 C   0  0  0  0  0  0  0  0  0  0  0  0
  148.3169  138.3191  153.3597 N   0  0  0  0  0  0  0  0  0  0  0  0
  149.1449  139.2008  154.1048 C   0  0  0  0  0  0  0  0  0  0  0  0
  150.3877  138.6603  154.5056 C   0  0  0  0  0  0  0  0  0  0  0  0
  151.2794  139.4537  155.2535 C   0  0  0  0  0  0  0  0  0  0  0  0
  150.9044  140.7685  155.5826 C   0  0  0  0  0  0  0  0  0  0  0  0
  149.6489  141.2288  155.1452 C   0  0  0  0  0  0  0  0  0  0  0  0
  148.7925  140.4700  154.4290 N   0  0  0  0  0  0  0  0  0  0  0  0
  147.2295  136.6954  152.0854 H   0  0  0  0  0  0  0  0  0  0  0  0
  144.5237  137.3043  153.1048 H   0  0  0  0  0  0  0  0  0  0  0  0
  144.8248  137.5573  151.4031 H   0  0  0  0  0  0  0  0  0  0  0  0
  145.7631  134.9046  152.3721 H   0  0  0  0  0  0  0  0  0  0  0  0
  143.7994  134.7326  153.7437 H   0  0  0  0  0  0  0  0  0  0  0  0
  142.8148  135.5758  152.5439 H   0  0  0  0  0  0  0  0  0  0  0  0
  144.0703  132.8237  152.3004 H   0  0  0  0  0  0  0  0  0  0  0  0
  142.3968  133.2626  151.9585 H   0  0  0  0  0  0  0  0  0  0  0  0
  143.8839  132.4635  148.8543 H   0  0  0  0  0  0  0  0  0  0  0  0
  144.9088  131.8525  151.7618 H   0  0  0  0  0  0  0  0  0  0  0  0
  144.9268  130.6660  150.3571 H   0  0  0  0  0  0  0  0  0  0  0  0
  146.4299  132.2063  149.0673 H   0  0  0  0  0  0  0  0  0  0  0  0
  146.4166  133.3992  150.4663 H   0  0  0  0  0  0  0  0  0  0  0  0
  144.1935  135.9020  149.9897 H   0  0  0  0  0  0  0  0  0  0  0  0
  145.6554  134.9242  150.0224 H   0  0  0  0  0  0  0  0  0  0  0  0
  148.8051  137.6296  152.8077 H   0  0  0  0  0  0  0  0  0  0  0  0
  150.6608  137.6480  154.2442 H   0  0  0  0  0  0  0  0  0  0  0  0
  152.2341  139.0594  155.5689 H   0  0  0  0  0  0  0  0  0  0  0  0
  151.5610  141.4074  156.1546 H   0  0  0  0  0  0  0  0  0  0  0  0
  149.3229  142.2321  155.3765 H   0  0  0  0  0  0  0  0  0  0  0  0
  142.9790  134.1891  150.0149 H   0  0  0  0  0  0  0  0  0  0  0  0
  1  2  2  0  0  0  0
  2  3  1  0  0  0  0
  2 13  1  0  0  0  0
  3  4  1  0  0  0  0
  3 20  1  0  0  0  0
  4  5  1  0  0  0  0
  4 21  1  0  0  0  0
  4 22  1  0  0  0  0
  5 12  1  0  0  0  0
  5  6  1  0  0  0  0
  5 23  1  0  0  0  0
  6  7  1  0  0  0  0
  6 24  1  0  0  0  0
  6 25  1  0  0  0  0
  7  8  1  0  0  0  0
  7 26  1  0  0  0  0
  7 27  1  0  0  0  0
  8  9  1  0  0  0  0
  8 12  1  0  0  0  0
  8 40  1  0  0  0  0
  9 11  1  0  0  0  0
  9 10  1  0  0  0  0
  9 28  1  0  0  0  0
 10 11  1  0  0  0  0
 10 29  1  0  0  0  0
 10 30  1  0  0  0  0
 11 31  1  0  0  0  0
 11 32  1  0  0  0  0
 12 33  1  0  0  0  0
 12 34  1  0  0  0  0
 13 14  1  0  0  0  0
 13 35  1  0  0  0  0
 14 19  1  0  0  0  0
 14 15  2  0  0  0  0
 15 16  1  0  0  0  0
 15 36  1  0  0  0  0
 16 17  2  0  0  0  0
 16 37  1  0  0  0  0
 17 18  1  0  0  0  0
 17 38  1  0  0  0  0
 18 19  2  0  0  0  0
 18 39  1  0  0  0  0
M  CHG  1   8   1
M  END
> <s_m_source_file>
AV-unprocessed.smi

> <i_m_source_file_index>
1042

> <i_lp_mmshare_version>
43012

> <i_f3d_flags>
0

> <s_epik_input>
bjFbY0hdW2NIXVtjSF1bY0hdYzFbTkhdQyg9TylbTkhdW0NIMl1bQ0BASF0yW0NIMl1bQ0gyXU4oW0NIMl0yKVtDSF0zW0NIMl1bQ0gyXTM=

> <s_epik_cmdline>
J2VwaWtfcHl0aG9uJywgJy1waCcsICc3LjAnLCAnLXRuJywgJzgnLCAnLW1hJywgJzIwMCcsICctbWV0YWxfYmluZGluZycsICctaW1hZScsICc8aW5maWxlLm1hZT4nLCAnLW9tYWUnLCAnPG91dGZpbGUubWFlPic=

> <r_lp_tautomer_probability>
1

> <r_epik_Ionization_Penalty>
0.000244736

> <r_epik_Ionization_Penalty_Charging>
0.000203384

> <r_epik_Ionization_Penalty_Neutral>
4.13519e-05

> <r_epik_State_Penalty>
-0

> <r_epik_Charging_Adjusted_Penalty>
0.000203384

> <i_epik_Tot_Q>
1

> <i_epik_Tot_abs_Q>
1

> <r_epik_Metal_State_Penalty>
-0

> <b_epik_Metal_Only>
0

> <s_lp_Force_Field>
OPLS_2005

> <r_lp_Energy>
38.5501

> <b_lp_Chiralities_Consistent>
1

> <s_lp_Variant>
AV-unprocessed.smi:1042-2

> <Gold.Version>
5.8.1

> <Gold.Id.Protein>
6NUR|6NUR_protein|mol2

> <Gold.PLP.Fitness>
49.8346

> <Gold.PLP.PLP>
-37.7599

> <Gold.PLP.part.hbond>
-3.8913

> <Gold.PLP.part.metal>
0.0000

> <Gold.PLP.part.buried>
-1.6550

> <Gold.PLP.part.nonpolar>
-31.8377

> <Gold.PLP.part.repulsive>
0.3557

> <Gold.PLP.ligand.clash>
0.3873

> <Gold.PLP.ligand.torsion>
1.8486

> <Gold.PLP.Chemscore.Hbond>
3.9825

> <Gold.PLP.Chemscore.CHOScore>
0.9834

> <Gold.PLP.Chemscore.Metal>
0.0000

> <Gold.Chemscore.Hbonds>
donor molecule, donor type, donor heavy atom, donor atom, acceptor molecule, acceptor atom, score
      L1  H     3    20       P1  7948  1.00
      L1  H     8    40       P1 10186  1.98
      L1  H    13    35       P1  7948  1.00
      L1  C    18    39       P1  8028  0.98

> <Gold.PLP.Chemscore.Internal.Correction>
1.2614

> <Gold.Rescore>
     Score         DG    S(hbond)    S(metal)    S(lipo)     H(rot)  DE(clash)    DE(int)     intcor
     18.54     -21.59       2.89        0.00      87.27       1.47       0.12       2.93       ----

> <Gold.Chemscore.Fitness>
18.5367

> <Gold.Chemscore.DG>
-21.5892

> <Gold.Chemscore.ZeroCoef>
-5.4800

> <Gold.Chemscore.Hbond>
2.8933

> <Gold.Chemscore.Metal>
0.0000

> <Gold.Chemscore.Lipo>
87.2698

> <Gold.Chemscore.Internal_Hbond>
0.0000

> <Gold.Chemscore.DEClash>
0.1217

> <Gold.Chemscore.DEInternal>
2.9308

> <Gold.Chemscore.Rot>
1.4707

> <Gold.Chemscore.Internal.Correction>
   9.000000E+99

> <Gold.Chemscore.Hbonds>
donor molecule, donor type, donor heavy atom, donor atom, acceptor molecule, acceptor atom, score
      L1  H     3    20       P1  7948  0.94
      L1  H     8    40       P1 10186  0.90
      L1  H    13    35       P1  7948  0.99

> <Gold.Chemscore.Hbond.Weighted>
-9.6637

> <Gold.Chemscore.Metal.Weighted>
-0.0000

> <Gold.Chemscore.Lipo.Weighted>
-10.2106

> <Gold.Chemscore.Internal_Hbond.Weighted>
0.0000

> <Gold.Chemscore.DEClash.Weighted>
0.1217

> <Gold.Chemscore.DEInternal.Weighted>
2.9308

> <Gold.Chemscore.Rot.Weighted>
3.7650

> <Gold.Chemscore.Internal.Correction.Weighted>
   9.000000E+99

> <Gold.Protein.RotatedTorsions>
[ 6907 6896 6895 6894 ] final  -67.14 input  -60.11 | X-H torsion
[ 7974 7965 7964 7962 ] final   41.93 input  175.53 | X-H torsion
[ 8008 7997 7996 7995 ] final   55.64 input   59.86 | X-H torsion
[ 10167 10162 10161 10158 ] final -149.67 input  -65.29 | X-H torsion
[ 10718 10713 10712 10709 ] final  -57.45 input   66.30 | X-H torsion
[ 10763 10752 10751 10750 ] final  -67.59 input  -60.55 | X-H torsion
[ 11005 11000 10999 10996 ] final -104.92 input  -57.11 | X-H torsion

> <Gold.Protein.ActiveResidues>
 VAL166  LYS551  ARG553  GLY616  TRP617  ASP618  TYR619  PRO620  LYS621  CYS622 
 ASP623  PHE694  ASN695  SER759  ASP760  ASP761  ALA762  ILE779  LEU786  VAL792 
 PHE793  MET794  SER795  GLU796  ALA797  LYS798  CYS799  TRP800  GLU811  SER814 

> <Gold.Protein.RotatedAtoms>
  150.7426  134.5922  159.5992 H   0  0  0  0  0  0  0  0  0  0  0  0  # atno 6907 bound_to 6896
  152.3307  134.7260  160.0299 H   0  0  0  0  0  0  0  0  0  0  0  0  # atno 6908 bound_to 6896
  151.7745  133.3308  159.3490 H   0  0  0  0  0  0  0  0  0  0  0  0  # atno 6909 bound_to 6896
  146.0782  139.5358  142.9554 H   0  0  0  0  0  0  0  0  0  0  0  0  # atno 7974 bound_to 7965
  155.5044  140.3475  155.4377 H   0  0  0  0  0  0  0  0  0  0  0  0  # atno 8008 bound_to 7997
  156.0892  140.1406  156.9642 H   0  0  0  0  0  0  0  0  0  0  0  0  # atno 8009 bound_to 7997
  154.4624  140.0930  156.6907 H   0  0  0  0  0  0  0  0  0  0  0  0  # atno 8010 bound_to 7997
  139.7422  143.8644  152.2565 H   0  0  0  0  0  0  0  0  0  0  0  0  # atno 10167 bound_to 10162
  156.1209  130.4166  150.0443 H   0  0  0  0  0  0  0  0  0  0  0  0  # atno 10718 bound_to 10713
  154.3766  135.6083  153.5768 H   0  0  0  0  0  0  0  0  0  0  0  0  # atno 10763 bound_to 10752
  152.9789  135.5851  154.4459 H   0  0  0  0  0  0  0  0  0  0  0  0  # atno 10764 bound_to 10752
  154.4221  135.2846  155.1946 H   0  0  0  0  0  0  0  0  0  0  0  0  # atno 10765 bound_to 10752
  141.1078  133.8764  157.1671 H   0  0  0  0  0  0  0  0  0  0  0  0  # atno 11005 bound_to 11000
  145.6266  141.0312  143.1886 LP  0  0  0  0  0  0  0  0  0  0  0  0  # atno 17320 bound_to 7965
  144.7276  139.7827  143.7359 LP  0  0  0  0  0  0  0  0  0  0  0  0  # atno 17321 bound_to 7965
  139.8598  144.7123  150.9113 LP  0  0  0  0  0  0  0  0  0  0  0  0  # atno 17342 bound_to 10162
  140.7787  143.3827  151.1448 LP  0  0  0  0  0  0  0  0  0  0  0  0  # atno 17343 bound_to 10162
  156.8381  130.9416  151.3633 LP  0  0  0  0  0  0  0  0  0  0  0  0  # atno 17370 bound_to 10713
  157.6393  130.8792  149.9417 LP  0  0  0  0  0  0  0  0  0  0  0  0  # atno 17371 bound_to 10713
  139.9956  135.0048  157.0075 LP  0  0  0  0  0  0  0  0  0  0  0  0  # atno 17394 bound_to 11000
  140.4857  134.1244  155.7224 LP  0  0  0  0  0  0  0  0  0  0  0  0  # atno 17395 bound_to 11000

$$$$
