AV-unprocessed.smi:1047|AV-procd|sdf|4585|dock10
  -GOLD-   22720 3 63D 1   1.00000     0.00000
 Structure written by MMmdl.
 58 60  0  0  0  0  0  0  0  0  4 V2000
  145.8050  132.1086  151.0993 C   0  0  0  0  0  0  0  0  0  0  0  0
  146.6076  133.0328  152.0265 C   0  0  0  0  0  0  0  0  0  0  0  0
  147.7958  132.3579  152.6137 N   0  3  2  0  0  0  0  0  0  0  0  0
  147.4508  131.2543  153.5424 C   0  0  0  0  0  0  0  0  0  0  0  0
  147.0211  131.7975  154.9168 C   0  0  0  0  0  0  0  0  0  0  0  0
  148.0557  132.6181  155.4467 O   0  0  0  0  0  0  0  0  0  0  0  0
  148.3253  133.7551  154.6321 C   0  0  1  0  0  0  0  0  0  0  0  0
  149.4085  134.5930  155.3291 C   0  0  0  0  0  0  0  0  0  0  0  0
  149.4676  135.9634  154.7815 N   0  3  0  0  0  0  0  0  0  0  0  0
  150.5806  136.7758  155.3136 C   0  0  0  0  0  0  0  0  0  0  0  0
  150.2899  138.2807  155.1866 C   0  0  1  0  0  0  0  0  0  0  0  0
  149.0848  138.5677  155.8687 O   0  0  0  0  0  0  0  0  0  0  0  0
  151.4322  139.1341  155.7722 C   0  0  0  0  0  0  0  0  0  0  0  0
  151.0130  140.5025  156.1102 N   0  0  0  0  0  0  0  0  0  0  0  0
  150.1731  141.3416  155.4444 C   0  0  0  0  0  0  0  0  0  0  0  0
  150.1143  142.5072  156.1458 N   0  3  0  0  0  0  0  0  0  0  0  0
  150.9299  142.4135  157.2750 C   0  0  0  0  0  0  0  0  0  0  0  0
  151.1973  143.3332  158.2818 C   0  0  0  0  0  0  0  0  0  0  0  0
  152.0825  142.9289  159.3063 C   0  0  0  0  0  0  0  0  0  0  0  0
  152.3981  143.9118  160.4211 C   0  0  0  0  0  0  0  0  0  0  0  0
  152.6655  141.6355  159.2987 C   0  0  0  0  0  0  0  0  0  0  0  0
  153.6134  141.2107  160.4075 C   0  0  0  0  0  0  0  0  0  0  0  0
  152.3816  140.7146  158.2647 C   0  0  0  0  0  0  0  0  0  0  0  0
  151.5093  141.1294  157.2605 C   0  0  0  0  0  0  0  0  0  0  0  0
  148.7887  133.2691  153.2401 C   0  0  0  0  0  0  0  0  0  0  0  0
  144.8882  132.5988  150.7711 H   0  0  0  0  0  0  0  0  0  0  0  0
  145.5204  131.1881  151.6098 H   0  0  0  0  0  0  0  0  0  0  0  0
  146.3628  131.8393  150.2030 H   0  0  0  0  0  0  0  0  0  0  0  0
  146.8937  133.9437  151.5012 H   0  0  0  0  0  0  0  0  0  0  0  0
  145.9439  133.3438  152.8341 H   0  0  0  0  0  0  0  0  0  0  0  0
  146.6753  130.6169  153.1161 H   0  0  0  0  0  0  0  0  0  0  0  0
  148.3313  130.6221  153.6650 H   0  0  0  0  0  0  0  0  0  0  0  0
  146.0884  132.3592  154.8490 H   0  0  0  0  0  0  0  0  0  0  0  0
  146.8422  130.9712  155.6050 H   0  0  0  0  0  0  0  0  0  0  0  0
  147.4220  134.3597  154.5361 H   0  0  0  0  0  0  0  0  0  0  0  0
  149.2212  134.6337  156.4030 H   0  0  0  0  0  0  0  0  0  0  0  0
  150.3832  134.1233  155.1907 H   0  0  0  0  0  0  0  0  0  0  0  0
  149.5584  135.9116  153.7770 H   0  0  0  0  0  0  0  0  0  0  0  0
  150.7669  136.5104  156.3556 H   0  0  0  0  0  0  0  0  0  0  0  0
  151.4844  136.5275  154.7554 H   0  0  0  0  0  0  0  0  0  0  0  0
  150.1581  138.5390  154.1348 H   0  0  0  0  0  0  0  0  0  0  0  0
  149.2180  139.3352  156.4045 H   0  0  0  0  0  0  0  0  0  0  0  0
  151.8703  138.6622  156.6521 H   0  0  0  0  0  0  0  0  0  0  0  0
  152.2389  139.2211  155.0433 H   0  0  0  0  0  0  0  0  0  0  0  0
  149.6508  141.1252  154.5234 H   0  0  0  0  0  0  0  0  0  0  0  0
  150.7489  144.3162  158.2819 H   0  0  0  0  0  0  0  0  0  0  0  0
  153.4681  144.1185  160.4578 H   0  0  0  0  0  0  0  0  0  0  0  0
  152.0890  143.5095  161.3862 H   0  0  0  0  0  0  0  0  0  0  0  0
  151.8811  144.8607  160.2749 H   0  0  0  0  0  0  0  0  0  0  0  0
  153.9575  140.1854  160.2680 H   0  0  0  0  0  0  0  0  0  0  0  0
  153.1187  141.2660  161.3776 H   0  0  0  0  0  0  0  0  0  0  0  0
  154.4913  141.8566  160.4288 H   0  0  0  0  0  0  0  0  0  0  0  0
  152.8255  139.7301  158.2636 H   0  0  0  0  0  0  0  0  0  0  0  0
  149.7251  132.7188  153.3448 H   0  0  0  0  0  0  0  0  0  0  0  0
  149.0101  134.1140  152.5891 H   0  0  0  0  0  0  0  0  0  0  0  0
  148.6021  136.4356  155.0033 H   0  0  0  0  0  0  0  0  0  0  0  0
  148.2606  131.9210  151.8301 H   0  0  0  0  0  0  0  0  0  0  0  0
  149.5606  143.3082  155.8693 H   0  0  0  0  0  0  0  0  0  0  0  0
  1  2  1  0  0  0  0
  1 26  1  0  0  0  0
  1 27  1  0  0  0  0
  1 28  1  0  0  0  0
  2  3  1  0  0  0  0
  2 29  1  0  0  0  0
  2 30  1  0  0  0  0
  3 25  1  0  0  0  0
  3  4  1  0  0  0  0
  3 57  1  0  0  0  0
  4  5  1  0  0  0  0
  4 31  1  0  0  0  0
  4 32  1  0  0  0  0
  5  6  1  0  0  0  0
  5 33  1  0  0  0  0
  5 34  1  0  0  0  0
  6  7  1  0  0  0  0
  7  8  1  0  0  0  0
  7 25  1  0  0  0  0
  7 35  1  0  0  0  0
  8  9  1  0  0  0  0
  8 36  1  0  0  0  0
  8 37  1  0  0  0  0
  9 10  1  0  0  0  0
  9 38  1  0  0  0  0
  9 56  1  0  0  0  0
 10 11  1  0  0  0  0
 10 39  1  0  0  0  0
 10 40  1  0  0  0  0
 11 12  1  0  0  0  0
 11 13  1  0  0  0  0
 11 41  1  0  0  0  0
 12 42  1  0  0  0  0
 13 14  1  0  0  0  0
 13 43  1  0  0  0  0
 13 44  1  0  0  0  0
 14 24  1  0  0  0  0
 14 15  1  0  0  0  0
 15 16  2  0  0  0  0
 15 45  1  0  0  0  0
 16 17  1  0  0  0  0
 16 58  1  0  0  0  0
 17 24  2  0  0  0  0
 17 18  1  0  0  0  0
 18 19  2  0  0  0  0
 18 46  1  0  0  0  0
 19 20  1  0  0  0  0
 19 21  1  0  0  0  0
 20 47  1  0  0  0  0
 20 48  1  0  0  0  0
 20 49  1  0  0  0  0
 21 22  1  0  0  0  0
 21 23  2  0  0  0  0
 22 50  1  0  0  0  0
 22 51  1  0  0  0  0
 22 52  1  0  0  0  0
 23 24  1  0  0  0  0
 23 53  1  0  0  0  0
 25 54  1  0  0  0  0
 25 55  1  0  0  0  0
M  CHG  1   3   1
M  CHG  1   9   1
M  CHG  1  16   1
M  END
> <s_m_source_file>
AV-unprocessed.smi

> <i_m_source_file_index>
1047

> <i_lp_mmshare_version>
43012

> <i_f3d_flags>
0

> <s_epik_input>
W0NIM11bQ0gyXU4xW0NIMl1bQ0gyXU9bQ0BIXShbQ0gyXTEpW0NIMl1bTkhdW0NIMl1bQ0BIXShbT0hdKVtDSDJdbihbY0hdbjIpYyhjMjMpW2NIXWMoW0NIM10pYyhbY0hdMylbQ0gzXQ==

> <s_epik_cmdline>
J2VwaWtfcHl0aG9uJywgJy1waCcsICc3LjAnLCAnLXRuJywgJzgnLCAnLW1hJywgJzIwMCcsICctbWV0YWxfYmluZGluZycsICctaW1hZScsICc8aW5maWxlLm1hZT4nLCAnLW9tYWUnLCAnPG91dGZpbGUubWFlPic=

> <r_epik_Ionization_Penalty>
1.6114

> <r_epik_Ionization_Penalty_Charging>
1.61139

> <r_epik_Ionization_Penalty_Neutral>
5.04732e-06

> <r_epik_State_Penalty>
1.63724

> <r_epik_Charging_Adjusted_Penalty>
3.24864

> <i_epik_Tot_Q>
3

> <i_epik_Tot_abs_Q>
3

> <r_epik_Metal_State_Penalty>
5.64594

> <b_epik_Metal_Only>
0

> <s_lp_Force_Field>
OPLS_2005

> <r_lp_Energy>
39.6477

> <b_lp_Chiralities_Consistent>
1

> <s_lp_Variant>
AV-unprocessed.smi:1047-26

> <Gold.Version>
5.8.1

> <Gold.Id.Protein>
6NUR|6NUR_protein|mol2

> <Gold.PLP.Fitness>
62.8887

> <Gold.PLP.PLP>
-49.3742

> <Gold.PLP.part.hbond>
-3.0000

> <Gold.PLP.part.metal>
0.0000

> <Gold.PLP.part.buried>
-5.0823

> <Gold.PLP.part.nonpolar>
-39.6887

> <Gold.PLP.part.repulsive>
0.1582

> <Gold.PLP.ligand.clash>
0.0000

> <Gold.PLP.ligand.torsion>
0.8380

> <Gold.PLP.Chemscore.Hbond>
5.0000

> <Gold.PLP.Chemscore.CHOScore>
0.0000

> <Gold.PLP.Chemscore.Metal>
0.0000

> <Gold.Chemscore.Hbonds>
donor molecule, donor type, donor heavy atom, donor atom, acceptor molecule, acceptor atom, score
      L1  H     3    57       P1 10747  1.00
      L1  H     9    38       P1  7948  2.00
      L1  H    16    58       P1  8028  2.00

> <Gold.PLP.Chemscore.Internal.Correction>
0.1904

> <Gold.Rescore>
     Score         DG    S(hbond)    S(metal)    S(lipo)     H(rot)  DE(clash)    DE(int)     intcor
     20.17     -21.99       2.44        0.00     132.50       2.78       0.08       1.74       ----

> <Gold.Chemscore.Fitness>
20.1711

> <Gold.Chemscore.DG>
-21.9930

> <Gold.Chemscore.ZeroCoef>
-5.4800

> <Gold.Chemscore.Hbond>
2.4370

> <Gold.Chemscore.Metal>
0.0000

> <Gold.Chemscore.Lipo>
132.5011

> <Gold.Chemscore.Internal_Hbond>
0.0000

> <Gold.Chemscore.DEClash>
0.0847

> <Gold.Chemscore.DEInternal>
1.7373

> <Gold.Chemscore.Rot>
2.7848

> <Gold.Chemscore.Internal.Correction>
   9.000000E+99

> <Gold.Chemscore.Hbonds>
donor molecule, donor type, donor heavy atom, donor atom, acceptor molecule, acceptor atom, score
      L1  H     3    57       P1 10747  0.95
      L1  H     9    38       P1  7948  0.38
      L1  H    16    58       P1  8028  0.97

> <Gold.Chemscore.Hbond.Weighted>
-8.1395

> <Gold.Chemscore.Metal.Weighted>
-0.0000

> <Gold.Chemscore.Lipo.Weighted>
-15.5026

> <Gold.Chemscore.Internal_Hbond.Weighted>
0.0000

> <Gold.Chemscore.DEClash.Weighted>
0.0847

> <Gold.Chemscore.DEInternal.Weighted>
1.7373

> <Gold.Chemscore.Rot.Weighted>
7.1291

> <Gold.Chemscore.Internal.Correction.Weighted>
   9.000000E+99

> <Gold.Protein.RotatedTorsions>
[ 6907 6896 6895 6894 ] final  -30.45 input  -60.11 | X-H torsion
[ 7974 7965 7964 7962 ] final  -10.38 input  175.53 | X-H torsion
[ 8008 7997 7996 7995 ] final -162.60 input   59.86 | X-H torsion
[ 10167 10162 10161 10158 ] final -132.96 input  -65.29 | X-H torsion
[ 10718 10713 10712 10709 ] final   70.03 input   66.30 | X-H torsion
[ 10763 10752 10751 10750 ] final  -53.89 input  -60.55 | X-H torsion
[ 11005 11000 10999 10996 ] final  168.90 input  -57.11 | X-H torsion

> <Gold.Protein.ActiveResidues>
 VAL166  LYS551  ARG553  GLY616  TRP617  ASP618  TYR619  PRO620  LYS621  CYS622 
 ASP623  PHE694  ASN695  SER759  ASP760  ASP761  ALA762  ILE779  LEU786  VAL792 
 PHE793  MET794  SER795  GLU796  ALA797  LYS798  CYS799  TRP800  GLU811  SER814 

> <Gold.Protein.RotatedAtoms>
  151.1054  134.9996  159.8468 H   0  0  0  0  0  0  0  0  0  0  0  0  # atno 6907 bound_to 6896
  152.5440  134.1900  159.8680 H   0  0  0  0  0  0  0  0  0  0  0  0  # atno 6908 bound_to 6896
  151.1946  133.4602  159.2628 H   0  0  0  0  0  0  0  0  0  0  0  0  # atno 6909 bound_to 6896
  146.2222  140.2755  142.8359 H   0  0  0  0  0  0  0  0  0  0  0  0  # atno 7974 bound_to 7965
  155.8091  140.0903  157.1914 H   0  0  0  0  0  0  0  0  0  0  0  0  # atno 8008 bound_to 7997
  154.3980  140.1458  156.3425 H   0  0  0  0  0  0  0  0  0  0  0  0  # atno 8009 bound_to 7997
  155.8383  140.3440  155.5618 H   0  0  0  0  0  0  0  0  0  0  0  0  # atno 8010 bound_to 7997
  139.9031  143.6583  152.2591 H   0  0  0  0  0  0  0  0  0  0  0  0  # atno 10167 bound_to 10162
  157.6378  130.9456  150.0594 H   0  0  0  0  0  0  0  0  0  0  0  0  # atno 10718 bound_to 10713
  154.1661  135.6467  153.4998 H   0  0  0  0  0  0  0  0  0  0  0  0  # atno 10763 bound_to 10752
  153.0097  135.5372  154.6661 H   0  0  0  0  0  0  0  0  0  0  0  0  # atno 10764 bound_to 10752
  154.5987  135.2941  155.0530 H   0  0  0  0  0  0  0  0  0  0  0  0  # atno 10765 bound_to 10752
  140.2921  134.7665  157.3847 H   0  0  0  0  0  0  0  0  0  0  0  0  # atno 11005 bound_to 11000
  144.9236  140.7896  143.5733 LP  0  0  0  0  0  0  0  0  0  0  0  0  # atno 17320 bound_to 7965
  145.2693  139.1961  143.4850 LP  0  0  0  0  0  0  0  0  0  0  0  0  # atno 17321 bound_to 7965
  139.7007  144.7635  151.1278 LP  0  0  0  0  0  0  0  0  0  0  0  0  # atno 17342 bound_to 10162
  140.7702  143.5461  150.9257 LP  0  0  0  0  0  0  0  0  0  0  0  0  # atno 17343 bound_to 10162
  156.1631  130.3644  149.9270 LP  0  0  0  0  0  0  0  0  0  0  0  0  # atno 17370 bound_to 10713
  156.7264  130.9026  151.3622 LP  0  0  0  0  0  0  0  0  0  0  0  0  # atno 17371 bound_to 10713
  140.1186  134.5250  155.8203 LP  0  0  0  0  0  0  0  0  0  0  0  0  # atno 17394 bound_to 11000
  141.2144  133.6748  156.6823 LP  0  0  0  0  0  0  0  0  0  0  0  0  # atno 17395 bound_to 11000

$$$$
