AV-unprocessed.smi:1643|AV-procd|sdf|6576|dock2
  -GOLD-   22720 7263D 1   1.00000     0.00000
 Structure written by MMmdl.
 53 55  0  0  0  0  0  0  0  0  1 V2000
  144.8179  137.9401  158.1137 C   0  0  0  0  0  0  0  0  0  0  0  0
  146.0957  137.6118  158.8899 C   0  0  0  0  0  0  0  0  0  0  0  0
  146.1647  137.9558  160.0702 O   0  0  0  0  0  0  0  0  0  0  0  0
  147.1019  136.9619  158.2571 N   0  0  0  0  0  0  0  0  0  0  0  0
  148.3785  136.6639  158.9160 C   0  0  0  0  0  0  0  0  0  0  0  0
  149.3866  137.7988  158.6718 C   0  0  0  0  0  0  0  0  0  0  0  0
  149.6341  138.1320  157.1852 C   0  0  0  0  0  0  0  0  0  0  0  0
  148.4770  138.7396  156.5128 N   0  0  0  0  0  0  0  0  0  0  0  0
  148.8697  139.7085  155.4868 C   0  0  0  0  0  0  0  0  0  0  0  0
  148.9832  141.1690  155.9710 C   0  0  2  0  0  0  0  0  0  0  0  0
  148.1193  141.9714  155.1895 O   0  0  0  0  0  0  0  0  0  0  0  0
  150.4219  141.6998  155.8292 C   0  0  0  0  0  0  0  0  0  0  0  0
  151.3150  141.1481  156.8319 N   0  0  0  0  0  0  0  0  0  0  0  0
  151.9741  139.9744  156.7822 C   0  0  0  0  0  0  0  0  0  0  0  0
  152.7486  139.6678  157.8193 N   0  0  0  0  0  0  0  0  0  0  0  0
  152.5674  140.7692  158.6388 C   0  0  0  0  0  0  0  0  0  0  0  0
  153.1122  141.0702  159.9063 C   0  0  0  0  0  0  0  0  0  0  0  0
  152.7796  142.2720  160.5714 C   0  0  0  0  0  0  0  0  0  0  0  0
  153.3844  142.5530  161.9358 C   0  0  0  0  0  0  0  0  0  0  0  0
  151.8913  143.1971  159.9662 C   0  0  0  0  0  0  0  0  0  0  0  0
  151.5164  144.4931  160.6631 C   0  0  0  0  0  0  0  0  0  0  0  0
  151.3406  142.9134  158.6990 C   0  0  0  0  0  0  0  0  0  0  0  0
  151.6763  141.7127  158.0494 C   0  0  0  0  0  0  0  0  0  0  0  0
  147.5882  137.7293  155.9189 C   0  0  0  0  0  0  0  0  0  0  0  0
  147.0859  136.5922  156.8373 C   0  0  0  0  0  0  0  0  0  0  0  0
  145.0408  138.5318  157.2262 H   0  0  0  0  0  0  0  0  0  0  0  0
  144.1313  138.5183  158.7328 H   0  0  0  0  0  0  0  0  0  0  0  0
  144.3045  137.0273  157.8113 H   0  0  0  0  0  0  0  0  0  0  0  0
  148.2427  136.5154  159.9884 H   0  0  0  0  0  0  0  0  0  0  0  0
  148.7902  135.7210  158.5547 H   0  0  0  0  0  0  0  0  0  0  0  0
  149.0543  138.7001  159.1891 H   0  0  0  0  0  0  0  0  0  0  0  0
  150.3352  137.5246  159.1339 H   0  0  0  0  0  0  0  0  0  0  0  0
  150.4855  138.8096  157.1580 H   0  0  0  0  0  0  0  0  0  0  0  0
  149.9654  137.2450  156.6433 H   0  0  0  0  0  0  0  0  0  0  0  0
  149.8198  139.3944  155.0518 H   0  0  0  0  0  0  0  0  0  0  0  0
  148.1508  139.6883  154.6660 H   0  0  0  0  0  0  0  0  0  0  0  0
  148.6788  141.2637  157.0126 H   0  0  0  0  0  0  0  0  0  0  0  0
  148.1415  142.8532  155.5283 H   0  0  0  0  0  0  0  0  0  0  0  0
  150.8212  141.4472  154.8460 H   0  0  0  0  0  0  0  0  0  0  0  0
  150.4396  142.7884  155.9022 H   0  0  0  0  0  0  0  0  0  0  0  0
  151.8838  139.3102  155.9349 H   0  0  0  0  0  0  0  0  0  0  0  0
  153.7894  140.3657  160.3665 H   0  0  0  0  0  0  0  0  0  0  0  0
  152.6006  142.6836  162.6821 H   0  0  0  0  0  0  0  0  0  0  0  0
  153.9896  143.4594  161.9056 H   0  0  0  0  0  0  0  0  0  0  0  0
  154.0247  141.7340  162.2640 H   0  0  0  0  0  0  0  0  0  0  0  0
  150.8595  145.1030  160.0419 H   0  0  0  0  0  0  0  0  0  0  0  0
  152.4071  145.0815  160.8850 H   0  0  0  0  0  0  0  0  0  0  0  0
  150.9954  144.2852  161.5981 H   0  0  0  0  0  0  0  0  0  0  0  0
  150.6630  143.6086  158.2257 H   0  0  0  0  0  0  0  0  0  0  0  0
  146.7099  138.2424  155.5256 H   0  0  0  0  0  0  0  0  0  0  0  0
  148.0718  137.2801  155.0501 H   0  0  0  0  0  0  0  0  0  0  0  0
  147.7198  135.7194  156.6788 H   0  0  0  0  0  0  0  0  0  0  0  0
  146.0979  136.2589  156.5186 H   0  0  0  0  0  0  0  0  0  0  0  0
  1  2  1  0  0  0  0
  1 26  1  0  0  0  0
  1 27  1  0  0  0  0
  1 28  1  0  0  0  0
  2  3  2  0  0  0  0
  2  4  1  0  0  0  0
  4 25  1  0  0  0  0
  4  5  1  0  0  0  0
  5  6  1  0  0  0  0
  5 29  1  0  0  0  0
  5 30  1  0  0  0  0
  6  7  1  0  0  0  0
  6 31  1  0  0  0  0
  6 32  1  0  0  0  0
  7  8  1  0  0  0  0
  7 33  1  0  0  0  0
  7 34  1  0  0  0  0
  8  9  1  0  0  0  0
  8 24  1  0  0  0  0
  9 10  1  0  0  0  0
  9 35  1  0  0  0  0
  9 36  1  0  0  0  0
 10 11  1  0  0  0  0
 10 12  1  0  0  0  0
 10 37  1  0  0  0  0
 11 38  1  0  0  0  0
 12 13  1  0  0  0  0
 12 39  1  0  0  0  0
 12 40  1  0  0  0  0
 13 23  1  0  0  0  0
 13 14  1  0  0  0  0
 14 15  2  0  0  0  0
 14 41  1  0  0  0  0
 15 16  1  0  0  0  0
 16 23  2  0  0  0  0
 16 17  1  0  0  0  0
 17 18  2  0  0  0  0
 17 42  1  0  0  0  0
 18 19  1  0  0  0  0
 18 20  1  0  0  0  0
 19 43  1  0  0  0  0
 19 44  1  0  0  0  0
 19 45  1  0  0  0  0
 20 21  1  0  0  0  0
 20 22  2  0  0  0  0
 21 46  1  0  0  0  0
 21 47  1  0  0  0  0
 21 48  1  0  0  0  0
 22 23  1  0  0  0  0
 22 49  1  0  0  0  0
 24 25  1  0  0  0  0
 24 50  1  0  0  0  0
 24 51  1  0  0  0  0
 25 52  1  0  0  0  0
 25 53  1  0  0  0  0
M  END
> <s_m_source_file>
AV-unprocessed.smi

> <i_m_source_file_index>
1643

> <i_lp_mmshare_version>
43012

> <i_f3d_flags>
0

> <s_epik_input>
W0NIM11DKD1PKU4xW0NIMl1bQ0gyXVtDSDJdTihbQ0gyXVtDSDJdMSlbQ0gyXVtDQEhdKFtPSF0pW0NIMl1uKFtjSF1uMiljKGMyMylbY0hdYyhbQ0gzXSljKFtjSF0zKVtDSDNd

> <s_epik_cmdline>
J2VwaWtfcHl0aG9uJywgJy1waCcsICc3LjAnLCAnLXRuJywgJzgnLCAnLW1hJywgJzIwMCcsICctbWV0YWxfYmluZGluZycsICctaW1hZScsICc8aW5maWxlLm1hZT4nLCAnLW9tYWUnLCAnPG91dGZpbGUubWFlPic=

> <r_epik_Ionization_Penalty>
1.17666

> <r_epik_Ionization_Penalty_Charging>
0

> <r_epik_Ionization_Penalty_Neutral>
1.17666

> <r_epik_State_Penalty>
1.20405

> <r_epik_Charging_Adjusted_Penalty>
1.20405

> <i_epik_Tot_Q>
0

> <i_epik_Tot_abs_Q>
0

> <r_epik_Metal_State_Penalty>
1.13307

> <b_epik_Metal_Only>
0

> <s_lp_Force_Field>
OPLS_2005

> <r_lp_Energy>
48.9616

> <b_lp_Chiralities_Consistent>
1

> <s_lp_Variant>
AV-unprocessed.smi:1643-5

> <Gold.Version>
5.8.1

> <Gold.Id.Protein>
6NUR|6NUR_protein|mol2

> <Gold.PLP.Fitness>
44.5139

> <Gold.PLP.PLP>
-38.7902

> <Gold.PLP.part.hbond>
-3.0000

> <Gold.PLP.part.metal>
0.0000

> <Gold.PLP.part.buried>
-6.6515

> <Gold.PLP.part.nonpolar>
-29.6827

> <Gold.PLP.part.repulsive>
0.0000

> <Gold.PLP.ligand.clash>
0.0000

> <Gold.PLP.ligand.torsion>
1.6506

> <Gold.PLP.Chemscore.Hbond>
3.0000

> <Gold.PLP.Chemscore.CHOScore>
0.0000

> <Gold.PLP.Chemscore.Metal>
0.0000

> <Gold.Chemscore.Hbonds>
donor molecule, donor type, donor heavy atom, donor atom, acceptor molecule, acceptor atom, score
      L1  H    11    38       P1  8028  1.00
      P1  H  6934  6947       L1     3  0.99
      P1  H  7997  8009       L1    15  0.98

> <Gold.PLP.Chemscore.Internal.Correction>
0.0250

> <Gold.Rescore>
     Score         DG    S(hbond)    S(metal)    S(lipo)     H(rot)  DE(clash)    DE(int)     intcor
     17.08     -18.94       1.94        0.00     104.76       2.07       0.05       1.82       ----

> <Gold.Chemscore.Fitness>
17.0806

> <Gold.Chemscore.DG>
-18.9419

> <Gold.Chemscore.ZeroCoef>
-5.4800

> <Gold.Chemscore.Hbond>
1.9435

> <Gold.Chemscore.Metal>
0.0000

> <Gold.Chemscore.Lipo>
104.7621

> <Gold.Chemscore.Internal_Hbond>
0.0000

> <Gold.Chemscore.DEClash>
0.0460

> <Gold.Chemscore.DEInternal>
1.8152

> <Gold.Chemscore.Rot>
2.0650

> <Gold.Chemscore.Internal.Correction>
   9.000000E+99

> <Gold.Chemscore.Hbonds>
donor molecule, donor type, donor heavy atom, donor atom, acceptor molecule, acceptor atom, score
      L1  H    11    38       P1  8028  0.89
      P1  H  6934  6947       L1     3  0.93
      P1  H  7997  8009       L1    15  0.09

> <Gold.Chemscore.Hbond.Weighted>
-6.4912

> <Gold.Chemscore.Metal.Weighted>
-0.0000

> <Gold.Chemscore.Lipo.Weighted>
-12.2572

> <Gold.Chemscore.Internal_Hbond.Weighted>
0.0000

> <Gold.Chemscore.DEClash.Weighted>
0.0460

> <Gold.Chemscore.DEInternal.Weighted>
1.8152

> <Gold.Chemscore.Rot.Weighted>
5.2865

> <Gold.Chemscore.Internal.Correction.Weighted>
   9.000000E+99

> <Gold.Protein.RotatedTorsions>
[ 6907 6896 6895 6894 ] final  107.84 input  -60.11 | X-H torsion
[ 7974 7965 7964 7962 ] final -134.89 input  175.53 | X-H torsion
[ 8008 7997 7996 7995 ] final  153.04 input   59.86 | X-H torsion
[ 10167 10162 10161 10158 ] final  155.82 input  -65.29 | X-H torsion
[ 10718 10713 10712 10709 ] final  127.42 input   66.30 | X-H torsion
[ 10763 10752 10751 10750 ] final -101.82 input  -60.55 | X-H torsion
[ 11005 11000 10999 10996 ] final   48.84 input  -57.11 | X-H torsion

> <Gold.Protein.ActiveResidues>
 VAL166  LYS551  ARG553  GLY616  TRP617  ASP618  TYR619  PRO620  LYS621  CYS622 
 ASP623  PHE694  ASN695  SER759  ASP760  ASP761  ALA762  ILE779  LEU786  VAL792 
 PHE793  MET794  SER795  GLU796  ALA797  LYS798  CYS799  TRP800  GLU811  SER814 

> <Gold.Protein.RotatedAtoms>
  152.5138  133.9176  159.7518 H   0  0  0  0  0  0  0  0  0  0  0  0  # atno 6907 bound_to 6896
  150.9555  133.6493  159.2771 H   0  0  0  0  0  0  0  0  0  0  0  0  # atno 6908 bound_to 6896
  151.3757  135.0936  159.9532 H   0  0  0  0  0  0  0  0  0  0  0  0  # atno 6909 bound_to 6896
  144.9062  140.6836  143.5053 H   0  0  0  0  0  0  0  0  0  0  0  0  # atno 7974 bound_to 7965
  156.2600  140.2004  156.6428 H   0  0  0  0  0  0  0  0  0  0  0  0  # atno 8008 bound_to 7997
  154.6596  140.0562  157.0072 H   0  0  0  0  0  0  0  0  0  0  0  0  # atno 8009 bound_to 7997
  155.1296  140.3232  155.4480 H   0  0  0  0  0  0  0  0  0  0  0  0  # atno 8010 bound_to 7997
  139.4821  144.5064  151.8091 H   0  0  0  0  0  0  0  0  0  0  0  0  # atno 10167 bound_to 10162
  157.5334  131.1098  150.8973 H   0  0  0  0  0  0  0  0  0  0  0  0  # atno 10718 bound_to 10713
  154.7687  135.4883  153.9606 H   0  0  0  0  0  0  0  0  0  0  0  0  # atno 10763 bound_to 10752
  153.1340  135.6759  153.9139 H   0  0  0  0  0  0  0  0  0  0  0  0  # atno 10764 bound_to 10752
  153.8834  135.3129  155.3424 H   0  0  0  0  0  0  0  0  0  0  0  0  # atno 10765 bound_to 10752
  140.1155  134.4898  155.8641 H   0  0  0  0  0  0  0  0  0  0  0  0  # atno 11005 bound_to 11000
  145.3531  139.1701  143.4424 LP  0  0  0  0  0  0  0  0  0  0  0  0  # atno 17320 bound_to 7965
  146.3135  140.3585  142.8662 LP  0  0  0  0  0  0  0  0  0  0  0  0  # atno 17321 bound_to 7965
  140.4563  144.1785  150.5902 LP  0  0  0  0  0  0  0  0  0  0  0  0  # atno 17342 bound_to 10162
  140.4532  143.2478  151.9320 LP  0  0  0  0  0  0  0  0  0  0  0  0  # atno 17343 bound_to 10162
  156.9547  130.5433  149.5283 LP  0  0  0  0  0  0  0  0  0  0  0  0  # atno 17370 bound_to 10713
  156.0440  130.5519  150.8837 LP  0  0  0  0  0  0  0  0  0  0  0  0  # atno 17371 bound_to 10713
  141.2140  133.6742  156.6788 LP  0  0  0  0  0  0  0  0  0  0  0  0  # atno 17394 bound_to 11000
  140.3034  134.8145  157.4116 LP  0  0  0  0  0  0  0  0  0  0  0  0  # atno 17395 bound_to 11000

$$$$
