AV-unprocessed.smi:3057|AV-procd|sdf|11663|dock7
  -GOLD-   2272017 63D 1   1.00000     0.00000
 Structure written by MMmdl.
 40 42  0  0  0  0  0  0  0  0  1 V2000
  147.1591  141.8875  154.5676 C   0  0  0  0  0  0  0  0  0  0  0  0
  147.6963  140.7303  155.4355 C   0  0  1  0  0  0  0  0  0  0  0  0
  147.2694  139.3655  154.8724 C   0  0  0  0  0  0  0  0  0  0  0  0
  148.4201  138.9769  153.9307 C   0  0  0  0  0  0  0  0  0  0  0  0
  149.5892  139.7735  154.4921 C   0  0  0  0  0  0  0  0  0  0  0  0
  150.7617  139.5512  154.1939 O   0  0  0  0  0  0  0  0  0  0  0  0
  149.1455  140.6740  155.3832 N   0  0  0  0  0  0  0  0  0  0  0  0
  149.8758  141.4044  156.4308 C   0  0  2  0  0  0  0  0  0  0  0  0
  150.8668  140.5362  157.2298 C   0  0  0  0  0  0  0  0  0  0  0  0
  151.1368  139.3909  156.8656 O   0  0  0  0  0  0  0  0  0  0  0  0
  151.3686  141.0884  158.3449 N   0  0  0  0  0  0  0  0  0  0  0  0
  152.2958  140.4397  159.2681 C   0  0  0  0  0  0  0  0  0  0  0  0
  153.2446  141.4255  159.9829 C   0  0  0  0  0  0  0  0  0  0  0  0
  152.7955  142.8754  159.9098 C   0  0  0  0  0  0  0  0  0  0  0  0
  152.9473  143.6157  158.7173 C   0  0  0  0  0  0  0  0  0  0  0  0
  152.5302  144.9602  158.7034 C   0  0  0  0  0  0  0  0  0  0  0  0
  151.9769  145.5096  159.8759 C   0  0  0  0  0  0  0  0  0  0  0  0
  151.8637  144.6858  161.0138 C   0  0  0  0  0  0  0  0  0  0  0  0
  152.2619  143.3953  161.0382 N   0  0  0  0  0  0  0  0  0  0  0  0
  148.8083  142.0415  157.3473 C   0  0  0  0  0  0  0  0  0  0  0  0
  147.3348  140.9978  157.1833 S   0  0  0  0  0  0  0  0  0  0  0  0
  147.4277  141.7601  153.5184 H   0  0  0  0  0  0  0  0  0  0  0  0
  147.5513  142.8532  154.8864 H   0  0  0  0  0  0  0  0  0  0  0  0
  146.0717  141.9425  154.6231 H   0  0  0  0  0  0  0  0  0  0  0  0
  147.1900  138.6287  155.6735 H   0  0  0  0  0  0  0  0  0  0  0  0
  146.3061  139.4012  154.3625 H   0  0  0  0  0  0  0  0  0  0  0  0
  148.6168  137.9046  153.9377 H   0  0  0  0  0  0  0  0  0  0  0  0
  148.2247  139.2951  152.9062 H   0  0  0  0  0  0  0  0  0  0  0  0
  150.4431  142.1990  155.9435 H   0  0  0  0  0  0  0  0  0  0  0  0
  151.0842  142.0295  158.5757 H   0  0  0  0  0  0  0  0  0  0  0  0
  151.7448  139.8445  159.9978 H   0  0  0  0  0  0  0  0  0  0  0  0
  152.8868  139.7357  158.6817 H   0  0  0  0  0  0  0  0  0  0  0  0
  153.3436  141.1421  161.0313 H   0  0  0  0  0  0  0  0  0  0  0  0
  154.2461  141.3422  159.5591 H   0  0  0  0  0  0  0  0  0  0  0  0
  153.3829  143.1675  157.8361 H   0  0  0  0  0  0  0  0  0  0  0  0
  152.6354  145.5588  157.8106 H   0  0  0  0  0  0  0  0  0  0  0  0
  151.6468  146.5374  159.9024 H   0  0  0  0  0  0  0  0  0  0  0  0
  151.4431  145.0746  161.9294 H   0  0  0  0  0  0  0  0  0  0  0  0
  149.1161  142.1221  158.3900 H   0  0  0  0  0  0  0  0  0  0  0  0
  148.5655  143.0466  157.0027 H   0  0  0  0  0  0  0  0  0  0  0  0
  1  2  1  0  0  0  0
  1 22  1  0  0  0  0
  1 23  1  0  0  0  0
  1 24  1  0  0  0  0
  2  7  1  0  0  0  0
  2 21  1  0  0  0  0
  2  3  1  0  0  0  0
  3  4  1  0  0  0  0
  3 25  1  0  0  0  0
  3 26  1  0  0  0  0
  4  5  1  0  0  0  0
  4 27  1  0  0  0  0
  4 28  1  0  0  0  0
  5  6  2  0  0  0  0
  5  7  1  0  0  0  0
  7  8  1  0  0  0  0
  8  9  1  0  0  0  0
  8 20  1  0  0  0  0
  8 29  1  0  0  0  0
  9 10  2  0  0  0  0
  9 11  1  0  0  0  0
 11 12  1  0  0  0  0
 11 30  1  0  0  0  0
 12 13  1  0  0  0  0
 12 31  1  0  0  0  0
 12 32  1  0  0  0  0
 13 14  1  0  0  0  0
 13 33  1  0  0  0  0
 13 34  1  0  0  0  0
 14 19  1  0  0  0  0
 14 15  2  0  0  0  0
 15 16  1  0  0  0  0
 15 35  1  0  0  0  0
 16 17  2  0  0  0  0
 16 36  1  0  0  0  0
 17 18  1  0  0  0  0
 17 37  1  0  0  0  0
 18 19  2  0  0  0  0
 18 38  1  0  0  0  0
 20 21  1  0  0  0  0
 20 39  1  0  0  0  0
 20 40  1  0  0  0  0
M  END
> <s_m_source_file>
AV-unprocessed.smi

> <i_m_source_file_index>
3057

> <i_lp_mmshare_version>
43012

> <i_f3d_flags>
0

> <s_epik_input>
W0NIMl0xW0NIMl1DKD1PKU4oW0NAQF0xMltDSDNdKVtDQEhdKFtDSDJdUzIpQyg9TylbTkhdW0NIMl1bQ0gyXWMzW2NIXVtjSF1bY0hdW2NIXW4z

> <s_epik_cmdline>
J2VwaWtfcHl0aG9uJywgJy1waCcsICc3LjAnLCAnLXRuJywgJzgnLCAnLW1hJywgJzIwMCcsICctbWV0YWxfYmluZGluZycsICctaW1hZScsICc8aW5maWxlLm1hZT4nLCAnLW9tYWUnLCAnPG91dGZpbGUubWFlPic=

> <r_epik_Ionization_Penalty>
0.0249631

> <r_epik_Ionization_Penalty_Charging>
0

> <r_epik_Ionization_Penalty_Neutral>
0.0249631

> <r_epik_State_Penalty>
0.0202943

> <r_epik_Charging_Adjusted_Penalty>
0.0202943

> <i_epik_Tot_Q>
0

> <i_epik_Tot_abs_Q>
0

> <r_epik_Metal_State_Penalty>
0.0194661

> <b_epik_Metal_Only>
0

> <s_lp_Force_Field>
OPLS_2005

> <r_lp_Energy>
26.5663

> <b_lp_Chiralities_Consistent>
1

> <s_lp_Variant>
AV-unprocessed.smi:3057-3

> <Gold.Version>
5.8.1

> <Gold.Id.Protein>
6NUR|6NUR_protein|mol2

> <Gold.PLP.Fitness>
43.4411

> <Gold.PLP.PLP>
-42.2933

> <Gold.PLP.part.hbond>
-1.0000

> <Gold.PLP.part.metal>
0.0000

> <Gold.PLP.part.buried>
-3.3529

> <Gold.PLP.part.nonpolar>
-37.8895

> <Gold.PLP.part.repulsive>
0.3775

> <Gold.PLP.ligand.clash>
0.0000

> <Gold.PLP.ligand.torsion>
0.9307

> <Gold.PLP.Chemscore.Hbond>
1.0000

> <Gold.PLP.Chemscore.CHOScore>
0.0000

> <Gold.PLP.Chemscore.Metal>
0.0000

> <Gold.Chemscore.Hbonds>
donor molecule, donor type, donor heavy atom, donor atom, acceptor molecule, acceptor atom, score
      P1  H  7989  7998       L1     6  1.00

> <Gold.PLP.Chemscore.Internal.Correction>
0.0091

> <Gold.Rescore>
     Score         DG    S(hbond)    S(metal)    S(lipo)     H(rot)  DE(clash)    DE(int)     intcor
     13.87     -17.78       0.98        0.00     110.82       1.53       0.13       3.78       ----

> <Gold.Chemscore.Fitness>
13.8720

> <Gold.Chemscore.DG>
-17.7790

> <Gold.Chemscore.ZeroCoef>
-5.4800

> <Gold.Chemscore.Hbond>
0.9759

> <Gold.Chemscore.Metal>
0.0000

> <Gold.Chemscore.Lipo>
110.8238

> <Gold.Chemscore.Internal_Hbond>
0.0000

> <Gold.Chemscore.DEClash>
0.1306

> <Gold.Chemscore.DEInternal>
3.7764

> <Gold.Chemscore.Rot>
1.5339

> <Gold.Chemscore.Internal.Correction>
   9.000000E+99

> <Gold.Chemscore.Hbonds>
donor molecule, donor type, donor heavy atom, donor atom, acceptor molecule, acceptor atom, score
      P1  H  7989  7998       L1     6  0.93

> <Gold.Chemscore.Hbond.Weighted>
-3.2593

> <Gold.Chemscore.Metal.Weighted>
-0.0000

> <Gold.Chemscore.Lipo.Weighted>
-12.9664

> <Gold.Chemscore.Internal_Hbond.Weighted>
0.0000

> <Gold.Chemscore.DEClash.Weighted>
0.1306

> <Gold.Chemscore.DEInternal.Weighted>
3.7764

> <Gold.Chemscore.Rot.Weighted>
3.9267

> <Gold.Chemscore.Internal.Correction.Weighted>
   9.000000E+99

> <Gold.Protein.RotatedTorsions>
[ 6907 6896 6895 6894 ] final   79.42 input  -60.11 | X-H torsion
[ 7974 7965 7964 7962 ] final  100.30 input  175.53 | X-H torsion
[ 8008 7997 7996 7995 ] final  -97.84 input   59.86 | X-H torsion
[ 10167 10162 10161 10158 ] final  127.05 input  -65.29 | X-H torsion
[ 10718 10713 10712 10709 ] final -164.00 input   66.30 | X-H torsion
[ 10763 10752 10751 10750 ] final   16.40 input  -60.55 | X-H torsion
[ 11005 11000 10999 10996 ] final  -53.75 input  -57.11 | X-H torsion

> <Gold.Protein.ActiveResidues>
 VAL166  LYS551  ARG553  GLY616  TRP617  ASP618  TYR619  PRO620  LYS621  CYS622 
 ASP623  PHE694  ASN695  SER759  ASP760  ASP761  ALA762  ILE779  LEU786  VAL792 
 PHE793  MET794  SER795  GLU796  ALA797  LYS798  CYS799  TRP800  GLU811  SER814 

> <Gold.Protein.RotatedAtoms>
  152.5197  134.3514  159.9252 H   0  0  0  0  0  0  0  0  0  0  0  0  # atno 6907 bound_to 6896
  151.3465  133.3935  159.2684 H   0  0  0  0  0  0  0  0  0  0  0  0  # atno 6908 bound_to 6896
  150.9761  134.9144  159.7875 H   0  0  0  0  0  0  0  0  0  0  0  0  # atno 6909 bound_to 6896
  145.3874  139.2369  143.3370 H   0  0  0  0  0  0  0  0  0  0  0  0  # atno 7974 bound_to 7965
  154.7932  140.0460  157.1216 H   0  0  0  0  0  0  0  0  0  0  0  0  # atno 8008 bound_to 7997
  154.9567  140.3072  155.5030 H   0  0  0  0  0  0  0  0  0  0  0  0  # atno 8009 bound_to 7997
  156.2952  140.2278  156.4649 H   0  0  0  0  0  0  0  0  0  0  0  0  # atno 8010 bound_to 7997
  139.5599  144.6874  151.4074 H   0  0  0  0  0  0  0  0  0  0  0  0  # atno 10167 bound_to 10162
  156.6328  130.8936  151.2981 H   0  0  0  0  0  0  0  0  0  0  0  0  # atno 10718 bound_to 10713
  153.1434  135.6764  153.8992 H   0  0  0  0  0  0  0  0  0  0  0  0  # atno 10763 bound_to 10752
  153.8441  135.3101  155.3429 H   0  0  0  0  0  0  0  0  0  0  0  0  # atno 10764 bound_to 10752
  154.7806  135.4890  153.9920 H   0  0  0  0  0  0  0  0  0  0  0  0  # atno 10765 bound_to 10752
  141.0992  133.6620  156.4219 H   0  0  0  0  0  0  0  0  0  0  0  0  # atno 11005 bound_to 11000
  146.2813  140.4551  142.8775 LP  0  0  0  0  0  0  0  0  0  0  0  0  # atno 17320 bound_to 7965
  144.8464  140.6936  143.6196 LP  0  0  0  0  0  0  0  0  0  0  0  0  # atno 17321 bound_to 7965
  140.6877  143.7935  150.7210 LP  0  0  0  0  0  0  0  0  0  0  0  0  # atno 17342 bound_to 10162
  140.1408  143.4443  152.2195 LP  0  0  0  0  0  0  0  0  0  0  0  0  # atno 17343 bound_to 10162
  157.7195  130.9539  150.1382 LP  0  0  0  0  0  0  0  0  0  0  0  0  # atno 17370 bound_to 10713
  156.2221  130.3675  149.8544 LP  0  0  0  0  0  0  0  0  0  0  0  0  # atno 17371 bound_to 10713
  140.5065  134.6436  157.5268 LP  0  0  0  0  0  0  0  0  0  0  0  0  # atno 17394 bound_to 11000
  139.9837  134.7095  155.9812 LP  0  0  0  0  0  0  0  0  0  0  0  0  # atno 17395 bound_to 11000

$$$$
