AV-unprocessed.smi:1042|AV-procd|sdf|4538|dock8
  -GOLD-   22720 2563D 1   1.00000     0.00000
 Structure written by MMmdl.
 40 42  0  0  0  0  0  0  0  0  2 V2000
  146.2133  139.0673  154.2598 O   0  0  0  0  0  0  0  0  0  0  0  0
  147.0162  138.3491  153.6636 C   0  0  0  0  0  0  0  0  0  0  0  0
  146.6471  137.3602  152.8364 N   0  0  0  0  0  0  0  0  0  0  0  0
  145.2680  136.9874  152.5366 C   0  0  0  0  0  0  0  0  0  0  0  0
  145.1780  135.7871  151.5736 C   0  0  2  0  0  0  0  0  0  0  0  0
  145.0079  136.1769  150.1086 C   0  0  0  0  0  0  0  0  0  0  0  0
  144.4841  134.8863  149.4846 C   0  0  0  0  0  0  0  0  0  0  0  0
  143.6072  134.2807  150.5097 N   0  3  1  0  0  0  0  0  0  0  0  0
  143.5704  132.8032  150.4692 C   0  0  0  0  0  0  0  0  0  0  0  0
  144.9035  132.1736  150.1428 C   0  0  0  0  0  0  0  0  0  0  0  0
  143.8147  132.2321  149.0930 C   0  0  0  0  0  0  0  0  0  0  0  0
  143.9939  134.8414  151.8259 C   0  0  0  0  0  0  0  0  0  0  0  0
  148.3552  138.4410  153.7461 N   0  0  0  0  0  0  0  0  0  0  0  0
  149.1263  139.3772  154.4854 C   0  0  0  0  0  0  0  0  0  0  0  0
  150.4708  139.0028  154.7071 C   0  0  0  0  0  0  0  0  0  0  0  0
  151.3200  139.8645  155.4283 C   0  0  0  0  0  0  0  0  0  0  0  0
  150.8029  141.0812  155.9071 C   0  0  0  0  0  0  0  0  0  0  0  0
  149.4535  141.3785  155.6412 C   0  0  0  0  0  0  0  0  0  0  0  0
  148.6377  140.5537  154.9510 N   0  0  0  0  0  0  0  0  0  0  0  0
  147.3727  136.8145  152.3949 H   0  0  0  0  0  0  0  0  0  0  0  0
  144.7732  136.7491  153.4787 H   0  0  0  0  0  0  0  0  0  0  0  0
  144.7391  137.8460  152.1196 H   0  0  0  0  0  0  0  0  0  0  0  0
  146.0959  135.2010  151.6469 H   0  0  0  0  0  0  0  0  0  0  0  0
  144.2643  136.9691  150.0073 H   0  0  0  0  0  0  0  0  0  0  0  0
  145.9356  136.5217  149.6506 H   0  0  0  0  0  0  0  0  0  0  0  0
  143.9485  135.0572  148.5505 H   0  0  0  0  0  0  0  0  0  0  0  0
  145.3227  134.2203  149.2736 H   0  0  0  0  0  0  0  0  0  0  0  0
  142.8813  132.3152  151.1567 H   0  0  0  0  0  0  0  0  0  0  0  0
  145.7642  132.8272  150.0118 H   0  0  0  0  0  0  0  0  0  0  0  0
  145.1209  131.2019  150.5818 H   0  0  0  0  0  0  0  0  0  0  0  0
  143.3159  131.2987  148.8404 H   0  0  0  0  0  0  0  0  0  0  0  0
  143.9514  132.9247  148.2643 H   0  0  0  0  0  0  0  0  0  0  0  0
  144.2536  134.0678  152.5507 H   0  0  0  0  0  0  0  0  0  0  0  0
  143.1365  135.3865  152.2227 H   0  0  0  0  0  0  0  0  0  0  0  0
  148.8861  137.7670  153.2149 H   0  0  0  0  0  0  0  0  0  0  0  0
  150.8526  138.0643  154.3318 H   0  0  0  0  0  0  0  0  0  0  0  0
  152.3503  139.5959  155.6101 H   0  0  0  0  0  0  0  0  0  0  0  0
  151.4230  141.7682  156.4637 H   0  0  0  0  0  0  0  0  0  0  0  0
  149.0175  142.3023  155.9915 H   0  0  0  0  0  0  0  0  0  0  0  0
  142.6708  134.6116  150.3258 H   0  0  0  0  0  0  0  0  0  0  0  0
  1  2  2  0  0  0  0
  2  3  1  0  0  0  0
  2 13  1  0  0  0  0
  3  4  1  0  0  0  0
  3 20  1  0  0  0  0
  4  5  1  0  0  0  0
  4 21  1  0  0  0  0
  4 22  1  0  0  0  0
  5 12  1  0  0  0  0
  5  6  1  0  0  0  0
  5 23  1  0  0  0  0
  6  7  1  0  0  0  0
  6 24  1  0  0  0  0
  6 25  1  0  0  0  0
  7  8  1  0  0  0  0
  7 26  1  0  0  0  0
  7 27  1  0  0  0  0
  8  9  1  0  0  0  0
  8 12  1  0  0  0  0
  8 40  1  0  0  0  0
  9 11  1  0  0  0  0
  9 10  1  0  0  0  0
  9 28  1  0  0  0  0
 10 11  1  0  0  0  0
 10 29  1  0  0  0  0
 10 30  1  0  0  0  0
 11 31  1  0  0  0  0
 11 32  1  0  0  0  0
 12 33  1  0  0  0  0
 12 34  1  0  0  0  0
 13 14  1  0  0  0  0
 13 35  1  0  0  0  0
 14 19  1  0  0  0  0
 14 15  2  0  0  0  0
 15 16  1  0  0  0  0
 15 36  1  0  0  0  0
 16 17  2  0  0  0  0
 16 37  1  0  0  0  0
 17 18  1  0  0  0  0
 17 38  1  0  0  0  0
 18 19  2  0  0  0  0
 18 39  1  0  0  0  0
M  CHG  1   8   1
M  END
> <s_m_source_file>
AV-unprocessed.smi

> <i_m_source_file_index>
1042

> <i_lp_mmshare_version>
43012

> <i_f3d_flags>
0

> <s_epik_input>
bjFbY0hdW2NIXVtjSF1bY0hdYzFbTkhdQyg9TylbTkhdW0NIMl1bQ0BASF0yW0NIMl1bQ0gyXU4oW0NIMl0yKVtDSF0zW0NIMl1bQ0gyXTM=

> <s_epik_cmdline>
J2VwaWtfcHl0aG9uJywgJy1waCcsICc3LjAnLCAnLXRuJywgJzgnLCAnLW1hJywgJzIwMCcsICctbWV0YWxfYmluZGluZycsICctaW1hZScsICc8aW5maWxlLm1hZT4nLCAnLW9tYWUnLCAnPG91dGZpbGUubWFlPic=

> <r_lp_tautomer_probability>
1

> <r_epik_Ionization_Penalty>
0.000244736

> <r_epik_Ionization_Penalty_Charging>
0.000203384

> <r_epik_Ionization_Penalty_Neutral>
4.13519e-05

> <r_epik_State_Penalty>
-0

> <r_epik_Charging_Adjusted_Penalty>
0.000203384

> <i_epik_Tot_Q>
1

> <i_epik_Tot_abs_Q>
1

> <r_epik_Metal_State_Penalty>
-0

> <b_epik_Metal_Only>
0

> <s_lp_Force_Field>
OPLS_2005

> <r_lp_Energy>
38.555

> <b_lp_Chiralities_Consistent>
1

> <s_lp_Variant>
AV-unprocessed.smi:1042-3

> <Gold.Version>
5.8.1

> <Gold.Id.Protein>
6NUR|6NUR_protein|mol2

> <Gold.PLP.Fitness>
45.5197

> <Gold.PLP.PLP>
-31.6854

> <Gold.PLP.part.hbond>
-3.0408

> <Gold.PLP.part.metal>
0.0000

> <Gold.PLP.part.buried>
4.5270

> <Gold.PLP.part.nonpolar>
-33.8804

> <Gold.PLP.part.repulsive>
0.2332

> <Gold.PLP.ligand.clash>
0.0000

> <Gold.PLP.ligand.torsion>
1.1756

> <Gold.PLP.Chemscore.Hbond>
3.9753

> <Gold.PLP.Chemscore.CHOScore>
1.0000

> <Gold.PLP.Chemscore.Metal>
0.0000

> <Gold.Chemscore.Hbonds>
donor molecule, donor type, donor heavy atom, donor atom, acceptor molecule, acceptor atom, score
      L1  H     3    20       P1  7948  1.00
      L1  H     8    40       P1 10186  2.00
      L1  H    13    35       P1  7948  1.00
      L1  C    18    39       P1  8028  1.00

> <Gold.PLP.Chemscore.Internal.Correction>
1.2596

> <Gold.Rescore>
     Score         DG    S(hbond)    S(metal)    S(lipo)     H(rot)  DE(clash)    DE(int)     intcor
     16.00     -22.45       2.94        0.00      93.20       1.47       4.11       2.34       ----

> <Gold.Chemscore.Fitness>
16.0026

> <Gold.Chemscore.DG>
-22.4491

> <Gold.Chemscore.ZeroCoef>
-5.4800

> <Gold.Chemscore.Hbond>
2.9431

> <Gold.Chemscore.Metal>
0.0000

> <Gold.Chemscore.Lipo>
93.1982

> <Gold.Chemscore.Internal_Hbond>
0.0000

> <Gold.Chemscore.DEClash>
4.1114

> <Gold.Chemscore.DEInternal>
2.3351

> <Gold.Chemscore.Rot>
1.4707

> <Gold.Chemscore.Internal.Correction>
   9.000000E+99

> <Gold.Chemscore.Hbonds>
donor molecule, donor type, donor heavy atom, donor atom, acceptor molecule, acceptor atom, score
      L1  H     3    20       P1  7948  1.00
      L1  H     8    40       P1 10186  0.43
      L1  H    13    35       P1  7948  0.89

> <Gold.Chemscore.Hbond.Weighted>
-9.8299

> <Gold.Chemscore.Metal.Weighted>
-0.0000

> <Gold.Chemscore.Lipo.Weighted>
-10.9042

> <Gold.Chemscore.Internal_Hbond.Weighted>
0.0000

> <Gold.Chemscore.DEClash.Weighted>
4.1114

> <Gold.Chemscore.DEInternal.Weighted>
2.3351

> <Gold.Chemscore.Rot.Weighted>
3.7650

> <Gold.Chemscore.Internal.Correction.Weighted>
   9.000000E+99

> <Gold.Protein.RotatedTorsions>
[ 6907 6896 6895 6894 ] final   -7.39 input  -60.11 | X-H torsion
[ 7974 7965 7964 7962 ] final  138.73 input  175.53 | X-H torsion
[ 8008 7997 7996 7995 ] final  163.00 input   59.86 | X-H torsion
[ 10167 10162 10161 10158 ] final   84.90 input  -65.29 | X-H torsion
[ 10718 10713 10712 10709 ] final   14.31 input   66.30 | X-H torsion
[ 10763 10752 10751 10750 ] final   21.72 input  -60.55 | X-H torsion
[ 11005 11000 10999 10996 ] final -112.42 input  -57.11 | X-H torsion

> <Gold.Protein.ActiveResidues>
 VAL166  LYS551  ARG553  GLY616  TRP617  ASP618  TYR619  PRO620  LYS621  CYS622 
 ASP623  PHE694  ASN695  SER759  ASP760  ASP761  ALA762  ILE779  LEU786  VAL792 
 PHE793  MET794  SER795  GLU796  ALA797  LYS798  CYS799  TRP800  GLU811  SER814 

> <Gold.Protein.RotatedAtoms>
  151.4503  135.1029  159.9695 H   0  0  0  0  0  0  0  0  0  0  0  0  # atno 6907 bound_to 6896
  152.4890  133.8446  159.7181 H   0  0  0  0  0  0  0  0  0  0  0  0  # atno 6908 bound_to 6896
  150.9026  133.7039  159.2902 H   0  0  0  0  0  0  0  0  0  0  0  0  # atno 6909 bound_to 6896
  144.9344  139.5007  143.5602 H   0  0  0  0  0  0  0  0  0  0  0  0  # atno 7974 bound_to 7965
  156.1990  140.1735  156.7939 H   0  0  0  0  0  0  0  0  0  0  0  0  # atno 8008 bound_to 7997
  154.5566  140.0707  156.8784 H   0  0  0  0  0  0  0  0  0  0  0  0  # atno 8009 bound_to 7997
  155.2926  140.3356  155.4254 H   0  0  0  0  0  0  0  0  0  0  0  0  # atno 8010 bound_to 7997
  139.9032  144.6317  150.8615 H   0  0  0  0  0  0  0  0  0  0  0  0  # atno 10167 bound_to 10162
  157.0372  130.6217  149.5745 H   0  0  0  0  0  0  0  0  0  0  0  0  # atno 10718 bound_to 10713
  153.0972  135.6663  153.9741 H   0  0  0  0  0  0  0  0  0  0  0  0  # atno 10763 bound_to 10752
  153.9321  135.3003  155.3447 H   0  0  0  0  0  0  0  0  0  0  0  0  # atno 10764 bound_to 10752
  154.7391  135.5088  153.9167 H   0  0  0  0  0  0  0  0  0  0  0  0  # atno 10765 bound_to 10752
  141.0676  133.9433  157.2548 H   0  0  0  0  0  0  0  0  0  0  0  0  # atno 11005 bound_to 11000
  146.3260  139.8319  142.8907 LP  0  0  0  0  0  0  0  0  0  0  0  0  # atno 17320 bound_to 7965
  145.3090  141.0214  143.3565 LP  0  0  0  0  0  0  0  0  0  0  0  0  # atno 17321 bound_to 7965
  140.7702  143.3421  151.2187 LP  0  0  0  0  0  0  0  0  0  0  0  0  # atno 17342 bound_to 10162
  139.7007  143.9538  152.2904 LP  0  0  0  0  0  0  0  0  0  0  0  0  # atno 17343 bound_to 10162
  156.0050  130.5135  150.7797 LP  0  0  0  0  0  0  0  0  0  0  0  0  # atno 17370 bound_to 10713
  157.5132  131.0927  151.0172 LP  0  0  0  0  0  0  0  0  0  0  0  0  # atno 17371 bound_to 10713
  139.9491  135.0179  156.8941 LP  0  0  0  0  0  0  0  0  0  0  0  0  # atno 17394 bound_to 11000
  140.5741  134.0415  155.7441 LP  0  0  0  0  0  0  0  0  0  0  0  0  # atno 17395 bound_to 11000

$$$$
