AV-unprocessed.smi:1208|AV-procd|sdf|5066|dock8
  -GOLD-   22720 4103D 1   1.00000     0.00000
 Structure written by MMmdl.
 36 37  0  0  0  0  0  0  0  0  1 V2000
  154.3548  140.1721  161.1057 C   0  0  0  0  0  0  0  0  0  0  0  0
  153.7305  140.9589  159.9443 C   0  0  1  0  0  0  0  0  0  0  0  0
  152.5081  140.2805  159.5177 N   0  0  0  0  0  0  0  0  0  0  0  0
  152.2851  139.7470  158.3063 C   0  0  0  0  0  0  0  0  0  0  0  0
  153.1228  139.7381  157.4034 O   0  0  0  0  0  0  0  0  0  0  0  0
  150.9015  139.1183  158.0912 C   0  0  0  0  0  0  0  0  0  0  0  0
  150.5301  139.0247  156.6723 N   0  0  0  0  0  0  0  0  0  0  0  0
  151.2751  138.1053  155.9495 N   0  0  0  0  0  0  0  0  0  0  0  0
  151.0512  137.9424  154.6895 C   0  0  0  0  0  0  0  0  0  0  0  0
  151.8152  137.0252  154.0111 O   0  0  0  0  0  0  0  0  0  0  0  0
  150.0261  138.7009  154.0069 C   0  0  0  0  0  0  0  0  0  0  0  0
  149.3028  139.5915  154.7203 C   0  0  0  0  0  0  0  0  0  0  0  0
  149.5326  139.8035  156.1504 C   0  0  0  0  0  0  0  0  0  0  0  0
  148.8905  140.6091  156.8245 O   0  0  0  0  0  0  0  0  0  0  0  0
  153.4243  142.4180  160.3408 C   0  0  2  0  0  0  0  0  0  0  0  0
  152.6073  142.5882  161.6224 C   0  0  0  0  0  0  0  0  0  0  0  0
  151.9799  143.9616  161.4566 C   0  0  0  0  0  0  0  0  0  0  0  0
  152.0643  144.2285  159.9507 C   0  0  0  0  0  0  0  0  0  0  0  0
  152.5830  143.0346  159.3787 O   0  0  0  0  0  0  0  0  0  0  0  0
  151.3689  136.8862  153.1899 H   0  0  0  0  0  0  0  0  0  0  0  0
  155.2884  140.6296  161.4341 H   0  0  0  0  0  0  0  0  0  0  0  0
  154.5801  139.1471  160.8094 H   0  0  0  0  0  0  0  0  0  0  0  0
  153.6844  140.1317  161.9649 H   0  0  0  0  0  0  0  0  0  0  0  0
  154.4539  140.9667  159.1269 H   0  0  0  0  0  0  0  0  0  0  0  0
  151.7604  140.2338  160.1946 H   0  0  0  0  0  0  0  0  0  0  0  0
  150.9067  138.1279  158.5496 H   0  0  0  0  0  0  0  0  0  0  0  0
  150.1448  139.6886  158.6339 H   0  0  0  0  0  0  0  0  0  0  0  0
  149.8504  138.5514  152.9518 H   0  0  0  0  0  0  0  0  0  0  0  0
  148.5339  140.1647  154.2233 H   0  0  0  0  0  0  0  0  0  0  0  0
  154.3500  142.9918  160.4177 H   0  0  0  0  0  0  0  0  0  0  0  0
  151.8222  141.8324  161.6708 H   0  0  0  0  0  0  0  0  0  0  0  0
  153.2118  142.5045  162.5261 H   0  0  0  0  0  0  0  0  0  0  0  0
  150.9517  143.9748  161.8196 H   0  0  0  0  0  0  0  0  0  0  0  0
  152.5408  144.7174  162.0076 H   0  0  0  0  0  0  0  0  0  0  0  0
  151.0950  144.4742  159.5161 H   0  0  0  0  0  0  0  0  0  0  0  0
  152.7477  145.0535  159.7455 H   0  0  0  0  0  0  0  0  0  0  0  0
  1  2  1  0  0  0  0
  1 21  1  0  0  0  0
  1 22  1  0  0  0  0
  1 23  1  0  0  0  0
  2  3  1  0  0  0  0
  2 15  1  0  0  0  0
  2 24  1  0  0  0  0
  3  4  1  0  0  0  0
  3 25  1  0  0  0  0
  4  5  2  0  0  0  0
  4  6  1  0  0  0  0
  6 26  1  0  0  0  0
  6 27  1  0  0  0  0
  6  7  1  0  0  0  0
  7  8  1  0  0  0  0
  7 13  1  0  0  0  0
  8  9  2  0  0  0  0
  9 10  1  0  0  0  0
  9 11  1  0  0  0  0
 10 20  1  0  0  0  0
 11 28  1  0  0  0  0
 11 12  2  0  0  0  0
 12 29  1  0  0  0  0
 12 13  1  0  0  0  0
 13 14  2  0  0  0  0
 15 19  1  0  0  0  0
 15 16  1  0  0  0  0
 15 30  1  0  0  0  0
 16 17  1  0  0  0  0
 16 31  1  0  0  0  0
 16 32  1  0  0  0  0
 17 18  1  0  0  0  0
 17 33  1  0  0  0  0
 17 34  1  0  0  0  0
 18 19  1  0  0  0  0
 18 35  1  0  0  0  0
 18 36  1  0  0  0  0
M  END
> <s_m_source_file>
AV-unprocessed.smi

> <i_m_source_file_index>
1208

> <i_lp_mmshare_version>
43012

> <i_f3d_flags>
0

> <s_epik_input>
TzFbQ0gyXVtDSDJdW0NIMl1bQ0BIXTFbQ0BIXShbQ0gzXSlbTkhdQyg9TylbQ0gyXW4yW25IXWMoPU8pW2NIXVtjSF1jMj1P

> <s_epik_cmdline>
J2VwaWtfcHl0aG9uJywgJy1waCcsICc3LjAnLCAnLXRuJywgJzgnLCAnLW1hJywgJzIwMCcsICctbWV0YWxfYmluZGluZycsICctaW1hZScsICc8aW5maWxlLm1hZT4nLCAnLW9tYWUnLCAnPG91dGZpbGUubWFlPic=

> <r_lp_tautomer_probability>
0.9996

> <r_epik_Ionization_Penalty>
2.12735

> <r_epik_Ionization_Penalty_Charging>
3.86665e-08

> <r_epik_Ionization_Penalty_Neutral>
2.12735

> <r_epik_State_Penalty>
1.70441

> <r_epik_Charging_Adjusted_Penalty>
1.70441

> <i_epik_Tot_Q>
0

> <i_epik_Tot_abs_Q>
0

> <r_epik_Metal_State_Penalty>
1.70441

> <b_epik_Metal_Only>
0

> <s_lp_Force_Field>
OPLS_2005

> <r_lp_Energy>
29.1408

> <b_lp_Chiralities_Consistent>
1

> <s_lp_Variant>
AV-unprocessed.smi:1208-6

> <Gold.Version>
5.8.1

> <Gold.Id.Protein>
6NUR|6NUR_protein|mol2

> <Gold.PLP.Fitness>
45.2505

> <Gold.PLP.PLP>
-37.3117

> <Gold.PLP.part.hbond>
-2.9810

> <Gold.PLP.part.metal>
0.0000

> <Gold.PLP.part.buried>
-4.8193

> <Gold.PLP.part.nonpolar>
-30.1569

> <Gold.PLP.part.repulsive>
0.1885

> <Gold.PLP.ligand.clash>
0.0000

> <Gold.PLP.ligand.torsion>
0.5353

> <Gold.PLP.Chemscore.Hbond>
2.9913

> <Gold.PLP.Chemscore.CHOScore>
0.0000

> <Gold.PLP.Chemscore.Metal>
0.0000

> <Gold.Chemscore.Hbonds>
donor molecule, donor type, donor heavy atom, donor atom, acceptor molecule, acceptor atom, score
      L1  H    10    20       P1  7949  1.00
      P1  H  7997  8008       L1     5  0.88
      P1  H 10752 10765       L1    10  1.00

> <Gold.PLP.Chemscore.Internal.Correction>
0.0358

> <Gold.Rescore>
     Score         DG    S(hbond)    S(metal)    S(lipo)     H(rot)  DE(clash)    DE(int)     intcor
     14.80     -17.29       2.67        0.00      82.05       2.63       0.38       2.11       ----

> <Gold.Chemscore.Fitness>
14.8019

> <Gold.Chemscore.DG>
-17.2907

> <Gold.Chemscore.ZeroCoef>
-5.4800

> <Gold.Chemscore.Hbond>
2.6749

> <Gold.Chemscore.Metal>
0.0000

> <Gold.Chemscore.Lipo>
82.0542

> <Gold.Chemscore.Internal_Hbond>
0.0000

> <Gold.Chemscore.DEClash>
0.3773

> <Gold.Chemscore.DEInternal>
2.1115

> <Gold.Chemscore.Rot>
2.6264

> <Gold.Chemscore.Internal.Correction>
   9.000000E+99

> <Gold.Chemscore.Hbonds>
donor molecule, donor type, donor heavy atom, donor atom, acceptor molecule, acceptor atom, score
      L1  H    10    20       P1  7949  0.75
      P1  H  7997  8008       L1     5  0.86
      P1  H 10752 10765       L1    10  0.34

> <Gold.Chemscore.Hbond.Weighted>
-8.9341

> <Gold.Chemscore.Metal.Weighted>
-0.0000

> <Gold.Chemscore.Lipo.Weighted>
-9.6003

> <Gold.Chemscore.Internal_Hbond.Weighted>
0.0000

> <Gold.Chemscore.DEClash.Weighted>
0.3773

> <Gold.Chemscore.DEInternal.Weighted>
2.1115

> <Gold.Chemscore.Rot.Weighted>
6.7237

> <Gold.Chemscore.Internal.Correction.Weighted>
   9.000000E+99

> <Gold.Protein.RotatedTorsions>
[ 6907 6896 6895 6894 ] final  -60.56 input  -60.11 | X-H torsion
[ 7974 7965 7964 7962 ] final   36.10 input  175.53 | X-H torsion
[ 8008 7997 7996 7995 ] final  -70.68 input   59.86 | X-H torsion
[ 10167 10162 10161 10158 ] final    1.30 input  -65.29 | X-H torsion
[ 10718 10713 10712 10709 ] final  -40.14 input   66.30 | X-H torsion
[ 10763 10752 10751 10750 ] final  142.91 input  -60.55 | X-H torsion
[ 11005 11000 10999 10996 ] final  -40.73 input  -57.11 | X-H torsion

> <Gold.Protein.ActiveResidues>
 VAL166  LYS551  ARG553  GLY616  TRP617  ASP618  TYR619  PRO620  LYS621  CYS622 
 ASP623  PHE694  ASN695  SER759  ASP760  ASP761  ALA762  ILE779  LEU786  VAL792 
 PHE793  MET794  SER795  GLU796  ALA797  LYS798  CYS799  TRP800  GLU811  SER814 

> <Gold.Protein.RotatedAtoms>
  150.7847  134.6821  159.6449 H   0  0  0  0  0  0  0  0  0  0  0  0  # atno 6907 bound_to 6896
  152.3940  134.6391  160.0105 H   0  0  0  0  0  0  0  0  0  0  0  0  # atno 6908 bound_to 6896
  151.6683  133.3278  159.3226 H   0  0  0  0  0  0  0  0  0  0  0  0  # atno 6909 bound_to 6896
  146.1235  139.6059  142.9274 H   0  0  0  0  0  0  0  0  0  0  0  0  # atno 7974 bound_to 7965
  154.5030  140.0830  156.7837 H   0  0  0  0  0  0  0  0  0  0  0  0  # atno 8008 bound_to 7997
  155.3958  140.3434  155.4236 H   0  0  0  0  0  0  0  0  0  0  0  0  # atno 8009 bound_to 7997
  156.1481  140.1550  156.8802 H   0  0  0  0  0  0  0  0  0  0  0  0  # atno 8010 bound_to 7997
  140.6689  143.7103  150.7882 H   0  0  0  0  0  0  0  0  0  0  0  0  # atno 10167 bound_to 10162
  156.2846  130.4221  149.8301 H   0  0  0  0  0  0  0  0  0  0  0  0  # atno 10718 bound_to 10713
  153.9635  135.2958  155.3432 H   0  0  0  0  0  0  0  0  0  0  0  0  # atno 10763 bound_to 10752
  154.7361  135.5046  153.9048 H   0  0  0  0  0  0  0  0  0  0  0  0  # atno 10764 bound_to 10752
  153.0935  135.6714  153.9919 H   0  0  0  0  0  0  0  0  0  0  0  0  # atno 10765 bound_to 10752
  141.0195  133.6869  156.2361 H   0  0  0  0  0  0  0  0  0  0  0  0  # atno 11005 bound_to 11000
  145.5414  141.0420  143.2328 LP  0  0  0  0  0  0  0  0  0  0  0  0  # atno 17320 bound_to 7965
  144.7620  139.6934  143.7230 LP  0  0  0  0  0  0  0  0  0  0  0  0  # atno 17321 bound_to 7965
  140.0785  143.4991  152.2542 LP  0  0  0  0  0  0  0  0  0  0  0  0  # atno 17342 bound_to 10162
  139.5949  144.7563  151.3311 LP  0  0  0  0  0  0  0  0  0  0  0  0  # atno 17343 bound_to 10162
  156.5736  130.8435  151.3363 LP  0  0  0  0  0  0  0  0  0  0  0  0  # atno 17370 bound_to 10713
  157.7325  130.9716  150.1930 LP  0  0  0  0  0  0  0  0  0  0  0  0  # atno 17371 bound_to 10713
  140.6597  134.4981  157.5582 LP  0  0  0  0  0  0  0  0  0  0  0  0  # atno 17394 bound_to 11000
  139.9137  134.8290  156.1438 LP  0  0  0  0  0  0  0  0  0  0  0  0  # atno 17395 bound_to 11000

$$$$
