AV-unprocessed.smi:1225|AV-procd|sdf|5136|dock10
  -GOLD-   22720 4203D 1   1.00000     0.00000
 Structure written by MMmdl.
 48 50  0  0  0  0  0  0  0  0  1 V2000
  143.2714  146.0325  155.2186 C   0  0  0  0  0  0  0  0  0  0  0  0
  144.2607  145.0555  154.6819 C   0  0  0  0  0  0  0  0  0  0  0  0
  144.8228  145.1609  153.4756 N   0  0  0  0  0  0  0  0  0  0  0  0
  145.7174  144.1211  153.2125 C   0  0  0  0  0  0  0  0  0  0  0  0
  145.8333  143.2155  154.2383 C   0  0  0  0  0  0  0  0  0  0  0  0
  146.6950  141.9949  154.2811 C   0  0  0  0  0  0  0  0  0  0  0  0
  147.5958  141.9600  155.4375 N   0  0  0  0  0  0  0  0  0  0  0  0
  146.9488  141.2861  156.5602 C   0  0  0  0  0  0  0  0  0  0  0  0
  148.8766  141.3178  155.1206 C   0  0  0  0  0  0  0  0  0  0  0  0
  150.0116  141.5218  156.1513 C   0  0  2  0  0  0  0  0  0  0  0  0
  150.3120  142.9016  156.2347 O   0  0  0  0  0  0  0  0  0  0  0  0
  151.2981  140.7037  155.9227 C   0  0  0  0  0  0  0  0  0  0  0  0
  151.8869  140.2389  157.1654 N   0  0  0  0  0  0  0  0  0  0  0  0
  152.2700  138.9825  157.4640 C   0  0  0  0  0  0  0  0  0  0  0  0
  152.7880  138.7751  158.6713 N   0  0  0  0  0  0  0  0  0  0  0  0
  152.7294  140.0442  159.2216 C   0  0  0  0  0  0  0  0  0  0  0  0
  153.1242  140.5107  160.4945 C   0  0  0  0  0  0  0  0  0  0  0  0
  152.9666  141.8696  160.8492 C   0  0  0  0  0  0  0  0  0  0  0  0
  153.4003  142.3268  162.2309 C   0  0  0  0  0  0  0  0  0  0  0  0
  152.4081  142.7860  159.9221 C   0  0  0  0  0  0  0  0  0  0  0  0
  152.2279  144.2501  160.2817 C   0  0  0  0  0  0  0  0  0  0  0  0
  152.0103  142.3369  158.6454 C   0  0  0  0  0  0  0  0  0  0  0  0
  152.1702  140.9823  158.3054 C   0  0  0  0  0  0  0  0  0  0  0  0
  144.8085  143.6470  155.5825 S   0  0  0  0  0  0  0  0  0  0  0  0
  142.8425  146.6270  154.4113 H   0  0  0  0  0  0  0  0  0  0  0  0
  143.7582  146.7028  155.9271 H   0  0  0  0  0  0  0  0  0  0  0  0
  142.4652  145.5061  155.7297 H   0  0  0  0  0  0  0  0  0  0  0  0
  146.2347  144.1020  152.2645 H   0  0  0  0  0  0  0  0  0  0  0  0
  146.0696  141.1009  154.2757 H   0  0  0  0  0  0  0  0  0  0  0  0
  147.2576  141.9526  153.3522 H   0  0  0  0  0  0  0  0  0  0  0  0
  147.5941  141.2943  157.4393 H   0  0  0  0  0  0  0  0  0  0  0  0
  146.7184  140.2479  156.3178 H   0  0  0  0  0  0  0  0  0  0  0  0
  146.0203  141.7845  156.8396 H   0  0  0  0  0  0  0  0  0  0  0  0
  148.7324  140.2400  155.0262 H   0  0  0  0  0  0  0  0  0  0  0  0
  149.2134  141.6413  154.1345 H   0  0  0  0  0  0  0  0  0  0  0  0
  149.6071  141.2433  157.1251 H   0  0  0  0  0  0  0  0  0  0  0  0
  149.5817  143.3885  155.8846 H   0  0  0  0  0  0  0  0  0  0  0  0
  151.0873  139.8317  155.3030 H   0  0  0  0  0  0  0  0  0  0  0  0
  152.0451  141.3009  155.3978 H   0  0  0  0  0  0  0  0  0  0  0  0
  152.1651  138.1753  156.7537 H   0  0  0  0  0  0  0  0  0  0  0  0
  153.5496  139.8122  161.2002 H   0  0  0  0  0  0  0  0  0  0  0  0
  152.5493  142.7218  162.7862 H   0  0  0  0  0  0  0  0  0  0  0  0
  154.1582  143.1069  162.1563 H   0  0  0  0  0  0  0  0  0  0  0  0
  153.8234  141.5040  162.8081 H   0  0  0  0  0  0  0  0  0  0  0  0
  151.7817  144.8101  159.4593 H   0  0  0  0  0  0  0  0  0  0  0  0
  153.1897  144.7073  160.5148 H   0  0  0  0  0  0  0  0  0  0  0  0
  151.5755  144.3525  161.1490 H   0  0  0  0  0  0  0  0  0  0  0  0
  151.5840  143.0234  157.9290 H   0  0  0  0  0  0  0  0  0  0  0  0
  1  2  1  0  0  0  0
  1 25  1  0  0  0  0
  1 26  1  0  0  0  0
  1 27  1  0  0  0  0
  2 24  1  0  0  0  0
  2  3  2  0  0  0  0
  3  4  1  0  0  0  0
  4  5  2  0  0  0  0
  4 28  1  0  0  0  0
  5  6  1  0  0  0  0
  5 24  1  0  0  0  0
  6  7  1  0  0  0  0
  6 29  1  0  0  0  0
  6 30  1  0  0  0  0
  7  8  1  0  0  0  0
  7  9  1  0  0  0  0
  8 31  1  0  0  0  0
  8 32  1  0  0  0  0
  8 33  1  0  0  0  0
  9 10  1  0  0  0  0
  9 34  1  0  0  0  0
  9 35  1  0  0  0  0
 10 11  1  0  0  0  0
 10 12  1  0  0  0  0
 10 36  1  0  0  0  0
 11 37  1  0  0  0  0
 12 13  1  0  0  0  0
 12 38  1  0  0  0  0
 12 39  1  0  0  0  0
 13 23  1  0  0  0  0
 13 14  1  0  0  0  0
 14 15  2  0  0  0  0
 14 40  1  0  0  0  0
 15 16  1  0  0  0  0
 16 23  2  0  0  0  0
 16 17  1  0  0  0  0
 17 18  2  0  0  0  0
 17 41  1  0  0  0  0
 18 19  1  0  0  0  0
 18 20  1  0  0  0  0
 19 42  1  0  0  0  0
 19 43  1  0  0  0  0
 19 44  1  0  0  0  0
 20 21  1  0  0  0  0
 20 22  2  0  0  0  0
 21 45  1  0  0  0  0
 21 46  1  0  0  0  0
 21 47  1  0  0  0  0
 22 23  1  0  0  0  0
 22 48  1  0  0  0  0
M  END
> <s_m_source_file>
AV-unprocessed.smi

> <i_m_source_file_index>
1225

> <i_lp_mmshare_version>
43012

> <i_f3d_flags>
0

> <s_epik_input>
W0NIM11jMW5bY0hdYyhzMSlbQ0gyXU4oW0NIM10pW0NIMl1bQ0BIXShbT0hdKVtDSDJdbihbY0hdbjIpYyhjMjMpW2NIXWMoW0NIM10pYyhbY0hdMylbQ0gzXQ==

> <s_epik_cmdline>
J2VwaWtfcHl0aG9uJywgJy1waCcsICc3LjAnLCAnLXRuJywgJzgnLCAnLW1hJywgJzIwMCcsICctbWV0YWxfYmluZGluZycsICctaW1hZScsICc8aW5maWxlLm1hZT4nLCAnLW9tYWUnLCAnPG91dGZpbGUubWFlPic=

> <r_epik_Ionization_Penalty>
0.12717

> <r_epik_Ionization_Penalty_Charging>
0

> <r_epik_Ionization_Penalty_Neutral>
0.12717

> <r_epik_State_Penalty>
0.11216

> <r_epik_Charging_Adjusted_Penalty>
0.11216

> <i_epik_Tot_Q>
0

> <i_epik_Tot_abs_Q>
0

> <r_epik_Metal_State_Penalty>
0.099641

> <b_epik_Metal_Only>
0

> <s_lp_Force_Field>
OPLS_2005

> <r_lp_Energy>
23.0021

> <b_lp_Chiralities_Consistent>
1

> <s_lp_Variant>
AV-unprocessed.smi:1225-1

> <Gold.Version>
5.8.1

> <Gold.Id.Protein>
6NUR|6NUR_protein|mol2

> <Gold.PLP.Fitness>
51.7276

> <Gold.PLP.PLP>
-51.4056

> <Gold.PLP.part.hbond>
-0.3009

> <Gold.PLP.part.metal>
0.0000

> <Gold.PLP.part.buried>
-7.9988

> <Gold.PLP.part.nonpolar>
-43.4100

> <Gold.PLP.part.repulsive>
0.3163

> <Gold.PLP.ligand.clash>
0.0000

> <Gold.PLP.ligand.torsion>
1.0955

> <Gold.PLP.Chemscore.Hbond>
0.8008

> <Gold.PLP.Chemscore.CHOScore>
0.0000

> <Gold.PLP.Chemscore.Metal>
0.0000

> <Gold.Chemscore.Hbonds>
donor molecule, donor type, donor heavy atom, donor atom, acceptor molecule, acceptor atom, score
      L1  H    11    37       P1  8028  0.95

> <Gold.PLP.Chemscore.Internal.Correction>
0.1106

> <Gold.Rescore>
     Score         DG    S(hbond)    S(metal)    S(lipo)     H(rot)  DE(clash)    DE(int)     intcor
     16.98     -18.20       0.83        0.00     135.10       2.28       0.02       1.21       ----

> <Gold.Chemscore.Fitness>
16.9752

> <Gold.Chemscore.DG>
-18.2025

> <Gold.Chemscore.ZeroCoef>
-5.4800

> <Gold.Chemscore.Hbond>
0.8276

> <Gold.Chemscore.Metal>
0.0000

> <Gold.Chemscore.Lipo>
135.0973

> <Gold.Chemscore.Internal_Hbond>
0.0000

> <Gold.Chemscore.DEClash>
0.0190

> <Gold.Chemscore.DEInternal>
1.2082

> <Gold.Chemscore.Rot>
2.2844

> <Gold.Chemscore.Internal.Correction>
   9.000000E+99

> <Gold.Chemscore.Hbonds>
donor molecule, donor type, donor heavy atom, donor atom, acceptor molecule, acceptor atom, score
      L1  H    11    37       P1  8028  0.85

> <Gold.Chemscore.Hbond.Weighted>
-2.7641

> <Gold.Chemscore.Metal.Weighted>
-0.0000

> <Gold.Chemscore.Lipo.Weighted>
-15.8064

> <Gold.Chemscore.Internal_Hbond.Weighted>
0.0000

> <Gold.Chemscore.DEClash.Weighted>
0.0190

> <Gold.Chemscore.DEInternal.Weighted>
1.2082

> <Gold.Chemscore.Rot.Weighted>
5.8480

> <Gold.Chemscore.Internal.Correction.Weighted>
   9.000000E+99

> <Gold.Protein.RotatedTorsions>
[ 6907 6896 6895 6894 ] final  139.45 input  -60.11 | X-H torsion
[ 7974 7965 7964 7962 ] final   61.30 input  175.53 | X-H torsion
[ 8008 7997 7996 7995 ] final  -65.04 input   59.86 | X-H torsion
[ 10167 10162 10161 10158 ] final  109.67 input  -65.29 | X-H torsion
[ 10718 10713 10712 10709 ] final   93.12 input   66.30 | X-H torsion
[ 10763 10752 10751 10750 ] final  -30.55 input  -60.55 | X-H torsion
[ 11005 11000 10999 10996 ] final -101.36 input  -57.11 | X-H torsion

> <Gold.Protein.ActiveResidues>
 VAL166  LYS551  ARG553  GLY616  TRP617  ASP618  TYR619  PRO620  LYS621  CYS622 
 ASP623  PHE694  ASN695  SER759  ASP760  ASP761  ALA762  ILE779  LEU786  VAL792 
 PHE793  MET794  SER795  GLU796  ALA797  LYS798  CYS799  TRP800  GLU811  SER814 

> <Gold.Protein.RotatedAtoms>
  152.2548  133.5246  159.5346 H   0  0  0  0  0  0  0  0  0  0  0  0  # atno 6907 bound_to 6896
  150.7105  134.0911  159.3941 H   0  0  0  0  0  0  0  0  0  0  0  0  # atno 6908 bound_to 6896
  151.8830  135.0446  160.0541 H   0  0  0  0  0  0  0  0  0  0  0  0  # atno 6909 bound_to 6896
  145.8863  139.3478  143.0676 H   0  0  0  0  0  0  0  0  0  0  0  0  # atno 7974 bound_to 7965
  154.4648  140.0941  156.6990 H   0  0  0  0  0  0  0  0  0  0  0  0  # atno 8008 bound_to 7997
  155.4890  140.3470  155.4333 H   0  0  0  0  0  0  0  0  0  0  0  0  # atno 8009 bound_to 7997
  156.0936  140.1403  156.9549 H   0  0  0  0  0  0  0  0  0  0  0  0  # atno 8010 bound_to 7997
  139.6748  144.7123  151.1622 H   0  0  0  0  0  0  0  0  0  0  0  0  # atno 10167 bound_to 10162
  157.6956  131.0467  150.3986 H   0  0  0  0  0  0  0  0  0  0  0  0  # atno 10718 bound_to 10713
  153.7828  135.6904  153.4885 H   0  0  0  0  0  0  0  0  0  0  0  0  # atno 10763 bound_to 10752
  153.1800  135.4510  155.0014 H   0  0  0  0  0  0  0  0  0  0  0  0  # atno 10764 bound_to 10752
  154.8075  135.3363  154.7329 H   0  0  0  0  0  0  0  0  0  0  0  0  # atno 10765 bound_to 10752
  141.1234  133.8472  157.1222 H   0  0  0  0  0  0  0  0  0  0  0  0  # atno 11005 bound_to 11000
  145.8963  140.9271  143.0526 LP  0  0  0  0  0  0  0  0  0  0  0  0  # atno 17320 bound_to 7965
  144.6729  140.0973  143.7462 LP  0  0  0  0  0  0  0  0  0  0  0  0  # atno 17321 bound_to 7965
  140.7631  143.5789  150.8916 LP  0  0  0  0  0  0  0  0  0  0  0  0  # atno 17342 bound_to 10162
  139.9457  143.6331  152.3042 LP  0  0  0  0  0  0  0  0  0  0  0  0  # atno 17343 bound_to 10162
  156.4382  130.3986  149.6715 LP  0  0  0  0  0  0  0  0  0  0  0  0  # atno 17370 bound_to 10713
  156.3908  130.7626  151.2627 LP  0  0  0  0  0  0  0  0  0  0  0  0  # atno 17371 bound_to 10713
  140.0210  134.9946  157.0592 LP  0  0  0  0  0  0  0  0  0  0  0  0  # atno 17394 bound_to 11000
  140.4440  134.1652  155.7176 LP  0  0  0  0  0  0  0  0  0  0  0  0  # atno 17395 bound_to 11000

$$$$
