AV-unprocessed.smi:2693|AV-procd|sdf|10404|dock3
  -GOLD-   2272014433D 1   1.00000     0.00000
 Structure written by MMmdl.
 45 47  0  0  0  0  0  0  0  0  1 V2000
  143.2764  132.4099  150.7947 C   0  0  0  0  0  0  0  0  0  0  0  0
  144.5717  133.0780  150.7068 N   0  0  0  0  0  0  0  0  0  0  0  0
  145.6861  132.3194  150.1455 C   0  0  0  0  0  0  0  0  0  0  0  0
  144.7366  134.3990  151.1336 C   0  0  0  0  0  0  0  0  0  0  0  0
  143.7111  134.9714  151.7776 N   0  0  0  0  0  0  0  0  0  0  0  0
  143.8607  136.2475  152.1920 C   0  0  0  0  0  0  0  0  0  0  0  0
  145.0551  136.9693  151.9565 C   0  0  0  0  0  0  0  0  0  0  0  0
  145.3004  138.3038  152.3767 N   0  0  0  0  0  0  0  0  0  0  0  0
  146.4644  138.8552  152.7592 C   0  0  0  0  0  0  0  0  0  0  0  0
  147.5392  138.2622  152.8460 O   0  0  0  0  0  0  0  0  0  0  0  0
  146.3087  140.1489  153.0681 N   0  0  0  0  0  0  0  0  0  0  0  0
  147.3828  141.0226  153.5520 C   0  0  1  0  0  0  0  0  0  0  0  0
  146.8543  142.3064  154.1957 C   0  0  1  0  0  0  0  0  0  0  0  0
  145.5716  143.0559  154.1801 C   0  0  0  0  0  0  0  0  0  0  0  0
  145.5351  143.4052  155.6927 C   0  0  0  0  0  0  0  0  0  0  0  0
  146.5917  142.6251  156.3092 O   0  0  0  0  0  0  0  0  0  0  0  0
  146.7173  141.4958  155.4680 C   0  0  2  0  0  0  0  0  0  0  0  0
  147.9395  140.6794  154.9908 C   0  0  0  0  0  0  0  0  0  0  0  0
  147.9462  139.2026  155.4021 C   0  0  0  0  0  0  0  0  0  0  0  0
  149.3327  141.2222  155.3565 C   0  0  0  0  0  0  0  0  0  0  0  0
  146.0723  136.2663  151.2812 C   0  0  0  0  0  0  0  0  0  0  0  0
  145.9093  134.9910  150.8704 N   0  0  0  0  0  0  0  0  0  0  0  0
  142.5593  132.8857  150.1253 H   0  0  0  0  0  0  0  0  0  0  0  0
  142.8864  132.4619  151.8116 H   0  0  0  0  0  0  0  0  0  0  0  0
  143.3430  131.3568  150.5216 H   0  0  0  0  0  0  0  0  0  0  0  0
  146.1345  132.8596  149.3110 H   0  0  0  0  0  0  0  0  0  0  0  0
  145.3689  131.3447  149.7745 H   0  0  0  0  0  0  0  0  0  0  0  0
  146.4535  132.1573  150.9030 H   0  0  0  0  0  0  0  0  0  0  0  0
  143.0211  136.6633  152.7264 H   0  0  0  0  0  0  0  0  0  0  0  0
  144.4859  138.8972  152.4347 H   0  0  0  0  0  0  0  0  0  0  0  0
  145.3909  140.5584  152.9745 H   0  0  0  0  0  0  0  0  0  0  0  0
  148.1673  141.2120  152.8172 H   0  0  0  0  0  0  0  0  0  0  0  0
  147.6745  143.0274  154.2396 H   0  0  0  0  0  0  0  0  0  0  0  0
  145.6033  143.9411  153.5443 H   0  0  0  0  0  0  0  0  0  0  0  0
  144.7295  142.4290  153.8840 H   0  0  0  0  0  0  0  0  0  0  0  0
  145.7138  144.4659  155.8701 H   0  0  0  0  0  0  0  0  0  0  0  0
  144.5683  143.1472  156.1268 H   0  0  0  0  0  0  0  0  0  0  0  0
  145.8090  140.8860  155.5134 H   0  0  0  0  0  0  0  0  0  0  0  0
  148.2470  139.0763  156.4426 H   0  0  0  0  0  0  0  0  0  0  0  0
  148.6342  138.6220  154.7867 H   0  0  0  0  0  0  0  0  0  0  0  0
  146.9614  138.7455  155.3038 H   0  0  0  0  0  0  0  0  0  0  0  0
  149.5017  141.1808  156.4330 H   0  0  0  0  0  0  0  0  0  0  0  0
  149.4905  142.2562  155.0552 H   0  0  0  0  0  0  0  0  0  0  0  0
  150.1212  140.6377  154.8810 H   0  0  0  0  0  0  0  0  0  0  0  0
  147.0241  136.7286  151.0641 H   0  0  0  0  0  0  0  0  0  0  0  0
  1  2  1  0  0  0  0
  1 23  1  0  0  0  0
  1 24  1  0  0  0  0
  1 25  1  0  0  0  0
  2  3  1  0  0  0  0
  2  4  1  0  0  0  0
  3 26  1  0  0  0  0
  3 27  1  0  0  0  0
  3 28  1  0  0  0  0
  4 22  1  0  0  0  0
  4  5  2  0  0  0  0
  5  6  1  0  0  0  0
  6  7  2  0  0  0  0
  6 29  1  0  0  0  0
  7  8  1  0  0  0  0
  7 21  1  0  0  0  0
  8  9  1  0  0  0  0
  8 30  1  0  0  0  0
  9 10  2  0  0  0  0
  9 11  1  0  0  0  0
 11 12  1  0  0  0  0
 11 31  1  0  0  0  0
 12 18  1  0  0  0  0
 12 13  1  0  0  0  0
 12 32  1  0  0  0  0
 13 17  1  0  0  0  0
 13 14  1  0  0  0  0
 13 33  1  0  0  0  0
 14 15  1  0  0  0  0
 14 34  1  0  0  0  0
 14 35  1  0  0  0  0
 15 16  1  0  0  0  0
 15 36  1  0  0  0  0
 15 37  1  0  0  0  0
 16 17  1  0  0  0  0
 17 18  1  0  0  0  0
 17 38  1  0  0  0  0
 18 19  1  0  0  0  0
 18 20  1  0  0  0  0
 19 39  1  0  0  0  0
 19 40  1  0  0  0  0
 19 41  1  0  0  0  0
 20 42  1  0  0  0  0
 20 43  1  0  0  0  0
 20 44  1  0  0  0  0
 21 22  2  0  0  0  0
 21 45  1  0  0  0  0
M  END
> <s_m_source_file>
AV-unprocessed.smi

> <i_m_source_file_index>
2693

> <i_lp_mmshare_version>
43012

> <i_f3d_flags>
0

> <s_epik_input>
W0NIM11OKFtDSDNdKWMxbltjSF1jKFtjSF1uMSlbTkhdQyg9TylbTkhdW0NASF0yQyhbQ0gzXSkoW0NIM10pW0NAQEhdKFtDQEhdMjMpT1tDSDJdW0NIMl0z

> <s_epik_cmdline>
J2VwaWtfcHl0aG9uJywgJy1waCcsICc3LjAnLCAnLXRuJywgJzgnLCAnLW1hJywgJzIwMCcsICctbWV0YWxfYmluZGluZycsICctaW1hZScsICc8aW5maWxlLm1hZT4nLCAnLW9tYWUnLCAnPG91dGZpbGUubWFlPic=

> <r_lp_tautomer_probability>
1

> <r_epik_Ionization_Penalty>
0.00031779

> <r_epik_Ionization_Penalty_Charging>
0

> <r_epik_Ionization_Penalty_Neutral>
0.00031779

> <r_epik_State_Penalty>
-0

> <r_epik_Charging_Adjusted_Penalty>
0

> <i_epik_Tot_Q>
0

> <i_epik_Tot_abs_Q>
0

> <r_epik_Metal_State_Penalty>
-0

> <b_epik_Metal_Only>
0

> <s_lp_Force_Field>
OPLS_2005

> <r_lp_Energy>
57.3202

> <b_lp_Chiralities_Consistent>
1

> <s_lp_Variant>
AV-unprocessed.smi:2693-8

> <Gold.Version>
5.8.1

> <Gold.Id.Protein>
6NUR|6NUR_protein|mol2

> <Gold.PLP.Fitness>
42.5483

> <Gold.PLP.PLP>
-34.2607

> <Gold.PLP.part.hbond>
-3.0000

> <Gold.PLP.part.metal>
0.0000

> <Gold.PLP.part.buried>
-3.3904

> <Gold.PLP.part.nonpolar>
-32.4548

> <Gold.PLP.part.repulsive>
4.8219

> <Gold.PLP.ligand.clash>
0.0000

> <Gold.PLP.ligand.torsion>
0.3791

> <Gold.PLP.Chemscore.Hbond>
2.0000

> <Gold.PLP.Chemscore.CHOScore>
0.9272

> <Gold.PLP.Chemscore.Metal>
0.0000

> <Gold.Chemscore.Hbonds>
donor molecule, donor type, donor heavy atom, donor atom, acceptor molecule, acceptor atom, score
      L1  H     8    30       P1 10175  1.00
      L1  H    11    31       P1 10175  1.00
      L1  C    21    45       P1  7948  0.98

> <Gold.PLP.Chemscore.Internal.Correction>
0.2642

> <Gold.Rescore>
     Score         DG    S(hbond)    S(metal)    S(lipo)     H(rot)  DE(clash)    DE(int)     intcor
     11.07     -17.69       1.80        0.00      74.85       1.00       2.75       3.87       ----

> <Gold.Chemscore.Fitness>
11.0719

> <Gold.Chemscore.DG>
-17.6944

> <Gold.Chemscore.ZeroCoef>
-5.4800

> <Gold.Chemscore.Hbond>
1.8014

> <Gold.Chemscore.Metal>
0.0000

> <Gold.Chemscore.Lipo>
74.8516

> <Gold.Chemscore.Internal_Hbond>
0.0000

> <Gold.Chemscore.DEClash>
2.7545

> <Gold.Chemscore.DEInternal>
3.8681

> <Gold.Chemscore.Rot>
1.0000

> <Gold.Chemscore.Internal.Correction>
   9.000000E+99

> <Gold.Chemscore.Hbonds>
donor molecule, donor type, donor heavy atom, donor atom, acceptor molecule, acceptor atom, score
      L1  H     8    30       P1 10175  0.98
      L1  H    11    31       P1 10175  0.79

> <Gold.Chemscore.Hbond.Weighted>
-6.0168

> <Gold.Chemscore.Metal.Weighted>
-0.0000

> <Gold.Chemscore.Lipo.Weighted>
-8.7576

> <Gold.Chemscore.Internal_Hbond.Weighted>
0.0000

> <Gold.Chemscore.DEClash.Weighted>
2.7545

> <Gold.Chemscore.DEInternal.Weighted>
3.8681

> <Gold.Chemscore.Rot.Weighted>
2.5600

> <Gold.Chemscore.Internal.Correction.Weighted>
   9.000000E+99

> <Gold.Protein.RotatedTorsions>
[ 6907 6896 6895 6894 ] final  127.86 input  -60.11 | X-H torsion
[ 7974 7965 7964 7962 ] final   98.32 input  175.53 | X-H torsion
[ 8008 7997 7996 7995 ] final  -79.73 input   59.86 | X-H torsion
[ 10167 10162 10161 10158 ] final   12.98 input  -65.29 | X-H torsion
[ 10718 10713 10712 10709 ] final   97.89 input   66.30 | X-H torsion
[ 10763 10752 10751 10750 ] final  -12.65 input  -60.55 | X-H torsion
[ 11005 11000 10999 10996 ] final -104.20 input  -57.11 | X-H torsion

> <Gold.Protein.ActiveResidues>
 VAL166  LYS551  ARG553  GLY616  TRP617  ASP618  TYR619  PRO620  LYS621  CYS622 
 ASP623  PHE694  ASN695  SER759  ASP760  ASP761  ALA762  ILE779  LEU786  VAL792 
 PHE793  MET794  SER795  GLU796  ALA797  LYS798  CYS799  TRP800  GLU811  SER814 

> <Gold.Protein.RotatedAtoms>
  152.3773  133.6499  159.6133 H   0  0  0  0  0  0  0  0  0  0  0  0  # atno 6907 bound_to 6896
  150.7714  133.9171  159.3396 H   0  0  0  0  0  0  0  0  0  0  0  0  # atno 6908 bound_to 6896
  151.6983  135.0936  160.0297 H   0  0  0  0  0  0  0  0  0  0  0  0  # atno 6909 bound_to 6896
  145.4138  139.2330  143.3234 H   0  0  0  0  0  0  0  0  0  0  0  0  # atno 7974 bound_to 7965
  154.5813  140.0674  156.9109 H   0  0  0  0  0  0  0  0  0  0  0  0  # atno 8008 bound_to 7997
  155.2457  140.3348  155.4269 H   0  0  0  0  0  0  0  0  0  0  0  0  # atno 8009 bound_to 7997
  156.2191  140.1791  156.7503 H   0  0  0  0  0  0  0  0  0  0  0  0  # atno 8010 bound_to 7997
  140.6032  143.8561  150.6987 H   0  0  0  0  0  0  0  0  0  0  0  0  # atno 10167 bound_to 10162
  157.6905  131.0623  150.4713 H   0  0  0  0  0  0  0  0  0  0  0  0  # atno 10718 bound_to 10713
  153.5017  135.7017  153.5828 H   0  0  0  0  0  0  0  0  0  0  0  0  # atno 10763 bound_to 10752
  153.3957  135.3884  155.1953 H   0  0  0  0  0  0  0  0  0  0  0  0  # atno 10764 bound_to 10752
  154.8710  135.3869  154.4488 H   0  0  0  0  0  0  0  0  0  0  0  0  # atno 10765 bound_to 10752
  141.1111  133.8704  157.1582 H   0  0  0  0  0  0  0  0  0  0  0  0  # atno 11005 bound_to 11000
  146.2691  140.4853  142.8821 LP  0  0  0  0  0  0  0  0  0  0  0  0  # atno 17320 bound_to 7965
  144.8291  140.6678  143.6302 LP  0  0  0  0  0  0  0  0  0  0  0  0  # atno 17321 bound_to 7965
  140.2112  143.3882  152.1717 LP  0  0  0  0  0  0  0  0  0  0  0  0  # atno 17342 bound_to 10162
  139.5306  144.7154  151.5069 LP  0  0  0  0  0  0  0  0  0  0  0  0  # atno 17343 bound_to 10162
  156.5050  130.4126  149.6332 LP  0  0  0  0  0  0  0  0  0  0  0  0  # atno 17370 bound_to 10713
  156.3293  130.7322  151.2249 LP  0  0  0  0  0  0  0  0  0  0  0  0  # atno 17371 bound_to 10713
  140.0006  135.0029  157.0180 LP  0  0  0  0  0  0  0  0  0  0  0  0  # atno 17394 bound_to 11000
  140.4772  134.1326  155.7211 LP  0  0  0  0  0  0  0  0  0  0  0  0  # atno 17395 bound_to 11000

$$$$
