AV-unprocessed.smi:290|AV-procd|sdf|2224|dock5
  -GOLD-   2262022 73D 1   1.00000     0.00000
 Structure written by MMmdl.
 59 62  0  0  0  0  0  0  0  0  2 V2000
  149.6511  138.4861  154.2079 C   0  0  0  0  0  0  0  0  0  0  0  0
  149.3390  139.6787  155.1250 C   0  0  1  0  0  0  0  0  0  0  0  0
  150.5107  140.1323  155.8009 O   0  0  0  0  0  0  0  0  0  0  0  0
  150.5984  141.5514  155.7474 C   0  0  0  0  0  0  0  0  0  0  0  0
  149.1989  142.0281  155.3736 C   0  0  0  0  0  0  0  0  0  0  0  0
  148.7073  140.9197  154.4530 C   0  0  1  0  0  0  0  0  0  0  0  0
  149.2683  141.1239  153.1666 O   0  0  0  0  0  0  0  0  0  0  0  0
  147.1706  140.8689  154.2484 C   0  0  0  0  0  0  0  0  0  0  0  0
  146.6633  139.6207  153.6996 N   0  0  0  0  0  0  0  0  0  0  0  0
  146.7587  139.1895  152.3944 C   0  0  0  0  0  0  0  0  0  0  0  0
  146.2254  138.0229  152.1508 N   0  0  0  0  0  0  0  0  0  0  0  0
  145.7411  137.6130  153.3857 C   0  0  0  0  0  0  0  0  0  0  0  0
  145.0612  136.4545  153.8416 C   0  0  0  0  0  0  0  0  0  0  0  0
  144.7393  135.4469  153.0003 N   0  0  0  0  0  0  0  0  0  0  0  0
  143.3131  135.3121  152.7480 C   0  0  0  0  0  0  0  0  0  0  0  0
  143.1280  133.9330  152.1026 C   0  0  0  0  0  0  0  0  0  0  0  0
  144.4236  133.1592  152.4303 C   0  0  1  0  0  0  0  0  0  0  0  0
  145.1912  132.6805  151.2380 N   0  3  2  0  0  0  0  0  0  0  0  0
  145.9161  133.7294  150.4752 C   0  0  0  0  0  0  0  0  0  0  0  0
  144.4092  131.7842  150.3487 C   0  0  0  0  0  0  0  0  0  0  0  0
  143.5416  132.5700  149.3511 C   0  0  0  0  0  0  0  0  0  0  0  0
  144.0745  132.4476  148.0495 O   0  0  0  0  0  0  0  0  0  0  0  0
  145.2129  134.1140  153.3483 C   0  0  1  0  0  0  0  0  0  0  0  0
  146.7478  133.9668  153.3560 C   0  0  0  0  0  0  0  0  0  0  0  0
  144.7367  136.3825  155.1595 N   0  0  0  0  0  0  0  0  0  0  0  0
  145.0602  137.3866  155.9807 C   0  0  0  0  0  0  0  0  0  0  0  0
  145.6937  138.5268  155.6962 N   0  0  0  0  0  0  0  0  0  0  0  0
  146.0164  138.5990  154.3728 C   0  0  0  0  0  0  0  0  0  0  0  0
  144.1692  132.2878  153.0334 H   0  0  0  0  0  0  0  0  0  0  0  0
  144.8726  133.9094  154.3652 H   0  0  0  0  0  0  0  0  0  0  0  0
  148.7542  138.1462  153.6898 H   0  0  0  0  0  0  0  0  0  0  0  0
  150.0372  137.6468  154.7862 H   0  0  0  0  0  0  0  0  0  0  0  0
  150.4005  138.7385  153.4576 H   0  0  0  0  0  0  0  0  0  0  0  0
  148.6864  139.3290  155.9236 H   0  0  0  0  0  0  0  0  0  0  0  0
  150.9440  141.9662  156.6946 H   0  0  0  0  0  0  0  0  0  0  0  0
  151.3159  141.8289  154.9744 H   0  0  0  0  0  0  0  0  0  0  0  0
  148.5974  142.0779  156.2804 H   0  0  0  0  0  0  0  0  0  0  0  0
  149.1921  143.0169  154.9138 H   0  0  0  0  0  0  0  0  0  0  0  0
  148.9614  140.4399  152.5915 H   0  0  0  0  0  0  0  0  0  0  0  0
  146.6628  141.0485  155.1970 H   0  0  0  0  0  0  0  0  0  0  0  0
  146.8597  141.6766  153.5839 H   0  0  0  0  0  0  0  0  0  0  0  0
  147.2362  139.7747  151.6217 H   0  0  0  0  0  0  0  0  0  0  0  0
  142.7519  135.3677  153.6823 H   0  0  0  0  0  0  0  0  0  0  0  0
  142.9567  136.1094  152.0948 H   0  0  0  0  0  0  0  0  0  0  0  0
  142.2544  133.4333  152.5222 H   0  0  0  0  0  0  0  0  0  0  0  0
  142.9425  134.0285  151.0345 H   0  0  0  0  0  0  0  0  0  0  0  0
  145.2472  134.3062  149.8369 H   0  0  0  0  0  0  0  0  0  0  0  0
  146.6604  133.2641  149.8284 H   0  0  0  0  0  0  0  0  0  0  0  0
  146.4459  134.4223  151.1272 H   0  0  0  0  0  0  0  0  0  0  0  0
  145.0866  131.1127  149.8193 H   0  0  0  0  0  0  0  0  0  0  0  0
  143.7538  131.1442  150.9421 H   0  0  0  0  0  0  0  0  0  0  0  0
  142.5044  132.2365  149.3540 H   0  0  0  0  0  0  0  0  0  0  0  0
  143.5350  133.6267  149.6193 H   0  0  0  0  0  0  0  0  0  0  0  0
  144.6405  133.1868  147.8839 H   0  0  0  0  0  0  0  0  0  0  0  0
  147.0380  132.9387  153.5740 H   0  0  0  0  0  0  0  0  0  0  0  0
  147.1969  134.5996  154.1221 H   0  0  0  0  0  0  0  0  0  0  0  0
  147.1963  134.2468  152.4036 H   0  0  0  0  0  0  0  0  0  0  0  0
  144.7681  137.2603  157.0129 H   0  0  0  0  0  0  0  0  0  0  0  0
  145.9188  132.0895  151.6156 H   0  0  0  0  0  0  0  0  0  0  0  0
  1  2  1  0  0  0  0
  1 31  1  0  0  0  0
  1 32  1  0  0  0  0
  1 33  1  0  0  0  0
  2  6  1  0  0  0  0
  2  3  1  0  0  0  0
  2 34  1  0  0  0  0
  3  4  1  0  0  0  0
  4  5  1  0  0  0  0
  4 35  1  0  0  0  0
  4 36  1  0  0  0  0
  5  6  1  0  0  0  0
  5 37  1  0  0  0  0
  5 38  1  0  0  0  0
  6  7  1  0  0  0  0
  6  8  1  0  0  0  0
  7 39  1  0  0  0  0
  8  9  1  0  0  0  0
  8 40  1  0  0  0  0
  8 41  1  0  0  0  0
  9 28  1  0  0  0  0
  9 10  1  0  0  0  0
 10 11  2  0  0  0  0
 10 42  1  0  0  0  0
 11 12  1  0  0  0  0
 12 28  2  0  0  0  0
 12 13  1  0  0  0  0
 13 14  1  0  0  0  0
 13 25  2  0  0  0  0
 14 23  1  0  0  0  0
 14 15  1  0  0  0  0
 15 16  1  0  0  0  0
 15 43  1  0  0  0  0
 15 44  1  0  0  0  0
 16 17  1  0  0  0  0
 16 45  1  0  0  0  0
 16 46  1  0  0  0  0
 17 29  1  0  0  0  0
 17 18  1  0  0  0  0
 17 23  1  0  0  0  0
 18 19  1  0  0  0  0
 18 20  1  0  0  0  0
 18 59  1  0  0  0  0
 19 47  1  0  0  0  0
 19 48  1  0  0  0  0
 19 49  1  0  0  0  0
 20 21  1  0  0  0  0
 20 50  1  0  0  0  0
 20 51  1  0  0  0  0
 21 22  1  0  0  0  0
 21 52  1  0  0  0  0
 21 53  1  0  0  0  0
 22 54  1  0  0  0  0
 23 30  1  0  0  0  0
 23 24  1  0  0  0  0
 24 55  1  0  0  0  0
 24 56  1  0  0  0  0
 24 57  1  0  0  0  0
 25 26  1  0  0  0  0
 26 27  2  0  0  0  0
 26 58  1  0  0  0  0
 27 28  1  0  0  0  0
M  CHG  1  18   1
M  END
> <s_m_source_file>
AV-unprocessed.smi

> <i_m_source_file_index>
290

> <i_lp_mmshare_version>
43012

> <i_f3d_flags>
0

> <s_epik_input>
W0NIMl0xW0NIMl1PW0NAQEhdKFtDSDNdKVtDQEBdMShbT0hdKVtDSDJdbihbY0hdbjIpYyhjMjMpbltjSF1uYzNONFtDSDJdW0NIMl1bQ0BIXShbQ0BIXTRbQ0gzXSlOKFtDSDNdKVtDSDJdW0NIMl1bT0hd

> <s_epik_cmdline>
J2VwaWtfcHl0aG9uJywgJy1waCcsICc3LjAnLCAnLXRuJywgJzgnLCAnLW1hJywgJzIwMCcsICctbWV0YWxfYmluZGluZycsICctaW1hZScsICc8aW5maWxlLm1hZT4nLCAnLW9tYWUnLCAnPG91dGZpbGUubWFlPic=

> <r_lp_tautomer_probability>
1

> <r_epik_Ionization_Penalty>
0.0036983

> <r_epik_Ionization_Penalty_Charging>
0.0032725

> <r_epik_Ionization_Penalty_Neutral>
0.000425798

> <r_epik_State_Penalty>
-0

> <r_epik_Charging_Adjusted_Penalty>
0.0032725

> <i_epik_Tot_Q>
1

> <i_epik_Tot_abs_Q>
1

> <r_epik_Metal_State_Penalty>
-0

> <b_epik_Metal_Only>
0

> <s_lp_Force_Field>
OPLS_2005

> <r_lp_Energy>
72.0744

> <b_lp_Chiralities_Consistent>
1

> <s_lp_Variant>
AV-unprocessed.smi:290-10

> <Gold.Version>
5.8.1

> <Gold.Id.Protein>
6NUR|6NUR_protein|mol2

> <Gold.PLP.Fitness>
47.9405

> <Gold.PLP.PLP>
-38.6831

> <Gold.PLP.part.hbond>
-4.7813

> <Gold.PLP.part.metal>
0.0000

> <Gold.PLP.part.buried>
-0.8533

> <Gold.PLP.part.nonpolar>
-33.3359

> <Gold.PLP.part.repulsive>
0.5581

> <Gold.PLP.ligand.clash>
0.0000

> <Gold.PLP.ligand.torsion>
1.0733

> <Gold.PLP.Chemscore.Hbond>
2.7398

> <Gold.PLP.Chemscore.CHOScore>
1.0000

> <Gold.PLP.Chemscore.Metal>
0.0000

> <Gold.Chemscore.Hbonds>
donor molecule, donor type, donor heavy atom, donor atom, acceptor molecule, acceptor atom, score
      L1  H     7    39       P1  7957  0.51
      L1  H    22    54       P1  7921  0.60
      P1  H  7989  7998       L1     7  0.02
      P1  H  8011  8017       L1     7  1.00
      L1  C    10    42       P1  7957  1.00

> <Gold.PLP.Chemscore.Internal.Correction>
0.1846

> <Gold.Rescore>
     Score         DG    S(hbond)    S(metal)    S(lipo)     H(rot)  DE(clash)    DE(int)     intcor
      7.40     -11.76       1.70        0.00      85.21       3.67       2.77       1.59       ----

> <Gold.Chemscore.Fitness>
7.4001

> <Gold.Chemscore.DG>
-11.7580

> <Gold.Chemscore.ZeroCoef>
-5.4800

> <Gold.Chemscore.Hbond>
1.7045

> <Gold.Chemscore.Metal>
0.0000

> <Gold.Chemscore.Lipo>
85.2068

> <Gold.Chemscore.Internal_Hbond>
0.0000

> <Gold.Chemscore.DEClash>
2.7706

> <Gold.Chemscore.DEInternal>
1.5873

> <Gold.Chemscore.Rot>
3.6658

> <Gold.Chemscore.Internal.Correction>
   9.000000E+99

> <Gold.Chemscore.Hbonds>
donor molecule, donor type, donor heavy atom, donor atom, acceptor molecule, acceptor atom, score
      L1  H     7    39       P1  7957  0.52
      L1  H    22    54       P1  7921  0.42
      P1  H  7989  7998       L1     7  0.01
      P1  H  8011  8017       L1     7  0.77

> <Gold.Chemscore.Hbond.Weighted>
-5.6932

> <Gold.Chemscore.Metal.Weighted>
-0.0000

> <Gold.Chemscore.Lipo.Weighted>
-9.9692

> <Gold.Chemscore.Internal_Hbond.Weighted>
0.0000

> <Gold.Chemscore.DEClash.Weighted>
2.7706

> <Gold.Chemscore.DEInternal.Weighted>
1.5873

> <Gold.Chemscore.Rot.Weighted>
9.3844

> <Gold.Chemscore.Internal.Correction.Weighted>
   9.000000E+99

> <Gold.Protein.RotatedTorsions>
[ 6907 6896 6895 6894 ] final    3.74 input  -60.11 | X-H torsion
[ 7974 7965 7964 7962 ] final -172.56 input  175.53 | X-H torsion
[ 8008 7997 7996 7995 ] final   25.00 input   59.86 | X-H torsion
[ 10167 10162 10161 10158 ] final  166.23 input  -65.29 | X-H torsion
[ 10718 10713 10712 10709 ] final   35.15 input   66.30 | X-H torsion
[ 10763 10752 10751 10750 ] final   26.63 input  -60.55 | X-H torsion
[ 11005 11000 10999 10996 ] final -147.62 input  -57.11 | X-H torsion

> <Gold.Protein.ActiveResidues>
 VAL166  LYS551  ARG553  GLY616  TRP617  ASP618  TYR619  PRO620  LYS621  CYS622 
 ASP623  PHE694  ASN695  SER759  ASP760  ASP761  ALA762  ILE779  LEU786  VAL792 
 PHE793  MET794  SER795  GLU796  ALA797  LYS798  CYS799  TRP800  GLU811  SER814 

> <Gold.Protein.RotatedAtoms>
  151.6299  135.1024  160.0119 H   0  0  0  0  0  0  0  0  0  0  0  0  # atno 6907 bound_to 6896
  152.4112  133.6962  159.6408 H   0  0  0  0  0  0  0  0  0  0  0  0  # atno 6908 bound_to 6896
  150.8002  133.8538  159.3253 H   0  0  0  0  0  0  0  0  0  0  0  0  # atno 6909 bound_to 6896
  144.7145  140.1754  143.6363 H   0  0  0  0  0  0  0  0  0  0  0  0  # atno 7974 bound_to 7965
  155.0050  140.3130  155.4852 H   0  0  0  0  0  0  0  0  0  0  0  0  # atno 8008 bound_to 7997
  156.2919  140.2225  156.5103 H   0  0  0  0  0  0  0  0  0  0  0  0  # atno 8009 bound_to 7997
  154.7585  140.0461  157.0941 H   0  0  0  0  0  0  0  0  0  0  0  0  # atno 8010 bound_to 7997
  139.4920  144.4049  151.9367 H   0  0  0  0  0  0  0  0  0  0  0  0  # atno 10167 bound_to 10162
  157.3192  130.7439  149.6774 H   0  0  0  0  0  0  0  0  0  0  0  0  # atno 10718 bound_to 10713
  153.0609  135.6556  154.0464 H   0  0  0  0  0  0  0  0  0  0  0  0  # atno 10763 bound_to 10752
  154.0132  135.2926  155.3391 H   0  0  0  0  0  0  0  0  0  0  0  0  # atno 10764 bound_to 10752
  154.6947  135.5268  153.8510 H   0  0  0  0  0  0  0  0  0  0  0  0  # atno 10765 bound_to 10752
  140.7698  134.3202  157.5078 H   0  0  0  0  0  0  0  0  0  0  0  0  # atno 11005 bound_to 11000
  145.8905  139.2373  143.1552 LP  0  0  0  0  0  0  0  0  0  0  0  0  # atno 17320 bound_to 7965
  145.9908  140.8604  143.0067 LP  0  0  0  0  0  0  0  0  0  0  0  0  # atno 17321 bound_to 7965
  140.3489  144.3113  150.5953 LP  0  0  0  0  0  0  0  0  0  0  0  0  # atno 17342 bound_to 10162
  140.5502  143.2208  151.7939 LP  0  0  0  0  0  0  0  0  0  0  0  0  # atno 17343 bound_to 10162
  155.9684  130.4228  150.4534 LP  0  0  0  0  0  0  0  0  0  0  0  0  # atno 17370 bound_to 10713
  157.2546  131.0554  151.2358 LP  0  0  0  0  0  0  0  0  0  0  0  0  # atno 17371 bound_to 10713
  139.8757  134.9253  156.3373 LP  0  0  0  0  0  0  0  0  0  0  0  0  # atno 17394 bound_to 11000
  140.9585  133.7404  156.0368 LP  0  0  0  0  0  0  0  0  0  0  0  0  # atno 17395 bound_to 11000

$$$$
