AV-unprocessed.smi:1601|AV-procd|sdf|6431|dock6
  -GOLD-   22720 7 73D 1   1.00000     0.00000
 Structure written by MMmdl.
 41 42  0  0  0  0  0  0  0  0  1 V2000
  148.1326  140.7763  154.0510 C   0  0  0  0  0  0  0  0  0  0  0  0
  149.0511  139.5338  153.9202 C   0  0  2  0  0  0  0  0  0  0  0  0
  148.3674  138.3277  154.6215 C   0  0  0  0  0  0  0  0  0  0  0  0
  147.6094  137.4998  153.6903 N   0  0  0  0  0  0  0  0  0  0  0  0
  146.2759  137.3571  153.7059 C   0  0  0  0  0  0  0  0  0  0  0  0
  145.5504  137.9064  154.5357 O   0  0  0  0  0  0  0  0  0  0  0  0
  145.6705  136.4482  152.6233 C   0  0  2  0  0  0  0  0  0  0  0  0
  145.9063  137.0579  151.2237 C   0  0  0  0  0  0  0  0  0  0  0  0
  144.2589  136.1589  152.8994 N   0  0  0  0  0  0  0  0  0  0  0  0
  143.1527  136.9673  152.6982 C   0  0  0  0  0  0  0  0  0  0  0  0
  142.0579  136.3075  153.1775 C   0  0  0  0  0  0  0  0  0  0  0  0
  142.5952  135.0981  153.6946 C   0  0  0  0  0  0  0  0  0  0  0  0
  143.9068  135.0224  153.5471 N   0  0  0  0  0  0  0  0  0  0  0  0
  150.4285  139.7903  154.4027 N   0  0  0  0  0  0  0  0  0  0  0  0
  150.4603  140.4342  155.7210 C   0  0  0  0  0  0  0  0  0  0  0  0
  151.8906  140.6713  156.2368 C   0  0  0  0  0  0  0  0  0  0  0  0
  152.5960  139.4390  156.2779 O   0  0  0  0  0  0  0  0  0  0  0  0
  152.6592  138.8186  155.0012 C   0  0  0  0  0  0  0  0  0  0  0  0
  151.2347  138.5662  154.4781 C   0  0  0  0  0  0  0  0  0  0  0  0
  147.1070  140.5743  153.7442 H   0  0  0  0  0  0  0  0  0  0  0  0
  148.4579  141.6000  153.4174 H   0  0  0  0  0  0  0  0  0  0  0  0
  148.1005  141.1347  155.0804 H   0  0  0  0  0  0  0  0  0  0  0  0
  149.1080  139.2911  152.8578 H   0  0  0  0  0  0  0  0  0  0  0  0
  149.0981  137.6624  155.0794 H   0  0  0  0  0  0  0  0  0  0  0  0
  147.7123  138.6843  155.4184 H   0  0  0  0  0  0  0  0  0  0  0  0
  148.1341  137.0129  152.9782 H   0  0  0  0  0  0  0  0  0  0  0  0
  146.1948  135.4915  152.6551 H   0  0  0  0  0  0  0  0  0  0  0  0
  146.9517  137.3361  151.0839 H   0  0  0  0  0  0  0  0  0  0  0  0
  145.3023  137.9529  151.0669 H   0  0  0  0  0  0  0  0  0  0  0  0
  145.6593  136.3464  150.4352 H   0  0  0  0  0  0  0  0  0  0  0  0
  143.2297  137.9383  152.2315 H   0  0  0  0  0  0  0  0  0  0  0  0
  141.0318  136.6435  153.1706 H   0  0  0  0  0  0  0  0  0  0  0  0
  142.0774  134.2835  154.1794 H   0  0  0  0  0  0  0  0  0  0  0  0
  149.9735  141.4068  155.6874 H   0  0  0  0  0  0  0  0  0  0  0  0
  149.9120  139.8271  156.4428 H   0  0  0  0  0  0  0  0  0  0  0  0
  152.4190  141.3820  155.5991 H   0  0  0  0  0  0  0  0  0  0  0  0
  151.8649  141.0994  157.2389 H   0  0  0  0  0  0  0  0  0  0  0  0
  153.2210  139.4474  154.3084 H   0  0  0  0  0  0  0  0  0  0  0  0
  153.2011  137.8772  155.0901 H   0  0  0  0  0  0  0  0  0  0  0  0
  150.7386  137.8360  155.1192 H   0  0  0  0  0  0  0  0  0  0  0  0
  151.3337  138.1092  153.4953 H   0  0  0  0  0  0  0  0  0  0  0  0
  1  2  1  0  0  0  0
  1 20  1  0  0  0  0
  1 21  1  0  0  0  0
  1 22  1  0  0  0  0
  2  3  1  0  0  0  0
  2 14  1  0  0  0  0
  2 23  1  0  0  0  0
  3  4  1  0  0  0  0
  3 24  1  0  0  0  0
  3 25  1  0  0  0  0
  4  5  1  0  0  0  0
  4 26  1  0  0  0  0
  5  6  2  0  0  0  0
  5  7  1  0  0  0  0
  7  8  1  0  0  0  0
  7  9  1  0  0  0  0
  7 27  1  0  0  0  0
  8 28  1  0  0  0  0
  8 29  1  0  0  0  0
  8 30  1  0  0  0  0
  9 13  1  0  0  0  0
  9 10  1  0  0  0  0
 10 11  2  0  0  0  0
 10 31  1  0  0  0  0
 11 12  1  0  0  0  0
 11 32  1  0  0  0  0
 12 13  2  0  0  0  0
 12 33  1  0  0  0  0
 14 19  1  0  0  0  0
 14 15  1  0  0  0  0
 15 16  1  0  0  0  0
 15 34  1  0  0  0  0
 15 35  1  0  0  0  0
 16 17  1  0  0  0  0
 16 36  1  0  0  0  0
 16 37  1  0  0  0  0
 17 18  1  0  0  0  0
 18 19  1  0  0  0  0
 18 38  1  0  0  0  0
 18 39  1  0  0  0  0
 19 40  1  0  0  0  0
 19 41  1  0  0  0  0
M  END
> <s_m_source_file>
AV-unprocessed.smi

> <i_m_source_file_index>
1601

> <i_lp_mmshare_version>
43012

> <i_f3d_flags>
0

> <s_epik_input>
W0NIMl0xW0NIMl1PW0NIMl1bQ0gyXU4xW0NASF0oW0NIM10pW0NIMl1bTkhdQyg9TylbQ0BIXShbQ0gzXSluMltjSF1bY0hdW2NIXW4y

> <s_epik_cmdline>
J2VwaWtfcHl0aG9uJywgJy1waCcsICc3LjAnLCAnLXRuJywgJzgnLCAnLW1hJywgJzIwMCcsICctbWV0YWxfYmluZGluZycsICctaW1hZScsICc8aW5maWxlLm1hZT4nLCAnLW9tYWUnLCAnPG91dGZpbGUubWFlPic=

> <r_lp_tautomer_probability>
1

> <r_epik_Ionization_Penalty>
0.203323

> <r_epik_Ionization_Penalty_Charging>
0

> <r_epik_Ionization_Penalty_Neutral>
0.203323

> <r_epik_State_Penalty>
0.193192

> <r_epik_Charging_Adjusted_Penalty>
0.193192

> <i_epik_Tot_Q>
0

> <i_epik_Tot_abs_Q>
0

> <r_epik_Metal_State_Penalty>
0.193187

> <b_epik_Metal_Only>
0

> <s_lp_Force_Field>
OPLS_2005

> <r_lp_Energy>
34.8704

> <b_lp_Chiralities_Consistent>
1

> <s_lp_Variant>
AV-unprocessed.smi:1601-1

> <Gold.Version>
5.8.1

> <Gold.Id.Protein>
6NUR|6NUR_protein|mol2

> <Gold.PLP.Fitness>
43.3689

> <Gold.PLP.PLP>
-28.9307

> <Gold.PLP.part.hbond>
-3.0000

> <Gold.PLP.part.metal>
0.0000

> <Gold.PLP.part.buried>
-1.1343

> <Gold.PLP.part.nonpolar>
-25.8031

> <Gold.PLP.part.repulsive>
0.2782

> <Gold.PLP.ligand.clash>
0.0000

> <Gold.PLP.ligand.torsion>
1.3441

> <Gold.PLP.Chemscore.Hbond>
3.0000

> <Gold.PLP.Chemscore.CHOScore>
2.6474

> <Gold.PLP.Chemscore.Metal>
0.0000

> <Gold.Chemscore.Hbonds>
donor molecule, donor type, donor heavy atom, donor atom, acceptor molecule, acceptor atom, score
      L1  H     4    26       P1  7948  1.00
      P1  H  7989  7998       L1    14  0.95
      P1  H  7997  8009       L1    17  1.00
      L1  C    10    31       P1 10171  0.91
      L1  C    10    31       P1 10175  1.00
      L1  C    12    33       P1 10957  0.72

> <Gold.PLP.Chemscore.Internal.Correction>
0.1844

> <Gold.Rescore>
     Score         DG    S(hbond)    S(metal)    S(lipo)     H(rot)  DE(clash)    DE(int)     intcor
     11.12     -13.08       1.19        0.00      70.14       1.79       0.94       1.03       ----

> <Gold.Chemscore.Fitness>
11.1173

> <Gold.Chemscore.DG>
-13.0790

> <Gold.Chemscore.ZeroCoef>
-5.4800

> <Gold.Chemscore.Hbond>
1.1881

> <Gold.Chemscore.Metal>
0.0000

> <Gold.Chemscore.Lipo>
70.1372

> <Gold.Chemscore.Internal_Hbond>
0.0000

> <Gold.Chemscore.DEClash>
0.9355

> <Gold.Chemscore.DEInternal>
1.0261

> <Gold.Chemscore.Rot>
1.7872

> <Gold.Chemscore.Internal.Correction>
   9.000000E+99

> <Gold.Chemscore.Hbonds>
donor molecule, donor type, donor heavy atom, donor atom, acceptor molecule, acceptor atom, score
      L1  H     4    26       P1  7948  0.98
      P1  H  7989  7998       L1    14  0.05
      P1  H  7997  8009       L1    17  0.17

> <Gold.Chemscore.Hbond.Weighted>
-3.9681

> <Gold.Chemscore.Metal.Weighted>
-0.0000

> <Gold.Chemscore.Lipo.Weighted>
-8.2061

> <Gold.Chemscore.Internal_Hbond.Weighted>
0.0000

> <Gold.Chemscore.DEClash.Weighted>
0.9355

> <Gold.Chemscore.DEInternal.Weighted>
1.0261

> <Gold.Chemscore.Rot.Weighted>
4.5752

> <Gold.Chemscore.Internal.Correction.Weighted>
   9.000000E+99

> <Gold.Protein.RotatedTorsions>
[ 6907 6896 6895 6894 ] final  -31.01 input  -60.11 | X-H torsion
[ 7974 7965 7964 7962 ] final -179.90 input  175.53 | X-H torsion
[ 8008 7997 7996 7995 ] final  175.01 input   59.86 | X-H torsion
[ 10167 10162 10161 10158 ] final   94.91 input  -65.29 | X-H torsion
[ 10718 10713 10712 10709 ] final  -15.07 input   66.30 | X-H torsion
[ 10763 10752 10751 10750 ] final   29.38 input  -60.55 | X-H torsion
[ 11005 11000 10999 10996 ] final   24.73 input  -57.11 | X-H torsion

> <Gold.Protein.ActiveResidues>
 VAL166  LYS551  ARG553  GLY616  TRP617  ASP618  TYR619  PRO620  LYS621  CYS622 
 ASP623  PHE694  ASN695  SER759  ASP760  ASP761  ALA762  ILE779  LEU786  VAL792 
 PHE793  MET794  SER795  GLU796  ALA797  LYS798  CYS799  TRP800  GLU811  SER814 

> <Gold.Protein.RotatedAtoms>
  151.0979  134.9955  159.8434 H   0  0  0  0  0  0  0  0  0  0  0  0  # atno 6907 bound_to 6896
  152.5434  134.1986  159.8713 H   0  0  0  0  0  0  0  0  0  0  0  0  # atno 6908 bound_to 6896
  151.2027  133.4557  159.2630 H   0  0  0  0  0  0  0  0  0  0  0  0  # atno 6909 bound_to 6896
  144.7140  140.0648  143.6431 H   0  0  0  0  0  0  0  0  0  0  0  0  # atno 7974 bound_to 7965
  156.0914  140.1420  156.9586 H   0  0  0  0  0  0  0  0  0  0  0  0  # atno 8008 bound_to 7997
  154.4644  140.0931  156.7029 H   0  0  0  0  0  0  0  0  0  0  0  0  # atno 8009 bound_to 7997
  155.4912  140.3448  155.4357 H   0  0  0  0  0  0  0  0  0  0  0  0  # atno 8010 bound_to 7997
  139.8039  144.6802  150.9729 H   0  0  0  0  0  0  0  0  0  0  0  0  # atno 10167 bound_to 10162
  156.6069  130.4839  149.6217 H   0  0  0  0  0  0  0  0  0  0  0  0  # atno 10718 bound_to 10713
  153.0434  135.6490  154.0882 H   0  0  0  0  0  0  0  0  0  0  0  0  # atno 10763 bound_to 10752
  154.0584  135.2890  155.3330 H   0  0  0  0  0  0  0  0  0  0  0  0  # atno 10764 bound_to 10752
  154.6673  135.5369  153.8159 H   0  0  0  0  0  0  0  0  0  0  0  0  # atno 10765 bound_to 10752
  140.3556  134.2181  155.7676 H   0  0  0  0  0  0  0  0  0  0  0  0  # atno 11005 bound_to 11000
  145.9834  139.2958  143.1028 LP  0  0  0  0  0  0  0  0  0  0  0  0  # atno 17320 bound_to 7965
  145.8985  140.9258  143.0515 LP  0  0  0  0  0  0  0  0  0  0  0  0  # atno 17321 bound_to 7965
  140.7819  143.4253  151.0777 LP  0  0  0  0  0  0  0  0  0  0  0  0  # atno 17342 bound_to 10162
  139.7924  143.8200  152.3153 LP  0  0  0  0  0  0  0  0  0  0  0  0  # atno 17343 bound_to 10162
  156.2422  130.6858  151.1566 LP  0  0  0  0  0  0  0  0  0  0  0  0  # atno 17370 bound_to 10713
  157.7265  131.0646  150.5908 LP  0  0  0  0  0  0  0  0  0  0  0  0  # atno 17371 bound_to 10713
  141.1999  133.7999  157.0513 LP  0  0  0  0  0  0  0  0  0  0  0  0  # atno 17394 bound_to 11000
  140.0668  134.9724  157.1399 LP  0  0  0  0  0  0  0  0  0  0  0  0  # atno 17395 bound_to 11000

$$$$
