AV-unprocessed.smi:1827|AV-procd|sdf|7422|dock1
  -GOLD-   22720 9103D 1   1.00000     0.00000
 Structure written by MMmdl.
 43 44  0  0  0  0  0  0  0  0  3 V2000
  151.3328  139.4067  155.1890 C   0  0  0  0  0  0  0  0  0  0  0  0
  150.2211  140.4090  155.0469 C   0  0  0  0  0  0  0  0  0  0  0  0
  150.3586  141.5989  155.6178 N   0  0  0  0  0  0  0  0  0  0  0  0
  149.2490  142.2808  155.2615 N   0  0  0  0  0  0  0  0  0  0  0  0
  148.3896  141.5554  154.4673 C   0  0  0  0  0  0  0  0  0  0  0  0
  147.1103  142.1197  153.9456 C   0  0  0  0  0  0  0  0  0  0  0  0
  148.9812  140.3324  154.3386 C   0  0  0  0  0  0  0  0  0  0  0  0
  148.4534  139.2641  153.5711 N   0  0  0  0  0  0  0  0  0  0  0  0
  147.2748  138.6494  153.7533 C   0  0  0  0  0  0  0  0  0  0  0  0
  146.4507  138.9476  154.6173 O   0  0  0  0  0  0  0  0  0  0  0  0
  147.0879  137.6714  152.8555 N   0  0  0  0  0  0  0  0  0  0  0  0
  145.9028  136.8226  152.7740 C   0  0  2  0  0  0  0  0  0  0  0  0
  146.1681  135.4437  153.4064 C   0  0  0  0  0  0  0  0  0  0  0  0
  144.9579  134.5119  153.2329 C   0  0  0  0  0  0  0  0  0  0  0  0
  144.5939  134.3680  151.7980 N   0  3  1  0  0  0  0  0  0  0  0  0
  143.5194  133.3702  151.5609 C   0  0  0  0  0  0  0  0  0  0  0  0
  143.7063  132.6775  150.2066 C   0  0  0  0  0  0  0  0  0  0  0  0
  143.6407  133.5419  149.1737 N   0  5  0  0  0  0  0  0  0  0  0  0
  143.8907  131.4634  150.1647 O   0  0  0  0  0  0  0  0  0  0  0  0
  144.2961  135.6816  151.1736 C   0  0  0  0  0  0  0  0  0  0  0  0
  145.4903  136.6422  151.3043 C   0  0  0  0  0  0  0  0  0  0  0  0
  149.0979  143.2341  155.5590 H   0  0  0  0  0  0  0  0  0  0  0  0
  151.4236  138.7884  154.2959 H   0  0  0  0  0  0  0  0  0  0  0  0
  151.1591  138.7478  156.0395 H   0  0  0  0  0  0  0  0  0  0  0  0
  152.2947  139.8970  155.3425 H   0  0  0  0  0  0  0  0  0  0  0  0
  146.7075  141.5036  153.1416 H   0  0  0  0  0  0  0  0  0  0  0  0
  147.2604  143.1258  153.5534 H   0  0  0  0  0  0  0  0  0  0  0  0
  146.3621  142.1729  154.7364 H   0  0  0  0  0  0  0  0  0  0  0  0
  148.9798  139.0071  152.7492 H   0  0  0  0  0  0  0  0  0  0  0  0
  147.8183  137.5011  152.1794 H   0  0  0  0  0  0  0  0  0  0  0  0
  145.0803  137.3069  153.3044 H   0  0  0  0  0  0  0  0  0  0  0  0
  147.0455  134.9862  152.9467 H   0  0  0  0  0  0  0  0  0  0  0  0
  146.3964  135.5507  154.4676 H   0  0  0  0  0  0  0  0  0  0  0  0
  145.1951  133.5379  153.6619 H   0  0  0  0  0  0  0  0  0  0  0  0
  144.1033  134.9008  153.7888 H   0  0  0  0  0  0  0  0  0  0  0  0
  143.4954  132.6373  152.3691 H   0  0  0  0  0  0  0  0  0  0  0  0
  142.5426  133.8571  151.5535 H   0  0  0  0  0  0  0  0  0  0  0  0
  142.7459  134.0070  148.9779 H   0  0  0  0  0  0  0  0  0  0  0  0
  144.0649  135.5424  150.1168 H   0  0  0  0  0  0  0  0  0  0  0  0
  143.4092  136.1145  151.6391 H   0  0  0  0  0  0  0  0  0  0  0  0
  145.2356  137.6076  150.8655 H   0  0  0  0  0  0  0  0  0  0  0  0
  146.3306  136.2520  150.7278 H   0  0  0  0  0  0  0  0  0  0  0  0
  145.4061  134.0008  151.3212 H   0  0  0  0  0  0  0  0  0  0  0  0
  1  2  1  0  0  0  0
  1 23  1  0  0  0  0
  1 24  1  0  0  0  0
  1 25  1  0  0  0  0
  2  7  1  0  0  0  0
  2  3  2  0  0  0  0
  3  4  1  0  0  0  0
  4 22  1  0  0  0  0
  4  5  1  0  0  0  0
  5  6  1  0  0  0  0
  5  7  2  0  0  0  0
  6 26  1  0  0  0  0
  6 27  1  0  0  0  0
  6 28  1  0  0  0  0
  7  8  1  0  0  0  0
  8  9  1  0  0  0  0
  8 29  1  0  0  0  0
  9 10  2  0  0  0  0
  9 11  1  0  0  0  0
 11 12  1  0  0  0  0
 11 30  1  0  0  0  0
 12 21  1  0  0  0  0
 12 13  1  0  0  0  0
 12 31  1  0  0  0  0
 13 14  1  0  0  0  0
 13 32  1  0  0  0  0
 13 33  1  0  0  0  0
 14 15  1  0  0  0  0
 14 34  1  0  0  0  0
 14 35  1  0  0  0  0
 15 16  1  0  0  0  0
 15 20  1  0  0  0  0
 15 43  1  0  0  0  0
 16 17  1  0  0  0  0
 16 36  1  0  0  0  0
 16 37  1  0  0  0  0
 17 18  1  0  0  0  0
 17 19  2  0  0  0  0
 18 38  1  0  0  0  0
 20 21  1  0  0  0  0
 20 39  1  0  0  0  0
 20 40  1  0  0  0  0
 21 41  1  0  0  0  0
 21 42  1  0  0  0  0
M  CHG  1  15   1
M  CHG  1  18  -1
M  END
> <s_m_source_file>
AV-unprocessed.smi

> <i_m_source_file_index>
1827

> <i_lp_mmshare_version>
43012

> <i_f3d_flags>
0

> <s_epik_input>
W0NIM11jMW5bbkhdYyhbQ0gzXSljMVtOSF1DKD1PKVtOSF1bQ0hdMltDSDJdW0NIMl1OKFtDSDJdW0NIMl0yKVtDSDJdQyg9TylbTkgyXQ==

> <s_epik_cmdline>
J2VwaWtfcHl0aG9uJywgJy1waCcsICc3LjAnLCAnLXRuJywgJzgnLCAnLW1hJywgJzIwMCcsICctbWV0YWxfYmluZGluZycsICctaW1hZScsICc8aW5maWxlLm1hZT4nLCAnLW9tYWUnLCAnPG91dGZpbGUubWFlPic=

> <r_lp_tautomer_probability>
0.5

> <r_epik_Ionization_Penalty>
5.72915

> <r_epik_Ionization_Penalty_Charging>
5.7288

> <r_epik_Ionization_Penalty_Neutral>
0.000348152

> <r_epik_State_Penalty>
6.54882

> <r_epik_Charging_Adjusted_Penalty>
12.2776

> <i_epik_Tot_Q>
0

> <i_epik_Tot_abs_Q>
2

> <r_epik_Metal_State_Penalty>
2.51333

> <b_epik_Metal_Only>
1

> <s_lp_Force_Field>
OPLS_2005

> <r_lp_Energy>
10.1727

> <b_lp_Chiralities_Consistent>
1

> <s_lp_Variant>
AV-unprocessed.smi:1827-4

> <Gold.Version>
5.8.1

> <Gold.Id.Protein>
6NUR|6NUR_protein|mol2

> <Gold.PLP.Fitness>
46.1285

> <Gold.PLP.PLP>
-35.4028

> <Gold.PLP.part.hbond>
-5.6953

> <Gold.PLP.part.metal>
0.0000

> <Gold.PLP.part.buried>
-2.6321

> <Gold.PLP.part.nonpolar>
-27.6359

> <Gold.PLP.part.repulsive>
0.6083

> <Gold.PLP.ligand.clash>
0.0000

> <Gold.PLP.ligand.torsion>
1.1434

> <Gold.PLP.Chemscore.Hbond>
4.2000

> <Gold.PLP.Chemscore.CHOScore>
0.0000

> <Gold.PLP.Chemscore.Metal>
0.0000

> <Gold.Chemscore.Hbonds>
donor molecule, donor type, donor heavy atom, donor atom, acceptor molecule, acceptor atom, score
      L1  H     4    22       P1  8028  0.93
      L1  H     8    29       P1  7957  0.67
      L1  H    11    30       P1  7948  0.75
      L1  H    18    38       P1 10186  0.98
      P1  H 10785 10796       L1    19  0.69

> <Gold.PLP.Chemscore.Internal.Correction>
0.4126

> <Gold.Rescore>
     Score         DG    S(hbond)    S(metal)    S(lipo)     H(rot)  DE(clash)    DE(int)     intcor
     19.39     -21.46       3.98        0.00      65.81       1.96       0.82       1.26       ----

> <Gold.Chemscore.Fitness>
19.3867

> <Gold.Chemscore.DG>
-21.4620

> <Gold.Chemscore.ZeroCoef>
-5.4800

> <Gold.Chemscore.Hbond>
3.9795

> <Gold.Chemscore.Metal>
0.0000

> <Gold.Chemscore.Lipo>
65.8077

> <Gold.Chemscore.Internal_Hbond>
0.0000

> <Gold.Chemscore.DEClash>
0.8153

> <Gold.Chemscore.DEInternal>
1.2599

> <Gold.Chemscore.Rot>
1.9566

> <Gold.Chemscore.Internal.Correction>
   9.000000E+99

> <Gold.Chemscore.Hbonds>
donor molecule, donor type, donor heavy atom, donor atom, acceptor molecule, acceptor atom, score
      L1  H     4    22       P1  8028  0.89
      L1  H     8    29       P1  7957  0.66
      L1  H    11    30       P1  7948  0.76
      L1  H    18    38       P1 10186  0.93
      P1  H 10785 10796       L1    19  0.66

> <Gold.Chemscore.Hbond.Weighted>
-13.2915

> <Gold.Chemscore.Metal.Weighted>
-0.0000

> <Gold.Chemscore.Lipo.Weighted>
-7.6995

> <Gold.Chemscore.Internal_Hbond.Weighted>
0.0000

> <Gold.Chemscore.DEClash.Weighted>
0.8153

> <Gold.Chemscore.DEInternal.Weighted>
1.2599

> <Gold.Chemscore.Rot.Weighted>
5.0090

> <Gold.Chemscore.Internal.Correction.Weighted>
   9.000000E+99

> <Gold.Protein.RotatedTorsions>
[ 6907 6896 6895 6894 ] final   13.14 input  -60.11 | X-H torsion
[ 7974 7965 7964 7962 ] final  -48.65 input  175.53 | X-H torsion
[ 8008 7997 7996 7995 ] final   79.75 input   59.86 | X-H torsion
[ 10167 10162 10161 10158 ] final  162.59 input  -65.29 | X-H torsion
[ 10718 10713 10712 10709 ] final  -29.75 input   66.30 | X-H torsion
[ 10763 10752 10751 10750 ] final  108.41 input  -60.55 | X-H torsion
[ 11005 11000 10999 10996 ] final   24.28 input  -57.11 | X-H torsion

> <Gold.Protein.ActiveResidues>
 VAL166  LYS551  ARG553  GLY616  TRP617  ASP618  TYR619  PRO620  LYS621  CYS622 
 ASP623  PHE694  ASN695  SER759  ASP760  ASP761  ALA762  ILE779  LEU786  VAL792 
 PHE793  MET794  SER795  GLU796  ALA797  LYS798  CYS799  TRP800  GLU811  SER814 

> <Gold.Protein.RotatedAtoms>
  151.7816  135.0760  160.0374 H   0  0  0  0  0  0  0  0  0  0  0  0  # atno 6907 bound_to 6896
  152.3219  133.5859  159.5759 H   0  0  0  0  0  0  0  0  0  0  0  0  # atno 6908 bound_to 6896
  150.7374  133.9914  159.3650 H   0  0  0  0  0  0  0  0  0  0  0  0  # atno 6909 bound_to 6896
  145.9489  140.7591  142.9514 H   0  0  0  0  0  0  0  0  0  0  0  0  # atno 7974 bound_to 7965
  155.8741  140.3447  155.5841 H   0  0  0  0  0  0  0  0  0  0  0  0  # atno 8008 bound_to 7997
  155.7795  140.0856  157.2086 H   0  0  0  0  0  0  0  0  0  0  0  0  # atno 8009 bound_to 7997
  154.4019  140.1503  156.3022 H   0  0  0  0  0  0  0  0  0  0  0  0  # atno 8010 bound_to 7997
  139.4862  144.4422  151.8937 H   0  0  0  0  0  0  0  0  0  0  0  0  # atno 10167 bound_to 10162
  156.4085  130.4403  149.7269 H   0  0  0  0  0  0  0  0  0  0  0  0  # atno 10718 bound_to 10713
  153.4202  135.3813  155.2106 H   0  0  0  0  0  0  0  0  0  0  0  0  # atno 10763 bound_to 10752
  154.8744  135.3815  154.4393 H   0  0  0  0  0  0  0  0  0  0  0  0  # atno 10764 bound_to 10752
  153.4912  135.7088  153.5946 H   0  0  0  0  0  0  0  0  0  0  0  0  # atno 10765 bound_to 10752
  140.3604  134.2131  155.7672 H   0  0  0  0  0  0  0  0  0  0  0  0  # atno 11005 bound_to 11000
  144.6792  140.2403  143.7344 LP  0  0  0  0  0  0  0  0  0  0  0  0  # atno 17320 bound_to 7965
  145.8198  139.2039  143.1945 LP  0  0  0  0  0  0  0  0  0  0  0  0  # atno 17321 bound_to 7965
  140.3874  144.2659  150.5902 LP  0  0  0  0  0  0  0  0  0  0  0  0  # atno 17342 bound_to 10162
  140.5177  143.2273  151.8437 LP  0  0  0  0  0  0  0  0  0  0  0  0  # atno 17343 bound_to 10162
  156.4257  130.7790  151.2809 LP  0  0  0  0  0  0  0  0  0  0  0  0  # atno 17370 bound_to 10713
  157.7506  131.0169  150.3564 LP  0  0  0  0  0  0  0  0  0  0  0  0  # atno 17371 bound_to 10713
  141.1985  133.8033  157.0577 LP  0  0  0  0  0  0  0  0  0  0  0  0  # atno 17394 bound_to 11000
  140.0631  134.9744  157.1339 LP  0  0  0  0  0  0  0  0  0  0  0  0  # atno 17395 bound_to 11000

$$$$
