AV-unprocessed.smi:1047|AV-procd|sdf|4585|dock6
  -GOLD-   22720 3 53D 1   1.00000     0.00000
 Structure written by MMmdl.
 58 60  0  0  0  0  0  0  0  0  4 V2000
  143.4481  147.1413  155.3818 C   0  0  0  0  0  0  0  0  0  0  0  0
  143.3030  145.7022  155.8970 C   0  0  0  0  0  0  0  0  0  0  0  0
  143.0770  144.7244  154.7993 N   0  3  2  0  0  0  0  0  0  0  0  0
  142.3877  143.4877  155.2409 C   0  0  0  0  0  0  0  0  0  0  0  0
  143.3612  142.5329  155.9549 C   0  0  0  0  0  0  0  0  0  0  0  0
  144.4544  142.2389  155.0928 O   0  0  0  0  0  0  0  0  0  0  0  0
  145.2084  143.3973  154.7487 C   0  0  1  0  0  0  0  0  0  0  0  0
  146.3891  142.9526  153.8717 C   0  0  0  0  0  0  0  0  0  0  0  0
  147.4255  142.2653  154.6683 N   0  3  0  0  0  0  0  0  0  0  0  0
  148.0923  141.1553  153.9575 C   0  0  0  0  0  0  0  0  0  0  0  0
  149.2869  140.6108  154.7587 C   0  0  1  0  0  0  0  0  0  0  0  0
  150.1458  139.9174  153.8748 O   0  0  0  0  0  0  0  0  0  0  0  0
  150.0672  141.7408  155.4589 C   0  0  0  0  0  0  0  0  0  0  0  0
  150.8647  141.2677  156.6003 N   0  0  0  0  0  0  0  0  0  0  0  0
  151.4489  140.0558  156.8071 C   0  0  0  0  0  0  0  0  0  0  0  0
  152.0641  140.0971  158.0211 N   0  3  0  0  0  0  0  0  0  0  0  0
  151.8687  141.3522  158.6003 C   0  0  0  0  0  0  0  0  0  0  0  0
  152.2950  141.8673  159.8185 C   0  0  0  0  0  0  0  0  0  0  0  0
  151.9277  143.1979  160.1203 C   0  0  0  0  0  0  0  0  0  0  0  0
  152.3758  143.7907  161.4456 C   0  0  0  0  0  0  0  0  0  0  0  0
  151.1582  143.9671  159.2096 C   0  0  0  0  0  0  0  0  0  0  0  0
  150.7719  145.3980  159.5435 C   0  0  0  0  0  0  0  0  0  0  0  0
  150.7332  143.4243  157.9757 C   0  0  0  0  0  0  0  0  0  0  0  0
  151.1011  142.1102  157.6942 C   0  0  0  0  0  0  0  0  0  0  0  0
  144.2848  144.3864  154.0021 C   0  0  0  0  0  0  0  0  0  0  0  0
  143.5066  147.8418  156.2152 H   0  0  0  0  0  0  0  0  0  0  0  0
  142.5927  147.4296  154.7702 H   0  0  0  0  0  0  0  0  0  0  0  0
  144.3503  147.2764  154.7861 H   0  0  0  0  0  0  0  0  0  0  0  0
  144.1684  145.4239  156.4980 H   0  0  0  0  0  0  0  0  0  0  0  0
  142.4456  145.6800  156.5708 H   0  0  0  0  0  0  0  0  0  0  0  0
  141.5367  143.7253  155.8801 H   0  0  0  0  0  0  0  0  0  0  0  0
  141.9780  142.9911  154.3603 H   0  0  0  0  0  0  0  0  0  0  0  0
  143.7210  142.9591  156.8923 H   0  0  0  0  0  0  0  0  0  0  0  0
  142.8530  141.6018  156.2062 H   0  0  0  0  0  0  0  0  0  0  0  0
  145.6003  143.8621  155.6549 H   0  0  0  0  0  0  0  0  0  0  0  0
  146.0403  142.2940  153.0750 H   0  0  0  0  0  0  0  0  0  0  0  0
  146.8411  143.8229  153.3939 H   0  0  0  0  0  0  0  0  0  0  0  0
  148.1265  142.9378  154.9447 H   0  0  0  0  0  0  0  0  0  0  0  0
  147.3731  140.3592  153.7577 H   0  0  0  0  0  0  0  0  0  0  0  0
  148.4358  141.5242  152.9901 H   0  0  0  0  0  0  0  0  0  0  0  0
  148.9302  139.9070  155.5121 H   0  0  0  0  0  0  0  0  0  0  0  0
  149.7544  139.9163  153.0142 H   0  0  0  0  0  0  0  0  0  0  0  0
  150.7151  142.2695  154.7592 H   0  0  0  0  0  0  0  0  0  0  0  0
  149.3705  142.4852  155.8464 H   0  0  0  0  0  0  0  0  0  0  0  0
  151.4255  139.2114  156.1331 H   0  0  0  0  0  0  0  0  0  0  0  0
  152.8817  141.2763  160.5069 H   0  0  0  0  0  0  0  0  0  0  0  0
  151.5137  144.0951  162.0398 H   0  0  0  0  0  0  0  0  0  0  0  0
  153.0094  144.6626  161.2812 H   0  0  0  0  0  0  0  0  0  0  0  0
  152.9464  143.0703  162.0326 H   0  0  0  0  0  0  0  0  0  0  0  0
  150.2016  145.8568  158.7353 H   0  0  0  0  0  0  0  0  0  0  0  0
  151.6611  146.0067  159.7098 H   0  0  0  0  0  0  0  0  0  0  0  0
  150.1577  145.4284  160.4436 H   0  0  0  0  0  0  0  0  0  0  0  0
  150.1497  144.0137  157.2840 H   0  0  0  0  0  0  0  0  0  0  0  0
  143.9502  143.9311  153.0687 H   0  0  0  0  0  0  0  0  0  0  0  0
  144.8301  145.2854  153.7173 H   0  0  0  0  0  0  0  0  0  0  0  0
  146.9937  141.8888  155.5008 H   0  0  0  0  0  0  0  0  0  0  0  0
  142.4357  145.1848  154.1686 H   0  0  0  0  0  0  0  0  0  0  0  0
  152.5754  139.3222  158.4245 H   0  0  0  0  0  0  0  0  0  0  0  0
  1  2  1  0  0  0  0
  1 26  1  0  0  0  0
  1 27  1  0  0  0  0
  1 28  1  0  0  0  0
  2  3  1  0  0  0  0
  2 29  1  0  0  0  0
  2 30  1  0  0  0  0
  3 25  1  0  0  0  0
  3  4  1  0  0  0  0
  3 57  1  0  0  0  0
  4  5  1  0  0  0  0
  4 31  1  0  0  0  0
  4 32  1  0  0  0  0
  5  6  1  0  0  0  0
  5 33  1  0  0  0  0
  5 34  1  0  0  0  0
  6  7  1  0  0  0  0
  7  8  1  0  0  0  0
  7 25  1  0  0  0  0
  7 35  1  0  0  0  0
  8  9  1  0  0  0  0
  8 36  1  0  0  0  0
  8 37  1  0  0  0  0
  9 10  1  0  0  0  0
  9 38  1  0  0  0  0
  9 56  1  0  0  0  0
 10 11  1  0  0  0  0
 10 39  1  0  0  0  0
 10 40  1  0  0  0  0
 11 12  1  0  0  0  0
 11 13  1  0  0  0  0
 11 41  1  0  0  0  0
 12 42  1  0  0  0  0
 13 14  1  0  0  0  0
 13 43  1  0  0  0  0
 13 44  1  0  0  0  0
 14 24  1  0  0  0  0
 14 15  1  0  0  0  0
 15 16  2  0  0  0  0
 15 45  1  0  0  0  0
 16 17  1  0  0  0  0
 16 58  1  0  0  0  0
 17 24  2  0  0  0  0
 17 18  1  0  0  0  0
 18 19  2  0  0  0  0
 18 46  1  0  0  0  0
 19 20  1  0  0  0  0
 19 21  1  0  0  0  0
 20 47  1  0  0  0  0
 20 48  1  0  0  0  0
 20 49  1  0  0  0  0
 21 22  1  0  0  0  0
 21 23  2  0  0  0  0
 22 50  1  0  0  0  0
 22 51  1  0  0  0  0
 22 52  1  0  0  0  0
 23 24  1  0  0  0  0
 23 53  1  0  0  0  0
 25 54  1  0  0  0  0
 25 55  1  0  0  0  0
M  CHG  1   3   1
M  CHG  1   9   1
M  CHG  1  16   1
M  END
> <s_m_source_file>
AV-unprocessed.smi

> <i_m_source_file_index>
1047

> <i_lp_mmshare_version>
43012

> <i_f3d_flags>
0

> <s_epik_input>
W0NIM11bQ0gyXU4xW0NIMl1bQ0gyXU9bQ0BIXShbQ0gyXTEpW0NIMl1bTkhdW0NIMl1bQ0BIXShbT0hdKVtDSDJdbihbY0hdbjIpYyhjMjMpW2NIXWMoW0NIM10pYyhbY0hdMylbQ0gzXQ==

> <s_epik_cmdline>
J2VwaWtfcHl0aG9uJywgJy1waCcsICc3LjAnLCAnLXRuJywgJzgnLCAnLW1hJywgJzIwMCcsICctbWV0YWxfYmluZGluZycsICctaW1hZScsICc8aW5maWxlLm1hZT4nLCAnLW9tYWUnLCAnPG91dGZpbGUubWFlPic=

> <r_epik_Ionization_Penalty>
1.6114

> <r_epik_Ionization_Penalty_Charging>
1.61139

> <r_epik_Ionization_Penalty_Neutral>
5.04732e-06

> <r_epik_State_Penalty>
1.63724

> <r_epik_Charging_Adjusted_Penalty>
3.24864

> <i_epik_Tot_Q>
3

> <i_epik_Tot_abs_Q>
3

> <r_epik_Metal_State_Penalty>
5.64594

> <b_epik_Metal_Only>
0

> <s_lp_Force_Field>
OPLS_2005

> <r_lp_Energy>
39.6477

> <b_lp_Chiralities_Consistent>
1

> <s_lp_Variant>
AV-unprocessed.smi:1047-26

> <Gold.Version>
5.8.1

> <Gold.Id.Protein>
6NUR|6NUR_protein|mol2

> <Gold.PLP.Fitness>
62.8682

> <Gold.PLP.PLP>
-53.6379

> <Gold.PLP.part.hbond>
-3.0000

> <Gold.PLP.part.metal>
0.0000

> <Gold.PLP.part.buried>
-7.3780

> <Gold.PLP.part.nonpolar>
-43.1813

> <Gold.PLP.part.repulsive>
0.3746

> <Gold.PLP.ligand.clash>
0.0000

> <Gold.PLP.ligand.torsion>
1.3304

> <Gold.PLP.Chemscore.Hbond>
3.8960

> <Gold.PLP.Chemscore.CHOScore>
0.0000

> <Gold.PLP.Chemscore.Metal>
0.0000

> <Gold.Chemscore.Hbonds>
donor molecule, donor type, donor heavy atom, donor atom, acceptor molecule, acceptor atom, score
      L1  H     9    38       P1  8028  1.95
      L1  H    12    42       P1  7957  1.00
      P1  H  7989  7998       L1    12  0.78

> <Gold.PLP.Chemscore.Internal.Correction>
0.2031

> <Gold.Rescore>
     Score         DG    S(hbond)    S(metal)    S(lipo)     H(rot)  DE(clash)    DE(int)     intcor
     19.49     -21.11       2.11        0.00     134.40       2.78       0.29       1.32       ----

> <Gold.Chemscore.Fitness>
19.4938

> <Gold.Chemscore.DG>
-21.1087

> <Gold.Chemscore.ZeroCoef>
-5.4800

> <Gold.Chemscore.Hbond>
2.1057

> <Gold.Chemscore.Metal>
0.0000

> <Gold.Chemscore.Lipo>
134.3992

> <Gold.Chemscore.Internal_Hbond>
0.0000

> <Gold.Chemscore.DEClash>
0.2917

> <Gold.Chemscore.DEInternal>
1.3232

> <Gold.Chemscore.Rot>
2.7848

> <Gold.Chemscore.Internal.Correction>
   9.000000E+99

> <Gold.Chemscore.Hbonds>
donor molecule, donor type, donor heavy atom, donor atom, acceptor molecule, acceptor atom, score
      L1  H     9    38       P1  8028  0.88
      L1  H    12    42       P1  7957  0.99
      P1  H  7989  7998       L1    12  0.11

> <Gold.Chemscore.Hbond.Weighted>
-7.0331

> <Gold.Chemscore.Metal.Weighted>
-0.0000

> <Gold.Chemscore.Lipo.Weighted>
-15.7247

> <Gold.Chemscore.Internal_Hbond.Weighted>
0.0000

> <Gold.Chemscore.DEClash.Weighted>
0.2917

> <Gold.Chemscore.DEInternal.Weighted>
1.3232

> <Gold.Chemscore.Rot.Weighted>
7.1291

> <Gold.Chemscore.Internal.Correction.Weighted>
   9.000000E+99

> <Gold.Protein.RotatedTorsions>
[ 6907 6896 6895 6894 ] final  -94.62 input  -60.11 | X-H torsion
[ 7974 7965 7964 7962 ] final -167.00 input  175.53 | X-H torsion
[ 8008 7997 7996 7995 ] final  -88.00 input   59.86 | X-H torsion
[ 10167 10162 10161 10158 ] final -106.81 input  -65.29 | X-H torsion
[ 10718 10713 10712 10709 ] final  159.45 input   66.30 | X-H torsion
[ 10763 10752 10751 10750 ] final   84.29 input  -60.55 | X-H torsion
[ 11005 11000 10999 10996 ] final   96.75 input  -57.11 | X-H torsion

> <Gold.Protein.ActiveResidues>
 VAL166  LYS551  ARG553  GLY616  TRP617  ASP618  TYR619  PRO620  LYS621  CYS622 
 ASP623  PHE694  ASN695  SER759  ASP760  ASP761  ALA762  ILE779  LEU786  VAL792 
 PHE793  MET794  SER795  GLU796  ALA797  LYS798  CYS799  TRP800  GLU811  SER814 

> <Gold.Protein.RotatedAtoms>
  150.6946  134.1784  159.4238 H   0  0  0  0  0  0  0  0  0  0  0  0  # atno 6907 bound_to 6896
  151.9759  135.0051  160.0564 H   0  0  0  0  0  0  0  0  0  0  0  0  # atno 6908 bound_to 6896
  152.1799  133.4665  159.4989 H   0  0  0  0  0  0  0  0  0  0  0  0  # atno 6909 bound_to 6896
  144.7232  140.2583  143.6268 H   0  0  0  0  0  0  0  0  0  0  0  0  # atno 7974 bound_to 7965
  154.6698  140.0559  157.0153 H   0  0  0  0  0  0  0  0  0  0  0  0  # atno 8008 bound_to 7997
  155.1106  140.3238  155.4504 H   0  0  0  0  0  0  0  0  0  0  0  0  # atno 8009 bound_to 7997
  156.2652  140.2015  156.6230 H   0  0  0  0  0  0  0  0  0  0  0  0  # atno 8010 bound_to 7997
  140.1837  143.3946  152.1261 H   0  0  0  0  0  0  0  0  0  0  0  0  # atno 10167 bound_to 10162
  157.1640  131.0594  151.2217 H   0  0  0  0  0  0  0  0  0  0  0  0  # atno 10718 bound_to 10713
  153.1368  135.4659  154.9435 H   0  0  0  0  0  0  0  0  0  0  0  0  # atno 10763 bound_to 10752
  154.7713  135.3159  154.8186 H   0  0  0  0  0  0  0  0  0  0  0  0  # atno 10764 bound_to 10752
  153.8717  135.6903  153.4828 H   0  0  0  0  0  0  0  0  0  0  0  0  # atno 10765 bound_to 10752
  139.8779  134.8966  156.4205 H   0  0  0  0  0  0  0  0  0  0  0  0  # atno 11005 bound_to 11000
  145.8160  139.2023  143.1965 LP  0  0  0  0  0  0  0  0  0  0  0  0  # atno 17320 bound_to 7965
  146.0555  140.8025  142.9761 LP  0  0  0  0  0  0  0  0  0  0  0  0  # atno 17321 bound_to 7965
  139.5285  144.7131  151.5141 LP  0  0  0  0  0  0  0  0  0  0  0  0  # atno 17342 bound_to 10162
  140.6502  143.8711  150.6778 LP  0  0  0  0  0  0  0  0  0  0  0  0  # atno 17343 bound_to 10162
  157.4106  130.7383  149.6836 LP  0  0  0  0  0  0  0  0  0  0  0  0  # atno 17370 bound_to 10713
  155.9749  130.4096  150.3889 LP  0  0  0  0  0  0  0  0  0  0  0  0  # atno 17371 bound_to 10713
  140.9137  133.7693  155.9822 LP  0  0  0  0  0  0  0  0  0  0  0  0  # atno 17394 bound_to 11000
  140.8518  134.2945  157.5272 LP  0  0  0  0  0  0  0  0  0  0  0  0  # atno 17395 bound_to 11000

$$$$
