AV-unprocessed.smi:464|AV-procd|sdf|2637|dock2
  -GOLD-   2262023 43D 1   1.00000     0.00000
 Structure written by MMmdl.
 24 25  0  0  0  0  0  0  0  0  2 V2000
  150.2608  139.1745  155.6151 O   0  0  0  0  0  0  0  0  0  0  0  0
  150.7105  140.0333  156.3705 C   0  0  0  0  0  0  0  0  0  0  0  0
  150.1893  141.2902  156.4839 N   0  5  0  0  0  0  0  0  0  0  0  0
  150.7994  142.1181  157.3572 C   0  0  0  0  0  0  0  0  0  0  0  0
  151.8932  141.8359  158.1509 C   0  0  0  0  0  0  0  0  0  0  0  0
  152.4721  142.7396  159.0280 N   0  0  0  0  0  0  0  0  0  0  0  0
  153.0383  142.3515  160.3119 C   0  0  0  0  0  0  0  0  0  0  0  0
  152.2539  143.0152  161.4580 C   0  0  0  0  0  0  0  0  0  0  0  0
  152.2367  144.4281  161.2707 O   0  0  0  0  0  0  0  0  0  0  0  0
  151.6071  144.7991  160.0469 C   0  0  0  0  0  0  0  0  0  0  0  0
  152.3742  144.1828  158.8632 C   0  0  0  0  0  0  0  0  0  0  0  0
  152.4457  140.4826  158.0250 C   0  0  0  0  0  0  0  0  0  0  0  0
  153.4143  140.0595  158.6551 O   0  0  0  0  0  0  0  0  0  0  0  0
  151.7906  139.6938  157.1299 N   0  0  0  0  0  0  0  0  0  0  0  0
  152.1425  138.7549  157.0149 H   0  0  0  0  0  0  0  0  0  0  0  0
  150.3639  143.1378  157.4329 H   0  0  0  0  0  0  0  0  0  0  0  0
  153.0190  141.2664  160.4218 H   0  0  0  0  0  0  0  0  0  0  0  0
  154.0855  142.6543  160.3441 H   0  0  0  0  0  0  0  0  0  0  0  0
  151.2332  142.6326  161.5044 H   0  0  0  0  0  0  0  0  0  0  0  0
  152.7224  142.7885  162.4154 H   0  0  0  0  0  0  0  0  0  0  0  0
  150.5659  144.4731  160.0494 H   0  0  0  0  0  0  0  0  0  0  0  0
  151.5999  145.8861  159.9657 H   0  0  0  0  0  0  0  0  0  0  0  0
  153.3791  144.6024  158.8033 H   0  0  0  0  0  0  0  0  0  0  0  0
  151.8742  144.4237  157.9242 H   0  0  0  0  0  0  0  0  0  0  0  0
  1  2  2  0  0  0  0
  2 14  1  0  0  0  0
  2  3  1  0  0  0  0
  3  4  1  0  0  0  0
  4  5  2  0  0  0  0
  4 16  1  0  0  0  0
  5  6  1  0  0  0  0
  5 12  1  0  0  0  0
  6 11  1  0  0  0  0
  6  7  1  0  0  0  0
  7  8  1  0  0  0  0
  7 17  1  0  0  0  0
  7 18  1  0  0  0  0
  8  9  1  0  0  0  0
  8 19  1  0  0  0  0
  8 20  1  0  0  0  0
  9 10  1  0  0  0  0
 10 11  1  0  0  0  0
 10 21  1  0  0  0  0
 10 22  1  0  0  0  0
 11 23  1  0  0  0  0
 11 24  1  0  0  0  0
 12 13  2  0  0  0  0
 12 14  1  0  0  0  0
 14 15  1  0  0  0  0
M  CHG  1   3  -1
M  END
> <s_m_source_file>
AV-unprocessed.smi

> <i_m_source_file_index>
464

> <i_lp_mmshare_version>
43012

> <i_f3d_flags>
0

> <s_epik_input>
Tz1jMVtuSF1bY0hdYyhjKD1PKVtuSF0xKU4yW0NIMl1bQ0gyXU9bQ0gyXVtDSDJdMg==

> <s_epik_cmdline>
J2VwaWtfcHl0aG9uJywgJy1waCcsICc3LjAnLCAnLXRuJywgJzgnLCAnLW1hJywgJzIwMCcsICctbWV0YWxfYmluZGluZycsICctaW1hZScsICc8aW5maWxlLm1hZT4nLCAnLW9tYWUnLCAnPG91dGZpbGUubWFlPic=

> <r_lp_tautomer_probability>
0.999801

> <r_epik_Ionization_Penalty>
2.66523

> <r_epik_Ionization_Penalty_Charging>
1.22855e-06

> <r_epik_Ionization_Penalty_Neutral>
2.66523

> <r_epik_State_Penalty>
2.66349

> <r_epik_Charging_Adjusted_Penalty>
2.66349

> <i_epik_Tot_Q>
-1

> <i_epik_Tot_abs_Q>
1

> <r_epik_Metal_State_Penalty>
0.434838

> <b_epik_Metal_Only>
1

> <s_lp_Force_Field>
OPLS_2005

> <r_lp_Energy>
24.7156

> <b_lp_Chiralities_Consistent>
1

> <s_lp_Variant>
AV-unprocessed.smi:464-2

> <Gold.Version>
5.8.1

> <Gold.Id.Protein>
6NUR|6NUR_protein|mol2

> <Gold.PLP.Fitness>
31.1497

> <Gold.PLP.PLP>
-28.8527

> <Gold.PLP.part.hbond>
-1.0000

> <Gold.PLP.part.metal>
0.0000

> <Gold.PLP.part.buried>
-3.0388

> <Gold.PLP.part.nonpolar>
-25.1010

> <Gold.PLP.part.repulsive>
0.3362

> <Gold.PLP.ligand.clash>
0.0000

> <Gold.PLP.ligand.torsion>
0.3885

> <Gold.PLP.Chemscore.Hbond>
0.9120

> <Gold.PLP.Chemscore.CHOScore>
0.0000

> <Gold.PLP.Chemscore.Metal>
0.0000

> <Gold.Chemscore.Hbonds>
donor molecule, donor type, donor heavy atom, donor atom, acceptor molecule, acceptor atom, score
      P1  H  7997  8010       L1    13  0.91

> <Gold.PLP.Chemscore.Internal.Correction>
0.3380

> <Gold.Rescore>
     Score         DG    S(hbond)    S(metal)    S(lipo)     H(rot)  DE(clash)    DE(int)     intcor
     13.69     -15.49       0.89        0.00      60.14       0.00       0.03       1.77       ----

> <Gold.Chemscore.Fitness>
13.6948

> <Gold.Chemscore.DG>
-15.4932

> <Gold.Chemscore.ZeroCoef>
-5.4800

> <Gold.Chemscore.Hbond>
0.8911

> <Gold.Chemscore.Metal>
0.0000

> <Gold.Chemscore.Lipo>
60.1446

> <Gold.Chemscore.Internal_Hbond>
0.0000

> <Gold.Chemscore.DEClash>
0.0285

> <Gold.Chemscore.DEInternal>
1.7699

> <Gold.Chemscore.Rot>
0.0000

> <Gold.Chemscore.Internal.Correction>
   9.000000E+99

> <Gold.Chemscore.Hbonds>
donor molecule, donor type, donor heavy atom, donor atom, acceptor molecule, acceptor atom, score
      P1  H  7997  8010       L1    13  0.29

> <Gold.Chemscore.Hbond.Weighted>
-2.9763

> <Gold.Chemscore.Metal.Weighted>
-0.0000

> <Gold.Chemscore.Lipo.Weighted>
-7.0369

> <Gold.Chemscore.Internal_Hbond.Weighted>
0.0000

> <Gold.Chemscore.DEClash.Weighted>
0.0285

> <Gold.Chemscore.DEInternal.Weighted>
1.7699

> <Gold.Chemscore.Rot.Weighted>
0.0000

> <Gold.Chemscore.Internal.Correction.Weighted>
   9.000000E+99

> <Gold.Protein.RotatedTorsions>
[ 6907 6896 6895 6894 ] final -166.68 input  -60.11 | X-H torsion
[ 7974 7965 7964 7962 ] final   82.80 input  175.53 | X-H torsion
[ 8008 7997 7996 7995 ] final   13.07 input   59.86 | X-H torsion
[ 10167 10162 10161 10158 ] final   -8.25 input  -65.29 | X-H torsion
[ 10718 10713 10712 10709 ] final   28.99 input   66.30 | X-H torsion
[ 10763 10752 10751 10750 ] final -112.18 input  -60.55 | X-H torsion
[ 11005 11000 10999 10996 ] final   14.05 input  -57.11 | X-H torsion

> <Gold.Protein.ActiveResidues>
 VAL166  LYS551  ARG553  GLY616  TRP617  ASP618  TYR619  PRO620  LYS621  CYS622 
 ASP623  PHE694  ASN695  SER759  ASP760  ASP761  ALA762  ILE779  LEU786  VAL792 
 PHE793  MET794  SER795  GLU796  ALA797  LYS798  CYS799  TRP800  GLU811  SER814 

> <Gold.Protein.RotatedAtoms>
  151.4475  133.3626  159.2790 H   0  0  0  0  0  0  0  0  0  0  0  0  # atno 6907 bound_to 6896
  150.9114  134.8532  159.7438 H   0  0  0  0  0  0  0  0  0  0  0  0  # atno 6908 bound_to 6896
  152.4934  134.4405  159.9594 H   0  0  0  0  0  0  0  0  0  0  0  0  # atno 6909 bound_to 6896
  145.6203  139.2384  143.2142 H   0  0  0  0  0  0  0  0  0  0  0  0  # atno 7974 bound_to 7965
  154.8293  140.2897  155.5733 H   0  0  0  0  0  0  0  0  0  0  0  0  # atno 8008 bound_to 7997
  156.3004  140.2535  156.3146 H   0  0  0  0  0  0  0  0  0  0  0  0  # atno 8009 bound_to 7997
  154.9249  140.0385  157.2007 H   0  0  0  0  0  0  0  0  0  0  0  0  # atno 8010 bound_to 7997
  140.7053  143.5990  150.8817 H   0  0  0  0  0  0  0  0  0  0  0  0  # atno 10167 bound_to 10162
  157.2407  130.7068  149.6357 H   0  0  0  0  0  0  0  0  0  0  0  0  # atno 10718 bound_to 10713
  154.8337  135.4500  154.1153 H   0  0  0  0  0  0  0  0  0  0  0  0  # atno 10763 bound_to 10752
  153.2404  135.6915  153.7796 H   0  0  0  0  0  0  0  0  0  0  0  0  # atno 10764 bound_to 10752
  153.7145  135.3351  155.3229 H   0  0  0  0  0  0  0  0  0  0  0  0  # atno 10765 bound_to 10752
  140.4739  134.1004  155.7738 H   0  0  0  0  0  0  0  0  0  0  0  0  # atno 11005 bound_to 11000
  146.1436  140.7024  142.9355 LP  0  0  0  0  0  0  0  0  0  0  0  0  # atno 17320 bound_to 7965
  144.7233  140.4446  143.6991 LP  0  0  0  0  0  0  0  0  0  0  0  0  # atno 17321 bound_to 7965
  139.9714  143.6052  152.2972 LP  0  0  0  0  0  0  0  0  0  0  0  0  # atno 17342 bound_to 10162
  139.6640  144.7662  151.1907 LP  0  0  0  0  0  0  0  0  0  0  0  0  # atno 17343 bound_to 10162
  155.9670  130.4459  150.5519 LP  0  0  0  0  0  0  0  0  0  0  0  0  # atno 17370 bound_to 10713
  157.3382  131.0712  151.1809 LP  0  0  0  0  0  0  0  0  0  0  0  0  # atno 17371 bound_to 10713
  141.1564  133.8875  157.1966 LP  0  0  0  0  0  0  0  0  0  0  0  0  # atno 17394 bound_to 11000
  139.9868  135.0079  156.9882 LP  0  0  0  0  0  0  0  0  0  0  0  0  # atno 17395 bound_to 11000

$$$$
