AV-unprocessed.smi:1988|AV-procd|sdf|8058|dock5
  -GOLD-   2272010263D 1   1.00000     0.00000
 Structure written by MMmdl.
 37 38  0  0  0  0  0  0  0  0  1 V2000
  153.0939  142.6997  162.9918 C   0  0  0  0  0  0  0  0  0  0  0  0
  152.6125  142.9244  161.5870 C   0  0  0  0  0  0  0  0  0  0  0  0
  151.6115  143.7606  161.3707 N   0  0  0  0  0  0  0  0  0  0  0  0
  151.3873  143.7423  159.9909 O   0  0  0  0  0  0  0  0  0  0  0  0
  152.2715  142.8827  159.4241 C   0  0  0  0  0  0  0  0  0  0  0  0
  152.1855  142.7074  157.9457 C   0  0  0  0  0  0  0  0  0  0  0  0
  153.0804  142.3306  160.3787 C   0  0  0  0  0  0  0  0  0  0  0  0
  154.1856  141.3219  160.1994 C   0  0  0  0  0  0  0  0  0  0  0  0
  153.6035  140.0545  159.5775 C   0  0  0  0  0  0  0  0  0  0  0  0
  153.1456  140.0845  158.4354 O   0  0  0  0  0  0  0  0  0  0  0  0
  153.5937  138.9609  160.3555 N   0  0  0  0  0  0  0  0  0  0  0  0
  152.9594  137.6900  160.0225 C   0  0  0  0  0  0  0  0  0  0  0  0
  152.9342  136.7428  161.2375 C   0  0  2  0  0  0  0  0  0  0  0  0
  152.8262  137.5029  162.5736 C   0  0  0  0  0  0  0  0  0  0  0  0
  153.0638  136.5147  163.7200 C   0  0  0  0  0  0  0  0  0  0  0  0
  154.2847  135.3060  163.0853 S   0  0  0  0  0  0  0  0  0  0  0  0
  155.6239  135.6511  163.5858 O   0  0  0  0  0  0  0  0  0  0  0  0
  153.7417  133.9488  163.2467 O   0  0  0  0  0  0  0  0  0  0  0  0
  154.1570  135.8123  161.3291 C   0  0  0  0  0  0  0  0  0  0  0  0
  154.1591  142.4711  163.0129 H   0  0  0  0  0  0  0  0  0  0  0  0
  152.5659  141.8652  163.4537 H   0  0  0  0  0  0  0  0  0  0  0  0
  152.9349  143.5803  163.6149 H   0  0  0  0  0  0  0  0  0  0  0  0
  151.8831  141.6901  157.6972 H   0  0  0  0  0  0  0  0  0  0  0  0
  153.1516  142.8964  157.4780 H   0  0  0  0  0  0  0  0  0  0  0  0
  151.4587  143.3926  157.5087 H   0  0  0  0  0  0  0  0  0  0  0  0
  154.9732  141.7042  159.5490 H   0  0  0  0  0  0  0  0  0  0  0  0
  154.6679  141.0796  161.1473 H   0  0  0  0  0  0  0  0  0  0  0  0
  154.0005  139.0362  161.2767 H   0  0  0  0  0  0  0  0  0  0  0  0
  151.9507  137.8421  159.6346 H   0  0  0  0  0  0  0  0  0  0  0  0
  153.5304  137.2334  159.2138 H   0  0  0  0  0  0  0  0  0  0  0  0
  152.0500  136.1082  161.1580 H   0  0  0  0  0  0  0  0  0  0  0  0
  153.5957  138.2754  162.6098 H   0  0  0  0  0  0  0  0  0  0  0  0
  151.8646  138.0069  162.6766 H   0  0  0  0  0  0  0  0  0  0  0  0
  153.4383  136.9911  164.6262 H   0  0  0  0  0  0  0  0  0  0  0  0
  152.1483  135.9740  163.9613 H   0  0  0  0  0  0  0  0  0  0  0  0
  154.0747  134.9321  160.6910 H   0  0  0  0  0  0  0  0  0  0  0  0
  155.0737  136.3425  161.0692 H   0  0  0  0  0  0  0  0  0  0  0  0
  1  2  1  0  0  0  0
  1 20  1  0  0  0  0
  1 21  1  0  0  0  0
  1 22  1  0  0  0  0
  2  7  1  0  0  0  0
  2  3  2  0  0  0  0
  3  4  1  0  0  0  0
  4  5  1  0  0  0  0
  5  6  1  0  0  0  0
  5  7  2  0  0  0  0
  6 23  1  0  0  0  0
  6 24  1  0  0  0  0
  6 25  1  0  0  0  0
  7  8  1  0  0  0  0
  8  9  1  0  0  0  0
  8 26  1  0  0  0  0
  8 27  1  0  0  0  0
  9 10  2  0  0  0  0
  9 11  1  0  0  0  0
 11 12  1  0  0  0  0
 11 28  1  0  0  0  0
 12 13  1  0  0  0  0
 12 29  1  0  0  0  0
 12 30  1  0  0  0  0
 13 19  1  0  0  0  0
 13 14  1  0  0  0  0
 13 31  1  0  0  0  0
 14 15  1  0  0  0  0
 14 32  1  0  0  0  0
 14 33  1  0  0  0  0
 15 16  1  0  0  0  0
 15 34  1  0  0  0  0
 15 35  1  0  0  0  0
 16 17  2  0  0  0  0
 16 18  2  0  0  0  0
 16 19  1  0  0  0  0
 19 36  1  0  0  0  0
 19 37  1  0  0  0  0
M  END
> <s_m_source_file>
AV-unprocessed.smi

> <i_m_source_file_index>
1988

> <i_lp_mmshare_version>
43012

> <i_f3d_flags>
0

> <s_epik_input>
W0NIM11jMW5vYyhbQ0gzXSljMVtDSDJdQyg9TylbTkhdW0NIMl1bQ0BASF0oW0NIMl0yKVtDSDJdW0NIMl1TMig9Tyk9Tw==

> <s_epik_cmdline>
J2VwaWtfcHl0aG9uJywgJy1waCcsICc3LjAnLCAnLXRuJywgJzgnLCAnLW1hJywgJzIwMCcsICctbWV0YWxfYmluZGluZycsICctaW1hZScsICc8aW5maWxlLm1hZT4nLCAnLW9tYWUnLCAnPG91dGZpbGUubWFlPic=

> <r_lp_tautomer_probability>
1

> <r_epik_Ionization_Penalty>
2.7503e-08

> <r_epik_Ionization_Penalty_Charging>
0

> <r_epik_Ionization_Penalty_Neutral>
2.7503e-08

> <r_epik_State_Penalty>
-0

> <r_epik_Charging_Adjusted_Penalty>
0

> <i_epik_Tot_Q>
0

> <i_epik_Tot_abs_Q>
0

> <r_epik_Metal_State_Penalty>
-0

> <b_epik_Metal_Only>
0

> <s_lp_Force_Field>
OPLS_2005

> <r_lp_Energy>
-3.10021

> <b_lp_Chiralities_Consistent>
1

> <s_lp_Variant>
AV-unprocessed.smi:1988-1

> <Gold.Version>
5.8.1

> <Gold.Id.Protein>
6NUR|6NUR_protein|mol2

> <Gold.PLP.Fitness>
40.9308

> <Gold.PLP.PLP>
-38.8435

> <Gold.PLP.part.hbond>
-2.0682

> <Gold.PLP.part.metal>
0.0000

> <Gold.PLP.part.buried>
-5.1616

> <Gold.PLP.part.nonpolar>
-32.0495

> <Gold.PLP.part.repulsive>
0.3722

> <Gold.PLP.ligand.clash>
0.0000

> <Gold.PLP.ligand.torsion>
0.4632

> <Gold.PLP.Chemscore.Hbond>
1.0000

> <Gold.PLP.Chemscore.CHOScore>
0.0000

> <Gold.PLP.Chemscore.Metal>
0.0000

> <Gold.Chemscore.Hbonds>
donor molecule, donor type, donor heavy atom, donor atom, acceptor molecule, acceptor atom, score
      P1  H  7997  8009       L1    10  1.00

> <Gold.PLP.Chemscore.Internal.Correction>
0.0136

> <Gold.Rescore>
     Score         DG    S(hbond)    S(metal)    S(lipo)     H(rot)  DE(clash)    DE(int)     intcor
     14.84     -15.57       0.73        0.00     102.36       1.70       0.26       0.46       ----

> <Gold.Chemscore.Fitness>
14.8420

> <Gold.Chemscore.DG>
-15.5681

> <Gold.Chemscore.ZeroCoef>
-5.4800

> <Gold.Chemscore.Hbond>
0.7344

> <Gold.Chemscore.Metal>
0.0000

> <Gold.Chemscore.Lipo>
102.3621

> <Gold.Chemscore.Internal_Hbond>
0.0000

> <Gold.Chemscore.DEClash>
0.2638

> <Gold.Chemscore.DEInternal>
0.4622

> <Gold.Chemscore.Rot>
1.6958

> <Gold.Chemscore.Internal.Correction>
   9.000000E+99

> <Gold.Chemscore.Hbonds>
donor molecule, donor type, donor heavy atom, donor atom, acceptor molecule, acceptor atom, score
      P1  H  7997  8009       L1    10  0.77

> <Gold.Chemscore.Hbond.Weighted>
-2.4529

> <Gold.Chemscore.Metal.Weighted>
-0.0000

> <Gold.Chemscore.Lipo.Weighted>
-11.9764

> <Gold.Chemscore.Internal_Hbond.Weighted>
0.0000

> <Gold.Chemscore.DEClash.Weighted>
0.2638

> <Gold.Chemscore.DEInternal.Weighted>
0.4622

> <Gold.Chemscore.Rot.Weighted>
4.3413

> <Gold.Chemscore.Internal.Correction.Weighted>
   9.000000E+99

> <Gold.Protein.RotatedTorsions>
[ 6907 6896 6895 6894 ] final  107.36 input  -60.11 | X-H torsion
[ 7974 7965 7964 7962 ] final   24.19 input  175.53 | X-H torsion
[ 8008 7997 7996 7995 ] final  157.17 input   59.86 | X-H torsion
[ 10167 10162 10161 10158 ] final   78.84 input  -65.29 | X-H torsion
[ 10718 10713 10712 10709 ] final   93.09 input   66.30 | X-H torsion
[ 10763 10752 10751 10750 ] final  179.69 input  -60.55 | X-H torsion
[ 11005 11000 10999 10996 ] final  107.14 input  -57.11 | X-H torsion

> <Gold.Protein.ActiveResidues>
 VAL166  LYS551  ARG553  GLY616  TRP617  ASP618  TYR619  PRO620  LYS621  CYS622 
 ASP623  PHE694  ASN695  SER759  ASP760  ASP761  ALA762  ILE779  LEU786  VAL792 
 PHE793  MET794  SER795  GLU796  ALA797  LYS798  CYS799  TRP800  GLU811  SER814 

> <Gold.Protein.RotatedAtoms>
  152.5157  133.9247  159.7550 H   0  0  0  0  0  0  0  0  0  0  0  0  # atno 6907 bound_to 6896
  150.9610  133.6436  159.2761 H   0  0  0  0  0  0  0  0  0  0  0  0  # atno 6908 bound_to 6896
  151.3681  135.0922  159.9509 H   0  0  0  0  0  0  0  0  0  0  0  0  # atno 6909 bound_to 6896
  146.1949  139.7639  142.8804 H   0  0  0  0  0  0  0  0  0  0  0  0  # atno 7974 bound_to 7965
  156.2380  140.1893  156.7067 H   0  0  0  0  0  0  0  0  0  0  0  0  # atno 8008 bound_to 7997
  154.6143  140.0617  156.9560 H   0  0  0  0  0  0  0  0  0  0  0  0  # atno 8009 bound_to 7997
  155.1966  140.3289  155.4352 H   0  0  0  0  0  0  0  0  0  0  0  0  # atno 8010 bound_to 7997
  139.9666  144.5923  150.8023 H   0  0  0  0  0  0  0  0  0  0  0  0  # atno 10167 bound_to 10162
  157.6956  131.0466  150.3981 H   0  0  0  0  0  0  0  0  0  0  0  0  # atno 10718 bound_to 10713
  154.5240  135.2795  155.1238 H   0  0  0  0  0  0  0  0  0  0  0  0  # atno 10763 bound_to 10752
  154.2785  135.6290  153.5341 H   0  0  0  0  0  0  0  0  0  0  0  0  # atno 10764 bound_to 10752
  152.9942  135.5645  154.5736 H   0  0  0  0  0  0  0  0  0  0  0  0  # atno 10765 bound_to 10752
  139.8824  134.9391  156.5773 H   0  0  0  0  0  0  0  0  0  0  0  0  # atno 11005 bound_to 11000
  145.3675  141.0337  143.3250 LP  0  0  0  0  0  0  0  0  0  0  0  0  # atno 17320 bound_to 7965
  144.8560  139.5249  143.6834 LP  0  0  0  0  0  0  0  0  0  0  0  0  # atno 17321 bound_to 7965
  140.7536  143.3011  151.3079 LP  0  0  0  0  0  0  0  0  0  0  0  0  # atno 17342 bound_to 10162
  139.6513  144.0358  152.2628 LP  0  0  0  0  0  0  0  0  0  0  0  0  # atno 17343 bound_to 10162
  156.4377  130.3985  149.6718 LP  0  0  0  0  0  0  0  0  0  0  0  0  # atno 17370 bound_to 10713
  156.3912  130.7628  151.2629 LP  0  0  0  0  0  0  0  0  0  0  0  0  # atno 17371 bound_to 10713
  140.8053  133.8472  155.8762 LP  0  0  0  0  0  0  0  0  0  0  0  0  # atno 17394 bound_to 11000
  140.9555  134.1723  157.4695 LP  0  0  0  0  0  0  0  0  0  0  0  0  # atno 17395 bound_to 11000

$$$$
