AV-unprocessed.smi:174|AV-procd|sdf|1428|dock2
  -GOLD-   2262019203D 1   1.00000     0.00000
 Structure written by MMmdl.
 51 54  0  0  0  0  0  0  0  0  1 V2000
  147.5470  130.7205  155.2187 N   0  0  0  0  0  0  0  0  0  0  0  0
  148.3567  131.5086  154.5082 C   0  0  0  0  0  0  0  0  0  0  0  0
  147.9560  132.1516  153.5390 O   0  0  0  0  0  0  0  0  0  0  0  0
  149.8177  131.5878  154.9742 C   0  0  0  0  0  0  0  0  0  0  0  0
  150.2193  132.9355  155.4049 N   0  0  0  0  0  0  0  0  0  0  0  0
  149.5215  134.0557  154.7676 C   0  0  0  0  0  0  0  0  0  0  0  0
  150.4240  135.2838  154.6150 C   0  0  0  0  0  0  0  0  0  0  0  0
  151.0181  135.6353  155.8987 N   0  0  0  0  0  0  0  0  0  0  0  0
  151.4964  136.8943  156.1063 C   0  0  0  0  0  0  0  0  0  0  0  0
  151.8522  137.6205  155.0128 N   0  0  0  0  0  0  0  0  0  0  0  0
  152.3348  138.8590  155.1402 C   0  0  0  0  0  0  0  0  0  0  0  0
  152.5404  139.5622  156.2534 N   0  0  0  0  0  0  0  0  0  0  0  0
  152.1792  138.8509  157.3584 C   0  0  0  0  0  0  0  0  0  0  0  0
  151.6549  137.5247  157.3798 C   0  0  0  0  0  0  0  0  0  0  0  0
  151.4004  137.1541  158.6975 N   0  0  0  0  0  0  0  0  0  0  0  0
  151.7605  138.1879  159.4066 C   0  0  0  0  0  0  0  0  0  0  0  0
  152.2408  139.2520  158.6812 N   0  0  0  0  0  0  0  0  0  0  0  0
  152.7059  140.5213  159.2119 C   0  0  0  0  0  0  0  0  0  0  0  0
  151.9838  141.7218  158.5650 C   0  0  1  0  0  0  0  0  0  0  0  0
  150.5904  141.6341  158.7882 O   0  0  0  0  0  0  0  0  0  0  0  0
  152.4846  143.1021  159.0381 C   0  0  1  0  0  0  0  0  0  0  0  0
  151.8874  144.3285  158.3413 C   0  0  0  0  0  0  0  0  0  0  0  0
  152.1141  145.4007  159.3824 C   0  0  0  0  0  0  0  0  0  0  0  0
  151.8367  144.6391  160.6755 C   0  0  0  0  0  0  0  0  0  0  0  0
  152.2240  143.2898  160.4273 O   0  0  0  0  0  0  0  0  0  0  0  0
  151.5603  134.5643  156.7512 C   0  0  0  0  0  0  0  0  0  0  0  0
  151.1556  133.1287  156.3654 C   0  0  0  0  0  0  0  0  0  0  0  0
  151.7160  132.1958  156.9416 O   0  0  0  0  0  0  0  0  0  0  0  0
  146.5769  130.6308  154.9536 H   0  0  0  0  0  0  0  0  0  0  0  0
  147.9056  130.2155  156.0158 H   0  0  0  0  0  0  0  0  0  0  0  0
  149.9552  130.8814  155.7941 H   0  0  0  0  0  0  0  0  0  0  0  0
  150.4714  131.2344  154.1747 H   0  0  0  0  0  0  0  0  0  0  0  0
  149.1472  133.7643  153.7853 H   0  0  0  0  0  0  0  0  0  0  0  0
  148.6498  134.3061  155.3740 H   0  0  0  0  0  0  0  0  0  0  0  0
  151.2153  135.0823  153.8913 H   0  0  0  0  0  0  0  0  0  0  0  0
  149.8211  136.1069  154.2301 H   0  0  0  0  0  0  0  0  0  0  0  0
  152.5933  139.3572  154.2174 H   0  0  0  0  0  0  0  0  0  0  0  0
  151.6844  138.2034  160.4842 H   0  0  0  0  0  0  0  0  0  0  0  0
  152.5690  140.5116  160.2931 H   0  0  0  0  0  0  0  0  0  0  0  0
  153.7799  140.5870  159.0346 H   0  0  0  0  0  0  0  0  0  0  0  0
  152.1333  141.6702  157.4857 H   0  0  0  0  0  0  0  0  0  0  0  0
  150.3355  140.7255  158.7372 H   0  0  0  0  0  0  0  0  0  0  0  0
  153.5695  143.1418  158.9242 H   0  0  0  0  0  0  0  0  0  0  0  0
  152.3670  144.5500  157.3876 H   0  0  0  0  0  0  0  0  0  0  0  0
  150.8182  144.2159  158.1663 H   0  0  0  0  0  0  0  0  0  0  0  0
  153.1520  145.7351  159.3570 H   0  0  0  0  0  0  0  0  0  0  0  0
  151.4700  146.2706  159.2521 H   0  0  0  0  0  0  0  0  0  0  0  0
  152.3715  145.0579  161.5282 H   0  0  0  0  0  0  0  0  0  0  0  0
  150.7704  144.6546  160.9037 H   0  0  0  0  0  0  0  0  0  0  0  0
  152.6500  134.6235  156.7494 H   0  0  0  0  0  0  0  0  0  0  0  0
  151.2333  134.7214  157.7800 H   0  0  0  0  0  0  0  0  0  0  0  0
  1  2  1  0  0  0  0
  1 29  1  0  0  0  0
  1 30  1  0  0  0  0
  2  3  2  0  0  0  0
  2  4  1  0  0  0  0
  4  5  1  0  0  0  0
  4 31  1  0  0  0  0
  4 32  1  0  0  0  0
  5 27  1  0  0  0  0
  5  6  1  0  0  0  0
  6  7  1  0  0  0  0
  6 33  1  0  0  0  0
  6 34  1  0  0  0  0
  7  8  1  0  0  0  0
  7 35  1  0  0  0  0
  7 36  1  0  0  0  0
  8  9  1  0  0  0  0
  8 26  1  0  0  0  0
  9 14  1  0  0  0  0
  9 10  2  0  0  0  0
 10 11  1  0  0  0  0
 11 12  2  0  0  0  0
 11 37  1  0  0  0  0
 12 13  1  0  0  0  0
 13 17  1  0  0  0  0
 13 14  2  0  0  0  0
 14 15  1  0  0  0  0
 15 16  2  0  0  0  0
 16 17  1  0  0  0  0
 16 38  1  0  0  0  0
 17 18  1  0  0  0  0
 18 19  1  0  0  0  0
 18 39  1  0  0  0  0
 18 40  1  0  0  0  0
 19 20  1  0  0  0  0
 19 21  1  0  0  0  0
 19 41  1  0  0  0  0
 20 42  1  0  0  0  0
 21 25  1  0  0  0  0
 21 22  1  0  0  0  0
 21 43  1  0  0  0  0
 22 23  1  0  0  0  0
 22 44  1  0  0  0  0
 22 45  1  0  0  0  0
 23 24  1  0  0  0  0
 23 46  1  0  0  0  0
 23 47  1  0  0  0  0
 24 25  1  0  0  0  0
 24 48  1  0  0  0  0
 24 49  1  0  0  0  0
 26 27  1  0  0  0  0
 26 50  1  0  0  0  0
 26 51  1  0  0  0  0
 27 28  2  0  0  0  0
M  END
> <s_m_source_file>
AV-unprocessed.smi

> <i_m_source_file_index>
174

> <i_lp_mmshare_version>
43012

> <i_f3d_flags>
0

> <s_epik_input>
W05IMl1DKD1PKVtDSDJdTjFbQ0gyXVtDSDJdTihbQ0gyXUMxPU8pYyhuW2NIXW4yKWMoYzIzKW5bY0hdbjNbQ0gyXVtDQEhdKFtPSF0pW0NAQEhdNFtDSDJdW0NIMl1bQ0gyXU80

> <s_epik_cmdline>
J2VwaWtfcHl0aG9uJywgJy1waCcsICc3LjAnLCAnLXRuJywgJzgnLCAnLW1hJywgJzIwMCcsICctbWV0YWxfYmluZGluZycsICctaW1hZScsICc8aW5maWxlLm1hZT4nLCAnLW9tYWUnLCAnPG91dGZpbGUubWFlPic=

> <r_lp_tautomer_probability>
1

> <r_epik_Ionization_Penalty>
0.000250477

> <r_epik_Ionization_Penalty_Charging>
0

> <r_epik_Ionization_Penalty_Neutral>
0.000250477

> <r_epik_State_Penalty>
-0

> <r_epik_Charging_Adjusted_Penalty>
0

> <i_epik_Tot_Q>
0

> <i_epik_Tot_abs_Q>
0

> <r_epik_Metal_State_Penalty>
-0

> <b_epik_Metal_Only>
0

> <s_lp_Force_Field>
OPLS_2005

> <r_lp_Energy>
38.9575

> <b_lp_Chiralities_Consistent>
1

> <s_lp_Variant>
AV-unprocessed.smi:174-4

> <Gold.Version>
5.8.1

> <Gold.Id.Protein>
6NUR|6NUR_protein|mol2

> <Gold.PLP.Fitness>
48.6468

> <Gold.PLP.PLP>
-47.0609

> <Gold.PLP.part.hbond>
-2.0640

> <Gold.PLP.part.metal>
0.0000

> <Gold.PLP.part.buried>
-6.7259

> <Gold.PLP.part.nonpolar>
-39.0076

> <Gold.PLP.part.repulsive>
0.2039

> <Gold.PLP.ligand.clash>
0.0000

> <Gold.PLP.ligand.torsion>
0.9415

> <Gold.PLP.Chemscore.Hbond>
1.0338

> <Gold.PLP.Chemscore.CHOScore>
0.0000

> <Gold.PLP.Chemscore.Metal>
0.0000

> <Gold.Chemscore.Hbonds>
donor molecule, donor type, donor heavy atom, donor atom, acceptor molecule, acceptor atom, score
      P1  H  7997  8010       L1    12  1.00
      P1  H 10752 10763       L1    10  0.04

> <Gold.PLP.Chemscore.Internal.Correction>
0.3675

> <Gold.Rescore>
     Score         DG    S(hbond)    S(metal)    S(lipo)     H(rot)  DE(clash)    DE(int)     intcor
      8.12     -10.40       0.93        0.00      91.17       3.46       0.07       2.21       ----

> <Gold.Chemscore.Fitness>
8.1220

> <Gold.Chemscore.DG>
-10.4021

> <Gold.Chemscore.ZeroCoef>
-5.4800

> <Gold.Chemscore.Hbond>
0.9314

> <Gold.Chemscore.Metal>
0.0000

> <Gold.Chemscore.Lipo>
91.1663

> <Gold.Chemscore.Internal_Hbond>
0.0000

> <Gold.Chemscore.DEClash>
0.0678

> <Gold.Chemscore.DEInternal>
2.2124

> <Gold.Chemscore.Rot>
3.4591

> <Gold.Chemscore.Internal.Correction>
   9.000000E+99

> <Gold.Chemscore.Hbonds>
donor molecule, donor type, donor heavy atom, donor atom, acceptor molecule, acceptor atom, score
      P1  H  7997  8010       L1    12  0.61

> <Gold.Chemscore.Hbond.Weighted>
-3.1110

> <Gold.Chemscore.Metal.Weighted>
-0.0000

> <Gold.Chemscore.Lipo.Weighted>
-10.6665

> <Gold.Chemscore.Internal_Hbond.Weighted>
0.0000

> <Gold.Chemscore.DEClash.Weighted>
0.0678

> <Gold.Chemscore.DEInternal.Weighted>
2.2124

> <Gold.Chemscore.Rot.Weighted>
8.8553

> <Gold.Chemscore.Internal.Correction.Weighted>
   9.000000E+99

> <Gold.Protein.RotatedTorsions>
[ 6907 6896 6895 6894 ] final   33.32 input  -60.11 | X-H torsion
[ 7974 7965 7964 7962 ] final -115.21 input  175.53 | X-H torsion
[ 8008 7997 7996 7995 ] final   74.96 input   59.86 | X-H torsion
[ 10167 10162 10161 10158 ] final   13.97 input  -65.29 | X-H torsion
[ 10718 10713 10712 10709 ] final  174.09 input   66.30 | X-H torsion
[ 10763 10752 10751 10750 ] final   42.01 input  -60.55 | X-H torsion
[ 11005 11000 10999 10996 ] final  118.84 input  -57.11 | X-H torsion

> <Gold.Protein.ActiveResidues>
 VAL166  LYS551  ARG553  GLY616  TRP617  ASP618  TYR619  PRO620  LYS621  CYS622 
 ASP623  PHE694  ASN695  SER759  ASP760  ASP761  ALA762  ILE779  LEU786  VAL792 
 PHE793  MET794  SER795  GLU796  ALA797  LYS798  CYS799  TRP800  GLU811  SER814 

> <Gold.Protein.RotatedAtoms>
  152.0868  134.9434  160.0572 H   0  0  0  0  0  0  0  0  0  0  0  0  # atno 6907 bound_to 6896
  152.0701  133.4097  159.4463 H   0  0  0  0  0  0  0  0  0  0  0  0  # atno 6908 bound_to 6896
  150.6836  134.3022  159.4754 H   0  0  0  0  0  0  0  0  0  0  0  0  # atno 6909 bound_to 6896
  145.1111  140.8612  143.3869 H   0  0  0  0  0  0  0  0  0  0  0  0  # atno 7974 bound_to 7965
  155.8059  140.3475  155.5429 H   0  0  0  0  0  0  0  0  0  0  0  0  # atno 8008 bound_to 7997
  155.8490  140.0953  157.1707 H   0  0  0  0  0  0  0  0  0  0  0  0  # atno 8009 bound_to 7997
  154.4007  140.1380  156.3808 H   0  0  0  0  0  0  0  0  0  0  0  0  # atno 8010 bound_to 7997
  140.5967  143.8687  150.6925 H   0  0  0  0  0  0  0  0  0  0  0  0  # atno 10167 bound_to 10162
  156.9548  131.0042  151.2941 H   0  0  0  0  0  0  0  0  0  0  0  0  # atno 10718 bound_to 10713
  152.9893  135.6144  154.2880 H   0  0  0  0  0  0  0  0  0  0  0  0  # atno 10763 bound_to 10752
  154.2606  135.2782  155.2781 H   0  0  0  0  0  0  0  0  0  0  0  0  # atno 10764 bound_to 10752
  154.5209  135.5815  153.6737 H   0  0  0  0  0  0  0  0  0  0  0  0  # atno 10765 bound_to 10752
  139.9124  134.9624  156.7565 H   0  0  0  0  0  0  0  0  0  0  0  0  # atno 11005 bound_to 11000
  145.0846  139.2934  143.5766 LP  0  0  0  0  0  0  0  0  0  0  0  0  # atno 17320 bound_to 7965
  146.3526  140.0363  142.8646 LP  0  0  0  0  0  0  0  0  0  0  0  0  # atno 17321 bound_to 7965
  140.2223  143.3799  152.1633 LP  0  0  0  0  0  0  0  0  0  0  0  0  # atno 17342 bound_to 10162
  139.5263  144.7106  151.5218 LP  0  0  0  0  0  0  0  0  0  0  0  0  # atno 17343 bound_to 10162
  157.5698  130.8302  149.8376 LP  0  0  0  0  0  0  0  0  0  0  0  0  # atno 17370 bound_to 10713
  156.0347  130.3754  150.1592 LP  0  0  0  0  0  0  0  0  0  0  0  0  # atno 17371 bound_to 10713
  140.6732  133.9541  155.7868 LP  0  0  0  0  0  0  0  0  0  0  0  0  # atno 17394 bound_to 11000
  141.0563  134.0412  157.3718 LP  0  0  0  0  0  0  0  0  0  0  0  0  # atno 17395 bound_to 11000

$$$$
