AV-unprocessed.smi:218|AV-procd|sdf|1675|dock8
  -GOLD-   2262020103D 1   1.00000     0.00000
 Structure written by MMmdl.
 54 57  0  0  0  0  0  0  0  0  1 V2000
  150.9476  142.6585  157.1088 C   0  0  0  0  0  0  0  0  0  0  0  0
  150.0113  141.8758  158.0373 C   0  0  0  0  0  0  0  0  0  0  0  0
  150.3756  140.3813  158.0627 C   0  0  0  0  0  0  0  0  0  0  0  0
  148.6847  142.0566  157.5375 O   0  0  0  0  0  0  0  0  0  0  0  0
  148.3106  141.4824  156.3377 C   0  0  0  0  0  0  0  0  0  0  0  0
  147.1154  140.7355  156.2990 C   0  0  0  0  0  0  0  0  0  0  0  0
  146.7183  140.1434  155.0809 C   0  0  0  0  0  0  0  0  0  0  0  0
  145.4450  139.3249  154.9812 C   0  0  0  0  0  0  0  0  0  0  0  0
  145.2118  138.4574  156.1287 N   0  0  0  0  0  0  0  0  0  0  0  0
  145.0768  137.1256  155.9540 C   0  0  0  0  0  0  0  0  0  0  0  0
  144.6209  136.3319  156.9573 N   0  0  0  0  0  0  0  0  0  0  0  0
  144.5052  135.0153  156.7640 C   0  0  0  0  0  0  0  0  0  0  0  0
  144.7803  134.3070  155.6672 N   0  0  0  0  0  0  0  0  0  0  0  0
  145.2307  135.0981  154.6490 C   0  0  0  0  0  0  0  0  0  0  0  0
  145.4106  136.5088  154.7204 C   0  0  0  0  0  0  0  0  0  0  0  0
  145.9010  136.9842  153.5129 N   0  0  0  0  0  0  0  0  0  0  0  0
  146.0096  135.9134  152.7750 C   0  0  0  0  0  0  0  0  0  0  0  0
  145.6016  134.7349  153.3650 N   0  0  0  0  0  0  0  0  0  0  0  0
  145.6488  133.3551  152.7635 C   0  0  1  0  0  0  0  0  0  0  0  0
  144.6233  133.2262  151.8263 O   0  0  0  0  0  0  0  0  0  0  0  0
  145.1238  133.5471  150.5361 C   0  0  2  0  0  0  0  0  0  0  0  0
  144.1436  133.1070  149.4343 C   0  0  0  0  0  0  0  0  0  0  0  0
  143.6254  131.8250  149.7201 O   0  0  0  0  0  0  0  0  0  0  0  0
  146.5040  132.8794  150.5587 C   0  0  2  0  0  0  0  0  0  0  0  0
  146.3988  131.4945  150.2704 O   0  0  0  0  0  0  0  0  0  0  0  0
  146.9714  133.1524  151.9903 C   0  0  2  0  0  0  0  0  0  0  0  0
  147.7749  132.1121  152.5164 O   0  0  0  0  0  0  0  0  0  0  0  0
  147.5431  140.3136  153.9511 C   0  0  0  0  0  0  0  0  0  0  0  0
  148.7205  141.0737  154.0876 C   0  0  0  0  0  0  0  0  0  0  0  0
  149.1013  141.6476  155.2482 N   0  0  0  0  0  0  0  0  0  0  0  0
  145.5028  132.6831  153.6101 H   0  0  0  0  0  0  0  0  0  0  0  0
  145.2512  134.6307  150.4870 H   0  0  0  0  0  0  0  0  0  0  0  0
  147.1786  133.3255  149.8271 H   0  0  0  0  0  0  0  0  0  0  0  0
  147.5504  134.0765  151.9962 H   0  0  0  0  0  0  0  0  0  0  0  0
  151.9847  142.5750  157.4348 H   0  0  0  0  0  0  0  0  0  0  0  0
  150.6887  143.7176  157.0971 H   0  0  0  0  0  0  0  0  0  0  0  0
  150.8877  142.2901  156.0843 H   0  0  0  0  0  0  0  0  0  0  0  0
  150.1172  142.3028  159.0357 H   0  0  0  0  0  0  0  0  0  0  0  0
  151.3999  140.2361  158.4067 H   0  0  0  0  0  0  0  0  0  0  0  0
  150.2927  139.9397  157.0694 H   0  0  0  0  0  0  0  0  0  0  0  0
  149.7255  139.8166  158.7303 H   0  0  0  0  0  0  0  0  0  0  0  0
  146.5199  140.6214  157.1929 H   0  0  0  0  0  0  0  0  0  0  0  0
  144.5964  140.0009  154.8665 H   0  0  0  0  0  0  0  0  0  0  0  0
  145.4994  138.7192  154.0757 H   0  0  0  0  0  0  0  0  0  0  0  0
  145.1809  138.9096  157.0312 H   0  0  0  0  0  0  0  0  0  0  0  0
  144.1399  134.4480  157.6073 H   0  0  0  0  0  0  0  0  0  0  0  0
  146.3927  135.9561  151.7657 H   0  0  0  0  0  0  0  0  0  0  0  0
  143.3238  133.8160  149.3160 H   0  0  0  0  0  0  0  0  0  0  0  0
  144.6622  133.0615  148.4765 H   0  0  0  0  0  0  0  0  0  0  0  0
  143.5337  131.7425  150.6571 H   0  0  0  0  0  0  0  0  0  0  0  0
  147.2612  131.1686  150.0615 H   0  0  0  0  0  0  0  0  0  0  0  0
  148.1499  131.6279  151.7965 H   0  0  0  0  0  0  0  0  0  0  0  0
  147.2825  139.8737  152.9997 H   0  0  0  0  0  0  0  0  0  0  0  0
  149.3748  141.2241  153.2418 H   0  0  0  0  0  0  0  0  0  0  0  0
  1  2  1  0  0  0  0
  1 35  1  0  0  0  0
  1 36  1  0  0  0  0
  1 37  1  0  0  0  0
  2  3  1  0  0  0  0
  2  4  1  0  0  0  0
  2 38  1  0  0  0  0
  3 39  1  0  0  0  0
  3 40  1  0  0  0  0
  3 41  1  0  0  0  0
  4  5  1  0  0  0  0
  5 30  1  0  0  0  0
  5  6  2  0  0  0  0
  6  7  1  0  0  0  0
  6 42  1  0  0  0  0
  7  8  1  0  0  0  0
  7 28  2  0  0  0  0
  8  9  1  0  0  0  0
  8 43  1  0  0  0  0
  8 44  1  0  0  0  0
  9 10  1  0  0  0  0
  9 45  1  0  0  0  0
 10 15  1  0  0  0  0
 10 11  2  0  0  0  0
 11 12  1  0  0  0  0
 12 13  2  0  0  0  0
 12 46  1  0  0  0  0
 13 14  1  0  0  0  0
 14 18  1  0  0  0  0
 14 15  2  0  0  0  0
 15 16  1  0  0  0  0
 16 17  2  0  0  0  0
 17 18  1  0  0  0  0
 17 47  1  0  0  0  0
 18 19  1  0  0  0  0
 19 31  1  0  0  0  0
 19 26  1  0  0  0  0
 19 20  1  0  0  0  0
 20 21  1  0  0  0  0
 21 32  1  0  0  0  0
 21 22  1  0  0  0  0
 21 24  1  0  0  0  0
 22 23  1  0  0  0  0
 22 48  1  0  0  0  0
 22 49  1  0  0  0  0
 23 50  1  0  0  0  0
 24 33  1  0  0  0  0
 24 25  1  0  0  0  0
 24 26  1  0  0  0  0
 25 51  1  0  0  0  0
 26 34  1  0  0  0  0
 26 27  1  0  0  0  0
 27 52  1  0  0  0  0
 28 29  1  0  0  0  0
 28 53  1  0  0  0  0
 29 30  2  0  0  0  0
 29 54  1  0  0  0  0
M  END
> <s_m_source_file>
AV-unprocessed.smi

> <i_m_source_file_index>
218

> <i_lp_mmshare_version>
43012

> <i_f3d_flags>
0

> <s_epik_input>
W0NIM11bQ0hdKFtDSDNdKU9jMVtjSF1jKFtjSF1bY0hdbjEpW0NIMl1bTkhdYyhuW2NIXW4yKWMoYzIzKW5bY0hdbjNbQ0BASF00T1tDQEhdKFtDSDJdW09IXSlbQ0BASF0oW09IXSlbQ0BIXTRbT0hd

> <s_epik_cmdline>
J2VwaWtfcHl0aG9uJywgJy1waCcsICc3LjAnLCAnLXRuJywgJzgnLCAnLW1hJywgJzIwMCcsICctbWV0YWxfYmluZGluZycsICctaW1hZScsICc8aW5maWxlLm1hZT4nLCAnLW9tYWUnLCAnPG91dGZpbGUubWFlPic=

> <r_lp_tautomer_probability>
1

> <r_epik_Ionization_Penalty>
0.00457014

> <r_epik_Ionization_Penalty_Charging>
0

> <r_epik_Ionization_Penalty_Neutral>
0.00457014

> <r_epik_State_Penalty>
-0

> <r_epik_Charging_Adjusted_Penalty>
0

> <i_epik_Tot_Q>
0

> <i_epik_Tot_abs_Q>
0

> <r_epik_Metal_State_Penalty>
-0

> <b_epik_Metal_Only>
0

> <s_epik_Chemistry_Notes>
This compound contains an acetal/aminal-like group ( X-CH(R)-Y where X, Y are N, S, or O) that may be acid/base labile, releasing an aldehyde.

> <s_lp_Force_Field>
OPLS_2005

> <r_lp_Energy>
43.0364

> <b_lp_Chiralities_Consistent>
1

> <s_lp_Variant>
AV-unprocessed.smi:218-14

> <Gold.Version>
5.8.1

> <Gold.Id.Protein>
6NUR|6NUR_protein|mol2

> <Gold.PLP.Fitness>
44.1000

> <Gold.PLP.PLP>
-32.2453

> <Gold.PLP.part.hbond>
-3.6428

> <Gold.PLP.part.metal>
0.0000

> <Gold.PLP.part.buried>
-5.9621

> <Gold.PLP.part.nonpolar>
-23.0639

> <Gold.PLP.part.repulsive>
0.5966

> <Gold.PLP.ligand.clash>
0.0000

> <Gold.PLP.ligand.torsion>
0.9314

> <Gold.PLP.Chemscore.Hbond>
2.9760

> <Gold.PLP.Chemscore.CHOScore>
1.5519

> <Gold.PLP.Chemscore.Metal>
0.0000

> <Gold.Chemscore.Hbonds>
donor molecule, donor type, donor heavy atom, donor atom, acceptor molecule, acceptor atom, score
      L1  H    25    51       P1 10747  1.00
      L1  H    27    52       P1 10747  1.00
      P1  H 10785 10796       L1    23  0.94
      L1  C    17    47       P1  7948  0.57
      L1  C    29    54       P1  7957  1.00

> <Gold.PLP.Chemscore.Internal.Correction>
0.1337

> <Gold.Rescore>
     Score         DG    S(hbond)    S(metal)    S(lipo)     H(rot)  DE(clash)    DE(int)     intcor
      6.93     -10.74       2.88        0.00      69.89       4.90       0.04       3.77       ----

> <Gold.Chemscore.Fitness>
6.9278

> <Gold.Chemscore.DG>
-10.7369

> <Gold.Chemscore.ZeroCoef>
-5.4800

> <Gold.Chemscore.Hbond>
2.8837

> <Gold.Chemscore.Metal>
0.0000

> <Gold.Chemscore.Lipo>
69.8873

> <Gold.Chemscore.Internal_Hbond>
0.0000

> <Gold.Chemscore.DEClash>
0.0363

> <Gold.Chemscore.DEInternal>
3.7728

> <Gold.Chemscore.Rot>
4.9029

> <Gold.Chemscore.Internal.Correction>
   9.000000E+99

> <Gold.Chemscore.Hbonds>
donor molecule, donor type, donor heavy atom, donor atom, acceptor molecule, acceptor atom, score
      L1  H    25    51       P1 10747  0.99
      L1  H    27    52       P1 10747  1.00
      P1  H 10785 10796       L1    23  0.75

> <Gold.Chemscore.Hbond.Weighted>
-9.6317

> <Gold.Chemscore.Metal.Weighted>
-0.0000

> <Gold.Chemscore.Lipo.Weighted>
-8.1768

> <Gold.Chemscore.Internal_Hbond.Weighted>
0.0000

> <Gold.Chemscore.DEClash.Weighted>
0.0363

> <Gold.Chemscore.DEInternal.Weighted>
3.7728

> <Gold.Chemscore.Rot.Weighted>
12.5515

> <Gold.Chemscore.Internal.Correction.Weighted>
   9.000000E+99

> <Gold.Protein.RotatedTorsions>
[ 6907 6896 6895 6894 ] final -108.25 input  -60.11 | X-H torsion
[ 7974 7965 7964 7962 ] final  -63.46 input  175.53 | X-H torsion
[ 8008 7997 7996 7995 ] final  -89.88 input   59.86 | X-H torsion
[ 10167 10162 10161 10158 ] final   88.57 input  -65.29 | X-H torsion
[ 10718 10713 10712 10709 ] final -177.59 input   66.30 | X-H torsion
[ 10763 10752 10751 10750 ] final  148.19 input  -60.55 | X-H torsion
[ 11005 11000 10999 10996 ] final  -26.99 input  -57.11 | X-H torsion

> <Gold.Protein.ActiveResidues>
 VAL166  LYS551  ARG553  GLY616  TRP617  ASP618  TYR619  PRO620  LYS621  CYS622 
 ASP623  PHE694  ASN695  SER759  ASP760  ASP761  ALA762  ILE779  LEU786  VAL792 
 PHE793  MET794  SER795  GLU796  ALA797  LYS798  CYS799  TRP800  GLU811  SER814 

> <Gold.Protein.RotatedAtoms>
  150.7491  133.9705  159.3543 H   0  0  0  0  0  0  0  0  0  0  0  0  # atno 6907 bound_to 6896
  151.7638  135.0801  160.0359 H   0  0  0  0  0  0  0  0  0  0  0  0  # atno 6908 bound_to 6896
  152.3385  133.6003  159.5896 H   0  0  0  0  0  0  0  0  0  0  0  0  # atno 6909 bound_to 6896
  145.7787  140.8773  143.0341 H   0  0  0  0  0  0  0  0  0  0  0  0  # atno 7974 bound_to 7965
  154.6919  140.0536  157.0372 H   0  0  0  0  0  0  0  0  0  0  0  0  # atno 8008 bound_to 7997
  155.0805  140.3209  155.4584 H   0  0  0  0  0  0  0  0  0  0  0  0  # atno 8009 bound_to 7997
  156.2731  140.2066  156.5932 H   0  0  0  0  0  0  0  0  0  0  0  0  # atno 8010 bound_to 7997
  139.8660  144.6519  150.9004 H   0  0  0  0  0  0  0  0  0  0  0  0  # atno 10167 bound_to 10162
  156.8317  130.9655  151.3106 H   0  0  0  0  0  0  0  0  0  0  0  0  # atno 10718 bound_to 10713
  154.0507  135.2882  155.3341 H   0  0  0  0  0  0  0  0  0  0  0  0  # atno 10763 bound_to 10752
  154.6871  135.5241  153.8345 H   0  0  0  0  0  0  0  0  0  0  0  0  # atno 10764 bound_to 10752
  153.0562  135.6596  154.0703 H   0  0  0  0  0  0  0  0  0  0  0  0  # atno 10765 bound_to 10752
  140.9079  133.7480  156.0631 H   0  0  0  0  0  0  0  0  0  0  0  0  # atno 11005 bound_to 11000
  144.6800  139.9958  143.7484 LP  0  0  0  0  0  0  0  0  0  0  0  0  # atno 17320 bound_to 7965
  146.0096  139.3158  143.0878 LP  0  0  0  0  0  0  0  0  0  0  0  0  # atno 17321 bound_to 7965
  140.7768  143.3704  151.1660 LP  0  0  0  0  0  0  0  0  0  0  0  0  # atno 17342 bound_to 10162
  139.7329  143.9044  152.3025 LP  0  0  0  0  0  0  0  0  0  0  0  0  # atno 17343 bound_to 10162
  157.6403  130.8800  149.9436 LP  0  0  0  0  0  0  0  0  0  0  0  0  # atno 17370 bound_to 10713
  156.0930  130.3662  150.0359 LP  0  0  0  0  0  0  0  0  0  0  0  0  # atno 17371 bound_to 10713
  140.8147  134.3359  157.5401 LP  0  0  0  0  0  0  0  0  0  0  0  0  # atno 17394 bound_to 11000
  139.8752  134.9274  156.3425 LP  0  0  0  0  0  0  0  0  0  0  0  0  # atno 17395 bound_to 11000

$$$$
