AV-unprocessed.smi:208|AV-procd|sdf|1605|dock9
  -GOLD-   2262019523D 1   1.00000     0.00000
 Structure written by MMmdl.
 50 53  0  0  0  0  0  0  0  0  1 V2000
  152.0235  145.5465  159.9701 C   0  0  0  0  0  0  0  0  0  0  0  0
  152.7228  144.4195  159.1922 C   0  0  0  0  0  0  0  0  0  0  0  0
  152.5990  142.9960  159.7893 C   0  0  2  0  0  0  0  0  0  0  0  0
  152.9226  142.9486  161.3028 C   0  0  0  0  0  0  0  0  0  0  0  0
  152.3124  143.7108  162.0540 O   0  0  0  0  0  0  0  0  0  0  0  0
  153.8484  142.0723  161.7622 N   0  0  0  0  0  0  0  0  0  0  0  0
  154.1531  141.9843  163.1907 C   0  0  0  0  0  0  0  0  0  0  0  0
  154.5902  141.1418  160.9025 C   0  0  0  0  0  0  0  0  0  0  0  0
  154.6772  141.6252  159.4494 C   0  0  0  0  0  0  0  0  0  0  0  0
  153.3611  142.0373  158.9773 N   0  0  0  0  0  0  0  0  0  0  0  0
  152.6711  141.0654  158.3365 C   0  0  0  0  0  0  0  0  0  0  0  0
  153.3786  140.0026  157.8800 N   0  0  0  0  0  0  0  0  0  0  0  0
  152.7530  139.0047  157.2485 C   0  0  0  0  0  0  0  0  0  0  0  0
  151.4523  138.8713  156.9806 N   0  0  0  0  0  0  0  0  0  0  0  0
  150.7362  139.9336  157.4483 C   0  0  0  0  0  0  0  0  0  0  0  0
  151.2610  141.0632  158.1370 C   0  0  0  0  0  0  0  0  0  0  0  0
  150.2300  141.9304  158.4782 N   0  0  0  0  0  0  0  0  0  0  0  0
  149.1586  141.3502  158.0125 C   0  0  0  0  0  0  0  0  0  0  0  0
  149.3716  140.1523  157.3676 N   0  0  0  0  0  0  0  0  0  0  0  0
  148.3581  139.3045  156.7581 C   0  0  0  0  0  0  0  0  0  0  0  0
  148.5017  139.1464  155.2298 C   0  0  0  0  0  0  0  0  0  0  0  0
  147.3029  138.3809  154.6417 C   0  0  0  0  0  0  0  0  0  0  0  0
  147.3453  138.3579  153.2291 O   0  0  0  0  0  0  0  0  0  0  0  0
  148.8794  140.4167  154.4541 C   0  0  0  0  0  0  0  0  0  0  0  0
  149.9578  139.7440  153.7708 O   0  0  0  0  0  0  0  0  0  0  0  0
  149.8742  138.6712  154.7327 C   0  0  0  0  0  0  0  0  0  0  0  0
  152.0920  146.4862  159.4220 H   0  0  0  0  0  0  0  0  0  0  0  0
  152.4885  145.7092  160.9417 H   0  0  0  0  0  0  0  0  0  0  0  0
  150.9654  145.3370  160.1277 H   0  0  0  0  0  0  0  0  0  0  0  0
  152.3257  144.4106  158.1762 H   0  0  0  0  0  0  0  0  0  0  0  0
  153.7789  144.6699  159.0843 H   0  0  0  0  0  0  0  0  0  0  0  0
  151.5381  142.7499  159.7225 H   0  0  0  0  0  0  0  0  0  0  0  0
  154.6798  142.8803  163.5216 H   0  0  0  0  0  0  0  0  0  0  0  0
  154.7796  141.1225  163.4237 H   0  0  0  0  0  0  0  0  0  0  0  0
  153.2405  141.8855  163.7807 H   0  0  0  0  0  0  0  0  0  0  0  0
  155.5993  140.9891  161.2872 H   0  0  0  0  0  0  0  0  0  0  0  0
  154.0913  140.1729  160.9420 H   0  0  0  0  0  0  0  0  0  0  0  0
  155.3611  142.4703  159.3863 H   0  0  0  0  0  0  0  0  0  0  0  0
  155.1049  140.8444  158.8176 H   0  0  0  0  0  0  0  0  0  0  0  0
  153.3852  138.1972  156.9099 H   0  0  0  0  0  0  0  0  0  0  0  0
  148.1762  141.7869  158.1208 H   0  0  0  0  0  0  0  0  0  0  0  0
  148.3994  138.3315  157.2488 H   0  0  0  0  0  0  0  0  0  0  0  0
  147.3784  139.7131  157.0085 H   0  0  0  0  0  0  0  0  0  0  0  0
  147.2534  137.3583  155.0158 H   0  0  0  0  0  0  0  0  0  0  0  0
  146.3654  138.8534  154.9374 H   0  0  0  0  0  0  0  0  0  0  0  0
  147.5216  137.4728  152.9482 H   0  0  0  0  0  0  0  0  0  0  0  0
  148.1039  140.7721  153.7748 H   0  0  0  0  0  0  0  0  0  0  0  0
  149.2524  141.2293  155.0786 H   0  0  0  0  0  0  0  0  0  0  0  0
  150.6649  138.7374  155.4821 H   0  0  0  0  0  0  0  0  0  0  0  0
  149.8636  137.6863  154.2645 H   0  0  0  0  0  0  0  0  0  0  0  0
  1  2  1  0  0  0  0
  1 27  1  0  0  0  0
  1 28  1  0  0  0  0
  1 29  1  0  0  0  0
  2  3  1  0  0  0  0
  2 30  1  0  0  0  0
  2 31  1  0  0  0  0
  3 10  1  0  0  0  0
  3  4  1  0  0  0  0
  3 32  1  0  0  0  0
  4  5  2  0  0  0  0
  4  6  1  0  0  0  0
  6  7  1  0  0  0  0
  6  8  1  0  0  0  0
  7 33  1  0  0  0  0
  7 34  1  0  0  0  0
  7 35  1  0  0  0  0
  8  9  1  0  0  0  0
  8 36  1  0  0  0  0
  8 37  1  0  0  0  0
  9 10  1  0  0  0  0
  9 38  1  0  0  0  0
  9 39  1  0  0  0  0
 10 11  1  0  0  0  0
 11 16  1  0  0  0  0
 11 12  2  0  0  0  0
 12 13  1  0  0  0  0
 13 14  2  0  0  0  0
 13 40  1  0  0  0  0
 14 15  1  0  0  0  0
 15 19  1  0  0  0  0
 15 16  2  0  0  0  0
 16 17  1  0  0  0  0
 17 18  2  0  0  0  0
 18 19  1  0  0  0  0
 18 41  1  0  0  0  0
 19 20  1  0  0  0  0
 20 21  1  0  0  0  0
 20 42  1  0  0  0  0
 20 43  1  0  0  0  0
 21 26  1  0  0  0  0
 21 22  1  0  0  0  0
 21 24  1  0  0  0  0
 22 23  1  0  0  0  0
 22 44  1  0  0  0  0
 22 45  1  0  0  0  0
 23 46  1  0  0  0  0
 24 25  1  0  0  0  0
 24 47  1  0  0  0  0
 24 48  1  0  0  0  0
 25 26  1  0  0  0  0
 26 49  1  0  0  0  0
 26 50  1  0  0  0  0
M  END
> <s_m_source_file>
AV-unprocessed.smi

> <i_m_source_file_index>
208

> <i_lp_mmshare_version>
43012

> <i_f3d_flags>
0

> <s_epik_input>
W0NIM11bQ0gyXVtDQEBIXTFDKD1PKU4oW0NIM10pW0NIMl1bQ0gyXU4xYyhuW2NIXW4yKWMoYzIzKW5bY0hdbjNbQ0gyXUM0KFtDSDJdW09IXSlbQ0gyXU9bQ0gyXTQ=

> <s_epik_cmdline>
J2VwaWtfcHl0aG9uJywgJy1waCcsICc3LjAnLCAnLXRuJywgJzgnLCAnLW1hJywgJzIwMCcsICctbWV0YWxfYmluZGluZycsICctaW1hZScsICc8aW5maWxlLm1hZT4nLCAnLW9tYWUnLCAnPG91dGZpbGUubWFlPic=

> <r_lp_tautomer_probability>
1

> <r_epik_Ionization_Penalty>
0.000581289

> <r_epik_Ionization_Penalty_Charging>
0

> <r_epik_Ionization_Penalty_Neutral>
0.000581289

> <r_epik_State_Penalty>
0.000280365

> <r_epik_Charging_Adjusted_Penalty>
0.000280365

> <i_epik_Tot_Q>
0

> <i_epik_Tot_abs_Q>
0

> <r_epik_Metal_State_Penalty>
-0

> <b_epik_Metal_Only>
0

> <s_lp_Force_Field>
OPLS_2005

> <r_lp_Energy>
41.1811

> <b_lp_Chiralities_Consistent>
1

> <s_lp_Variant>
AV-unprocessed.smi:208-1

> <Gold.Version>
5.8.1

> <Gold.Id.Protein>
6NUR|6NUR_protein|mol2

> <Gold.PLP.Fitness>
54.2705

> <Gold.PLP.PLP>
-46.6020

> <Gold.PLP.part.hbond>
-3.0000

> <Gold.PLP.part.metal>
0.0000

> <Gold.PLP.part.buried>
-7.4241

> <Gold.PLP.part.nonpolar>
-39.6519

> <Gold.PLP.part.repulsive>
3.6668

> <Gold.PLP.ligand.clash>
0.0000

> <Gold.PLP.ligand.torsion>
0.4145

> <Gold.PLP.Chemscore.Hbond>
2.6156

> <Gold.PLP.Chemscore.CHOScore>
0.0000

> <Gold.PLP.Chemscore.Metal>
0.0000

> <Gold.Chemscore.Hbonds>
donor molecule, donor type, donor heavy atom, donor atom, acceptor molecule, acceptor atom, score
      L1  H    23    46       P1  7948  0.55
      P1  H  7989  7998       L1    25  0.86
      P1  H  7997  8009       L1    12  0.82

> <Gold.PLP.Chemscore.Internal.Correction>
0.6508

> <Gold.Rescore>
     Score         DG    S(hbond)    S(metal)    S(lipo)     H(rot)  DE(clash)    DE(int)     intcor
      7.95     -14.24       1.28        0.00      92.15       2.46       2.24       4.05       ----

> <Gold.Chemscore.Fitness>
7.9529

> <Gold.Chemscore.DG>
-14.2402

> <Gold.Chemscore.ZeroCoef>
-5.4800

> <Gold.Chemscore.Hbond>
1.2802

> <Gold.Chemscore.Metal>
0.0000

> <Gold.Chemscore.Lipo>
92.1493

> <Gold.Chemscore.Internal_Hbond>
0.0000

> <Gold.Chemscore.DEClash>
2.2377

> <Gold.Chemscore.DEInternal>
4.0496

> <Gold.Chemscore.Rot>
2.4598

> <Gold.Chemscore.Internal.Correction>
   9.000000E+99

> <Gold.Chemscore.Hbonds>
donor molecule, donor type, donor heavy atom, donor atom, acceptor molecule, acceptor atom, score
      L1  H    23    46       P1  7948  0.53
      P1  H  7989  7998       L1    25  0.72
      P1  H  7997  8009       L1    12  0.31

> <Gold.Chemscore.Hbond.Weighted>
-4.2759

> <Gold.Chemscore.Metal.Weighted>
-0.0000

> <Gold.Chemscore.Lipo.Weighted>
-10.7815

> <Gold.Chemscore.Internal_Hbond.Weighted>
0.0000

> <Gold.Chemscore.DEClash.Weighted>
2.2377

> <Gold.Chemscore.DEInternal.Weighted>
4.0496

> <Gold.Chemscore.Rot.Weighted>
6.2972

> <Gold.Chemscore.Internal.Correction.Weighted>
   9.000000E+99

> <Gold.Protein.RotatedTorsions>
[ 6907 6896 6895 6894 ] final -151.43 input  -60.11 | X-H torsion
[ 7974 7965 7964 7962 ] final  -10.56 input  175.53 | X-H torsion
[ 8008 7997 7996 7995 ] final  139.39 input   59.86 | X-H torsion
[ 10167 10162 10161 10158 ] final  -76.88 input  -65.29 | X-H torsion
[ 10718 10713 10712 10709 ] final -138.96 input   66.30 | X-H torsion
[ 10763 10752 10751 10750 ] final  -68.55 input  -60.55 | X-H torsion
[ 11005 11000 10999 10996 ] final -115.01 input  -57.11 | X-H torsion

> <Gold.Protein.ActiveResidues>
 VAL166  LYS551  ARG553  GLY616  TRP617  ASP618  TYR619  PRO620  LYS621  CYS622 
 ASP623  PHE694  ASN695  SER759  ASP760  ASP761  ALA762  ILE779  LEU786  VAL792 
 PHE793  MET794  SER795  GLU796  ALA797  LYS798  CYS799  TRP800  GLU811  SER814 

> <Gold.Protein.RotatedAtoms>
  151.2130  133.4545  159.2598 H   0  0  0  0  0  0  0  0  0  0  0  0  # atno 6907 bound_to 6896
  151.0958  134.9943  159.8435 H   0  0  0  0  0  0  0  0  0  0  0  0  # atno 6908 bound_to 6896
  152.5439  134.2061  159.8784 H   0  0  0  0  0  0  0  0  0  0  0  0  # atno 6909 bound_to 6896
  146.2217  140.2781  142.8360 H   0  0  0  0  0  0  0  0  0  0  0  0  # atno 7974 bound_to 7965
  156.2990  140.2369  156.4230 H   0  0  0  0  0  0  0  0  0  0  0  0  # atno 8008 bound_to 7997
  154.8339  140.0431  157.1516 H   0  0  0  0  0  0  0  0  0  0  0  0  # atno 8009 bound_to 7997
  154.9178  140.2999  155.5236 H   0  0  0  0  0  0  0  0  0  0  0  0  # atno 8010 bound_to 7997
  140.4819  143.2400  151.8045 H   0  0  0  0  0  0  0  0  0  0  0  0  # atno 10167 bound_to 10162
  156.3053  130.7452  151.1514 H   0  0  0  0  0  0  0  0  0  0  0  0  # atno 10718 bound_to 10713
  154.3906  135.6053  153.5841 H   0  0  0  0  0  0  0  0  0  0  0  0  # atno 10763 bound_to 10752
  152.9787  135.5883  154.4302 H   0  0  0  0  0  0  0  0  0  0  0  0  # atno 10764 bound_to 10752
  154.4085  135.2844  155.2029 H   0  0  0  0  0  0  0  0  0  0  0  0  # atno 10765 bound_to 10752
  141.0515  133.9680  157.2828 H   0  0  0  0  0  0  0  0  0  0  0  0  # atno 11005 bound_to 11000
  144.9217  140.7876  143.5744 LP  0  0  0  0  0  0  0  0  0  0  0  0  # atno 17320 bound_to 7965
  145.2718  139.1951  143.4837 LP  0  0  0  0  0  0  0  0  0  0  0  0  # atno 17321 bound_to 7965
  139.4835  144.4762  151.9364 LP  0  0  0  0  0  0  0  0  0  0  0  0  # atno 17342 bound_to 10162
  140.3847  144.2691  150.5905 LP  0  0  0  0  0  0  0  0  0  0  0  0  # atno 17343 bound_to 10162
  157.7378  131.0548  150.5333 LP  0  0  0  0  0  0  0  0  0  0  0  0  # atno 17370 bound_to 10713
  156.5466  130.4221  149.6128 LP  0  0  0  0  0  0  0  0  0  0  0  0  # atno 17371 bound_to 10713
  139.9354  135.0197  156.8539 LP  0  0  0  0  0  0  0  0  0  0  0  0  # atno 17394 bound_to 11000
  140.6046  134.0139  155.7551 LP  0  0  0  0  0  0  0  0  0  0  0  0  # atno 17395 bound_to 11000

$$$$
