AV-unprocessed.smi:613|AV-procd|sdf|3065|dock3
  -GOLD-   2262023593D 1   1.00000     0.00000
 Structure written by MMmdl.
 38 39  0  0  0  0  0  0  0  0  1 V2000
  152.2801  140.4112  158.9113 C   0  0  0  0  0  0  0  0  0  0  0  0
  151.9552  141.5939  158.1223 N   0  0  0  0  0  0  0  0  0  0  0  0
  151.3912  141.4048  156.7831 C   0  0  0  0  0  0  0  0  0  0  0  0
  151.3744  139.9299  156.3347 C   0  0  1  0  0  0  0  0  0  0  0  0
  150.1994  139.1201  156.9247 C   0  0  0  0  0  0  0  0  0  0  0  0
  150.1467  137.7537  156.3977 N   0  0  0  0  0  0  0  0  0  0  0  0
  149.0420  136.9500  156.9390 C   0  0  0  0  0  0  0  0  0  0  0  0
  149.0708  136.7692  158.4615 C   0  0  0  0  0  0  0  0  0  0  0  0
  147.9894  137.1619  159.1396 N   0  0  0  0  0  0  0  0  0  0  0  0
  150.0549  136.2842  159.0151 O   0  0  0  0  0  0  0  0  0  0  0  0
  150.1146  137.7938  154.9390 C   0  0  0  0  0  0  0  0  0  0  0  0
  151.2864  138.6049  154.3626 C   0  0  0  0  0  0  0  0  0  0  0  0
  151.2726  139.9175  154.9132 O   0  0  0  0  0  0  0  0  0  0  0  0
  151.9174  142.8598  158.7558 C   0  0  0  0  0  0  0  0  0  0  0  0
  152.3561  143.0360  160.0914 C   0  0  0  0  0  0  0  0  0  0  0  0
  152.2749  144.3221  160.6521 C   0  0  0  0  0  0  0  0  0  0  0  0
  151.7624  145.3495  159.8426 C   0  0  0  0  0  0  0  0  0  0  0  0
  151.3604  145.1377  158.5714 N   0  0  0  0  0  0  0  0  0  0  0  0
  151.4415  143.9132  158.0414 N   0  0  0  0  0  0  0  0  0  0  0  0
  153.2896  140.4838  159.3166 H   0  0  0  0  0  0  0  0  0  0  0  0
  152.2330  139.5094  158.3003 H   0  0  0  0  0  0  0  0  0  0  0  0
  151.5762  140.2915  159.7355 H   0  0  0  0  0  0  0  0  0  0  0  0
  150.3975  141.8431  156.6908 H   0  0  0  0  0  0  0  0  0  0  0  0
  152.0131  141.9719  156.0895 H   0  0  0  0  0  0  0  0  0  0  0  0
  152.3191  139.4591  156.6124 H   0  0  0  0  0  0  0  0  0  0  0  0
  150.3071  139.1018  158.0084 H   0  0  0  0  0  0  0  0  0  0  0  0
  149.2596  139.6334  156.7132 H   0  0  0  0  0  0  0  0  0  0  0  0
  148.0859  137.3958  156.6583 H   0  0  0  0  0  0  0  0  0  0  0  0
  149.0561  135.9554  156.4907 H   0  0  0  0  0  0  0  0  0  0  0  0
  147.9648  137.0656  160.1442 H   0  0  0  0  0  0  0  0  0  0  0  0
  147.2028  137.5567  158.6449 H   0  0  0  0  0  0  0  0  0  0  0  0
  150.1503  136.7803  154.5374 H   0  0  0  0  0  0  0  0  0  0  0  0
  149.1740  138.2305  154.5986 H   0  0  0  0  0  0  0  0  0  0  0  0
  152.2389  138.1197  154.5812 H   0  0  0  0  0  0  0  0  0  0  0  0
  151.2032  138.6730  153.2777 H   0  0  0  0  0  0  0  0  0  0  0  0
  152.7437  142.2245  160.6880 H   0  0  0  0  0  0  0  0  0  0  0  0
  152.5930  144.5135  161.6661 H   0  0  0  0  0  0  0  0  0  0  0  0
  151.6750  146.3581  160.2182 H   0  0  0  0  0  0  0  0  0  0  0  0
  1  2  1  0  0  0  0
  1 20  1  0  0  0  0
  1 21  1  0  0  0  0
  1 22  1  0  0  0  0
  2  3  1  0  0  0  0
  2 14  1  0  0  0  0
  3  4  1  0  0  0  0
  3 23  1  0  0  0  0
  3 24  1  0  0  0  0
  4 13  1  0  0  0  0
  4  5  1  0  0  0  0
  4 25  1  0  0  0  0
  5  6  1  0  0  0  0
  5 26  1  0  0  0  0
  5 27  1  0  0  0  0
  6  7  1  0  0  0  0
  6 11  1  0  0  0  0
  7  8  1  0  0  0  0
  7 28  1  0  0  0  0
  7 29  1  0  0  0  0
  8  9  1  0  0  0  0
  8 10  2  0  0  0  0
  9 30  1  0  0  0  0
  9 31  1  0  0  0  0
 11 12  1  0  0  0  0
 11 32  1  0  0  0  0
 11 33  1  0  0  0  0
 12 13  1  0  0  0  0
 12 34  1  0  0  0  0
 12 35  1  0  0  0  0
 14 19  1  0  0  0  0
 14 15  2  0  0  0  0
 15 16  1  0  0  0  0
 15 36  1  0  0  0  0
 16 17  2  0  0  0  0
 16 37  1  0  0  0  0
 17 18  1  0  0  0  0
 17 38  1  0  0  0  0
 18 19  2  0  0  0  0
M  END
> <s_m_source_file>
AV-unprocessed.smi

> <i_m_source_file_index>
613

> <i_lp_mmshare_version>
43012

> <i_f3d_flags>
0

> <s_epik_input>
bjFuW2NIXVtjSF1bY0hdYzFOKFtDSDNdKVtDSDJdW0NAQEhdMltDSDJdTihbQ0gyXVtDSDJdTzIpW0NIMl1DKD1PKVtOSDJd

> <s_epik_cmdline>
J2VwaWtfcHl0aG9uJywgJy1waCcsICc3LjAnLCAnLXRuJywgJzgnLCAnLW1hJywgJzIwMCcsICctbWV0YWxfYmluZGluZycsICctaW1hZScsICc8aW5maWxlLm1hZT4nLCAnLW9tYWUnLCAnPG91dGZpbGUubWFlPic=

> <r_lp_tautomer_probability>
1

> <r_epik_Ionization_Penalty>
0.0398875

> <r_epik_Ionization_Penalty_Charging>
0

> <r_epik_Ionization_Penalty_Neutral>
0.0398875

> <r_epik_State_Penalty>
0.0543012

> <r_epik_Charging_Adjusted_Penalty>
0.0543012

> <i_epik_Tot_Q>
0

> <i_epik_Tot_abs_Q>
0

> <r_epik_Metal_State_Penalty>
0.0489294

> <b_epik_Metal_Only>
0

> <s_lp_Force_Field>
OPLS_2005

> <r_lp_Energy>
25.1321

> <b_lp_Chiralities_Consistent>
1

> <s_lp_Variant>
AV-unprocessed.smi:613-2

> <Gold.Version>
5.8.1

> <Gold.Id.Protein>
6NUR|6NUR_protein|mol2

> <Gold.PLP.Fitness>
38.6359

> <Gold.PLP.PLP>
-33.0176

> <Gold.PLP.part.hbond>
-2.0000

> <Gold.PLP.part.metal>
0.0000

> <Gold.PLP.part.buried>
-7.1615

> <Gold.PLP.part.nonpolar>
-23.8981

> <Gold.PLP.part.repulsive>
0.4747

> <Gold.PLP.ligand.clash>
0.0000

> <Gold.PLP.ligand.torsion>
0.2778

> <Gold.PLP.Chemscore.Hbond>
2.0000

> <Gold.PLP.Chemscore.CHOScore>
0.0000

> <Gold.PLP.Chemscore.Metal>
0.0000

> <Gold.Chemscore.Hbonds>
donor molecule, donor type, donor heavy atom, donor atom, acceptor molecule, acceptor atom, score
      P1  H  6896  6909       L1    10  1.00
      P1  H  7989  7998       L1    13  1.00

> <Gold.PLP.Chemscore.Internal.Correction>
0.1739

> <Gold.Rescore>
     Score         DG    S(hbond)    S(metal)    S(lipo)     H(rot)  DE(clash)    DE(int)     intcor
     14.91     -15.27       1.97        0.00      75.25       2.18       0.02       0.34       ----

> <Gold.Chemscore.Fitness>
14.9088

> <Gold.Chemscore.DG>
-15.2654

> <Gold.Chemscore.ZeroCoef>
-5.4800

> <Gold.Chemscore.Hbond>
1.9665

> <Gold.Chemscore.Metal>
0.0000

> <Gold.Chemscore.Lipo>
75.2485

> <Gold.Chemscore.Internal_Hbond>
0.0000

> <Gold.Chemscore.DEClash>
0.0199

> <Gold.Chemscore.DEInternal>
0.3366

> <Gold.Chemscore.Rot>
2.1823

> <Gold.Chemscore.Internal.Correction>
   9.000000E+99

> <Gold.Chemscore.Hbonds>
donor molecule, donor type, donor heavy atom, donor atom, acceptor molecule, acceptor atom, score
      P1  H  6896  6909       L1    10  0.99
      P1  H  7989  7998       L1    13  0.30

> <Gold.Chemscore.Hbond.Weighted>
-6.5680

> <Gold.Chemscore.Metal.Weighted>
-0.0000

> <Gold.Chemscore.Lipo.Weighted>
-8.8041

> <Gold.Chemscore.Internal_Hbond.Weighted>
0.0000

> <Gold.Chemscore.DEClash.Weighted>
0.0199

> <Gold.Chemscore.DEInternal.Weighted>
0.3366

> <Gold.Chemscore.Rot.Weighted>
5.5867

> <Gold.Chemscore.Internal.Correction.Weighted>
   9.000000E+99

> <Gold.Protein.RotatedTorsions>
[ 6907 6896 6895 6894 ] final   61.26 input  -60.11 | X-H torsion
[ 7974 7965 7964 7962 ] final  109.20 input  175.53 | X-H torsion
[ 8008 7997 7996 7995 ] final  160.26 input   59.86 | X-H torsion
[ 10167 10162 10161 10158 ] final  -18.39 input  -65.29 | X-H torsion
[ 10718 10713 10712 10709 ] final  171.44 input   66.30 | X-H torsion
[ 10763 10752 10751 10750 ] final  -88.93 input  -60.55 | X-H torsion
[ 11005 11000 10999 10996 ] final  -43.99 input  -57.11 | X-H torsion

> <Gold.Protein.ActiveResidues>
 VAL166  LYS551  ARG553  GLY616  TRP617  ASP618  TYR619  PRO620  LYS621  CYS622 
 ASP623  PHE694  ASN695  SER759  ASP760  ASP761  ALA762  ILE779  LEU786  VAL792 
 PHE793  MET794  SER795  GLU796  ALA797  LYS798  CYS799  TRP800  GLU811  SER814 

> <Gold.Protein.RotatedAtoms>
  152.4073  134.6185  160.0044 H   0  0  0  0  0  0  0  0  0  0  0  0  # atno 6907 bound_to 6896
  151.6372  133.3322  159.3130 H   0  0  0  0  0  0  0  0  0  0  0  0  # atno 6908 bound_to 6896
  150.7967  134.7072  159.6628 H   0  0  0  0  0  0  0  0  0  0  0  0  # atno 6909 bound_to 6896
  145.2709  139.2667  143.3967 H   0  0  0  0  0  0  0  0  0  0  0  0  # atno 7974 bound_to 7965
  156.2184  140.1809  156.7535 H   0  0  0  0  0  0  0  0  0  0  0  0  # atno 8008 bound_to 7997
  154.5827  140.0663  156.9156 H   0  0  0  0  0  0  0  0  0  0  0  0  # atno 8009 bound_to 7997
  155.2474  140.3326  155.4288 H   0  0  0  0  0  0  0  0  0  0  0  0  # atno 8010 bound_to 7997
  140.7258  143.4921  150.9979 H   0  0  0  0  0  0  0  0  0  0  0  0  # atno 10167 bound_to 10162
  156.9935  131.0155  151.2850 H   0  0  0  0  0  0  0  0  0  0  0  0  # atno 10718 bound_to 10713
  154.6499  135.5359  153.7889 H   0  0  0  0  0  0  0  0  0  0  0  0  # atno 10763 bound_to 10752
  153.0380  135.6480  154.1033 H   0  0  0  0  0  0  0  0  0  0  0  0  # atno 10764 bound_to 10752
  154.0951  135.2937  155.3243 H   0  0  0  0  0  0  0  0  0  0  0  0  # atno 10765 bound_to 10752
  141.0421  133.6776  156.2810 H   0  0  0  0  0  0  0  0  0  0  0  0  # atno 11005 bound_to 11000
  146.3247  140.3151  142.8629 LP  0  0  0  0  0  0  0  0  0  0  0  0  # atno 17320 bound_to 7965
  144.9336  140.8002  143.5674 LP  0  0  0  0  0  0  0  0  0  0  0  0  # atno 17321 bound_to 7965
  139.8625  143.7295  152.3172 LP  0  0  0  0  0  0  0  0  0  0  0  0  # atno 17342 bound_to 10162
  139.7516  144.7532  151.0498 LP  0  0  0  0  0  0  0  0  0  0  0  0  # atno 17343 bound_to 10162
  157.5442  130.8139  149.8065 LP  0  0  0  0  0  0  0  0  0  0  0  0  # atno 17370 bound_to 10713
  156.0198  130.3800  150.1997 LP  0  0  0  0  0  0  0  0  0  0  0  0  # atno 17371 bound_to 10713
  140.6215  134.5356  157.5548 LP  0  0  0  0  0  0  0  0  0  0  0  0  # atno 17394 bound_to 11000
  139.9283  134.8012  156.1003 LP  0  0  0  0  0  0  0  0  0  0  0  0  # atno 17395 bound_to 11000

$$$$
