AV-unprocessed.smi:2889|AV-procd|sdf|11114|dock4
  -GOLD-   2272015583D 1   1.00000     0.00000
 Structure written by MMmdl.
 35 36  0  0  0  0  0  0  0  0  2 V2000
  154.8520  140.3968  162.1219 C   0  0  0  0  0  0  0  0  0  0  0  0
  153.8406  140.3732  160.6148 S   0  0  0  0  0  0  0  0  0  0  0  0
  153.4111  142.1378  160.4281 C   0  0  2  0  0  0  0  0  0  0  0  0
  152.6307  142.6438  161.6724 C   0  0  0  0  0  0  0  0  0  0  0  0
  152.3075  144.1511  161.6046 C   0  0  0  0  0  0  0  0  0  0  0  0
  151.5734  144.4686  160.2861 C   0  0  0  0  0  0  0  0  0  0  0  0
  152.3414  143.9633  159.0370 C   0  0  0  0  0  0  0  0  0  0  0  0
  152.6962  142.4542  159.0796 C   0  0  2  0  0  0  0  0  0  0  0  0
  151.4863  141.6540  158.9328 N   0  5  0  0  0  0  0  0  0  0  0  0
  151.4643  140.4001  157.9059 S   0  0  0  0  0  0  0  0  0  0  0  0
  152.8121  139.9822  157.4844 O   0  0  0  0  0  0  0  0  0  0  0  0
  150.5424  139.3408  158.3473 O   0  0  0  0  0  0  0  0  0  0  0  0
  150.6679  141.1782  156.4323 C   0  0  0  0  0  0  0  0  0  0  0  0
  150.2966  140.1338  155.4155 C   0  0  0  0  0  0  0  0  0  0  0  0
  148.9996  139.6754  155.0530 C   0  0  0  0  0  0  0  0  0  0  0  0
  149.2492  138.7357  154.0952 C   0  0  0  0  0  0  0  0  0  0  0  0
  150.5829  138.6268  153.8718 O   0  0  0  0  0  0  0  0  0  0  0  0
  151.2432  139.5275  154.7150 N   0  0  0  0  0  0  0  0  0  0  0  0
  155.1455  139.3818  162.3887 H   0  0  0  0  0  0  0  0  0  0  0  0
  154.2894  140.8222  162.9528 H   0  0  0  0  0  0  0  0  0  0  0  0
  155.7576  140.9850  161.9743 H   0  0  0  0  0  0  0  0  0  0  0  0
  154.3604  142.6749  160.4254 H   0  0  0  0  0  0  0  0  0  0  0  0
  151.7040  142.0795  161.7952 H   0  0  0  0  0  0  0  0  0  0  0  0
  153.2160  142.4478  162.5712 H   0  0  0  0  0  0  0  0  0  0  0  0
  151.7001  144.4489  162.4597 H   0  0  0  0  0  0  0  0  0  0  0  0
  153.2317  144.7274  161.6582 H   0  0  0  0  0  0  0  0  0  0  0  0
  150.5725  144.0327  160.3135 H   0  0  0  0  0  0  0  0  0  0  0  0
  151.4231  145.5455  160.2067 H   0  0  0  0  0  0  0  0  0  0  0  0
  151.7721  144.1951  158.1363 H   0  0  0  0  0  0  0  0  0  0  0  0
  153.2678  144.5325  158.9516 H   0  0  0  0  0  0  0  0  0  0  0  0
  153.3991  142.2485  158.2714 H   0  0  0  0  0  0  0  0  0  0  0  0
  149.7750  141.6975  156.7780 H   0  0  0  0  0  0  0  0  0  0  0  0
  151.3447  141.9290  156.0236 H   0  0  0  0  0  0  0  0  0  0  0  0
  148.0406  139.9819  155.4427 H   0  0  0  0  0  0  0  0  0  0  0  0
  148.6147  138.0914  153.5052 H   0  0  0  0  0  0  0  0  0  0  0  0
  1  2  1  0  0  0  0
  1 19  1  0  0  0  0
  1 20  1  0  0  0  0
  1 21  1  0  0  0  0
  2  3  1  0  0  0  0
  3  8  1  0  0  0  0
  3  4  1  0  0  0  0
  3 22  1  0  0  0  0
  4  5  1  0  0  0  0
  4 23  1  0  0  0  0
  4 24  1  0  0  0  0
  5  6  1  0  0  0  0
  5 25  1  0  0  0  0
  5 26  1  0  0  0  0
  6  7  1  0  0  0  0
  6 27  1  0  0  0  0
  6 28  1  0  0  0  0
  7  8  1  0  0  0  0
  7 29  1  0  0  0  0
  7 30  1  0  0  0  0
  8  9  1  0  0  0  0
  8 31  1  0  0  0  0
  9 10  1  0  0  0  0
 10 11  2  0  0  0  0
 10 12  2  0  0  0  0
 10 13  1  0  0  0  0
 13 14  1  0  0  0  0
 13 32  1  0  0  0  0
 13 33  1  0  0  0  0
 14 18  2  0  0  0  0
 14 15  1  0  0  0  0
 15 16  2  0  0  0  0
 15 34  1  0  0  0  0
 16 17  1  0  0  0  0
 16 35  1  0  0  0  0
 17 18  1  0  0  0  0
M  CHG  1   9  -1
M  END
> <s_m_source_file>
AV-unprocessed.smi

> <i_m_source_file_index>
2889

> <i_lp_mmshare_version>
43012

> <i_f3d_flags>
0

> <s_epik_input>
W0NIM11TW0NAQEhdMVtDSDJdW0NIMl1bQ0gyXVtDSDJdW0NASF0xW05IXVMoPU8pKD1PKVtDSDJdYzJbY0hdW2NIXW9uMg==

> <s_epik_cmdline>
J2VwaWtfcHl0aG9uJywgJy1waCcsICc3LjAnLCAnLXRuJywgJzgnLCAnLW1hJywgJzIwMCcsICctbWV0YWxfYmluZGluZycsICctaW1hZScsICc8aW5maWxlLm1hZT4nLCAnLW9tYWUnLCAnPG91dGZpbGUubWFlPic=

> <r_lp_tautomer_probability>
1

> <r_epik_Ionization_Penalty>
4.65467

> <r_epik_Ionization_Penalty_Charging>
4.65467

> <r_epik_Ionization_Penalty_Neutral>
2.71476e-10

> <r_epik_State_Penalty>
4.65444

> <r_epik_Charging_Adjusted_Penalty>
9.30911

> <i_epik_Tot_Q>
-1

> <i_epik_Tot_abs_Q>
1

> <r_epik_Metal_State_Penalty>
0.901484

> <b_epik_Metal_Only>
1

> <s_lp_Force_Field>
OPLS_2005

> <r_lp_Energy>
12.0464

> <b_lp_Chiralities_Consistent>
1

> <s_lp_Variant>
AV-unprocessed.smi:2889-7

> <Gold.Version>
5.8.1

> <Gold.Id.Protein>
6NUR|6NUR_protein|mol2

> <Gold.PLP.Fitness>
48.7248

> <Gold.PLP.PLP>
-40.5404

> <Gold.PLP.part.hbond>
-2.0000

> <Gold.PLP.part.metal>
0.0000

> <Gold.PLP.part.buried>
-3.7877

> <Gold.PLP.part.nonpolar>
-34.7572

> <Gold.PLP.part.repulsive>
0.3226

> <Gold.PLP.ligand.clash>
0.0000

> <Gold.PLP.ligand.torsion>
0.9378

> <Gold.PLP.Chemscore.Hbond>
2.0000

> <Gold.PLP.Chemscore.CHOScore>
1.0000

> <Gold.PLP.Chemscore.Metal>
0.0000

> <Gold.Chemscore.Hbonds>
donor molecule, donor type, donor heavy atom, donor atom, acceptor molecule, acceptor atom, score
      P1  H  7989  7998       L1    18  1.00
      P1  H  7997  8008       L1    11  1.00
      L1  C    16    35       P1  7948  1.00

> <Gold.PLP.Chemscore.Internal.Correction>
1.0601

> <Gold.Rescore>
     Score         DG    S(hbond)    S(metal)    S(lipo)     H(rot)  DE(clash)    DE(int)     intcor
     17.16     -18.00       0.99        0.00     112.17       1.53       0.00       0.84       ----

> <Gold.Chemscore.Fitness>
17.1586

> <Gold.Chemscore.DG>
-18.0020

> <Gold.Chemscore.ZeroCoef>
-5.4800

> <Gold.Chemscore.Hbond>
0.9934

> <Gold.Chemscore.Metal>
0.0000

> <Gold.Chemscore.Lipo>
112.1750

> <Gold.Chemscore.Internal_Hbond>
0.0000

> <Gold.Chemscore.DEClash>
0.0042

> <Gold.Chemscore.DEInternal>
0.8392

> <Gold.Chemscore.Rot>
1.5314

> <Gold.Chemscore.Internal.Correction>
   9.000000E+99

> <Gold.Chemscore.Hbonds>
donor molecule, donor type, donor heavy atom, donor atom, acceptor molecule, acceptor atom, score
      P1  H  7989  7998       L1    18  0.07
      P1  H  7997  8008       L1    11  0.99

> <Gold.Chemscore.Hbond.Weighted>
-3.3180

> <Gold.Chemscore.Metal.Weighted>
-0.0000

> <Gold.Chemscore.Lipo.Weighted>
-13.1245

> <Gold.Chemscore.Internal_Hbond.Weighted>
0.0000

> <Gold.Chemscore.DEClash.Weighted>
0.0042

> <Gold.Chemscore.DEInternal.Weighted>
0.8392

> <Gold.Chemscore.Rot.Weighted>
3.9205

> <Gold.Chemscore.Internal.Correction.Weighted>
   9.000000E+99

> <Gold.Protein.RotatedTorsions>
[ 6907 6896 6895 6894 ] final  -57.41 input  -60.11 | X-H torsion
[ 7974 7965 7964 7962 ] final   25.61 input  175.53 | X-H torsion
[ 8008 7997 7996 7995 ] final  -70.29 input   59.86 | X-H torsion
[ 10167 10162 10161 10158 ] final -128.06 input  -65.29 | X-H torsion
[ 10718 10713 10712 10709 ] final  119.02 input   66.30 | X-H torsion
[ 10763 10752 10751 10750 ] final   20.72 input  -60.55 | X-H torsion
[ 11005 11000 10999 10996 ] final -117.67 input  -57.11 | X-H torsion

> <Gold.Protein.ActiveResidues>
 VAL166  LYS551  ARG553  GLY616  TRP617  ASP618  TYR619  PRO620  LYS621  CYS622 
 ASP623  PHE694  ASN695  SER759  ASP760  ASP761  ALA762  ILE779  LEU786  VAL792 
 PHE793  MET794  SER795  GLU796  ALA797  LYS798  CYS799  TRP800  GLU811  SER814 

> <Gold.Protein.RotatedAtoms>
  150.8088  134.7230  159.6668 H   0  0  0  0  0  0  0  0  0  0  0  0  # atno 6907 bound_to 6896
  152.4208  134.5955  159.9995 H   0  0  0  0  0  0  0  0  0  0  0  0  # atno 6908 bound_to 6896
  151.6171  133.3305  159.3116 H   0  0  0  0  0  0  0  0  0  0  0  0  # atno 6909 bound_to 6896
  146.1880  139.7441  142.8853 H   0  0  0  0  0  0  0  0  0  0  0  0  # atno 7974 bound_to 7965
  154.5001  140.0837  156.7779 H   0  0  0  0  0  0  0  0  0  0  0  0  # atno 8008 bound_to 7997
  155.4024  140.3437  155.4239 H   0  0  0  0  0  0  0  0  0  0  0  0  # atno 8009 bound_to 7997
  156.1445  140.1539  156.8856 H   0  0  0  0  0  0  0  0  0  0  0  0  # atno 8010 bound_to 7997
  139.9543  143.6020  152.2465 H   0  0  0  0  0  0  0  0  0  0  0  0  # atno 10167 bound_to 10162
  157.5990  131.1054  150.7838 H   0  0  0  0  0  0  0  0  0  0  0  0  # atno 10718 bound_to 10713
  153.1054  135.6683  153.9597 H   0  0  0  0  0  0  0  0  0  0  0  0  # atno 10763 bound_to 10752
  153.9155  135.3020  155.3449 H   0  0  0  0  0  0  0  0  0  0  0  0  # atno 10764 bound_to 10752
  154.7475  135.5050  153.9305 H   0  0  0  0  0  0  0  0  0  0  0  0  # atno 10765 bound_to 10752
  141.0339  133.9940  157.3101 H   0  0  0  0  0  0  0  0  0  0  0  0  # atno 11005 bound_to 11000
  145.3881  141.0368  143.3139 LP  0  0  0  0  0  0  0  0  0  0  0  0  # atno 17320 bound_to 7965
  144.8432  139.5438  143.6890 LP  0  0  0  0  0  0  0  0  0  0  0  0  # atno 17321 bound_to 7965
  139.6604  144.7662  151.1975 LP  0  0  0  0  0  0  0  0  0  0  0  0  # atno 17342 bound_to 10162
  140.7573  143.6020  150.8690 LP  0  0  0  0  0  0  0  0  0  0  0  0  # atno 17343 bound_to 10162
  156.8241  130.4994  149.5339 LP  0  0  0  0  0  0  0  0  0  0  0  0  # atno 17370 bound_to 10713
  156.1059  130.6004  150.9970 LP  0  0  0  0  0  0  0  0  0  0  0  0  # atno 17371 bound_to 10713
  139.9227  135.0201  156.8122 LP  0  0  0  0  0  0  0  0  0  0  0  0  # atno 17394 bound_to 11000
  140.6358  133.9864  155.7683 LP  0  0  0  0  0  0  0  0  0  0  0  0  # atno 17395 bound_to 11000

$$$$
