AV-unprocessed.smi:2245|AV-procd|sdf|9078|dock8
  -GOLD-   2272012283D 1   1.00000     0.00000
 Structure written by MMmdl.
 45 46  0  0  0  0  0  0  0  0  2 V2000
  150.4812  140.5381  155.6380 C   0  0  0  0  0  0  0  0  0  0  0  0
  149.2000  140.4765  154.8333 C   0  0  0  0  0  0  0  0  0  0  0  0
  148.3229  141.5770  154.7889 C   0  0  0  0  0  0  0  0  0  0  0  0
  147.1487  141.4607  154.0194 C   0  0  0  0  0  0  0  0  0  0  0  0
  146.1609  142.6047  153.9265 C   0  0  0  0  0  0  0  0  0  0  0  0
  146.8302  140.3472  153.3255 N   0  0  0  0  0  0  0  0  0  0  0  0
  147.6673  139.2808  153.3611 C   0  0  0  0  0  0  0  0  0  0  0  0
  147.4251  138.0660  152.6662 N   0  0  0  0  0  0  0  0  0  0  0  0
  146.2419  137.4920  152.3852 C   0  0  0  0  0  0  0  0  0  0  0  0
  145.1394  137.9296  152.7156 O   0  0  0  0  0  0  0  0  0  0  0  0
  146.4045  136.3636  151.6790 N   0  0  0  0  0  0  0  0  0  0  0  0
  145.3222  135.5062  151.2061 C   0  0  0  0  0  0  0  0  0  0  0  0
  145.8082  134.0846  150.8593 C   0  0  2  0  0  0  0  0  0  0  0  0
  144.7737  133.2338  150.1247 C   0  0  0  0  0  0  0  0  0  0  0  0
  145.1910  131.7847  150.4114 C   0  0  0  0  0  0  0  0  0  0  0  0
  146.1494  131.8286  151.5423 N   0  3  2  0  0  0  0  0  0  0  0  0
  145.9632  130.7857  152.5798 C   0  0  0  0  0  0  0  0  0  0  0  0
  146.7077  129.4809  152.2466 C   0  0  0  0  0  0  0  0  0  0  0  0
  146.0578  128.4569  152.7975 F   0  0  0  0  0  0  0  0  0  0  0  0
  146.7708  129.2831  150.9302 F   0  0  0  0  0  0  0  0  0  0  0  0
  147.9435  129.5210  152.7446 F   0  0  0  0  0  0  0  0  0  0  0  0
  146.1477  133.2090  152.0653 C   0  0  0  0  0  0  0  0  0  0  0  0
  148.8659  139.3144  154.1086 C   0  0  0  0  0  0  0  0  0  0  0  0
  150.4482  141.3473  156.3682 H   0  0  0  0  0  0  0  0  0  0  0  0
  151.3322  140.7058  154.9775 H   0  0  0  0  0  0  0  0  0  0  0  0
  150.6410  139.6030  156.1754 H   0  0  0  0  0  0  0  0  0  0  0  0
  148.5447  142.4858  155.3294 H   0  0  0  0  0  0  0  0  0  0  0  0
  146.4733  143.4489  154.5418 H   0  0  0  0  0  0  0  0  0  0  0  0
  145.1752  142.2837  154.2648 H   0  0  0  0  0  0  0  0  0  0  0  0
  146.0756  142.9484  152.8952 H   0  0  0  0  0  0  0  0  0  0  0  0
  148.2486  137.5853  152.3360 H   0  0  0  0  0  0  0  0  0  0  0  0
  147.3459  136.0725  151.4585 H   0  0  0  0  0  0  0  0  0  0  0  0
  144.5636  135.4635  151.9884 H   0  0  0  0  0  0  0  0  0  0  0  0
  144.8441  135.9642  150.3385 H   0  0  0  0  0  0  0  0  0  0  0  0
  146.6950  134.1507  150.2267 H   0  0  0  0  0  0  0  0  0  0  0  0
  143.7798  133.4126  150.5377 H   0  0  0  0  0  0  0  0  0  0  0  0
  144.7329  133.4544  149.0575 H   0  0  0  0  0  0  0  0  0  0  0  0
  144.3135  131.1772  150.6369 H   0  0  0  0  0  0  0  0  0  0  0  0
  145.6882  131.3409  149.5484 H   0  0  0  0  0  0  0  0  0  0  0  0
  146.3540  131.1703  153.5231 H   0  0  0  0  0  0  0  0  0  0  0  0
  144.9002  130.5984  152.7393 H   0  0  0  0  0  0  0  0  0  0  0  0
  147.1080  133.4657  152.5139 H   0  0  0  0  0  0  0  0  0  0  0  0
  145.3765  133.3125  152.8310 H   0  0  0  0  0  0  0  0  0  0  0  0
  149.5255  138.4586  154.1277 H   0  0  0  0  0  0  0  0  0  0  0  0
  147.0662  131.6887  151.1416 H   0  0  0  0  0  0  0  0  0  0  0  0
  1  2  1  0  0  0  0
  1 24  1  0  0  0  0
  1 25  1  0  0  0  0
  1 26  1  0  0  0  0
  2 23  1  0  0  0  0
  2  3  2  0  0  0  0
  3  4  1  0  0  0  0
  3 27  1  0  0  0  0
  4  5  1  0  0  0  0
  4  6  2  0  0  0  0
  5 28  1  0  0  0  0
  5 29  1  0  0  0  0
  5 30  1  0  0  0  0
  6  7  1  0  0  0  0
  7  8  1  0  0  0  0
  7 23  2  0  0  0  0
  8  9  1  0  0  0  0
  8 31  1  0  0  0  0
  9 10  2  0  0  0  0
  9 11  1  0  0  0  0
 11 12  1  0  0  0  0
 11 32  1  0  0  0  0
 12 13  1  0  0  0  0
 12 33  1  0  0  0  0
 12 34  1  0  0  0  0
 13 22  1  0  0  0  0
 13 14  1  0  0  0  0
 13 35  1  0  0  0  0
 14 15  1  0  0  0  0
 14 36  1  0  0  0  0
 14 37  1  0  0  0  0
 15 16  1  0  0  0  0
 15 38  1  0  0  0  0
 15 39  1  0  0  0  0
 16 17  1  0  0  0  0
 16 22  1  0  0  0  0
 16 45  1  0  0  0  0
 17 18  1  0  0  0  0
 17 40  1  0  0  0  0
 17 41  1  0  0  0  0
 18 19  1  0  0  0  0
 18 20  1  0  0  0  0
 18 21  1  0  0  0  0
 22 42  1  0  0  0  0
 22 43  1  0  0  0  0
 23 44  1  0  0  0  0
M  CHG  1  16   1
M  END
> <s_m_source_file>
AV-unprocessed.smi

> <i_m_source_file_index>
2245

> <i_lp_mmshare_version>
43012

> <i_f3d_flags>
0

> <s_epik_input>
W0NIM11jMVtjSF1jKFtDSDNdKW5jKFtjSF0xKVtOSF1DKD1PKVtOSF1bQ0gyXVtDQEBIXTJbQ0gyXVtDSDJdTihbQ0gyXTIpW0NIMl1DKEYpKEYpRg==

> <s_epik_cmdline>
J2VwaWtfcHl0aG9uJywgJy1waCcsICc3LjAnLCAnLXRuJywgJzgnLCAnLW1hJywgJzIwMCcsICctbWV0YWxfYmluZGluZycsICctaW1hZScsICc8aW5maWxlLm1hZT4nLCAnLW9tYWUnLCAnPG91dGZpbGUubWFlPic=

> <r_epik_Ionization_Penalty>
0.628315

> <r_epik_Ionization_Penalty_Charging>
0.628113

> <r_epik_Ionization_Penalty_Neutral>
0.000202271

> <r_epik_State_Penalty>
0.644725

> <r_epik_Charging_Adjusted_Penalty>
1.27284

> <i_epik_Tot_Q>
1

> <i_epik_Tot_abs_Q>
1

> <r_epik_Metal_State_Penalty>
0.644752

> <b_epik_Metal_Only>
0

> <s_lp_Force_Field>
OPLS_2005

> <r_lp_Energy>
28.9213

> <b_lp_Chiralities_Consistent>
1

> <s_lp_Variant>
AV-unprocessed.smi:2245-3

> <Gold.Version>
5.8.1

> <Gold.Id.Protein>
6NUR|6NUR_protein|mol2

> <Gold.PLP.Fitness>
46.6703

> <Gold.PLP.PLP>
-41.9959

> <Gold.PLP.part.hbond>
-2.2402

> <Gold.PLP.part.metal>
0.0000

> <Gold.PLP.part.buried>
0.4623

> <Gold.PLP.part.nonpolar>
-40.7792

> <Gold.PLP.part.repulsive>
2.0273

> <Gold.PLP.ligand.clash>
0.0000

> <Gold.PLP.ligand.torsion>
1.3056

> <Gold.PLP.Chemscore.Hbond>
2.2690

> <Gold.PLP.Chemscore.CHOScore>
0.0000

> <Gold.PLP.Chemscore.Metal>
0.0000

> <Gold.Chemscore.Hbonds>
donor molecule, donor type, donor heavy atom, donor atom, acceptor molecule, acceptor atom, score
      L1  H     8    31       P1  7948  1.00
      L1  H    11    32       P1  7948  0.94
      L1  H    16    45       P1 10747  0.44

> <Gold.PLP.Chemscore.Internal.Correction>
0.4786

> <Gold.Rescore>
     Score         DG    S(hbond)    S(metal)    S(lipo)     H(rot)  DE(clash)    DE(int)     intcor
     15.90     -20.65       2.59        0.00      91.07       1.61       2.22       2.54       ----

> <Gold.Chemscore.Fitness>
15.8968

> <Gold.Chemscore.DG>
-20.6513

> <Gold.Chemscore.ZeroCoef>
-5.4800

> <Gold.Chemscore.Hbond>
2.5895

> <Gold.Chemscore.Metal>
0.0000

> <Gold.Chemscore.Lipo>
91.0683

> <Gold.Chemscore.Internal_Hbond>
0.0000

> <Gold.Chemscore.DEClash>
2.2160

> <Gold.Chemscore.DEInternal>
2.5385

> <Gold.Chemscore.Rot>
1.6143

> <Gold.Chemscore.Internal.Correction>
   9.000000E+99

> <Gold.Chemscore.Hbonds>
donor molecule, donor type, donor heavy atom, donor atom, acceptor molecule, acceptor atom, score
      L1  H     8    31       P1  7948  0.93
      L1  H    11    32       P1  7948  0.90
      L1  H    16    45       P1 10747  0.44

> <Gold.Chemscore.Hbond.Weighted>
-8.6488

> <Gold.Chemscore.Metal.Weighted>
-0.0000

> <Gold.Chemscore.Lipo.Weighted>
-10.6550

> <Gold.Chemscore.Internal_Hbond.Weighted>
0.0000

> <Gold.Chemscore.DEClash.Weighted>
2.2160

> <Gold.Chemscore.DEInternal.Weighted>
2.5385

> <Gold.Chemscore.Rot.Weighted>
4.1325

> <Gold.Chemscore.Internal.Correction.Weighted>
   9.000000E+99

> <Gold.Protein.RotatedTorsions>
[ 6907 6896 6895 6894 ] final -160.33 input  -60.11 | X-H torsion
[ 7974 7965 7964 7962 ] final -109.59 input  175.53 | X-H torsion
[ 8008 7997 7996 7995 ] final  -75.25 input   59.86 | X-H torsion
[ 10167 10162 10161 10158 ] final   49.11 input  -65.29 | X-H torsion
[ 10718 10713 10712 10709 ] final  -92.51 input   66.30 | X-H torsion
[ 10763 10752 10751 10750 ] final -154.88 input  -60.55 | X-H torsion
[ 11005 11000 10999 10996 ] final  167.70 input  -57.11 | X-H torsion

> <Gold.Protein.ActiveResidues>
 VAL166  LYS551  ARG553  GLY616  TRP617  ASP618  TYR619  PRO620  LYS621  CYS622 
 ASP623  PHE694  ASN695  SER759  ASP760  ASP761  ALA762  ILE779  LEU786  VAL792 
 PHE793  MET794  SER795  GLU796  ALA797  LYS798  CYS799  TRP800  GLU811  SER814 

> <Gold.Protein.RotatedAtoms>
  151.3473  133.3939  159.2676 H   0  0  0  0  0  0  0  0  0  0  0  0  # atno 6907 bound_to 6896
  150.9829  134.9181  159.7865 H   0  0  0  0  0  0  0  0  0  0  0  0  # atno 6908 bound_to 6896
  152.5223  134.3437  159.9279 H   0  0  0  0  0  0  0  0  0  0  0  0  # atno 6909 bound_to 6896
  145.1786  140.8960  143.3493 H   0  0  0  0  0  0  0  0  0  0  0  0  # atno 7974 bound_to 7965
  154.5400  140.0747  156.8494 H   0  0  0  0  0  0  0  0  0  0  0  0  # atno 8008 bound_to 7997
  155.3200  140.3395  155.4223 H   0  0  0  0  0  0  0  0  0  0  0  0  # atno 8009 bound_to 7997
  156.1865  140.1671  156.8161 H   0  0  0  0  0  0  0  0  0  0  0  0  # atno 8010 bound_to 7997
  140.2862  144.3099  150.6251 H   0  0  0  0  0  0  0  0  0  0  0  0  # atno 10167 bound_to 10162
  156.0003  130.4990  150.5637 H   0  0  0  0  0  0  0  0  0  0  0  0  # atno 10718 bound_to 10713
  154.7827  135.3180  154.7954 H   0  0  0  0  0  0  0  0  0  0  0  0  # atno 10763 bound_to 10752
  153.8661  135.6848  153.4782 H   0  0  0  0  0  0  0  0  0  0  0  0  # atno 10764 bound_to 10752
  153.1469  135.4716  154.9517 H   0  0  0  0  0  0  0  0  0  0  0  0  # atno 10765 bound_to 10752
  140.2795  134.7762  157.3746 H   0  0  0  0  0  0  0  0  0  0  0  0  # atno 11005 bound_to 11000
  145.0159  139.3468  143.6097 LP  0  0  0  0  0  0  0  0  0  0  0  0  # atno 17320 bound_to 7965
  146.3457  139.9440  142.8737 LP  0  0  0  0  0  0  0  0  0  0  0  0  # atno 17321 bound_to 7965
  140.5770  143.2175  151.7497 LP  0  0  0  0  0  0  0  0  0  0  0  0  # atno 17342 bound_to 10162
  139.4949  144.4135  152.0055 LP  0  0  0  0  0  0  0  0  0  0  0  0  # atno 17343 bound_to 10162
  157.3542  131.0739  151.1688 LP  0  0  0  0  0  0  0  0  0  0  0  0  # atno 17370 bound_to 10713
  157.2495  130.6607  149.5925 LP  0  0  0  0  0  0  0  0  0  0  0  0  # atno 17371 bound_to 10713
  140.1297  134.5112  155.8116 LP  0  0  0  0  0  0  0  0  0  0  0  0  # atno 17394 bound_to 11000
  141.2165  133.6785  156.7016 LP  0  0  0  0  0  0  0  0  0  0  0  0  # atno 17395 bound_to 11000

$$$$
