AV-unprocessed.smi:1644|AV-procd|sdf|6598|dock2
  -GOLD-   22720 7303D 1   1.00000     0.00000
 Structure written by MMmdl.
 49 51  0  0  0  0  0  0  0  0  3 V2000
  152.4703  139.2711  157.5101 C   0  0  0  0  0  0  0  0  0  0  0  0
  153.0901  138.0987  156.7415 C   0  0  0  0  0  0  0  0  0  0  0  0
  153.3810  138.4460  155.2723 C   0  0  0  0  0  0  0  0  0  0  0  0
  152.1038  138.6519  154.4299 C   0  0  2  0  0  0  0  0  0  0  0  0
  151.4718  139.9216  154.7243 N   0  5  0  0  0  0  0  0  0  0  0  0
  150.2153  139.6889  155.1690 C   0  0  0  0  0  0  0  0  0  0  0  0
  149.3845  140.5351  155.4978 O   0  0  0  0  0  0  0  0  0  0  0  0
  149.9529  138.3682  155.2086 N   0  0  0  0  0  0  0  0  0  0  0  0
  148.6865  137.7644  155.6397 C   0  0  0  0  0  0  0  0  0  0  0  0
  147.5972  137.8314  154.5497 C   0  0  1  0  0  0  0  0  0  0  0  0
  148.2309  138.1364  153.3231 O   0  0  0  0  0  0  0  0  0  0  0  0
  146.7781  136.5295  154.4206 C   0  0  0  0  0  0  0  0  0  0  0  0
  145.8780  136.5307  153.2597 N   0  0  0  0  0  0  0  0  0  0  0  0
  145.1678  137.5542  152.7140 C   0  0  0  0  0  0  0  0  0  0  0  0
  144.4778  137.0542  151.6516 N   0  3  0  0  0  0  0  0  0  0  0  0
  144.7524  135.6914  151.5174 C   0  0  0  0  0  0  0  0  0  0  0  0
  144.2930  134.7564  150.5973 C   0  0  0  0  0  0  0  0  0  0  0  0
  144.7696  133.4324  150.7300 C   0  0  0  0  0  0  0  0  0  0  0  0
  144.2863  132.3847  149.7415 C   0  0  0  0  0  0  0  0  0  0  0  0
  145.6810  133.0845  151.7604 C   0  0  0  0  0  0  0  0  0  0  0  0
  146.1911  131.6596  151.8914 C   0  0  0  0  0  0  0  0  0  0  0  0
  146.1353  134.0499  152.6866 C   0  0  0  0  0  0  0  0  0  0  0  0
  145.6528  135.3489  152.5446 C   0  0  0  0  0  0  0  0  0  0  0  0
  151.0122  137.6662  154.7943 C   0  0  0  0  0  0  0  0  0  0  0  0
  151.1145  136.4423  154.7033 O   0  0  0  0  0  0  0  0  0  0  0  0
  152.2727  138.9953  158.5460 H   0  0  0  0  0  0  0  0  0  0  0  0
  151.5260  139.5808  157.0616 H   0  0  0  0  0  0  0  0  0  0  0  0
  153.1379  140.1332  157.5169 H   0  0  0  0  0  0  0  0  0  0  0  0
  154.0114  137.7941  157.2392 H   0  0  0  0  0  0  0  0  0  0  0  0
  152.4173  137.2418  156.7879 H   0  0  0  0  0  0  0  0  0  0  0  0
  153.9790  139.3582  155.2481 H   0  0  0  0  0  0  0  0  0  0  0  0
  154.0037  137.6676  154.8274 H   0  0  0  0  0  0  0  0  0  0  0  0
  152.3311  138.5345  153.3695 H   0  0  0  0  0  0  0  0  0  0  0  0
  148.8720  136.7233  155.9103 H   0  0  0  0  0  0  0  0  0  0  0  0
  148.3282  138.2395  156.5546 H   0  0  0  0  0  0  0  0  0  0  0  0
  146.9181  138.6561  154.7697 H   0  0  0  0  0  0  0  0  0  0  0  0
  148.1843  137.3740  152.7663 H   0  0  0  0  0  0  0  0  0  0  0  0
  147.4287  135.6562  154.3734 H   0  0  0  0  0  0  0  0  0  0  0  0
  146.1507  136.3921  155.3019 H   0  0  0  0  0  0  0  0  0  0  0  0
  145.1540  138.5770  153.0622 H   0  0  0  0  0  0  0  0  0  0  0  0
  143.6014  135.0293  149.8138 H   0  0  0  0  0  0  0  0  0  0  0  0
  143.7941  131.5635  150.2632 H   0  0  0  0  0  0  0  0  0  0  0  0
  145.1237  131.9811  149.1717 H   0  0  0  0  0  0  0  0  0  0  0  0
  143.5712  132.8038  149.0328 H   0  0  0  0  0  0  0  0  0  0  0  0
  146.8954  131.5629  152.7184 H   0  0  0  0  0  0  0  0  0  0  0  0
  146.7036  131.3502  150.9801 H   0  0  0  0  0  0  0  0  0  0  0  0
  145.3645  130.9730  152.0758 H   0  0  0  0  0  0  0  0  0  0  0  0
  146.8333  133.7861  153.4675 H   0  0  0  0  0  0  0  0  0  0  0  0
  143.8657  137.6053  151.0638 H   0  0  0  0  0  0  0  0  0  0  0  0
  1  2  1  0  0  0  0
  1 26  1  0  0  0  0
  1 27  1  0  0  0  0
  1 28  1  0  0  0  0
  2  3  1  0  0  0  0
  2 29  1  0  0  0  0
  2 30  1  0  0  0  0
  3  4  1  0  0  0  0
  3 31  1  0  0  0  0
  3 32  1  0  0  0  0
  4 24  1  0  0  0  0
  4  5  1  0  0  0  0
  4 33  1  0  0  0  0
  5  6  1  0  0  0  0
  6  7  2  0  0  0  0
  6  8  1  0  0  0  0
  8  9  1  0  0  0  0
  8 24  1  0  0  0  0
  9 10  1  0  0  0  0
  9 34  1  0  0  0  0
  9 35  1  0  0  0  0
 10 11  1  0  0  0  0
 10 12  1  0  0  0  0
 10 36  1  0  0  0  0
 11 37  1  0  0  0  0
 12 13  1  0  0  0  0
 12 38  1  0  0  0  0
 12 39  1  0  0  0  0
 13 23  1  0  0  0  0
 13 14  1  0  0  0  0
 14 15  2  0  0  0  0
 14 40  1  0  0  0  0
 15 16  1  0  0  0  0
 15 49  1  0  0  0  0
 16 23  2  0  0  0  0
 16 17  1  0  0  0  0
 17 18  2  0  0  0  0
 17 41  1  0  0  0  0
 18 19  1  0  0  0  0
 18 20  1  0  0  0  0
 19 42  1  0  0  0  0
 19 43  1  0  0  0  0
 19 44  1  0  0  0  0
 20 21  1  0  0  0  0
 20 22  2  0  0  0  0
 21 45  1  0  0  0  0
 21 46  1  0  0  0  0
 21 47  1  0  0  0  0
 22 23  1  0  0  0  0
 22 48  1  0  0  0  0
 24 25  2  0  0  0  0
M  CHG  1   5  -1
M  CHG  1  15   1
M  END
> <s_m_source_file>
AV-unprocessed.smi

> <i_m_source_file_index>
1644

> <i_lp_mmshare_version>
43012

> <i_f3d_flags>
0

> <s_epik_input>
W0NIM11bQ0gyXVtDSDJdW0NAQEhdMVtOSF1DKD1PKU4oQzE9TylbQ0gyXVtDQEhdKFtPSF0pW0NIMl1uKFtjSF1uMiljKGMyMylbY0hdYyhbQ0gzXSljKFtjSF0zKVtDSDNd

> <s_epik_cmdline>
J2VwaWtfcHl0aG9uJywgJy1waCcsICc3LjAnLCAnLXRuJywgJzgnLCAnLW1hJywgJzIwMCcsICctbWV0YWxfYmluZGluZycsICctaW1hZScsICc8aW5maWxlLm1hZT4nLCAnLW9tYWUnLCAnPG91dGZpbGUubWFlPic=

> <r_lp_tautomer_probability>
1

> <r_epik_Ionization_Penalty>
6.86868

> <r_epik_Ionization_Penalty_Charging>
6.86868

> <r_epik_Ionization_Penalty_Neutral>
5.84798e-07

> <r_epik_State_Penalty>
6.92818

> <r_epik_Charging_Adjusted_Penalty>
13.7969

> <i_epik_Tot_Q>
0

> <i_epik_Tot_abs_Q>
2

> <r_epik_Metal_State_Penalty>
2.98017

> <b_epik_Metal_Only>
1

> <s_lp_Force_Field>
OPLS_2005

> <r_lp_Energy>
19.1239

> <b_lp_Chiralities_Consistent>
1

> <s_lp_Variant>
AV-unprocessed.smi:1644-15

> <Gold.Version>
5.8.1

> <Gold.Id.Protein>
6NUR|6NUR_protein|mol2

> <Gold.PLP.Fitness>
50.8743

> <Gold.PLP.PLP>
-38.6141

> <Gold.PLP.part.hbond>
-3.9222

> <Gold.PLP.part.metal>
0.0000

> <Gold.PLP.part.buried>
-5.1887

> <Gold.PLP.part.nonpolar>
-30.8518

> <Gold.PLP.part.repulsive>
0.3541

> <Gold.PLP.ligand.clash>
0.0000

> <Gold.PLP.ligand.torsion>
1.4258

> <Gold.PLP.Chemscore.Hbond>
3.9833

> <Gold.PLP.Chemscore.CHOScore>
1.0000

> <Gold.PLP.Chemscore.Metal>
0.0000

> <Gold.Chemscore.Hbonds>
donor molecule, donor type, donor heavy atom, donor atom, acceptor molecule, acceptor atom, score
      L1  H    11    37       P1  7948  0.98
      L1  H    15    49       P1 10171  0.86
      P1  H  7989  7998       L1     5  1.00
      P1  H 10752 10765       L1    25  1.00
      L1  C    14    40       P1 10175  1.00

> <Gold.PLP.Chemscore.Internal.Correction>
0.1617

> <Gold.Rescore>
     Score         DG    S(hbond)    S(metal)    S(lipo)     H(rot)  DE(clash)    DE(int)     intcor
     18.21     -19.92       3.54        0.00      82.05       2.72       0.15       1.56       ----

> <Gold.Chemscore.Fitness>
18.2118

> <Gold.Chemscore.DG>
-19.9246

> <Gold.Chemscore.ZeroCoef>
-5.4800

> <Gold.Chemscore.Hbond>
3.5387

> <Gold.Chemscore.Metal>
0.0000

> <Gold.Chemscore.Lipo>
82.0531

> <Gold.Chemscore.Internal_Hbond>
0.0000

> <Gold.Chemscore.DEClash>
0.1504

> <Gold.Chemscore.DEInternal>
1.5624

> <Gold.Chemscore.Rot>
2.7245

> <Gold.Chemscore.Internal.Correction>
   9.000000E+99

> <Gold.Chemscore.Hbonds>
donor molecule, donor type, donor heavy atom, donor atom, acceptor molecule, acceptor atom, score
      L1  H    11    37       P1  7948  0.93
      L1  H    15    49       P1 10171  0.83
      P1  H  7989  7998       L1     5  0.64
      P1  H 10752 10765       L1    25  0.94

> <Gold.Chemscore.Hbond.Weighted>
-11.8192

> <Gold.Chemscore.Metal.Weighted>
-0.0000

> <Gold.Chemscore.Lipo.Weighted>
-9.6002

> <Gold.Chemscore.Internal_Hbond.Weighted>
0.0000

> <Gold.Chemscore.DEClash.Weighted>
0.1504

> <Gold.Chemscore.DEInternal.Weighted>
1.5624

> <Gold.Chemscore.Rot.Weighted>
6.9748

> <Gold.Chemscore.Internal.Correction.Weighted>
   9.000000E+99

> <Gold.Protein.RotatedTorsions>
[ 6907 6896 6895 6894 ] final  -88.43 input  -60.11 | X-H torsion
[ 7974 7965 7964 7962 ] final  154.90 input  175.53 | X-H torsion
[ 8008 7997 7996 7995 ] final   67.05 input   59.86 | X-H torsion
[ 10167 10162 10161 10158 ] final   -0.49 input  -65.29 | X-H torsion
[ 10718 10713 10712 10709 ] final  146.39 input   66.30 | X-H torsion
[ 10763 10752 10751 10750 ] final  175.91 input  -60.55 | X-H torsion
[ 11005 11000 10999 10996 ] final -105.07 input  -57.11 | X-H torsion

> <Gold.Protein.ActiveResidues>
 VAL166  LYS551  ARG553  GLY616  TRP617  ASP618  TYR619  PRO620  LYS621  CYS622 
 ASP623  PHE694  ASN695  SER759  ASP760  ASP761  ALA762  ILE779  LEU786  VAL792 
 PHE793  MET794  SER795  GLU796  ALA797  LYS798  CYS799  TRP800  GLU811  SER814 

> <Gold.Protein.RotatedAtoms>
  150.6869  134.2743  159.4600 H   0  0  0  0  0  0  0  0  0  0  0  0  # atno 6907 bound_to 6896
  152.0663  134.9560  160.0584 H   0  0  0  0  0  0  0  0  0  0  0  0  # atno 6908 bound_to 6896
  152.0967  133.4194  159.4605 H   0  0  0  0  0  0  0  0  0  0  0  0  # atno 6909 bound_to 6896
  144.8059  139.6996  143.6162 H   0  0  0  0  0  0  0  0  0  0  0  0  # atno 7974 bound_to 7965
  155.6869  140.3496  155.4877 H   0  0  0  0  0  0  0  0  0  0  0  0  # atno 8008 bound_to 7997
  155.9558  140.1128  157.0960 H   0  0  0  0  0  0  0  0  0  0  0  0  # atno 8009 bound_to 7997
  154.4132  140.1185  156.5100 H   0  0  0  0  0  0  0  0  0  0  0  0  # atno 8010 bound_to 7997
  140.6770  143.6888  150.8045 H   0  0  0  0  0  0  0  0  0  0  0  0  # atno 10167 bound_to 10162
  157.3337  131.0924  151.1141 H   0  0  0  0  0  0  0  0  0  0  0  0  # atno 10718 bound_to 10713
  154.4739  135.2772  155.1621 H   0  0  0  0  0  0  0  0  0  0  0  0  # atno 10763 bound_to 10752
  154.3359  135.6180  153.5577 H   0  0  0  0  0  0  0  0  0  0  0  0  # atno 10764 bound_to 10752
  152.9867  135.5777  154.5126 H   0  0  0  0  0  0  0  0  0  0  0  0  # atno 10765 bound_to 10752
  141.1071  133.8777  157.1689 H   0  0  0  0  0  0  0  0  0  0  0  0  # atno 11005 bound_to 11000
  146.2350  139.5887  142.9530 LP  0  0  0  0  0  0  0  0  0  0  0  0  # atno 17320 bound_to 7965
  145.5440  141.0418  143.2315 LP  0  0  0  0  0  0  0  0  0  0  0  0  # atno 17321 bound_to 7965
  140.0582  143.5181  152.2640 LP  0  0  0  0  0  0  0  0  0  0  0  0  # atno 17342 bound_to 10162
  139.6068  144.7598  151.3044 LP  0  0  0  0  0  0  0  0  0  0  0  0  # atno 17343 bound_to 10162
  157.2379  130.6556  149.5877 LP  0  0  0  0  0  0  0  0  0  0  0  0  # atno 17370 bound_to 10713
  155.9699  130.4578  150.5974 LP  0  0  0  0  0  0  0  0  0  0  0  0  # atno 17371 bound_to 10713
  139.9946  135.0052  157.0053 LP  0  0  0  0  0  0  0  0  0  0  0  0  # atno 17394 bound_to 11000
  140.4874  134.1227  155.7227 LP  0  0  0  0  0  0  0  0  0  0  0  0  # atno 17395 bound_to 11000

$$$$
