AV-unprocessed.smi:2579|AV-procd|sdf|10126|dock5
  -GOLD-   2272014143D 1   1.00000     0.00000
 Structure written by MMmdl.
 38 40  0  0  0  0  0  0  0  0  1 V2000
  152.7553  136.5623  160.1005 O   0  0  0  0  0  0  0  0  0  0  0  0
  152.5114  137.9391  159.9064 C   0  0  0  0  0  0  0  0  0  0  0  0
  151.2406  138.1382  159.0705 C   0  0  0  0  0  0  0  0  0  0  0  0
  151.3195  139.3381  158.2598 N   0  0  0  0  0  0  0  0  0  0  0  0
  151.5267  140.6738  158.5785 C   0  0  0  0  0  0  0  0  0  0  0  0
  151.6973  141.1248  159.8200 N   0  0  0  0  0  0  0  0  0  0  0  0
  151.8418  142.4850  159.6198 C   0  0  0  0  0  0  0  0  0  0  0  0
  152.0527  143.5313  160.5465 C   0  0  0  0  0  0  0  0  0  0  0  0
  152.1678  144.8652  160.1033 C   0  0  0  0  0  0  0  0  0  0  0  0
  152.0732  145.1725  158.7303 C   0  0  0  0  0  0  0  0  0  0  0  0
  151.8649  144.1458  157.7894 C   0  0  0  0  0  0  0  0  0  0  0  0
  151.7524  142.8154  158.2359 C   0  0  0  0  0  0  0  0  0  0  0  0
  151.5521  141.5992  157.5899 N   0  0  0  0  0  0  0  0  0  0  0  0
  151.4003  141.3966  156.1560 C   0  0  0  0  0  0  0  0  0  0  0  0
  150.0535  140.7444  155.8050 C   0  0  1  0  0  0  0  0  0  0  0  0
  148.8622  141.6996  155.8779 C   0  0  0  0  0  0  0  0  0  0  0  0
  147.8825  141.1470  154.8514 C   0  0  0  0  0  0  0  0  0  0  0  0
  148.6661  140.0449  154.1352 C   0  0  0  0  0  0  0  0  0  0  0  0
  150.0232  140.3050  154.4561 O   0  0  0  0  0  0  0  0  0  0  0  0
  153.6898  136.4220  160.1107 H   0  0  0  0  0  0  0  0  0  0  0  0
  152.4487  138.4561  160.8649 H   0  0  0  0  0  0  0  0  0  0  0  0
  153.3680  138.3531  159.3741 H   0  0  0  0  0  0  0  0  0  0  0  0
  151.1201  137.2904  158.3957 H   0  0  0  0  0  0  0  0  0  0  0  0
  150.3516  138.1691  159.7013 H   0  0  0  0  0  0  0  0  0  0  0  0
  151.1760  139.1628  157.2756 H   0  0  0  0  0  0  0  0  0  0  0  0
  152.1255  143.3072  161.6004 H   0  0  0  0  0  0  0  0  0  0  0  0
  152.3288  145.6568  160.8203 H   0  0  0  0  0  0  0  0  0  0  0  0
  152.1610  146.1972  158.4001 H   0  0  0  0  0  0  0  0  0  0  0  0
  151.7919  144.3784  156.7375 H   0  0  0  0  0  0  0  0  0  0  0  0
  151.4866  142.3632  155.6587 H   0  0  0  0  0  0  0  0  0  0  0  0
  152.2306  140.7913  155.7907 H   0  0  0  0  0  0  0  0  0  0  0  0
  149.8743  139.8843  156.4533 H   0  0  0  0  0  0  0  0  0  0  0  0
  148.4380  141.7532  156.8811 H   0  0  0  0  0  0  0  0  0  0  0  0
  149.1614  142.7077  155.5878 H   0  0  0  0  0  0  0  0  0  0  0  0
  146.9801  140.7493  155.3170 H   0  0  0  0  0  0  0  0  0  0  0  0
  147.5827  141.9310  154.1549 H   0  0  0  0  0  0  0  0  0  0  0  0
  148.3890  139.0631  154.5218 H   0  0  0  0  0  0  0  0  0  0  0  0
  148.5046  140.0452  153.0569 H   0  0  0  0  0  0  0  0  0  0  0  0
  1  2  1  0  0  0  0
  1 20  1  0  0  0  0
  2  3  1  0  0  0  0
  2 21  1  0  0  0  0
  2 22  1  0  0  0  0
  3  4  1  0  0  0  0
  3 23  1  0  0  0  0
  3 24  1  0  0  0  0
  4  5  1  0  0  0  0
  4 25  1  0  0  0  0
  5 13  1  0  0  0  0
  5  6  2  0  0  0  0
  6  7  1  0  0  0  0
  7 12  2  0  0  0  0
  7  8  1  0  0  0  0
  8  9  2  0  0  0  0
  8 26  1  0  0  0  0
  9 10  1  0  0  0  0
  9 27  1  0  0  0  0
 10 11  2  0  0  0  0
 10 28  1  0  0  0  0
 11 12  1  0  0  0  0
 11 29  1  0  0  0  0
 12 13  1  0  0  0  0
 13 14  1  0  0  0  0
 14 15  1  0  0  0  0
 14 30  1  0  0  0  0
 14 31  1  0  0  0  0
 15 19  1  0  0  0  0
 15 16  1  0  0  0  0
 15 32  1  0  0  0  0
 16 17  1  0  0  0  0
 16 33  1  0  0  0  0
 16 34  1  0  0  0  0
 17 18  1  0  0  0  0
 17 35  1  0  0  0  0
 17 36  1  0  0  0  0
 18 19  1  0  0  0  0
 18 37  1  0  0  0  0
 18 38  1  0  0  0  0
M  END
> <s_m_source_file>
AV-unprocessed.smi

> <i_m_source_file_index>
2579

> <i_lp_mmshare_version>
43012

> <i_f3d_flags>
0

> <s_epik_input>
W09IXVtDSDJdW0NIMl1bTkhdYyhuMSluKGMoYzEyKVtjSF1bY0hdW2NIXVtjSF0yKVtDSDJdW0NAQEhdM1tDSDJdW0NIMl1bQ0gyXU8z

> <s_epik_cmdline>
J2VwaWtfcHl0aG9uJywgJy1waCcsICc3LjAnLCAnLXRuJywgJzgnLCAnLW1hJywgJzIwMCcsICctbWV0YWxfYmluZGluZycsICctaW1hZScsICc8aW5maWxlLm1hZT4nLCAnLW9tYWUnLCAnPG91dGZpbGUubWFlPic=

> <r_epik_Ionization_Penalty>
1.27244

> <r_epik_Ionization_Penalty_Charging>
0

> <r_epik_Ionization_Penalty_Neutral>
1.27244

> <r_epik_State_Penalty>
1.34401

> <r_epik_Charging_Adjusted_Penalty>
1.34401

> <i_epik_Tot_Q>
0

> <i_epik_Tot_abs_Q>
0

> <r_epik_Metal_State_Penalty>
0.00511131

> <b_epik_Metal_Only>
0

> <s_lp_Force_Field>
OPLS_2005

> <r_lp_Energy>
20.6152

> <b_lp_Chiralities_Consistent>
1

> <s_lp_Variant>
AV-unprocessed.smi:2579-4

> <Gold.Version>
5.8.1

> <Gold.Id.Protein>
6NUR|6NUR_protein|mol2

> <Gold.PLP.Fitness>
44.1691

> <Gold.PLP.PLP>
-38.7603

> <Gold.PLP.part.hbond>
-2.0000

> <Gold.PLP.part.metal>
0.0000

> <Gold.PLP.part.buried>
-5.2662

> <Gold.PLP.part.nonpolar>
-31.3969

> <Gold.PLP.part.repulsive>
0.1827

> <Gold.PLP.ligand.clash>
0.0000

> <Gold.PLP.ligand.torsion>
0.3007

> <Gold.PLP.Chemscore.Hbond>
2.0000

> <Gold.PLP.Chemscore.CHOScore>
0.0000

> <Gold.PLP.Chemscore.Metal>
0.0000

> <Gold.Chemscore.Hbonds>
donor molecule, donor type, donor heavy atom, donor atom, acceptor molecule, acceptor atom, score
      P1  H  6896  6907       L1     1  1.00
      P1  H  7989  7998       L1    19  0.94

> <Gold.PLP.Chemscore.Internal.Correction>
0.0102

> <Gold.Rescore>
     Score         DG    S(hbond)    S(metal)    S(lipo)     H(rot)  DE(clash)    DE(int)     intcor
     18.29     -18.84       1.77        0.00     111.24       2.17       0.28       0.28       ----

> <Gold.Chemscore.Fitness>
18.2872

> <Gold.Chemscore.DG>
-18.8437

> <Gold.Chemscore.ZeroCoef>
-5.4800

> <Gold.Chemscore.Hbond>
1.7669

> <Gold.Chemscore.Metal>
0.0000

> <Gold.Chemscore.Lipo>
111.2356

> <Gold.Chemscore.Internal_Hbond>
0.0000

> <Gold.Chemscore.DEClash>
0.2772

> <Gold.Chemscore.DEInternal>
0.2792

> <Gold.Chemscore.Rot>
2.1688

> <Gold.Chemscore.Internal.Correction>
   9.000000E+99

> <Gold.Chemscore.Hbonds>
donor molecule, donor type, donor heavy atom, donor atom, acceptor molecule, acceptor atom, score
      P1  H  6896  6907       L1     1  0.88
      P1  H  7989  7998       L1    19  0.72

> <Gold.Chemscore.Hbond.Weighted>
-5.9013

> <Gold.Chemscore.Metal.Weighted>
-0.0000

> <Gold.Chemscore.Lipo.Weighted>
-13.0146

> <Gold.Chemscore.Internal_Hbond.Weighted>
0.0000

> <Gold.Chemscore.DEClash.Weighted>
0.2772

> <Gold.Chemscore.DEInternal.Weighted>
0.2792

> <Gold.Chemscore.Rot.Weighted>
5.5522

> <Gold.Chemscore.Internal.Correction.Weighted>
   9.000000E+99

> <Gold.Protein.RotatedTorsions>
[ 6907 6896 6895 6894 ] final   14.53 input  -60.11 | X-H torsion
[ 7974 7965 7964 7962 ] final -152.48 input  175.53 | X-H torsion
[ 8008 7997 7996 7995 ] final -116.95 input   59.86 | X-H torsion
[ 10167 10162 10161 10158 ] final  -16.00 input  -65.29 | X-H torsion
[ 10718 10713 10712 10709 ] final   87.72 input   66.30 | X-H torsion
[ 10763 10752 10751 10750 ] final   96.58 input  -60.55 | X-H torsion
[ 11005 11000 10999 10996 ] final -138.39 input  -57.11 | X-H torsion

> <Gold.Protein.ActiveResidues>
 VAL166  LYS551  ARG553  GLY616  TRP617  ASP618  TYR619  PRO620  LYS621  CYS622 
 ASP623  PHE694  ASN695  SER759  ASP760  ASP761  ALA762  ILE779  LEU786  VAL792 
 PHE793  MET794  SER795  GLU796  ALA797  LYS798  CYS799  TRP800  GLU811  SER814 

> <Gold.Protein.RotatedAtoms>
  151.8037  135.0701  160.0403 H   0  0  0  0  0  0  0  0  0  0  0  0  # atno 6907 bound_to 6896
  152.3070  133.5709  159.5664 H   0  0  0  0  0  0  0  0  0  0  0  0  # atno 6908 bound_to 6896
  150.7301  134.0124  159.3716 H   0  0  0  0  0  0  0  0  0  0  0  0  # atno 6909 bound_to 6896
  144.7792  140.4656  143.5852 H   0  0  0  0  0  0  0  0  0  0  0  0  # atno 7974 bound_to 7965
  155.0760  140.0394  157.2624 H   0  0  0  0  0  0  0  0  0  0  0  0  # atno 8008 bound_to 7997
  154.6945  140.2660  155.6755 H   0  0  0  0  0  0  0  0  0  0  0  0  # atno 8009 bound_to 7997
  156.2740  140.2753  156.1534 H   0  0  0  0  0  0  0  0  0  0  0  0  # atno 8010 bound_to 7997
  140.7227  143.5161  150.9691 H   0  0  0  0  0  0  0  0  0  0  0  0  # atno 10167 bound_to 10162
  157.6943  131.0266  150.3165 H   0  0  0  0  0  0  0  0  0  0  0  0  # atno 10718 bound_to 10713
  153.2667  135.4213  155.0947 H   0  0  0  0  0  0  0  0  0  0  0  0  # atno 10763 bound_to 10752
  154.8440  135.3462  154.6302 H   0  0  0  0  0  0  0  0  0  0  0  0  # atno 10764 bound_to 10752
  153.6722  135.7043  153.5201 H   0  0  0  0  0  0  0  0  0  0  0  0  # atno 10765 bound_to 10752
  140.8620  134.2157  157.4702 H   0  0  0  0  0  0  0  0  0  0  0  0  # atno 11005 bound_to 11000
  145.6099  139.1512  143.3081 LP  0  0  0  0  0  0  0  0  0  0  0  0  # atno 17320 bound_to 7965
  146.1990  140.6216  142.9111 LP  0  0  0  0  0  0  0  0  0  0  0  0  # atno 17321 bound_to 7965
  139.8876  143.6993  152.3149 LP  0  0  0  0  0  0  0  0  0  0  0  0  # atno 17342 bound_to 10162
  139.7298  144.7585  151.0821 LP  0  0  0  0  0  0  0  0  0  0  0  0  # atno 17343 bound_to 10162
  156.3659  130.3855  149.7214 LP  0  0  0  0  0  0  0  0  0  0  0  0  # atno 17370 bound_to 10713
  156.4645  130.7967  151.2987 LP  0  0  0  0  0  0  0  0  0  0  0  0  # atno 17371 bound_to 10713
  139.8707  134.9734  156.4808 LP  0  0  0  0  0  0  0  0  0  0  0  0  # atno 17394 bound_to 11000
  140.8672  133.8015  155.9326 LP  0  0  0  0  0  0  0  0  0  0  0  0  # atno 17395 bound_to 11000

$$$$
