AV-unprocessed.smi:3261|AV-procd|sdf|12483|dock3
  -GOLD-   2272018383D 1   1.00000     0.00000
 Structure written by MMmdl.
 30 31  0  0  0  0  0  0  0  0  3 V2000
  154.7865  141.0819  161.6734 O   0  0  0  0  0  0  0  0  0  0  0  0
  154.5432  140.7088  160.5270 C   0  0  0  0  0  0  0  0  0  0  0  0
  153.7699  141.4907  159.7336 N   0  0  0  0  0  0  0  0  0  0  0  0
  153.1144  142.7114  160.0481 C   0  0  0  0  0  0  0  0  0  0  0  0
  152.7740  143.5701  158.9798 C   0  0  0  0  0  0  0  0  0  0  0  0
  152.1049  144.7812  159.2490 C   0  0  0  0  0  0  0  0  0  0  0  0
  151.7829  145.1037  160.5203 N   0  3  0  0  0  0  0  0  0  0  0  0
  152.0694  144.3052  161.5712 C   0  0  0  0  0  0  0  0  0  0  0  0
  152.7377  143.0817  161.3635 C   0  0  0  0  0  0  0  0  0  0  0  0
  155.0556  139.5386  160.0379 N   0  5  0  0  0  0  0  0  0  0  0  0
  156.0366  138.6224  160.6468 C   0  0  1  0  0  0  0  0  0  0  0  0
  155.6030  138.3052  162.0952 C   0  0  0  0  0  0  0  0  0  0  0  0
  154.5085  137.2295  162.0796 C   0  0  0  0  0  0  0  0  0  0  0  0
  154.9371  136.1261  160.6841 S   0  0  0  0  0  0  0  0  0  0  0  0
  155.7122  134.9834  161.1925 O   0  0  0  0  0  0  0  0  0  0  0  0
  153.7460  135.9134  159.8471 O   0  0  0  0  0  0  0  0  0  0  0  0
  156.0862  137.2984  159.8568 C   0  0  0  0  0  0  0  0  0  0  0  0
  153.7043  141.1959  158.7704 H   0  0  0  0  0  0  0  0  0  0  0  0
  153.0303  143.3085  157.9632 H   0  0  0  0  0  0  0  0  0  0  0  0
  151.8178  145.4950  158.4908 H   0  0  0  0  0  0  0  0  0  0  0  0
  151.7520  144.6624  162.5398 H   0  0  0  0  0  0  0  0  0  0  0  0
  152.9407  142.4433  162.2104 H   0  0  0  0  0  0  0  0  0  0  0  0
  157.0320  139.0692  160.6655 H   0  0  0  0  0  0  0  0  0  0  0  0
  156.4655  137.9072  162.6311 H   0  0  0  0  0  0  0  0  0  0  0  0
  155.2858  139.1959  162.6394 H   0  0  0  0  0  0  0  0  0  0  0  0
  154.4526  136.6615  163.0078 H   0  0  0  0  0  0  0  0  0  0  0  0
  153.5289  137.6676  161.8802 H   0  0  0  0  0  0  0  0  0  0  0  0
  155.8172  137.4037  158.8053 H   0  0  0  0  0  0  0  0  0  0  0  0
  157.0854  136.8659  159.9055 H   0  0  0  0  0  0  0  0  0  0  0  0
  151.2976  145.9842  160.6937 H   0  0  0  0  0  0  0  0  0  0  0  0
  1  2  2  0  0  0  0
  2  3  1  0  0  0  0
  2 10  1  0  0  0  0
  3  4  1  0  0  0  0
  3 18  1  0  0  0  0
  4  9  1  0  0  0  0
  4  5  2  0  0  0  0
  5  6  1  0  0  0  0
  5 19  1  0  0  0  0
  6  7  2  0  0  0  0
  6 20  1  0  0  0  0
  7  8  1  0  0  0  0
  7 30  1  0  0  0  0
  8  9  2  0  0  0  0
  8 21  1  0  0  0  0
  9 22  1  0  0  0  0
 10 11  1  0  0  0  0
 11 17  1  0  0  0  0
 11 12  1  0  0  0  0
 11 23  1  0  0  0  0
 12 13  1  0  0  0  0
 12 24  1  0  0  0  0
 12 25  1  0  0  0  0
 13 14  1  0  0  0  0
 13 26  1  0  0  0  0
 13 27  1  0  0  0  0
 14 15  2  0  0  0  0
 14 16  2  0  0  0  0
 14 17  1  0  0  0  0
 17 28  1  0  0  0  0
 17 29  1  0  0  0  0
M  CHG  1   7   1
M  CHG  1  10  -1
M  END
> <s_m_source_file>
AV-unprocessed.smi

> <i_m_source_file_index>
3261

> <i_lp_mmshare_version>
43012

> <i_f3d_flags>
0

> <s_epik_input>
Tz1TMSg9TylbQ0gyXVtDSDJdW0NASF0oW0NIMl0xKVtOSF1DKD1PKVtOSF1jMltjSF1bY0hdbltjSF1bY0hdMg==

> <s_epik_cmdline>
J2VwaWtfcHl0aG9uJywgJy1waCcsICc3LjAnLCAnLXRuJywgJzgnLCAnLW1hJywgJzIwMCcsICctbWV0YWxfYmluZGluZycsICctaW1hZScsICc8aW5maWxlLm1hZT4nLCAnLW9tYWUnLCAnPG91dGZpbGUubWFlPic=

> <r_epik_Ionization_Penalty>
8.1176

> <r_epik_Ionization_Penalty_Charging>
8.1176

> <r_epik_Ionization_Penalty_Neutral>
3.03687e-06

> <r_epik_State_Penalty>
7.79629

> <r_epik_Charging_Adjusted_Penalty>
15.9139

> <i_epik_Tot_Q>
0

> <i_epik_Tot_abs_Q>
2

> <r_epik_Metal_State_Penalty>
3.7997

> <b_epik_Metal_Only>
1

> <s_lp_Force_Field>
OPLS_2005

> <r_lp_Energy>
21.8236

> <b_lp_Chiralities_Consistent>
1

> <s_lp_Variant>
AV-unprocessed.smi:3261-6

> <Gold.Version>
5.8.1

> <Gold.Id.Protein>
6NUR|6NUR_protein|mol2

> <Gold.PLP.Fitness>
39.5485

> <Gold.PLP.PLP>
-31.7778

> <Gold.PLP.part.hbond>
-2.9034

> <Gold.PLP.part.metal>
0.0000

> <Gold.PLP.part.buried>
-4.0425

> <Gold.PLP.part.nonpolar>
-24.2640

> <Gold.PLP.part.repulsive>
0.1944

> <Gold.PLP.ligand.clash>
0.0000

> <Gold.PLP.ligand.torsion>
0.2445

> <Gold.PLP.Chemscore.Hbond>
2.7520

> <Gold.PLP.Chemscore.CHOScore>
0.0000

> <Gold.PLP.Chemscore.Metal>
0.0000

> <Gold.Chemscore.Hbonds>
donor molecule, donor type, donor heavy atom, donor atom, acceptor molecule, acceptor atom, score
      P1  H  6896  6907       L1    16  1.00

> <Gold.PLP.Chemscore.Internal.Correction>
0.0036

> <Gold.Rescore>
     Score         DG    S(hbond)    S(metal)    S(lipo)     H(rot)  DE(clash)    DE(int)     intcor
     13.56     -16.69       1.42        0.00      77.20       1.00       0.06       3.07       ----

> <Gold.Chemscore.Fitness>
13.5646

> <Gold.Chemscore.DG>
-16.6928

> <Gold.Chemscore.ZeroCoef>
-5.4800

> <Gold.Chemscore.Hbond>
1.4194

> <Gold.Chemscore.Metal>
0.0000

> <Gold.Chemscore.Lipo>
77.1972

> <Gold.Chemscore.Internal_Hbond>
0.0000

> <Gold.Chemscore.DEClash>
0.0588

> <Gold.Chemscore.DEInternal>
3.0693

> <Gold.Chemscore.Rot>
1.0000

> <Gold.Chemscore.Internal.Correction>
   9.000000E+99

> <Gold.Chemscore.Hbonds>
donor molecule, donor type, donor heavy atom, donor atom, acceptor molecule, acceptor atom, score
      P1  H  6896  6907       L1    16  1.00

> <Gold.Chemscore.Hbond.Weighted>
-4.7407

> <Gold.Chemscore.Metal.Weighted>
-0.0000

> <Gold.Chemscore.Lipo.Weighted>
-9.0321

> <Gold.Chemscore.Internal_Hbond.Weighted>
0.0000

> <Gold.Chemscore.DEClash.Weighted>
0.0588

> <Gold.Chemscore.DEInternal.Weighted>
3.0693

> <Gold.Chemscore.Rot.Weighted>
2.5600

> <Gold.Chemscore.Internal.Correction.Weighted>
   9.000000E+99

> <Gold.Protein.RotatedTorsions>
[ 6907 6896 6895 6894 ] final   45.69 input  -60.11 | X-H torsion
[ 7974 7965 7964 7962 ] final   69.51 input  175.53 | X-H torsion
[ 8008 7997 7996 7995 ] final  129.62 input   59.86 | X-H torsion
[ 10167 10162 10161 10158 ] final  122.78 input  -65.29 | X-H torsion
[ 10718 10713 10712 10709 ] final  158.62 input   66.30 | X-H torsion
[ 10763 10752 10751 10750 ] final  -46.69 input  -60.55 | X-H torsion
[ 11005 11000 10999 10996 ] final   83.52 input  -57.11 | X-H torsion

> <Gold.Protein.ActiveResidues>
 VAL166  LYS551  ARG553  GLY616  TRP617  ASP618  TYR619  PRO620  LYS621  CYS622 
 ASP623  PHE694  ASN695  SER759  ASP760  ASP761  ALA762  ILE779  LEU786  VAL792 
 PHE793  MET794  SER795  GLU796  ALA797  LYS798  CYS799  TRP800  GLU811  SER814 

> <Gold.Protein.RotatedAtoms>
  152.2476  134.8165  160.0450 H   0  0  0  0  0  0  0  0  0  0  0  0  # atno 6907 bound_to 6896
  151.8857  133.3500  159.3789 H   0  0  0  0  0  0  0  0  0  0  0  0  # atno 6908 bound_to 6896
  150.7073  134.4900  159.5555 H   0  0  0  0  0  0  0  0  0  0  0  0  # atno 6909 bound_to 6896
  145.7895  139.2927  143.1219 H   0  0  0  0  0  0  0  0  0  0  0  0  # atno 7974 bound_to 7965
  156.2939  140.2616  156.2628 H   0  0  0  0  0  0  0  0  0  0  0  0  # atno 8008 bound_to 7997
  154.9772  140.0390  157.2280 H   0  0  0  0  0  0  0  0  0  0  0  0  # atno 8009 bound_to 7997
  154.7805  140.2794  155.6072 H   0  0  0  0  0  0  0  0  0  0  0  0  # atno 8010 bound_to 7997
  139.5838  144.6998  151.3460 H   0  0  0  0  0  0  0  0  0  0  0  0  # atno 10167 bound_to 10162
  157.1754  131.0620  151.2161 H   0  0  0  0  0  0  0  0  0  0  0  0  # atno 10718 bound_to 10713
  154.0491  135.6633  153.4798 H   0  0  0  0  0  0  0  0  0  0  0  0  # atno 10763 bound_to 10752
  153.0471  135.5108  154.7769 H   0  0  0  0  0  0  0  0  0  0  0  0  # atno 10764 bound_to 10752
  154.6769  135.3038  154.9632 H   0  0  0  0  0  0  0  0  0  0  0  0  # atno 10765 bound_to 10752
  139.9028  134.8151  156.2321 H   0  0  0  0  0  0  0  0  0  0  0  0  # atno 11005 bound_to 11000
  145.9992  140.8535  143.0027 LP  0  0  0  0  0  0  0  0  0  0  0  0  # atno 17320 bound_to 7965
  144.6784  140.2327  143.7353 LP  0  0  0  0  0  0  0  0  0  0  0  0  # atno 17321 bound_to 7965
  140.7113  143.7383  150.7572 LP  0  0  0  0  0  0  0  0  0  0  0  0  # atno 17342 bound_to 10162
  140.0923  143.4866  152.2472 LP  0  0  0  0  0  0  0  0  0  0  0  0  # atno 17343 bound_to 10162
  157.4004  130.7330  149.6763 LP  0  0  0  0  0  0  0  0  0  0  0  0  # atno 17370 bound_to 10713
  155.9732  130.4122  150.4021 LP  0  0  0  0  0  0  0  0  0  0  0  0  # atno 17371 bound_to 10713
  141.0339  133.6974  156.1478 LP  0  0  0  0  0  0  0  0  0  0  0  0  # atno 17394 bound_to 11000
  140.7056  134.4517  157.5584 LP  0  0  0  0  0  0  0  0  0  0  0  0  # atno 17395 bound_to 11000

$$$$
