AV-unprocessed.smi:3314|AV-procd|sdf|12743|dock7
  -GOLD-   2272019 83D 1   1.00000     0.00000
 Structure written by MMmdl.
 37 38  0  0  0  0  0  0  0  0  3 V2000
  153.7137  140.5626  160.2083 C   0  0  0  0  0  0  0  0  0  0  0  0
  152.8717  141.3624  159.2367 C   0  0  0  0  0  0  0  0  0  0  0  0
  152.7247  142.7548  159.3834 C   0  0  0  0  0  0  0  0  0  0  0  0
  151.9217  143.4380  158.4495 C   0  0  0  0  0  0  0  0  0  0  0  0
  151.7201  144.9356  158.5466 C   0  0  0  0  0  0  0  0  0  0  0  0
  151.2936  142.8215  157.4251 N   0  0  0  0  0  0  0  0  0  0  0  0
  151.4344  141.4838  157.2676 C   0  0  0  0  0  0  0  0  0  0  0  0
  150.7968  140.8827  156.2526 N   0  5  0  0  0  0  0  0  0  0  0  0
  151.4277  139.9295  155.5243 C   0  0  0  0  0  0  0  0  0  0  0  0
  152.6249  139.8368  155.2459 O   0  0  0  0  0  0  0  0  0  0  0  0
  150.4478  138.8678  155.0049 C   0  0  2  0  0  0  0  0  0  0  0  0
  149.3065  139.4950  154.1749 C   0  0  0  0  0  0  0  0  0  0  0  0
  148.3378  138.4521  153.7674 N   0  3  2  0  0  0  0  0  0  0  0  0
  147.2463  138.9846  152.9247 C   0  0  0  0  0  0  0  0  0  0  0  0
  147.8398  137.7058  154.9451 C   0  0  0  0  0  0  0  0  0  0  0  0
  149.0178  137.1419  155.7565 C   0  0  0  0  0  0  0  0  0  0  0  0
  149.8871  138.2019  156.1327 O   0  0  0  0  0  0  0  0  0  0  0  0
  152.2156  140.7213  158.1669 C   0  0  0  0  0  0  0  0  0  0  0  0
  154.3069  141.2160  160.8486 H   0  0  0  0  0  0  0  0  0  0  0  0
  154.3958  139.9057  159.6682 H   0  0  0  0  0  0  0  0  0  0  0  0
  153.0740  139.9487  160.8428 H   0  0  0  0  0  0  0  0  0  0  0  0
  153.2116  143.2840  160.1895 H   0  0  0  0  0  0  0  0  0  0  0  0
  152.0232  145.3104  159.5244 H   0  0  0  0  0  0  0  0  0  0  0  0
  150.6711  145.1924  158.3968 H   0  0  0  0  0  0  0  0  0  0  0  0
  152.3118  145.4445  157.7854 H   0  0  0  0  0  0  0  0  0  0  0  0
  150.9743  138.1348  154.3875 H   0  0  0  0  0  0  0  0  0  0  0  0
  148.7854  140.2636  154.7490 H   0  0  0  0  0  0  0  0  0  0  0  0
  149.7144  139.9788  153.2862 H   0  0  0  0  0  0  0  0  0  0  0  0
  146.6487  139.7147  153.4725 H   0  0  0  0  0  0  0  0  0  0  0  0
  146.5877  138.1806  152.5954 H   0  0  0  0  0  0  0  0  0  0  0  0
  147.6497  139.4700  152.0355 H   0  0  0  0  0  0  0  0  0  0  0  0
  147.2395  138.3673  155.5718 H   0  0  0  0  0  0  0  0  0  0  0  0
  147.1900  136.8927  154.6196 H   0  0  0  0  0  0  0  0  0  0  0  0
  148.6519  136.6492  156.6575 H   0  0  0  0  0  0  0  0  0  0  0  0
  149.5645  136.3916  155.1833 H   0  0  0  0  0  0  0  0  0  0  0  0
  152.3120  139.6530  158.0360 H   0  0  0  0  0  0  0  0  0  0  0  0
  148.8495  137.7911  153.2001 H   0  0  0  0  0  0  0  0  0  0  0  0
  1  2  1  0  0  0  0
  1 19  1  0  0  0  0
  1 20  1  0  0  0  0
  1 21  1  0  0  0  0
  2 18  2  0  0  0  0
  2  3  1  0  0  0  0
  3  4  2  0  0  0  0
  3 22  1  0  0  0  0
  4  5  1  0  0  0  0
  4  6  1  0  0  0  0
  5 23  1  0  0  0  0
  5 24  1  0  0  0  0
  5 25  1  0  0  0  0
  6  7  2  0  0  0  0
  7  8  1  0  0  0  0
  7 18  1  0  0  0  0
  8  9  1  0  0  0  0
  9 10  2  0  0  0  0
  9 11  1  0  0  0  0
 11 17  1  0  0  0  0
 11 12  1  0  0  0  0
 11 26  1  0  0  0  0
 12 13  1  0  0  0  0
 12 27  1  0  0  0  0
 12 28  1  0  0  0  0
 13 14  1  0  0  0  0
 13 15  1  0  0  0  0
 13 37  1  0  0  0  0
 14 29  1  0  0  0  0
 14 30  1  0  0  0  0
 14 31  1  0  0  0  0
 15 16  1  0  0  0  0
 15 32  1  0  0  0  0
 15 33  1  0  0  0  0
 16 17  1  0  0  0  0
 16 34  1  0  0  0  0
 16 35  1  0  0  0  0
 18 36  1  0  0  0  0
M  CHG  1   8  -1
M  CHG  1  13   1
M  END
> <s_m_source_file>
AV-unprocessed.smi

> <i_m_source_file_index>
3314

> <i_lp_mmshare_version>
43012

> <i_f3d_flags>
0

> <s_epik_input>
W0NIM11jMVtjSF1jKFtDSDNdKW5jKFtjSF0xKVtOSF1DKD1PKVtDQEBIXTJbQ0gyXU4oW0NIM10pW0NIMl1bQ0gyXU8y

> <s_epik_cmdline>
J2VwaWtfcHl0aG9uJywgJy1waCcsICc3LjAnLCAnLXRuJywgJzgnLCAnLW1hJywgJzIwMCcsICctbWV0YWxfYmluZGluZycsICctaW1hZScsICc8aW5maWxlLm1hZT4nLCAnLW9tYWUnLCAnPG91dGZpbGUubWFlPic=

> <r_epik_Ionization_Penalty>
13.8964

> <r_epik_Ionization_Penalty_Charging>
7.88995

> <r_epik_Ionization_Penalty_Neutral>
6.00641

> <r_epik_State_Penalty>
8.39989

> <r_epik_Charging_Adjusted_Penalty>
16.2898

> <i_epik_Tot_Q>
0

> <i_epik_Tot_abs_Q>
2

> <r_epik_Metal_State_Penalty>
4.31145

> <b_epik_Metal_Only>
1

> <s_lp_Force_Field>
OPLS_2005

> <r_lp_Energy>
9.48457

> <b_lp_Chiralities_Consistent>
1

> <s_lp_Variant>
AV-unprocessed.smi:3314-13

> <Gold.Version>
5.8.1

> <Gold.Id.Protein>
6NUR|6NUR_protein|mol2

> <Gold.PLP.Fitness>
41.8731

> <Gold.PLP.PLP>
-34.0204

> <Gold.PLP.part.hbond>
-3.1676

> <Gold.PLP.part.metal>
0.0000

> <Gold.PLP.part.buried>
-1.4453

> <Gold.PLP.part.nonpolar>
-29.2789

> <Gold.PLP.part.repulsive>
0.1594

> <Gold.PLP.ligand.clash>
0.0000

> <Gold.PLP.ligand.torsion>
0.5767

> <Gold.PLP.Chemscore.Hbond>
3.0000

> <Gold.PLP.Chemscore.CHOScore>
0.0000

> <Gold.PLP.Chemscore.Metal>
0.0000

> <Gold.Chemscore.Hbonds>
donor molecule, donor type, donor heavy atom, donor atom, acceptor molecule, acceptor atom, score
      L1  H    13    37       P1  7948  1.98
      P1  H  7997  8009       L1    10  1.00

> <Gold.PLP.Chemscore.Internal.Correction>
0.0062

> <Gold.Rescore>
     Score         DG    S(hbond)    S(metal)    S(lipo)     H(rot)  DE(clash)    DE(int)     intcor
     18.67     -19.43       1.94        0.00      85.87       1.00       0.16       0.60       ----

> <Gold.Chemscore.Fitness>
18.6726

> <Gold.Chemscore.DG>
-19.4311

> <Gold.Chemscore.ZeroCoef>
-5.4800

> <Gold.Chemscore.Hbond>
1.9353

> <Gold.Chemscore.Metal>
0.0000

> <Gold.Chemscore.Lipo>
85.8729

> <Gold.Chemscore.Internal_Hbond>
0.0000

> <Gold.Chemscore.DEClash>
0.1597

> <Gold.Chemscore.DEInternal>
0.5988

> <Gold.Chemscore.Rot>
1.0000

> <Gold.Chemscore.Internal.Correction>
   9.000000E+99

> <Gold.Chemscore.Hbonds>
donor molecule, donor type, donor heavy atom, donor atom, acceptor molecule, acceptor atom, score
      L1  H    13    37       P1  7948  0.90
      P1  H  7997  8009       L1    10  0.96

> <Gold.Chemscore.Hbond.Weighted>
-6.4640

> <Gold.Chemscore.Metal.Weighted>
-0.0000

> <Gold.Chemscore.Lipo.Weighted>
-10.0471

> <Gold.Chemscore.Internal_Hbond.Weighted>
0.0000

> <Gold.Chemscore.DEClash.Weighted>
0.1597

> <Gold.Chemscore.DEInternal.Weighted>
0.5988

> <Gold.Chemscore.Rot.Weighted>
2.5600

> <Gold.Chemscore.Internal.Correction.Weighted>
   9.000000E+99

> <Gold.Protein.RotatedTorsions>
[ 6907 6896 6895 6894 ] final  -84.23 input  -60.11 | X-H torsion
[ 7974 7965 7964 7962 ] final  170.24 input  175.53 | X-H torsion
[ 8008 7997 7996 7995 ] final -128.95 input   59.86 | X-H torsion
[ 10167 10162 10161 10158 ] final   24.69 input  -65.29 | X-H torsion
[ 10718 10713 10712 10709 ] final -158.06 input   66.30 | X-H torsion
[ 10763 10752 10751 10750 ] final -107.34 input  -60.55 | X-H torsion
[ 11005 11000 10999 10996 ] final   85.28 input  -57.11 | X-H torsion

> <Gold.Protein.ActiveResidues>
 VAL166  LYS551  ARG553  GLY616  TRP617  ASP618  TYR619  PRO620  LYS621  CYS622 
 ASP623  PHE694  ASN695  SER759  ASP760  ASP761  ALA762  ILE779  LEU786  VAL792 
 PHE793  MET794  SER795  GLU796  ALA797  LYS798  CYS799  TRP800  GLU811  SER814 

> <Gold.Protein.RotatedAtoms>
  150.6878  134.3390  159.4859 H   0  0  0  0  0  0  0  0  0  0  0  0  # atno 6907 bound_to 6896
  152.1245  134.9178  160.0571 H   0  0  0  0  0  0  0  0  0  0  0  0  # atno 6908 bound_to 6896
  152.0371  133.3927  159.4358 H   0  0  0  0  0  0  0  0  0  0  0  0  # atno 6909 bound_to 6896
  144.7330  139.9173  143.6418 H   0  0  0  0  0  0  0  0  0  0  0  0  # atno 7974 bound_to 7965
  155.2711  140.0440  157.3007 H   0  0  0  0  0  0  0  0  0  0  0  0  # atno 8008 bound_to 7997
  154.5653  140.2358  155.8242 H   0  0  0  0  0  0  0  0  0  0  0  0  # atno 8009 bound_to 7997
  156.2080  140.3007  155.9676 H   0  0  0  0  0  0  0  0  0  0  0  0  # atno 8010 bound_to 7997
  140.5167  144.0070  150.6397 H   0  0  0  0  0  0  0  0  0  0  0  0  # atno 10167 bound_to 10162
  156.5490  130.8597  151.2773 H   0  0  0  0  0  0  0  0  0  0  0  0  # atno 10718 bound_to 10713
  154.8069  135.4678  154.0415 H   0  0  0  0  0  0  0  0  0  0  0  0  # atno 10763 bound_to 10752
  153.1877  135.6850  153.8400 H   0  0  0  0  0  0  0  0  0  0  0  0  # atno 10764 bound_to 10752
  153.7929  135.3240  155.3358 H   0  0  0  0  0  0  0  0  0  0  0  0  # atno 10765 bound_to 10752
  139.8976  134.8276  156.2561 H   0  0  0  0  0  0  0  0  0  0  0  0  # atno 11005 bound_to 11000
  146.0956  139.3948  143.0379 LP  0  0  0  0  0  0  0  0  0  0  0  0  # atno 17320 bound_to 7965
  145.7651  140.9919  143.1179 LP  0  0  0  0  0  0  0  0  0  0  0  0  # atno 17321 bound_to 7965
  140.3408  143.3021  152.0590 LP  0  0  0  0  0  0  0  0  0  0  0  0  # atno 17342 bound_to 10162
  139.4911  144.6444  151.6810 LP  0  0  0  0  0  0  0  0  0  0  0  0  # atno 17343 bound_to 10162
  157.7391  130.9825  150.2293 LP  0  0  0  0  0  0  0  0  0  0  0  0  # atno 17370 bound_to 10713
  156.2902  130.3744  149.7849 LP  0  0  0  0  0  0  0  0  0  0  0  0  # atno 17371 bound_to 10713
  141.0193  133.7051  156.1241 LP  0  0  0  0  0  0  0  0  0  0  0  0  # atno 17394 bound_to 11000
  140.7257  134.4310  157.5571 LP  0  0  0  0  0  0  0  0  0  0  0  0  # atno 17395 bound_to 11000

$$$$
