AV-unprocessed.smi:2929|AV-procd|sdf|11239|dock8
  -GOLD-   2272016133D 1   1.00000     0.00000
 Structure written by MMmdl.
 33 34  0  0  0  0  0  0  0  0  1 V2000
  153.2950  130.6298  156.0344 C   0  0  0  0  0  0  0  0  0  0  0  0
  151.9514  131.3483  157.0639 S   0  0  0  0  0  0  0  0  0  0  0  0
  151.2955  130.2455  157.7840 O   0  0  0  0  0  0  0  0  0  0  0  0
  152.5053  132.4820  157.8206 O   0  0  0  0  0  0  0  0  0  0  0  0
  150.7977  131.9993  155.8613 C   0  0  0  0  0  0  0  0  0  0  0  0
  150.1272  131.1330  154.9749 C   0  0  0  0  0  0  0  0  0  0  0  0
  149.2635  131.7000  154.0183 C   0  0  0  0  0  0  0  0  0  0  0  0
  149.1082  133.1083  153.9839 C   0  0  0  0  0  0  0  0  0  0  0  0
  148.2818  133.8084  153.0627 N   0  0  0  0  0  0  0  0  0  0  0  0
  147.1220  133.4239  152.5022 C   0  0  0  0  0  0  0  0  0  0  0  0
  146.5413  132.3607  152.7181 O   0  0  0  0  0  0  0  0  0  0  0  0
  146.6537  134.3645  151.6699 N   0  0  0  0  0  0  0  0  0  0  0  0
  145.4239  134.2561  150.8958 C   0  0  0  0  0  0  0  0  0  0  0  0
  145.2274  132.9249  150.1963 C   0  0  0  0  0  0  0  0  0  0  0  0
  144.0320  132.7036  149.2994 C   0  0  0  0  0  0  0  0  0  0  0  0
  144.1309  131.9734  150.6165 C   0  0  0  0  0  0  0  0  0  0  0  0
  149.8522  133.8750  154.9066 C   0  0  0  0  0  0  0  0  0  0  0  0
  150.6848  133.3437  155.8260 N   0  0  0  0  0  0  0  0  0  0  0  0
  154.0587  130.2006  156.6824 H   0  0  0  0  0  0  0  0  0  0  0  0
  153.7387  131.4122  155.4187 H   0  0  0  0  0  0  0  0  0  0  0  0
  152.8836  129.8516  155.3920 H   0  0  0  0  0  0  0  0  0  0  0  0
  150.2694  130.0636  155.0192 H   0  0  0  0  0  0  0  0  0  0  0  0
  148.7562  131.0442  153.3289 H   0  0  0  0  0  0  0  0  0  0  0  0
  148.5948  134.7392  152.8284 H   0  0  0  0  0  0  0  0  0  0  0  0
  147.1910  135.2114  151.5557 H   0  0  0  0  0  0  0  0  0  0  0  0
  144.5610  134.4707  151.5289 H   0  0  0  0  0  0  0  0  0  0  0  0
  145.4444  135.0374  150.1358 H   0  0  0  0  0  0  0  0  0  0  0  0
  146.1552  132.4705  149.8534 H   0  0  0  0  0  0  0  0  0  0  0  0
  143.2982  133.5035  149.2238 H   0  0  0  0  0  0  0  0  0  0  0  0
  144.1866  132.1250  148.3908 H   0  0  0  0  0  0  0  0  0  0  0  0
  144.3537  130.9087  150.5878 H   0  0  0  0  0  0  0  0  0  0  0  0
  143.4641  132.2884  151.4169 H   0  0  0  0  0  0  0  0  0  0  0  0
  149.7787  134.9528  154.9072 H   0  0  0  0  0  0  0  0  0  0  0  0
  1  2  1  0  0  0  0
  1 19  1  0  0  0  0
  1 20  1  0  0  0  0
  1 21  1  0  0  0  0
  2  3  2  0  0  0  0
  2  4  2  0  0  0  0
  2  5  1  0  0  0  0
  5 18  1  0  0  0  0
  5  6  2  0  0  0  0
  6  7  1  0  0  0  0
  6 22  1  0  0  0  0
  7  8  2  0  0  0  0
  7 23  1  0  0  0  0
  8  9  1  0  0  0  0
  8 17  1  0  0  0  0
  9 10  1  0  0  0  0
  9 24  1  0  0  0  0
 10 11  2  0  0  0  0
 10 12  1  0  0  0  0
 12 13  1  0  0  0  0
 12 25  1  0  0  0  0
 13 14  1  0  0  0  0
 13 26  1  0  0  0  0
 13 27  1  0  0  0  0
 14 16  1  0  0  0  0
 14 15  1  0  0  0  0
 14 28  1  0  0  0  0
 15 16  1  0  0  0  0
 15 29  1  0  0  0  0
 15 30  1  0  0  0  0
 16 31  1  0  0  0  0
 16 32  1  0  0  0  0
 17 18  2  0  0  0  0
 17 33  1  0  0  0  0
M  END
> <s_m_source_file>
AV-unprocessed.smi

> <i_m_source_file_index>
2929

> <i_lp_mmshare_version>
43012

> <i_f3d_flags>
0

> <s_epik_input>
W0NIM11TKD1PKSg9TyljMVtjSF1bY0hdYyhbY0hdbjEpW05IXUMoPU8pW05IXVtDSDJdW0NIXTJbQ0gyXVtDSDJdMg==

> <s_epik_cmdline>
J2VwaWtfcHl0aG9uJywgJy1waCcsICc3LjAnLCAnLXRuJywgJzgnLCAnLW1hJywgJzIwMCcsICctbWV0YWxfYmluZGluZycsICctaW1hZScsICc8aW5maWxlLm1hZT4nLCAnLW9tYWUnLCAnPG91dGZpbGUubWFlPic=

> <r_lp_tautomer_probability>
1

> <r_epik_Ionization_Penalty>
4.04513e-05

> <r_epik_Ionization_Penalty_Charging>
0

> <r_epik_Ionization_Penalty_Neutral>
4.04513e-05

> <r_epik_State_Penalty>
-0

> <r_epik_Charging_Adjusted_Penalty>
0

> <i_epik_Tot_Q>
0

> <i_epik_Tot_abs_Q>
0

> <r_epik_Metal_State_Penalty>
-0

> <b_epik_Metal_Only>
0

> <s_lp_Force_Field>
OPLS_2005

> <r_lp_Energy>
13.7936

> <b_lp_Chiralities_Consistent>
1

> <s_lp_Variant>
AV-unprocessed.smi:2929-1

> <Gold.Version>
5.8.1

> <Gold.Id.Protein>
6NUR|6NUR_protein|mol2

> <Gold.PLP.Fitness>
41.2536

> <Gold.PLP.PLP>
-33.2312

> <Gold.PLP.part.hbond>
-3.0000

> <Gold.PLP.part.metal>
0.0000

> <Gold.PLP.part.buried>
-4.1892

> <Gold.PLP.part.nonpolar>
-26.2767

> <Gold.PLP.part.repulsive>
0.1740

> <Gold.PLP.ligand.clash>
0.0000

> <Gold.PLP.ligand.torsion>
1.7075

> <Gold.PLP.Chemscore.Hbond>
2.9600

> <Gold.PLP.Chemscore.CHOScore>
0.0000

> <Gold.PLP.Chemscore.Metal>
0.0000

> <Gold.Chemscore.Hbonds>
donor molecule, donor type, donor heavy atom, donor atom, acceptor molecule, acceptor atom, score
      L1  H     9    24       P1  7948  0.95
      L1  H    12    25       P1  7948  0.98
      P1  H  6896  6908       L1     4  1.00

> <Gold.PLP.Chemscore.Internal.Correction>
2.5574

> <Gold.Rescore>
     Score         DG    S(hbond)    S(metal)    S(lipo)     H(rot)  DE(clash)    DE(int)     intcor
     14.61     -17.71       2.43        0.00      62.16       1.23       0.07       3.03       ----

> <Gold.Chemscore.Fitness>
14.6085

> <Gold.Chemscore.DG>
-17.7063

> <Gold.Chemscore.ZeroCoef>
-5.4800

> <Gold.Chemscore.Hbond>
2.4297

> <Gold.Chemscore.Metal>
0.0000

> <Gold.Chemscore.Lipo>
62.1609

> <Gold.Chemscore.Internal_Hbond>
0.0000

> <Gold.Chemscore.DEClash>
0.0697

> <Gold.Chemscore.DEInternal>
3.0281

> <Gold.Chemscore.Rot>
1.2350

> <Gold.Chemscore.Internal.Correction>
   9.000000E+99

> <Gold.Chemscore.Hbonds>
donor molecule, donor type, donor heavy atom, donor atom, acceptor molecule, acceptor atom, score
      L1  H     9    24       P1  7948  0.21
      L1  H    12    25       P1  7948  0.82
      P1  H  6896  6908       L1     4  0.97

> <Gold.Chemscore.Hbond.Weighted>
-8.1150

> <Gold.Chemscore.Metal.Weighted>
-0.0000

> <Gold.Chemscore.Lipo.Weighted>
-7.2728

> <Gold.Chemscore.Internal_Hbond.Weighted>
0.0000

> <Gold.Chemscore.DEClash.Weighted>
0.0697

> <Gold.Chemscore.DEInternal.Weighted>
3.0281

> <Gold.Chemscore.Rot.Weighted>
3.1616

> <Gold.Chemscore.Internal.Correction.Weighted>
   9.000000E+99

> <Gold.Protein.RotatedTorsions>
[ 6907 6896 6895 6894 ] final   34.78 input  -60.11 | X-H torsion
[ 7974 7965 7964 7962 ] final   -4.19 input  175.53 | X-H torsion
[ 8008 7997 7996 7995 ] final -149.30 input   59.86 | X-H torsion
[ 10167 10162 10161 10158 ] final  -83.54 input  -65.29 | X-H torsion
[ 10718 10713 10712 10709 ] final  -47.77 input   66.30 | X-H torsion
[ 10763 10752 10751 10750 ] final  -46.85 input  -60.55 | X-H torsion
[ 11005 11000 10999 10996 ] final   16.53 input  -57.11 | X-H torsion

> <Gold.Protein.ActiveResidues>
 VAL166  LYS551  ARG553  GLY616  TRP617  ASP618  TYR619  PRO620  LYS621  CYS622 
 ASP623  PHE694  ASN695  SER759  ASP760  ASP761  ALA762  ILE779  LEU786  VAL792 
 PHE793  MET794  SER795  GLU796  ALA797  LYS798  CYS799  TRP800  GLU811  SER814 

> <Gold.Protein.RotatedAtoms>
  152.1071  134.9301  160.0567 H   0  0  0  0  0  0  0  0  0  0  0  0  # atno 6907 bound_to 6896
  152.0493  133.4007  159.4378 H   0  0  0  0  0  0  0  0  0  0  0  0  # atno 6908 bound_to 6896
  150.6842  134.3247  159.4845 H   0  0  0  0  0  0  0  0  0  0  0  0  # atno 6909 bound_to 6896
  146.2377  140.1834  142.8332 H   0  0  0  0  0  0  0  0  0  0  0  0  # atno 7974 bound_to 7965
  155.6054  140.0666  157.2721 H   0  0  0  0  0  0  0  0  0  0  0  0  # atno 8008 bound_to 7997
  154.4267  140.1811  156.1264 H   0  0  0  0  0  0  0  0  0  0  0  0  # atno 8009 bound_to 7997
  156.0126  140.3325  155.6960 H   0  0  0  0  0  0  0  0  0  0  0  0  # atno 8010 bound_to 7997
  140.4217  143.2582  151.8880 H   0  0  0  0  0  0  0  0  0  0  0  0  # atno 10167 bound_to 10162
  156.2052  130.4158  149.9187 H   0  0  0  0  0  0  0  0  0  0  0  0  # atno 10718 bound_to 10713
  154.0518  135.6630  153.4801 H   0  0  0  0  0  0  0  0  0  0  0  0  # atno 10763 bound_to 10752
  153.0461  135.5114  154.7744 H   0  0  0  0  0  0  0  0  0  0  0  0  # atno 10764 bound_to 10752
  154.6752  135.3036  154.9654 H   0  0  0  0  0  0  0  0  0  0  0  0  # atno 10765 bound_to 10752
  140.4461  134.1272  155.7696 H   0  0  0  0  0  0  0  0  0  0  0  0  # atno 11005 bound_to 11000
  144.9916  140.8552  143.5336 LP  0  0  0  0  0  0  0  0  0  0  0  0  # atno 17320 bound_to 7965
  145.1840  139.2336  143.5277 LP  0  0  0  0  0  0  0  0  0  0  0  0  # atno 17321 bound_to 7965
  139.4783  144.5430  151.8500 LP  0  0  0  0  0  0  0  0  0  0  0  0  # atno 17342 bound_to 10162
  140.4526  144.1834  150.5898 LP  0  0  0  0  0  0  0  0  0  0  0  0  # atno 17343 bound_to 10162
  156.6884  130.8886  151.3585 LP  0  0  0  0  0  0  0  0  0  0  0  0  # atno 17370 bound_to 10713
  157.7008  130.9331  150.0780 LP  0  0  0  0  0  0  0  0  0  0  0  0  # atno 17371 bound_to 10713
  141.1684  133.8657  157.1644 LP  0  0  0  0  0  0  0  0  0  0  0  0  # atno 17394 bound_to 11000
  140.0037  135.0017  157.0246 LP  0  0  0  0  0  0  0  0  0  0  0  0  # atno 17395 bound_to 11000

$$$$
