AV-unprocessed.smi:289|AV-procd|sdf|2214|dock6
  -GOLD-   2262022 53D 1   1.00000     0.00000
 Structure written by MMmdl.
 51 54  0  0  0  0  0  0  0  0  1 V2000
  151.5799  137.1706  159.8557 O   0  0  0  0  0  0  0  0  0  0  0  0
  151.0264  137.7158  158.8986 C   0  0  0  0  0  0  0  0  0  0  0  0
  151.8363  138.6975  158.0253 C   0  0  0  0  0  0  0  0  0  0  0  0
  152.2492  139.9267  158.7394 N   0  0  0  0  0  0  0  0  0  0  0  0
  153.1614  139.8124  159.8170 C   0  0  0  0  0  0  0  0  0  0  0  0
  153.5876  138.7151  160.1799 O   0  0  0  0  0  0  0  0  0  0  0  0
  153.5629  141.0696  160.4355 C   0  0  0  0  0  0  0  0  0  0  0  0
  154.4586  141.0621  161.4372 F   0  0  0  0  0  0  0  0  0  0  0  0
  153.0625  142.2466  160.0066 C   0  0  0  0  0  0  0  0  0  0  0  0
  152.1367  142.3443  158.9805 N   0  0  0  0  0  0  0  0  0  0  0  0
  151.6359  143.6795  158.4498 C   0  0  1  0  0  0  0  0  0  0  0  0
  150.1305  143.9113  158.6397 C   0  0  0  0  0  0  0  0  0  0  0  0
  150.0622  144.7533  159.9111 C   0  0  0  0  0  0  0  0  0  0  0  0
  151.5224  144.9360  160.3387 C   0  0  0  0  0  0  0  0  0  0  0  0
  152.2693  144.7002  159.1530 O   0  0  0  0  0  0  0  0  0  0  0  0
  151.7500  141.1732  158.2904 C   0  0  0  0  0  0  0  0  0  0  0  0
  150.9961  141.2360  157.3166 O   0  0  0  0  0  0  0  0  0  0  0  0
  149.7286  137.4787  158.5888 N   0  0  0  0  0  0  0  0  0  0  0  0
  149.0008  138.0363  157.4400 C   0  0  0  0  0  0  0  0  0  0  0  0
  148.6343  136.8915  156.4730 C   0  0  0  0  0  0  0  0  0  0  0  0
  147.8342  135.8816  157.1911 N   0  0  0  0  0  0  0  0  0  0  0  0
  146.5389  135.5687  156.9359 C   0  0  0  0  0  0  0  0  0  0  0  0
  145.8319  134.9631  157.7418 O   0  0  0  0  0  0  0  0  0  0  0  0
  145.9448  135.9522  155.6372 C   0  0  0  0  0  0  0  0  0  0  0  0
  144.6328  136.0212  155.2528 C   0  0  0  0  0  0  0  0  0  0  0  0
  144.6295  136.3896  153.8791 C   0  0  0  0  0  0  0  0  0  0  0  0
  145.9410  136.4944  153.5152 C   0  0  0  0  0  0  0  0  0  0  0  0
  146.7549  136.2176  154.5699 O   0  0  0  0  0  0  0  0  0  0  0  0
  148.5477  135.3538  158.3659 C   0  0  0  0  0  0  0  0  0  0  0  0
  148.8984  136.5117  159.3192 C   0  0  0  0  0  0  0  0  0  0  0  0
  152.7126  138.1809  157.6311 H   0  0  0  0  0  0  0  0  0  0  0  0
  151.2465  138.9482  157.1423 H   0  0  0  0  0  0  0  0  0  0  0  0
  153.4268  143.1377  160.4926 H   0  0  0  0  0  0  0  0  0  0  0  0
  151.9075  143.6912  157.3930 H   0  0  0  0  0  0  0  0  0  0  0  0
  149.7680  144.4967  157.7938 H   0  0  0  0  0  0  0  0  0  0  0  0
  149.5588  142.9840  158.6651 H   0  0  0  0  0  0  0  0  0  0  0  0
  149.6044  145.7189  159.6927 H   0  0  0  0  0  0  0  0  0  0  0  0
  149.4734  144.2755  160.6946 H   0  0  0  0  0  0  0  0  0  0  0  0
  151.7194  145.9303  160.7401 H   0  0  0  0  0  0  0  0  0  0  0  0
  151.8005  144.2061  161.1003 H   0  0  0  0  0  0  0  0  0  0  0  0
  148.0935  138.5250  157.7982 H   0  0  0  0  0  0  0  0  0  0  0  0
  149.5486  138.8071  156.9014 H   0  0  0  0  0  0  0  0  0  0  0  0
  148.1206  137.3322  155.6213 H   0  0  0  0  0  0  0  0  0  0  0  0
  149.5362  136.4220  156.0776 H   0  0  0  0  0  0  0  0  0  0  0  0
  143.7783  135.8319  155.8858 H   0  0  0  0  0  0  0  0  0  0  0  0
  143.7757  136.5480  153.2368 H   0  0  0  0  0  0  0  0  0  0  0  0
  146.4472  136.7371  152.5924 H   0  0  0  0  0  0  0  0  0  0  0  0
  147.9759  134.5963  158.9035 H   0  0  0  0  0  0  0  0  0  0  0  0
  149.4587  134.8542  158.0323 H   0  0  0  0  0  0  0  0  0  0  0  0
  149.3893  136.1163  160.2092 H   0  0  0  0  0  0  0  0  0  0  0  0
  147.9903  137.0030  159.6719 H   0  0  0  0  0  0  0  0  0  0  0  0
  1  2  2  0  0  0  0
  2  3  1  0  0  0  0
  2 18  1  0  0  0  0
  3  4  1  0  0  0  0
  3 31  1  0  0  0  0
  3 32  1  0  0  0  0
  4 16  1  0  0  0  0
  4  5  1  0  0  0  0
  5  6  2  0  0  0  0
  5  7  1  0  0  0  0
  7  8  1  0  0  0  0
  7  9  2  0  0  0  0
  9 10  1  0  0  0  0
  9 33  1  0  0  0  0
 10 11  1  0  0  0  0
 10 16  1  0  0  0  0
 11 15  1  0  0  0  0
 11 12  1  0  0  0  0
 11 34  1  0  0  0  0
 12 13  1  0  0  0  0
 12 35  1  0  0  0  0
 12 36  1  0  0  0  0
 13 14  1  0  0  0  0
 13 37  1  0  0  0  0
 13 38  1  0  0  0  0
 14 15  1  0  0  0  0
 14 39  1  0  0  0  0
 14 40  1  0  0  0  0
 16 17  2  0  0  0  0
 18 30  1  0  0  0  0
 18 19  1  0  0  0  0
 19 20  1  0  0  0  0
 19 41  1  0  0  0  0
 19 42  1  0  0  0  0
 20 21  1  0  0  0  0
 20 43  1  0  0  0  0
 20 44  1  0  0  0  0
 21 22  1  0  0  0  0
 21 29  1  0  0  0  0
 22 23  2  0  0  0  0
 22 24  1  0  0  0  0
 24 28  1  0  0  0  0
 24 25  2  0  0  0  0
 25 26  1  0  0  0  0
 25 45  1  0  0  0  0
 26 27  2  0  0  0  0
 26 46  1  0  0  0  0
 27 28  1  0  0  0  0
 27 47  1  0  0  0  0
 29 30  1  0  0  0  0
 29 48  1  0  0  0  0
 29 49  1  0  0  0  0
 30 50  1  0  0  0  0
 30 51  1  0  0  0  0
M  END
> <s_m_source_file>
AV-unprocessed.smi

> <i_m_source_file_index>
289

> <i_lp_mmshare_version>
43012

> <i_f3d_flags>
0

> <s_epik_input>
bzFbY0hdW2NIXVtjSF1jMUMoPU8pTihbQ0gyXVtDSDJdMilbQ0gyXVtDSDJdTjJDKD1PKVtDSDJdbjNjKD1PKWMoRilbY0hdbihjMz1PKVtDQEBIXTRbQ0gyXVtDSDJdW0NIMl1PNA==

> <s_epik_cmdline>
J2VwaWtfcHl0aG9uJywgJy1waCcsICc3LjAnLCAnLXRuJywgJzgnLCAnLW1hJywgJzIwMCcsICctbWV0YWxfYmluZGluZycsICctaW1hZScsICc8aW5maWxlLm1hZT4nLCAnLW9tYWUnLCAnPG91dGZpbGUubWFlPic=

> <r_lp_tautomer_probability>
1

> <r_epik_Ionization_Penalty>
6.38128e-09

> <r_epik_Ionization_Penalty_Charging>
4.20153e-09

> <r_epik_Ionization_Penalty_Neutral>
2.17976e-09

> <r_epik_State_Penalty>
-0

> <r_epik_Charging_Adjusted_Penalty>
4.20153e-09

> <i_epik_Tot_Q>
0

> <i_epik_Tot_abs_Q>
0

> <r_epik_Metal_State_Penalty>
-0

> <b_epik_Metal_Only>
0

> <s_epik_Chemistry_Notes>
This compound contains an acetal/aminal-like group ( X-CH(R)-Y where X, Y are N, S, or O) that may be acid/base labile, releasing an aldehyde.

> <s_lp_Force_Field>
OPLS_2005

> <r_lp_Energy>
67.9556

> <b_lp_Chiralities_Consistent>
1

> <s_lp_Variant>
AV-unprocessed.smi:289-2

> <Gold.Version>
5.8.1

> <Gold.Id.Protein>
6NUR|6NUR_protein|mol2

> <Gold.PLP.Fitness>
47.7651

> <Gold.PLP.PLP>
-41.9004

> <Gold.PLP.part.hbond>
-0.9795

> <Gold.PLP.part.metal>
0.0000

> <Gold.PLP.part.buried>
-6.2595

> <Gold.PLP.part.nonpolar>
-34.9588

> <Gold.PLP.part.repulsive>
0.1151

> <Gold.PLP.ligand.clash>
0.0000

> <Gold.PLP.ligand.torsion>
0.3803

> <Gold.PLP.Chemscore.Hbond>
1.0000

> <Gold.PLP.Chemscore.CHOScore>
1.0000

> <Gold.PLP.Chemscore.Metal>
0.0000

> <Gold.Chemscore.Hbonds>
donor molecule, donor type, donor heavy atom, donor atom, acceptor molecule, acceptor atom, score
      P1  H  6896  6909       L1     1  1.00
      L1  C    27    47       P1  7948  0.71

> <Gold.PLP.Chemscore.Internal.Correction>
0.6253

> <Gold.Rescore>
     Score         DG    S(hbond)    S(metal)    S(lipo)     H(rot)  DE(clash)    DE(int)     intcor
      9.01     -12.45       1.00        0.00      67.29       1.66       0.01       3.43       ----

> <Gold.Chemscore.Fitness>
9.0052

> <Gold.Chemscore.DG>
-12.4462

> <Gold.Chemscore.ZeroCoef>
-5.4800

> <Gold.Chemscore.Hbond>
0.9995

> <Gold.Chemscore.Metal>
0.0000

> <Gold.Chemscore.Lipo>
67.2874

> <Gold.Chemscore.Internal_Hbond>
0.0000

> <Gold.Chemscore.DEClash>
0.0122

> <Gold.Chemscore.DEInternal>
3.4289

> <Gold.Chemscore.Rot>
1.6580

> <Gold.Chemscore.Internal.Correction>
   9.000000E+99

> <Gold.Chemscore.Hbonds>
donor molecule, donor type, donor heavy atom, donor atom, acceptor molecule, acceptor atom, score
      P1  H  6896  6909       L1     1  0.93

> <Gold.Chemscore.Hbond.Weighted>
-3.3382

> <Gold.Chemscore.Metal.Weighted>
-0.0000

> <Gold.Chemscore.Lipo.Weighted>
-7.8726

> <Gold.Chemscore.Internal_Hbond.Weighted>
0.0000

> <Gold.Chemscore.DEClash.Weighted>
0.0122

> <Gold.Chemscore.DEInternal.Weighted>
3.4289

> <Gold.Chemscore.Rot.Weighted>
4.2446

> <Gold.Chemscore.Internal.Correction.Weighted>
   9.000000E+99

> <Gold.Protein.RotatedTorsions>
[ 6907 6896 6895 6894 ] final  118.97 input  -60.11 | X-H torsion
[ 7974 7965 7964 7962 ] final  179.27 input  175.53 | X-H torsion
[ 8008 7997 7996 7995 ] final -116.50 input   59.86 | X-H torsion
[ 10167 10162 10161 10158 ] final -163.90 input  -65.29 | X-H torsion
[ 10718 10713 10712 10709 ] final   18.19 input   66.30 | X-H torsion
[ 10763 10752 10751 10750 ] final -128.84 input  -60.55 | X-H torsion
[ 11005 11000 10999 10996 ] final   45.65 input  -57.11 | X-H torsion

> <Gold.Protein.ActiveResidues>
 VAL166  LYS551  ARG553  GLY616  TRP617  ASP618  TYR619  PRO620  LYS621  CYS622 
 ASP623  PHE694  ASN695  SER759  ASP760  ASP761  ALA762  ILE779  LEU786  VAL792 
 PHE793  MET794  SER795  GLU796  ALA797  LYS798  CYS799  TRP800  GLU811  SER814 

> <Gold.Protein.RotatedAtoms>
  152.4506  133.7621  159.6752 H   0  0  0  0  0  0  0  0  0  0  0  0  # atno 6907 bound_to 6896
  150.8416  133.7916  159.3065 H   0  0  0  0  0  0  0  0  0  0  0  0  # atno 6908 bound_to 6896
  151.5539  135.1069  160.0008 H   0  0  0  0  0  0  0  0  0  0  0  0  # atno 6909 bound_to 6896
  144.7147  140.0523  143.6435 H   0  0  0  0  0  0  0  0  0  0  0  0  # atno 7974 bound_to 7965
  155.0688  140.0393  157.2601 H   0  0  0  0  0  0  0  0  0  0  0  0  # atno 8008 bound_to 7997
  154.6999  140.2671  155.6705 H   0  0  0  0  0  0  0  0  0  0  0  0  # atno 8009 bound_to 7997
  156.2757  140.2742  156.1606 H   0  0  0  0  0  0  0  0  0  0  0  0  # atno 8010 bound_to 7997
  139.6288  144.0479  152.1998 H   0  0  0  0  0  0  0  0  0  0  0  0  # atno 10167 bound_to 10162
  157.0928  130.6435  149.5853 H   0  0  0  0  0  0  0  0  0  0  0  0  # atno 10718 bound_to 10713
  154.8757  135.3915  154.3822 H   0  0  0  0  0  0  0  0  0  0  0  0  # atno 10763 bound_to 10752
  153.4568  135.7029  153.6080 H   0  0  0  0  0  0  0  0  0  0  0  0  # atno 10764 bound_to 10752
  153.4596  135.3815  155.2299 H   0  0  0  0  0  0  0  0  0  0  0  0  # atno 10765 bound_to 10752
  140.1440  134.4547  155.8429 H   0  0  0  0  0  0  0  0  0  0  0  0  # atno 11005 bound_to 11000
  145.9933  139.3032  143.0971 LP  0  0  0  0  0  0  0  0  0  0  0  0  # atno 17320 bound_to 7965
  145.8877  140.9323  143.0568 LP  0  0  0  0  0  0  0  0  0  0  0  0  # atno 17321 bound_to 7965
  140.0140  144.6203  150.7623 LP  0  0  0  0  0  0  0  0  0  0  0  0  # atno 17342 bound_to 10162
  140.7427  143.2836  151.3528 LP  0  0  0  0  0  0  0  0  0  0  0  0  # atno 17343 bound_to 10162
  155.9893  130.4941  150.7210 LP  0  0  0  0  0  0  0  0  0  0  0  0  # atno 17370 bound_to 10713
  157.4707  131.0893  151.0646 LP  0  0  0  0  0  0  0  0  0  0  0  0  # atno 17371 bound_to 10713
  141.2190  133.6845  156.7299 LP  0  0  0  0  0  0  0  0  0  0  0  0  # atno 17394 bound_to 11000
  140.2687  134.8409  157.3827 LP  0  0  0  0  0  0  0  0  0  0  0  0  # atno 17395 bound_to 11000

$$$$
