AV-unprocessed.smi:1859|AV-procd|sdf|7545|dock4
  -GOLD-   22720 9263D 1   1.00000     0.00000
 Structure written by MMmdl.
 46 48  0  0  0  0  0  0  0  0  2 V2000
  149.0889  138.7924  155.8851 O   0  0  0  0  0  0  0  0  0  0  0  0
  148.8462  138.8330  157.0918 C   0  0  0  0  0  0  0  0  0  0  0  0
  148.6877  139.9812  157.7689 N   0  0  0  0  0  0  0  0  0  0  0  0
  148.7646  141.3133  157.1804 C   0  0  0  0  0  0  0  0  0  0  0  0
  150.1836  141.6363  156.6813 C   0  0  0  0  0  0  0  0  0  0  0  0
  150.9641  142.4723  157.6762 C   0  0  0  0  0  0  0  0  0  0  0  0
  151.8614  141.8923  158.5991 C   0  0  0  0  0  0  0  0  0  0  0  0
  152.5645  142.7258  159.4936 C   0  0  0  0  0  0  0  0  0  0  0  0
  152.3565  144.1199  159.4460 C   0  0  0  0  0  0  0  0  0  0  0  0
  151.4509  144.6461  158.5020 C   0  0  0  0  0  0  0  0  0  0  0  0
  150.7969  143.8147  157.6611 N   0  3  0  0  0  0  0  0  0  0  0  0
  148.7077  137.5349  157.8975 C   0  0  2  0  0  0  0  0  0  0  0  0
  148.8801  136.2949  156.9887 C   0  0  0  0  0  0  0  0  0  0  0  0
  148.6040  134.9842  157.7508 C   0  0  0  0  0  0  0  0  0  0  0  0
  147.2549  135.0545  158.4877 C   0  0  0  0  0  0  0  0  0  0  0  0
  147.2684  136.2200  159.3835 N   0  0  0  0  0  0  0  0  0  0  0  0
  147.3079  136.1858  160.7392 C   0  0  0  0  0  0  0  0  0  0  0  0
  147.2978  137.2118  161.4210 O   0  0  0  0  0  0  0  0  0  0  0  0
  147.3894  134.8374  161.3879 C   0  0  0  0  0  0  0  0  0  0  0  0
  146.1645  134.3665  162.1434 C   0  0  0  0  0  0  0  0  0  0  0  0
  147.4011  134.7660  162.9046 C   0  0  0  0  0  0  0  0  0  0  0  0
  147.3435  137.4744  158.6230 C   0  0  0  0  0  0  0  0  0  0  0  0
  148.4879  139.9257  158.7574 H   0  0  0  0  0  0  0  0  0  0  0  0
  148.0452  141.3956  156.3639 H   0  0  0  0  0  0  0  0  0  0  0  0
  148.4600  142.0373  157.9363 H   0  0  0  0  0  0  0  0  0  0  0  0
  150.7306  140.7130  156.4846 H   0  0  0  0  0  0  0  0  0  0  0  0
  150.1407  142.1744  155.7335 H   0  0  0  0  0  0  0  0  0  0  0  0
  152.0122  140.8225  158.6208 H   0  0  0  0  0  0  0  0  0  0  0  0
  153.2552  142.3005  160.2071 H   0  0  0  0  0  0  0  0  0  0  0  0
  152.8848  144.7756  160.1227 H   0  0  0  0  0  0  0  0  0  0  0  0
  151.2313  145.6983  158.3953 H   0  0  0  0  0  0  0  0  0  0  0  0
  149.4936  137.5139  158.6551 H   0  0  0  0  0  0  0  0  0  0  0  0
  148.1938  136.3581  156.1426 H   0  0  0  0  0  0  0  0  0  0  0  0
  149.8855  136.2712  156.5668 H   0  0  0  0  0  0  0  0  0  0  0  0
  148.6111  134.1419  157.0584 H   0  0  0  0  0  0  0  0  0  0  0  0
  149.4035  134.8020  158.4700 H   0  0  0  0  0  0  0  0  0  0  0  0
  146.4462  135.1706  157.7647 H   0  0  0  0  0  0  0  0  0  0  0  0
  147.0482  134.1117  158.9919 H   0  0  0  0  0  0  0  0  0  0  0  0
  147.9916  134.0869  160.8790 H   0  0  0  0  0  0  0  0  0  0  0  0
  145.3062  135.0342  162.1973 H   0  0  0  0  0  0  0  0  0  0  0  0
  145.9218  133.3081  162.0777 H   0  0  0  0  0  0  0  0  0  0  0  0
  147.9982  133.9768  163.3564 H   0  0  0  0  0  0  0  0  0  0  0  0
  147.3499  135.6874  163.4816 H   0  0  0  0  0  0  0  0  0  0  0  0
  147.2137  138.3566  159.2521 H   0  0  0  0  0  0  0  0  0  0  0  0
  146.5219  137.5041  157.9048 H   0  0  0  0  0  0  0  0  0  0  0  0
  150.1464  144.2176  156.9861 H   0  0  0  0  0  0  0  0  0  0  0  0
  1  2  2  0  0  0  0
  2  3  1  0  0  0  0
  2 12  1  0  0  0  0
  3  4  1  0  0  0  0
  3 23  1  0  0  0  0
  4  5  1  0  0  0  0
  4 24  1  0  0  0  0
  4 25  1  0  0  0  0
  5  6  1  0  0  0  0
  5 26  1  0  0  0  0
  5 27  1  0  0  0  0
  6 11  1  0  0  0  0
  6  7  2  0  0  0  0
  7  8  1  0  0  0  0
  7 28  1  0  0  0  0
  8  9  2  0  0  0  0
  8 29  1  0  0  0  0
  9 10  1  0  0  0  0
  9 30  1  0  0  0  0
 10 11  2  0  0  0  0
 10 31  1  0  0  0  0
 11 46  1  0  0  0  0
 12 22  1  0  0  0  0
 12 13  1  0  0  0  0
 12 32  1  0  0  0  0
 13 14  1  0  0  0  0
 13 33  1  0  0  0  0
 13 34  1  0  0  0  0
 14 15  1  0  0  0  0
 14 35  1  0  0  0  0
 14 36  1  0  0  0  0
 15 16  1  0  0  0  0
 15 37  1  0  0  0  0
 15 38  1  0  0  0  0
 16 17  1  0  0  0  0
 16 22  1  0  0  0  0
 17 18  2  0  0  0  0
 17 19  1  0  0  0  0
 19 21  1  0  0  0  0
 19 20  1  0  0  0  0
 19 39  1  0  0  0  0
 20 21  1  0  0  0  0
 20 40  1  0  0  0  0
 20 41  1  0  0  0  0
 21 42  1  0  0  0  0
 21 43  1  0  0  0  0
 22 44  1  0  0  0  0
 22 45  1  0  0  0  0
M  CHG  1  11   1
M  END
> <s_m_source_file>
AV-unprocessed.smi

> <i_m_source_file_index>
1859

> <i_lp_mmshare_version>
43012

> <i_f3d_flags>
0

> <s_epik_input>
W0NIMl0xW0NIMl1bQ0hdMUMoPU8pTihbQ0gyXTIpW0NIMl1bQ0gyXVtDSDJdW0NASF0yQyg9TylbTkhdW0NIMl1bQ0gyXWMzW2NIXVtjSF1bY0hdW2NIXW4z

> <s_epik_cmdline>
J2VwaWtfcHl0aG9uJywgJy1waCcsICc3LjAnLCAnLXRuJywgJzgnLCAnLW1hJywgJzIwMCcsICctbWV0YWxfYmluZGluZycsICctaW1hZScsICc8aW5maWxlLm1hZT4nLCAnLW9tYWUnLCAnPG91dGZpbGUubWFlPic=

> <r_epik_Ionization_Penalty>
1.84754

> <r_epik_Ionization_Penalty_Charging>
1.84754

> <r_epik_Ionization_Penalty_Neutral>
7.35743e-08

> <r_epik_State_Penalty>
1.96477

> <r_epik_Charging_Adjusted_Penalty>
3.81231

> <i_epik_Tot_Q>
1

> <i_epik_Tot_abs_Q>
1

> <r_epik_Metal_State_Penalty>
1.99062

> <b_epik_Metal_Only>
0

> <s_lp_Force_Field>
OPLS_2005

> <r_lp_Energy>
35.3834

> <b_lp_Chiralities_Consistent>
1

> <s_lp_Variant>
AV-unprocessed.smi:1859-3

> <Gold.Version>
5.8.1

> <Gold.Id.Protein>
6NUR|6NUR_protein|mol2

> <Gold.PLP.Fitness>
49.3824

> <Gold.PLP.PLP>
-39.3510

> <Gold.PLP.part.hbond>
-3.0000

> <Gold.PLP.part.metal>
0.0000

> <Gold.PLP.part.buried>
-5.1645

> <Gold.PLP.part.nonpolar>
-31.3768

> <Gold.PLP.part.repulsive>
0.1333

> <Gold.PLP.ligand.clash>
0.0000

> <Gold.PLP.ligand.torsion>
0.7563

> <Gold.PLP.Chemscore.Hbond>
3.8080

> <Gold.PLP.Chemscore.CHOScore>
0.0000

> <Gold.PLP.Chemscore.Metal>
0.0000

> <Gold.Chemscore.Hbonds>
donor molecule, donor type, donor heavy atom, donor atom, acceptor molecule, acceptor atom, score
      L1  H    11    46       P1  8028  2.00
      P1  H  6931  6943       L1    18  0.77
      P1  H  6934  6947       L1    18  0.98

> <Gold.PLP.Chemscore.Internal.Correction>
0.1200

> <Gold.Rescore>
     Score         DG    S(hbond)    S(metal)    S(lipo)     H(rot)  DE(clash)    DE(int)     intcor
     21.66     -22.30       2.73        0.00     102.95       1.70       0.04       0.61       ----

> <Gold.Chemscore.Fitness>
21.6556

> <Gold.Chemscore.DG>
-22.3032

> <Gold.Chemscore.ZeroCoef>
-5.4800

> <Gold.Chemscore.Hbond>
2.7319

> <Gold.Chemscore.Metal>
0.0000

> <Gold.Chemscore.Lipo>
102.9542

> <Gold.Chemscore.Internal_Hbond>
0.0000

> <Gold.Chemscore.DEClash>
0.0423

> <Gold.Chemscore.DEInternal>
0.6054

> <Gold.Chemscore.Rot>
1.6980

> <Gold.Chemscore.Internal.Correction>
   9.000000E+99

> <Gold.Chemscore.Hbonds>
donor molecule, donor type, donor heavy atom, donor atom, acceptor molecule, acceptor atom, score
      L1  H    11    46       P1  8028  0.88
      P1  H  6931  6943       L1    18  0.72
      P1  H  6934  6947       L1    18  0.92

> <Gold.Chemscore.Hbond.Weighted>
-9.1245

> <Gold.Chemscore.Metal.Weighted>
-0.0000

> <Gold.Chemscore.Lipo.Weighted>
-12.0456

> <Gold.Chemscore.Internal_Hbond.Weighted>
0.0000

> <Gold.Chemscore.DEClash.Weighted>
0.0423

> <Gold.Chemscore.DEInternal.Weighted>
0.6054

> <Gold.Chemscore.Rot.Weighted>
4.3469

> <Gold.Chemscore.Internal.Correction.Weighted>
   9.000000E+99

> <Gold.Protein.RotatedTorsions>
[ 6907 6896 6895 6894 ] final  158.91 input  -60.11 | X-H torsion
[ 7974 7965 7964 7962 ] final  133.53 input  175.53 | X-H torsion
[ 8008 7997 7996 7995 ] final   80.91 input   59.86 | X-H torsion
[ 10167 10162 10161 10158 ] final  -56.44 input  -65.29 | X-H torsion
[ 10718 10713 10712 10709 ] final  126.89 input   66.30 | X-H torsion
[ 10763 10752 10751 10750 ] final  -47.26 input  -60.55 | X-H torsion
[ 11005 11000 10999 10996 ] final  -52.04 input  -57.11 | X-H torsion

> <Gold.Protein.ActiveResidues>
 VAL166  LYS551  ARG553  GLY616  TRP617  ASP618  TYR619  PRO620  LYS621  CYS622 
 ASP623  PHE694  ASN695  SER759  ASP760  ASP761  ALA762  ILE779  LEU786  VAL792 
 PHE793  MET794  SER795  GLU796  ALA797  LYS798  CYS799  TRP800  GLU811  SER814 

> <Gold.Protein.RotatedAtoms>
  151.9934  133.3799  159.4152 H   0  0  0  0  0  0  0  0  0  0  0  0  # atno 6907 bound_to 6896
  150.6919  134.3912  159.5086 H   0  0  0  0  0  0  0  0  0  0  0  0  # atno 6908 bound_to 6896
  152.1649  134.8882  160.0589 H   0  0  0  0  0  0  0  0  0  0  0  0  # atno 6909 bound_to 6896
  144.9856  139.4459  143.5364 H   0  0  0  0  0  0  0  0  0  0  0  0  # atno 7974 bound_to 7965
  155.8900  140.3439  155.5949 H   0  0  0  0  0  0  0  0  0  0  0  0  # atno 8008 bound_to 7997
  155.7622  140.0834  157.2168 H   0  0  0  0  0  0  0  0  0  0  0  0  # atno 8009 bound_to 7997
  154.4032  140.1534  156.2833 H   0  0  0  0  0  0  0  0  0  0  0  0  # atno 8010 bound_to 7997
  140.6317  143.2462  151.5224 H   0  0  0  0  0  0  0  0  0  0  0  0  # atno 10167 bound_to 10162
  157.5380  131.1097  150.8904 H   0  0  0  0  0  0  0  0  0  0  0  0  # atno 10718 bound_to 10713
  154.0585  135.6621  153.4809 H   0  0  0  0  0  0  0  0  0  0  0  0  # atno 10763 bound_to 10752
  153.0436  135.5129  154.7682 H   0  0  0  0  0  0  0  0  0  0  0  0  # atno 10764 bound_to 10752
  154.6711  135.3029  154.9708 H   0  0  0  0  0  0  0  0  0  0  0  0  # atno 10765 bound_to 10752
  141.0903  133.6634  156.3966 H   0  0  0  0  0  0  0  0  0  0  0  0  # atno 11005 bound_to 11000
  146.3419  139.9156  142.8774 LP  0  0  0  0  0  0  0  0  0  0  0  0  # atno 17320 bound_to 7965
  145.2358  140.9990  143.3964 LP  0  0  0  0  0  0  0  0  0  0  0  0  # atno 17321 bound_to 7965
  139.5531  144.2346  152.1564 LP  0  0  0  0  0  0  0  0  0  0  0  0  # atno 17342 bound_to 10162
  140.1591  144.5043  150.6643 LP  0  0  0  0  0  0  0  0  0  0  0  0  # atno 17343 bound_to 10162
  156.9466  130.5404  149.5281 LP  0  0  0  0  0  0  0  0  0  0  0  0  # atno 17370 bound_to 10713
  156.0474  130.5548  150.8911 LP  0  0  0  0  0  0  0  0  0  0  0  0  # atno 17371 bound_to 10713
  140.5267  134.6252  157.5336 LP  0  0  0  0  0  0  0  0  0  0  0  0  # atno 17394 bound_to 11000
  139.9728  134.7265  156.0008 LP  0  0  0  0  0  0  0  0  0  0  0  0  # atno 17395 bound_to 11000

$$$$
