AV-unprocessed.smi:1897|AV-procd|sdf|7686|dock8
  -GOLD-   22720 9423D 1   1.00000     0.00000
 Structure written by MMmdl.
 39 41  0  0  0  0  0  0  0  0  2 V2000
  153.3452  137.5077  157.2324 C   0  0  0  0  0  0  0  0  0  0  0  0
  152.2668  136.6567  156.6540 C   0  0  0  0  0  0  0  0  0  0  0  0
  151.8658  135.5136  157.2226 N   0  0  0  0  0  0  0  0  0  0  0  0
  150.8514  134.8972  156.5047 N   0  0  0  0  0  0  0  0  0  0  0  0
  150.5084  135.5971  155.4134 C   0  0  0  0  0  0  0  0  0  0  0  0
  149.5034  135.2053  154.4807 N   0  0  0  0  0  0  0  0  0  0  0  0
  148.5823  134.2184  154.5128 C   0  0  0  0  0  0  0  0  0  0  0  0
  148.5045  133.4557  155.4742 O   0  0  0  0  0  0  0  0  0  0  0  0
  147.7708  134.1235  153.4469 N   0  0  0  0  0  0  0  0  0  0  0  0
  146.7013  133.1457  153.2757 C   0  0  2  0  0  0  0  0  0  0  0  0
  147.2037  131.6930  153.3538 C   0  0  0  0  0  0  0  0  0  0  0  0
  146.3894  130.9212  152.2967 C   0  0  0  0  0  0  0  0  0  0  0  0
  145.4251  131.8981  151.7556 N   0  3  2  0  0  0  0  0  0  0  0  0
  144.8976  131.6438  150.3972 C   0  0  0  0  0  0  0  0  0  0  0  0
  143.8497  132.7199  150.0488 C   0  0  0  0  0  0  0  0  0  0  0  0
  144.4096  134.1446  150.2369 C   0  0  0  0  0  0  0  0  0  0  0  0
  145.0286  134.3198  151.6371 C   0  0  0  0  0  0  0  0  0  0  0  0
  146.0694  133.2142  151.8831 C   0  0  1  0  0  0  0  0  0  0  0  0
  151.4181  137.0796  155.1722 S   0  0  0  0  0  0  0  0  0  0  0  0
  154.1395  136.8851  157.6452 H   0  0  0  0  0  0  0  0  0  0  0  0
  152.9400  138.1334  158.0277 H   0  0  0  0  0  0  0  0  0  0  0  0
  153.7731  138.1514  156.4635 H   0  0  0  0  0  0  0  0  0  0  0  0
  149.4944  135.7518  153.6315 H   0  0  0  0  0  0  0  0  0  0  0  0
  147.9042  134.7889  152.6983 H   0  0  0  0  0  0  0  0  0  0  0  0
  145.9284  133.2831  154.0351 H   0  0  0  0  0  0  0  0  0  0  0  0
  148.2674  131.6258  153.1192 H   0  0  0  0  0  0  0  0  0  0  0  0
  147.0632  131.2822  154.3543 H   0  0  0  0  0  0  0  0  0  0  0  0
  147.0493  130.5654  151.5039 H   0  0  0  0  0  0  0  0  0  0  0  0
  145.8712  130.0597  152.7185 H   0  0  0  0  0  0  0  0  0  0  0  0
  145.7134  131.6562  149.6727 H   0  0  0  0  0  0  0  0  0  0  0  0
  144.4456  130.6522  150.3594 H   0  0  0  0  0  0  0  0  0  0  0  0
  143.5034  132.5869  149.0234 H   0  0  0  0  0  0  0  0  0  0  0  0
  142.9748  132.5909  150.6877 H   0  0  0  0  0  0  0  0  0  0  0  0
  145.1694  134.3377  149.4784 H   0  0  0  0  0  0  0  0  0  0  0  0
  143.6217  134.8819  150.0793 H   0  0  0  0  0  0  0  0  0  0  0  0
  145.4918  135.3034  151.7162 H   0  0  0  0  0  0  0  0  0  0  0  0
  144.2477  134.2781  152.3975 H   0  0  0  0  0  0  0  0  0  0  0  0
  146.8613  133.2877  151.1335 H   0  0  0  0  0  0  0  0  0  0  0  0
  144.6377  131.9048  152.3883 H   0  0  0  0  0  0  0  0  0  0  0  0
  1  2  1  0  0  0  0
  1 20  1  0  0  0  0
  1 21  1  0  0  0  0
  1 22  1  0  0  0  0
  2 19  1  0  0  0  0
  2  3  2  0  0  0  0
  3  4  1  0  0  0  0
  4  5  2  0  0  0  0
  5  6  1  0  0  0  0
  5 19  1  0  0  0  0
  6  7  1  0  0  0  0
  6 23  1  0  0  0  0
  7  8  2  0  0  0  0
  7  9  1  0  0  0  0
  9 10  1  0  0  0  0
  9 24  1  0  0  0  0
 10 18  1  0  0  0  0
 10 11  1  0  0  0  0
 10 25  1  0  0  0  0
 11 12  1  0  0  0  0
 11 26  1  0  0  0  0
 11 27  1  0  0  0  0
 12 13  1  0  0  0  0
 12 28  1  0  0  0  0
 12 29  1  0  0  0  0
 13 18  1  0  0  0  0
 13 14  1  0  0  0  0
 13 39  1  0  0  0  0
 14 15  1  0  0  0  0
 14 30  1  0  0  0  0
 14 31  1  0  0  0  0
 15 16  1  0  0  0  0
 15 32  1  0  0  0  0
 15 33  1  0  0  0  0
 16 17  1  0  0  0  0
 16 34  1  0  0  0  0
 16 35  1  0  0  0  0
 17 18  1  0  0  0  0
 17 36  1  0  0  0  0
 17 37  1  0  0  0  0
 18 38  1  0  0  0  0
M  CHG  1  13   1
M  END
> <s_m_source_file>
AV-unprocessed.smi

> <i_m_source_file_index>
1897

> <i_lp_mmshare_version>
43012

> <i_f3d_flags>
0

> <s_epik_input>
W0NIM11jMW5uYyhzMSlbTkhdQyg9TylbTkhdW0NASF0oW0NIMl1bQ0gyXTIpW0NAQEhdKE4yMylbQ0gyXVtDSDJdW0NIMl1bQ0gyXTM=

> <s_epik_cmdline>
J2VwaWtfcHl0aG9uJywgJy1waCcsICc3LjAnLCAnLXRuJywgJzgnLCAnLW1hJywgJzIwMCcsICctbWV0YWxfYmluZGluZycsICctaW1hZScsICc8aW5maWxlLm1hZT4nLCAnLW9tYWUnLCAnPG91dGZpbGUubWFlPic=

> <r_lp_tautomer_probability>
1

> <r_epik_Ionization_Penalty>
0.00228891

> <r_epik_Ionization_Penalty_Charging>
0.00107044

> <r_epik_Ionization_Penalty_Neutral>
0.00121847

> <r_epik_State_Penalty>
-0

> <r_epik_Charging_Adjusted_Penalty>
0.00107044

> <i_epik_Tot_Q>
1

> <i_epik_Tot_abs_Q>
1

> <r_epik_Metal_State_Penalty>
0.304057

> <b_epik_Metal_Only>
0

> <s_lp_Force_Field>
OPLS_2005

> <r_lp_Energy>
35.6377

> <b_lp_Chiralities_Consistent>
1

> <s_lp_Variant>
AV-unprocessed.smi:1897-3

> <Gold.Version>
5.8.1

> <Gold.Id.Protein>
6NUR|6NUR_protein|mol2

> <Gold.PLP.Fitness>
33.5570

> <Gold.PLP.PLP>
-27.6509

> <Gold.PLP.part.hbond>
-2.9754

> <Gold.PLP.part.metal>
0.0000

> <Gold.PLP.part.buried>
-4.9771

> <Gold.PLP.part.nonpolar>
-20.6133

> <Gold.PLP.part.repulsive>
0.0629

> <Gold.PLP.ligand.clash>
0.0000

> <Gold.PLP.ligand.torsion>
0.0398

> <Gold.PLP.Chemscore.Hbond>
1.9920

> <Gold.PLP.Chemscore.CHOScore>
0.0000

> <Gold.PLP.Chemscore.Metal>
0.0000

> <Gold.Chemscore.Hbonds>
donor molecule, donor type, donor heavy atom, donor atom, acceptor molecule, acceptor atom, score
      L1  H     6    23       P1  7948  1.00
      L1  H     9    24       P1  7948  1.00

> <Gold.PLP.Chemscore.Internal.Correction>
0.0097

> <Gold.Rescore>
     Score         DG    S(hbond)    S(metal)    S(lipo)     H(rot)  DE(clash)    DE(int)     intcor
     15.74     -16.97       1.76        0.00      69.83       1.00       0.01       1.22       ----

> <Gold.Chemscore.Fitness>
15.7383

> <Gold.Chemscore.DG>
-16.9717

> <Gold.Chemscore.ZeroCoef>
-5.4800

> <Gold.Chemscore.Hbond>
1.7608

> <Gold.Chemscore.Metal>
0.0000

> <Gold.Chemscore.Lipo>
69.8345

> <Gold.Chemscore.Internal_Hbond>
0.0000

> <Gold.Chemscore.DEClash>
0.0126

> <Gold.Chemscore.DEInternal>
1.2208

> <Gold.Chemscore.Rot>
1.0000

> <Gold.Chemscore.Internal.Correction>
   9.000000E+99

> <Gold.Chemscore.Hbonds>
donor molecule, donor type, donor heavy atom, donor atom, acceptor molecule, acceptor atom, score
      L1  H     6    23       P1  7948  0.34
      L1  H     9    24       P1  7948  0.80

> <Gold.Chemscore.Hbond.Weighted>
-5.8811

> <Gold.Chemscore.Metal.Weighted>
-0.0000

> <Gold.Chemscore.Lipo.Weighted>
-8.1706

> <Gold.Chemscore.Internal_Hbond.Weighted>
0.0000

> <Gold.Chemscore.DEClash.Weighted>
0.0126

> <Gold.Chemscore.DEInternal.Weighted>
1.2208

> <Gold.Chemscore.Rot.Weighted>
2.5600

> <Gold.Chemscore.Internal.Correction.Weighted>
   9.000000E+99

> <Gold.Protein.RotatedTorsions>
[ 6907 6896 6895 6894 ] final  -87.29 input  -60.11 | X-H torsion
[ 7974 7965 7964 7962 ] final  121.54 input  175.53 | X-H torsion
[ 8008 7997 7996 7995 ] final  -46.07 input   59.86 | X-H torsion
[ 10167 10162 10161 10158 ] final  -59.22 input  -65.29 | X-H torsion
[ 10718 10713 10712 10709 ] final   71.16 input   66.30 | X-H torsion
[ 10763 10752 10751 10750 ] final  111.80 input  -60.55 | X-H torsion
[ 11005 11000 10999 10996 ] final  -22.69 input  -57.11 | X-H torsion

> <Gold.Protein.ActiveResidues>
 VAL166  LYS551  ARG553  GLY616  TRP617  ASP618  TYR619  PRO620  LYS621  CYS622 
 ASP623  PHE694  ASN695  SER759  ASP760  ASP761  ALA762  ILE779  LEU786  VAL792 
 PHE793  MET794  SER795  GLU796  ALA797  LYS798  CYS799  TRP800  GLU811  SER814 

> <Gold.Protein.RotatedAtoms>
  150.6866  134.2918  159.4669 H   0  0  0  0  0  0  0  0  0  0  0  0  # atno 6907 bound_to 6896
  152.0823  134.9460  160.0582 H   0  0  0  0  0  0  0  0  0  0  0  0  # atno 6908 bound_to 6896
  152.0809  133.4117  159.4537 H   0  0  0  0  0  0  0  0  0  0  0  0  # atno 6909 bound_to 6896
  145.1181  139.3407  143.4728 H   0  0  0  0  0  0  0  0  0  0  0  0  # atno 7974 bound_to 7965
  154.4005  140.1380  156.3952 H   0  0  0  0  0  0  0  0  0  0  0  0  # atno 8008 bound_to 7997
  155.7877  140.3479  155.5311 H   0  0  0  0  0  0  0  0  0  0  0  0  # atno 8009 bound_to 7997
  155.8611  140.0956  157.1603 H   0  0  0  0  0  0  0  0  0  0  0  0  # atno 8010 bound_to 7997
  140.6149  143.2399  151.5622 H   0  0  0  0  0  0  0  0  0  0  0  0  # atno 10167 bound_to 10162
  157.6437  130.9514  150.0751 H   0  0  0  0  0  0  0  0  0  0  0  0  # atno 10718 bound_to 10713
  153.4686  135.3706  155.2378 H   0  0  0  0  0  0  0  0  0  0  0  0  # atno 10763 bound_to 10752
  154.8757  135.3926  154.3839 H   0  0  0  0  0  0  0  0  0  0  0  0  # atno 10764 bound_to 10752
  153.4424  135.7084  153.6225 H   0  0  0  0  0  0  0  0  0  0  0  0  # atno 10765 bound_to 10752
  140.8681  133.7740  156.0153 H   0  0  0  0  0  0  0  0  0  0  0  0  # atno 11005 bound_to 11000
  146.3522  140.1129  142.8603 LP  0  0  0  0  0  0  0  0  0  0  0  0  # atno 17320 bound_to 7965
  145.0771  140.9195  143.4847 LP  0  0  0  0  0  0  0  0  0  0  0  0  # atno 17321 bound_to 7965
  139.5390  144.2700  152.1312 LP  0  0  0  0  0  0  0  0  0  0  0  0  # atno 17342 bound_to 10162
  140.1907  144.4755  150.6480 LP  0  0  0  0  0  0  0  0  0  0  0  0  # atno 17343 bound_to 10162
  156.1744  130.3647  149.9121 LP  0  0  0  0  0  0  0  0  0  0  0  0  # atno 17370 bound_to 10713
  156.7089  130.8962  151.3607 LP  0  0  0  0  0  0  0  0  0  0  0  0  # atno 17371 bound_to 10713
  140.8605  134.2846  157.5236 LP  0  0  0  0  0  0  0  0  0  0  0  0  # atno 17394 bound_to 11000
  139.8710  134.9516  156.4089 LP  0  0  0  0  0  0  0  0  0  0  0  0  # atno 17395 bound_to 11000

$$$$
