AV-unprocessed.smi:269|AV-procd|sdf|2044|dock4
  -GOLD-   2262021263D 1   1.00000     0.00000
 Structure written by MMmdl.
 61 64  0  0  0  0  0  0  0  0  3 V2000
  144.7397  132.2069  149.1026 C   0  0  0  0  0  0  0  0  0  0  0  0
  145.9527  131.6607  149.8625 C   0  0  0  0  0  0  0  0  0  0  0  0
  146.5442  132.7205  150.6734 N   0  5  0  0  0  0  0  0  0  0  0  0
  145.8254  133.7355  151.2237 C   0  0  0  0  0  0  0  0  0  0  0  0
  146.0159  134.9562  151.2127 O   0  0  0  0  0  0  0  0  0  0  0  0
  144.5750  133.2056  151.9344 C   0  0  0  0  0  0  0  0  0  0  0  0
  144.6747  133.4513  153.3944 N   0  3  0  0  0  0  0  0  0  0  0  0
  144.6489  134.8986  153.7267 C   0  0  0  0  0  0  0  0  0  0  0  0
  144.6620  135.1214  155.2497 C   0  0  0  0  0  0  0  0  0  0  0  0
  145.7901  134.4287  155.8668 N   0  0  0  0  0  0  0  0  0  0  0  0
  146.9477  135.1345  155.9782 C   0  0  0  0  0  0  0  0  0  0  0  0
  148.1296  134.5495  155.6464 N   0  0  0  0  0  0  0  0  0  0  0  0
  149.2745  135.2306  155.7401 C   0  0  0  0  0  0  0  0  0  0  0  0
  149.4648  136.4870  156.1431 N   0  0  0  0  0  0  0  0  0  0  0  0
  148.2886  137.0787  156.4959 C   0  0  0  0  0  0  0  0  0  0  0  0
  146.9965  136.4821  156.4396 C   0  0  0  0  0  0  0  0  0  0  0  0
  146.0414  137.3915  156.8780 N   0  0  0  0  0  0  0  0  0  0  0  0
  146.7265  138.4648  157.1628 C   0  0  0  0  0  0  0  0  0  0  0  0
  148.0879  138.3600  156.9823 N   0  0  0  0  0  0  0  0  0  0  0  0
  149.0844  139.3965  157.2218 C   0  0  0  0  0  0  0  0  0  0  0  0
  149.5439  140.1829  155.9519 C   0  0  0  0  0  0  0  0  0  0  0  0
  148.4604  141.2002  155.5048 C   0  0  0  0  0  0  0  0  0  0  0  0
  148.8495  141.9277  154.3565 O   0  0  0  0  0  0  0  0  0  0  0  0
  150.8535  140.9721  156.2054 C   0  0  0  0  0  0  0  0  0  0  0  0
  152.0841  140.0581  156.3505 C   0  0  0  0  0  0  0  0  0  0  0  0
  152.2222  139.2466  155.1920 O   0  0  0  0  0  0  0  0  0  0  0  0
  151.1143  138.3781  154.9955 C   0  0  0  0  0  0  0  0  0  0  0  0
  149.8298  139.2011  154.7871 C   0  0  0  0  0  0  0  0  0  0  0  0
  145.8512  133.0009  155.5534 C   0  0  0  0  0  0  0  0  0  0  0  0
  145.8246  132.7547  154.0321 C   0  0  0  0  0  0  0  0  0  0  0  0
  144.2884  131.4284  148.4872 H   0  0  0  0  0  0  0  0  0  0  0  0
  145.0209  133.0281  148.4426 H   0  0  0  0  0  0  0  0  0  0  0  0
  143.9738  132.5717  149.7879 H   0  0  0  0  0  0  0  0  0  0  0  0
  145.6328  130.8141  150.4707 H   0  0  0  0  0  0  0  0  0  0  0  0
  146.6679  131.2604  149.1431 H   0  0  0  0  0  0  0  0  0  0  0  0
  143.6483  133.6278  151.5394 H   0  0  0  0  0  0  0  0  0  0  0  0
  144.5323  132.1331  151.7401 H   0  0  0  0  0  0  0  0  0  0  0  0
  145.5090  135.3902  153.2690 H   0  0  0  0  0  0  0  0  0  0  0  0
  143.7556  135.3590  153.3031 H   0  0  0  0  0  0  0  0  0  0  0  0
  144.6696  136.1895  155.4610 H   0  0  0  0  0  0  0  0  0  0  0  0
  143.7419  134.7318  155.6868 H   0  0  0  0  0  0  0  0  0  0  0  0
  150.1653  134.6919  155.4518 H   0  0  0  0  0  0  0  0  0  0  0  0
  146.2520  139.3655  157.5236 H   0  0  0  0  0  0  0  0  0  0  0  0
  148.6815  140.0715  157.9756 H   0  0  0  0  0  0  0  0  0  0  0  0
  149.9437  138.9223  157.6972 H   0  0  0  0  0  0  0  0  0  0  0  0
  147.5117  140.7031  155.3030 H   0  0  0  0  0  0  0  0  0  0  0  0
  148.2593  141.9197  156.2993 H   0  0  0  0  0  0  0  0  0  0  0  0
  148.7246  142.8486  154.5264 H   0  0  0  0  0  0  0  0  0  0  0  0
  151.0395  141.6426  155.3652 H   0  0  0  0  0  0  0  0  0  0  0  0
  150.7595  141.6194  157.0769 H   0  0  0  0  0  0  0  0  0  0  0  0
  152.9836  140.6639  156.4604 H   0  0  0  0  0  0  0  0  0  0  0  0
  152.0218  139.4307  157.2394 H   0  0  0  0  0  0  0  0  0  0  0  0
  151.3076  137.7656  154.1147 H   0  0  0  0  0  0  0  0  0  0  0  0
  151.0194  137.6904  155.8362 H   0  0  0  0  0  0  0  0  0  0  0  0
  148.9851  138.5280  154.6367 H   0  0  0  0  0  0  0  0  0  0  0  0
  149.9368  139.7609  153.8568 H   0  0  0  0  0  0  0  0  0  0  0  0
  146.7281  132.5353  156.0050 H   0  0  0  0  0  0  0  0  0  0  0  0
  144.9874  132.5202  156.0135 H   0  0  0  0  0  0  0  0  0  0  0  0
  145.7708  131.6820  153.8461 H   0  0  0  0  0  0  0  0  0  0  0  0
  146.7512  133.1038  153.5751 H   0  0  0  0  0  0  0  0  0  0  0  0
  143.8373  133.0554  153.7973 H   0  0  0  0  0  0  0  0  0  0  0  0
  1  2  1  0  0  0  0
  1 31  1  0  0  0  0
  1 32  1  0  0  0  0
  1 33  1  0  0  0  0
  2  3  1  0  0  0  0
  2 34  1  0  0  0  0
  2 35  1  0  0  0  0
  3  4  1  0  0  0  0
  4  5  2  0  0  0  0
  4  6  1  0  0  0  0
  6  7  1  0  0  0  0
  6 36  1  0  0  0  0
  6 37  1  0  0  0  0
  7 30  1  0  0  0  0
  7  8  1  0  0  0  0
  7 61  1  0  0  0  0
  8  9  1  0  0  0  0
  8 38  1  0  0  0  0
  8 39  1  0  0  0  0
  9 10  1  0  0  0  0
  9 40  1  0  0  0  0
  9 41  1  0  0  0  0
 10 11  1  0  0  0  0
 10 29  1  0  0  0  0
 11 16  1  0  0  0  0
 11 12  2  0  0  0  0
 12 13  1  0  0  0  0
 13 14  2  0  0  0  0
 13 42  1  0  0  0  0
 14 15  1  0  0  0  0
 15 19  1  0  0  0  0
 15 16  2  0  0  0  0
 16 17  1  0  0  0  0
 17 18  2  0  0  0  0
 18 19  1  0  0  0  0
 18 43  1  0  0  0  0
 19 20  1  0  0  0  0
 20 21  1  0  0  0  0
 20 44  1  0  0  0  0
 20 45  1  0  0  0  0
 21 28  1  0  0  0  0
 21 22  1  0  0  0  0
 21 24  1  0  0  0  0
 22 23  1  0  0  0  0
 22 46  1  0  0  0  0
 22 47  1  0  0  0  0
 23 48  1  0  0  0  0
 24 25  1  0  0  0  0
 24 49  1  0  0  0  0
 24 50  1  0  0  0  0
 25 26  1  0  0  0  0
 25 51  1  0  0  0  0
 25 52  1  0  0  0  0
 26 27  1  0  0  0  0
 27 28  1  0  0  0  0
 27 53  1  0  0  0  0
 27 54  1  0  0  0  0
 28 55  1  0  0  0  0
 28 56  1  0  0  0  0
 29 30  1  0  0  0  0
 29 57  1  0  0  0  0
 29 58  1  0  0  0  0
 30 59  1  0  0  0  0
 30 60  1  0  0  0  0
M  CHG  1   3  -1
M  CHG  1   7   1
M  END
> <s_m_source_file>
AV-unprocessed.smi

> <i_m_source_file_index>
269

> <i_lp_mmshare_version>
43012

> <i_f3d_flags>
0

> <s_epik_input>
W0NIM11bQ0gyXVtOSF1DKD1PKVtDSDJdTjFbQ0gyXVtDSDJdTihbQ0gyXVtDSDJdMSljKG5bY0hdbjIpYyhjMjMpbltjSF1uM1tDSDJdQzQoW0NIMl1bT0hdKVtDSDJdW0NIMl1PW0NIMl1bQ0gyXTQ=

> <s_epik_cmdline>
J2VwaWtfcHl0aG9uJywgJy1waCcsICc3LjAnLCAnLXRuJywgJzgnLCAnLW1hJywgJzIwMCcsICctbWV0YWxfYmluZGluZycsICctaW1hZScsICc8aW5maWxlLm1hZT4nLCAnLW9tYWUnLCAnPG91dGZpbGUubWFlPic=

> <r_lp_tautomer_probability>
1

> <r_epik_Ionization_Penalty>
6.2463

> <r_epik_Ionization_Penalty_Charging>
6.24626

> <r_epik_Ionization_Penalty_Neutral>
4.36947e-05

> <r_epik_State_Penalty>
6.38251

> <r_epik_Charging_Adjusted_Penalty>
12.6288

> <i_epik_Tot_Q>
0

> <i_epik_Tot_abs_Q>
2

> <r_epik_Metal_State_Penalty>
2.3175

> <b_epik_Metal_Only>
1

> <s_lp_Force_Field>
OPLS_2005

> <r_lp_Energy>
38.3131

> <b_lp_Chiralities_Consistent>
1

> <s_lp_Variant>
AV-unprocessed.smi:269-3

> <Gold.Version>
5.8.1

> <Gold.Id.Protein>
6NUR|6NUR_protein|mol2

> <Gold.PLP.Fitness>
44.0139

> <Gold.PLP.PLP>
-34.9048

> <Gold.PLP.part.hbond>
-4.0000

> <Gold.PLP.part.metal>
0.0000

> <Gold.PLP.part.buried>
-6.6193

> <Gold.PLP.part.nonpolar>
-25.0943

> <Gold.PLP.part.repulsive>
0.6445

> <Gold.PLP.ligand.clash>
0.0000

> <Gold.PLP.ligand.torsion>
1.3660

> <Gold.PLP.Chemscore.Hbond>
3.7306

> <Gold.PLP.Chemscore.CHOScore>
0.0000

> <Gold.PLP.Chemscore.Metal>
0.0000

> <Gold.Chemscore.Hbonds>
donor molecule, donor type, donor heavy atom, donor atom, acceptor molecule, acceptor atom, score
      L1  H     7    61       P1 10957  2.00
      L1  H    23    48       P1  8028  0.65
      P1  H  7989  7998       L1    26  0.06
      P1  H  8011  8017       L1    23  0.08

> <Gold.PLP.Chemscore.Internal.Correction>
0.6494

> <Gold.Rescore>
     Score         DG    S(hbond)    S(metal)    S(lipo)     H(rot)  DE(clash)    DE(int)     intcor
     10.06     -13.84       2.41        0.00      74.47       3.28       0.07       3.71       ----

> <Gold.Chemscore.Fitness>
10.0597

> <Gold.Chemscore.DG>
-13.8362

> <Gold.Chemscore.ZeroCoef>
-5.4800

> <Gold.Chemscore.Hbond>
2.4084

> <Gold.Chemscore.Metal>
0.0000

> <Gold.Chemscore.Lipo>
74.4688

> <Gold.Chemscore.Internal_Hbond>
0.0000

> <Gold.Chemscore.DEClash>
0.0664

> <Gold.Chemscore.DEInternal>
3.7100

> <Gold.Chemscore.Rot>
3.2816

> <Gold.Chemscore.Internal.Correction>
   9.000000E+99

> <Gold.Chemscore.Hbonds>
donor molecule, donor type, donor heavy atom, donor atom, acceptor molecule, acceptor atom, score
      L1  H     7    61       P1 10957  0.92
      L1  H    23    48       P1  8028  0.64

> <Gold.Chemscore.Hbond.Weighted>
-8.0442

> <Gold.Chemscore.Metal.Weighted>
-0.0000

> <Gold.Chemscore.Lipo.Weighted>
-8.7128

> <Gold.Chemscore.Internal_Hbond.Weighted>
0.0000

> <Gold.Chemscore.DEClash.Weighted>
0.0664

> <Gold.Chemscore.DEInternal.Weighted>
3.7100

> <Gold.Chemscore.Rot.Weighted>
8.4009

> <Gold.Chemscore.Internal.Correction.Weighted>
   9.000000E+99

> <Gold.Protein.RotatedTorsions>
[ 6907 6896 6895 6894 ] final  -87.17 input  -60.11 | X-H torsion
[ 7974 7965 7964 7962 ] final  -89.83 input  175.53 | X-H torsion
[ 8008 7997 7996 7995 ] final -144.21 input   59.86 | X-H torsion
[ 10167 10162 10161 10158 ] final   14.91 input  -65.29 | X-H torsion
[ 10718 10713 10712 10709 ] final -123.35 input   66.30 | X-H torsion
[ 10763 10752 10751 10750 ] final   81.40 input  -60.55 | X-H torsion
[ 11005 11000 10999 10996 ] final -142.90 input  -57.11 | X-H torsion

> <Gold.Protein.ActiveResidues>
 VAL166  LYS551  ARG553  GLY616  TRP617  ASP618  TYR619  PRO620  LYS621  CYS622 
 ASP623  PHE694  ASN695  SER759  ASP760  ASP761  ALA762  ILE779  LEU786  VAL792 
 PHE793  MET794  SER795  GLU796  ALA797  LYS798  CYS799  TRP800  GLU811  SER814 

> <Gold.Protein.RotatedAtoms>
  150.6866  134.2938  159.4677 H   0  0  0  0  0  0  0  0  0  0  0  0  # atno 6907 bound_to 6896
  152.0840  134.9449  160.0582 H   0  0  0  0  0  0  0  0  0  0  0  0  # atno 6908 bound_to 6896
  152.0791  133.4109  159.4530 H   0  0  0  0  0  0  0  0  0  0  0  0  # atno 6909 bound_to 6896
  145.4346  140.9557  143.2109 H   0  0  0  0  0  0  0  0  0  0  0  0  # atno 7974 bound_to 7965
  155.5232  140.0593  157.2903 H   0  0  0  0  0  0  0  0  0  0  0  0  # atno 8008 bound_to 7997
  154.4510  140.1949  156.0465 H   0  0  0  0  0  0  0  0  0  0  0  0  # atno 8009 bound_to 7997
  156.0704  140.3261  155.7573 H   0  0  0  0  0  0  0  0  0  0  0  0  # atno 8010 bound_to 7997
  140.5903  143.8808  150.6868 H   0  0  0  0  0  0  0  0  0  0  0  0  # atno 10167 bound_to 10162
  156.1494  130.6524  150.9891 H   0  0  0  0  0  0  0  0  0  0  0  0  # atno 10718 bound_to 10713
  153.1114  135.4767  154.9041 H   0  0  0  0  0  0  0  0  0  0  0  0  # atno 10763 bound_to 10752
  154.7484  135.3100  154.8605 H   0  0  0  0  0  0  0  0  0  0  0  0  # atno 10764 bound_to 10752
  153.9193  135.6856  153.4802 H   0  0  0  0  0  0  0  0  0  0  0  0  # atno 10765 bound_to 10752
  140.8179  134.2666  157.4913 H   0  0  0  0  0  0  0  0  0  0  0  0  # atno 11005 bound_to 11000
  144.8161  139.5875  143.7008 LP  0  0  0  0  0  0  0  0  0  0  0  0  # atno 17320 bound_to 7965
  146.2589  139.6365  142.9376 LP  0  0  0  0  0  0  0  0  0  0  0  0  # atno 17321 bound_to 7965
  140.2329  143.3722  152.1550 LP  0  0  0  0  0  0  0  0  0  0  0  0  # atno 17342 bound_to 10162
  139.5223  144.7057  151.5360 LP  0  0  0  0  0  0  0  0  0  0  0  0  # atno 17343 bound_to 10162
  157.6644  131.0874  150.7762 LP  0  0  0  0  0  0  0  0  0  0  0  0  # atno 17370 bound_to 10713
  156.7831  130.4866  149.5397 LP  0  0  0  0  0  0  0  0  0  0  0  0  # atno 17371 bound_to 10713
  139.8710  134.9519  156.4099 LP  0  0  0  0  0  0  0  0  0  0  0  0  # atno 17394 bound_to 11000
  140.9130  133.7698  155.9814 LP  0  0  0  0  0  0  0  0  0  0  0  0  # atno 17395 bound_to 11000

$$$$
