AV-unprocessed.smi:3116|AV-procd|sdf|11873|dock10
  -GOLD-   2272017253D 1   1.00000     0.00000
 Structure written by MMmdl.
 33 33  0  0  0  0  0  0  0  0  1 V2000
  147.1791  142.2366  157.1877 C   0  0  0  0  0  0  0  0  0  0  0  0
  147.9929  142.6585  158.4286 C   0  0  1  0  0  0  0  0  0  0  0  0
  149.1731  143.4498  158.0476 N   0  0  0  0  0  0  0  0  0  0  0  0
  150.4377  142.7258  158.1729 C   0  0  1  0  0  0  0  0  0  0  0  0
  151.3179  143.1629  156.9892 C   0  0  0  0  0  0  0  0  0  0  0  0
  151.0714  143.0407  159.5558 C   0  0  2  0  0  0  0  0  0  0  0  0
  151.4400  144.5270  159.7259 C   0  0  0  0  0  0  0  0  0  0  0  0
  152.2402  142.2054  159.8152 N   0  0  0  0  0  0  0  0  0  0  0  0
  153.4744  142.5947  160.2935 C   0  0  0  0  0  0  0  0  0  0  0  0
  154.2464  141.4733  160.3964 C   0  0  0  0  0  0  0  0  0  0  0  0
  153.3873  140.4301  159.9526 C   0  0  0  0  0  0  0  0  0  0  0  0
  152.1886  140.8696  159.6075 N   0  0  0  0  0  0  0  0  0  0  0  0
  147.1434  143.4491  159.4329 C   0  0  0  0  0  0  0  0  0  0  0  0
  146.7460  144.6658  159.0516 N   0  0  0  0  0  0  0  0  0  0  0  0
  146.8356  142.9768  160.5263 O   0  0  0  0  0  0  0  0  0  0  0  0
  146.2802  141.6880  157.4723 H   0  0  0  0  0  0  0  0  0  0  0  0
  147.7566  141.5830  156.5341 H   0  0  0  0  0  0  0  0  0  0  0  0
  146.8696  143.1001  156.5975 H   0  0  0  0  0  0  0  0  0  0  0  0
  148.3191  141.7575  158.9510 H   0  0  0  0  0  0  0  0  0  0  0  0
  149.0823  143.8280  157.1157 H   0  0  0  0  0  0  0  0  0  0  0  0
  150.2814  141.6484  158.0953 H   0  0  0  0  0  0  0  0  0  0  0  0
  152.2476  142.5957  156.9517 H   0  0  0  0  0  0  0  0  0  0  0  0
  151.5742  144.2213  157.0504 H   0  0  0  0  0  0  0  0  0  0  0  0
  150.8100  142.9984  156.0381 H   0  0  0  0  0  0  0  0  0  0  0  0
  150.3372  142.8020  160.3272 H   0  0  0  0  0  0  0  0  0  0  0  0
  150.5556  145.1633  159.7199 H   0  0  0  0  0  0  0  0  0  0  0  0
  152.1028  144.8694  158.9307 H   0  0  0  0  0  0  0  0  0  0  0  0
  151.9470  144.6967  160.6764 H   0  0  0  0  0  0  0  0  0  0  0  0
  153.6967  143.6265  160.5230 H   0  0  0  0  0  0  0  0  0  0  0  0
  155.2688  141.4081  160.7378 H   0  0  0  0  0  0  0  0  0  0  0  0
  153.5972  139.3737  159.8728 H   0  0  0  0  0  0  0  0  0  0  0  0
  146.1885  145.2288  159.6779 H   0  0  0  0  0  0  0  0  0  0  0  0
  147.0081  145.0179  158.1425 H   0  0  0  0  0  0  0  0  0  0  0  0
  1  2  1  0  0  0  0
  1 16  1  0  0  0  0
  1 17  1  0  0  0  0
  1 18  1  0  0  0  0
  2  3  1  0  0  0  0
  2 13  1  0  0  0  0
  2 19  1  0  0  0  0
  3  4  1  0  0  0  0
  3 20  1  0  0  0  0
  4  5  1  0  0  0  0
  4  6  1  0  0  0  0
  4 21  1  0  0  0  0
  5 22  1  0  0  0  0
  5 23  1  0  0  0  0
  5 24  1  0  0  0  0
  6  7  1  0  0  0  0
  6  8  1  0  0  0  0
  6 25  1  0  0  0  0
  7 26  1  0  0  0  0
  7 27  1  0  0  0  0
  7 28  1  0  0  0  0
  8 12  1  0  0  0  0
  8  9  1  0  0  0  0
  9 10  2  0  0  0  0
  9 29  1  0  0  0  0
 10 11  1  0  0  0  0
 10 30  1  0  0  0  0
 11 12  2  0  0  0  0
 11 31  1  0  0  0  0
 13 14  1  0  0  0  0
 13 15  2  0  0  0  0
 14 32  1  0  0  0  0
 14 33  1  0  0  0  0
M  END
> <s_m_source_file>
AV-unprocessed.smi

> <i_m_source_file_index>
3116

> <i_lp_mmshare_version>
43012

> <i_f3d_flags>
0

> <s_epik_input>
W05IMl1DKD1PKVtDQEhdKFtDSDNdKVtOSF1bQ0BIXShbQ0gzXSlbQ0BIXShbQ0gzXSluMVtjSF1bY0hdW2NIXW4x

> <s_epik_cmdline>
J2VwaWtfcHl0aG9uJywgJy1waCcsICc3LjAnLCAnLXRuJywgJzgnLCAnLW1hJywgJzIwMCcsICctbWV0YWxfYmluZGluZycsICctaW1hZScsICc8aW5maWxlLm1hZT4nLCAnLW9tYWUnLCAnPG91dGZpbGUubWFlPic=

> <r_lp_tautomer_probability>
1

> <r_epik_Ionization_Penalty>
0.865977

> <r_epik_Ionization_Penalty_Charging>
0

> <r_epik_Ionization_Penalty_Neutral>
0.865977

> <r_epik_State_Penalty>
0.901888

> <r_epik_Charging_Adjusted_Penalty>
0.901888

> <i_epik_Tot_Q>
0

> <i_epik_Tot_abs_Q>
0

> <r_epik_Metal_State_Penalty>
0.901181

> <b_epik_Metal_Only>
0

> <s_lp_Force_Field>
OPLS_2005

> <r_lp_Energy>
8.51746

> <b_lp_Chiralities_Consistent>
1

> <s_lp_Variant>
AV-unprocessed.smi:3116-12

> <Gold.Version>
5.8.1

> <Gold.Id.Protein>
6NUR|6NUR_protein|mol2

> <Gold.PLP.Fitness>
36.7334

> <Gold.PLP.PLP>
-28.1502

> <Gold.PLP.part.hbond>
-4.8552

> <Gold.PLP.part.metal>
0.0000

> <Gold.PLP.part.buried>
-1.9981

> <Gold.PLP.part.nonpolar>
-21.8651

> <Gold.PLP.part.repulsive>
0.0526

> <Gold.PLP.ligand.clash>
0.0000

> <Gold.PLP.ligand.torsion>
1.5075

> <Gold.PLP.Chemscore.Hbond>
3.8320

> <Gold.PLP.Chemscore.CHOScore>
0.0000

> <Gold.PLP.Chemscore.Metal>
0.0000

> <Gold.Chemscore.Hbonds>
donor molecule, donor type, donor heavy atom, donor atom, acceptor molecule, acceptor atom, score
      L1  H     3    20       P1  8028  1.00
      L1  H    14    33       P1  8029  0.98
      P1  H  6933  6944       L1    15  0.98
      P1  H  6934  6946       L1    15  0.70

> <Gold.PLP.Chemscore.Internal.Correction>
0.1021

> <Gold.Rescore>
     Score         DG    S(hbond)    S(metal)    S(lipo)     H(rot)  DE(clash)    DE(int)     intcor
     16.68     -18.49       3.20        0.00      72.02       2.38       0.49       1.32       ----

> <Gold.Chemscore.Fitness>
16.6829

> <Gold.Chemscore.DG>
-18.4894

> <Gold.Chemscore.ZeroCoef>
-5.4800

> <Gold.Chemscore.Hbond>
3.1992

> <Gold.Chemscore.Metal>
0.0000

> <Gold.Chemscore.Lipo>
72.0178

> <Gold.Chemscore.Internal_Hbond>
0.0000

> <Gold.Chemscore.DEClash>
0.4894

> <Gold.Chemscore.DEInternal>
1.3170

> <Gold.Chemscore.Rot>
2.3836

> <Gold.Chemscore.Internal.Correction>
   9.000000E+99

> <Gold.Chemscore.Hbonds>
donor molecule, donor type, donor heavy atom, donor atom, acceptor molecule, acceptor atom, score
      L1  H     3    20       P1  8028  0.35
      L1  H    14    33       P1  8029  0.84
      P1  H  6933  6944       L1    15  0.63
      P1  H  6934  6946       L1    15  0.63

> <Gold.Chemscore.Hbond.Weighted>
-10.6853

> <Gold.Chemscore.Metal.Weighted>
-0.0000

> <Gold.Chemscore.Lipo.Weighted>
-8.4261

> <Gold.Chemscore.Internal_Hbond.Weighted>
0.0000

> <Gold.Chemscore.DEClash.Weighted>
0.4894

> <Gold.Chemscore.DEInternal.Weighted>
1.3170

> <Gold.Chemscore.Rot.Weighted>
6.1020

> <Gold.Chemscore.Internal.Correction.Weighted>
   9.000000E+99

> <Gold.Protein.RotatedTorsions>
[ 6907 6896 6895 6894 ] final  108.33 input  -60.11 | X-H torsion
[ 7974 7965 7964 7962 ] final  155.66 input  175.53 | X-H torsion
[ 8008 7997 7996 7995 ] final -113.29 input   59.86 | X-H torsion
[ 10167 10162 10161 10158 ] final -115.56 input  -65.29 | X-H torsion
[ 10718 10713 10712 10709 ] final  145.14 input   66.30 | X-H torsion
[ 10763 10752 10751 10750 ] final  -36.94 input  -60.55 | X-H torsion
[ 11005 11000 10999 10996 ] final   56.15 input  -57.11 | X-H torsion

> <Gold.Protein.ActiveResidues>
 VAL166  LYS551  ARG553  GLY616  TRP617  ASP618  TYR619  PRO620  LYS621  CYS622 
 ASP623  PHE694  ASN695  SER759  ASP760  ASP761  ALA762  ILE779  LEU786  VAL792 
 PHE793  MET794  SER795  GLU796  ALA797  LYS798  CYS799  TRP800  GLU811  SER814 

> <Gold.Protein.RotatedAtoms>
  152.5117  133.9104  159.7484 H   0  0  0  0  0  0  0  0  0  0  0  0  # atno 6907 bound_to 6896
  150.9499  133.6552  159.2781 H   0  0  0  0  0  0  0  0  0  0  0  0  # atno 6908 bound_to 6896
  151.3834  135.0949  159.9556 H   0  0  0  0  0  0  0  0  0  0  0  0  # atno 6909 bound_to 6896
  144.8011  139.7098  143.6181 H   0  0  0  0  0  0  0  0  0  0  0  0  # atno 7974 bound_to 7965
  155.0184  140.0393  157.2427 H   0  0  0  0  0  0  0  0  0  0  0  0  # atno 8008 bound_to 7997
  154.7399  140.2747  155.6359 H   0  0  0  0  0  0  0  0  0  0  0  0  # atno 8009 bound_to 7997
  156.2862  140.2667  156.2123 H   0  0  0  0  0  0  0  0  0  0  0  0  # atno 8010 bound_to 7997
  140.0888  143.4719  152.1882 H   0  0  0  0  0  0  0  0  0  0  0  0  # atno 10167 bound_to 10162
  157.3488  131.0947  151.1018 H   0  0  0  0  0  0  0  0  0  0  0  0  # atno 10718 bound_to 10713
  153.8881  135.6815  153.4762 H   0  0  0  0  0  0  0  0  0  0  0  0  # atno 10763 bound_to 10752
  153.1196  135.4745  154.9171 H   0  0  0  0  0  0  0  0  0  0  0  0  # atno 10764 bound_to 10752
  154.7636  135.3218  154.8283 H   0  0  0  0  0  0  0  0  0  0  0  0  # atno 10765 bound_to 10752
  140.0551  134.5681  155.9217 H   0  0  0  0  0  0  0  0  0  0  0  0  # atno 11005 bound_to 11000
  146.2293  139.5782  142.9566 LP  0  0  0  0  0  0  0  0  0  0  0  0  # atno 17320 bound_to 7965
  145.5551  141.0410  143.2257 LP  0  0  0  0  0  0  0  0  0  0  0  0  # atno 17321 bound_to 7965
  139.5737  144.7476  151.3823 LP  0  0  0  0  0  0  0  0  0  0  0  0  # atno 17342 bound_to 10162
  140.7039  143.7562  150.7449 LP  0  0  0  0  0  0  0  0  0  0  0  0  # atno 17343 bound_to 10162
  157.2202  130.6478  149.5808 LP  0  0  0  0  0  0  0  0  0  0  0  0  # atno 17370 bound_to 10713
  155.9718  130.4632  150.6172 LP  0  0  0  0  0  0  0  0  0  0  0  0  # atno 17371 bound_to 10713
  141.1948  133.6584  156.5614 LP  0  0  0  0  0  0  0  0  0  0  0  0  # atno 17394 bound_to 11000
  140.3856  134.7485  157.4689 LP  0  0  0  0  0  0  0  0  0  0  0  0  # atno 17395 bound_to 11000

$$$$
