AV-unprocessed.smi:72|AV-procd|sdf|748|dock10
  -GOLD-   2262017 83D 1   1.00000     0.00000
 Structure written by MMmdl.
 29 30  0  0  0  0  0  0  0  0  1 V2000
  153.7344  137.6701  156.1844 N   0  0  0  0  0  0  0  0  0  0  0  0
  152.6188  138.3144  155.6916 C   0  0  0  0  0  0  0  0  0  0  0  0
  151.8682  137.6175  154.7349 N   0  0  0  0  0  0  0  0  0  0  0  0
  150.8205  138.2193  154.2672 C   0  0  0  0  0  0  0  0  0  0  0  0
  150.4493  139.5497  154.7199 N   0  0  0  0  0  0  0  0  0  0  0  0
  149.2287  140.2829  154.1889 C   0  0  1  0  0  0  0  0  0  0  0  0
  148.6798  139.5834  153.1090 O   0  0  0  0  0  0  0  0  0  0  0  0
  147.4467  138.9794  153.4886 C   0  0  2  0  0  0  0  0  0  0  0  0
  146.5659  138.6916  152.2604 C   0  0  0  0  0  0  0  0  0  0  0  0
  147.2771  137.9080  151.3260 O   0  0  0  0  0  0  0  0  0  0  0  0
  146.8706  139.9817  154.4968 C   0  0  2  0  0  0  0  0  0  0  0  0
  146.2417  141.0670  153.8384 O   0  0  0  0  0  0  0  0  0  0  0  0
  148.1090  140.4582  155.2446 C   0  0  1  0  0  0  0  0  0  0  0  0
  148.2903  139.6735  156.4110 O   0  0  0  0  0  0  0  0  0  0  0  0
  151.2566  140.1961  155.6958 C   0  0  0  0  0  0  0  0  0  0  0  0
  150.9541  141.3186  156.1009 O   0  0  0  0  0  0  0  0  0  0  0  0
  152.3781  139.5028  156.1659 N   0  0  0  0  0  0  0  0  0  0  0  0
  149.6045  141.2311  153.8016 H   0  0  0  0  0  0  0  0  0  0  0  0
  147.6545  138.0506  154.0229 H   0  0  0  0  0  0  0  0  0  0  0  0
  146.1346  139.5182  155.1555 H   0  0  0  0  0  0  0  0  0  0  0  0
  148.0416  141.5059  155.5412 H   0  0  0  0  0  0  0  0  0  0  0  0
  154.3485  138.0753  156.8761 H   0  0  0  0  0  0  0  0  0  0  0  0
  154.0180  136.7460  155.8930 H   0  0  0  0  0  0  0  0  0  0  0  0
  150.1672  137.7704  153.5192 H   0  0  0  0  0  0  0  0  0  0  0  0
  145.6834  138.1235  152.5562 H   0  0  0  0  0  0  0  0  0  0  0  0
  146.2195  139.6140  151.7936 H   0  0  0  0  0  0  0  0  0  0  0  0
  147.7734  137.2553  151.7959 H   0  0  0  0  0  0  0  0  0  0  0  0
  145.4481  140.7535  153.4326 H   0  0  0  0  0  0  0  0  0  0  0  0
  148.6988  140.2114  157.0720 H   0  0  0  0  0  0  0  0  0  0  0  0
  1  2  1  0  0  0  0
  1 22  1  0  0  0  0
  1 23  1  0  0  0  0
  2 17  2  0  0  0  0
  2  3  1  0  0  0  0
  3  4  2  0  0  0  0
  4  5  1  0  0  0  0
  4 24  1  0  0  0  0
  5  6  1  0  0  0  0
  5 15  1  0  0  0  0
  6 18  1  0  0  0  0
  6 13  1  0  0  0  0
  6  7  1  0  0  0  0
  7  8  1  0  0  0  0
  8 19  1  0  0  0  0
  8  9  1  0  0  0  0
  8 11  1  0  0  0  0
  9 10  1  0  0  0  0
  9 25  1  0  0  0  0
  9 26  1  0  0  0  0
 10 27  1  0  0  0  0
 11 20  1  0  0  0  0
 11 12  1  0  0  0  0
 11 13  1  0  0  0  0
 12 28  1  0  0  0  0
 13 21  1  0  0  0  0
 13 14  1  0  0  0  0
 14 29  1  0  0  0  0
 15 16  2  0  0  0  0
 15 17  1  0  0  0  0
M  END
> <s_m_source_file>
AV-unprocessed.smi

> <i_m_source_file_index>
72

> <i_lp_mmshare_version>
43012

> <i_f3d_flags>
0

> <s_epik_input>
W05IMl1jMW5bY0hdbihjKD1PKW4xKVtDQEBIXTJPW0NASF0oW0NIMl1bT0hdKVtDQEBIXShbT0hdKVtDQEhdMltPSF0=

> <s_epik_cmdline>
J2VwaWtfcHl0aG9uJywgJy1waCcsICc3LjAnLCAnLXRuJywgJzgnLCAnLW1hJywgJzIwMCcsICctbWV0YWxfYmluZGluZycsICctaW1hZScsICc8aW5maWxlLm1hZT4nLCAnLW9tYWUnLCAnPG91dGZpbGUubWFlPic=

> <r_lp_tautomer_probability>
4.77166e-05

> <r_epik_Ionization_Penalty>
1.3546

> <r_epik_Ionization_Penalty_Charging>
1.46833e-10

> <r_epik_Ionization_Penalty_Neutral>
1.3546

> <r_epik_State_Penalty>
3.51908

> <r_epik_Charging_Adjusted_Penalty>
3.51908

> <i_epik_Tot_Q>
0

> <i_epik_Tot_abs_Q>
0

> <r_epik_Metal_State_Penalty>
3.44088

> <b_epik_Metal_Only>
1

> <s_epik_Chemistry_Notes>
This compound contains an acetal/aminal-like group ( X-CH(R)-Y where X, Y are N, S, or O) that may be acid/base labile, releasing an aldehyde.

> <s_lp_Force_Field>
OPLS_2005

> <r_lp_Energy>
33.7939

> <b_lp_Chiralities_Consistent>
1

> <s_lp_Variant>
AV-unprocessed.smi:72-86

> <Gold.Version>
5.8.1

> <Gold.Id.Protein>
6NUR|6NUR_protein|mol2

> <Gold.PLP.Fitness>
36.1774

> <Gold.PLP.PLP>
-21.0968

> <Gold.PLP.part.hbond>
-4.9675

> <Gold.PLP.part.metal>
0.0000

> <Gold.PLP.part.buried>
-3.4471

> <Gold.PLP.part.nonpolar>
-20.2674

> <Gold.PLP.part.repulsive>
7.0574

> <Gold.PLP.ligand.clash>
0.0000

> <Gold.PLP.ligand.torsion>
0.1578

> <Gold.PLP.Chemscore.Hbond>
4.0650

> <Gold.PLP.Chemscore.CHOScore>
1.0526

> <Gold.PLP.Chemscore.Metal>
0.0000

> <Gold.Chemscore.Hbonds>
donor molecule, donor type, donor heavy atom, donor atom, acceptor molecule, acceptor atom, score
      L1  H    10    27       P1  7948  0.96
      L1  H    12    28       P1 10175  1.00
      P1  H  7954  7966       L1    10  0.85
      P1  H  7997  8010       L1    17  0.82
      P1  H 10752 10765       L1     3  0.38
      L1  C     4    24       P1  7948  1.00
      L1  C     4    24       P1  7949  0.03

> <Gold.PLP.Chemscore.Internal.Correction>
0.0434

> <Gold.Rescore>
     Score         DG    S(hbond)    S(metal)    S(lipo)     H(rot)  DE(clash)    DE(int)     intcor
      4.28      -6.76       2.74        0.00      21.40       4.06       2.27       0.21       ----

> <Gold.Chemscore.Fitness>
4.2817

> <Gold.Chemscore.DG>
-6.7575

> <Gold.Chemscore.ZeroCoef>
-5.4800

> <Gold.Chemscore.Hbond>
2.7447

> <Gold.Chemscore.Metal>
0.0000

> <Gold.Chemscore.Lipo>
21.3996

> <Gold.Chemscore.Internal_Hbond>
0.0000

> <Gold.Chemscore.DEClash>
2.2676

> <Gold.Chemscore.DEInternal>
0.2082

> <Gold.Chemscore.Rot>
4.0600

> <Gold.Chemscore.Internal.Correction>
   9.000000E+99

> <Gold.Chemscore.Hbonds>
donor molecule, donor type, donor heavy atom, donor atom, acceptor molecule, acceptor atom, score
      L1  H    10    27       P1  7948  0.86
      L1  H    12    28       P1 10175  0.81
      P1  H  7954  7966       L1    10  0.15
      P1  H  7997  8010       L1    17  0.16
      P1  H 10752 10765       L1     3  0.21

> <Gold.Chemscore.Hbond.Weighted>
-9.1674

> <Gold.Chemscore.Metal.Weighted>
-0.0000

> <Gold.Chemscore.Lipo.Weighted>
-2.5038

> <Gold.Chemscore.Internal_Hbond.Weighted>
0.0000

> <Gold.Chemscore.DEClash.Weighted>
2.2676

> <Gold.Chemscore.DEInternal.Weighted>
0.2082

> <Gold.Chemscore.Rot.Weighted>
10.3936

> <Gold.Chemscore.Internal.Correction.Weighted>
   9.000000E+99

> <Gold.Protein.RotatedTorsions>
[ 6907 6896 6895 6894 ] final   80.55 input  -60.11 | X-H torsion
[ 7974 7965 7964 7962 ] final  -75.41 input  175.53 | X-H torsion
[ 8008 7997 7996 7995 ] final   73.25 input   59.86 | X-H torsion
[ 10167 10162 10161 10158 ] final  136.40 input  -65.29 | X-H torsion
[ 10718 10713 10712 10709 ] final   43.98 input   66.30 | X-H torsion
[ 10763 10752 10751 10750 ] final  169.84 input  -60.55 | X-H torsion
[ 11005 11000 10999 10996 ] final  -88.22 input  -57.11 | X-H torsion

> <Gold.Protein.ActiveResidues>
 VAL166  LYS551  ARG553  GLY616  TRP617  ASP618  TYR619  PRO620  LYS621  CYS622 
 ASP623  PHE694  ASN695  SER759  ASP760  ASP761  ALA762  ILE779  LEU786  VAL792 
 PHE793  MET794  SER795  GLU796  ALA797  LYS798  CYS799  TRP800  GLU811  SER814 

> <Gold.Protein.RotatedAtoms>
  152.5238  134.3340  159.9192 H   0  0  0  0  0  0  0  0  0  0  0  0  # atno 6907 bound_to 6896
  151.3289  133.4002  159.2668 H   0  0  0  0  0  0  0  0  0  0  0  0  # atno 6908 bound_to 6896
  150.9896  134.9252  159.7950 H   0  0  0  0  0  0  0  0  0  0  0  0  # atno 6909 bound_to 6896
  145.6264  140.9349  143.1110 H   0  0  0  0  0  0  0  0  0  0  0  0  # atno 7974 bound_to 7965
  155.7810  140.3482  155.5297 H   0  0  0  0  0  0  0  0  0  0  0  0  # atno 8008 bound_to 7997
  155.8729  140.0989  157.1559 H   0  0  0  0  0  0  0  0  0  0  0  0  # atno 8009 bound_to 7997
  154.4019  140.1337  156.4088 H   0  0  0  0  0  0  0  0  0  0  0  0  # atno 8010 bound_to 7997
  139.5181  144.6466  151.5421 H   0  0  0  0  0  0  0  0  0  0  0  0  # atno 10167 bound_to 10162
  157.4219  130.7974  149.7523 H   0  0  0  0  0  0  0  0  0  0  0  0  # atno 10718 bound_to 10713
  154.3890  135.2754  155.2166 H   0  0  0  0  0  0  0  0  0  0  0  0  # atno 10763 bound_to 10752
  154.4240  135.5993  153.6031 H   0  0  0  0  0  0  0  0  0  0  0  0  # atno 10764 bound_to 10752
  152.9832  135.5979  154.4143 H   0  0  0  0  0  0  0  0  0  0  0  0  # atno 10765 bound_to 10752
  141.1605  133.7557  156.9419 H   0  0  0  0  0  0  0  0  0  0  0  0  # atno 11005 bound_to 11000
  144.7211  139.8028  143.7381 LP  0  0  0  0  0  0  0  0  0  0  0  0  # atno 17320 bound_to 7965
  146.1391  139.4444  143.0120 LP  0  0  0  0  0  0  0  0  0  0  0  0  # atno 17321 bound_to 7965
  140.6254  143.9179  150.6560 LP  0  0  0  0  0  0  0  0  0  0  0  0  # atno 17342 bound_to 10162
  140.2465  143.3624  152.1442 LP  0  0  0  0  0  0  0  0  0  0  0  0  # atno 17343 bound_to 10162
  155.9883  130.3960  150.3123 LP  0  0  0  0  0  0  0  0  0  0  0  0  # atno 17370 bound_to 10713
  157.1272  131.0262  151.2984 LP  0  0  0  0  0  0  0  0  0  0  0  0  # atno 17371 bound_to 10713
  140.1316  134.9352  157.2344 LP  0  0  0  0  0  0  0  0  0  0  0  0  # atno 17394 bound_to 11000
  140.2947  134.3201  155.7306 LP  0  0  0  0  0  0  0  0  0  0  0  0  # atno 17395 bound_to 11000

$$$$
