AV-unprocessed.smi:172|AV-procd|sdf|1422|dock7
  -GOLD-   2262019193D 1   1.00000     0.00000
 Structure written by MMmdl.
 56 60  0  0  0  0  0  0  0  0  1 V2000
  142.5157  133.5381  150.9467 O   0  0  0  0  0  0  0  0  0  0  0  0
  143.8210  134.0674  151.0758 C   0  0  0  0  0  0  0  0  0  0  0  0
  144.9178  133.0304  150.7599 C   0  0  0  0  0  0  0  0  0  0  0  0
  146.3228  133.6328  150.9783 C   0  0  0  0  0  0  0  0  0  0  0  0
  146.5019  134.3236  152.2453 N   0  0  0  0  0  0  0  0  0  0  0  0
  146.1083  135.6107  152.5401 C   0  0  0  0  0  0  0  0  0  0  0  0
  146.3899  136.0184  153.7473 N   0  0  0  0  0  0  0  0  0  0  0  0
  147.0135  134.9241  154.3309 C   0  0  0  0  0  0  0  0  0  0  0  0
  147.5777  134.6796  155.6099 C   0  0  0  0  0  0  0  0  0  0  0  0
  147.6019  135.6302  156.5752 N   0  0  0  0  0  0  0  0  0  0  0  0
  146.2473  135.9646  157.0355 C   0  0  0  0  0  0  0  0  0  0  0  0
  146.1832  136.5263  158.4505 C   0  0  0  0  0  0  0  0  0  0  0  0
  144.9729  137.3085  158.9033 C   0  0  0  0  0  0  0  0  0  0  0  0
  146.2925  138.0121  158.6982 C   0  0  0  0  0  0  0  0  0  0  0  0
  148.5325  136.7388  156.2855 C   0  0  0  0  0  0  0  0  0  0  0  0
  147.9630  137.7230  155.2243 C   0  0  0  0  0  0  0  0  0  0  0  0
  148.9342  138.8690  154.9031 C   0  0  0  0  0  0  0  0  0  0  0  0
  150.2895  138.3319  154.4306 C   0  0  0  0  0  0  0  0  0  0  0  0
  150.8833  137.3810  155.4758 C   0  0  0  0  0  0  0  0  0  0  0  0
  149.9171  136.2317  155.8059 C   0  0  0  0  0  0  0  0  0  0  0  0
  148.1187  133.4555  155.8470 N   0  0  0  0  0  0  0  0  0  0  0  0
  148.1050  132.5263  154.8865 C   0  0  0  0  0  0  0  0  0  0  0  0
  147.6187  132.6140  153.6460 N   0  0  0  0  0  0  0  0  0  0  0  0
  147.0816  133.8449  153.4073 C   0  0  0  0  0  0  0  0  0  0  0  0
  144.7038  131.6733  151.4471 C   0  0  0  0  0  0  0  0  0  0  0  0
  144.1804  131.0802  150.2410 O   0  0  0  0  0  0  0  0  0  0  0  0
  144.7008  132.1949  149.4873 C   0  0  0  0  0  0  0  0  0  0  0  0
  142.2953  133.5001  150.0284 H   0  0  0  0  0  0  0  0  0  0  0  0
  143.9117  134.9430  150.4323 H   0  0  0  0  0  0  0  0  0  0  0  0
  143.9182  134.4296  152.0998 H   0  0  0  0  0  0  0  0  0  0  0  0
  147.0797  132.8505  150.9111 H   0  0  0  0  0  0  0  0  0  0  0  0
  146.5628  134.3393  150.1824 H   0  0  0  0  0  0  0  0  0  0  0  0
  145.6147  136.2475  151.8206 H   0  0  0  0  0  0  0  0  0  0  0  0
  145.8071  136.7115  156.3776 H   0  0  0  0  0  0  0  0  0  0  0  0
  145.6116  135.0800  156.9764 H   0  0  0  0  0  0  0  0  0  0  0  0
  146.6126  135.8780  159.2124 H   0  0  0  0  0  0  0  0  0  0  0  0
  144.1863  137.4962  158.1752 H   0  0  0  0  0  0  0  0  0  0  0  0
  144.6353  137.1624  159.9274 H   0  0  0  0  0  0  0  0  0  0  0  0
  146.8411  138.3297  159.5825 H   0  0  0  0  0  0  0  0  0  0  0  0
  146.3884  138.6624  157.8309 H   0  0  0  0  0  0  0  0  0  0  0  0
  148.6856  137.2910  157.2142 H   0  0  0  0  0  0  0  0  0  0  0  0
  147.7307  137.1780  154.3082 H   0  0  0  0  0  0  0  0  0  0  0  0
  147.0266  138.1686  155.5607 H   0  0  0  0  0  0  0  0  0  0  0  0
  148.5045  139.5153  154.1374 H   0  0  0  0  0  0  0  0  0  0  0  0
  149.0735  139.4894  155.7893 H   0  0  0  0  0  0  0  0  0  0  0  0
  150.1683  137.8083  153.4814 H   0  0  0  0  0  0  0  0  0  0  0  0
  150.9754  139.1590  154.2451 H   0  0  0  0  0  0  0  0  0  0  0  0
  151.8294  136.9772  155.1141 H   0  0  0  0  0  0  0  0  0  0  0  0
  151.1130  137.9360  156.3863 H   0  0  0  0  0  0  0  0  0  0  0  0
  150.3949  135.6215  156.5711 H   0  0  0  0  0  0  0  0  0  0  0  0
  149.7935  135.5952  154.9287 H   0  0  0  0  0  0  0  0  0  0  0  0
  148.5506  131.5780  155.1476 H   0  0  0  0  0  0  0  0  0  0  0  0
  145.6268  131.1866  151.7669 H   0  0  0  0  0  0  0  0  0  0  0  0
  143.9756  131.6901  152.2588 H   0  0  0  0  0  0  0  0  0  0  0  0
  143.9698  132.6086  148.7920 H   0  0  0  0  0  0  0  0  0  0  0  0
  145.6213  131.9269  148.9675 H   0  0  0  0  0  0  0  0  0  0  0  0
  1  2  1  0  0  0  0
  1 28  1  0  0  0  0
  2  3  1  0  0  0  0
  2 29  1  0  0  0  0
  2 30  1  0  0  0  0
  3 27  1  0  0  0  0
  3  4  1  0  0  0  0
  3 25  1  0  0  0  0
  4  5  1  0  0  0  0
  4 31  1  0  0  0  0
  4 32  1  0  0  0  0
  5 24  1  0  0  0  0
  5  6  1  0  0  0  0
  6  7  2  0  0  0  0
  6 33  1  0  0  0  0
  7  8  1  0  0  0  0
  8 24  2  0  0  0  0
  8  9  1  0  0  0  0
  9 10  1  0  0  0  0
  9 21  2  0  0  0  0
 10 11  1  0  0  0  0
 10 15  1  0  0  0  0
 11 12  1  0  0  0  0
 11 34  1  0  0  0  0
 11 35  1  0  0  0  0
 12 14  1  0  0  0  0
 12 13  1  0  0  0  0
 12 36  1  0  0  0  0
 13 14  1  0  0  0  0
 13 37  1  0  0  0  0
 13 38  1  0  0  0  0
 14 39  1  0  0  0  0
 14 40  1  0  0  0  0
 15 20  1  0  0  0  0
 15 16  1  0  0  0  0
 15 41  1  0  0  0  0
 16 17  1  0  0  0  0
 16 42  1  0  0  0  0
 16 43  1  0  0  0  0
 17 18  1  0  0  0  0
 17 44  1  0  0  0  0
 17 45  1  0  0  0  0
 18 19  1  0  0  0  0
 18 46  1  0  0  0  0
 18 47  1  0  0  0  0
 19 20  1  0  0  0  0
 19 48  1  0  0  0  0
 19 49  1  0  0  0  0
 20 50  1  0  0  0  0
 20 51  1  0  0  0  0
 21 22  1  0  0  0  0
 22 23  2  0  0  0  0
 22 52  1  0  0  0  0
 23 24  1  0  0  0  0
 25 26  1  0  0  0  0
 25 53  1  0  0  0  0
 25 54  1  0  0  0  0
 26 27  1  0  0  0  0
 27 55  1  0  0  0  0
 27 56  1  0  0  0  0
M  END
> <s_m_source_file>
AV-unprocessed.smi

> <i_m_source_file_index>
172

> <i_lp_mmshare_version>
43012

> <i_f3d_flags>
0

> <s_epik_input>
W0NIMl0xT1tDSDJdQzEoW0NIMl1bT0hdKVtDSDJdbihbY0hdbjIpYyhjMjMpbltjSF1uYzNOKFtDSDJdW0NIXTRbQ0gyXVtDSDJdNClbQ0hdNVtDSDJdW0NIMl1bQ0gyXVtDSDJdW0NIMl01

> <s_epik_cmdline>
J2VwaWtfcHl0aG9uJywgJy1waCcsICc3LjAnLCAnLXRuJywgJzgnLCAnLW1hJywgJzIwMCcsICctbWV0YWxfYmluZGluZycsICctaW1hZScsICc8aW5maWxlLm1hZT4nLCAnLW9tYWUnLCAnPG91dGZpbGUubWFlPic=

> <r_lp_tautomer_probability>
1

> <r_epik_Ionization_Penalty>
0.0023612

> <r_epik_Ionization_Penalty_Charging>
0

> <r_epik_Ionization_Penalty_Neutral>
0.0023612

> <r_epik_State_Penalty>
0.00145434

> <r_epik_Charging_Adjusted_Penalty>
0.00145434

> <i_epik_Tot_Q>
0

> <i_epik_Tot_abs_Q>
0

> <r_epik_Metal_State_Penalty>
-0

> <b_epik_Metal_Only>
0

> <s_lp_Force_Field>
OPLS_2005

> <r_lp_Energy>
48.1575

> <b_lp_Chiralities_Consistent>
1

> <s_lp_Variant>
AV-unprocessed.smi:172-1

> <Gold.Version>
5.8.1

> <Gold.Id.Protein>
6NUR|6NUR_protein|mol2

> <Gold.PLP.Fitness>
39.1048

> <Gold.PLP.PLP>
-34.8171

> <Gold.PLP.part.hbond>
-2.3964

> <Gold.PLP.part.metal>
0.0000

> <Gold.PLP.part.buried>
-3.2181

> <Gold.PLP.part.nonpolar>
-29.8651

> <Gold.PLP.part.repulsive>
0.5116

> <Gold.PLP.ligand.clash>
0.0045

> <Gold.PLP.ligand.torsion>
1.2239

> <Gold.PLP.Chemscore.Hbond>
1.7840

> <Gold.PLP.Chemscore.CHOScore>
0.0000

> <Gold.PLP.Chemscore.Metal>
0.0000

> <Gold.Chemscore.Hbonds>
donor molecule, donor type, donor heavy atom, donor atom, acceptor molecule, acceptor atom, score
      L1  H     1    28       P1 10186  0.32
      P1  H 10785 10796       L1    26  0.46

> <Gold.PLP.Chemscore.Internal.Correction>
1.3880

> <Gold.Rescore>
     Score         DG    S(hbond)    S(metal)    S(lipo)     H(rot)  DE(clash)    DE(int)     intcor
      6.68     -10.62       0.96        0.00      79.46       2.87       0.46       3.47       ----

> <Gold.Chemscore.Fitness>
6.6829

> <Gold.Chemscore.DG>
-10.6166

> <Gold.Chemscore.ZeroCoef>
-5.4800

> <Gold.Chemscore.Hbond>
0.9577

> <Gold.Chemscore.Metal>
0.0000

> <Gold.Chemscore.Lipo>
79.4551

> <Gold.Chemscore.Internal_Hbond>
0.0000

> <Gold.Chemscore.DEClash>
0.4631

> <Gold.Chemscore.DEInternal>
3.4706

> <Gold.Chemscore.Rot>
2.8744

> <Gold.Chemscore.Internal.Correction>
   9.000000E+99

> <Gold.Chemscore.Hbonds>
donor molecule, donor type, donor heavy atom, donor atom, acceptor molecule, acceptor atom, score
      L1  H     1    28       P1 10186  0.32
      P1  H 10785 10796       L1    26  0.10

> <Gold.Chemscore.Hbond.Weighted>
-3.1987

> <Gold.Chemscore.Metal.Weighted>
-0.0000

> <Gold.Chemscore.Lipo.Weighted>
-9.2962

> <Gold.Chemscore.Internal_Hbond.Weighted>
0.0000

> <Gold.Chemscore.DEClash.Weighted>
0.4631

> <Gold.Chemscore.DEInternal.Weighted>
3.4706

> <Gold.Chemscore.Rot.Weighted>
7.3584

> <Gold.Chemscore.Internal.Correction.Weighted>
   9.000000E+99

> <Gold.Protein.RotatedTorsions>
[ 6907 6896 6895 6894 ] final -158.24 input  -60.11 | X-H torsion
[ 7974 7965 7964 7962 ] final  -61.40 input  175.53 | X-H torsion
[ 8008 7997 7996 7995 ] final  -68.62 input   59.86 | X-H torsion
[ 10167 10162 10161 10158 ] final  -84.05 input  -65.29 | X-H torsion
[ 10718 10713 10712 10709 ] final -153.67 input   66.30 | X-H torsion
[ 10763 10752 10751 10750 ] final   31.10 input  -60.55 | X-H torsion
[ 11005 11000 10999 10996 ] final  167.44 input  -57.11 | X-H torsion

> <Gold.Protein.ActiveResidues>
 VAL166  LYS551  ARG553  GLY616  TRP617  ASP618  TYR619  PRO620  LYS621  CYS622 
 ASP623  PHE694  ASN695  SER759  ASP760  ASP761  ALA762  ILE779  LEU786  VAL792 
 PHE793  MET794  SER795  GLU796  ALA797  LYS798  CYS799  TRP800  GLU811  SER814 

> <Gold.Protein.RotatedAtoms>
  151.3151  133.4064  159.2649 H   0  0  0  0  0  0  0  0  0  0  0  0  # atno 6907 bound_to 6896
  151.0081  134.9376  159.8002 H   0  0  0  0  0  0  0  0  0  0  0  0  # atno 6908 bound_to 6896
  152.5293  134.3116  159.9168 H   0  0  0  0  0  0  0  0  0  0  0  0  # atno 6909 bound_to 6896
  145.8039  140.8639  143.0217 H   0  0  0  0  0  0  0  0  0  0  0  0  # atno 7974 bound_to 7965
  154.4881  140.0869  156.7532 H   0  0  0  0  0  0  0  0  0  0  0  0  # atno 8008 bound_to 7997
  155.4300  140.3449  155.4261 H   0  0  0  0  0  0  0  0  0  0  0  0  # atno 8009 bound_to 7997
  156.1290  140.1496  156.9081 H   0  0  0  0  0  0  0  0  0  0  0  0  # atno 8010 bound_to 7997
  140.4168  143.2600  151.8943 H   0  0  0  0  0  0  0  0  0  0  0  0  # atno 10167 bound_to 10162
  156.4890  130.8338  151.2562 H   0  0  0  0  0  0  0  0  0  0  0  0  # atno 10718 bound_to 10713
  153.0334  135.6447  154.1146 H   0  0  0  0  0  0  0  0  0  0  0  0  # atno 10763 bound_to 10752
  154.0865  135.2869  155.3281 H   0  0  0  0  0  0  0  0  0  0  0  0  # atno 10764 bound_to 10752
  154.6494  135.5431  153.7947 H   0  0  0  0  0  0  0  0  0  0  0  0  # atno 10765 bound_to 10752
  140.2768  134.7782  157.3724 H   0  0  0  0  0  0  0  0  0  0  0  0  # atno 11005 bound_to 11000
  144.6765  140.0298  143.7482 LP  0  0  0  0  0  0  0  0  0  0  0  0  # atno 17320 bound_to 7965
  145.9849  139.2969  143.1020 LP  0  0  0  0  0  0  0  0  0  0  0  0  # atno 17321 bound_to 7965
  139.4782  144.5479  151.8430 LP  0  0  0  0  0  0  0  0  0  0  0  0  # atno 17342 bound_to 10162
  140.4577  144.1766  150.5903 LP  0  0  0  0  0  0  0  0  0  0  0  0  # atno 17343 bound_to 10162
  157.7476  131.0020  150.2983 LP  0  0  0  0  0  0  0  0  0  0  0  0  # atno 17370 bound_to 10713
  156.3445  130.3821  149.7380 LP  0  0  0  0  0  0  0  0  0  0  0  0  # atno 17371 bound_to 10713
  140.1320  134.5082  155.8098 LP  0  0  0  0  0  0  0  0  0  0  0  0  # atno 17394 bound_to 11000
  141.2169  133.6793  156.7057 LP  0  0  0  0  0  0  0  0  0  0  0  0  # atno 17395 bound_to 11000

$$$$
