AV-unprocessed.smi:3238|AV-procd|sdf|12377|dock3
  -GOLD-   2272018233D 1   1.00000     0.00000
 Structure written by MMmdl.
 37 39  0  0  0  0  0  0  0  0  1 V2000
  148.7588  134.9065  154.5596 C   0  0  0  0  0  0  0  0  0  0  0  0
  149.3157  136.1844  154.1426 N   0  0  0  0  0  0  0  0  0  0  0  0
  150.3159  136.8147  154.7754 C   0  0  0  0  0  0  0  0  0  0  0  0
  150.8597  136.3629  155.7847 O   0  0  0  0  0  0  0  0  0  0  0  0
  150.7660  138.1452  154.1582 C   0  0  0  0  0  0  0  0  0  0  0  0
  151.0438  139.1913  155.1933 C   0  0  0  0  0  0  0  0  0  0  0  0
  151.7395  138.9100  156.2893 N   0  0  0  0  0  0  0  0  0  0  0  0
  151.7864  140.1363  156.9670 O   0  0  0  0  0  0  0  0  0  0  0  0
  151.1022  141.0133  156.1936 C   0  0  0  0  0  0  0  0  0  0  0  0
  151.0140  142.4413  156.6216 C   0  0  0  0  0  0  0  0  0  0  0  0
  150.9134  142.6045  158.1511 C   0  0  2  0  0  0  0  0  0  0  0  0
  150.5890  144.0455  158.6111 C   0  0  0  0  0  0  0  0  0  0  0  0
  151.7326  144.3649  159.5907 C   0  0  1  0  0  0  0  0  0  0  0  0
  151.5719  143.5169  160.8659 C   0  0  0  0  0  0  0  0  0  0  0  0
  151.9538  142.1045  160.3834 C   0  0  0  0  0  0  0  0  0  0  0  0
  152.2445  142.3245  158.8861 C   0  0  2  0  0  0  0  0  0  0  0  0
  152.9175  143.6936  158.9085 C   0  0  0  0  0  0  0  0  0  0  0  0
  150.6328  140.4840  155.0666 N   0  0  0  0  0  0  0  0  0  0  0  0
  147.9774  134.5975  153.8655 H   0  0  0  0  0  0  0  0  0  0  0  0
  148.3214  134.9798  155.5561 H   0  0  0  0  0  0  0  0  0  0  0  0
  149.5279  134.1329  154.5730 H   0  0  0  0  0  0  0  0  0  0  0  0
  148.9196  136.6146  153.3193 H   0  0  0  0  0  0  0  0  0  0  0  0
  151.6620  137.9730  153.5605 H   0  0  0  0  0  0  0  0  0  0  0  0
  149.9971  138.5140  153.4777 H   0  0  0  0  0  0  0  0  0  0  0  0
  151.9023  142.9570  156.2555 H   0  0  0  0  0  0  0  0  0  0  0  0
  150.1627  142.9064  156.1237 H   0  0  0  0  0  0  0  0  0  0  0  0
  150.1508  141.9131  158.5133 H   0  0  0  0  0  0  0  0  0  0  0  0
  150.6087  144.7463  157.7755 H   0  0  0  0  0  0  0  0  0  0  0  0
  149.6070  144.1196  159.0796 H   0  0  0  0  0  0  0  0  0  0  0  0
  151.8555  145.4305  159.7858 H   0  0  0  0  0  0  0  0  0  0  0  0
  152.2545  143.8532  161.6475 H   0  0  0  0  0  0  0  0  0  0  0  0
  150.5576  143.5610  161.2644 H   0  0  0  0  0  0  0  0  0  0  0  0
  152.8464  141.7518  160.9021 H   0  0  0  0  0  0  0  0  0  0  0  0
  151.1611  141.3752  160.5543 H   0  0  0  0  0  0  0  0  0  0  0  0
  152.8387  141.5254  158.4415 H   0  0  0  0  0  0  0  0  0  0  0  0
  153.1302  144.0941  157.9161 H   0  0  0  0  0  0  0  0  0  0  0  0
  153.8309  143.7174  159.5055 H   0  0  0  0  0  0  0  0  0  0  0  0
  1  2  1  0  0  0  0
  1 19  1  0  0  0  0
  1 20  1  0  0  0  0
  1 21  1  0  0  0  0
  2  3  1  0  0  0  0
  2 22  1  0  0  0  0
  3  4  2  0  0  0  0
  3  5  1  0  0  0  0
  5  6  1  0  0  0  0
  5 23  1  0  0  0  0
  5 24  1  0  0  0  0
  6 18  1  0  0  0  0
  6  7  2  0  0  0  0
  7  8  1  0  0  0  0
  8  9  1  0  0  0  0
  9 10  1  0  0  0  0
  9 18  2  0  0  0  0
 10 11  1  0  0  0  0
 10 25  1  0  0  0  0
 10 26  1  0  0  0  0
 11 16  1  0  0  0  0
 11 12  1  0  0  0  0
 11 27  1  0  0  0  0
 12 13  1  0  0  0  0
 12 28  1  0  0  0  0
 12 29  1  0  0  0  0
 13 17  1  0  0  0  0
 13 14  1  0  0  0  0
 13 30  1  0  0  0  0
 14 15  1  0  0  0  0
 14 31  1  0  0  0  0
 14 32  1  0  0  0  0
 15 16  1  0  0  0  0
 15 33  1  0  0  0  0
 15 34  1  0  0  0  0
 16 17  1  0  0  0  0
 16 35  1  0  0  0  0
 17 36  1  0  0  0  0
 17 37  1  0  0  0  0
M  END
> <s_m_source_file>
AV-unprocessed.smi

> <i_m_source_file_index>
3238

> <i_lp_mmshare_version>
43012

> <i_f3d_flags>
0

> <s_epik_input>
W0NIM11bTkhdQyg9TylbQ0gyXWMxbm9jKG4xKVtDSDJdW0NASF0oW0NIMl1bQ0BIXTIzKVtDQEhdKFtDSDJdMylbQ0gyXVtDSDJdMg==

> <s_epik_cmdline>
J2VwaWtfcHl0aG9uJywgJy1waCcsICc3LjAnLCAnLXRuJywgJzgnLCAnLW1hJywgJzIwMCcsICctbWV0YWxfYmluZGluZycsICctaW1hZScsICc8aW5maWxlLm1hZT4nLCAnLW9tYWUnLCAnPG91dGZpbGUubWFlPic=

> <r_lp_tautomer_probability>
1

> <r_epik_Ionization_Penalty>
1.02915e-07

> <r_epik_Ionization_Penalty_Charging>
0

> <r_epik_Ionization_Penalty_Neutral>
1.02915e-07

> <r_epik_State_Penalty>
-0

> <r_epik_Charging_Adjusted_Penalty>
0

> <i_epik_Tot_Q>
0

> <i_epik_Tot_abs_Q>
0

> <r_epik_Metal_State_Penalty>
-0

> <b_epik_Metal_Only>
0

> <s_lp_Force_Field>
OPLS_2005

> <r_lp_Energy>
47.6747

> <b_lp_Chiralities_Consistent>
1

> <s_lp_Variant>
AV-unprocessed.smi:3238-3

> <Gold.Version>
5.8.1

> <Gold.Id.Protein>
6NUR|6NUR_protein|mol2

> <Gold.PLP.Fitness>
48.8233

> <Gold.PLP.PLP>
-42.4707

> <Gold.PLP.part.hbond>
-4.4143

> <Gold.PLP.part.metal>
0.0000

> <Gold.PLP.part.buried>
-4.2041

> <Gold.PLP.part.nonpolar>
-33.8267

> <Gold.PLP.part.repulsive>
0.1536

> <Gold.PLP.ligand.clash>
0.0000

> <Gold.PLP.ligand.torsion>
0.8840

> <Gold.PLP.Chemscore.Hbond>
2.7000

> <Gold.PLP.Chemscore.CHOScore>
0.0000

> <Gold.PLP.Chemscore.Metal>
0.0000

> <Gold.Chemscore.Hbonds>
donor molecule, donor type, donor heavy atom, donor atom, acceptor molecule, acceptor atom, score
      L1  H     2    22       P1  7948  0.57
      P1  H  7989  7998       L1    18  0.85

> <Gold.PLP.Chemscore.Internal.Correction>
0.0205

> <Gold.Rescore>
     Score         DG    S(hbond)    S(metal)    S(lipo)     H(rot)  DE(clash)    DE(int)     intcor
     14.47     -17.41       1.38        0.00     103.11       1.85       0.55       2.40       ----

> <Gold.Chemscore.Fitness>
14.4662

> <Gold.Chemscore.DG>
-17.4139

> <Gold.Chemscore.ZeroCoef>
-5.4800

> <Gold.Chemscore.Hbond>
1.3786

> <Gold.Chemscore.Metal>
0.0000

> <Gold.Chemscore.Lipo>
103.1069

> <Gold.Chemscore.Internal_Hbond>
0.0000

> <Gold.Chemscore.DEClash>
0.5461

> <Gold.Chemscore.DEInternal>
2.4016

> <Gold.Chemscore.Rot>
1.8492

> <Gold.Chemscore.Internal.Correction>
   9.000000E+99

> <Gold.Chemscore.Hbonds>
donor molecule, donor type, donor heavy atom, donor atom, acceptor molecule, acceptor atom, score
      L1  H     2    22       P1  7948  0.54
      P1  H  7989  7998       L1    18  0.13
      P1  H 10752 10763       L1     4  0.01

> <Gold.Chemscore.Hbond.Weighted>
-4.6044

> <Gold.Chemscore.Metal.Weighted>
-0.0000

> <Gold.Chemscore.Lipo.Weighted>
-12.0635

> <Gold.Chemscore.Internal_Hbond.Weighted>
0.0000

> <Gold.Chemscore.DEClash.Weighted>
0.5461

> <Gold.Chemscore.DEInternal.Weighted>
2.4016

> <Gold.Chemscore.Rot.Weighted>
4.7340

> <Gold.Chemscore.Internal.Correction.Weighted>
   9.000000E+99

> <Gold.Protein.RotatedTorsions>
[ 6907 6896 6895 6894 ] final -163.30 input  -60.11 | X-H torsion
[ 7974 7965 7964 7962 ] final -164.47 input  175.53 | X-H torsion
[ 8008 7997 7996 7995 ] final  116.54 input   59.86 | X-H torsion
[ 10167 10162 10161 10158 ] final  -97.94 input  -65.29 | X-H torsion
[ 10718 10713 10712 10709 ] final    7.94 input   66.30 | X-H torsion
[ 10763 10752 10751 10750 ] final   78.76 input  -60.55 | X-H torsion
[ 11005 11000 10999 10996 ] final  -58.66 input  -57.11 | X-H torsion

> <Gold.Protein.ActiveResidues>
 VAL166  LYS551  ARG553  GLY616  TRP617  ASP618  TYR619  PRO620  LYS621  CYS622 
 ASP623  PHE694  ASN695  SER759  ASP760  ASP761  ALA762  ILE779  LEU786  VAL792 
 PHE793  MET794  SER795  GLU796  ALA797  LYS798  CYS799  TRP800  GLU811  SER814 

> <Gold.Protein.RotatedAtoms>
  151.3938  133.3780  159.2723 H   0  0  0  0  0  0  0  0  0  0  0  0  # atno 6907 bound_to 6896
  150.9485  134.8888  159.7667 H   0  0  0  0  0  0  0  0  0  0  0  0  # atno 6908 bound_to 6896
  152.5102  134.3892  159.9430 H   0  0  0  0  0  0  0  0  0  0  0  0  # atno 6909 bound_to 6896
  144.7296  140.2956  143.6213 H   0  0  0  0  0  0  0  0  0  0  0  0  # atno 7974 bound_to 7965
  156.2445  140.2915  156.0540 H   0  0  0  0  0  0  0  0  0  0  0  0  # atno 8008 bound_to 7997
  155.1850  140.0405  157.2907 H   0  0  0  0  0  0  0  0  0  0  0  0  # atno 8009 bound_to 7997
  154.6234  140.2481  155.7529 H   0  0  0  0  0  0  0  0  0  0  0  0  # atno 8010 bound_to 7997
  140.2782  143.3299  152.0468 H   0  0  0  0  0  0  0  0  0  0  0  0  # atno 10167 bound_to 10162
  156.9443  130.5873  149.5654 H   0  0  0  0  0  0  0  0  0  0  0  0  # atno 10718 bound_to 10713
  153.0899  135.4865  154.8669 H   0  0  0  0  0  0  0  0  0  0  0  0  # atno 10763 bound_to 10752
  154.7256  135.3049  154.8978 H   0  0  0  0  0  0  0  0  0  0  0  0  # atno 10764 bound_to 10752
  153.9629  135.6810  153.4798 H   0  0  0  0  0  0  0  0  0  0  0  0  # atno 10765 bound_to 10752
  141.1216  133.6613  156.4954 H   0  0  0  0  0  0  0  0  0  0  0  0  # atno 11005 bound_to 11000
  145.7811  139.1892  143.2157 LP  0  0  0  0  0  0  0  0  0  0  0  0  # atno 17320 bound_to 7965
  146.0833  140.7740  142.9631 LP  0  0  0  0  0  0  0  0  0  0  0  0  # atno 17321 bound_to 7965
  139.4970  144.6610  151.6465 LP  0  0  0  0  0  0  0  0  0  0  0  0  # atno 17342 bound_to 10162
  140.5834  143.9907  150.6281 LP  0  0  0  0  0  0  0  0  0  0  0  0  # atno 17343 bound_to 10162
  156.0390  130.5475  150.8726 LP  0  0  0  0  0  0  0  0  0  0  0  0  # atno 17370 bound_to 10713
  157.5764  131.0946  150.9339 LP  0  0  0  0  0  0  0  0  0  0  0  0  # atno 17371 bound_to 10713
  140.4489  134.6947  157.5030 LP  0  0  0  0  0  0  0  0  0  0  0  0  # atno 17394 bound_to 11000
  140.0179  134.6592  155.9283 LP  0  0  0  0  0  0  0  0  0  0  0  0  # atno 17395 bound_to 11000

$$$$
