AV-unprocessed.smi:2772|AV-procd|sdf|10666|dock3
  -GOLD-   2272015113D 1   1.00000     0.00000
 Structure written by MMmdl.
 55 57  0  0  0  0  0  0  0  0  3 V2000
  152.3566  143.3370  159.9202 C   0  0  0  0  0  0  0  0  0  0  0  0
  151.6750  142.8138  158.6731 C   0  0  0  0  0  0  0  0  0  0  0  0
  151.2171  141.4822  158.6001 C   0  0  0  0  0  0  0  0  0  0  0  0
  150.5860  141.0544  157.4163 C   0  0  0  0  0  0  0  0  0  0  0  0
  150.4433  141.9619  156.3465 C   0  0  0  0  0  0  0  0  0  0  0  0
  149.7790  141.5171  155.1716 N   0  0  0  0  0  0  0  0  0  0  0  0
  148.6872  140.7383  155.0814 C   0  0  0  0  0  0  0  0  0  0  0  0
  148.0182  140.3446  156.0365 O   0  0  0  0  0  0  0  0  0  0  0  0
  148.3938  140.4566  153.8031 N   0  0  0  0  0  0  0  0  0  0  0  0
  147.2677  139.6420  153.3512 C   0  0  2  0  0  0  0  0  0  0  0  0
  147.1047  138.4115  154.2476 C   0  0  0  0  0  0  0  0  0  0  0  0
  145.9577  137.5146  153.7527 C   0  0  0  0  0  0  0  0  0  0  0  0
  146.1394  137.0808  152.3341 N   0  3  1  0  0  0  0  0  0  0  0  0
  145.0562  136.1533  151.8532 C   0  0  2  0  0  0  0  0  0  0  0  0
  144.3933  135.3213  152.9804 C   0  0  0  0  0  0  0  0  0  0  0  0
  145.3647  134.2862  153.5774 C   0  0  0  0  0  0  0  0  0  0  0  0
  145.8709  133.3660  152.5282 N   0  3  2  0  0  0  0  0  0  0  0  0
  146.7425  132.3056  153.0781 C   0  0  0  0  0  0  0  0  0  0  0  0
  146.5035  134.0919  151.3983 C   0  0  0  0  0  0  0  0  0  0  0  0
  145.5345  135.1262  150.7961 C   0  0  0  0  0  0  0  0  0  0  0  0
  146.3387  138.2640  151.4429 C   0  0  0  0  0  0  0  0  0  0  0  0
  147.4900  139.1694  151.9117 C   0  0  0  0  0  0  0  0  0  0  0  0
  150.9308  143.2797  156.5290 C   0  0  0  0  0  0  0  0  0  0  0  0
  151.5346  143.6979  157.6622 N   0  0  0  0  0  0  0  0  0  0  0  0
  152.4099  142.5706  160.6938 H   0  0  0  0  0  0  0  0  0  0  0  0
  151.8073  144.1886  160.3229 H   0  0  0  0  0  0  0  0  0  0  0  0
  153.3722  143.6600  159.6900 H   0  0  0  0  0  0  0  0  0  0  0  0
  151.3415  140.8033  159.4309 H   0  0  0  0  0  0  0  0  0  0  0  0
  150.2204  140.0413  157.3333 H   0  0  0  0  0  0  0  0  0  0  0  0
  150.1616  141.8575  154.3016 H   0  0  0  0  0  0  0  0  0  0  0  0
  149.0007  140.8316  153.0885 H   0  0  0  0  0  0  0  0  0  0  0  0
  146.3408  140.2175  153.3890 H   0  0  0  0  0  0  0  0  0  0  0  0
  148.0326  137.8376  154.2704 H   0  0  0  0  0  0  0  0  0  0  0  0
  146.9085  138.7228  155.2744 H   0  0  0  0  0  0  0  0  0  0  0  0
  145.9294  136.6590  154.4232 H   0  0  0  0  0  0  0  0  0  0  0  0
  145.0041  138.0351  153.8551 H   0  0  0  0  0  0  0  0  0  0  0  0
  144.2860  136.7765  151.3960 H   0  0  0  0  0  0  0  0  0  0  0  0
  143.9559  135.9401  153.7613 H   0  0  0  0  0  0  0  0  0  0  0  0
  143.5405  134.7853  152.5607 H   0  0  0  0  0  0  0  0  0  0  0  0
  146.2019  134.7873  154.0660 H   0  0  0  0  0  0  0  0  0  0  0  0
  144.8509  133.7073  154.3458 H   0  0  0  0  0  0  0  0  0  0  0  0
  147.6504  132.7284  153.5102 H   0  0  0  0  0  0  0  0  0  0  0  0
  147.0306  131.6012  152.2970 H   0  0  0  0  0  0  0  0  0  0  0  0
  146.2226  131.7439  153.8548 H   0  0  0  0  0  0  0  0  0  0  0  0
  147.4184  134.5801  151.7377 H   0  0  0  0  0  0  0  0  0  0  0  0
  146.7943  133.3756  150.6288 H   0  0  0  0  0  0  0  0  0  0  0  0
  144.6640  134.5931  150.4107 H   0  0  0  0  0  0  0  0  0  0  0  0
  145.9669  135.5958  149.9151 H   0  0  0  0  0  0  0  0  0  0  0  0
  146.5859  137.9545  150.4303 H   0  0  0  0  0  0  0  0  0  0  0  0
  145.4117  138.8370  151.3858 H   0  0  0  0  0  0  0  0  0  0  0  0
  147.5737  140.0296  151.2459 H   0  0  0  0  0  0  0  0  0  0  0  0
  148.4340  138.6272  151.8362 H   0  0  0  0  0  0  0  0  0  0  0  0
  150.8212  144.0383  155.7698 H   0  0  0  0  0  0  0  0  0  0  0  0
  147.0032  136.5584  152.3077 H   0  0  0  0  0  0  0  0  0  0  0  0
  145.0617  132.8956  152.1474 H   0  0  0  0  0  0  0  0  0  0  0  0
  1  2  1  0  0  0  0
  1 25  1  0  0  0  0
  1 26  1  0  0  0  0
  1 27  1  0  0  0  0
  2 24  1  0  0  0  0
  2  3  2  0  0  0  0
  3  4  1  0  0  0  0
  3 28  1  0  0  0  0
  4  5  2  0  0  0  0
  4 29  1  0  0  0  0
  5  6  1  0  0  0  0
  5 23  1  0  0  0  0
  6  7  1  0  0  0  0
  6 30  1  0  0  0  0
  7  8  2  0  0  0  0
  7  9  1  0  0  0  0
  9 10  1  0  0  0  0
  9 31  1  0  0  0  0
 10 22  1  0  0  0  0
 10 11  1  0  0  0  0
 10 32  1  0  0  0  0
 11 12  1  0  0  0  0
 11 33  1  0  0  0  0
 11 34  1  0  0  0  0
 12 13  1  0  0  0  0
 12 35  1  0  0  0  0
 12 36  1  0  0  0  0
 13 14  1  0  0  0  0
 13 21  1  0  0  0  0
 13 54  1  0  0  0  0
 14 20  1  0  0  0  0
 14 15  1  0  0  0  0
 14 37  1  0  0  0  0
 15 16  1  0  0  0  0
 15 38  1  0  0  0  0
 15 39  1  0  0  0  0
 16 17  1  0  0  0  0
 16 40  1  0  0  0  0
 16 41  1  0  0  0  0
 17 18  1  0  0  0  0
 17 19  1  0  0  0  0
 17 55  1  0  0  0  0
 18 42  1  0  0  0  0
 18 43  1  0  0  0  0
 18 44  1  0  0  0  0
 19 20  1  0  0  0  0
 19 45  1  0  0  0  0
 19 46  1  0  0  0  0
 20 47  1  0  0  0  0
 20 48  1  0  0  0  0
 21 22  1  0  0  0  0
 21 49  1  0  0  0  0
 21 50  1  0  0  0  0
 22 51  1  0  0  0  0
 22 52  1  0  0  0  0
 23 24  2  0  0  0  0
 23 53  1  0  0  0  0
M  CHG  1  13   1
M  CHG  1  17   1
M  END
> <s_m_source_file>
AV-unprocessed.smi

> <i_m_source_file_index>
2772

> <i_lp_mmshare_version>
43012

> <i_f3d_flags>
0

> <s_epik_input>
W0NIM11jMVtjSF1bY0hdYyhbY0hdbjEpW05IXUMoPU8pW05IXVtDSF0yW0NIMl1bQ0gyXU4oW0NIMl1bQ0gyXTIpW0NIXTNbQ0gyXVtDSDJdTihbQ0gzXSlbQ0gyXVtDSDJdMw==

> <s_epik_cmdline>
J2VwaWtfcHl0aG9uJywgJy1waCcsICc3LjAnLCAnLXRuJywgJzgnLCAnLW1hJywgJzIwMCcsICctbWV0YWxfYmluZGluZycsICctaW1hZScsICc8aW5maWxlLm1hZT4nLCAnLW9tYWUnLCAnPG91dGZpbGUubWFlPic=

> <r_epik_Ionization_Penalty>
0.196786

> <r_epik_Ionization_Penalty_Charging>
0.180787

> <r_epik_Ionization_Penalty_Neutral>
0.0159988

> <r_epik_State_Penalty>
0.163322

> <r_epik_Charging_Adjusted_Penalty>
0.344109

> <i_epik_Tot_Q>
2

> <i_epik_Tot_abs_Q>
2

> <r_epik_Metal_State_Penalty>
0.163596

> <b_epik_Metal_Only>
0

> <s_lp_Force_Field>
OPLS_2005

> <r_lp_Energy>
49.2909

> <b_lp_Chiralities_Consistent>
1

> <s_lp_Variant>
AV-unprocessed.smi:2772-3

> <Gold.Version>
5.8.1

> <Gold.Id.Protein>
6NUR|6NUR_protein|mol2

> <Gold.PLP.Fitness>
40.1788

> <Gold.PLP.PLP>
-33.2926

> <Gold.PLP.part.hbond>
-2.0000

> <Gold.PLP.part.metal>
0.0000

> <Gold.PLP.part.buried>
2.8675

> <Gold.PLP.part.nonpolar>
-34.2978

> <Gold.PLP.part.repulsive>
0.3929

> <Gold.PLP.ligand.clash>
0.0000

> <Gold.PLP.ligand.torsion>
1.2662

> <Gold.PLP.Chemscore.Hbond>
2.2272

> <Gold.PLP.Chemscore.CHOScore>
0.9028

> <Gold.PLP.Chemscore.Metal>
0.0000

> <Gold.Chemscore.Hbonds>
donor molecule, donor type, donor heavy atom, donor atom, acceptor molecule, acceptor atom, score
      L1  H     9    31       P1  7957  0.43
      L1  H    13    54       P1  7948  2.00
      L1  C    23    53       P1  8028  0.65

> <Gold.PLP.Chemscore.Internal.Correction>
0.0285

> <Gold.Rescore>
     Score         DG    S(hbond)    S(metal)    S(lipo)     H(rot)  DE(clash)    DE(int)     intcor
     13.87     -21.62       1.67        0.00     116.91       1.21       4.69       3.07       ----

> <Gold.Chemscore.Fitness>
13.8663

> <Gold.Chemscore.DG>
-21.6237

> <Gold.Chemscore.ZeroCoef>
-5.4800

> <Gold.Chemscore.Hbond>
1.6650

> <Gold.Chemscore.Metal>
0.0000

> <Gold.Chemscore.Lipo>
116.9057

> <Gold.Chemscore.Internal_Hbond>
0.0000

> <Gold.Chemscore.DEClash>
4.6872

> <Gold.Chemscore.DEInternal>
3.0702

> <Gold.Chemscore.Rot>
1.2092

> <Gold.Chemscore.Internal.Correction>
   9.000000E+99

> <Gold.Chemscore.Hbonds>
donor molecule, donor type, donor heavy atom, donor atom, acceptor molecule, acceptor atom, score
      L1  H     9    31       P1  7957  0.43
      L1  H    13    54       P1  7948  0.93

> <Gold.Chemscore.Hbond.Weighted>
-5.5612

> <Gold.Chemscore.Metal.Weighted>
-0.0000

> <Gold.Chemscore.Lipo.Weighted>
-13.6780

> <Gold.Chemscore.Internal_Hbond.Weighted>
0.0000

> <Gold.Chemscore.DEClash.Weighted>
4.6872

> <Gold.Chemscore.DEInternal.Weighted>
3.0702

> <Gold.Chemscore.Rot.Weighted>
3.0955

> <Gold.Chemscore.Internal.Correction.Weighted>
   9.000000E+99

> <Gold.Protein.RotatedTorsions>
[ 6907 6896 6895 6894 ] final -114.18 input  -60.11 | X-H torsion
[ 7974 7965 7964 7962 ] final  113.26 input  175.53 | X-H torsion
[ 8008 7997 7996 7995 ] final    5.86 input   59.86 | X-H torsion
[ 10167 10162 10161 10158 ] final  130.14 input  -65.29 | X-H torsion
[ 10718 10713 10712 10709 ] final   16.23 input   66.30 | X-H torsion
[ 10763 10752 10751 10750 ] final   73.19 input  -60.55 | X-H torsion
[ 11005 11000 10999 10996 ] final   31.76 input  -57.11 | X-H torsion

> <Gold.Protein.ActiveResidues>
 VAL166  LYS551  ARG553  GLY616  TRP617  ASP618  TYR619  PRO620  LYS621  CYS622 
 ASP623  PHE694  ASN695  SER759  ASP760  ASP761  ALA762  ILE779  LEU786  VAL792 
 PHE793  MET794  SER795  GLU796  ALA797  LYS798  CYS799  TRP800  GLU811  SER814 

> <Gold.Protein.RotatedAtoms>
  150.7883  133.8839  159.3293 H   0  0  0  0  0  0  0  0  0  0  0  0  # atno 6907 bound_to 6896
  151.6683  135.0978  160.0202 H   0  0  0  0  0  0  0  0  0  0  0  0  # atno 6908 bound_to 6896
  152.3952  133.6697  159.6305 H   0  0  0  0  0  0  0  0  0  0  0  0  # atno 6909 bound_to 6896
  145.2192  139.2870  143.4227 H   0  0  0  0  0  0  0  0  0  0  0  0  # atno 7974 bound_to 7965
  154.7337  140.2735  155.6433 H   0  0  0  0  0  0  0  0  0  0  0  0  # atno 8008 bound_to 7997
  156.2856  140.2710  156.1970 H   0  0  0  0  0  0  0  0  0  0  0  0  # atno 8009 bound_to 7997
  155.0348  140.0371  157.2477 H   0  0  0  0  0  0  0  0  0  0  0  0  # atno 8010 bound_to 7997
  139.5444  144.6760  151.4521 H   0  0  0  0  0  0  0  0  0  0  0  0  # atno 10167 bound_to 10162
  157.0649  130.6324  149.5793 H   0  0  0  0  0  0  0  0  0  0  0  0  # atno 10718 bound_to 10713
  153.0506  135.5072  154.7857 H   0  0  0  0  0  0  0  0  0  0  0  0  # atno 10763 bound_to 10752
  154.6722  135.2955  154.9729 H   0  0  0  0  0  0  0  0  0  0  0  0  # atno 10764 bound_to 10752
  154.0543  135.6699  153.4856 H   0  0  0  0  0  0  0  0  0  0  0  0  # atno 10765 bound_to 10752
  140.2805  134.2978  155.7802 H   0  0  0  0  0  0  0  0  0  0  0  0  # atno 11005 bound_to 11000
  146.3380  140.2493  142.8598 LP  0  0  0  0  0  0  0  0  0  0  0  0  # atno 17320 bound_to 7965
  144.9781  140.8433  143.5414 LP  0  0  0  0  0  0  0  0  0  0  0  0  # atno 17321 bound_to 7965
  140.6686  143.8342  150.6972 LP  0  0  0  0  0  0  0  0  0  0  0  0  # atno 17342 bound_to 10162
  140.1760  143.4155  152.1967 LP  0  0  0  0  0  0  0  0  0  0  0  0  # atno 17343 bound_to 10162
  155.9967  130.5037  150.7507 LP  0  0  0  0  0  0  0  0  0  0  0  0  # atno 17370 bound_to 10713
  157.4924  131.0912  151.0411 LP  0  0  0  0  0  0  0  0  0  0  0  0  # atno 17371 bound_to 10713
  141.2163  133.7522  156.9473 LP  0  0  0  0  0  0  0  0  0  0  0  0  # atno 17394 bound_to 11000
  140.1288  134.9369  157.2308 LP  0  0  0  0  0  0  0  0  0  0  0  0  # atno 17395 bound_to 11000

$$$$
