AV-unprocessed.smi:2068|AV-procd|sdf|8428|dock8
  -GOLD-   2272011123D 1   1.00000     0.00000
 Structure written by MMmdl.
 33 34  0  0  0  0  0  0  0  0  1 V2000
  144.9628  138.9817  154.2177 N   0  0  0  0  0  0  0  0  0  0  0  0
  146.1909  138.4568  154.2419 C   0  0  0  0  0  0  0  0  0  0  0  0
  146.5067  137.5562  155.0169 O   0  0  0  0  0  0  0  0  0  0  0  0
  147.2116  139.0219  153.2523 C   0  0  0  0  0  0  0  0  0  0  0  0
  148.4572  139.4456  153.9748 C   0  0  0  0  0  0  0  0  0  0  0  0
  149.6003  138.7037  154.1529 C   0  0  0  0  0  0  0  0  0  0  0  0
  150.8126  139.5744  155.0538 S   0  0  0  0  0  0  0  0  0  0  0  0
  149.7045  140.9336  155.1561 C   0  0  0  0  0  0  0  0  0  0  0  0
  150.0470  142.1341  155.8311 N   0  0  0  0  0  0  0  0  0  0  0  0
  150.9873  142.3200  156.7766 C   0  0  0  0  0  0  0  0  0  0  0  0
  151.7076  141.4309  157.2318 O   0  0  0  0  0  0  0  0  0  0  0  0
  151.1360  143.7541  157.2976 C   0  0  0  0  0  0  0  0  0  0  0  0
  152.2257  143.9077  158.3810 C   0  0  1  0  0  0  0  0  0  0  0  0
  152.1928  145.2427  159.0858 C   0  0  0  0  0  0  0  0  0  0  0  0
  152.1100  145.1246  160.4087 C   0  0  0  0  0  0  0  0  0  0  0  0
  152.0688  143.6905  160.8577 C   0  0  0  0  0  0  0  0  0  0  0  0
  152.0808  142.8862  159.5383 C   0  0  0  0  0  0  0  0  0  0  0  0
  148.5329  140.7198  154.5473 N   0  0  0  0  0  0  0  0  0  0  0  0
  144.2609  138.6471  154.8617 H   0  0  0  0  0  0  0  0  0  0  0  0
  144.7436  139.7196  153.5638 H   0  0  0  0  0  0  0  0  0  0  0  0
  147.4423  138.2627  152.5038 H   0  0  0  0  0  0  0  0  0  0  0  0
  146.7693  139.8603  152.7120 H   0  0  0  0  0  0  0  0  0  0  0  0
  149.7995  137.6986  153.8119 H   0  0  0  0  0  0  0  0  0  0  0  0
  149.5292  142.9535  155.5488 H   0  0  0  0  0  0  0  0  0  0  0  0
  151.3500  144.4265  156.4649 H   0  0  0  0  0  0  0  0  0  0  0  0
  150.1724  144.0652  157.7025 H   0  0  0  0  0  0  0  0  0  0  0  0
  153.2132  143.8005  157.9293 H   0  0  0  0  0  0  0  0  0  0  0  0
  152.2478  146.1800  158.5514 H   0  0  0  0  0  0  0  0  0  0  0  0
  152.0838  145.9480  161.1070 H   0  0  0  0  0  0  0  0  0  0  0  0
  152.9393  143.4676  161.4754 H   0  0  0  0  0  0  0  0  0  0  0  0
  151.1678  143.4986  161.4411 H   0  0  0  0  0  0  0  0  0  0  0  0
  151.1559  142.3154  159.4454 H   0  0  0  0  0  0  0  0  0  0  0  0
  152.8996  142.1656  159.5270 H   0  0  0  0  0  0  0  0  0  0  0  0
  1  2  1  0  0  0  0
  1 19  1  0  0  0  0
  1 20  1  0  0  0  0
  2  3  2  0  0  0  0
  2  4  1  0  0  0  0
  4  5  1  0  0  0  0
  4 21  1  0  0  0  0
  4 22  1  0  0  0  0
  5 18  1  0  0  0  0
  5  6  2  0  0  0  0
  6  7  1  0  0  0  0
  6 23  1  0  0  0  0
  7  8  1  0  0  0  0
  8  9  1  0  0  0  0
  8 18  2  0  0  0  0
  9 10  1  0  0  0  0
  9 24  1  0  0  0  0
 10 11  2  0  0  0  0
 10 12  1  0  0  0  0
 12 13  1  0  0  0  0
 12 25  1  0  0  0  0
 12 26  1  0  0  0  0
 13 17  1  0  0  0  0
 13 14  1  0  0  0  0
 13 27  1  0  0  0  0
 14 15  2  0  0  0  0
 14 28  1  0  0  0  0
 15 16  1  0  0  0  0
 15 29  1  0  0  0  0
 16 17  1  0  0  0  0
 16 30  1  0  0  0  0
 16 31  1  0  0  0  0
 17 32  1  0  0  0  0
 17 33  1  0  0  0  0
M  END
> <s_m_source_file>
AV-unprocessed.smi

> <i_m_source_file_index>
2068

> <i_lp_mmshare_version>
43012

> <i_f3d_flags>
0

> <s_epik_input>
W05IMl1DKD1PKVtDSDJdYzFbY0hdc2MobjEpW05IXUMoPU8pW0NIMl1bQ0BASF0yW0NIXT1bQ0hdW0NIMl1bQ0gyXTI=

> <s_epik_cmdline>
J2VwaWtfcHl0aG9uJywgJy1waCcsICc3LjAnLCAnLXRuJywgJzgnLCAnLW1hJywgJzIwMCcsICctbWV0YWxfYmluZGluZycsICctaW1hZScsICc8aW5maWxlLm1hZT4nLCAnLW9tYWUnLCAnPG91dGZpbGUubWFlPic=

> <r_lp_tautomer_probability>
1

> <r_epik_Ionization_Penalty>
0.000253249

> <r_epik_Ionization_Penalty_Charging>
0

> <r_epik_Ionization_Penalty_Neutral>
0.000253249

> <r_epik_State_Penalty>
-0

> <r_epik_Charging_Adjusted_Penalty>
0

> <i_epik_Tot_Q>
0

> <i_epik_Tot_abs_Q>
0

> <r_epik_Metal_State_Penalty>
0.148671

> <b_epik_Metal_Only>
0

> <s_lp_Force_Field>
OPLS_2005

> <r_lp_Energy>
16.4011

> <b_lp_Chiralities_Consistent>
1

> <s_lp_Variant>
AV-unprocessed.smi:2068-2

> <Gold.Version>
5.8.1

> <Gold.Id.Protein>
6NUR|6NUR_protein|mol2

> <Gold.PLP.Fitness>
45.9912

> <Gold.PLP.PLP>
-38.0927

> <Gold.PLP.part.hbond>
-2.0000

> <Gold.PLP.part.metal>
0.0000

> <Gold.PLP.part.buried>
0.7441

> <Gold.PLP.part.nonpolar>
-35.8589

> <Gold.PLP.part.repulsive>
0.3274

> <Gold.PLP.ligand.clash>
0.0000

> <Gold.PLP.ligand.torsion>
0.5492

> <Gold.PLP.Chemscore.Hbond>
1.9920

> <Gold.PLP.Chemscore.CHOScore>
1.0000

> <Gold.PLP.Chemscore.Metal>
0.0000

> <Gold.Chemscore.Hbonds>
donor molecule, donor type, donor heavy atom, donor atom, acceptor molecule, acceptor atom, score
      L1  H     1    20       P1 10175  1.00
      L1  H     9    24       P1  8028  1.00
      L1  C     6    23       P1  7948  0.95

> <Gold.PLP.Chemscore.Internal.Correction>
0.0208

> <Gold.Rescore>
     Score         DG    S(hbond)    S(metal)    S(lipo)     H(rot)  DE(clash)    DE(int)     intcor
     14.87     -17.99       1.97        0.00      98.76       2.21       0.21       2.91       ----

> <Gold.Chemscore.Fitness>
14.8706

> <Gold.Chemscore.DG>
-17.9858

> <Gold.Chemscore.ZeroCoef>
-5.4800

> <Gold.Chemscore.Hbond>
1.9749

> <Gold.Chemscore.Metal>
0.0000

> <Gold.Chemscore.Lipo>
98.7628

> <Gold.Chemscore.Internal_Hbond>
0.0000

> <Gold.Chemscore.DEClash>
0.2095

> <Gold.Chemscore.DEInternal>
2.9058

> <Gold.Chemscore.Rot>
2.2053

> <Gold.Chemscore.Internal.Correction>
   9.000000E+99

> <Gold.Chemscore.Hbonds>
donor molecule, donor type, donor heavy atom, donor atom, acceptor molecule, acceptor atom, score
      L1  H     1    20       P1 10175  0.95
      L1  H     9    24       P1  8028  0.99

> <Gold.Chemscore.Hbond.Weighted>
-6.5962

> <Gold.Chemscore.Metal.Weighted>
-0.0000

> <Gold.Chemscore.Lipo.Weighted>
-11.5552

> <Gold.Chemscore.Internal_Hbond.Weighted>
0.0000

> <Gold.Chemscore.DEClash.Weighted>
0.2095

> <Gold.Chemscore.DEInternal.Weighted>
2.9058

> <Gold.Chemscore.Rot.Weighted>
5.6456

> <Gold.Chemscore.Internal.Correction.Weighted>
   9.000000E+99

> <Gold.Protein.RotatedTorsions>
[ 6907 6896 6895 6894 ] final   47.79 input  -60.11 | X-H torsion
[ 7974 7965 7964 7962 ] final  141.04 input  175.53 | X-H torsion
[ 8008 7997 7996 7995 ] final   80.42 input   59.86 | X-H torsion
[ 10167 10162 10161 10158 ] final  169.55 input  -65.29 | X-H torsion
[ 10718 10713 10712 10709 ] final -111.96 input   66.30 | X-H torsion
[ 10763 10752 10751 10750 ] final -151.87 input  -60.55 | X-H torsion
[ 11005 11000 10999 10996 ] final   96.38 input  -57.11 | X-H torsion

> <Gold.Protein.ActiveResidues>
 VAL166  LYS551  ARG553  GLY616  TRP617  ASP618  TYR619  PRO620  LYS621  CYS622 
 ASP623  PHE694  ASN695  SER759  ASP760  ASP761  ALA762  ILE779  LEU786  VAL792 
 PHE793  MET794  SER795  GLU796  ALA797  LYS798  CYS799  TRP800  GLU811  SER814 

> <Gold.Protein.RotatedAtoms>
  152.2722  134.7921  160.0411 H   0  0  0  0  0  0  0  0  0  0  0  0  # atno 6907 bound_to 6896
  151.8529  133.3438  159.3687 H   0  0  0  0  0  0  0  0  0  0  0  0  # atno 6908 bound_to 6896
  150.7156  134.5209  159.5697 H   0  0  0  0  0  0  0  0  0  0  0  0  # atno 6909 bound_to 6896
  144.9132  139.5265  143.5699 H   0  0  0  0  0  0  0  0  0  0  0  0  # atno 7974 bound_to 7965
  155.8833  140.3443  155.5903 H   0  0  0  0  0  0  0  0  0  0  0  0  # atno 8008 bound_to 7997
  155.7695  140.0843  157.2134 H   0  0  0  0  0  0  0  0  0  0  0  0  # atno 8009 bound_to 7997
  154.4026  140.1521  156.2913 H   0  0  0  0  0  0  0  0  0  0  0  0  # atno 8010 bound_to 7997
  139.4995  144.3694  151.9741 H   0  0  0  0  0  0  0  0  0  0  0  0  # atno 10167 bound_to 10162
  156.0678  130.5895  150.8445 H   0  0  0  0  0  0  0  0  0  0  0  0  # atno 10718 bound_to 10713
  154.8030  135.3249  154.7501 H   0  0  0  0  0  0  0  0  0  0  0  0  # atno 10763 bound_to 10752
  153.8165  135.6891  153.4837 H   0  0  0  0  0  0  0  0  0  0  0  0  # atno 10764 bound_to 10752
  153.1759  135.4605  154.9908 H   0  0  0  0  0  0  0  0  0  0  0  0  # atno 10765 bound_to 10752
  139.8782  134.8948  156.4150 H   0  0  0  0  0  0  0  0  0  0  0  0  # atno 11005 bound_to 11000
  146.3169  139.7954  142.8976 LP  0  0  0  0  0  0  0  0  0  0  0  0  # atno 17320 bound_to 7965
  145.3419  141.0289  143.3387 LP  0  0  0  0  0  0  0  0  0  0  0  0  # atno 17321 bound_to 7965
  140.3130  144.3516  150.6029 LP  0  0  0  0  0  0  0  0  0  0  0  0  # atno 17342 bound_to 10162
  140.5783  143.2174  151.7474 LP  0  0  0  0  0  0  0  0  0  0  0  0  # atno 17343 bound_to 10162
  157.5730  131.0946  150.9389 LP  0  0  0  0  0  0  0  0  0  0  0  0  # atno 17370 bound_to 10713
  156.9601  130.5452  149.5285 LP  0  0  0  0  0  0  0  0  0  0  0  0  # atno 17371 bound_to 10713
  140.9174  133.7669  155.9864 LP  0  0  0  0  0  0  0  0  0  0  0  0  # atno 17394 bound_to 11000
  140.8479  134.2989  157.5287 LP  0  0  0  0  0  0  0  0  0  0  0  0  # atno 17395 bound_to 11000

$$$$
