AV-unprocessed.smi:3139|AV-procd|sdf|11957|dock9
  -GOLD-   2272017353D 1   1.00000     0.00000
 Structure written by MMmdl.
 33 33  0  0  0  0  0  0  0  0  2 V2000
  153.2956  141.9908  161.9875 C   0  0  0  0  0  0  0  0  0  0  0  0
  153.5105  142.2759  160.4859 C   0  0  1  0  0  0  0  0  0  0  0  0
  153.1980  141.0614  159.6003 C   0  0  0  0  0  0  0  0  0  0  0  0
  152.1655  141.0165  158.9302 O   0  0  0  0  0  0  0  0  0  0  0  0
  154.1326  140.0990  159.5840 N   0  0  0  0  0  0  0  0  0  0  0  0
  154.1710  138.9536  158.6765 C   0  0  0  0  0  0  0  0  0  0  0  0
  153.3498  137.7360  159.1927 C   0  0  0  0  0  0  0  0  0  0  0  0
  153.6901  137.4867  160.6764 C   0  0  0  0  0  0  0  0  0  0  0  0
  151.8340  138.0299  159.0714 C   0  0  0  0  0  0  0  0  0  0  0  0
  153.7188  136.4596  158.3905 C   0  0  0  0  0  0  0  0  0  0  0  0
  153.5093  136.4406  157.1566 O   0  0  0  0  0  0  0  0  0  0  0  0
  154.2204  135.5103  159.0337 O   0  5  0  0  0  0  0  0  0  0  0  0
  152.7539  143.4303  160.0092 N   0  0  0  0  0  0  0  0  0  0  0  0
  152.6725  143.9106  158.7170 C   0  0  0  0  0  0  0  0  0  0  0  0
  151.8001  144.9604  158.7206 C   0  0  0  0  0  0  0  0  0  0  0  0
  151.3765  145.0413  160.0756 C   0  0  0  0  0  0  0  0  0  0  0  0
  151.9400  144.1216  160.8413 N   0  0  0  0  0  0  0  0  0  0  0  0
  153.9247  141.1656  162.3227 H   0  0  0  0  0  0  0  0  0  0  0  0
  152.2613  141.7281  162.2138 H   0  0  0  0  0  0  0  0  0  0  0  0
  153.5544  142.8630  162.5884 H   0  0  0  0  0  0  0  0  0  0  0  0
  154.5673  142.5141  160.3543 H   0  0  0  0  0  0  0  0  0  0  0  0
  154.9429  140.2237  160.1736 H   0  0  0  0  0  0  0  0  0  0  0  0
  153.7719  139.2932  157.7197 H   0  0  0  0  0  0  0  0  0  0  0  0
  155.2000  138.6543  158.4705 H   0  0  0  0  0  0  0  0  0  0  0  0
  153.4217  138.3469  161.2903 H   0  0  0  0  0  0  0  0  0  0  0  0
  154.7556  137.3043  160.8237 H   0  0  0  0  0  0  0  0  0  0  0  0
  153.1514  136.6239  161.0707 H   0  0  0  0  0  0  0  0  0  0  0  0
  151.5696  138.9476  159.5974 H   0  0  0  0  0  0  0  0  0  0  0  0
  151.2329  137.2279  159.5020 H   0  0  0  0  0  0  0  0  0  0  0  0
  151.5210  138.1526  158.0335 H   0  0  0  0  0  0  0  0  0  0  0  0
  153.2297  143.4630  157.9070 H   0  0  0  0  0  0  0  0  0  0  0  0
  151.5007  145.5679  157.8798 H   0  0  0  0  0  0  0  0  0  0  0  0
  150.6757  145.7316  160.5212 H   0  0  0  0  0  0  0  0  0  0  0  0
  1  2  1  0  0  0  0
  1 18  1  0  0  0  0
  1 19  1  0  0  0  0
  1 20  1  0  0  0  0
  2  3  1  0  0  0  0
  2 13  1  0  0  0  0
  2 21  1  0  0  0  0
  3  4  2  0  0  0  0
  3  5  1  0  0  0  0
  5  6  1  0  0  0  0
  5 22  1  0  0  0  0
  6  7  1  0  0  0  0
  6 23  1  0  0  0  0
  6 24  1  0  0  0  0
  7  8  1  0  0  0  0
  7  9  1  0  0  0  0
  7 10  1  0  0  0  0
  8 25  1  0  0  0  0
  8 26  1  0  0  0  0
  8 27  1  0  0  0  0
  9 28  1  0  0  0  0
  9 29  1  0  0  0  0
  9 30  1  0  0  0  0
 10 11  2  0  0  0  0
 10 12  1  0  0  0  0
 13 17  1  0  0  0  0
 13 14  1  0  0  0  0
 14 15  2  0  0  0  0
 14 31  1  0  0  0  0
 15 16  1  0  0  0  0
 15 32  1  0  0  0  0
 16 17  2  0  0  0  0
 16 33  1  0  0  0  0
M  CHG  1  12  -1
M  END
> <s_m_source_file>
AV-unprocessed.smi

> <i_m_source_file_index>
3139

> <i_lp_mmshare_version>
43012

> <i_f3d_flags>
0

> <s_epik_input>
bjFbY0hdW2NIXVtjSF1uMVtDQEhdKFtDSDNdKUMoPU8pW05IXVtDSDJdQyhbQ0gzXSkoW0NIM10pQyg9TylbT0hd

> <s_epik_cmdline>
J2VwaWtfcHl0aG9uJywgJy1waCcsICc3LjAnLCAnLXRuJywgJzgnLCAnLW1hJywgJzIwMCcsICctbWV0YWxfYmluZGluZycsICctaW1hZScsICc8aW5maWxlLm1hZT4nLCAnLW9tYWUnLCAnPG91dGZpbGUubWFlPic=

> <r_lp_tautomer_probability>
1

> <r_epik_Ionization_Penalty>
0.00184643

> <r_epik_Ionization_Penalty_Charging>
0.00181045

> <r_epik_Ionization_Penalty_Neutral>
3.59763e-05

> <r_epik_State_Penalty>
0.00122842

> <r_epik_Charging_Adjusted_Penalty>
0.00303887

> <i_epik_Tot_Q>
-1

> <i_epik_Tot_abs_Q>
1

> <r_epik_Metal_State_Penalty>
-0

> <b_epik_Metal_Only>
0

> <s_lp_Force_Field>
OPLS_2005

> <r_lp_Energy>
4.69511

> <b_lp_Chiralities_Consistent>
1

> <s_lp_Variant>
AV-unprocessed.smi:3139-2

> <Gold.Version>
5.8.1

> <Gold.Id.Protein>
6NUR|6NUR_protein|mol2

> <Gold.PLP.Fitness>
46.7075

> <Gold.PLP.PLP>
-36.4301

> <Gold.PLP.part.hbond>
-2.0000

> <Gold.PLP.part.metal>
0.0000

> <Gold.PLP.part.buried>
-3.5222

> <Gold.PLP.part.nonpolar>
-30.6828

> <Gold.PLP.part.repulsive>
0.1966

> <Gold.PLP.ligand.clash>
0.0000

> <Gold.PLP.ligand.torsion>
0.9016

> <Gold.PLP.Chemscore.Hbond>
3.9825

> <Gold.PLP.Chemscore.CHOScore>
0.0000

> <Gold.PLP.Chemscore.Metal>
0.0000

> <Gold.Chemscore.Hbonds>
donor molecule, donor type, donor heavy atom, donor atom, acceptor molecule, acceptor atom, score
      P1  H  6896  6907       L1    12  1.37
      P1  H 10752 10765       L1    11  1.76

> <Gold.PLP.Chemscore.Internal.Correction>
0.1331

> <Gold.Rescore>
     Score         DG    S(hbond)    S(metal)    S(lipo)     H(rot)  DE(clash)    DE(int)     intcor
     13.03     -15.22       1.84        0.00      81.62       2.32       0.03       2.16       ----

> <Gold.Chemscore.Fitness>
13.0306

> <Gold.Chemscore.DG>
-15.2152

> <Gold.Chemscore.ZeroCoef>
-5.4800

> <Gold.Chemscore.Hbond>
1.8371

> <Gold.Chemscore.Metal>
0.0000

> <Gold.Chemscore.Lipo>
81.6161

> <Gold.Chemscore.Internal_Hbond>
0.0000

> <Gold.Chemscore.DEClash>
0.0270

> <Gold.Chemscore.DEInternal>
2.1576

> <Gold.Chemscore.Rot>
2.3241

> <Gold.Chemscore.Internal.Correction>
   9.000000E+99

> <Gold.Chemscore.Hbonds>
donor molecule, donor type, donor heavy atom, donor atom, acceptor molecule, acceptor atom, score
      P1  H  6896  6907       L1    12  0.29
      P1  H 10752 10765       L1    11  0.85

> <Gold.Chemscore.Hbond.Weighted>
-6.1359

> <Gold.Chemscore.Metal.Weighted>
-0.0000

> <Gold.Chemscore.Lipo.Weighted>
-9.5491

> <Gold.Chemscore.Internal_Hbond.Weighted>
0.0000

> <Gold.Chemscore.DEClash.Weighted>
0.0270

> <Gold.Chemscore.DEInternal.Weighted>
2.1576

> <Gold.Chemscore.Rot.Weighted>
5.9498

> <Gold.Chemscore.Internal.Correction.Weighted>
   9.000000E+99

> <Gold.Protein.RotatedTorsions>
[ 6907 6896 6895 6894 ] final   67.70 input  -60.11 | X-H torsion
[ 7974 7965 7964 7962 ] final  144.31 input  175.53 | X-H torsion
[ 8008 7997 7996 7995 ] final -117.77 input   59.86 | X-H torsion
[ 10167 10162 10161 10158 ] final  -13.21 input  -65.29 | X-H torsion
[ 10718 10713 10712 10709 ] final   29.95 input   66.30 | X-H torsion
[ 10763 10752 10751 10750 ] final -113.61 input  -60.55 | X-H torsion
[ 11005 11000 10999 10996 ] final  -55.61 input  -57.11 | X-H torsion

> <Gold.Protein.ActiveResidues>
 VAL166  LYS551  ARG553  GLY616  TRP617  ASP618  TYR619  PRO620  LYS621  CYS622 
 ASP623  PHE694  ASN695  SER759  ASP760  ASP761  ALA762  ILE779  LEU786  VAL792 
 PHE793  MET794  SER795  GLU796  ALA797  LYS798  CYS799  TRP800  GLU811  SER814 

> <Gold.Protein.RotatedAtoms>
  152.4570  134.5270  159.9799 H   0  0  0  0  0  0  0  0  0  0  0  0  # atno 6907 bound_to 6896
  151.5328  133.3440  159.2929 H   0  0  0  0  0  0  0  0  0  0  0  0  # atno 6908 bound_to 6896
  150.8518  134.7875  159.7077 H   0  0  0  0  0  0  0  0  0  0  0  0  # atno 6909 bound_to 6896
  144.8846  139.5648  143.5827 H   0  0  0  0  0  0  0  0  0  0  0  0  # atno 7974 bound_to 7965
  155.0890  140.0395  157.2662 H   0  0  0  0  0  0  0  0  0  0  0  0  # atno 8008 bound_to 7997
  154.6847  140.2640  155.6848 H   0  0  0  0  0  0  0  0  0  0  0  0  # atno 8009 bound_to 7997
  156.2707  140.2771  156.1404 H   0  0  0  0  0  0  0  0  0  0  0  0  # atno 8010 bound_to 7997
  140.7177  143.5451  150.9365 H   0  0  0  0  0  0  0  0  0  0  0  0  # atno 10167 bound_to 10162
  157.2532  130.7125  149.6416 H   0  0  0  0  0  0  0  0  0  0  0  0  # atno 10718 bound_to 10713
  154.8404  135.4448  154.1376 H   0  0  0  0  0  0  0  0  0  0  0  0  # atno 10763 bound_to 10752
  153.2570  135.6932  153.7625 H   0  0  0  0  0  0  0  0  0  0  0  0  # atno 10764 bound_to 10752
  153.6916  135.3386  155.3179 H   0  0  0  0  0  0  0  0  0  0  0  0  # atno 10765 bound_to 10752
  141.1082  133.6612  156.4495 H   0  0  0  0  0  0  0  0  0  0  0  0  # atno 11005 bound_to 11000
  146.3016  139.7446  142.9087 LP  0  0  0  0  0  0  0  0  0  0  0  0  # atno 17320 bound_to 7965
  145.3892  141.0370  143.3134 LP  0  0  0  0  0  0  0  0  0  0  0  0  # atno 17321 bound_to 7965
  139.9174  143.6647  152.3103 LP  0  0  0  0  0  0  0  0  0  0  0  0  # atno 17342 bound_to 10162
  139.7052  144.7629  151.1206 LP  0  0  0  0  0  0  0  0  0  0  0  0  # atno 17343 bound_to 10162
  155.9665  130.4421  150.5367 LP  0  0  0  0  0  0  0  0  0  0  0  0  # atno 17370 bound_to 10713
  157.3255  131.0690  151.1900 LP  0  0  0  0  0  0  0  0  0  0  0  0  # atno 17371 bound_to 10713
  140.4847  134.6631  157.5186 LP  0  0  0  0  0  0  0  0  0  0  0  0  # atno 17394 bound_to 11000
  139.9962  134.6908  155.9606 LP  0  0  0  0  0  0  0  0  0  0  0  0  # atno 17395 bound_to 11000

$$$$
