AV-unprocessed.smi:1428|AV-procd|sdf|5815|dock1
  -GOLD-   22720 5473D 1   1.00000     0.00000
 Structure written by MMmdl.
 44 45  0  0  0  0  0  0  0  0  2 V2000
  151.6401  138.2326  154.4331 C   0  0  0  0  0  0  0  0  0  0  0  0
  150.2613  138.1350  154.0930 O   0  0  0  0  0  0  0  0  0  0  0  0
  149.4778  139.2700  154.1831 C   0  0  0  0  0  0  0  0  0  0  0  0
  150.0528  140.4189  154.6189 N   0  0  0  0  0  0  0  0  0  0  0  0
  149.2896  141.5278  154.7030 C   0  0  0  0  0  0  0  0  0  0  0  0
  147.9273  141.5536  154.3531 C   0  0  0  0  0  0  0  0  0  0  0  0
  147.3283  140.3634  153.9012 C   0  0  0  0  0  0  0  0  0  0  0  0
  148.1123  139.1867  153.8236 C   0  0  0  0  0  0  0  0  0  0  0  0
  147.6142  137.9353  153.3681 N   0  0  0  0  0  0  0  0  0  0  0  0
  146.3477  137.4874  153.3721 C   0  0  0  0  0  0  0  0  0  0  0  0
  145.3664  138.1228  153.7563 O   0  0  0  0  0  0  0  0  0  0  0  0
  146.2808  136.2273  152.9189 N   0  0  0  0  0  0  0  0  0  0  0  0
  145.0599  135.4288  152.8155 C   0  0  2  0  0  0  0  0  0  0  0  0
  144.3046  135.3592  154.1581 C   0  0  0  0  0  0  0  0  0  0  0  0
  145.0560  134.5077  155.1960 C   0  0  0  0  0  0  0  0  0  0  0  0
  145.3195  133.1395  154.6754 N   0  3  2  0  0  0  0  0  0  0  0  0
  145.9192  132.2356  155.6905 C   0  0  0  0  0  0  0  0  0  0  0  0
  145.3078  132.4114  157.0843 C   0  0  0  0  0  0  0  0  0  0  0  0
  143.9920  132.2146  157.1944 N   0  0  0  0  0  0  0  0  0  0  0  0
  146.0051  132.7352  158.0441 O   0  0  0  0  0  0  0  0  0  0  0  0
  146.1048  133.1765  153.4151 C   0  0  0  0  0  0  0  0  0  0  0  0
  145.3876  134.0050  152.3329 C   0  0  0  0  0  0  0  0  0  0  0  0
  152.1136  137.2600  154.2996 H   0  0  0  0  0  0  0  0  0  0  0  0
  151.7738  138.5251  155.4754 H   0  0  0  0  0  0  0  0  0  0  0  0
  152.1607  138.9444  153.7908 H   0  0  0  0  0  0  0  0  0  0  0  0
  149.7817  142.4231  155.0532 H   0  0  0  0  0  0  0  0  0  0  0  0
  147.3557  142.4670  154.4255 H   0  0  0  0  0  0  0  0  0  0  0  0
  146.2890  140.3809  153.6118 H   0  0  0  0  0  0  0  0  0  0  0  0
  148.3204  137.2690  153.0914 H   0  0  0  0  0  0  0  0  0  0  0  0
  147.1398  135.7886  152.6209 H   0  0  0  0  0  0  0  0  0  0  0  0
  144.4143  135.8990  152.0712 H   0  0  0  0  0  0  0  0  0  0  0  0
  144.1267  136.3595  154.5538 H   0  0  0  0  0  0  0  0  0  0  0  0
  143.3181  134.9249  153.9900 H   0  0  0  0  0  0  0  0  0  0  0  0
  145.9990  134.9853  155.4660 H   0  0  0  0  0  0  0  0  0  0  0  0
  144.4610  134.4548  156.1079 H   0  0  0  0  0  0  0  0  0  0  0  0
  145.7461  131.1970  155.4049 H   0  0  0  0  0  0  0  0  0  0  0  0
  147.0013  132.3752  155.7243 H   0  0  0  0  0  0  0  0  0  0  0  0
  143.5362  132.3136  158.0903 H   0  0  0  0  0  0  0  0  0  0  0  0
  143.4531  131.9624  156.3779 H   0  0  0  0  0  0  0  0  0  0  0  0
  147.0963  133.5859  153.6146 H   0  0  0  0  0  0  0  0  0  0  0  0
  146.2521  132.1615  153.0442 H   0  0  0  0  0  0  0  0  0  0  0  0
  144.4607  133.5004  152.0565 H   0  0  0  0  0  0  0  0  0  0  0  0
  145.9927  134.0423  151.4261 H   0  0  0  0  0  0  0  0  0  0  0  0
  144.4231  132.7373  154.4396 H   0  0  0  0  0  0  0  0  0  0  0  0
  1  2  1  0  0  0  0
  1 23  1  0  0  0  0
  1 24  1  0  0  0  0
  1 25  1  0  0  0  0
  2  3  1  0  0  0  0
  3  8  1  0  0  0  0
  3  4  2  0  0  0  0
  4  5  1  0  0  0  0
  5  6  2  0  0  0  0
  5 26  1  0  0  0  0
  6  7  1  0  0  0  0
  6 27  1  0  0  0  0
  7  8  2  0  0  0  0
  7 28  1  0  0  0  0
  8  9  1  0  0  0  0
  9 10  1  0  0  0  0
  9 29  1  0  0  0  0
 10 11  2  0  0  0  0
 10 12  1  0  0  0  0
 12 13  1  0  0  0  0
 12 30  1  0  0  0  0
 13 22  1  0  0  0  0
 13 14  1  0  0  0  0
 13 31  1  0  0  0  0
 14 15  1  0  0  0  0
 14 32  1  0  0  0  0
 14 33  1  0  0  0  0
 15 16  1  0  0  0  0
 15 34  1  0  0  0  0
 15 35  1  0  0  0  0
 16 17  1  0  0  0  0
 16 21  1  0  0  0  0
 16 44  1  0  0  0  0
 17 18  1  0  0  0  0
 17 36  1  0  0  0  0
 17 37  1  0  0  0  0
 18 19  1  0  0  0  0
 18 20  2  0  0  0  0
 19 38  1  0  0  0  0
 19 39  1  0  0  0  0
 21 22  1  0  0  0  0
 21 40  1  0  0  0  0
 21 41  1  0  0  0  0
 22 42  1  0  0  0  0
 22 43  1  0  0  0  0
M  CHG  1  16   1
M  END
> <s_m_source_file>
AV-unprocessed.smi

> <i_m_source_file_index>
1428

> <i_lp_mmshare_version>
43012

> <i_f3d_flags>
0

> <s_epik_input>
W0NIM11PYzFuW2NIXVtjSF1bY0hdYzFbTkhdQyg9TylbTkhdW0NIXTJbQ0gyXVtDSDJdTihbQ0gyXVtDSDJdMilbQ0gyXUMoPU8pW05IMl0=

> <s_epik_cmdline>
J2VwaWtfcHl0aG9uJywgJy1waCcsICc3LjAnLCAnLXRuJywgJzgnLCAnLW1hJywgJzIwMCcsICctbWV0YWxfYmluZGluZycsICctaW1hZScsICc8aW5maWxlLm1hZT4nLCAnLW9tYWUnLCAnPG91dGZpbGUubWFlPic=

> <r_lp_tautomer_probability>
1

> <r_epik_Ionization_Penalty>
0.838963

> <r_epik_Ionization_Penalty_Charging>
0.838844

> <r_epik_Ionization_Penalty_Neutral>
0.000119189

> <r_epik_State_Penalty>
0.8734

> <r_epik_Charging_Adjusted_Penalty>
1.71224

> <i_epik_Tot_Q>
1

> <i_epik_Tot_abs_Q>
1

> <r_epik_Metal_State_Penalty>
0.890706

> <b_epik_Metal_Only>
0

> <s_lp_Force_Field>
OPLS_2005

> <r_lp_Energy>
14.3057

> <b_lp_Chiralities_Consistent>
1

> <s_lp_Variant>
AV-unprocessed.smi:1428-3

> <Gold.Version>
5.8.1

> <Gold.Id.Protein>
6NUR|6NUR_protein|mol2

> <Gold.PLP.Fitness>
45.7451

> <Gold.PLP.PLP>
-25.9692

> <Gold.PLP.part.hbond>
-5.0000

> <Gold.PLP.part.metal>
0.0000

> <Gold.PLP.part.buried>
-4.2226

> <Gold.PLP.part.nonpolar>
-18.4842

> <Gold.PLP.part.repulsive>
0.5600

> <Gold.PLP.ligand.clash>
0.0000

> <Gold.PLP.ligand.torsion>
0.2804

> <Gold.PLP.Chemscore.Hbond>
5.7520

> <Gold.PLP.Chemscore.CHOScore>
1.0000

> <Gold.PLP.Chemscore.Metal>
0.0000

> <Gold.Chemscore.Hbonds>
donor molecule, donor type, donor heavy atom, donor atom, acceptor molecule, acceptor atom, score
      L1  H     9    29       P1  7948  0.96
      L1  H    12    30       P1  7948  0.85
      L1  H    16    44       P1 10957  2.00
      L1  H    19    39       P1 10957  1.00
      P1  H  7989  7998       L1     4  0.94
      L1  C     5    26       P1  8028  1.00

> <Gold.PLP.Chemscore.Internal.Correction>
0.0807

> <Gold.Rescore>
     Score         DG    S(hbond)    S(metal)    S(lipo)     H(rot)  DE(clash)    DE(int)     intcor
     16.44     -19.37       4.22        0.00      49.22       2.33       0.21       2.73       ----

> <Gold.Chemscore.Fitness>
16.4417

> <Gold.Chemscore.DG>
-19.3734

> <Gold.Chemscore.ZeroCoef>
-5.4800

> <Gold.Chemscore.Hbond>
4.2193

> <Gold.Chemscore.Metal>
0.0000

> <Gold.Chemscore.Lipo>
49.2172

> <Gold.Chemscore.Internal_Hbond>
0.0000

> <Gold.Chemscore.DEClash>
0.2058

> <Gold.Chemscore.DEInternal>
2.7259

> <Gold.Chemscore.Rot>
2.3271

> <Gold.Chemscore.Internal.Correction>
   9.000000E+99

> <Gold.Chemscore.Hbonds>
donor molecule, donor type, donor heavy atom, donor atom, acceptor molecule, acceptor atom, score
      L1  H     9    29       P1  7948  0.92
      L1  H    12    30       P1  7948  0.80
      L1  H    16    44       P1 10957  0.87
      L1  H    19    39       P1 10957  0.96
      P1  H  7989  7998       L1     4  0.40

> <Gold.Chemscore.Hbond.Weighted>
-14.0923

> <Gold.Chemscore.Metal.Weighted>
-0.0000

> <Gold.Chemscore.Lipo.Weighted>
-5.7584

> <Gold.Chemscore.Internal_Hbond.Weighted>
0.0000

> <Gold.Chemscore.DEClash.Weighted>
0.2058

> <Gold.Chemscore.DEInternal.Weighted>
2.7259

> <Gold.Chemscore.Rot.Weighted>
5.9573

> <Gold.Chemscore.Internal.Correction.Weighted>
   9.000000E+99

> <Gold.Protein.RotatedTorsions>
[ 6907 6896 6895 6894 ] final  -99.88 input  -60.11 | X-H torsion
[ 7974 7965 7964 7962 ] final  -15.55 input  175.53 | X-H torsion
[ 8008 7997 7996 7995 ] final   83.01 input   59.86 | X-H torsion
[ 10167 10162 10161 10158 ] final   54.54 input  -65.29 | X-H torsion
[ 10718 10713 10712 10709 ] final  -86.03 input   66.30 | X-H torsion
[ 10763 10752 10751 10750 ] final  119.37 input  -60.55 | X-H torsion
[ 11005 11000 10999 10996 ] final  115.27 input  -57.11 | X-H torsion

> <Gold.Protein.ActiveResidues>
 VAL166  LYS551  ARG553  GLY616  TRP617  ASP618  TYR619  PRO620  LYS621  CYS622 
 ASP623  PHE694  ASN695  SER759  ASP760  ASP761  ALA762  ILE779  LEU786  VAL792 
 PHE793  MET794  SER795  GLU796  ALA797  LYS798  CYS799  TRP800  GLU811  SER814 

> <Gold.Protein.RotatedAtoms>
  150.7096  134.0972  159.3952 H   0  0  0  0  0  0  0  0  0  0  0  0  # atno 6907 bound_to 6896
  151.8958  135.0396  160.0511 H   0  0  0  0  0  0  0  0  0  0  0  0  # atno 6908 bound_to 6896
  152.2454  133.5135  159.5331 H   0  0  0  0  0  0  0  0  0  0  0  0  # atno 6909 bound_to 6896
  146.2027  140.3508  142.8418 H   0  0  0  0  0  0  0  0  0  0  0  0  # atno 7974 bound_to 7965
  155.9183  140.3423  155.6152 H   0  0  0  0  0  0  0  0  0  0  0  0  # atno 8008 bound_to 7997
  155.7305  140.0795  157.2310 H   0  0  0  0  0  0  0  0  0  0  0  0  # atno 8009 bound_to 7997
  154.4065  140.1589  156.2490 H   0  0  0  0  0  0  0  0  0  0  0  0  # atno 8010 bound_to 7997
  140.2290  144.3707  150.6421 H   0  0  0  0  0  0  0  0  0  0  0  0  # atno 10167 bound_to 10162
  155.9992  130.4751  150.4652 H   0  0  0  0  0  0  0  0  0  0  0  0  # atno 10718 bound_to 10713
  153.5820  135.3482  155.2878 H   0  0  0  0  0  0  0  0  0  0  0  0  # atno 10763 bound_to 10752
  154.8666  135.4184  154.2610 H   0  0  0  0  0  0  0  0  0  0  0  0  # atno 10764 bound_to 10752
  153.3398  135.7049  153.6947 H   0  0  0  0  0  0  0  0  0  0  0  0  # atno 10765 bound_to 10752
  139.9005  134.9581  156.7020 H   0  0  0  0  0  0  0  0  0  0  0  0  # atno 11005 bound_to 11000
  144.8720  140.7285  143.6041 LP  0  0  0  0  0  0  0  0  0  0  0  0  # atno 17320 bound_to 7965
  145.3428  139.1727  143.4476 LP  0  0  0  0  0  0  0  0  0  0  0  0  # atno 17321 bound_to 7965
  140.6199  143.2175  151.6715 LP  0  0  0  0  0  0  0  0  0  0  0  0  # atno 17342 bound_to 10162
  139.5117  144.3502  152.0660 LP  0  0  0  0  0  0  0  0  0  0  0  0  # atno 17343 bound_to 10162
  157.2673  131.0579  151.2282 LP  0  0  0  0  0  0  0  0  0  0  0  0  # atno 17370 bound_to 10713
  157.3376  130.7016  149.6362 LP  0  0  0  0  0  0  0  0  0  0  0  0  # atno 17371 bound_to 10713
  140.7143  133.9196  155.8105 LP  0  0  0  0  0  0  0  0  0  0  0  0  # atno 17394 bound_to 11000
  141.0276  134.0801  157.4050 LP  0  0  0  0  0  0  0  0  0  0  0  0  # atno 17395 bound_to 11000

$$$$
