AV-unprocessed.smi:1960|AV-procd|sdf|7917|dock4
  -GOLD-   2272010 83D 1   1.00000     0.00000
 Structure written by MMmdl.
 39 40  0  0  0  0  0  0  0  0  2 V2000
  158.3223  141.8580  167.3789 C   0  0  0  0  0  0  0  0  0  0  0  0
  157.6036  143.4797  166.8922 S   0  0  0  0  0  0  0  0  0  0  0  0
  157.7152  144.3938  168.0394 O   0  0  0  0  0  0  0  0  0  0  0  0
  158.1787  143.8651  165.5943 O   0  0  0  0  0  0  0  0  0  0  0  0
  155.9147  143.1383  166.6457 N   0  0  0  0  0  0  0  0  0  0  0  0
  155.0233  144.1821  166.1014 C   0  0  0  0  0  0  0  0  0  0  0  0
  154.7358  143.9628  164.6054 C   0  0  0  0  0  0  0  0  0  0  0  0
  154.1968  142.5470  164.3389 C   0  0  0  0  0  0  0  0  0  0  0  0
  153.9977  142.3239  162.9093 N   0  0  0  0  0  0  0  0  0  0  0  0
  153.1561  143.0176  162.1293 C   0  0  0  0  0  0  0  0  0  0  0  0
  152.4559  143.9424  162.5407 O   0  0  0  0  0  0  0  0  0  0  0  0
  153.2003  142.5838  160.8575 N   0  0  0  0  0  0  0  0  0  0  0  0
  152.4590  143.0486  159.7367 C   0  0  0  0  0  0  0  0  0  0  0  0
  152.1114  144.4176  159.7049 C   0  0  0  0  0  0  0  0  0  0  0  0
  151.3901  144.9272  158.6060 C   0  0  0  0  0  0  0  0  0  0  0  0
  151.0458  144.1079  157.5894 N   0  3  0  0  0  0  0  0  0  0  0  0
  151.3677  142.7967  157.5677 C   0  0  0  0  0  0  0  0  0  0  0  0
  152.0885  142.2304  158.6388 C   0  0  0  0  0  0  0  0  0  0  0  0
  155.1893  141.5151  164.8938 C   0  0  0  0  0  0  0  0  0  0  0  0
  155.4711  141.7535  166.3877 C   0  0  0  0  0  0  0  0  0  0  0  0
  159.3902  141.9819  167.5561 H   0  0  0  0  0  0  0  0  0  0  0  0
  158.1795  141.1337  166.5790 H   0  0  0  0  0  0  0  0  0  0  0  0
  157.8519  141.5029  168.2941 H   0  0  0  0  0  0  0  0  0  0  0  0
  154.0861  144.1578  166.6586 H   0  0  0  0  0  0  0  0  0  0  0  0
  155.4514  145.1706  166.2644 H   0  0  0  0  0  0  0  0  0  0  0  0
  154.0165  144.7088  164.2658 H   0  0  0  0  0  0  0  0  0  0  0  0
  155.6420  144.1300  164.0243 H   0  0  0  0  0  0  0  0  0  0  0  0
  153.2441  142.4220  164.8575 H   0  0  0  0  0  0  0  0  0  0  0  0
  154.5397  141.5841  162.4873 H   0  0  0  0  0  0  0  0  0  0  0  0
  153.8874  141.8720  160.6570 H   0  0  0  0  0  0  0  0  0  0  0  0
  152.3880  145.0741  160.5173 H   0  0  0  0  0  0  0  0  0  0  0  0
  151.0823  145.9581  158.5095 H   0  0  0  0  0  0  0  0  0  0  0  0
  151.0473  142.2441  156.6964 H   0  0  0  0  0  0  0  0  0  0  0  0
  152.3527  141.1851  158.5902 H   0  0  0  0  0  0  0  0  0  0  0  0
  154.7940  140.5080  164.7565 H   0  0  0  0  0  0  0  0  0  0  0  0
  156.1209  141.5543  164.3301 H   0  0  0  0  0  0  0  0  0  0  0  0
  156.2118  141.0424  166.7524 H   0  0  0  0  0  0  0  0  0  0  0  0
  154.5627  141.5714  166.9631 H   0  0  0  0  0  0  0  0  0  0  0  0
  150.5253  144.4965  156.8024 H   0  0  0  0  0  0  0  0  0  0  0  0
  1  2  1  0  0  0  0
  1 21  1  0  0  0  0
  1 22  1  0  0  0  0
  1 23  1  0  0  0  0
  2  3  2  0  0  0  0
  2  4  2  0  0  0  0
  2  5  1  0  0  0  0
  5 20  1  0  0  0  0
  5  6  1  0  0  0  0
  6  7  1  0  0  0  0
  6 24  1  0  0  0  0
  6 25  1  0  0  0  0
  7  8  1  0  0  0  0
  7 26  1  0  0  0  0
  7 27  1  0  0  0  0
  8  9  1  0  0  0  0
  8 19  1  0  0  0  0
  8 28  1  0  0  0  0
  9 10  1  0  0  0  0
  9 29  1  0  0  0  0
 10 11  2  0  0  0  0
 10 12  1  0  0  0  0
 12 13  1  0  0  0  0
 12 30  1  0  0  0  0
 13 18  1  0  0  0  0
 13 14  2  0  0  0  0
 14 15  1  0  0  0  0
 14 31  1  0  0  0  0
 15 16  2  0  0  0  0
 15 32  1  0  0  0  0
 16 17  1  0  0  0  0
 16 39  1  0  0  0  0
 17 18  2  0  0  0  0
 17 33  1  0  0  0  0
 18 34  1  0  0  0  0
 19 20  1  0  0  0  0
 19 35  1  0  0  0  0
 19 36  1  0  0  0  0
 20 37  1  0  0  0  0
 20 38  1  0  0  0  0
M  CHG  1  16   1
M  END
> <s_m_source_file>
AV-unprocessed.smi

> <i_m_source_file_index>
1960

> <i_lp_mmshare_version>
43012

> <i_f3d_flags>
0

> <s_epik_input>
W0NIM11TKD1PKSg9TylOMVtDSDJdW0NIMl1bQ0hdKFtDSDJdW0NIMl0xKVtOSF1DKD1PKVtOSF1jMltjSF1bY0hdbltjSF1bY0hdMg==

> <s_epik_cmdline>
J2VwaWtfcHl0aG9uJywgJy1waCcsICc3LjAnLCAnLXRuJywgJzgnLCAnLW1hJywgJzIwMCcsICctbWV0YWxfYmluZGluZycsICctaW1hZScsICc8aW5maWxlLm1hZT4nLCAnLW9tYWUnLCAnPG91dGZpbGUubWFlPic=

> <r_epik_Ionization_Penalty>
1.01996

> <r_epik_Ionization_Penalty_Charging>
1.01994

> <r_epik_Ionization_Penalty_Neutral>
1.92463e-05

> <r_epik_State_Penalty>
1.07014

> <r_epik_Charging_Adjusted_Penalty>
2.09007

> <i_epik_Tot_Q>
1

> <i_epik_Tot_abs_Q>
1

> <r_epik_Metal_State_Penalty>
1.16909

> <b_epik_Metal_Only>
0

> <s_lp_Force_Field>
OPLS_2005

> <r_lp_Energy>
12.0857

> <b_lp_Chiralities_Consistent>
1

> <s_lp_Variant>
AV-unprocessed.smi:1960-2

> <Gold.Version>
5.8.1

> <Gold.Id.Protein>
6NUR|6NUR_protein|mol2

> <Gold.PLP.Fitness>
46.2790

> <Gold.PLP.PLP>
-41.0787

> <Gold.PLP.part.hbond>
-4.0000

> <Gold.PLP.part.metal>
0.0000

> <Gold.PLP.part.buried>
-5.0678

> <Gold.PLP.part.nonpolar>
-31.3404

> <Gold.PLP.part.repulsive>
0.5696

> <Gold.PLP.ligand.clash>
0.0000

> <Gold.PLP.ligand.torsion>
1.4257

> <Gold.PLP.Chemscore.Hbond>
2.0000

> <Gold.PLP.Chemscore.CHOScore>
0.0000

> <Gold.PLP.Chemscore.Metal>
0.0000

> <Gold.Chemscore.Hbonds>
donor molecule, donor type, donor heavy atom, donor atom, acceptor molecule, acceptor atom, score
      L1  H    16    39       P1  8028  2.00

> <Gold.PLP.Chemscore.Internal.Correction>
2.0518

> <Gold.Rescore>
     Score         DG    S(hbond)    S(metal)    S(lipo)     H(rot)  DE(clash)    DE(int)     intcor
     14.45     -17.55       0.93        0.00      98.46       1.00       0.41       2.70       ----

> <Gold.Chemscore.Fitness>
14.4475

> <Gold.Chemscore.DG>
-17.5527

> <Gold.Chemscore.ZeroCoef>
-5.4800

> <Gold.Chemscore.Hbond>
0.9321

> <Gold.Chemscore.Metal>
0.0000

> <Gold.Chemscore.Lipo>
98.4564

> <Gold.Chemscore.Internal_Hbond>
0.0000

> <Gold.Chemscore.DEClash>
0.4058

> <Gold.Chemscore.DEInternal>
2.6995

> <Gold.Chemscore.Rot>
1.0000

> <Gold.Chemscore.Internal.Correction>
   9.000000E+99

> <Gold.Chemscore.Hbonds>
donor molecule, donor type, donor heavy atom, donor atom, acceptor molecule, acceptor atom, score
      L1  H    16    39       P1  8028  0.89

> <Gold.Chemscore.Hbond.Weighted>
-3.1133

> <Gold.Chemscore.Metal.Weighted>
-0.0000

> <Gold.Chemscore.Lipo.Weighted>
-11.5194

> <Gold.Chemscore.Internal_Hbond.Weighted>
0.0000

> <Gold.Chemscore.DEClash.Weighted>
0.4058

> <Gold.Chemscore.DEInternal.Weighted>
2.6995

> <Gold.Chemscore.Rot.Weighted>
2.5600

> <Gold.Chemscore.Internal.Correction.Weighted>
   9.000000E+99

> <Gold.Protein.RotatedTorsions>
[ 6907 6896 6895 6894 ] final   87.42 input  -60.11 | X-H torsion
[ 7974 7965 7964 7962 ] final  -72.05 input  175.53 | X-H torsion
[ 8008 7997 7996 7995 ] final    5.02 input   59.86 | X-H torsion
[ 10167 10162 10161 10158 ] final   90.01 input  -65.29 | X-H torsion
[ 10718 10713 10712 10709 ] final  -90.22 input   66.30 | X-H torsion
[ 10763 10752 10751 10750 ] final -151.10 input  -60.55 | X-H torsion
[ 11005 11000 10999 10996 ] final -108.15 input  -57.11 | X-H torsion

> <Gold.Protein.ActiveResidues>
 VAL166  LYS551  ARG553  GLY616  TRP617  ASP618  TYR619  PRO620  LYS621  CYS622 
 ASP623  PHE694  ASN695  SER759  ASP760  ASP761  ALA762  ILE779  LEU786  VAL792 
 PHE793  MET794  SER795  GLU796  ALA797  LYS798  CYS799  TRP800  GLU811  SER814 

> <Gold.Protein.RotatedAtoms>
  152.5410  134.2280  159.8813 H   0  0  0  0  0  0  0  0  0  0  0  0  # atno 6907 bound_to 6896
  151.2253  133.4473  159.2609 H   0  0  0  0  0  0  0  0  0  0  0  0  # atno 6908 bound_to 6896
  151.0766  134.9845  159.8391 H   0  0  0  0  0  0  0  0  0  0  0  0  # atno 6909 bound_to 6896
  145.6702  140.9223  143.0887 H   0  0  0  0  0  0  0  0  0  0  0  0  # atno 7974 bound_to 7965
  154.7231  140.2715  155.6523 H   0  0  0  0  0  0  0  0  0  0  0  0  # atno 8008 bound_to 7997
  156.2829  140.2730  156.1833 H   0  0  0  0  0  0  0  0  0  0  0  0  # atno 8009 bound_to 7997
  155.0480  140.0371  157.2523 H   0  0  0  0  0  0  0  0  0  0  0  0  # atno 8010 bound_to 7997
  139.8516  144.6590  150.9163 H   0  0  0  0  0  0  0  0  0  0  0  0  # atno 10167 bound_to 10162
  155.9987  130.4901  150.5290 H   0  0  0  0  0  0  0  0  0  0  0  0  # atno 10718 bound_to 10713
  154.8079  135.3268  154.7383 H   0  0  0  0  0  0  0  0  0  0  0  0  # atno 10763 bound_to 10752
  153.8038  135.6901  153.4856 H   0  0  0  0  0  0  0  0  0  0  0  0  # atno 10764 bound_to 10752
  153.1836  135.4577  155.0006 H   0  0  0  0  0  0  0  0  0  0  0  0  # atno 10765 bound_to 10752
  141.0917  133.9043  157.2060 H   0  0  0  0  0  0  0  0  0  0  0  0  # atno 11005 bound_to 11000
  144.7059  139.8562  143.7430 LP  0  0  0  0  0  0  0  0  0  0  0  0  # atno 17320 bound_to 7965
  146.1052  139.4051  143.0322 LP  0  0  0  0  0  0  0  0  0  0  0  0  # atno 17321 bound_to 7965
  140.7787  143.3822  151.1456 LP  0  0  0  0  0  0  0  0  0  0  0  0  # atno 17342 bound_to 10162
  139.7460  143.8852  152.3063 LP  0  0  0  0  0  0  0  0  0  0  0  0  # atno 17343 bound_to 10162
  157.3242  131.0687  151.1909 LP  0  0  0  0  0  0  0  0  0  0  0  0  # atno 17370 bound_to 10713
  157.2812  130.6751  149.6067 LP  0  0  0  0  0  0  0  0  0  0  0  0  # atno 17371 bound_to 10713
  139.9744  135.0118  156.9594 LP  0  0  0  0  0  0  0  0  0  0  0  0  # atno 17394 bound_to 11000
  140.5236  134.0882  155.7298 LP  0  0  0  0  0  0  0  0  0  0  0  0  # atno 17395 bound_to 11000

$$$$
