AV-unprocessed.smi:1059|AV-procd|sdf|4654|dock3
  -GOLD-   22720 3163D 1   1.00000     0.00000
 Structure written by MMmdl.
 55 56  0  0  0  0  0  0  0  0  2 V2000
  152.8454  141.8009  160.4142 C   0  0  0  0  0  0  0  0  0  0  0  0
  152.6895  142.0001  158.8986 C   0  0  0  0  0  0  0  0  0  0  0  0
  152.2854  143.4551  158.5945 C   0  0  0  0  0  0  0  0  0  0  0  0
  151.6919  140.9689  158.3158 C   0  0  0  0  0  0  0  0  0  0  0  0
  152.3087  139.8745  157.4215 C   0  0  0  0  0  0  0  0  0  0  0  0
  153.1225  139.0884  157.9090 O   0  0  0  0  0  0  0  0  0  0  0  0
  151.9336  139.8024  156.1204 N   0  0  0  0  0  0  0  0  0  0  0  0
  152.4584  138.7855  155.2003 C   0  0  0  0  0  0  0  0  0  0  0  0
  151.3457  137.7680  154.8911 C   0  0  0  0  0  0  0  0  0  0  0  0
  150.0920  138.4656  154.3223 C   0  0  0  0  0  0  0  0  0  0  0  0
  149.0048  137.4988  154.2013 N   0  0  0  0  0  0  0  0  0  0  0  0
  148.1689  137.1485  155.1891 C   0  0  0  0  0  0  0  0  0  0  0  0
  148.2334  137.6086  156.3289 O   0  0  0  0  0  0  0  0  0  0  0  0
  147.2578  136.2567  154.7626 N   0  0  0  0  0  0  0  0  0  0  0  0
  146.2207  135.6320  155.5065 C   0  0  0  0  0  0  0  0  0  0  0  0
  145.9933  136.0806  156.8257 C   0  0  0  0  0  0  0  0  0  0  0  0
  144.9676  135.4965  157.5968 C   0  0  0  0  0  0  0  0  0  0  0  0
  144.1750  134.4747  157.0337 C   0  0  0  0  0  0  0  0  0  0  0  0
  143.1466  133.8636  157.7640 N   0  0  0  0  0  0  0  0  0  0  0  0
  143.4151  132.4627  158.0511 C   0  0  0  0  0  0  0  0  0  0  0  0
  142.6948  134.6686  158.8893 C   0  0  0  0  0  0  0  0  0  0  0  0
  144.4110  134.0817  155.7595 N   0  3  0  0  0  0  0  0  0  0  0  0
  145.3832  134.6140  154.9878 C   0  0  0  0  0  0  0  0  0  0  0  0
  149.6697  139.6648  155.2025 C   0  0  0  0  0  0  0  0  0  0  0  0
  150.8644  140.5909  155.4928 C   0  0  0  0  0  0  0  0  0  0  0  0
  151.8998  141.9582  160.9343 H   0  0  0  0  0  0  0  0  0  0  0  0
  153.5733  142.4979  160.8302 H   0  0  0  0  0  0  0  0  0  0  0  0
  153.1895  140.7926  160.6470 H   0  0  0  0  0  0  0  0  0  0  0  0
  153.6710  141.8241  158.4554 H   0  0  0  0  0  0  0  0  0  0  0  0
  151.3089  143.6901  159.0188 H   0  0  0  0  0  0  0  0  0  0  0  0
  152.2355  143.6520  157.5242 H   0  0  0  0  0  0  0  0  0  0  0  0
  153.0056  144.1568  159.0157 H   0  0  0  0  0  0  0  0  0  0  0  0
  151.1815  140.4634  159.1367 H   0  0  0  0  0  0  0  0  0  0  0  0
  150.9296  141.5069  157.7514 H   0  0  0  0  0  0  0  0  0  0  0  0
  152.7910  139.2683  154.2802 H   0  0  0  0  0  0  0  0  0  0  0  0
  153.3347  138.2688  155.5940 H   0  0  0  0  0  0  0  0  0  0  0  0
  151.7114  137.0205  154.1861 H   0  0  0  0  0  0  0  0  0  0  0  0
  151.0899  137.2312  155.8062 H   0  0  0  0  0  0  0  0  0  0  0  0
  150.3441  138.8397  153.3281 H   0  0  0  0  0  0  0  0  0  0  0  0
  148.8763  137.0736  153.2947 H   0  0  0  0  0  0  0  0  0  0  0  0
  147.2798  136.0370  153.7774 H   0  0  0  0  0  0  0  0  0  0  0  0
  146.6046  136.8638  157.2503 H   0  0  0  0  0  0  0  0  0  0  0  0
  144.7939  135.8306  158.6094 H   0  0  0  0  0  0  0  0  0  0  0  0
  143.7283  131.9336  157.1502 H   0  0  0  0  0  0  0  0  0  0  0  0
  142.5160  131.9769  158.4309 H   0  0  0  0  0  0  0  0  0  0  0  0
  144.2002  132.3612  158.8015 H   0  0  0  0  0  0  0  0  0  0  0  0
  142.4956  135.6945  158.5774 H   0  0  0  0  0  0  0  0  0  0  0  0
  143.4430  134.6881  159.6827 H   0  0  0  0  0  0  0  0  0  0  0  0
  141.7727  134.2574  159.3007 H   0  0  0  0  0  0  0  0  0  0  0  0
  145.4397  134.2098  153.9884 H   0  0  0  0  0  0  0  0  0  0  0  0
  148.8759  140.2314  154.7144 H   0  0  0  0  0  0  0  0  0  0  0  0
  149.2569  139.3053  156.1465 H   0  0  0  0  0  0  0  0  0  0  0  0
  150.5305  141.4386  156.0880 H   0  0  0  0  0  0  0  0  0  0  0  0
  151.2361  141.0199  154.5611 H   0  0  0  0  0  0  0  0  0  0  0  0
  143.8248  133.3485  155.3601 H   0  0  0  0  0  0  0  0  0  0  0  0
  1  2  1  0  0  0  0
  1 26  1  0  0  0  0
  1 27  1  0  0  0  0
  1 28  1  0  0  0  0
  2  3  1  0  0  0  0
  2  4  1  0  0  0  0
  2 29  1  0  0  0  0
  3 30  1  0  0  0  0
  3 31  1  0  0  0  0
  3 32  1  0  0  0  0
  4  5  1  0  0  0  0
  4 33  1  0  0  0  0
  4 34  1  0  0  0  0
  5  6  2  0  0  0  0
  5  7  1  0  0  0  0
  7 25  1  0  0  0  0
  7  8  1  0  0  0  0
  8  9  1  0  0  0  0
  8 35  1  0  0  0  0
  8 36  1  0  0  0  0
  9 10  1  0  0  0  0
  9 37  1  0  0  0  0
  9 38  1  0  0  0  0
 10 11  1  0  0  0  0
 10 24  1  0  0  0  0
 10 39  1  0  0  0  0
 11 12  1  0  0  0  0
 11 40  1  0  0  0  0
 12 13  2  0  0  0  0
 12 14  1  0  0  0  0
 14 15  1  0  0  0  0
 14 41  1  0  0  0  0
 15 23  1  0  0  0  0
 15 16  2  0  0  0  0
 16 17  1  0  0  0  0
 16 42  1  0  0  0  0
 17 18  2  0  0  0  0
 17 43  1  0  0  0  0
 18 19  1  0  0  0  0
 18 22  1  0  0  0  0
 19 20  1  0  0  0  0
 19 21  1  0  0  0  0
 20 44  1  0  0  0  0
 20 45  1  0  0  0  0
 20 46  1  0  0  0  0
 21 47  1  0  0  0  0
 21 48  1  0  0  0  0
 21 49  1  0  0  0  0
 22 23  2  0  0  0  0
 22 55  1  0  0  0  0
 23 50  1  0  0  0  0
 24 25  1  0  0  0  0
 24 51  1  0  0  0  0
 24 52  1  0  0  0  0
 25 53  1  0  0  0  0
 25 54  1  0  0  0  0
M  CHG  1  22   1
M  END
> <s_m_source_file>
AV-unprocessed.smi

> <i_m_source_file_index>
1059

> <i_lp_mmshare_version>
43012

> <i_f3d_flags>
0

> <s_epik_input>
W0NIM11bQ0hdKFtDSDNdKVtDSDJdQyg9TylOMVtDSDJdW0NIMl1bQ0hdKFtDSDJdW0NIMl0xKVtOSF1DKD1PKVtOSF1jMltjSF1bY0hdYyhOKFtDSDNdKVtDSDNdKW5bY0hdMg==

> <s_epik_cmdline>
J2VwaWtfcHl0aG9uJywgJy1waCcsICc3LjAnLCAnLXRuJywgJzgnLCAnLW1hJywgJzIwMCcsICctbWV0YWxfYmluZGluZycsICctaW1hZScsICc8aW5maWxlLm1hZT4nLCAnLW9tYWUnLCAnPG91dGZpbGUubWFlPic=

> <r_lp_tautomer_probability>
0.999994

> <r_epik_Ionization_Penalty>
0.255783

> <r_epik_Ionization_Penalty_Charging>
0.255763

> <r_epik_Ionization_Penalty_Neutral>
1.99447e-05

> <r_epik_State_Penalty>
0.247288

> <r_epik_Charging_Adjusted_Penalty>
0.503051

> <i_epik_Tot_Q>
1

> <i_epik_Tot_abs_Q>
1

> <r_epik_Metal_State_Penalty>
0.537004

> <b_epik_Metal_Only>
0

> <s_lp_Force_Field>
OPLS_2005

> <r_lp_Energy>
38.2328

> <b_lp_Chiralities_Consistent>
1

> <s_lp_Variant>
AV-unprocessed.smi:1059-1

> <Gold.Version>
5.8.1

> <Gold.Id.Protein>
6NUR|6NUR_protein|mol2

> <Gold.PLP.Fitness>
47.0719

> <Gold.PLP.PLP>
-36.3037

> <Gold.PLP.part.hbond>
-3.9454

> <Gold.PLP.part.metal>
0.0000

> <Gold.PLP.part.buried>
-3.4864

> <Gold.PLP.part.nonpolar>
-29.5838

> <Gold.PLP.part.repulsive>
0.0825

> <Gold.PLP.ligand.clash>
0.2903

> <Gold.PLP.ligand.torsion>
1.3926

> <Gold.PLP.Chemscore.Hbond>
4.5387

> <Gold.PLP.Chemscore.CHOScore>
0.0000

> <Gold.PLP.Chemscore.Metal>
0.0000

> <Gold.Chemscore.Hbonds>
donor molecule, donor type, donor heavy atom, donor atom, acceptor molecule, acceptor atom, score
      L1  H    11    40       P1  7948  1.00
      L1  H    22    55       P1 10957  1.98
      P1  H  7997  8010       L1     6  0.60
      P1  H 11000 11005       L1    19  0.54

> <Gold.PLP.Chemscore.Internal.Correction>
0.2276

> <Gold.Rescore>
     Score         DG    S(hbond)    S(metal)    S(lipo)     H(rot)  DE(clash)    DE(int)     intcor
     15.80     -20.33       2.85        0.00      79.39       1.55       0.15       4.38       ----

> <Gold.Chemscore.Fitness>
15.7957

> <Gold.Chemscore.DG>
-20.3310

> <Gold.Chemscore.ZeroCoef>
-5.4800

> <Gold.Chemscore.Hbond>
2.8545

> <Gold.Chemscore.Metal>
0.0000

> <Gold.Chemscore.Lipo>
79.3889

> <Gold.Chemscore.Internal_Hbond>
0.0000

> <Gold.Chemscore.DEClash>
0.1524

> <Gold.Chemscore.DEInternal>
4.3829

> <Gold.Chemscore.Rot>
1.5514

> <Gold.Chemscore.Internal.Correction>
   9.000000E+99

> <Gold.Chemscore.Hbonds>
donor molecule, donor type, donor heavy atom, donor atom, acceptor molecule, acceptor atom, score
      L1  H    11    40       P1  7948  1.00
      L1  H    22    55       P1 10957  0.92
      P1  H  7997  8010       L1     6  0.04
      P1  H 11000 11005       L1    19  0.02

> <Gold.Chemscore.Hbond.Weighted>
-9.5341

> <Gold.Chemscore.Metal.Weighted>
-0.0000

> <Gold.Chemscore.Lipo.Weighted>
-9.2885

> <Gold.Chemscore.Internal_Hbond.Weighted>
0.0000

> <Gold.Chemscore.DEClash.Weighted>
0.1524

> <Gold.Chemscore.DEInternal.Weighted>
4.3829

> <Gold.Chemscore.Rot.Weighted>
3.9716

> <Gold.Chemscore.Internal.Correction.Weighted>
   9.000000E+99

> <Gold.Protein.RotatedTorsions>
[ 6907 6896 6895 6894 ] final -129.11 input  -60.11 | X-H torsion
[ 7974 7965 7964 7962 ] final   18.42 input  175.53 | X-H torsion
[ 8008 7997 7996 7995 ] final   30.10 input   59.86 | X-H torsion
[ 10167 10162 10161 10158 ] final  -24.64 input  -65.29 | X-H torsion
[ 10718 10713 10712 10709 ] final -150.39 input   66.30 | X-H torsion
[ 10763 10752 10751 10750 ] final  178.98 input  -60.55 | X-H torsion
[ 11005 11000 10999 10996 ] final  -82.47 input  -57.11 | X-H torsion

> <Gold.Protein.ActiveResidues>
 VAL166  LYS551  ARG553  GLY616  TRP617  ASP618  TYR619  PRO620  LYS621  CYS622 
 ASP623  PHE694  ASN695  SER759  ASP760  ASP761  ALA762  ILE779  LEU786  VAL792 
 PHE793  MET794  SER795  GLU796  ALA797  LYS798  CYS799  TRP800  GLU811  SER814 

> <Gold.Protein.RotatedAtoms>
  150.9251  133.6833  159.2822 H   0  0  0  0  0  0  0  0  0  0  0  0  # atno 6907 bound_to 6896
  151.4274  135.1004  159.9642 H   0  0  0  0  0  0  0  0  0  0  0  0  # atno 6908 bound_to 6896
  152.4999  133.8689  159.7343 H   0  0  0  0  0  0  0  0  0  0  0  0  # atno 6909 bound_to 6896
  146.2185  139.8460  142.8632 H   0  0  0  0  0  0  0  0  0  0  0  0  # atno 7974 bound_to 7965
  155.0851  140.3214  155.4590 H   0  0  0  0  0  0  0  0  0  0  0  0  # atno 8008 bound_to 7997
  156.2757  140.2088  156.5924 H   0  0  0  0  0  0  0  0  0  0  0  0  # atno 8009 bound_to 7997
  154.6948  140.0513  157.0386 H   0  0  0  0  0  0  0  0  0  0  0  0  # atno 8010 bound_to 7997
  140.7288  143.4335  151.0766 H   0  0  0  0  0  0  0  0  0  0  0  0  # atno 10167 bound_to 10162
  156.4455  130.8142  151.2373 H   0  0  0  0  0  0  0  0  0  0  0  0  # atno 10718 bound_to 10713
  154.5148  135.2790  155.1312 H   0  0  0  0  0  0  0  0  0  0  0  0  # atno 10763 bound_to 10752
  154.2893  135.6270  153.5382 H   0  0  0  0  0  0  0  0  0  0  0  0  # atno 10764 bound_to 10752
  152.9925  135.5670  154.5622 H   0  0  0  0  0  0  0  0  0  0  0  0  # atno 10765 bound_to 10752
  141.1663  133.7246  156.8577 H   0  0  0  0  0  0  0  0  0  0  0  0  # atno 11005 bound_to 11000
  145.2850  141.0150  143.3695 LP  0  0  0  0  0  0  0  0  0  0  0  0  # atno 17320 bound_to 7965
  144.9121  139.4516  143.6582 LP  0  0  0  0  0  0  0  0  0  0  0  0  # atno 17321 bound_to 7965
  139.7994  143.8105  152.3161 LP  0  0  0  0  0  0  0  0  0  0  0  0  # atno 17342 bound_to 10162
  139.8116  144.7333  150.9689 LP  0  0  0  0  0  0  0  0  0  0  0  0  # atno 17343 bound_to 10162
  157.7505  131.0154  150.3505 LP  0  0  0  0  0  0  0  0  0  0  0  0  # atno 17370 bound_to 10713
  156.3872  130.3891  149.7057 LP  0  0  0  0  0  0  0  0  0  0  0  0  # atno 17371 bound_to 10713
  140.1871  134.8992  157.3016 LP  0  0  0  0  0  0  0  0  0  0  0  0  # atno 17394 bound_to 11000
  140.2331  134.3885  155.7513 LP  0  0  0  0  0  0  0  0  0  0  0  0  # atno 17395 bound_to 11000

$$$$
