AV-unprocessed.smi:1830|AV-procd|sdf|7446|dock3
  -GOLD-   22720 9133D 1   1.00000     0.00000
 Structure written by MMmdl.
 54 57  0  0  0  0  0  0  0  0  3 V2000
  150.2752  137.5775  158.1578 O   0  0  0  0  0  0  0  0  0  0  0  0
  149.2206  137.8760  157.5991 C   0  0  0  0  0  0  0  0  0  0  0  0
  148.2427  136.9948  157.3542 N   0  0  0  0  0  0  0  0  0  0  0  0
  148.3037  135.5831  157.7160 C   0  0  0  0  0  0  0  0  0  0  0  0
  148.0093  134.6644  156.5177 C   0  0  2  0  0  0  0  0  0  0  0  0
  148.7340  135.0860  155.2213 C   0  0  0  0  0  0  0  0  0  0  0  0
  148.3451  134.2361  154.0718 N   0  3  1  0  0  0  0  0  0  0  0  0
  149.0205  132.9243  153.9617 C   0  0  0  0  0  0  0  0  0  0  0  0
  148.0187  131.9798  153.2790 C   0  0  0  0  0  0  0  0  0  0  0  0
  146.7928  132.8427  152.9611 C   0  0  0  0  0  0  0  0  0  0  0  0
  146.8902  134.0120  153.9425 C   0  0  1  0  0  0  0  0  0  0  0  0
  146.2435  133.6836  155.3078 C   0  0  0  0  0  0  0  0  0  0  0  0
  146.6068  134.6568  156.2777 O   0  0  0  0  0  0  0  0  0  0  0  0
  148.8879  139.1063  157.1734 N   0  0  0  0  0  0  0  0  0  0  0  0
  149.6371  140.3131  157.2854 C   0  0  0  0  0  0  0  0  0  0  0  0
  150.8380  140.4064  158.0352 C   0  0  0  0  0  0  0  0  0  0  0  0
  151.5346  141.6299  158.0903 C   0  0  0  0  0  0  0  0  0  0  0  0
  151.0276  142.7391  157.3890 C   0  0  0  0  0  0  0  0  0  0  0  0
  149.8923  142.6141  156.6706 N   0  3  0  0  0  0  0  0  0  0  0  0
  149.1851  141.4605  156.5843 C   0  0  0  0  0  0  0  0  0  0  0  0
  148.0206  141.4339  155.7971 N   0  0  0  0  0  0  0  0  0  0  0  0
  146.9435  142.3087  156.2296 C   0  0  0  0  0  0  0  0  0  0  0  0
  145.9841  142.3867  155.0400 C   0  0  0  0  0  0  0  0  0  0  0  0
  146.8415  142.0311  153.8192 C   0  0  0  0  0  0  0  0  0  0  0  0
  148.2289  141.7176  154.3868 C   0  0  0  0  0  0  0  0  0  0  0  0
  147.4007  137.3178  156.9008 H   0  0  0  0  0  0  0  0  0  0  0  0
  149.2938  135.3554  158.1144 H   0  0  0  0  0  0  0  0  0  0  0  0
  147.5886  135.3878  158.5166 H   0  0  0  0  0  0  0  0  0  0  0  0
  148.3220  133.6573  156.7993 H   0  0  0  0  0  0  0  0  0  0  0  0
  148.4703  136.1126  154.9654 H   0  0  0  0  0  0  0  0  0  0  0  0
  149.8166  135.0661  155.3519 H   0  0  0  0  0  0  0  0  0  0  0  0
  149.9392  133.0295  153.3841 H   0  0  0  0  0  0  0  0  0  0  0  0
  149.2899  132.5349  154.9441 H   0  0  0  0  0  0  0  0  0  0  0  0
  148.4321  131.5193  152.3809 H   0  0  0  0  0  0  0  0  0  0  0  0
  147.7449  131.1755  153.9629 H   0  0  0  0  0  0  0  0  0  0  0  0
  146.8703  133.2187  151.9400 H   0  0  0  0  0  0  0  0  0  0  0  0
  145.8543  132.2925  153.0380 H   0  0  0  0  0  0  0  0  0  0  0  0
  146.4225  134.9077  153.5319 H   0  0  0  0  0  0  0  0  0  0  0  0
  145.1576  133.6719  155.2116 H   0  0  0  0  0  0  0  0  0  0  0  0
  146.5337  132.6923  155.6600 H   0  0  0  0  0  0  0  0  0  0  0  0
  147.9523  139.2106  156.8087 H   0  0  0  0  0  0  0  0  0  0  0  0
  151.2483  139.5575  158.5600 H   0  0  0  0  0  0  0  0  0  0  0  0
  152.4488  141.7141  158.6596 H   0  0  0  0  0  0  0  0  0  0  0  0
  151.4960  143.7126  157.3741 H   0  0  0  0  0  0  0  0  0  0  0  0
  146.4498  141.9143  157.1183 H   0  0  0  0  0  0  0  0  0  0  0  0
  147.3243  143.3026  156.4679 H   0  0  0  0  0  0  0  0  0  0  0  0
  145.1820  141.6563  155.1536 H   0  0  0  0  0  0  0  0  0  0  0  0
  145.5256  143.3724  154.9546 H   0  0  0  0  0  0  0  0  0  0  0  0
  146.4281  141.1569  153.3147 H   0  0  0  0  0  0  0  0  0  0  0  0
  146.8834  142.8439  153.0934 H   0  0  0  0  0  0  0  0  0  0  0  0
  148.8879  142.5782  154.2629 H   0  0  0  0  0  0  0  0  0  0  0  0
  148.6873  140.8680  153.8797 H   0  0  0  0  0  0  0  0  0  0  0  0
  148.6196  134.7358  153.2380 H   0  0  0  0  0  0  0  0  0  0  0  0
  149.5498  143.4308  156.1643 H   0  0  0  0  0  0  0  0  0  0  0  0
  1  2  2  0  0  0  0
  2  3  1  0  0  0  0
  2 14  1  0  0  0  0
  3  4  1  0  0  0  0
  3 26  1  0  0  0  0
  4  5  1  0  0  0  0
  4 27  1  0  0  0  0
  4 28  1  0  0  0  0
  5 13  1  0  0  0  0
  5  6  1  0  0  0  0
  5 29  1  0  0  0  0
  6  7  1  0  0  0  0
  6 30  1  0  0  0  0
  6 31  1  0  0  0  0
  7 11  1  0  0  0  0
  7  8  1  0  0  0  0
  7 53  1  0  0  0  0
  8  9  1  0  0  0  0
  8 32  1  0  0  0  0
  8 33  1  0  0  0  0
  9 10  1  0  0  0  0
  9 34  1  0  0  0  0
  9 35  1  0  0  0  0
 10 11  1  0  0  0  0
 10 36  1  0  0  0  0
 10 37  1  0  0  0  0
 11 12  1  0  0  0  0
 11 38  1  0  0  0  0
 12 13  1  0  0  0  0
 12 39  1  0  0  0  0
 12 40  1  0  0  0  0
 14 15  1  0  0  0  0
 14 41  1  0  0  0  0
 15 20  1  0  0  0  0
 15 16  2  0  0  0  0
 16 17  1  0  0  0  0
 16 42  1  0  0  0  0
 17 18  2  0  0  0  0
 17 43  1  0  0  0  0
 18 19  1  0  0  0  0
 18 44  1  0  0  0  0
 19 20  2  0  0  0  0
 19 54  1  0  0  0  0
 20 21  1  0  0  0  0
 21 25  1  0  0  0  0
 21 22  1  0  0  0  0
 22 23  1  0  0  0  0
 22 45  1  0  0  0  0
 22 46  1  0  0  0  0
 23 24  1  0  0  0  0
 23 47  1  0  0  0  0
 23 48  1  0  0  0  0
 24 25  1  0  0  0  0
 24 49  1  0  0  0  0
 24 50  1  0  0  0  0
 25 51  1  0  0  0  0
 25 52  1  0  0  0  0
M  CHG  1   7   1
M  CHG  1  19   1
M  END
> <s_m_source_file>
AV-unprocessed.smi

> <i_m_source_file_index>
1830

> <i_lp_mmshare_version>
43012

> <i_f3d_flags>
0

> <s_epik_input>
W0NIMl0xW0NIMl1bQ0gyXVtDQEhdKE4xMilbQ0gyXU9bQ0BASF0oW0NIMl0yKVtDSDJdW05IXUMoPU8pW05IXWMzW2NIXVtjSF1bY0hdbmMzTjRbQ0gyXVtDSDJdW0NIMl1bQ0gyXTQ=

> <s_epik_cmdline>
J2VwaWtfcHl0aG9uJywgJy1waCcsICc3LjAnLCAnLXRuJywgJzgnLCAnLW1hJywgJzIwMCcsICctbWV0YWxfYmluZGluZycsICctaW1hZScsICc8aW5maWxlLm1hZT4nLCAnLW9tYWUnLCAnPG91dGZpbGUubWFlPic=

> <r_lp_tautomer_probability>
0.999994

> <r_epik_Ionization_Penalty>
1.29113

> <r_epik_Ionization_Penalty_Charging>
1.29111

> <r_epik_Ionization_Penalty_Neutral>
1.88144e-05

> <r_epik_State_Penalty>
1.32676

> <r_epik_Charging_Adjusted_Penalty>
2.61787

> <i_epik_Tot_Q>
2

> <i_epik_Tot_abs_Q>
2

> <r_epik_Metal_State_Penalty>
1.40425

> <b_epik_Metal_Only>
0

> <s_lp_Force_Field>
OPLS_2005

> <r_lp_Energy>
78.9005

> <b_lp_Chiralities_Consistent>
1

> <s_lp_Variant>
AV-unprocessed.smi:1830-15

> <Gold.Version>
5.8.1

> <Gold.Id.Protein>
6NUR|6NUR_protein|mol2

> <Gold.PLP.Fitness>
43.1515

> <Gold.PLP.PLP>
-31.4858

> <Gold.PLP.part.hbond>
-2.0000

> <Gold.PLP.part.metal>
0.0000

> <Gold.PLP.part.buried>
-4.8711

> <Gold.PLP.part.nonpolar>
-25.2132

> <Gold.PLP.part.repulsive>
0.1857

> <Gold.PLP.ligand.clash>
0.0000

> <Gold.PLP.ligand.torsion>
0.1811

> <Gold.PLP.Chemscore.Hbond>
4.0000

> <Gold.PLP.Chemscore.CHOScore>
0.0000

> <Gold.PLP.Chemscore.Metal>
0.0000

> <Gold.Chemscore.Hbonds>
donor molecule, donor type, donor heavy atom, donor atom, acceptor molecule, acceptor atom, score
      L1  H     7    53       P1  7948  2.00
      L1  H    19    54       P1  8028  2.00

> <Gold.PLP.Chemscore.Internal.Correction>
0.0279

> <Gold.Rescore>
     Score         DG    S(hbond)    S(metal)    S(lipo)     H(rot)  DE(clash)    DE(int)     intcor
     15.00     -16.56       1.91        0.00      71.32       1.43       0.07       1.49       ----

> <Gold.Chemscore.Fitness>
14.9997

> <Gold.Chemscore.DG>
-16.5576

> <Gold.Chemscore.ZeroCoef>
-5.4800

> <Gold.Chemscore.Hbond>
1.9125

> <Gold.Chemscore.Metal>
0.0000

> <Gold.Chemscore.Lipo>
71.3249

> <Gold.Chemscore.Internal_Hbond>
0.0000

> <Gold.Chemscore.DEClash>
0.0703

> <Gold.Chemscore.DEInternal>
1.4876

> <Gold.Chemscore.Rot>
1.4278

> <Gold.Chemscore.Internal.Correction>
   9.000000E+99

> <Gold.Chemscore.Hbonds>
donor molecule, donor type, donor heavy atom, donor atom, acceptor molecule, acceptor atom, score
      L1  H     7    53       P1  7948  0.42
      L1  H    19    54       P1  8028  0.93

> <Gold.Chemscore.Hbond.Weighted>
-6.3876

> <Gold.Chemscore.Metal.Weighted>
-0.0000

> <Gold.Chemscore.Lipo.Weighted>
-8.3450

> <Gold.Chemscore.Internal_Hbond.Weighted>
0.0000

> <Gold.Chemscore.DEClash.Weighted>
0.0703

> <Gold.Chemscore.DEInternal.Weighted>
1.4876

> <Gold.Chemscore.Rot.Weighted>
3.6551

> <Gold.Chemscore.Internal.Correction.Weighted>
   9.000000E+99

> <Gold.Protein.RotatedTorsions>
[ 6907 6896 6895 6894 ] final  138.50 input  -60.11 | X-H torsion
[ 7974 7965 7964 7962 ] final   35.20 input  175.53 | X-H torsion
[ 8008 7997 7996 7995 ] final   99.39 input   59.86 | X-H torsion
[ 10167 10162 10161 10158 ] final   57.06 input  -65.29 | X-H torsion
[ 10718 10713 10712 10709 ] final  -94.71 input   66.30 | X-H torsion
[ 10763 10752 10751 10750 ] final  -20.66 input  -60.55 | X-H torsion
[ 11005 11000 10999 10996 ] final -158.36 input  -57.11 | X-H torsion

> <Gold.Protein.ActiveResidues>
 VAL166  LYS551  ARG553  GLY616  TRP617  ASP618  TYR619  PRO620  LYS621  CYS622 
 ASP623  PHE694  ASN695  SER759  ASP760  ASP761  ALA762  ILE779  LEU786  VAL792 
 PHE793  MET794  SER795  GLU796  ALA797  LYS798  CYS799  TRP800  GLU811  SER814 

> <Gold.Protein.RotatedAtoms>
  152.2659  133.5339  159.5409 H   0  0  0  0  0  0  0  0  0  0  0  0  # atno 6907 bound_to 6896
  150.7141  134.0765  159.3892 H   0  0  0  0  0  0  0  0  0  0  0  0  # atno 6908 bound_to 6896
  151.8681  135.0499  160.0527 H   0  0  0  0  0  0  0  0  0  0  0  0  # atno 6909 bound_to 6896
  146.1300  139.6173  142.9233 H   0  0  0  0  0  0  0  0  0  0  0  0  # atno 7974 bound_to 7965
  156.1100  140.3229  155.8060 H   0  0  0  0  0  0  0  0  0  0  0  0  # atno 8008 bound_to 7997
  155.4689  140.0545  157.2999 H   0  0  0  0  0  0  0  0  0  0  0  0  # atno 8009 bound_to 7997
  154.4754  140.2030  155.9906 H   0  0  0  0  0  0  0  0  0  0  0  0  # atno 8010 bound_to 7997
  140.2021  144.3977  150.6524 H   0  0  0  0  0  0  0  0  0  0  0  0  # atno 10167 bound_to 10162
  156.0031  130.5079  150.5967 H   0  0  0  0  0  0  0  0  0  0  0  0  # atno 10718 bound_to 10713
  153.6239  135.6991  153.5300 H   0  0  0  0  0  0  0  0  0  0  0  0  # atno 10763 bound_to 10752
  153.2914  135.4156  155.1170 H   0  0  0  0  0  0  0  0  0  0  0  0  # atno 10764 bound_to 10752
  154.8537  135.3626  154.5781 H   0  0  0  0  0  0  0  0  0  0  0  0  # atno 10765 bound_to 10752
  140.6545  134.4415  157.5235 H   0  0  0  0  0  0  0  0  0  0  0  0  # atno 11005 bound_to 11000
  145.5282  141.0428  143.2398 LP  0  0  0  0  0  0  0  0  0  0  0  0  # atno 17320 bound_to 7965
  144.7681  139.6799  143.7206 LP  0  0  0  0  0  0  0  0  0  0  0  0  # atno 17321 bound_to 7965
  140.6383  143.2199  151.6346 LP  0  0  0  0  0  0  0  0  0  0  0  0  # atno 17342 bound_to 10162
  139.5213  144.3197  152.0921 LP  0  0  0  0  0  0  0  0  0  0  0  0  # atno 17343 bound_to 10162
  157.3823  131.0783  151.1466 LP  0  0  0  0  0  0  0  0  0  0  0  0  # atno 17370 bound_to 10713
  157.2185  130.6470  149.5801 LP  0  0  0  0  0  0  0  0  0  0  0  0  # atno 17371 bound_to 10713
  139.9034  134.8503  156.1802 LP  0  0  0  0  0  0  0  0  0  0  0  0  # atno 17394 bound_to 11000
  141.0512  133.6888  156.1775 LP  0  0  0  0  0  0  0  0  0  0  0  0  # atno 17395 bound_to 11000

$$$$
