AV-unprocessed.smi:256|AV-procd|sdf|1961|dock7
  -GOLD-   2262021103D 1   1.00000     0.00000
 Structure written by MMmdl.
 61 64  0  0  0  0  0  0  0  0  1 V2000
  151.1547  132.3350  156.2024 C   0  0  0  0  0  0  0  0  0  0  0  0
  149.6802  132.6929  155.9497 C   0  0  0  0  0  0  0  0  0  0  0  0
  149.1895  133.9846  156.6456 C   0  0  2  0  0  0  0  0  0  0  0  0
  149.9782  135.1913  156.0783 C   0  0  0  0  0  0  0  0  0  0  0  0
  149.4811  136.4516  156.6252 N   0  0  0  0  0  0  0  0  0  0  0  0
  149.8910  137.6082  156.0436 C   0  0  0  0  0  0  0  0  0  0  0  0
  150.1862  137.6345  154.7156 N   0  0  0  0  0  0  0  0  0  0  0  0
  150.5947  138.7666  154.1355 C   0  0  0  0  0  0  0  0  0  0  0  0
  150.7735  139.9684  154.6858 N   0  0  0  0  0  0  0  0  0  0  0  0
  150.4748  139.9523  156.0161 C   0  0  0  0  0  0  0  0  0  0  0  0
  150.0273  138.8277  156.7664 C   0  0  0  0  0  0  0  0  0  0  0  0
  149.8037  139.2013  158.0868 N   0  0  0  0  0  0  0  0  0  0  0  0
  150.1112  140.4689  158.1169 C   0  0  0  0  0  0  0  0  0  0  0  0
  150.5339  140.9994  156.9192 N   0  0  0  0  0  0  0  0  0  0  0  0
  150.9370  142.3754  156.6702 C   0  0  0  0  0  0  0  0  0  0  0  0
  151.2135  143.1950  157.9554 C   0  0  0  0  0  0  0  0  0  0  0  0
  152.1860  142.4970  158.7135 O   0  0  0  0  0  0  0  0  0  0  0  0
  151.7835  144.5817  157.5941 C   0  0  0  0  0  0  0  0  0  0  0  0
  151.9130  145.4957  158.8252 C   0  0  0  0  0  0  0  0  0  0  0  0
  150.6559  145.6083  159.4811 O   0  0  0  0  0  0  0  0  0  0  0  0
  150.1859  144.3646  159.9861 C   0  0  0  0  0  0  0  0  0  0  0  0
  149.9530  143.3765  158.8296 C   0  0  0  0  0  0  0  0  0  0  0  0
  149.4801  136.4607  158.0829 C   0  0  0  0  0  0  0  0  0  0  0  0
  148.6805  135.2590  158.6030 C   0  0  0  0  0  0  0  0  0  0  0  0
  149.1960  133.9693  158.1286 N   0  0  0  0  0  0  0  0  0  0  0  0
  148.3830  132.8909  158.7116 C   0  0  0  0  0  0  0  0  0  0  0  0
  148.2259  132.9267  160.2408 C   0  0  0  0  0  0  0  0  0  0  0  0
  147.2771  133.9283  160.5679 O   0  0  0  0  0  0  0  0  0  0  0  0
  147.0550  134.0345  161.9634 C   0  0  0  0  0  0  0  0  0  0  0  0
  151.3933  131.3642  155.7683 H   0  0  0  0  0  0  0  0  0  0  0  0
  151.3837  132.2863  157.2666 H   0  0  0  0  0  0  0  0  0  0  0  0
  151.8279  133.0635  155.7514 H   0  0  0  0  0  0  0  0  0  0  0  0
  149.5404  132.8030  154.8736 H   0  0  0  0  0  0  0  0  0  0  0  0
  149.0385  131.8555  156.2175 H   0  0  0  0  0  0  0  0  0  0  0  0
  148.1544  134.1187  156.3261 H   0  0  0  0  0  0  0  0  0  0  0  0
  151.0383  135.1021  156.3181 H   0  0  0  0  0  0  0  0  0  0  0  0
  149.8912  135.2066  154.9908 H   0  0  0  0  0  0  0  0  0  0  0  0
  150.8084  138.6998  153.0790 H   0  0  0  0  0  0  0  0  0  0  0  0
  150.0432  141.0554  159.0219 H   0  0  0  0  0  0  0  0  0  0  0  0
  151.8200  142.3643  156.0293 H   0  0  0  0  0  0  0  0  0  0  0  0
  150.1480  142.8524  156.0875 H   0  0  0  0  0  0  0  0  0  0  0  0
  152.3870  141.6861  158.2720 H   0  0  0  0  0  0  0  0  0  0  0  0
  152.7502  144.4821  157.0985 H   0  0  0  0  0  0  0  0  0  0  0  0
  151.1222  145.0669  156.8749 H   0  0  0  0  0  0  0  0  0  0  0  0
  152.6668  145.1199  159.5187 H   0  0  0  0  0  0  0  0  0  0  0  0
  152.2369  146.4899  158.5176 H   0  0  0  0  0  0  0  0  0  0  0  0
  150.8954  143.9622  160.7107 H   0  0  0  0  0  0  0  0  0  0  0  0
  149.2523  144.5348  160.5224 H   0  0  0  0  0  0  0  0  0  0  0  0
  149.1381  143.7537  158.2103 H   0  0  0  0  0  0  0  0  0  0  0  0
  149.6157  142.4202  159.2314 H   0  0  0  0  0  0  0  0  0  0  0  0
  150.5084  136.4144  158.4440 H   0  0  0  0  0  0  0  0  0  0  0  0
  149.0476  137.3789  158.4780 H   0  0  0  0  0  0  0  0  0  0  0  0
  148.7027  135.2836  159.6931 H   0  0  0  0  0  0  0  0  0  0  0  0
  147.6339  135.3699  158.3140 H   0  0  0  0  0  0  0  0  0  0  0  0
  147.3684  132.9486  158.3141 H   0  0  0  0  0  0  0  0  0  0  0  0
  148.7574  131.9182  158.3899 H   0  0  0  0  0  0  0  0  0  0  0  0
  147.8929  131.9744  160.6464 H   0  0  0  0  0  0  0  0  0  0  0  0
  149.1851  133.1623  160.7045 H   0  0  0  0  0  0  0  0  0  0  0  0
  146.3275  134.8220  162.1604 H   0  0  0  0  0  0  0  0  0  0  0  0
  147.9751  134.2875  162.4919 H   0  0  0  0  0  0  0  0  0  0  0  0
  146.6613  133.1029  162.3718 H   0  0  0  0  0  0  0  0  0  0  0  0
  1  2  1  0  0  0  0
  1 30  1  0  0  0  0
  1 31  1  0  0  0  0
  1 32  1  0  0  0  0
  2  3  1  0  0  0  0
  2 33  1  0  0  0  0
  2 34  1  0  0  0  0
  3 25  1  0  0  0  0
  3  4  1  0  0  0  0
  3 35  1  0  0  0  0
  4  5  1  0  0  0  0
  4 36  1  0  0  0  0
  4 37  1  0  0  0  0
  5  6  1  0  0  0  0
  5 23  1  0  0  0  0
  6 11  1  0  0  0  0
  6  7  2  0  0  0  0
  7  8  1  0  0  0  0
  8  9  2  0  0  0  0
  8 38  1  0  0  0  0
  9 10  1  0  0  0  0
 10 14  1  0  0  0  0
 10 11  2  0  0  0  0
 11 12  1  0  0  0  0
 12 13  2  0  0  0  0
 13 14  1  0  0  0  0
 13 39  1  0  0  0  0
 14 15  1  0  0  0  0
 15 16  1  0  0  0  0
 15 40  1  0  0  0  0
 15 41  1  0  0  0  0
 16 22  1  0  0  0  0
 16 17  1  0  0  0  0
 16 18  1  0  0  0  0
 17 42  1  0  0  0  0
 18 19  1  0  0  0  0
 18 43  1  0  0  0  0
 18 44  1  0  0  0  0
 19 20  1  0  0  0  0
 19 45  1  0  0  0  0
 19 46  1  0  0  0  0
 20 21  1  0  0  0  0
 21 22  1  0  0  0  0
 21 47  1  0  0  0  0
 21 48  1  0  0  0  0
 22 49  1  0  0  0  0
 22 50  1  0  0  0  0
 23 24  1  0  0  0  0
 23 51  1  0  0  0  0
 23 52  1  0  0  0  0
 24 25  1  0  0  0  0
 24 53  1  0  0  0  0
 24 54  1  0  0  0  0
 25 26  1  0  0  0  0
 26 27  1  0  0  0  0
 26 55  1  0  0  0  0
 26 56  1  0  0  0  0
 27 28  1  0  0  0  0
 27 57  1  0  0  0  0
 27 58  1  0  0  0  0
 28 29  1  0  0  0  0
 29 59  1  0  0  0  0
 29 60  1  0  0  0  0
 29 61  1  0  0  0  0
M  END
> <s_m_source_file>
AV-unprocessed.smi

> <i_m_source_file_index>
256

> <i_lp_mmshare_version>
43012

> <i_f3d_flags>
0

> <s_epik_input>
W0NIM11PW0NIMl1bQ0gyXU4xW0NIMl1bQ0gyXU4oW0NIMl1bQ0BIXTFbQ0gyXVtDSDNdKWMobltjSF1uMiljKGMyMyluW2NIXW4zW0NIMl1DNChbT0hdKVtDSDJdW0NIMl1PW0NIMl1bQ0gyXTQ=

> <s_epik_cmdline>
J2VwaWtfcHl0aG9uJywgJy1waCcsICc3LjAnLCAnLXRuJywgJzgnLCAnLW1hJywgJzIwMCcsICctbWV0YWxfYmluZGluZycsICctaW1hZScsICc8aW5maWxlLm1hZT4nLCAnLW9tYWUnLCAnPG91dGZpbGUubWFlPic=

> <r_lp_tautomer_probability>
1

> <r_epik_Ionization_Penalty>
0.676279

> <r_epik_Ionization_Penalty_Charging>
0

> <r_epik_Ionization_Penalty_Neutral>
0.676279

> <r_epik_State_Penalty>
0.6855

> <r_epik_Charging_Adjusted_Penalty>
0.6855

> <i_epik_Tot_Q>
0

> <i_epik_Tot_abs_Q>
0

> <r_epik_Metal_State_Penalty>
0.678557

> <b_epik_Metal_Only>
0

> <s_lp_Force_Field>
OPLS_2005

> <r_lp_Energy>
62.0394

> <b_lp_Chiralities_Consistent>
1

> <s_lp_Variant>
AV-unprocessed.smi:256-5

> <Gold.Version>
5.8.1

> <Gold.Id.Protein>
6NUR|6NUR_protein|mol2

> <Gold.PLP.Fitness>
46.4061

> <Gold.PLP.PLP>
-40.2630

> <Gold.PLP.part.hbond>
-3.0228

> <Gold.PLP.part.metal>
0.0000

> <Gold.PLP.part.buried>
-8.2620

> <Gold.PLP.part.nonpolar>
-29.7981

> <Gold.PLP.part.repulsive>
0.4614

> <Gold.PLP.ligand.clash>
1.3300

> <Gold.PLP.ligand.torsion>
0.8205

> <Gold.PLP.Chemscore.Hbond>
1.9500

> <Gold.PLP.Chemscore.CHOScore>
0.9559

> <Gold.PLP.Chemscore.Metal>
0.0000

> <Gold.Chemscore.Hbonds>
donor molecule, donor type, donor heavy atom, donor atom, acceptor molecule, acceptor atom, score
      P1  H  6896  6909       L1    25  0.90
      P1  H  7989  7998       L1     9  1.00
      L1  C     8    38       P1  7957  0.74

> <Gold.PLP.Chemscore.Internal.Correction>
0.3962

> <Gold.Rescore>
     Score         DG    S(hbond)    S(metal)    S(lipo)     H(rot)  DE(clash)    DE(int)     intcor
      7.87     -13.13       0.86        0.00     103.78       2.87       0.27       5.00       ----

> <Gold.Chemscore.Fitness>
7.8658

> <Gold.Chemscore.DG>
-13.1335

> <Gold.Chemscore.ZeroCoef>
-5.4800

> <Gold.Chemscore.Hbond>
0.8556

> <Gold.Chemscore.Metal>
0.0000

> <Gold.Chemscore.Lipo>
103.7848

> <Gold.Chemscore.Internal_Hbond>
0.0000

> <Gold.Chemscore.DEClash>
0.2677

> <Gold.Chemscore.DEInternal>
5.0000

> <Gold.Chemscore.Rot>
2.8700

> <Gold.Chemscore.Internal.Correction>
   9.000000E+99

> <Gold.Chemscore.Hbonds>
donor molecule, donor type, donor heavy atom, donor atom, acceptor molecule, acceptor atom, score
      P1  H  6896  6909       L1    25  0.06
      P1  H  7989  7998       L1     9  0.50

> <Gold.Chemscore.Hbond.Weighted>
-2.8578

> <Gold.Chemscore.Metal.Weighted>
-0.0000

> <Gold.Chemscore.Lipo.Weighted>
-12.1428

> <Gold.Chemscore.Internal_Hbond.Weighted>
0.0000

> <Gold.Chemscore.DEClash.Weighted>
0.2677

> <Gold.Chemscore.DEInternal.Weighted>
5.0000

> <Gold.Chemscore.Rot.Weighted>
7.3472

> <Gold.Chemscore.Internal.Correction.Weighted>
   9.000000E+99

> <Gold.Protein.RotatedTorsions>
[ 6907 6896 6895 6894 ] final   -4.78 input  -60.11 | X-H torsion
[ 7974 7965 7964 7962 ] final  -15.78 input  175.53 | X-H torsion
[ 8008 7997 7996 7995 ] final  115.71 input   59.86 | X-H torsion
[ 10167 10162 10161 10158 ] final  106.24 input  -65.29 | X-H torsion
[ 10718 10713 10712 10709 ] final   -8.09 input   66.30 | X-H torsion
[ 10763 10752 10751 10750 ] final   76.20 input  -60.55 | X-H torsion
[ 11005 11000 10999 10996 ] final  -79.57 input  -57.11 | X-H torsion

> <Gold.Protein.ActiveResidues>
 VAL166  LYS551  ARG553  GLY616  TRP617  ASP618  TYR619  PRO620  LYS621  CYS622 
 ASP623  PHE694  ASN695  SER759  ASP760  ASP761  ALA762  ILE779  LEU786  VAL792 
 PHE793  MET794  SER795  GLU796  ALA797  LYS798  CYS799  TRP800  GLU811  SER814 

> <Gold.Protein.RotatedAtoms>
  151.4922  135.1058  159.9806 H   0  0  0  0  0  0  0  0  0  0  0  0  # atno 6907 bound_to 6896
  152.4736  133.8083  159.7000 H   0  0  0  0  0  0  0  0  0  0  0  0  # atno 6908 bound_to 6896
  150.8760  133.7376  159.2972 H   0  0  0  0  0  0  0  0  0  0  0  0  # atno 6909 bound_to 6896
  146.2017  140.3542  142.8421 H   0  0  0  0  0  0  0  0  0  0  0  0  # atno 7974 bound_to 7965
  156.2397  140.2933  156.0411 H   0  0  0  0  0  0  0  0  0  0  0  0  # atno 8008 bound_to 7997
  155.1986  140.0409  157.2930 H   0  0  0  0  0  0  0  0  0  0  0  0  # atno 8009 bound_to 7997
  154.6146  140.2460  155.7633 H   0  0  0  0  0  0  0  0  0  0  0  0  # atno 8010 bound_to 7997
  139.7025  144.7092  151.1161 H   0  0  0  0  0  0  0  0  0  0  0  0  # atno 10167 bound_to 10162
  156.7076  130.5112  149.5900 H   0  0  0  0  0  0  0  0  0  0  0  0  # atno 10718 bound_to 10713
  153.0709  135.4960  154.8302 H   0  0  0  0  0  0  0  0  0  0  0  0  # atno 10763 bound_to 10752
  154.7020  135.3003  154.9328 H   0  0  0  0  0  0  0  0  0  0  0  0  # atno 10764 bound_to 10752
  154.0049  135.6761  153.4814 H   0  0  0  0  0  0  0  0  0  0  0  0  # atno 10765 bound_to 10752
  141.1667  133.7111  156.8142 H   0  0  0  0  0  0  0  0  0  0  0  0  # atno 11005 bound_to 11000
  144.8698  140.7257  143.6054 LP  0  0  0  0  0  0  0  0  0  0  0  0  # atno 17320 bound_to 7965
  145.3461  139.1719  143.4459 LP  0  0  0  0  0  0  0  0  0  0  0  0  # atno 17321 bound_to 7965
  140.7713  143.5403  150.9320 LP  0  0  0  0  0  0  0  0  0  0  0  0  # atno 17342 bound_to 10162
  139.9086  143.6748  152.3119 LP  0  0  0  0  0  0  0  0  0  0  0  0  # atno 17343 bound_to 10162
  156.1684  130.6420  151.0806 LP  0  0  0  0  0  0  0  0  0  0  0  0  # atno 17370 bound_to 10713
  157.6949  131.0797  150.7000 LP  0  0  0  0  0  0  0  0  0  0  0  0  # atno 17371 bound_to 10713
  140.2166  134.8788  157.3332 LP  0  0  0  0  0  0  0  0  0  0  0  0  # atno 17394 bound_to 11000
  140.2031  134.4230  155.7652 LP  0  0  0  0  0  0  0  0  0  0  0  0  # atno 17395 bound_to 11000

$$$$
