AV-unprocessed.smi:2822|AV-procd|sdf|10873|dock6
  -GOLD-   2272015313D 1   1.00000     0.00000
 Structure written by MMmdl.
 40 42  0  0  0  0  0  0  0  0  2 V2000
  149.8297  137.8282  154.7230 Cl  0  0  0  0  0  0  0  0  0  0  0  0
  148.8947  139.2358  154.3554 C   0  0  0  0  0  0  0  0  0  0  0  0
  149.3721  140.5090  154.7290 C   0  0  0  0  0  0  0  0  0  0  0  0
  148.7059  141.6559  154.4801 N   0  0  0  0  0  0  0  0  0  0  0  0
  147.5216  141.5678  153.8399 C   0  0  0  0  0  0  0  0  0  0  0  0
  146.9537  140.3474  153.4223 C   0  0  0  0  0  0  0  0  0  0  0  0
  147.6537  139.1457  153.6832 C   0  0  0  0  0  0  0  0  0  0  0  0
  147.1605  137.8875  153.3047 N   0  0  0  0  0  0  0  0  0  0  0  0
  145.8280  137.7518  152.7369 C   0  0  0  0  0  0  0  0  0  0  0  0
  145.5018  136.2902  152.3997 C   0  0  1  0  0  0  0  0  0  0  0  0
  145.6871  136.0054  150.8922 C   0  0  0  0  0  0  0  0  0  0  0  0
  145.4997  134.5678  150.5804 N   0  3  2  0  0  0  0  0  0  0  0  0
  144.0715  134.1500  150.5460 C   0  0  0  0  0  0  0  0  0  0  0  0
  143.9320  132.6729  150.1500 C   0  0  0  0  0  0  0  0  0  0  0  0
  144.7288  131.7794  151.1070 C   0  0  0  0  0  0  0  0  0  0  0  0
  146.1984  132.2209  151.1286 C   0  0  0  0  0  0  0  0  0  0  0  0
  146.3599  133.7213  151.4528 C   0  0  2  0  0  0  0  0  0  0  0  0
  146.1361  134.0687  152.9397 C   0  0  0  0  0  0  0  0  0  0  0  0
  146.3893  135.4549  153.1380 O   0  0  0  0  0  0  0  0  0  0  0  0
  150.3163  140.6104  155.2434 H   0  0  0  0  0  0  0  0  0  0  0  0
  147.0077  142.4994  153.6551 H   0  0  0  0  0  0  0  0  0  0  0  0
  145.9997  140.3560  152.9175 H   0  0  0  0  0  0  0  0  0  0  0  0
  147.8142  137.1263  153.1858 H   0  0  0  0  0  0  0  0  0  0  0  0
  145.1049  138.1237  153.4639 H   0  0  0  0  0  0  0  0  0  0  0  0
  145.7410  138.3721  151.8439 H   0  0  0  0  0  0  0  0  0  0  0  0
  144.4717  136.0832  152.6944 H   0  0  0  0  0  0  0  0  0  0  0  0
  145.0045  136.6111  150.2949 H   0  0  0  0  0  0  0  0  0  0  0  0
  146.6959  136.2893  150.5893 H   0  0  0  0  0  0  0  0  0  0  0  0
  143.5996  134.3131  151.5148 H   0  0  0  0  0  0  0  0  0  0  0  0
  143.5325  134.7698  149.8287 H   0  0  0  0  0  0  0  0  0  0  0  0
  142.8809  132.3827  150.1564 H   0  0  0  0  0  0  0  0  0  0  0  0
  144.2873  132.5298  149.1285 H   0  0  0  0  0  0  0  0  0  0  0  0
  144.3042  131.8348  152.1099 H   0  0  0  0  0  0  0  0  0  0  0  0
  144.6555  130.7370  150.7954 H   0  0  0  0  0  0  0  0  0  0  0  0
  146.7622  131.6170  151.8403 H   0  0  0  0  0  0  0  0  0  0  0  0
  146.6379  132.0212  150.1502 H   0  0  0  0  0  0  0  0  0  0  0  0
  147.3940  133.9827  151.2221 H   0  0  0  0  0  0  0  0  0  0  0  0
  145.1278  133.8189  153.2718 H   0  0  0  0  0  0  0  0  0  0  0  0
  146.8232  133.4997  153.5662 H   0  0  0  0  0  0  0  0  0  0  0  0
  145.8373  134.4354  149.6375 H   0  0  0  0  0  0  0  0  0  0  0  0
  1  2  1  0  0  0  0
  2  7  1  0  0  0  0
  2  3  2  0  0  0  0
  3  4  1  0  0  0  0
  3 20  1  0  0  0  0
  4  5  2  0  0  0  0
  5  6  1  0  0  0  0
  5 21  1  0  0  0  0
  6  7  2  0  0  0  0
  6 22  1  0  0  0  0
  7  8  1  0  0  0  0
  8  9  1  0  0  0  0
  8 23  1  0  0  0  0
  9 10  1  0  0  0  0
  9 24  1  0  0  0  0
  9 25  1  0  0  0  0
 10 19  1  0  0  0  0
 10 11  1  0  0  0  0
 10 26  1  0  0  0  0
 11 12  1  0  0  0  0
 11 27  1  0  0  0  0
 11 28  1  0  0  0  0
 12 17  1  0  0  0  0
 12 13  1  0  0  0  0
 12 40  1  0  0  0  0
 13 14  1  0  0  0  0
 13 29  1  0  0  0  0
 13 30  1  0  0  0  0
 14 15  1  0  0  0  0
 14 31  1  0  0  0  0
 14 32  1  0  0  0  0
 15 16  1  0  0  0  0
 15 33  1  0  0  0  0
 15 34  1  0  0  0  0
 16 17  1  0  0  0  0
 16 35  1  0  0  0  0
 16 36  1  0  0  0  0
 17 18  1  0  0  0  0
 17 37  1  0  0  0  0
 18 19  1  0  0  0  0
 18 38  1  0  0  0  0
 18 39  1  0  0  0  0
M  CHG  1  12   1
M  END
> <s_m_source_file>
AV-unprocessed.smi

> <i_m_source_file_index>
2822

> <i_lp_mmshare_version>
43012

> <i_f3d_flags>
0

> <s_epik_input>
Q2xjMVtjSF1uW2NIXVtjSF1jMVtOSF1bQ0gyXVtDQEhdKFtDSDJdMilPW0NIMl1bQ0BASF0oTjIzKVtDSDJdW0NIMl1bQ0gyXVtDSDJdMw==

> <s_epik_cmdline>
J2VwaWtfcHl0aG9uJywgJy1waCcsICc3LjAnLCAnLXRuJywgJzgnLCAnLW1hJywgJzIwMCcsICctbWV0YWxfYmluZGluZycsICctaW1hZScsICc8aW5maWxlLm1hZT4nLCAnLW9tYWUnLCAnPG91dGZpbGUubWFlPic=

> <r_lp_tautomer_probability>
0.999999

> <r_epik_Ionization_Penalty>
0.88937

> <r_epik_Ionization_Penalty_Charging>
0.0803403

> <r_epik_Ionization_Penalty_Neutral>
0.80903

> <r_epik_State_Penalty>
0.931884

> <r_epik_Charging_Adjusted_Penalty>
1.01222

> <i_epik_Tot_Q>
1

> <i_epik_Tot_abs_Q>
1

> <r_epik_Metal_State_Penalty>
0.0782275

> <b_epik_Metal_Only>
0

> <s_lp_Force_Field>
OPLS_2005

> <r_lp_Energy>
32.5478

> <b_lp_Chiralities_Consistent>
1

> <s_lp_Variant>
AV-unprocessed.smi:2822-14

> <Gold.Version>
5.8.1

> <Gold.Id.Protein>
6NUR|6NUR_protein|mol2

> <Gold.PLP.Fitness>
40.7207

> <Gold.PLP.PLP>
-35.4702

> <Gold.PLP.part.hbond>
-3.0000

> <Gold.PLP.part.metal>
0.0000

> <Gold.PLP.part.buried>
-1.2854

> <Gold.PLP.part.nonpolar>
-31.6687

> <Gold.PLP.part.repulsive>
2.1791

> <Gold.PLP.ligand.clash>
0.0000

> <Gold.PLP.ligand.torsion>
0.5774

> <Gold.PLP.Chemscore.Hbond>
2.1349

> <Gold.PLP.Chemscore.CHOScore>
0.0000

> <Gold.PLP.Chemscore.Metal>
0.0000

> <Gold.Chemscore.Hbonds>
donor molecule, donor type, donor heavy atom, donor atom, acceptor molecule, acceptor atom, score
      L1  H     8    23       P1  7948  0.85
      L1  H    12    40       P1  7921  0.94

> <Gold.PLP.Chemscore.Internal.Correction>
0.0006

> <Gold.Rescore>
     Score         DG    S(hbond)    S(metal)    S(lipo)     H(rot)  DE(clash)    DE(int)     intcor
     19.02     -21.26       1.88        0.00     106.82       1.17       1.58       0.67       ----

> <Gold.Chemscore.Fitness>
19.0185

> <Gold.Chemscore.DG>
-21.2650

> <Gold.Chemscore.ZeroCoef>
-5.4800

> <Gold.Chemscore.Hbond>
1.8804

> <Gold.Chemscore.Metal>
0.0000

> <Gold.Chemscore.Lipo>
106.8195

> <Gold.Chemscore.Internal_Hbond>
0.0000

> <Gold.Chemscore.DEClash>
1.5772

> <Gold.Chemscore.DEInternal>
0.6693

> <Gold.Chemscore.Rot>
1.1693

> <Gold.Chemscore.Internal.Correction>
   9.000000E+99

> <Gold.Chemscore.Hbonds>
donor molecule, donor type, donor heavy atom, donor atom, acceptor molecule, acceptor atom, score
      L1  H     8    23       P1  7948  0.84
      L1  H    12    40       P1  7921  0.58

> <Gold.Chemscore.Hbond.Weighted>
-6.2804

> <Gold.Chemscore.Metal.Weighted>
-0.0000

> <Gold.Chemscore.Lipo.Weighted>
-12.4979

> <Gold.Chemscore.Internal_Hbond.Weighted>
0.0000

> <Gold.Chemscore.DEClash.Weighted>
1.5772

> <Gold.Chemscore.DEInternal.Weighted>
0.6693

> <Gold.Chemscore.Rot.Weighted>
2.9934

> <Gold.Chemscore.Internal.Correction.Weighted>
   9.000000E+99

> <Gold.Protein.RotatedTorsions>
[ 6907 6896 6895 6894 ] final -156.87 input  -60.11 | X-H torsion
[ 7974 7965 7964 7962 ] final -148.20 input  175.53 | X-H torsion
[ 8008 7997 7996 7995 ] final   16.50 input   59.86 | X-H torsion
[ 10167 10162 10161 10158 ] final  102.74 input  -65.29 | X-H torsion
[ 10718 10713 10712 10709 ] final  164.25 input   66.30 | X-H torsion
[ 10763 10752 10751 10750 ] final  108.27 input  -60.55 | X-H torsion
[ 11005 11000 10999 10996 ] final -120.30 input  -57.11 | X-H torsion

> <Gold.Protein.ActiveResidues>
 VAL166  LYS551  ARG553  GLY616  TRP617  ASP618  TYR619  PRO620  LYS621  CYS622 
 ASP623  PHE694  ASN695  SER759  ASP760  ASP761  ALA762  ILE779  LEU786  VAL792 
 PHE793  MET794  SER795  GLU796  ALA797  LYS798  CYS799  TRP800  GLU811  SER814 

> <Gold.Protein.RotatedAtoms>
  151.2942  133.4151  159.2634 H   0  0  0  0  0  0  0  0  0  0  0  0  # atno 6907 bound_to 6896
  151.0251  134.9498  159.8091 H   0  0  0  0  0  0  0  0  0  0  0  0  # atno 6908 bound_to 6896
  152.5333  134.2904  159.9093 H   0  0  0  0  0  0  0  0  0  0  0  0  # atno 6909 bound_to 6896
  144.8044  140.5227  143.5685 H   0  0  0  0  0  0  0  0  0  0  0  0  # atno 7974 bound_to 7965
  154.8779  140.2968  155.5442 H   0  0  0  0  0  0  0  0  0  0  0  0  # atno 8008 bound_to 7997
  156.3022  140.2448  156.3711 H   0  0  0  0  0  0  0  0  0  0  0  0  # atno 8009 bound_to 7997
  154.8748  140.0400  157.1736 H   0  0  0  0  0  0  0  0  0  0  0  0  # atno 8010 bound_to 7997
  139.7324  144.7032  151.0702 H   0  0  0  0  0  0  0  0  0  0  0  0  # atno 10167 bound_to 10162
  157.0971  131.0433  151.2513 H   0  0  0  0  0  0  0  0  0  0  0  0  # atno 10718 bound_to 10713
  153.4184  135.3817  155.2095 H   0  0  0  0  0  0  0  0  0  0  0  0  # atno 10763 bound_to 10752
  154.8743  135.3811  154.4415 H   0  0  0  0  0  0  0  0  0  0  0  0  # atno 10764 bound_to 10752
  153.4932  135.7088  153.5935 H   0  0  0  0  0  0  0  0  0  0  0  0  # atno 10765 bound_to 10752
  141.0153  134.0204  157.3358 H   0  0  0  0  0  0  0  0  0  0  0  0  # atno 11005 bound_to 11000
  145.5474  139.1476  143.3413 LP  0  0  0  0  0  0  0  0  0  0  0  0  # atno 17320 bound_to 7965
  146.2333  140.5612  142.8966 LP  0  0  0  0  0  0  0  0  0  0  0  0  # atno 17321 bound_to 7965
  140.7773  143.5027  150.9751 LP  0  0  0  0  0  0  0  0  0  0  0  0  # atno 17342 bound_to 10162
  139.8715  143.7186  152.3166 LP  0  0  0  0  0  0  0  0  0  0  0  0  # atno 17343 bound_to 10162
  157.4672  130.7688  149.7290 LP  0  0  0  0  0  0  0  0  0  0  0  0  # atno 17370 bound_to 10713
  155.9883  130.3960  150.3124 LP  0  0  0  0  0  0  0  0  0  0  0  0  # atno 17371 bound_to 10713
  139.9113  135.0190  156.7704 LP  0  0  0  0  0  0  0  0  0  0  0  0  # atno 17394 bound_to 11000
  140.6665  133.9598  155.7833 LP  0  0  0  0  0  0  0  0  0  0  0  0  # atno 17395 bound_to 11000

$$$$
