AV-unprocessed.smi:618|AV-procd|sdf|3074|dock1
  -GOLD-   2262023593D 1   1.00000     0.00000
 Structure written by MMmdl.
 41 43  0  0  0  0  0  0  0  0  2 V2000
  150.1061  135.2393  156.2838 O   0  0  0  0  0  0  0  0  0  0  0  0
  149.7898  135.4624  155.1153 C   0  0  0  0  0  0  0  0  0  0  0  0
  149.2374  134.5414  154.3140 N   0  0  0  0  0  0  0  0  0  0  0  0
  148.9475  133.1638  154.6977 C   0  0  0  0  0  0  0  0  0  0  0  0
  148.2892  132.3731  153.5533 C   0  0  2  0  0  0  0  0  0  0  0  0
  147.5053  133.2972  152.5919 C   0  0  0  0  0  0  0  0  0  0  0  0
  146.8148  132.4530  151.6000 N   0  3  2  0  0  0  0  0  0  0  0  0
  146.0096  133.1125  150.5577 C   0  0  0  0  0  0  0  0  0  0  0  0
  144.9848  132.0471  150.1181 C   0  0  0  0  0  0  0  0  0  0  0  0
  145.1801  130.8584  151.0771 C   0  0  0  0  0  0  0  0  0  0  0  0
  145.9280  131.4848  152.2492 C   0  0  1  0  0  0  0  0  0  0  0  0
  146.7630  130.5694  153.1537 C   0  0  0  0  0  0  0  0  0  0  0  0
  147.4070  131.3982  154.1228 O   0  0  0  0  0  0  0  0  0  0  0  0
  149.9223  136.6405  154.4827 N   0  0  0  0  0  0  0  0  0  0  0  0
  150.4801  137.8522  154.9727 C   0  0  0  0  0  0  0  0  0  0  0  0
  151.3268  137.9415  156.1043 C   0  0  0  0  0  0  0  0  0  0  0  0
  151.8325  139.2016  156.4769 C   0  0  0  0  0  0  0  0  0  0  0  0
  151.4807  140.3239  155.7025 C   0  0  0  0  0  0  0  0  0  0  0  0
  150.6854  140.2519  154.6145 N   0  0  0  0  0  0  0  0  0  0  0  0
  150.2045  139.0403  154.2629 C   0  0  0  0  0  0  0  0  0  0  0  0
  149.0009  134.8105  153.3699 H   0  0  0  0  0  0  0  0  0  0  0  0
  149.8826  132.6867  154.9923 H   0  0  0  0  0  0  0  0  0  0  0  0
  148.3065  133.1589  155.5810 H   0  0  0  0  0  0  0  0  0  0  0  0
  149.0610  131.8519  152.9841 H   0  0  0  0  0  0  0  0  0  0  0  0
  146.7787  133.8997  153.1394 H   0  0  0  0  0  0  0  0  0  0  0  0
  148.1819  133.9838  152.0817 H   0  0  0  0  0  0  0  0  0  0  0  0
  145.4948  133.9794  150.9750 H   0  0  0  0  0  0  0  0  0  0  0  0
  146.6392  133.4526  149.7351 H   0  0  0  0  0  0  0  0  0  0  0  0
  143.9729  132.4463  150.1978 H   0  0  0  0  0  0  0  0  0  0  0  0
  145.1365  131.7427  149.0820 H   0  0  0  0  0  0  0  0  0  0  0  0
  144.2390  130.3949  151.3752 H   0  0  0  0  0  0  0  0  0  0  0  0
  145.7968  130.0944  150.6011 H   0  0  0  0  0  0  0  0  0  0  0  0
  145.2070  132.0281  152.8642 H   0  0  0  0  0  0  0  0  0  0  0  0
  146.1244  129.8487  153.6646 H   0  0  0  0  0  0  0  0  0  0  0  0
  147.5021  130.0054  152.5824 H   0  0  0  0  0  0  0  0  0  0  0  0
  149.5381  136.6896  153.5503 H   0  0  0  0  0  0  0  0  0  0  0  0
  151.6094  137.0754  156.6820 H   0  0  0  0  0  0  0  0  0  0  0  0
  152.4803  139.3042  157.3349 H   0  0  0  0  0  0  0  0  0  0  0  0
  151.8533  141.3042  155.9604 H   0  0  0  0  0  0  0  0  0  0  0  0
  149.5743  139.0205  153.3856 H   0  0  0  0  0  0  0  0  0  0  0  0
  147.5209  131.9149  151.1181 H   0  0  0  0  0  0  0  0  0  0  0  0
  1  2  2  0  0  0  0
  2  3  1  0  0  0  0
  2 14  1  0  0  0  0
  3  4  1  0  0  0  0
  3 21  1  0  0  0  0
  4  5  1  0  0  0  0
  4 22  1  0  0  0  0
  4 23  1  0  0  0  0
  5 13  1  0  0  0  0
  5  6  1  0  0  0  0
  5 24  1  0  0  0  0
  6  7  1  0  0  0  0
  6 25  1  0  0  0  0
  6 26  1  0  0  0  0
  7 11  1  0  0  0  0
  7  8  1  0  0  0  0
  7 41  1  0  0  0  0
  8  9  1  0  0  0  0
  8 27  1  0  0  0  0
  8 28  1  0  0  0  0
  9 10  1  0  0  0  0
  9 29  1  0  0  0  0
  9 30  1  0  0  0  0
 10 11  1  0  0  0  0
 10 31  1  0  0  0  0
 10 32  1  0  0  0  0
 11 12  1  0  0  0  0
 11 33  1  0  0  0  0
 12 13  1  0  0  0  0
 12 34  1  0  0  0  0
 12 35  1  0  0  0  0
 14 15  1  0  0  0  0
 14 36  1  0  0  0  0
 15 20  1  0  0  0  0
 15 16  2  0  0  0  0
 16 17  1  0  0  0  0
 16 37  1  0  0  0  0
 17 18  2  0  0  0  0
 17 38  1  0  0  0  0
 18 19  1  0  0  0  0
 18 39  1  0  0  0  0
 19 20  2  0  0  0  0
 20 40  1  0  0  0  0
M  CHG  1   7   1
M  END
> <s_m_source_file>
AV-unprocessed.smi

> <i_m_source_file_index>
618

> <i_lp_mmshare_version>
43012

> <i_f3d_flags>
0

> <s_epik_input>
W2NIXTFuW2NIXVtjSF1bY0hdYzFbTkhdQyg9TylbTkhdW0NIMl1bQ0BIXShbQ0gyXTIpT1tDSDJdW0NAQEhdKE4yMylbQ0gyXVtDSDJdW0NIMl0z

> <s_epik_cmdline>
J2VwaWtfcHl0aG9uJywgJy1waCcsICc3LjAnLCAnLXRuJywgJzgnLCAnLW1hJywgJzIwMCcsICctbWV0YWxfYmluZGluZycsICctaW1hZScsICc8aW5maWxlLm1hZT4nLCAnLW9tYWUnLCAnPG91dGZpbGUubWFlPic=

> <r_epik_Ionization_Penalty>
0.111044

> <r_epik_Ionization_Penalty_Charging>
0.10673

> <r_epik_Ionization_Penalty_Neutral>
0.00431361

> <r_epik_State_Penalty>
0.0978747

> <r_epik_Charging_Adjusted_Penalty>
0.204605

> <i_epik_Tot_Q>
1

> <i_epik_Tot_abs_Q>
1

> <r_epik_Metal_State_Penalty>
0.0947591

> <b_epik_Metal_Only>
0

> <s_lp_Force_Field>
OPLS_2005

> <r_lp_Energy>
37.7541

> <b_lp_Chiralities_Consistent>
1

> <s_lp_Variant>
AV-unprocessed.smi:618-1

> <Gold.Version>
5.8.1

> <Gold.Id.Protein>
6NUR|6NUR_protein|mol2

> <Gold.PLP.Fitness>
51.5283

> <Gold.PLP.PLP>
-39.0495

> <Gold.PLP.part.hbond>
-4.9302

> <Gold.PLP.part.metal>
0.0000

> <Gold.PLP.part.buried>
-4.1886

> <Gold.PLP.part.nonpolar>
-30.0901

> <Gold.PLP.part.repulsive>
0.3056

> <Gold.PLP.ligand.clash>
0.3239

> <Gold.PLP.ligand.torsion>
0.4836

> <Gold.PLP.Chemscore.Hbond>
3.5865

> <Gold.PLP.Chemscore.CHOScore>
1.0000

> <Gold.PLP.Chemscore.Metal>
0.0000

> <Gold.Chemscore.Hbonds>
donor molecule, donor type, donor heavy atom, donor atom, acceptor molecule, acceptor atom, score
      L1  H     3    21       P1  7948  0.89
      L1  H     7    41       P1 10747  1.00
      L1  H    14    36       P1  7948  1.00
      P1  H  7989  7998       L1    19  1.00
      L1  C    20    40       P1  7957  1.00

> <Gold.PLP.Chemscore.Internal.Correction>
0.0107

> <Gold.Rescore>
     Score         DG    S(hbond)    S(metal)    S(lipo)     H(rot)  DE(clash)    DE(int)     intcor
     18.29     -19.77       1.86        0.00      96.68       1.27       0.03       1.44       ----

> <Gold.Chemscore.Fitness>
18.2942

> <Gold.Chemscore.DG>
-19.7708

> <Gold.Chemscore.ZeroCoef>
-5.4800

> <Gold.Chemscore.Hbond>
1.8620

> <Gold.Chemscore.Metal>
0.0000

> <Gold.Chemscore.Lipo>
96.6792

> <Gold.Chemscore.Internal_Hbond>
0.0000

> <Gold.Chemscore.DEClash>
0.0348

> <Gold.Chemscore.DEInternal>
1.4419

> <Gold.Chemscore.Rot>
1.2656

> <Gold.Chemscore.Internal.Correction>
   9.000000E+99

> <Gold.Chemscore.Hbonds>
donor molecule, donor type, donor heavy atom, donor atom, acceptor molecule, acceptor atom, score
      L1  H     3    21       P1  7948  0.16
      L1  H     7    41       P1 10747  0.97
      L1  H    14    36       P1  7948  0.74
      P1  H  7989  7998       L1    19  0.24

> <Gold.Chemscore.Hbond.Weighted>
-6.2192

> <Gold.Chemscore.Metal.Weighted>
-0.0000

> <Gold.Chemscore.Lipo.Weighted>
-11.3115

> <Gold.Chemscore.Internal_Hbond.Weighted>
0.0000

> <Gold.Chemscore.DEClash.Weighted>
0.0348

> <Gold.Chemscore.DEInternal.Weighted>
1.4419

> <Gold.Chemscore.Rot.Weighted>
3.2399

> <Gold.Chemscore.Internal.Correction.Weighted>
   9.000000E+99

> <Gold.Protein.RotatedTorsions>
[ 6907 6896 6895 6894 ] final  174.30 input  -60.11 | X-H torsion
[ 7974 7965 7964 7962 ] final -166.78 input  175.53 | X-H torsion
[ 8008 7997 7996 7995 ] final   35.45 input   59.86 | X-H torsion
[ 10167 10162 10161 10158 ] final  -96.11 input  -65.29 | X-H torsion
[ 10718 10713 10712 10709 ] final   84.78 input   66.30 | X-H torsion
[ 10763 10752 10751 10750 ] final   51.20 input  -60.55 | X-H torsion
[ 11005 11000 10999 10996 ] final -116.83 input  -57.11 | X-H torsion

> <Gold.Protein.ActiveResidues>
 VAL166  LYS551  ARG553  GLY616  TRP617  ASP618  TYR619  PRO620  LYS621  CYS622 
 ASP623  PHE694  ASN695  SER759  ASP760  ASP761  ALA762  ILE779  LEU786  VAL792 
 PHE793  MET794  SER795  GLU796  ALA797  LYS798  CYS799  TRP800  GLU811  SER814 

> <Gold.Protein.RotatedAtoms>
  151.7544  133.3329  159.3400 H   0  0  0  0  0  0  0  0  0  0  0  0  # atno 6907 bound_to 6896
  150.7522  134.6163  159.6121 H   0  0  0  0  0  0  0  0  0  0  0  0  # atno 6908 bound_to 6896
  152.3447  134.7089  160.0305 H   0  0  0  0  0  0  0  0  0  0  0  0  # atno 6909 bound_to 6896
  144.7237  140.2616  143.6264 H   0  0  0  0  0  0  0  0  0  0  0  0  # atno 7974 bound_to 7965
  155.1713  140.3292  155.4392 H   0  0  0  0  0  0  0  0  0  0  0  0  # atno 8008 bound_to 7997
  156.2509  140.1943  156.6766 H   0  0  0  0  0  0  0  0  0  0  0  0  # atno 8009 bound_to 7997
  154.6335  140.0579  156.9747 H   0  0  0  0  0  0  0  0  0  0  0  0  # atno 8010 bound_to 7997
  140.2972  143.3184  152.0285 H   0  0  0  0  0  0  0  0  0  0  0  0  # atno 10167 bound_to 10162
  157.6904  131.0147  150.2724 H   0  0  0  0  0  0  0  0  0  0  0  0  # atno 10718 bound_to 10713
  152.9785  135.5854  154.4376 H   0  0  0  0  0  0  0  0  0  0  0  0  # atno 10763 bound_to 10752
  154.3981  135.2768  155.2115 H   0  0  0  0  0  0  0  0  0  0  0  0  # atno 10764 bound_to 10752
  154.3958  135.6115  153.5923 H   0  0  0  0  0  0  0  0  0  0  0  0  # atno 10765 bound_to 10752
  141.0396  133.9857  157.3016 H   0  0  0  0  0  0  0  0  0  0  0  0  # atno 11005 bound_to 11000
  145.8130  139.2011  143.1982 LP  0  0  0  0  0  0  0  0  0  0  0  0  # atno 17320 bound_to 7965
  146.0579  140.8001  142.9749 LP  0  0  0  0  0  0  0  0  0  0  0  0  # atno 17321 bound_to 7965
  139.4923  144.6482  151.6733 LP  0  0  0  0  0  0  0  0  0  0  0  0  # atno 17342 bound_to 10162
  140.5682  144.0154  150.6203 LP  0  0  0  0  0  0  0  0  0  0  0  0  # atno 17343 bound_to 10162
  156.3285  130.3796  149.7512 LP  0  0  0  0  0  0  0  0  0  0  0  0  # atno 17370 bound_to 10713
  156.5059  130.8150  151.3150 LP  0  0  0  0  0  0  0  0  0  0  0  0  # atno 17371 bound_to 10713
  139.9266  135.0201  156.8254 LP  0  0  0  0  0  0  0  0  0  0  0  0  # atno 17394 bound_to 11000
  140.6259  133.9950  155.7639 LP  0  0  0  0  0  0  0  0  0  0  0  0  # atno 17395 bound_to 11000

$$$$
