AV-unprocessed.smi:2908|AV-procd|sdf|11167|dock7
  -GOLD-   2272016 53D 1   1.00000     0.00000
 Structure written by MMmdl.
 43 44  0  0  0  0  0  0  0  0  1 V2000
  149.8335  141.0758  153.8217 O   0  0  0  0  0  0  0  0  0  0  0  0
  149.1105  140.9462  154.8107 C   0  0  0  0  0  0  0  0  0  0  0  0
  149.6155  140.7525  156.0399 N   0  0  0  0  0  0  0  0  0  0  0  0
  151.0378  140.6976  156.3486 C   0  0  0  0  0  0  0  0  0  0  0  0
  151.2664  140.6989  157.8665 C   0  0  0  0  0  0  0  0  0  0  0  0
  151.4689  142.0996  158.4138 C   0  0  0  0  0  0  0  0  0  0  0  0
  152.6226  142.4229  159.1596 C   0  0  0  0  0  0  0  0  0  0  0  0
  152.7674  143.7413  159.6331 C   0  0  0  0  0  0  0  0  0  0  0  0
  151.7591  144.6808  159.3438 C   0  0  0  0  0  0  0  0  0  0  0  0
  150.6455  144.2579  158.5913 C   0  0  0  0  0  0  0  0  0  0  0  0
  150.4965  142.9964  158.1330 N   0  0  0  0  0  0  0  0  0  0  0  0
  147.7548  140.9539  154.7472 N   0  0  0  0  0  0  0  0  0  0  0  0
  146.8278  140.6014  155.8337 C   0  0  0  0  0  0  0  0  0  0  0  0
  146.2036  141.8942  156.3873 C   0  0  0  0  0  0  0  0  0  0  0  0
  145.4747  142.7046  155.2840 C   0  0  0  0  0  0  0  0  0  0  0  0
  144.9270  144.0484  155.8380 C   0  0  2  0  0  0  0  0  0  0  0  0
  144.3767  143.8126  157.1213 O   0  0  0  0  0  0  0  0  0  0  0  0
  143.8330  144.7321  154.9847 C   0  0  0  0  0  0  0  0  0  0  0  0
  143.5157  145.9115  155.5211 F   0  0  0  0  0  0  0  0  0  0  0  0
  144.2784  144.9724  153.7520 F   0  0  0  0  0  0  0  0  0  0  0  0
  142.7392  143.9734  154.9101 F   0  0  0  0  0  0  0  0  0  0  0  0
  146.4043  142.8776  154.0571 C   0  0  0  0  0  0  0  0  0  0  0  0
  147.0319  141.5427  153.6155 C   0  0  0  0  0  0  0  0  0  0  0  0
  148.9708  140.6424  156.8088 H   0  0  0  0  0  0  0  0  0  0  0  0
  151.4713  139.7987  155.9072 H   0  0  0  0  0  0  0  0  0  0  0  0
  151.5365  141.5546  155.8928 H   0  0  0  0  0  0  0  0  0  0  0  0
  150.4166  140.2407  158.3744 H   0  0  0  0  0  0  0  0  0  0  0  0
  152.1366  140.0889  158.1128 H   0  0  0  0  0  0  0  0  0  0  0  0
  153.3809  141.6810  159.3625 H   0  0  0  0  0  0  0  0  0  0  0  0
  153.6369  144.0268  160.2065 H   0  0  0  0  0  0  0  0  0  0  0  0
  151.8374  145.7008  159.6898 H   0  0  0  0  0  0  0  0  0  0  0  0
  149.8536  144.9516  158.3504 H   0  0  0  0  0  0  0  0  0  0  0  0
  146.0460  139.9495  155.4414 H   0  0  0  0  0  0  0  0  0  0  0  0
  147.2893  140.0389  156.6451 H   0  0  0  0  0  0  0  0  0  0  0  0
  145.5124  141.6381  157.1907 H   0  0  0  0  0  0  0  0  0  0  0  0
  146.9858  142.5060  156.8389 H   0  0  0  0  0  0  0  0  0  0  0  0
  144.6225  142.1082  154.9544 H   0  0  0  0  0  0  0  0  0  0  0  0
  145.7537  144.7486  155.9652 H   0  0  0  0  0  0  0  0  0  0  0  0
  145.0855  143.6463  157.7241 H   0  0  0  0  0  0  0  0  0  0  0  0
  145.8472  143.2858  153.2146 H   0  0  0  0  0  0  0  0  0  0  0  0
  147.1953  143.5923  154.2885 H   0  0  0  0  0  0  0  0  0  0  0  0
  147.6705  141.7017  152.7454 H   0  0  0  0  0  0  0  0  0  0  0  0
  146.2534  140.8537  153.2848 H   0  0  0  0  0  0  0  0  0  0  0  0
  1  2  2  0  0  0  0
  2  3  1  0  0  0  0
  2 12  1  0  0  0  0
  3  4  1  0  0  0  0
  3 24  1  0  0  0  0
  4  5  1  0  0  0  0
  4 25  1  0  0  0  0
  4 26  1  0  0  0  0
  5  6  1  0  0  0  0
  5 27  1  0  0  0  0
  5 28  1  0  0  0  0
  6 11  1  0  0  0  0
  6  7  2  0  0  0  0
  7  8  1  0  0  0  0
  7 29  1  0  0  0  0
  8  9  2  0  0  0  0
  8 30  1  0  0  0  0
  9 10  1  0  0  0  0
  9 31  1  0  0  0  0
 10 11  2  0  0  0  0
 10 32  1  0  0  0  0
 12 23  1  0  0  0  0
 12 13  1  0  0  0  0
 13 14  1  0  0  0  0
 13 33  1  0  0  0  0
 13 34  1  0  0  0  0
 14 15  1  0  0  0  0
 14 35  1  0  0  0  0
 14 36  1  0  0  0  0
 15 16  1  0  0  0  0
 15 22  1  0  0  0  0
 15 37  1  0  0  0  0
 16 17  1  0  0  0  0
 16 18  1  0  0  0  0
 16 38  1  0  0  0  0
 17 39  1  0  0  0  0
 18 19  1  0  0  0  0
 18 20  1  0  0  0  0
 18 21  1  0  0  0  0
 22 23  1  0  0  0  0
 22 40  1  0  0  0  0
 22 41  1  0  0  0  0
 23 42  1  0  0  0  0
 23 43  1  0  0  0  0
M  END
> <s_m_source_file>
AV-unprocessed.smi

> <i_m_source_file_index>
2908

> <i_lp_mmshare_version>
43012

> <i_f3d_flags>
0

> <s_epik_input>
RkMoRikoRilbQ0BASF0oW09IXSlbQ0hdKFtDSDJdW0NIMl0xKVtDSDJdW0NIMl1OMUMoPU8pW05IXVtDSDJdW0NIMl1jMltjSF1bY0hdW2NIXVtjSF1uMg==

> <s_epik_cmdline>
J2VwaWtfcHl0aG9uJywgJy1waCcsICc3LjAnLCAnLXRuJywgJzgnLCAnLW1hJywgJzIwMCcsICctbWV0YWxfYmluZGluZycsICctaW1hZScsICc8aW5maWxlLm1hZT4nLCAnLW9tYWUnLCAnPG91dGZpbGUubWFlPic=

> <r_epik_Ionization_Penalty>
0.0451198

> <r_epik_Ionization_Penalty_Charging>
0

> <r_epik_Ionization_Penalty_Neutral>
0.0451198

> <r_epik_State_Penalty>
0.0381178

> <r_epik_Charging_Adjusted_Penalty>
0.0381178

> <i_epik_Tot_Q>
0

> <i_epik_Tot_abs_Q>
0

> <r_epik_Metal_State_Penalty>
0.0354176

> <b_epik_Metal_Only>
0

> <s_lp_Force_Field>
OPLS_2005

> <r_lp_Energy>
35.4637

> <b_lp_Chiralities_Consistent>
1

> <s_lp_Variant>
AV-unprocessed.smi:2908-1

> <Gold.Version>
5.8.1

> <Gold.Id.Protein>
6NUR|6NUR_protein|mol2

> <Gold.PLP.Fitness>
50.3020

> <Gold.PLP.PLP>
-44.3492

> <Gold.PLP.part.hbond>
-1.7740

> <Gold.PLP.part.metal>
0.0000

> <Gold.PLP.part.buried>
-7.2488

> <Gold.PLP.part.nonpolar>
-37.4821

> <Gold.PLP.part.repulsive>
2.2449

> <Gold.PLP.ligand.clash>
0.0397

> <Gold.PLP.ligand.torsion>
0.6478

> <Gold.PLP.Chemscore.Hbond>
1.2480

> <Gold.PLP.Chemscore.CHOScore>
1.0448

> <Gold.PLP.Chemscore.Metal>
0.0000

> <Gold.Chemscore.Hbonds>
donor molecule, donor type, donor heavy atom, donor atom, acceptor molecule, acceptor atom, score
      P1  H  7989  7998       L1     1  0.35
      P1  H  8011  8017       L1     1  0.86
      L1  C    10    32       P1  8028  0.04
      L1  C    10    32       P1  8029  1.00

> <Gold.PLP.Chemscore.Internal.Correction>
0.4098

> <Gold.Rescore>
     Score         DG    S(hbond)    S(metal)    S(lipo)     H(rot)  DE(clash)    DE(int)     intcor
     13.17     -15.00       1.12        0.00      99.84       2.30       0.75       1.08       ----

> <Gold.Chemscore.Fitness>
13.1709

> <Gold.Chemscore.DG>
-15.0031

> <Gold.Chemscore.ZeroCoef>
-5.4800

> <Gold.Chemscore.Hbond>
1.1205

> <Gold.Chemscore.Metal>
0.0000

> <Gold.Chemscore.Lipo>
99.8370

> <Gold.Chemscore.Internal_Hbond>
0.0000

> <Gold.Chemscore.DEClash>
0.7492

> <Gold.Chemscore.DEInternal>
1.0831

> <Gold.Chemscore.Rot>
2.3048

> <Gold.Chemscore.Internal.Correction>
   9.000000E+99

> <Gold.Chemscore.Hbonds>
donor molecule, donor type, donor heavy atom, donor atom, acceptor molecule, acceptor atom, score
      P1  H  7989  7998       L1     1  0.36
      P1  H  8011  8017       L1     1  0.83

> <Gold.Chemscore.Hbond.Weighted>
-3.7426

> <Gold.Chemscore.Metal.Weighted>
-0.0000

> <Gold.Chemscore.Lipo.Weighted>
-11.6809

> <Gold.Chemscore.Internal_Hbond.Weighted>
0.0000

> <Gold.Chemscore.DEClash.Weighted>
0.7492

> <Gold.Chemscore.DEInternal.Weighted>
1.0831

> <Gold.Chemscore.Rot.Weighted>
5.9004

> <Gold.Chemscore.Internal.Correction.Weighted>
   9.000000E+99

> <Gold.Protein.RotatedTorsions>
[ 6907 6896 6895 6894 ] final  109.71 input  -60.11 | X-H torsion
[ 7974 7965 7964 7962 ] final   24.41 input  175.53 | X-H torsion
[ 8008 7997 7996 7995 ] final  119.52 input   59.86 | X-H torsion
[ 10167 10162 10161 10158 ] final  -98.97 input  -65.29 | X-H torsion
[ 10718 10713 10712 10709 ] final  153.61 input   66.30 | X-H torsion
[ 10763 10752 10751 10750 ] final  -21.07 input  -60.55 | X-H torsion
[ 11005 11000 10999 10996 ] final  163.46 input  -57.11 | X-H torsion

> <Gold.Protein.ActiveResidues>
 VAL166  LYS551  ARG553  GLY616  TRP617  ASP618  TYR619  PRO620  LYS621  CYS622 
 ASP623  PHE694  ASN695  SER759  ASP760  ASP761  ALA762  ILE779  LEU786  VAL792 
 PHE793  MET794  SER795  GLU796  ALA797  LYS798  CYS799  TRP800  GLU811  SER814 

> <Gold.Protein.RotatedAtoms>
  152.5054  133.8905  159.7390 H   0  0  0  0  0  0  0  0  0  0  0  0  # atno 6907 bound_to 6896
  150.9345  133.6719  159.2810 H   0  0  0  0  0  0  0  0  0  0  0  0  # atno 6908 bound_to 6896
  151.4053  135.0982  159.9621 H   0  0  0  0  0  0  0  0  0  0  0  0  # atno 6909 bound_to 6896
  146.1939  139.7609  142.8812 H   0  0  0  0  0  0  0  0  0  0  0  0  # atno 7974 bound_to 7965
  156.2600  140.2851  156.1005 H   0  0  0  0  0  0  0  0  0  0  0  0  # atno 8008 bound_to 7997
  155.1365  140.0395  157.2805 H   0  0  0  0  0  0  0  0  0  0  0  0  # atno 8009 bound_to 7997
  154.6561  140.2556  155.7166 H   0  0  0  0  0  0  0  0  0  0  0  0  # atno 8010 bound_to 7997
  140.2674  143.3367  152.0568 H   0  0  0  0  0  0  0  0  0  0  0  0  # atno 10167 bound_to 10162
  157.2425  131.0762  151.1783 H   0  0  0  0  0  0  0  0  0  0  0  0  # atno 10718 bound_to 10713
  153.6304  135.6989  153.5277 H   0  0  0  0  0  0  0  0  0  0  0  0  # atno 10763 bound_to 10752
  153.2864  135.4170  155.1126 H   0  0  0  0  0  0  0  0  0  0  0  0  # atno 10764 bound_to 10752
  154.8523  135.3614  154.5846 H   0  0  0  0  0  0  0  0  0  0  0  0  # atno 10765 bound_to 10752
  140.2360  134.8087  157.3364 H   0  0  0  0  0  0  0  0  0  0  0  0  # atno 11005 bound_to 11000
  145.3706  141.0342  143.3233 LP  0  0  0  0  0  0  0  0  0  0  0  0  # atno 17320 bound_to 7965
  144.8541  139.5277  143.6843 LP  0  0  0  0  0  0  0  0  0  0  0  0  # atno 17321 bound_to 7965
  139.4999  144.6679  151.6312 LP  0  0  0  0  0  0  0  0  0  0  0  0  # atno 17342 bound_to 10162
  140.5917  143.9767  150.6329 LP  0  0  0  0  0  0  0  0  0  0  0  0  # atno 17343 bound_to 10162
  157.3364  130.7011  149.6355 LP  0  0  0  0  0  0  0  0  0  0  0  0  # atno 17370 bound_to 10713
  155.9669  130.4292  150.4824 LP  0  0  0  0  0  0  0  0  0  0  0  0  # atno 17371 bound_to 10713
  140.1702  134.4619  155.7837 LP  0  0  0  0  0  0  0  0  0  0  0  0  # atno 17394 bound_to 11000
  141.2214  133.6938  156.7694 LP  0  0  0  0  0  0  0  0  0  0  0  0  # atno 17395 bound_to 11000

$$$$
