AV-unprocessed.smi:1830|AV-procd|sdf|7435|dock2
  -GOLD-   22720 9123D 1   1.00000     0.00000
 Structure written by MMmdl.
 53 56  0  0  0  0  0  0  0  0  2 V2000
  150.0792  134.3412  155.8123 O   0  0  0  0  0  0  0  0  0  0  0  0
  149.7269  134.8480  154.7470 C   0  0  0  0  0  0  0  0  0  0  0  0
  149.9382  136.1348  154.4383 N   0  0  0  0  0  0  0  0  0  0  0  0
  150.6158  137.0978  155.2999 C   0  0  0  0  0  0  0  0  0  0  0  0
  150.4293  138.5444  154.8079 C   0  0  1  0  0  0  0  0  0  0  0  0
  149.0073  138.7906  154.2802 C   0  0  0  0  0  0  0  0  0  0  0  0
  148.8284  140.1983  153.8430 N   0  3  1  0  0  0  0  0  0  0  0  0
  147.4075  140.5343  153.6025 C   0  0  0  0  0  0  0  0  0  0  0  0
  146.8989  141.2384  154.8739 C   0  0  0  0  0  0  0  0  0  0  0  0
  148.1193  141.3702  155.7919 C   0  0  0  0  0  0  0  0  0  0  0  0
  149.3027  141.1797  154.8431 C   0  0  1  0  0  0  0  0  0  0  0  0
  150.6417  140.7849  155.4995 C   0  0  0  0  0  0  0  0  0  0  0  0
  150.6361  139.4239  155.9062 O   0  0  0  0  0  0  0  0  0  0  0  0
  149.1060  134.2015  153.7464 N   0  0  0  0  0  0  0  0  0  0  0  0
  148.7288  132.8298  153.6810 C   0  0  0  0  0  0  0  0  0  0  0  0
  149.5283  131.8097  154.2528 C   0  0  0  0  0  0  0  0  0  0  0  0
  149.1206  130.4694  154.1440 C   0  0  0  0  0  0  0  0  0  0  0  0
  147.9215  130.1931  153.4671 C   0  0  0  0  0  0  0  0  0  0  0  0
  147.1388  131.1526  152.9351 N   0  0  0  0  0  0  0  0  0  0  0  0
  147.5103  132.4520  153.0459 C   0  0  0  0  0  0  0  0  0  0  0  0
  146.6367  133.4142  152.4891 N   0  0  0  0  0  0  0  0  0  0  0  0
  145.3520  133.6371  153.1457 C   0  0  0  0  0  0  0  0  0  0  0  0
  144.3331  133.8955  152.0305 C   0  0  0  0  0  0  0  0  0  0  0  0
  145.1939  134.3339  150.8500 C   0  0  0  0  0  0  0  0  0  0  0  0
  146.4596  133.5038  151.0432 C   0  0  0  0  0  0  0  0  0  0  0  0
  149.6196  136.4700  153.5408 H   0  0  0  0  0  0  0  0  0  0  0  0
  150.2421  136.9933  156.3199 H   0  0  0  0  0  0  0  0  0  0  0  0
  151.6762  136.8456  155.3329 H   0  0  0  0  0  0  0  0  0  0  0  0
  151.1509  138.7558  154.0165 H   0  0  0  0  0  0  0  0  0  0  0  0
  148.7963  138.1295  153.4387 H   0  0  0  0  0  0  0  0  0  0  0  0
  148.2838  138.5497  155.0610 H   0  0  0  0  0  0  0  0  0  0  0  0
  147.3571  141.2231  152.7583 H   0  0  0  0  0  0  0  0  0  0  0  0
  146.8092  139.6600  153.3410 H   0  0  0  0  0  0  0  0  0  0  0  0
  146.4953  142.2201  154.6234 H   0  0  0  0  0  0  0  0  0  0  0  0
  146.1044  140.6713  155.3597 H   0  0  0  0  0  0  0  0  0  0  0  0
  148.1503  142.3258  156.3164 H   0  0  0  0  0  0  0  0  0  0  0  0
  148.1048  140.5787  156.5425 H   0  0  0  0  0  0  0  0  0  0  0  0
  149.4512  142.1245  154.3171 H   0  0  0  0  0  0  0  0  0  0  0  0
  151.4657  140.9471  154.8027 H   0  0  0  0  0  0  0  0  0  0  0  0
  150.8397  141.4173  156.3651 H   0  0  0  0  0  0  0  0  0  0  0  0
  148.9730  134.7253  152.8939 H   0  0  0  0  0  0  0  0  0  0  0  0
  150.4435  132.0321  154.7795 H   0  0  0  0  0  0  0  0  0  0  0  0
  149.7143  129.6728  154.5670 H   0  0  0  0  0  0  0  0  0  0  0  0
  147.5764  129.1760  153.3564 H   0  0  0  0  0  0  0  0  0  0  0  0
  145.0548  132.7917  153.7682 H   0  0  0  0  0  0  0  0  0  0  0  0
  145.4331  134.5172  153.7837 H   0  0  0  0  0  0  0  0  0  0  0  0
  143.8178  132.9668  151.7822 H   0  0  0  0  0  0  0  0  0  0  0  0
  143.5802  134.6340  152.3070 H   0  0  0  0  0  0  0  0  0  0  0  0
  144.7170  134.1625  149.8846 H   0  0  0  0  0  0  0  0  0  0  0  0
  145.4266  135.3963  150.9322 H   0  0  0  0  0  0  0  0  0  0  0  0
  147.3237  133.9652  150.5646 H   0  0  0  0  0  0  0  0  0  0  0  0
  146.3135  132.5151  150.6064 H   0  0  0  0  0  0  0  0  0  0  0  0
  149.3551  140.3197  152.9895 H   0  0  0  0  0  0  0  0  0  0  0  0
  1  2  2  0  0  0  0
  2  3  1  0  0  0  0
  2 14  1  0  0  0  0
  3  4  1  0  0  0  0
  3 26  1  0  0  0  0
  4  5  1  0  0  0  0
  4 27  1  0  0  0  0
  4 28  1  0  0  0  0
  5 13  1  0  0  0  0
  5  6  1  0  0  0  0
  5 29  1  0  0  0  0
  6  7  1  0  0  0  0
  6 30  1  0  0  0  0
  6 31  1  0  0  0  0
  7 11  1  0  0  0  0
  7  8  1  0  0  0  0
  7 53  1  0  0  0  0
  8  9  1  0  0  0  0
  8 32  1  0  0  0  0
  8 33  1  0  0  0  0
  9 10  1  0  0  0  0
  9 34  1  0  0  0  0
  9 35  1  0  0  0  0
 10 11  1  0  0  0  0
 10 36  1  0  0  0  0
 10 37  1  0  0  0  0
 11 12  1  0  0  0  0
 11 38  1  0  0  0  0
 12 13  1  0  0  0  0
 12 39  1  0  0  0  0
 12 40  1  0  0  0  0
 14 15  1  0  0  0  0
 14 41  1  0  0  0  0
 15 20  1  0  0  0  0
 15 16  2  0  0  0  0
 16 17  1  0  0  0  0
 16 42  1  0  0  0  0
 17 18  2  0  0  0  0
 17 43  1  0  0  0  0
 18 19  1  0  0  0  0
 18 44  1  0  0  0  0
 19 20  2  0  0  0  0
 20 21  1  0  0  0  0
 21 25  1  0  0  0  0
 21 22  1  0  0  0  0
 22 23  1  0  0  0  0
 22 45  1  0  0  0  0
 22 46  1  0  0  0  0
 23 24  1  0  0  0  0
 23 47  1  0  0  0  0
 23 48  1  0  0  0  0
 24 25  1  0  0  0  0
 24 49  1  0  0  0  0
 24 50  1  0  0  0  0
 25 51  1  0  0  0  0
 25 52  1  0  0  0  0
M  CHG  1   7   1
M  END
> <s_m_source_file>
AV-unprocessed.smi

> <i_m_source_file_index>
1830

> <i_lp_mmshare_version>
43012

> <i_f3d_flags>
0

> <s_epik_input>
W0NIMl0xW0NIMl1bQ0gyXVtDQEhdKE4xMilbQ0gyXU9bQ0BASF0oW0NIMl0yKVtDSDJdW05IXUMoPU8pW05IXWMzW2NIXVtjSF1bY0hdbmMzTjRbQ0gyXVtDSDJdW0NIMl1bQ0gyXTQ=

> <s_epik_cmdline>
J2VwaWtfcHl0aG9uJywgJy1waCcsICc3LjAnLCAnLXRuJywgJzgnLCAnLW1hJywgJzIwMCcsICctbWV0YWxfYmluZGluZycsICctaW1hZScsICc8aW5maWxlLm1hZT4nLCAnLW9tYWUnLCAnPG91dGZpbGUubWFlPic=

> <r_lp_tautomer_probability>
1

> <r_epik_Ionization_Penalty>
0.193547

> <r_epik_Ionization_Penalty_Charging>
0.10673

> <r_epik_Ionization_Penalty_Neutral>
0.0868166

> <r_epik_State_Penalty>
0.173595

> <r_epik_Charging_Adjusted_Penalty>
0.280326

> <i_epik_Tot_Q>
1

> <i_epik_Tot_abs_Q>
1

> <r_epik_Metal_State_Penalty>
0.164683

> <b_epik_Metal_Only>
0

> <s_lp_Force_Field>
OPLS_2005

> <r_lp_Energy>
64.3317

> <b_lp_Chiralities_Consistent>
1

> <s_lp_Variant>
AV-unprocessed.smi:1830-4

> <Gold.Version>
5.8.1

> <Gold.Id.Protein>
6NUR|6NUR_protein|mol2

> <Gold.PLP.Fitness>
48.1071

> <Gold.PLP.PLP>
-41.5540

> <Gold.PLP.part.hbond>
-3.5239

> <Gold.PLP.part.metal>
0.0000

> <Gold.PLP.part.buried>
-3.5517

> <Gold.PLP.part.nonpolar>
-35.3790

> <Gold.PLP.part.repulsive>
0.4809

> <Gold.PLP.ligand.clash>
0.0000

> <Gold.PLP.ligand.torsion>
0.7098

> <Gold.PLP.Chemscore.Hbond>
2.5500

> <Gold.PLP.Chemscore.CHOScore>
0.0000

> <Gold.PLP.Chemscore.Metal>
0.0000

> <Gold.Chemscore.Hbonds>
donor molecule, donor type, donor heavy atom, donor atom, acceptor molecule, acceptor atom, score
      L1  H     3    26       P1  7948  1.00
      L1  H     7    53       P1  7957  1.00
      L1  H    14    41       P1  7948  0.55

> <Gold.PLP.Chemscore.Internal.Correction>
0.3227

> <Gold.Rescore>
     Score         DG    S(hbond)    S(metal)    S(lipo)     H(rot)  DE(clash)    DE(int)     intcor
     17.88     -19.53       2.26        0.00      86.34       1.41       0.03       1.62       ----

> <Gold.Chemscore.Fitness>
17.8754

> <Gold.Chemscore.DG>
-19.5299

> <Gold.Chemscore.ZeroCoef>
-5.4800

> <Gold.Chemscore.Hbond>
2.2603

> <Gold.Chemscore.Metal>
0.0000

> <Gold.Chemscore.Lipo>
86.3387

> <Gold.Chemscore.Internal_Hbond>
0.0000

> <Gold.Chemscore.DEClash>
0.0309

> <Gold.Chemscore.DEInternal>
1.6236

> <Gold.Chemscore.Rot>
1.4067

> <Gold.Chemscore.Internal.Correction>
   9.000000E+99

> <Gold.Chemscore.Hbonds>
donor molecule, donor type, donor heavy atom, donor atom, acceptor molecule, acceptor atom, score
      L1  H     3    26       P1  7948  0.54
      L1  H     7    53       P1  7957  0.96
      L1  H    14    41       P1  7948  0.03

> <Gold.Chemscore.Hbond.Weighted>
-7.5493

> <Gold.Chemscore.Metal.Weighted>
-0.0000

> <Gold.Chemscore.Lipo.Weighted>
-10.1016

> <Gold.Chemscore.Internal_Hbond.Weighted>
0.0000

> <Gold.Chemscore.DEClash.Weighted>
0.0309

> <Gold.Chemscore.DEInternal.Weighted>
1.6236

> <Gold.Chemscore.Rot.Weighted>
3.6011

> <Gold.Chemscore.Internal.Correction.Weighted>
   9.000000E+99

> <Gold.Protein.RotatedTorsions>
[ 6907 6896 6895 6894 ] final  -47.25 input  -60.11 | X-H torsion
[ 7974 7965 7964 7962 ] final  -92.35 input  175.53 | X-H torsion
[ 8008 7997 7996 7995 ] final -146.44 input   59.86 | X-H torsion
[ 10167 10162 10161 10158 ] final  -43.81 input  -65.29 | X-H torsion
[ 10718 10713 10712 10709 ] final  -52.89 input   66.30 | X-H torsion
[ 10763 10752 10751 10750 ] final   66.68 input  -60.55 | X-H torsion
[ 11005 11000 10999 10996 ] final -123.74 input  -57.11 | X-H torsion

> <Gold.Protein.ActiveResidues>
 VAL166  LYS551  ARG553  GLY616  TRP617  ASP618  TYR619  PRO620  LYS621  CYS622 
 ASP623  PHE694  ASN695  SER759  ASP760  ASP761  ALA762  ILE779  LEU786  VAL792 
 PHE793  MET794  SER795  GLU796  ALA797  LYS798  CYS799  TRP800  GLU811  SER814 

> <Gold.Protein.RotatedAtoms>
  150.9027  134.8440  159.7370 H   0  0  0  0  0  0  0  0  0  0  0  0  # atno 6907 bound_to 6896
  152.4901  134.4478  159.9574 H   0  0  0  0  0  0  0  0  0  0  0  0  # atno 6908 bound_to 6896
  151.4528  133.3574  159.2833 H   0  0  0  0  0  0  0  0  0  0  0  0  # atno 6909 bound_to 6896
  145.4010  140.9537  143.2287 H   0  0  0  0  0  0  0  0  0  0  0  0  # atno 7974 bound_to 7965
  155.5595  140.0624  157.2832 H   0  0  0  0  0  0  0  0  0  0  0  0  # atno 8008 bound_to 7997
  154.4395  140.1888  156.0813 H   0  0  0  0  0  0  0  0  0  0  0  0  # atno 8009 bound_to 7997
  156.0457  140.3290  155.7298 H   0  0  0  0  0  0  0  0  0  0  0  0  # atno 8010 bound_to 7997
  140.6920  143.2963  151.3406 H   0  0  0  0  0  0  0  0  0  0  0  0  # atno 10167 bound_to 10162
  156.1582  130.4150  149.9835 H   0  0  0  0  0  0  0  0  0  0  0  0  # atno 10718 bound_to 10713
  153.0151  135.5311  154.6862 H   0  0  0  0  0  0  0  0  0  0  0  0  # atno 10763 bound_to 10752
  154.6009  135.2868  155.0539 H   0  0  0  0  0  0  0  0  0  0  0  0  # atno 10764 bound_to 10752
  154.1596  135.6550  153.5035 H   0  0  0  0  0  0  0  0  0  0  0  0  # atno 10765 bound_to 10752
  140.9896  134.0558  157.3670 H   0  0  0  0  0  0  0  0  0  0  0  0  # atno 11005 bound_to 11000
  144.8374  139.5528  143.6916 LP  0  0  0  0  0  0  0  0  0  0  0  0  # atno 17320 bound_to 7965
  146.2752  139.6734  142.9268 LP  0  0  0  0  0  0  0  0  0  0  0  0  # atno 17321 bound_to 7965
  139.6333  144.0679  152.2494 LP  0  0  0  0  0  0  0  0  0  0  0  0  # atno 17342 bound_to 10162
  140.0161  144.6188  150.7606 LP  0  0  0  0  0  0  0  0  0  0  0  0  # atno 17343 bound_to 10162
  156.7672  130.9173  151.3643 LP  0  0  0  0  0  0  0  0  0  0  0  0  # atno 17370 bound_to 10713
  157.6712  130.9053  150.0044 LP  0  0  0  0  0  0  0  0  0  0  0  0  # atno 17371 bound_to 10713
  139.8986  135.0155  156.7156 LP  0  0  0  0  0  0  0  0  0  0  0  0  # atno 17394 bound_to 11000
  140.7061  133.9264  155.8055 LP  0  0  0  0  0  0  0  0  0  0  0  0  # atno 17395 bound_to 11000

$$$$
