AV-unprocessed.smi:2064|AV-procd|sdf|8416|dock4
  -GOLD-   2272011103D 1   1.00000     0.00000
 Structure written by MMmdl.
 46 48  0  0  0  0  0  0  0  0  1 V2000
  145.5025  141.1323  159.6086 N   0  0  0  0  0  0  0  0  0  0  0  0
  145.6841  141.4855  158.5215 C   0  0  0  0  0  0  0  0  0  0  0  0
  145.9200  141.9470  157.1936 C   0  0  0  0  0  0  0  0  0  0  0  0
  145.1265  142.8687  156.6097 C   0  0  0  0  0  0  0  0  0  0  0  0
  145.3361  143.3208  155.3252 N   0  0  0  0  0  0  0  0  0  0  0  0
  144.5769  144.4123  154.7834 C   0  0  0  0  0  0  0  0  0  0  0  0
  143.7925  145.2991  155.7257 C   0  0  0  0  0  0  0  0  0  0  0  0
  143.0610  144.3698  154.7883 C   0  0  0  0  0  0  0  0  0  0  0  0
  146.4599  142.8800  154.5926 C   0  0  0  0  0  0  0  0  0  0  0  0
  146.7219  143.3477  153.4814 O   0  0  0  0  0  0  0  0  0  0  0  0
  147.2863  141.8906  155.1785 N   0  0  0  0  0  0  0  0  0  0  0  0
  148.4509  141.3977  154.4106 C   0  0  0  0  0  0  0  0  0  0  0  0
  149.7583  141.3810  155.2173 C   0  0  0  0  0  0  0  0  0  0  0  0
  150.5544  140.4458  155.1194 O   0  0  0  0  0  0  0  0  0  0  0  0
  149.9618  142.4392  156.0168 N   0  0  0  0  0  0  0  0  0  0  0  0
  151.1255  142.6472  156.8756 C   0  0  0  0  0  0  0  0  0  0  0  0
  151.2052  141.5027  157.9074 C   0  0  0  0  0  0  0  0  0  0  0  0
  152.3592  141.6100  158.9191 C   0  0  0  0  0  0  0  0  0  0  0  0
  152.1120  142.6814  159.9931 C   0  0  0  0  0  0  0  0  0  0  0  0
  152.5497  144.1072  159.6158 C   0  0  0  0  0  0  0  0  0  0  0  0
  152.3483  144.5212  158.1475 C   0  0  0  0  0  0  0  0  0  0  0  0
  151.0330  144.0552  157.5006 C   0  0  0  0  0  0  0  0  0  0  0  0
  147.0668  141.3836  156.4849 C   0  0  0  0  0  0  0  0  0  0  0  0
  147.8153  140.5340  156.9710 O   0  0  0  0  0  0  0  0  0  0  0  0
  144.2906  143.2663  157.1670 H   0  0  0  0  0  0  0  0  0  0  0  0
  145.0322  144.9146  153.9316 H   0  0  0  0  0  0  0  0  0  0  0  0
  143.7848  145.0445  156.7839 H   0  0  0  0  0  0  0  0  0  0  0  0
  143.7628  146.3637  155.5033 H   0  0  0  0  0  0  0  0  0  0  0  0
  142.5446  144.8145  153.9401 H   0  0  0  0  0  0  0  0  0  0  0  0
  142.5706  143.5043  155.2299 H   0  0  0  0  0  0  0  0  0  0  0  0
  148.2727  140.3924  154.0259 H   0  0  0  0  0  0  0  0  0  0  0  0
  148.6021  141.9996  153.5127 H   0  0  0  0  0  0  0  0  0  0  0  0
  149.2538  143.1589  156.0340 H   0  0  0  0  0  0  0  0  0  0  0  0
  152.0206  142.6164  156.2513 H   0  0  0  0  0  0  0  0  0  0  0  0
  150.2585  141.4193  158.4434 H   0  0  0  0  0  0  0  0  0  0  0  0
  151.3181  140.5606  157.3691 H   0  0  0  0  0  0  0  0  0  0  0  0
  152.4436  140.6465  159.4227 H   0  0  0  0  0  0  0  0  0  0  0  0
  153.3137  141.7668  158.4157 H   0  0  0  0  0  0  0  0  0  0  0  0
  151.0558  142.6842  160.2652 H   0  0  0  0  0  0  0  0  0  0  0  0
  152.6407  142.3995  160.9043 H   0  0  0  0  0  0  0  0  0  0  0  0
  152.0197  144.8078  160.2620 H   0  0  0  0  0  0  0  0  0  0  0  0
  153.6058  144.2306  159.8582 H   0  0  0  0  0  0  0  0  0  0  0  0
  152.3979  145.6096  158.1006 H   0  0  0  0  0  0  0  0  0  0  0  0
  153.1912  144.1730  157.5493 H   0  0  0  0  0  0  0  0  0  0  0  0
  150.7945  144.7630  156.7052 H   0  0  0  0  0  0  0  0  0  0  0  0
  150.2073  144.1179  158.2107 H   0  0  0  0  0  0  0  0  0  0  0  0
  1  2  3  0  0  0  0
  2  3  1  0  0  0  0
  3 23  1  0  0  0  0
  3  4  2  0  0  0  0
  4  5  1  0  0  0  0
  4 25  1  0  0  0  0
  5  6  1  0  0  0  0
  5  9  1  0  0  0  0
  6  8  1  0  0  0  0
  6  7  1  0  0  0  0
  6 26  1  0  0  0  0
  7  8  1  0  0  0  0
  7 27  1  0  0  0  0
  7 28  1  0  0  0  0
  8 29  1  0  0  0  0
  8 30  1  0  0  0  0
  9 10  2  0  0  0  0
  9 11  1  0  0  0  0
 11 12  1  0  0  0  0
 11 23  1  0  0  0  0
 12 13  1  0  0  0  0
 12 31  1  0  0  0  0
 12 32  1  0  0  0  0
 13 14  2  0  0  0  0
 13 15  1  0  0  0  0
 15 16  1  0  0  0  0
 15 33  1  0  0  0  0
 16 22  1  0  0  0  0
 16 17  1  0  0  0  0
 16 34  1  0  0  0  0
 17 18  1  0  0  0  0
 17 35  1  0  0  0  0
 17 36  1  0  0  0  0
 18 19  1  0  0  0  0
 18 37  1  0  0  0  0
 18 38  1  0  0  0  0
 19 20  1  0  0  0  0
 19 39  1  0  0  0  0
 19 40  1  0  0  0  0
 20 21  1  0  0  0  0
 20 41  1  0  0  0  0
 20 42  1  0  0  0  0
 21 22  1  0  0  0  0
 21 43  1  0  0  0  0
 21 44  1  0  0  0  0
 22 45  1  0  0  0  0
 22 46  1  0  0  0  0
 23 24  2  0  0  0  0
M  END
> <s_m_source_file>
AV-unprocessed.smi

> <i_m_source_file_index>
2064

> <i_lp_mmshare_version>
43012

> <i_f3d_flags>
0

> <s_epik_input>
TiNDYzFbY0hdbihbQ0hdMltDSDJdW0NIMl0yKWMoPU8pbihjMT1PKVtDSDJdQyg9TylbTkhdW0NIXTNbQ0gyXVtDSDJdW0NIMl1bQ0gyXVtDSDJdW0NIMl0z

> <s_epik_cmdline>
J2VwaWtfcHl0aG9uJywgJy1waCcsICc3LjAnLCAnLXRuJywgJzgnLCAnLW1hJywgJzIwMCcsICctbWV0YWxfYmluZGluZycsICctaW1hZScsICc8aW5maWxlLm1hZT4nLCAnLW9tYWUnLCAnPG91dGZpbGUubWFlPic=

> <r_lp_tautomer_probability>
1

> <r_epik_Ionization_Penalty>
2.03018e-08

> <r_epik_Ionization_Penalty_Charging>
8.701e-11

> <r_epik_Ionization_Penalty_Neutral>
2.02148e-08

> <r_epik_State_Penalty>
-0

> <r_epik_Charging_Adjusted_Penalty>
8.701e-11

> <i_epik_Tot_Q>
0

> <i_epik_Tot_abs_Q>
0

> <r_epik_Metal_State_Penalty>
-0

> <b_epik_Metal_Only>
0

> <s_lp_Force_Field>
OPLS_2005

> <r_lp_Energy>
40.6124

> <b_lp_Chiralities_Consistent>
1

> <s_lp_Variant>
AV-unprocessed.smi:2064-1

> <Gold.Version>
5.8.1

> <Gold.Id.Protein>
6NUR|6NUR_protein|mol2

> <Gold.PLP.Fitness>
49.0061

> <Gold.PLP.PLP>
-41.6488

> <Gold.PLP.part.hbond>
-4.0000

> <Gold.PLP.part.metal>
0.0000

> <Gold.PLP.part.buried>
-0.3856

> <Gold.PLP.part.nonpolar>
-37.9290

> <Gold.PLP.part.repulsive>
0.4347

> <Gold.PLP.ligand.clash>
0.0000

> <Gold.PLP.ligand.torsion>
0.8217

> <Gold.PLP.Chemscore.Hbond>
2.9263

> <Gold.PLP.Chemscore.CHOScore>
0.0000

> <Gold.PLP.Chemscore.Metal>
0.0000

> <Gold.Chemscore.Hbonds>
donor molecule, donor type, donor heavy atom, donor atom, acceptor molecule, acceptor atom, score
      L1  H    15    33       P1  8028  0.93
      P1  H  6934  6946       L1     1  0.80
      P1  H  7989  7998       L1    14  1.00
      P1  H  8022  8030       L1    10  0.05

> <Gold.PLP.Chemscore.Internal.Correction>
0.2217

> <Gold.Rescore>
     Score         DG    S(hbond)    S(metal)    S(lipo)     H(rot)  DE(clash)    DE(int)     intcor
     14.47     -20.92       2.48        0.00      98.34       1.70       1.62       4.83       ----

> <Gold.Chemscore.Fitness>
14.4692

> <Gold.Chemscore.DG>
-20.9184

> <Gold.Chemscore.ZeroCoef>
-5.4800

> <Gold.Chemscore.Hbond>
2.4835

> <Gold.Chemscore.Metal>
0.0000

> <Gold.Chemscore.Lipo>
98.3359

> <Gold.Chemscore.Internal_Hbond>
0.0000

> <Gold.Chemscore.DEClash>
1.6206

> <Gold.Chemscore.DEInternal>
4.8285

> <Gold.Chemscore.Rot>
1.7038

> <Gold.Chemscore.Internal.Correction>
   9.000000E+99

> <Gold.Chemscore.Hbonds>
donor molecule, donor type, donor heavy atom, donor atom, acceptor molecule, acceptor atom, score
      L1  H    15    33       P1  8028  0.89
      P1  H  6934  6946       L1     1  0.78
      P1  H  7989  7998       L1    14  0.42
      P1  H  8022  8030       L1    10  0.04

> <Gold.Chemscore.Hbond.Weighted>
-8.2948

> <Gold.Chemscore.Metal.Weighted>
-0.0000

> <Gold.Chemscore.Lipo.Weighted>
-11.5053

> <Gold.Chemscore.Internal_Hbond.Weighted>
0.0000

> <Gold.Chemscore.DEClash.Weighted>
1.6206

> <Gold.Chemscore.DEInternal.Weighted>
4.8285

> <Gold.Chemscore.Rot.Weighted>
4.3618

> <Gold.Chemscore.Internal.Correction.Weighted>
   9.000000E+99

> <Gold.Protein.RotatedTorsions>
[ 6907 6896 6895 6894 ] final -174.58 input  -60.11 | X-H torsion
[ 7974 7965 7964 7962 ] final  145.38 input  175.53 | X-H torsion
[ 8008 7997 7996 7995 ] final  -34.61 input   59.86 | X-H torsion
[ 10167 10162 10161 10158 ] final -142.84 input  -65.29 | X-H torsion
[ 10718 10713 10712 10709 ] final  -29.23 input   66.30 | X-H torsion
[ 10763 10752 10751 10750 ] final -158.66 input  -60.55 | X-H torsion
[ 11005 11000 10999 10996 ] final   36.41 input  -57.11 | X-H torsion

> <Gold.Protein.ActiveResidues>
 VAL166  LYS551  ARG553  GLY616  TRP617  ASP618  TYR619  PRO620  LYS621  CYS622 
 ASP623  PHE694  ASN695  SER759  ASP760  ASP761  ALA762  ILE779  LEU786  VAL792 
 PHE793  MET794  SER795  GLU796  ALA797  LYS798  CYS799  TRP800  GLU811  SER814 

> <Gold.Protein.RotatedAtoms>
  151.5746  133.3385  159.2996 H   0  0  0  0  0  0  0  0  0  0  0  0  # atno 6907 bound_to 6896
  150.8348  134.7619  159.6895 H   0  0  0  0  0  0  0  0  0  0  0  0  # atno 6908 bound_to 6896
  152.4426  134.5567  159.9934 H   0  0  0  0  0  0  0  0  0  0  0  0  # atno 6909 bound_to 6896
  144.8757  139.5776  143.5866 H   0  0  0  0  0  0  0  0  0  0  0  0  # atno 7974 bound_to 7965
  154.4116  140.1679  156.2078 H   0  0  0  0  0  0  0  0  0  0  0  0  # atno 8008 bound_to 7997
  155.9470  140.3404  155.6352 H   0  0  0  0  0  0  0  0  0  0  0  0  # atno 8009 bound_to 7997
  155.6918  140.0734  157.2436 H   0  0  0  0  0  0  0  0  0  0  0  0  # atno 8010 bound_to 7997
  139.8050  143.7781  152.2660 H   0  0  0  0  0  0  0  0  0  0  0  0  # atno 10167 bound_to 10162
  156.4152  130.4415  149.7224 H   0  0  0  0  0  0  0  0  0  0  0  0  # atno 10718 bound_to 10713
  154.7539  135.3099  154.8507 H   0  0  0  0  0  0  0  0  0  0  0  0  # atno 10763 bound_to 10752
  153.9286  135.6788  153.4750 H   0  0  0  0  0  0  0  0  0  0  0  0  # atno 10764 bound_to 10752
  153.1135  135.4855  154.9005 H   0  0  0  0  0  0  0  0  0  0  0  0  # atno 10765 bound_to 10752
  140.2329  134.3506  155.7956 H   0  0  0  0  0  0  0  0  0  0  0  0  # atno 11005 bound_to 11000
  146.2961  139.7282  142.9126 LP  0  0  0  0  0  0  0  0  0  0  0  0  # atno 17320 bound_to 7965
  145.4047  141.0389  143.3050 LP  0  0  0  0  0  0  0  0  0  0  0  0  # atno 17321 bound_to 7965
  139.7912  144.7409  150.9952 LP  0  0  0  0  0  0  0  0  0  0  0  0  # atno 17342 bound_to 10162
  140.7819  143.4440  151.0510 LP  0  0  0  0  0  0  0  0  0  0  0  0  # atno 17343 bound_to 10162
  156.4186  130.7758  151.2774 LP  0  0  0  0  0  0  0  0  0  0  0  0  # atno 17370 bound_to 10713
  157.7508  131.0189  150.3647 LP  0  0  0  0  0  0  0  0  0  0  0  0  # atno 17371 bound_to 10713
  141.2216  133.7255  156.8760 LP  0  0  0  0  0  0  0  0  0  0  0  0  # atno 17394 bound_to 11000
  140.1732  134.9085  157.2859 LP  0  0  0  0  0  0  0  0  0  0  0  0  # atno 17395 bound_to 11000

$$$$
