AV-unprocessed.smi:2973|AV-procd|sdf|11341|dock8
  -GOLD-   2272016253D 1   1.00000     0.00000
 Structure written by MMmdl.
 50 52  0  0  0  0  0  0  0  0  2 V2000
  151.0506  137.1269  155.0652 C   0  0  0  0  0  0  0  0  0  0  0  0
  150.3824  138.4475  155.5041 C   0  0  2  0  0  0  0  0  0  0  0  0
  150.5589  139.5342  154.4213 C   0  0  0  0  0  0  0  0  0  0  0  0
  149.8215  140.8304  154.7918 C   0  0  0  0  0  0  0  0  0  0  0  0
  150.2728  141.3629  156.1588 C   0  0  0  0  0  0  0  0  0  0  0  0
  150.1048  140.2957  157.2552 C   0  0  0  0  0  0  0  0  0  0  0  0
  150.8113  138.9589  156.9165 C   0  0  1  0  0  0  0  0  0  0  0  0
  150.5108  137.9747  157.9419 N   0  0  0  0  0  0  0  0  0  0  0  0
  151.5941  137.5571  158.6078 C   0  0  0  0  0  0  0  0  0  0  0  0
  151.5945  136.7179  159.5073 O   0  0  0  0  0  0  0  0  0  0  0  0
  152.6663  138.2017  158.1159 N   0  0  0  0  0  0  0  0  0  0  0  0
  154.0440  137.9656  158.5654 C   0  0  0  0  0  0  0  0  0  0  0  0
  154.7745  139.2590  158.9529 C   0  0  0  0  0  0  0  0  0  0  0  0
  155.8112  139.5968  158.3791 O   0  0  0  0  0  0  0  0  0  0  0  0
  154.2114  139.9826  159.9319 N   0  0  0  0  0  0  0  0  0  0  0  0
  154.7447  141.2338  160.4575 C   0  0  0  0  0  0  0  0  0  0  0  0
  153.7130  141.9703  161.3301 C   0  0  0  0  0  0  0  0  0  0  0  0
  153.0270  143.0957  160.5813 C   0  0  0  0  0  0  0  0  0  0  0  0
  152.1476  143.9950  161.2221 C   0  0  0  0  0  0  0  0  0  0  0  0
  151.5480  145.0262  160.4694 C   0  0  0  0  0  0  0  0  0  0  0  0
  151.8408  145.1367  159.0942 C   0  0  0  0  0  0  0  0  0  0  0  0
  152.7279  144.2124  158.5057 C   0  0  0  0  0  0  0  0  0  0  0  0
  153.2828  143.2386  159.2606 N   0  3  0  0  0  0  0  0  0  0  0  0
  152.3252  139.0381  157.1258 C   0  0  0  0  0  0  0  0  0  0  0  0
  153.0864  139.7497  156.4701 O   0  0  0  0  0  0  0  0  0  0  0  0
  152.1268  137.2410  154.9335 H   0  0  0  0  0  0  0  0  0  0  0  0
  150.6428  136.7838  154.1141 H   0  0  0  0  0  0  0  0  0  0  0  0
  150.8860  136.3301  155.7908 H   0  0  0  0  0  0  0  0  0  0  0  0
  149.3133  138.2363  155.5614 H   0  0  0  0  0  0  0  0  0  0  0  0
  151.6168  139.7450  154.2628 H   0  0  0  0  0  0  0  0  0  0  0  0
  150.1792  139.1687  153.4665 H   0  0  0  0  0  0  0  0  0  0  0  0
  149.9919  141.5864  154.0249 H   0  0  0  0  0  0  0  0  0  0  0  0
  148.7467  140.6461  154.8097 H   0  0  0  0  0  0  0  0  0  0  0  0
  151.3118  141.6872  156.1024 H   0  0  0  0  0  0  0  0  0  0  0  0
  149.6938  142.2497  156.4179 H   0  0  0  0  0  0  0  0  0  0  0  0
  150.4732  140.6930  158.2025 H   0  0  0  0  0  0  0  0  0  0  0  0
  149.0401  140.1109  157.4054 H   0  0  0  0  0  0  0  0  0  0  0  0
  149.5746  137.6391  158.1163 H   0  0  0  0  0  0  0  0  0  0  0  0
  154.0554  137.2912  159.4231 H   0  0  0  0  0  0  0  0  0  0  0  0
  154.6021  137.4547  157.7786 H   0  0  0  0  0  0  0  0  0  0  0  0
  153.3554  139.6394  160.3432 H   0  0  0  0  0  0  0  0  0  0  0  0
  155.6560  141.0386  161.0255 H   0  0  0  0  0  0  0  0  0  0  0  0
  155.0336  141.8584  159.6119 H   0  0  0  0  0  0  0  0  0  0  0  0
  152.9573  141.2699  161.6884 H   0  0  0  0  0  0  0  0  0  0  0  0
  154.1924  142.3836  162.2186 H   0  0  0  0  0  0  0  0  0  0  0  0
  151.9357  143.8990  162.2774 H   0  0  0  0  0  0  0  0  0  0  0  0
  150.8723  145.7245  160.9417 H   0  0  0  0  0  0  0  0  0  0  0  0
  151.3918  145.9194  158.5001 H   0  0  0  0  0  0  0  0  0  0  0  0
  153.0082  144.2222  157.4624 H   0  0  0  0  0  0  0  0  0  0  0  0
  153.9221  142.5808  158.8135 H   0  0  0  0  0  0  0  0  0  0  0  0
  1  2  1  0  0  0  0
  1 26  1  0  0  0  0
  1 27  1  0  0  0  0
  1 28  1  0  0  0  0
  2  7  1  0  0  0  0
  2  3  1  0  0  0  0
  2 29  1  0  0  0  0
  3  4  1  0  0  0  0
  3 30  1  0  0  0  0
  3 31  1  0  0  0  0
  4  5  1  0  0  0  0
  4 32  1  0  0  0  0
  4 33  1  0  0  0  0
  5  6  1  0  0  0  0
  5 34  1  0  0  0  0
  5 35  1  0  0  0  0
  6  7  1  0  0  0  0
  6 36  1  0  0  0  0
  6 37  1  0  0  0  0
  7 24  1  0  0  0  0
  7  8  1  0  0  0  0
  8  9  1  0  0  0  0
  8 38  1  0  0  0  0
  9 10  2  0  0  0  0
  9 11  1  0  0  0  0
 11 12  1  0  0  0  0
 11 24  1  0  0  0  0
 12 13  1  0  0  0  0
 12 39  1  0  0  0  0
 12 40  1  0  0  0  0
 13 14  2  0  0  0  0
 13 15  1  0  0  0  0
 15 16  1  0  0  0  0
 15 41  1  0  0  0  0
 16 17  1  0  0  0  0
 16 42  1  0  0  0  0
 16 43  1  0  0  0  0
 17 18  1  0  0  0  0
 17 44  1  0  0  0  0
 17 45  1  0  0  0  0
 18 23  1  0  0  0  0
 18 19  2  0  0  0  0
 19 20  1  0  0  0  0
 19 46  1  0  0  0  0
 20 21  2  0  0  0  0
 20 47  1  0  0  0  0
 21 22  1  0  0  0  0
 21 48  1  0  0  0  0
 22 23  2  0  0  0  0
 22 49  1  0  0  0  0
 23 50  1  0  0  0  0
 24 25  2  0  0  0  0
M  CHG  1  23   1
M  END
> <s_m_source_file>
AV-unprocessed.smi

> <i_m_source_file_index>
2973

> <i_lp_mmshare_version>
43012

> <i_f3d_flags>
0

> <s_epik_input>
W0NIMl0xW0NIMl1bQ0gyXVtDSDJdW0NAQEhdKFtDSDNdKVtDQF0xMltOSF1DKD1PKU4oQzI9TylbQ0gyXUMoPU8pW05IXVtDSDJdW0NIMl1jM1tjSF1bY0hdW2NIXVtjSF1uMw==

> <s_epik_cmdline>
J2VwaWtfcHl0aG9uJywgJy1waCcsICc3LjAnLCAnLXRuJywgJzgnLCAnLW1hJywgJzIwMCcsICctbWV0YWxfYmluZGluZycsICctaW1hZScsICc8aW5maWxlLm1hZT4nLCAnLW9tYWUnLCAnPG91dGZpbGUubWFlPic=

> <r_lp_tautomer_probability>
1

> <r_epik_Ionization_Penalty>
1.90043

> <r_epik_Ionization_Penalty_Charging>
1.90039

> <r_epik_Ionization_Penalty_Neutral>
4.65525e-05

> <r_epik_State_Penalty>
2.02162

> <r_epik_Charging_Adjusted_Penalty>
3.922

> <i_epik_Tot_Q>
1

> <i_epik_Tot_abs_Q>
1

> <r_epik_Metal_State_Penalty>
2.06631

> <b_epik_Metal_Only>
0

> <s_lp_Force_Field>
OPLS_2005

> <r_lp_Energy>
22.6609

> <b_lp_Chiralities_Consistent>
1

> <s_lp_Variant>
AV-unprocessed.smi:2973-5

> <Gold.Version>
5.8.1

> <Gold.Id.Protein>
6NUR|6NUR_protein|mol2

> <Gold.PLP.Fitness>
58.4073

> <Gold.PLP.PLP>
-50.4306

> <Gold.PLP.part.hbond>
-3.1870

> <Gold.PLP.part.metal>
0.0000

> <Gold.PLP.part.buried>
-6.1797

> <Gold.PLP.part.nonpolar>
-41.3449

> <Gold.PLP.part.repulsive>
0.1996

> <Gold.PLP.ligand.clash>
0.0000

> <Gold.PLP.ligand.torsion>
0.4518

> <Gold.PLP.Chemscore.Hbond>
2.9520

> <Gold.PLP.Chemscore.CHOScore>
0.0000

> <Gold.PLP.Chemscore.Metal>
0.0000

> <Gold.Chemscore.Hbonds>
donor molecule, donor type, donor heavy atom, donor atom, acceptor molecule, acceptor atom, score
      P1  H  6896  6908       L1    10  0.80
      P1  H  7997  8009       L1    14  0.05
      P1  H  7997  8010       L1    25  0.62

> <Gold.PLP.Chemscore.Internal.Correction>
0.0243

> <Gold.Rescore>
     Score         DG    S(hbond)    S(metal)    S(lipo)     H(rot)  DE(clash)    DE(int)     intcor
     21.94     -23.56       2.63        0.00     122.49       1.96       0.08       1.54       ----

> <Gold.Chemscore.Fitness>
21.9430

> <Gold.Chemscore.DG>
-23.5610

> <Gold.Chemscore.ZeroCoef>
-5.4800

> <Gold.Chemscore.Hbond>
2.6280

> <Gold.Chemscore.Metal>
0.0000

> <Gold.Chemscore.Lipo>
122.4880

> <Gold.Chemscore.Internal_Hbond>
0.0000

> <Gold.Chemscore.DEClash>
0.0770

> <Gold.Chemscore.DEInternal>
1.5411

> <Gold.Chemscore.Rot>
1.9638

> <Gold.Chemscore.Internal.Correction>
   9.000000E+99

> <Gold.Chemscore.Hbonds>
donor molecule, donor type, donor heavy atom, donor atom, acceptor molecule, acceptor atom, score
      P1  H  6896  6908       L1    10  0.80
      P1  H  7997  8009       L1    14  0.09
      P1  H  7997  8010       L1    25  0.58

> <Gold.Chemscore.Hbond.Weighted>
-8.7774

> <Gold.Chemscore.Metal.Weighted>
-0.0000

> <Gold.Chemscore.Lipo.Weighted>
-14.3311

> <Gold.Chemscore.Internal_Hbond.Weighted>
0.0000

> <Gold.Chemscore.DEClash.Weighted>
0.0770

> <Gold.Chemscore.DEInternal.Weighted>
1.5411

> <Gold.Chemscore.Rot.Weighted>
5.0274

> <Gold.Chemscore.Internal.Correction.Weighted>
   9.000000E+99

> <Gold.Protein.RotatedTorsions>
[ 6907 6896 6895 6894 ] final -149.57 input  -60.11 | X-H torsion
[ 7974 7965 7964 7962 ] final  108.69 input  175.53 | X-H torsion
[ 8008 7997 7996 7995 ] final   89.79 input   59.86 | X-H torsion
[ 10167 10162 10161 10158 ] final  123.03 input  -65.29 | X-H torsion
[ 10718 10713 10712 10709 ] final  -80.14 input   66.30 | X-H torsion
[ 10763 10752 10751 10750 ] final   68.74 input  -60.55 | X-H torsion
[ 11005 11000 10999 10996 ] final -137.92 input  -57.11 | X-H torsion

> <Gold.Protein.ActiveResidues>
 VAL166  LYS551  ARG553  GLY616  TRP617  ASP618  TYR619  PRO620  LYS621  CYS622 
 ASP623  PHE694  ASN695  SER759  ASP760  ASP761  ALA762  ILE779  LEU786  VAL792 
 PHE793  MET794  SER795  GLU796  ALA797  LYS798  CYS799  TRP800  GLU811  SER814 

> <Gold.Protein.RotatedAtoms>
  151.1860  133.4696  159.2594 H   0  0  0  0  0  0  0  0  0  0  0  0  # atno 6907 bound_to 6896
  151.1211  135.0080  159.8549 H   0  0  0  0  0  0  0  0  0  0  0  0  # atno 6908 bound_to 6896
  152.5456  134.1771  159.8673 H   0  0  0  0  0  0  0  0  0  0  0  0  # atno 6909 bound_to 6896
  145.2774  139.2645  143.3934 H   0  0  0  0  0  0  0  0  0  0  0  0  # atno 7974 bound_to 7965
  156.0042  140.3357  155.6875 H   0  0  0  0  0  0  0  0  0  0  0  0  # atno 8008 bound_to 7997
  155.6248  140.0679  157.2685 H   0  0  0  0  0  0  0  0  0  0  0  0  # atno 8009 bound_to 7997
  154.4259  140.1770  156.1398 H   0  0  0  0  0  0  0  0  0  0  0  0  # atno 8010 bound_to 7997
  139.5824  144.6992  151.3496 H   0  0  0  0  0  0  0  0  0  0  0  0  # atno 10167 bound_to 10162
  156.0076  130.4566  150.3755 H   0  0  0  0  0  0  0  0  0  0  0  0  # atno 10718 bound_to 10713
  153.0251  135.5236  154.7181 H   0  0  0  0  0  0  0  0  0  0  0  0  # atno 10763 bound_to 10752
  154.6244  135.2893  155.0291 H   0  0  0  0  0  0  0  0  0  0  0  0  # atno 10764 bound_to 10752
  154.1265  135.6599  153.4966 H   0  0  0  0  0  0  0  0  0  0  0  0  # atno 10765 bound_to 10752
  140.8666  134.2103  157.4676 H   0  0  0  0  0  0  0  0  0  0  0  0  # atno 11005 bound_to 11000
  146.3227  140.3233  142.8635 LP  0  0  0  0  0  0  0  0  0  0  0  0  # atno 17320 bound_to 7965
  144.9282  140.7945  143.5705 LP  0  0  0  0  0  0  0  0  0  0  0  0  # atno 17321 bound_to 7965
  140.7100  143.7415  150.7550 LP  0  0  0  0  0  0  0  0  0  0  0  0  # atno 17342 bound_to 10162
  140.0950  143.4841  152.2457 LP  0  0  0  0  0  0  0  0  0  0  0  0  # atno 17343 bound_to 10162
  157.1838  131.0398  151.2735 LP  0  0  0  0  0  0  0  0  0  0  0  0  # atno 17370 bound_to 10713
  157.4122  130.7391  149.6848 LP  0  0  0  0  0  0  0  0  0  0  0  0  # atno 17371 bound_to 10713
  139.8709  134.9754  156.4883 LP  0  0  0  0  0  0  0  0  0  0  0  0  # atno 17394 bound_to 11000
  140.8622  133.8051  155.9277 LP  0  0  0  0  0  0  0  0  0  0  0  0  # atno 17395 bound_to 11000

$$$$
