AV-unprocessed.smi:157|AV-procd|sdf|1309|dock2
  -GOLD-   2262019 03D 1   1.00000     0.00000
 Structure written by MMmdl.
 36 38  0  0  0  0  0  0  0  0  2 V2000
  142.8816  132.1958  148.8425 O   0  0  0  0  0  0  0  0  0  0  0  0
  144.1798  131.9540  149.3407 C   0  0  0  0  0  0  0  0  0  0  0  0
  144.6291  133.1318  150.2176 C   0  0  1  0  0  0  0  0  0  0  0  0
  143.6873  133.3401  151.2665 O   0  0  0  0  0  0  0  0  0  0  0  0
  144.3149  133.9277  152.3684 C   0  0  2  0  0  0  0  0  0  0  0  0
  143.8526  135.3459  152.4876 N   0  0  0  0  0  0  0  0  0  0  0  0
  144.5738  136.4586  152.2310 C   0  0  0  0  0  0  0  0  0  0  0  0
  143.9179  137.5899  152.4262 N   0  3  0  0  0  0  0  0  0  0  0  0
  142.6524  137.2407  152.8475 C   0  0  0  0  0  0  0  0  0  0  0  0
  142.6350  135.8443  152.8893 C   0  0  0  0  0  0  0  0  0  0  0  0
  141.6039  134.9677  153.2604 N   0  0  0  0  0  0  0  0  0  0  0  0
  140.5488  135.3519  153.9025 C   0  0  0  0  0  0  0  0  0  0  0  0
  140.1660  136.6314  154.2695 N   0  0  0  0  0  0  0  0  0  0  0  0
  140.2206  137.7681  153.3674 C   0  0  0  0  0  0  0  0  0  0  0  0
  141.6397  138.3036  153.1376 C   0  0  1  0  0  0  0  0  0  0  0  0
  142.0010  139.1113  154.2389 O   0  0  0  0  0  0  0  0  0  0  0  0
  145.8239  133.8898  152.1074 C   0  0  0  0  0  0  0  0  0  0  0  0
  145.9204  132.8671  150.9933 C   0  0  2  0  0  0  0  0  0  0  0  0
  147.0763  133.0787  150.2089 O   0  0  0  0  0  0  0  0  0  0  0  0
  144.7323  134.0471  149.6310 H   0  0  0  0  0  0  0  0  0  0  0  0
  144.0048  133.4400  153.2933 H   0  0  0  0  0  0  0  0  0  0  0  0
  141.6052  138.9704  152.2754 H   0  0  0  0  0  0  0  0  0  0  0  0
  145.9237  131.8575  151.4072 H   0  0  0  0  0  0  0  0  0  0  0  0
  142.3567  131.4229  148.9854 H   0  0  0  0  0  0  0  0  0  0  0  0
  144.2078  131.0138  149.8921 H   0  0  0  0  0  0  0  0  0  0  0  0
  144.8454  131.8475  148.4837 H   0  0  0  0  0  0  0  0  0  0  0  0
  145.5943  136.4261  151.8936 H   0  0  0  0  0  0  0  0  0  0  0  0
  139.8213  134.6022  154.2170 H   0  0  0  0  0  0  0  0  0  0  0  0
  139.4311  136.7386  154.9544 H   0  0  0  0  0  0  0  0  0  0  0  0
  139.8040  137.4469  152.4114 H   0  0  0  0  0  0  0  0  0  0  0  0
  139.5638  138.5580  153.7334 H   0  0  0  0  0  0  0  0  0  0  0  0
  142.6162  139.7661  153.9469 H   0  0  0  0  0  0  0  0  0  0  0  0
  146.1682  134.8699  151.7707 H   0  0  0  0  0  0  0  0  0  0  0  0
  146.3736  133.6113  153.0071 H   0  0  0  0  0  0  0  0  0  0  0  0
  147.5216  132.2529  150.0953 H   0  0  0  0  0  0  0  0  0  0  0  0
  144.2778  138.5252  152.2843 H   0  0  0  0  0  0  0  0  0  0  0  0
  1  2  1  0  0  0  0
  1 24  1  0  0  0  0
  2  3  1  0  0  0  0
  2 25  1  0  0  0  0
  2 26  1  0  0  0  0
  3 20  1  0  0  0  0
  3 18  1  0  0  0  0
  3  4  1  0  0  0  0
  4  5  1  0  0  0  0
  5 21  1  0  0  0  0
  5  6  1  0  0  0  0
  5 17  1  0  0  0  0
  6 10  1  0  0  0  0
  6  7  1  0  0  0  0
  7  8  2  0  0  0  0
  7 27  1  0  0  0  0
  8  9  1  0  0  0  0
  8 36  1  0  0  0  0
  9 15  1  0  0  0  0
  9 10  2  0  0  0  0
 10 11  1  0  0  0  0
 11 12  2  0  0  0  0
 12 13  1  0  0  0  0
 12 28  1  0  0  0  0
 13 14  1  0  0  0  0
 13 29  1  0  0  0  0
 14 15  1  0  0  0  0
 14 30  1  0  0  0  0
 14 31  1  0  0  0  0
 15 22  1  0  0  0  0
 15 16  1  0  0  0  0
 16 32  1  0  0  0  0
 17 18  1  0  0  0  0
 17 33  1  0  0  0  0
 17 34  1  0  0  0  0
 18 23  1  0  0  0  0
 18 19  1  0  0  0  0
 19 35  1  0  0  0  0
M  CHG  1   8   1
M  END
> <s_m_source_file>
AV-unprocessed.smi

> <i_m_source_file_index>
157

> <i_lp_mmshare_version>
43012

> <i_f3d_flags>
0

> <s_epik_input>
W09IXVtDSDJdW0NASF0xT1tDQEhdKFtDSDJdW0NAQEhdMVtPSF0pbihbY0hdbjIpYyhjMjMpTj1bQ0hdW05IXVtDSDJdW0NASF0zW09IXQ==

> <s_epik_cmdline>
J2VwaWtfcHl0aG9uJywgJy1waCcsICc3LjAnLCAnLXRuJywgJzgnLCAnLW1hJywgJzIwMCcsICctbWV0YWxfYmluZGluZycsICctaW1hZScsICc8aW5maWxlLm1hZT4nLCAnLW9tYWUnLCAnPG91dGZpbGUubWFlPic=

> <r_epik_Ionization_Penalty>
1.68594

> <r_epik_Ionization_Penalty_Charging>
0

> <r_epik_Ionization_Penalty_Neutral>
1.68594

> <r_epik_State_Penalty>
1.79006

> <r_epik_Charging_Adjusted_Penalty>
1.79006

> <i_epik_Tot_Q>
1

> <i_epik_Tot_abs_Q>
1

> <r_epik_Metal_State_Penalty>
5.85324

> <b_epik_Metal_Only>
0

> <s_epik_Chemistry_Notes>
This compound has an imine and may undergo hydrolysis. This compound contains an acetal/aminal-like group ( X-CH(R)-Y where X, Y are N, S, or O) that may be acid/base labile, releasing an aldehyde.

> <s_lp_Force_Field>
OPLS_2005

> <r_lp_Energy>
51.4634

> <b_lp_Chiralities_Consistent>
1

> <s_lp_Variant>
AV-unprocessed.smi:157-19

> <Gold.Version>
5.8.1

> <Gold.Id.Protein>
6NUR|6NUR_protein|mol2

> <Gold.PLP.Fitness>
45.2548

> <Gold.PLP.PLP>
-30.6725

> <Gold.PLP.part.hbond>
-8.3488

> <Gold.PLP.part.metal>
0.0000

> <Gold.PLP.part.buried>
1.0421

> <Gold.PLP.part.nonpolar>
-24.2422

> <Gold.PLP.part.repulsive>
0.4953

> <Gold.PLP.ligand.clash>
0.0000

> <Gold.PLP.ligand.torsion>
0.2275

> <Gold.PLP.Chemscore.Hbond>
4.4800

> <Gold.PLP.Chemscore.CHOScore>
0.5262

> <Gold.PLP.Chemscore.Metal>
0.0000

> <Gold.Chemscore.Hbonds>
donor molecule, donor type, donor heavy atom, donor atom, acceptor molecule, acceptor atom, score
      L1  H     1    24       P1 10952  1.00
      L1  H     8    36       P1 10175  1.57
      L1  H    16    32       P1 10175  0.93
      L1  H    19    35       P1 10747  1.00
      L1  C    12    28       P1 11000  0.53

> <Gold.PLP.Chemscore.Internal.Correction>
0.0189

> <Gold.Rescore>
     Score         DG    S(hbond)    S(metal)    S(lipo)     H(rot)  DE(clash)    DE(int)     intcor
     10.34     -12.94       3.35        0.00      48.40       3.67       2.00       0.61       ----

> <Gold.Chemscore.Fitness>
10.3350

> <Gold.Chemscore.DG>
-12.9443

> <Gold.Chemscore.ZeroCoef>
-5.4800

> <Gold.Chemscore.Hbond>
3.3492

> <Gold.Chemscore.Metal>
0.0000

> <Gold.Chemscore.Lipo>
48.4001

> <Gold.Chemscore.Internal_Hbond>
0.0000

> <Gold.Chemscore.DEClash>
2.0019

> <Gold.Chemscore.DEInternal>
0.6074

> <Gold.Chemscore.Rot>
3.6659

> <Gold.Chemscore.Internal.Correction>
   9.000000E+99

> <Gold.Chemscore.Hbonds>
donor molecule, donor type, donor heavy atom, donor atom, acceptor molecule, acceptor atom, score
      L1  H     1    24       P1 10952  0.98
      L1  H     8    36       P1 10175  0.73
      L1  H    16    32       P1 10175  0.91
      L1  H    19    35       P1 10747  0.95

> <Gold.Chemscore.Hbond.Weighted>
-11.1863

> <Gold.Chemscore.Metal.Weighted>
-0.0000

> <Gold.Chemscore.Lipo.Weighted>
-5.6628

> <Gold.Chemscore.Internal_Hbond.Weighted>
0.0000

> <Gold.Chemscore.DEClash.Weighted>
2.0019

> <Gold.Chemscore.DEInternal.Weighted>
0.6074

> <Gold.Chemscore.Rot.Weighted>
9.3848

> <Gold.Chemscore.Internal.Correction.Weighted>
   9.000000E+99

> <Gold.Protein.RotatedTorsions>
[ 6907 6896 6895 6894 ] final  148.22 input  -60.11 | X-H torsion
[ 7974 7965 7964 7962 ] final  103.79 input  175.53 | X-H torsion
[ 8008 7997 7996 7995 ] final  165.42 input   59.86 | X-H torsion
[ 10167 10162 10161 10158 ] final  172.30 input  -65.29 | X-H torsion
[ 10718 10713 10712 10709 ] final  110.85 input   66.30 | X-H torsion
[ 10763 10752 10751 10750 ] final  -92.98 input  -60.55 | X-H torsion
[ 11005 11000 10999 10996 ] final  165.30 input  -57.11 | X-H torsion

> <Gold.Protein.ActiveResidues>
 VAL166  LYS551  ARG553  GLY616  TRP617  ASP618  TYR619  PRO620  LYS621  CYS622 
 ASP623  PHE694  ASN695  SER759  ASP760  ASP761  ALA762  ILE779  LEU786  VAL792 
 PHE793  MET794  SER795  GLU796  ALA797  LYS798  CYS799  TRP800  GLU811  SER814 

> <Gold.Protein.RotatedAtoms>
  152.1444  133.4483  159.4782 H   0  0  0  0  0  0  0  0  0  0  0  0  # atno 6907 bound_to 6896
  150.6889  134.2266  159.4427 H   0  0  0  0  0  0  0  0  0  0  0  0  # atno 6908 bound_to 6896
  152.0159  134.9850  160.0620 H   0  0  0  0  0  0  0  0  0  0  0  0  # atno 6909 bound_to 6896
  145.3412  139.2462  143.3608 H   0  0  0  0  0  0  0  0  0  0  0  0  # atno 7974 bound_to 7965
  156.1802  140.1670  156.8288 H   0  0  0  0  0  0  0  0  0  0  0  0  # atno 8008 bound_to 7997
  154.5351  140.0748  156.8447 H   0  0  0  0  0  0  0  0  0  0  0  0  # atno 8009 bound_to 7997
  155.3327  140.3380  155.4241 H   0  0  0  0  0  0  0  0  0  0  0  0  # atno 8010 bound_to 7997
  139.5072  144.3389  152.0038 H   0  0  0  0  0  0  0  0  0  0  0  0  # atno 10167 bound_to 10162
  157.6474  131.0940  150.6662 H   0  0  0  0  0  0  0  0  0  0  0  0  # atno 10718 bound_to 10713
  154.6914  135.5211  153.8398 H   0  0  0  0  0  0  0  0  0  0  0  0  # atno 10763 bound_to 10752
  153.0635  135.6577  154.0417 H   0  0  0  0  0  0  0  0  0  0  0  0  # atno 10764 bound_to 10752
  154.0290  135.2987  155.3351 H   0  0  0  0  0  0  0  0  0  0  0  0  # atno 10765 bound_to 10752
  140.2547  134.7949  157.3535 H   0  0  0  0  0  0  0  0  0  0  0  0  # atno 11005 bound_to 11000
  146.3006  140.4010  142.8705 LP  0  0  0  0  0  0  0  0  0  0  0  0  # atno 17320 bound_to 7965
  144.8788  140.7373  143.5999 LP  0  0  0  0  0  0  0  0  0  0  0  0  # atno 17321 bound_to 7965
  140.2827  144.3842  150.6114 LP  0  0  0  0  0  0  0  0  0  0  0  0  # atno 17342 bound_to 10162
  140.6006  143.2167  151.7079 LP  0  0  0  0  0  0  0  0  0  0  0  0  # atno 17343 bound_to 10162
  156.6977  130.4614  149.5581 LP  0  0  0  0  0  0  0  0  0  0  0  0  # atno 17370 bound_to 10713
  156.1817  130.6503  151.0959 LP  0  0  0  0  0  0  0  0  0  0  0  0  # atno 17371 bound_to 10713
  140.1523  134.4834  155.7952 LP  0  0  0  0  0  0  0  0  0  0  0  0  # atno 17394 bound_to 11000
  141.2197  133.6867  156.7400 LP  0  0  0  0  0  0  0  0  0  0  0  0  # atno 17395 bound_to 11000

$$$$
