AV-unprocessed.smi:2492|AV-procd|sdf|9818|dock4
  -GOLD-   2272013453D 1   1.00000     0.00000
 Structure written by MMmdl.
 32 33  0  0  0  0  0  0  0  0  2 V2000
  145.8028  132.5694  150.6841 C   0  0  0  0  0  0  0  0  0  0  0  0
  146.8826  131.8883  151.9705 S   0  0  0  0  0  0  0  0  0  0  0  0
  147.5106  133.4249  152.7069 C   0  0  1  0  0  0  0  0  0  0  0  0
  146.4832  134.1061  153.6074 C   0  0  0  0  0  0  0  0  0  0  0  0
  147.3120  135.0426  154.4890 C   0  0  0  0  0  0  0  0  0  0  0  0
  148.7050  134.3952  154.6127 C   0  0  2  0  0  0  0  0  0  0  0  0
  149.7548  135.3608  154.2936 N   0  0  0  0  0  0  0  0  0  0  0  0
  150.9953  135.3726  154.8028 C   0  0  0  0  0  0  0  0  0  0  0  0
  151.3362  134.5065  155.6120 O   0  0  0  0  0  0  0  0  0  0  0  0
  151.7630  136.3859  154.3416 N   0  5  0  0  0  0  0  0  0  0  0  0
  151.3292  137.6533  154.4388 C   0  0  0  0  0  0  0  0  0  0  0  0
  150.0570  138.0517  154.3962 N   0  0  0  0  0  0  0  0  0  0  0  0
  150.1819  139.3995  154.5259 C   0  0  0  0  0  0  0  0  0  0  0  0
  149.0126  140.3235  154.5404 C   0  0  0  0  0  0  0  0  0  0  0  0
  151.4206  139.8571  154.6319 N   0  0  0  0  0  0  0  0  0  0  0  0
  152.1963  138.6908  154.5710 O   0  0  0  0  0  0  0  0  0  0  0  0
  148.7118  133.2073  153.6305 C   0  0  0  0  0  0  0  0  0  0  0  0
  145.2991  131.7626  150.1519 H   0  0  0  0  0  0  0  0  0  0  0  0
  146.3811  133.1475  149.9636 H   0  0  0  0  0  0  0  0  0  0  0  0
  145.0463  133.2182  151.1254 H   0  0  0  0  0  0  0  0  0  0  0  0
  147.7896  134.1132  151.9078 H   0  0  0  0  0  0  0  0  0  0  0  0
  145.7148  134.6349  153.0425 H   0  0  0  0  0  0  0  0  0  0  0  0
  145.9852  133.3642  154.2333 H   0  0  0  0  0  0  0  0  0  0  0  0
  147.3809  136.0187  154.0058 H   0  0  0  0  0  0  0  0  0  0  0  0
  146.8455  135.1995  155.4621 H   0  0  0  0  0  0  0  0  0  0  0  0
  148.8464  134.0287  155.6312 H   0  0  0  0  0  0  0  0  0  0  0  0
  149.5199  136.0874  153.6333 H   0  0  0  0  0  0  0  0  0  0  0  0
  148.9181  140.8242  153.5765 H   0  0  0  0  0  0  0  0  0  0  0  0
  149.1336  141.0801  155.3162 H   0  0  0  0  0  0  0  0  0  0  0  0
  148.0914  139.7742  154.7371 H   0  0  0  0  0  0  0  0  0  0  0  0
  148.5796  132.2825  154.1939 H   0  0  0  0  0  0  0  0  0  0  0  0
  149.6455  133.1112  153.0749 H   0  0  0  0  0  0  0  0  0  0  0  0
  1  2  1  0  0  0  0
  1 18  1  0  0  0  0
  1 19  1  0  0  0  0
  1 20  1  0  0  0  0
  2  3  1  0  0  0  0
  3 17  1  0  0  0  0
  3  4  1  0  0  0  0
  3 21  1  0  0  0  0
  4  5  1  0  0  0  0
  4 22  1  0  0  0  0
  4 23  1  0  0  0  0
  5  6  1  0  0  0  0
  5 24  1  0  0  0  0
  5 25  1  0  0  0  0
  6  7  1  0  0  0  0
  6 17  1  0  0  0  0
  6 26  1  0  0  0  0
  7  8  1  0  0  0  0
  7 27  1  0  0  0  0
  8  9  2  0  0  0  0
  8 10  1  0  0  0  0
 10 11  1  0  0  0  0
 11 16  1  0  0  0  0
 11 12  2  0  0  0  0
 12 13  1  0  0  0  0
 13 14  1  0  0  0  0
 13 15  2  0  0  0  0
 14 28  1  0  0  0  0
 14 29  1  0  0  0  0
 14 30  1  0  0  0  0
 15 16  1  0  0  0  0
 17 31  1  0  0  0  0
 17 32  1  0  0  0  0
M  CHG  1  10  -1
M  END
> <s_m_source_file>
AV-unprocessed.smi

> <i_m_source_file_index>
2492

> <i_lp_mmshare_version>
43012

> <i_f3d_flags>
0

> <s_epik_input>
W0NIM11TW0NAQEhdMVtDSDJdW0NIMl1bQ0BIXShbQ0gyXTEpW05IXUMoPU8pW05IXWMybmMoW0NIM10pbm8y

> <s_epik_cmdline>
J2VwaWtfcHl0aG9uJywgJy1waCcsICc3LjAnLCAnLXRuJywgJzgnLCAnLW1hJywgJzIwMCcsICctbWV0YWxfYmluZGluZycsICctaW1hZScsICc8aW5maWxlLm1hZT4nLCAnLW9tYWUnLCAnPG91dGZpbGUubWFlPic=

> <r_lp_tautomer_probability>
1

> <r_epik_Ionization_Penalty>
6.26454

> <r_epik_Ionization_Penalty_Charging>
6.26445

> <r_epik_Ionization_Penalty_Neutral>
9.05726e-05

> <r_epik_State_Penalty>
6.26444

> <r_epik_Charging_Adjusted_Penalty>
12.5289

> <i_epik_Tot_Q>
-1

> <i_epik_Tot_abs_Q>
1

> <r_epik_Metal_State_Penalty>
2.20125

> <b_epik_Metal_Only>
1

> <s_lp_Force_Field>
OPLS_2005

> <r_lp_Energy>
10.5143

> <b_lp_Chiralities_Consistent>
1

> <s_lp_Variant>
AV-unprocessed.smi:2492-8

> <Gold.Version>
5.8.1

> <Gold.Id.Protein>
6NUR|6NUR_protein|mol2

> <Gold.PLP.Fitness>
35.2806

> <Gold.PLP.PLP>
-26.2367

> <Gold.PLP.part.hbond>
-3.0000

> <Gold.PLP.part.metal>
0.0000

> <Gold.PLP.part.buried>
-3.1835

> <Gold.PLP.part.nonpolar>
-20.3926

> <Gold.PLP.part.repulsive>
0.5716

> <Gold.PLP.ligand.clash>
0.0000

> <Gold.PLP.ligand.torsion>
1.1668

> <Gold.PLP.Chemscore.Hbond>
3.7840

> <Gold.PLP.Chemscore.CHOScore>
0.0000

> <Gold.PLP.Chemscore.Metal>
0.0000

> <Gold.Chemscore.Hbonds>
donor molecule, donor type, donor heavy atom, donor atom, acceptor molecule, acceptor atom, score
      L1  H     7    27       P1  7948  0.75
      P1  H  7989  7998       L1    15  1.00
      P1  H 10752 10763       L1    10  1.01

> <Gold.PLP.Chemscore.Internal.Correction>
0.0255

> <Gold.Rescore>
     Score         DG    S(hbond)    S(metal)    S(lipo)     H(rot)  DE(clash)    DE(int)     intcor
     13.61     -16.25       2.77        0.00      40.75       1.27       0.01       2.63       ----

> <Gold.Chemscore.Fitness>
13.6061

> <Gold.Chemscore.DG>
-16.2480

> <Gold.Chemscore.ZeroCoef>
-5.4800

> <Gold.Chemscore.Hbond>
2.7708

> <Gold.Chemscore.Metal>
0.0000

> <Gold.Chemscore.Lipo>
40.7494

> <Gold.Chemscore.Internal_Hbond>
0.0000

> <Gold.Chemscore.DEClash>
0.0140

> <Gold.Chemscore.DEInternal>
2.6278

> <Gold.Chemscore.Rot>
1.2712

> <Gold.Chemscore.Internal.Correction>
   9.000000E+99

> <Gold.Chemscore.Hbonds>
donor molecule, donor type, donor heavy atom, donor atom, acceptor molecule, acceptor atom, score
      L1  H     7    27       P1  7948  0.38
      P1  H  7989  7998       L1    15  0.55
      P1  H 10752 10763       L1    10  0.07

> <Gold.Chemscore.Hbond.Weighted>
-9.2545

> <Gold.Chemscore.Metal.Weighted>
-0.0000

> <Gold.Chemscore.Lipo.Weighted>
-4.7677

> <Gold.Chemscore.Internal_Hbond.Weighted>
0.0000

> <Gold.Chemscore.DEClash.Weighted>
0.0140

> <Gold.Chemscore.DEInternal.Weighted>
2.6278

> <Gold.Chemscore.Rot.Weighted>
3.2542

> <Gold.Chemscore.Internal.Correction.Weighted>
   9.000000E+99

> <Gold.Protein.RotatedTorsions>
[ 6907 6896 6895 6894 ] final   -0.16 input  -60.11 | X-H torsion
[ 7974 7965 7964 7962 ] final -118.84 input  175.53 | X-H torsion
[ 8008 7997 7996 7995 ] final   71.60 input   59.86 | X-H torsion
[ 10167 10162 10161 10158 ] final -158.28 input  -65.29 | X-H torsion
[ 10718 10713 10712 10709 ] final  -23.77 input   66.30 | X-H torsion
[ 10763 10752 10751 10750 ] final   41.39 input  -60.55 | X-H torsion
[ 11005 11000 10999 10996 ] final  165.13 input  -57.11 | X-H torsion

> <Gold.Protein.ActiveResidues>
 VAL166  LYS551  ARG553  GLY616  TRP617  ASP618  TYR619  PRO620  LYS621  CYS622 
 ASP623  PHE694  ASN695  SER759  ASP760  ASP761  ALA762  ILE779  LEU786  VAL792 
 PHE793  MET794  SER795  GLU796  ALA797  LYS798  CYS799  TRP800  GLU811  SER814 

> <Gold.Protein.RotatedAtoms>
  151.5668  135.1064  159.9985 H   0  0  0  0  0  0  0  0  0  0  0  0  # atno 6907 bound_to 6896
  152.4420  133.7461  159.6679 H   0  0  0  0  0  0  0  0  0  0  0  0  # atno 6908 bound_to 6896
  150.8327  133.7995  159.3115 H   0  0  0  0  0  0  0  0  0  0  0  0  # atno 6909 bound_to 6896
  145.0693  140.8347  143.4105 H   0  0  0  0  0  0  0  0  0  0  0  0  # atno 7974 bound_to 7965
  155.7563  140.3487  155.5175 H   0  0  0  0  0  0  0  0  0  0  0  0  # atno 8008 bound_to 7997
  155.8957  140.1025  157.1407 H   0  0  0  0  0  0  0  0  0  0  0  0  # atno 8009 bound_to 7997
  154.4038  140.1296  156.4359 H   0  0  0  0  0  0  0  0  0  0  0  0  # atno 8010 bound_to 7997
  139.6705  143.9754  152.2280 H   0  0  0  0  0  0  0  0  0  0  0  0  # atno 10167 bound_to 10162
  156.4866  130.4557  149.6780 H   0  0  0  0  0  0  0  0  0  0  0  0  # atno 10718 bound_to 10713
  152.9909  135.6163  154.2780 H   0  0  0  0  0  0  0  0  0  0  0  0  # atno 10763 bound_to 10752
  154.2510  135.2785  155.2818 H   0  0  0  0  0  0  0  0  0  0  0  0  # atno 10764 bound_to 10752
  154.5288  135.5794  153.6799 H   0  0  0  0  0  0  0  0  0  0  0  0  # atno 10765 bound_to 10752
  140.2529  134.7962  157.3519 H   0  0  0  0  0  0  0  0  0  0  0  0  # atno 11005 bound_to 11000
  145.1312  139.2630  143.5538 LP  0  0  0  0  0  0  0  0  0  0  0  0  # atno 17320 bound_to 7965
  146.3528  140.0964  142.8610 LP  0  0  0  0  0  0  0  0  0  0  0  0  # atno 17321 bound_to 7965
  139.9517  144.6616  150.8165 LP  0  0  0  0  0  0  0  0  0  0  0  0  # atno 17342 bound_to 10162
  140.7616  143.3178  151.2692 LP  0  0  0  0  0  0  0  0  0  0  0  0  # atno 17343 bound_to 10162
  156.3468  130.7411  151.2365 LP  0  0  0  0  0  0  0  0  0  0  0  0  # atno 17370 bound_to 10713
  157.7478  131.0388  150.4521 LP  0  0  0  0  0  0  0  0  0  0  0  0  # atno 17371 bound_to 10713
  140.1540  134.4813  155.7941 LP  0  0  0  0  0  0  0  0  0  0  0  0  # atno 17394 bound_to 11000
  141.2199  133.6874  156.7428 LP  0  0  0  0  0  0  0  0  0  0  0  0  # atno 17395 bound_to 11000

$$$$
