AV-unprocessed.smi:2424|AV-procd|sdf|9567|dock8
  -GOLD-   2272013203D 1   1.00000     0.00000
 Structure written by MMmdl.
 49 50  0  0  0  0  0  0  0  0  2 V2000
  148.3713  140.5636  154.1053 C   0  0  0  0  0  0  0  0  0  0  0  0
  147.5821  139.2820  154.4180 C   0  0  0  0  0  0  0  0  0  0  0  0
  148.0543  138.5082  155.6775 C   0  0  0  0  0  0  0  0  0  0  0  0
  147.5650  139.2682  156.9352 C   0  0  0  0  0  0  0  0  0  0  0  0
  148.1030  140.7007  157.0907 C   0  0  0  0  0  0  0  0  0  0  0  0
  147.7876  136.9747  155.7273 C   0  0  1  0  0  0  0  0  0  0  0  0
  147.6505  136.3606  154.4050 N   0  0  0  0  0  0  0  0  0  0  0  0
  146.7276  135.4543  154.0590 C   0  0  0  0  0  0  0  0  0  0  0  0
  145.8856  135.0124  154.8404 O   0  0  0  0  0  0  0  0  0  0  0  0
  146.8542  135.1213  152.7625 N   0  0  0  0  0  0  0  0  0  0  0  0
  146.1031  134.2041  152.0169 C   0  0  0  0  0  0  0  0  0  0  0  0
  145.3024  134.6392  150.9804 C   0  0  0  0  0  0  0  0  0  0  0  0
  144.5134  133.9152  150.1576 N   0  5  0  0  0  0  0  0  0  0  0  0
  144.4694  132.5636  150.3347 C   0  0  0  0  0  0  0  0  0  0  0  0
  143.7684  131.8405  149.6278 O   0  0  0  0  0  0  0  0  0  0  0  0
  145.2883  131.9586  151.4045 C   0  0  0  0  0  0  0  0  0  0  0  0
  145.2482  130.4514  151.5904 C   0  0  0  0  0  0  0  0  0  0  0  0
  146.0558  132.7528  152.1921 C   0  0  0  0  0  0  0  0  0  0  0  0
  149.1951  136.7666  156.3119 C   0  0  1  0  0  0  0  0  0  0  0  0
  150.0123  135.5188  155.9832 C   0  0  0  0  0  0  0  0  0  0  0  0
  149.5635  138.1431  155.7270 C   0  0  1  0  0  0  0  0  0  0  0  0
  150.1339  138.0500  154.4258 O   0  0  0  0  0  0  0  0  0  0  0  0
  151.5227  137.7678  154.4448 C   0  0  0  0  0  0  0  0  0  0  0  0
  148.0648  140.9732  153.1426 H   0  0  0  0  0  0  0  0  0  0  0  0
  149.4427  140.3690  154.0533 H   0  0  0  0  0  0  0  0  0  0  0  0
  148.2022  141.3401  154.8505 H   0  0  0  0  0  0  0  0  0  0  0  0
  146.5198  139.5146  154.4820 H   0  0  0  0  0  0  0  0  0  0  0  0
  147.6622  138.6515  153.5328 H   0  0  0  0  0  0  0  0  0  0  0  0
  146.4773  139.3362  156.9234 H   0  0  0  0  0  0  0  0  0  0  0  0
  147.7848  138.7026  157.8401 H   0  0  0  0  0  0  0  0  0  0  0  0
  147.6141  141.2017  157.9263 H   0  0  0  0  0  0  0  0  0  0  0  0
  147.9215  141.2992  156.1984 H   0  0  0  0  0  0  0  0  0  0  0  0
  149.1733  140.7134  157.2944 H   0  0  0  0  0  0  0  0  0  0  0  0
  147.0064  136.6907  156.4338 H   0  0  0  0  0  0  0  0  0  0  0  0
  148.3037  136.6647  153.6977 H   0  0  0  0  0  0  0  0  0  0  0  0
  147.5815  135.5929  152.2451 H   0  0  0  0  0  0  0  0  0  0  0  0
  145.2899  135.7337  150.7867 H   0  0  0  0  0  0  0  0  0  0  0  0
  145.9062  130.1325  152.3992 H   0  0  0  0  0  0  0  0  0  0  0  0
  145.5673  129.9462  150.6783 H   0  0  0  0  0  0  0  0  0  0  0  0
  144.2361  130.1241  151.8302 H   0  0  0  0  0  0  0  0  0  0  0  0
  146.6455  132.2749  152.9571 H   0  0  0  0  0  0  0  0  0  0  0  0
  149.1243  136.8660  157.3963 H   0  0  0  0  0  0  0  0  0  0  0  0
  150.1814  135.4099  154.9117 H   0  0  0  0  0  0  0  0  0  0  0  0
  149.5041  134.6177  156.3268 H   0  0  0  0  0  0  0  0  0  0  0  0
  150.9878  135.5492  156.4681 H   0  0  0  0  0  0  0  0  0  0  0  0
  150.1327  138.7825  156.4048 H   0  0  0  0  0  0  0  0  0  0  0  0
  151.8881  137.6656  153.4232 H   0  0  0  0  0  0  0  0  0  0  0  0
  151.7386  136.8397  154.9741 H   0  0  0  0  0  0  0  0  0  0  0  0
  152.0780  138.5772  154.9204 H   0  0  0  0  0  0  0  0  0  0  0  0
  1  2  1  0  0  0  0
  1 24  1  0  0  0  0
  1 25  1  0  0  0  0
  1 26  1  0  0  0  0
  2  3  1  0  0  0  0
  2 27  1  0  0  0  0
  2 28  1  0  0  0  0
  3 21  1  0  0  0  0
  3  4  1  0  0  0  0
  3  6  1  0  0  0  0
  4  5  1  0  0  0  0
  4 29  1  0  0  0  0
  4 30  1  0  0  0  0
  5 31  1  0  0  0  0
  5 32  1  0  0  0  0
  5 33  1  0  0  0  0
  6  7  1  0  0  0  0
  6 19  1  0  0  0  0
  6 34  1  0  0  0  0
  7  8  1  0  0  0  0
  7 35  1  0  0  0  0
  8  9  2  0  0  0  0
  8 10  1  0  0  0  0
 10 11  1  0  0  0  0
 10 36  1  0  0  0  0
 11 18  1  0  0  0  0
 11 12  2  0  0  0  0
 12 13  1  0  0  0  0
 12 37  1  0  0  0  0
 13 14  1  0  0  0  0
 14 15  2  0  0  0  0
 14 16  1  0  0  0  0
 16 17  1  0  0  0  0
 16 18  2  0  0  0  0
 17 38  1  0  0  0  0
 17 39  1  0  0  0  0
 17 40  1  0  0  0  0
 18 41  1  0  0  0  0
 19 20  1  0  0  0  0
 19 21  1  0  0  0  0
 19 42  1  0  0  0  0
 20 43  1  0  0  0  0
 20 44  1  0  0  0  0
 20 45  1  0  0  0  0
 21 22  1  0  0  0  0
 21 46  1  0  0  0  0
 22 23  1  0  0  0  0
 23 47  1  0  0  0  0
 23 48  1  0  0  0  0
 23 49  1  0  0  0  0
M  CHG  1  13  -1
M  END
> <s_m_source_file>
AV-unprocessed.smi

> <i_m_source_file_index>
2424

> <i_lp_mmshare_version>
43012

> <i_f3d_flags>
0

> <s_epik_input>
W0NIM11PW0NAQEhdMVtDQEhdKFtDSDNdKVtDQEBIXShDMShbQ0gyXVtDSDNdKVtDSDJdW0NIM10pW05IXUMoPU8pW05IXWMyW2NIXVtuSF1jKD1PKWMoW0NIM10pW2NIXTI=

> <s_epik_cmdline>
J2VwaWtfcHl0aG9uJywgJy1waCcsICc3LjAnLCAnLXRuJywgJzgnLCAnLW1hJywgJzIwMCcsICctbWV0YWxfYmluZGluZycsICctaW1hZScsICc8aW5maWxlLm1hZT4nLCAnLW9tYWUnLCAnPG91dGZpbGUubWFlPic=

> <r_lp_tautomer_probability>
1

> <r_epik_Ionization_Penalty>
7.6122

> <r_epik_Ionization_Penalty_Charging>
1.53843

> <r_epik_Ionization_Penalty_Neutral>
6.07377

> <r_epik_State_Penalty>
6.07371

> <r_epik_Charging_Adjusted_Penalty>
7.61214

> <i_epik_Tot_Q>
-1

> <i_epik_Tot_abs_Q>
1

> <r_epik_Metal_State_Penalty>
2.02136

> <b_epik_Metal_Only>
1

> <s_lp_Force_Field>
OPLS_2005

> <r_lp_Energy>
42.7103

> <b_lp_Chiralities_Consistent>
1

> <s_lp_Variant>
AV-unprocessed.smi:2424-9

> <Gold.Version>
5.8.1

> <Gold.Id.Protein>
6NUR|6NUR_protein|mol2

> <Gold.PLP.Fitness>
35.3635

> <Gold.PLP.PLP>
-28.9488

> <Gold.PLP.part.hbond>
-2.9035

> <Gold.PLP.part.metal>
0.0000

> <Gold.PLP.part.buried>
-6.8357

> <Gold.PLP.part.nonpolar>
-20.4485

> <Gold.PLP.part.repulsive>
0.6443

> <Gold.PLP.ligand.clash>
0.0000

> <Gold.PLP.ligand.torsion>
1.1634

> <Gold.PLP.Chemscore.Hbond>
2.7033

> <Gold.PLP.Chemscore.CHOScore>
0.0000

> <Gold.PLP.Chemscore.Metal>
0.0000

> <Gold.Chemscore.Hbonds>
donor molecule, donor type, donor heavy atom, donor atom, acceptor molecule, acceptor atom, score
      L1  H     7    35       P1  7948  0.85
      L1  H    10    36       P1  7948  1.00
      P1  H 10785 10796       L1    15  0.86

> <Gold.PLP.Chemscore.Internal.Correction>
0.6318

> <Gold.Rescore>
     Score         DG    S(hbond)    S(metal)    S(lipo)     H(rot)  DE(clash)    DE(int)     intcor
     16.68     -17.92       2.70        0.00      62.48       1.52       0.00       1.24       ----

> <Gold.Chemscore.Fitness>
16.6810

> <Gold.Chemscore.DG>
-17.9239

> <Gold.Chemscore.ZeroCoef>
-5.4800

> <Gold.Chemscore.Hbond>
2.7024

> <Gold.Chemscore.Metal>
0.0000

> <Gold.Chemscore.Lipo>
62.4804

> <Gold.Chemscore.Internal_Hbond>
0.0000

> <Gold.Chemscore.DEClash>
0.0021

> <Gold.Chemscore.DEInternal>
1.2408

> <Gold.Chemscore.Rot>
1.5204

> <Gold.Chemscore.Internal.Correction>
   9.000000E+99

> <Gold.Chemscore.Hbonds>
donor molecule, donor type, donor heavy atom, donor atom, acceptor molecule, acceptor atom, score
      L1  H     7    35       P1  7948  0.82
      L1  H    10    36       P1  7948  0.93
      P1  H 10785 10796       L1    15  0.82

> <Gold.Chemscore.Hbond.Weighted>
-9.0260

> <Gold.Chemscore.Metal.Weighted>
-0.0000

> <Gold.Chemscore.Lipo.Weighted>
-7.3102

> <Gold.Chemscore.Internal_Hbond.Weighted>
0.0000

> <Gold.Chemscore.DEClash.Weighted>
0.0021

> <Gold.Chemscore.DEInternal.Weighted>
1.2408

> <Gold.Chemscore.Rot.Weighted>
3.8922

> <Gold.Chemscore.Internal.Correction.Weighted>
   9.000000E+99

> <Gold.Protein.RotatedTorsions>
[ 6907 6896 6895 6894 ] final   96.21 input  -60.11 | X-H torsion
[ 7974 7965 7964 7962 ] final  132.05 input  175.53 | X-H torsion
[ 8008 7997 7996 7995 ] final  149.91 input   59.86 | X-H torsion
[ 10167 10162 10161 10158 ] final  -85.89 input  -65.29 | X-H torsion
[ 10718 10713 10712 10709 ] final   44.38 input   66.30 | X-H torsion
[ 10763 10752 10751 10750 ] final  159.28 input  -60.55 | X-H torsion
[ 11005 11000 10999 10996 ] final  116.57 input  -57.11 | X-H torsion

> <Gold.Protein.ActiveResidues>
 VAL166  LYS551  ARG553  GLY616  TRP617  ASP618  TYR619  PRO620  LYS621  CYS622 
 ASP623  PHE694  ASN695  SER759  ASP760  ASP761  ALA762  ILE779  LEU786  VAL792 
 PHE793  MET794  SER795  GLU796  ALA797  LYS798  CYS799  TRP800  GLU811  SER814 

> <Gold.Protein.RotatedAtoms>
  152.5437  134.0921  159.8281 H   0  0  0  0  0  0  0  0  0  0  0  0  # atno 6907 bound_to 6896
  151.1009  133.5236  159.2617 H   0  0  0  0  0  0  0  0  0  0  0  0  # atno 6908 bound_to 6896
  151.1992  135.0444  159.8919 H   0  0  0  0  0  0  0  0  0  0  0  0  # atno 6909 bound_to 6896
  145.0009  139.4313  143.5293 H   0  0  0  0  0  0  0  0  0  0  0  0  # atno 7974 bound_to 7965
  156.2737  140.2089  156.5933 H   0  0  0  0  0  0  0  0  0  0  0  0  # atno 8008 bound_to 7997
  154.6965  140.0525  157.0439 H   0  0  0  0  0  0  0  0  0  0  0  0  # atno 8009 bound_to 7997
  155.0794  140.3185  155.4609 H   0  0  0  0  0  0  0  0  0  0  0  0  # atno 8010 bound_to 7997
  140.3994  143.2669  151.9162 H   0  0  0  0  0  0  0  0  0  0  0  0  # atno 10167 bound_to 10162
  157.4262  130.7998  149.7560 H   0  0  0  0  0  0  0  0  0  0  0  0  # atno 10718 bound_to 10713
  154.2293  135.2779  155.2896 H   0  0  0  0  0  0  0  0  0  0  0  0  # atno 10763 bound_to 10752
  154.5637  135.5639  153.7034 H   0  0  0  0  0  0  0  0  0  0  0  0  # atno 10764 bound_to 10752
  153.0024  135.6304  154.2435 H   0  0  0  0  0  0  0  0  0  0  0  0  # atno 10765 bound_to 10752
  139.9046  134.9600  156.7219 H   0  0  0  0  0  0  0  0  0  0  0  0  # atno 11005 bound_to 11000
  146.3451  139.9396  142.8742 LP  0  0  0  0  0  0  0  0  0  0  0  0  # atno 17320 bound_to 7965
  145.2155  140.9913  143.4076 LP  0  0  0  0  0  0  0  0  0  0  0  0  # atno 17321 bound_to 7965
  139.4785  144.5648  151.8182 LP  0  0  0  0  0  0  0  0  0  0  0  0  # atno 17342 bound_to 10162
  140.4755  144.1525  150.5924 LP  0  0  0  0  0  0  0  0  0  0  0  0  # atno 17343 bound_to 10162
  155.9897  130.3950  150.3060 LP  0  0  0  0  0  0  0  0  0  0  0  0  # atno 17370 bound_to 10713
  157.1213  131.0247  151.3008 LP  0  0  0  0  0  0  0  0  0  0  0  0  # atno 17371 bound_to 10713
  140.6994  133.9320  155.8015 LP  0  0  0  0  0  0  0  0  0  0  0  0  # atno 17394 bound_to 11000
  141.0383  134.0658  157.3933 LP  0  0  0  0  0  0  0  0  0  0  0  0  # atno 17395 bound_to 11000

$$$$
