AV-unprocessed.smi:2747|AV-procd|sdf|10580|dock8
  -GOLD-   2272015 33D 1   1.00000     0.00000
 Structure written by MMmdl.
 23 24  0  0  0  0  0  0  0  0  2 V2000
  153.3824  136.6085  160.6492 O   0  5  0  0  0  0  0  0  0  0  0  0
  154.5348  137.0486  161.0968 C   0  0  1  0  0  0  0  0  0  0  0  0
  154.3700  138.5613  161.4123 C   0  0  0  0  0  0  0  0  0  0  0  0
  153.8458  139.3609  160.3072 N   0  0  0  0  0  0  0  0  0  0  0  0
  153.8213  138.8394  159.0443 N   0  0  0  0  0  0  0  0  0  0  0  0
  153.3451  139.7345  158.2307 N   0  0  0  0  0  0  0  0  0  0  0  0
  153.0575  140.8719  158.9663 C   0  0  0  0  0  0  0  0  0  0  0  0
  152.5334  142.1290  158.5907 C   0  0  0  0  0  0  0  0  0  0  0  0
  152.3378  143.1393  159.5581 C   0  0  0  0  0  0  0  0  0  0  0  0
  151.6965  144.6642  159.0588 Cl  0  0  0  0  0  0  0  0  0  0  0  0
  152.6645  142.9022  160.9153 C   0  0  0  0  0  0  0  0  0  0  0  0
  152.4310  144.1269  162.1116 Cl  0  0  0  0  0  0  0  0  0  0  0  0
  153.1891  141.6537  161.3034 C   0  0  0  0  0  0  0  0  0  0  0  0
  153.3758  140.6621  160.3253 C   0  0  0  0  0  0  0  0  0  0  0  0
  154.8828  136.2438  162.3727 C   0  0  0  0  0  0  0  0  0  0  0  0
  154.8556  134.9342  162.1179 F   0  0  0  0  0  0  0  0  0  0  0  0
  156.1159  136.5542  162.7754 F   0  0  0  0  0  0  0  0  0  0  0  0
  154.0371  136.5127  163.3704 F   0  0  0  0  0  0  0  0  0  0  0  0
  155.4226  136.9813  160.4659 H   0  0  0  0  0  0  0  0  0  0  0  0
  153.7122  138.7027  162.2715 H   0  0  0  0  0  0  0  0  0  0  0  0
  155.3319  138.9848  161.7046 H   0  0  0  0  0  0  0  0  0  0  0  0
  152.2840  142.3170  157.5568 H   0  0  0  0  0  0  0  0  0  0  0  0
  153.4397  141.4557  162.3353 H   0  0  0  0  0  0  0  0  0  0  0  0
  1  2  1  0  0  0  0
  2  3  1  0  0  0  0
  2 15  1  0  0  0  0
  2 19  1  0  0  0  0
  3  4  1  0  0  0  0
  3 20  1  0  0  0  0
  3 21  1  0  0  0  0
  4 14  1  0  0  0  0
  4  5  1  0  0  0  0
  5  6  2  0  0  0  0
  6  7  1  0  0  0  0
  7 14  2  0  0  0  0
  7  8  1  0  0  0  0
  8  9  2  0  0  0  0
  8 22  1  0  0  0  0
  9 10  1  0  0  0  0
  9 11  1  0  0  0  0
 11 12  1  0  0  0  0
 11 13  2  0  0  0  0
 13 14  1  0  0  0  0
 13 23  1  0  0  0  0
 15 16  1  0  0  0  0
 15 17  1  0  0  0  0
 15 18  1  0  0  0  0
M  CHG  1   1  -1
M  END
> <s_m_source_file>
AV-unprocessed.smi

> <i_m_source_file_index>
2747

> <i_lp_mmshare_version>
43012

> <i_f3d_flags>
0

> <s_epik_input>
RkMoRikoRilbQ0BIXShbT0hdKVtDSDJdbihubjEpYyhjMTIpW2NIXWMoQ2wpYyhDbClbY0hdMg==

> <s_epik_cmdline>
J2VwaWtfcHl0aG9uJywgJy1waCcsICc3LjAnLCAnLXRuJywgJzgnLCAnLW1hJywgJzIwMCcsICctbWV0YWxfYmluZGluZycsICctaW1hZScsICc8aW5maWxlLm1hZT4nLCAnLW9tYWUnLCAnPG91dGZpbGUubWFlPic=

> <r_lp_tautomer_probability>
1

> <r_epik_Ionization_Penalty>
1.2724

> <r_epik_Ionization_Penalty_Charging>
1.2724

> <r_epik_Ionization_Penalty_Neutral>
1.57383e-10

> <r_epik_State_Penalty>
1.34397

> <r_epik_Charging_Adjusted_Penalty>
2.61637

> <i_epik_Tot_Q>
-1

> <i_epik_Tot_abs_Q>
1

> <r_epik_Metal_State_Penalty>
1.34397

> <b_epik_Metal_Only>
0

> <s_lp_Force_Field>
OPLS_2005

> <r_lp_Energy>
12.5023

> <b_lp_Chiralities_Consistent>
1

> <s_lp_Variant>
AV-unprocessed.smi:2747-4

> <Gold.Version>
5.8.1

> <Gold.Id.Protein>
6NUR|6NUR_protein|mol2

> <Gold.PLP.Fitness>
45.9423

> <Gold.PLP.PLP>
-37.5314

> <Gold.PLP.part.hbond>
-1.9816

> <Gold.PLP.part.metal>
0.0000

> <Gold.PLP.part.buried>
-3.7418

> <Gold.PLP.part.nonpolar>
-32.1449

> <Gold.PLP.part.repulsive>
0.0000

> <Gold.PLP.ligand.clash>
0.0000

> <Gold.PLP.ligand.torsion>
0.2739

> <Gold.PLP.Chemscore.Hbond>
2.9825

> <Gold.PLP.Chemscore.CHOScore>
0.0000

> <Gold.PLP.Chemscore.Metal>
0.0000

> <Gold.Chemscore.Hbonds>
donor molecule, donor type, donor heavy atom, donor atom, acceptor molecule, acceptor atom, score
      P1  H  6896  6907       L1     1  1.53
      P1  H  7997  8009       L1     6  1.00

> <Gold.PLP.Chemscore.Internal.Correction>
0.0112

> <Gold.Rescore>
     Score         DG    S(hbond)    S(metal)    S(lipo)     H(rot)  DE(clash)    DE(int)     intcor
     19.04     -20.44       1.85        0.00     104.48       1.35       0.08       1.32       ----

> <Gold.Chemscore.Fitness>
19.0424

> <Gold.Chemscore.DG>
-20.4357

> <Gold.Chemscore.ZeroCoef>
-5.4800

> <Gold.Chemscore.Hbond>
1.8504

> <Gold.Chemscore.Metal>
0.0000

> <Gold.Chemscore.Lipo>
104.4835

> <Gold.Chemscore.Internal_Hbond>
0.0000

> <Gold.Chemscore.DEClash>
0.0764

> <Gold.Chemscore.DEInternal>
1.3169

> <Gold.Chemscore.Rot>
1.3474

> <Gold.Chemscore.Internal.Correction>
   9.000000E+99

> <Gold.Chemscore.Hbonds>
donor molecule, donor type, donor heavy atom, donor atom, acceptor molecule, acceptor atom, score
      P1  H  6896  6907       L1     1  0.77
      P1  H  7997  8009       L1     6  0.35

> <Gold.Chemscore.Hbond.Weighted>
-6.1805

> <Gold.Chemscore.Metal.Weighted>
-0.0000

> <Gold.Chemscore.Lipo.Weighted>
-12.2246

> <Gold.Chemscore.Internal_Hbond.Weighted>
0.0000

> <Gold.Chemscore.DEClash.Weighted>
0.0764

> <Gold.Chemscore.DEInternal.Weighted>
1.3169

> <Gold.Chemscore.Rot.Weighted>
3.4494

> <Gold.Chemscore.Internal.Correction.Weighted>
   9.000000E+99

> <Gold.Protein.RotatedTorsions>
[ 6907 6896 6895 6894 ] final   32.75 input  -60.11 | X-H torsion
[ 7974 7965 7964 7962 ] final  157.36 input  175.53 | X-H torsion
[ 8008 7997 7996 7995 ] final  147.69 input   59.86 | X-H torsion
[ 10167 10162 10161 10158 ] final  -23.40 input  -65.29 | X-H torsion
[ 10718 10713 10712 10709 ] final   55.16 input   66.30 | X-H torsion
[ 10763 10752 10751 10750 ] final   -5.65 input  -60.55 | X-H torsion
[ 11005 11000 10999 10996 ] final  -85.57 input  -57.11 | X-H torsion

> <Gold.Protein.ActiveResidues>
 VAL166  LYS551  ARG553  GLY616  TRP617  ASP618  TYR619  PRO620  LYS621  CYS622 
 ASP623  PHE694  ASN695  SER759  ASP760  ASP761  ALA762  ILE779  LEU786  VAL792 
 PHE793  MET794  SER795  GLU796  ALA797  LYS798  CYS799  TRP800  GLU811  SER814 

> <Gold.Protein.RotatedAtoms>
  152.0789  134.9484  160.0573 H   0  0  0  0  0  0  0  0  0  0  0  0  # atno 6907 bound_to 6896
  152.0781  133.4134  159.4497 H   0  0  0  0  0  0  0  0  0  0  0  0  # atno 6908 bound_to 6896
  150.6836  134.2934  159.4719 H   0  0  0  0  0  0  0  0  0  0  0  0  # atno 6909 bound_to 6896
  144.7908  139.7330  143.6222 H   0  0  0  0  0  0  0  0  0  0  0  0  # atno 7974 bound_to 7965
  156.2816  140.2149  156.5578 H   0  0  0  0  0  0  0  0  0  0  0  0  # atno 8008 bound_to 7997
  154.7238  140.0501  157.0686 H   0  0  0  0  0  0  0  0  0  0  0  0  # atno 8009 bound_to 7997
  155.0444  140.3149  155.4716 H   0  0  0  0  0  0  0  0  0  0  0  0  # atno 8010 bound_to 7997
  140.7288  143.4447  151.0605 H   0  0  0  0  0  0  0  0  0  0  0  0  # atno 10167 bound_to 10162
  157.5321  130.8637  149.8701 H   0  0  0  0  0  0  0  0  0  0  0  0  # atno 10718 bound_to 10713
  153.4014  135.7005  153.6423 H   0  0  0  0  0  0  0  0  0  0  0  0  # atno 10763 bound_to 10752
  153.4955  135.3663  155.2514 H   0  0  0  0  0  0  0  0  0  0  0  0  # atno 10764 bound_to 10752
  154.8710  135.4099  154.3350 H   0  0  0  0  0  0  0  0  0  0  0  0  # atno 10765 bound_to 10752
  141.1640  133.7406  156.9034 H   0  0  0  0  0  0  0  0  0  0  0  0  # atno 11005 bound_to 11000
  146.2159  139.5548  142.9650 LP  0  0  0  0  0  0  0  0  0  0  0  0  # atno 17320 bound_to 7965
  145.5800  141.0384  143.2127 LP  0  0  0  0  0  0  0  0  0  0  0  0  # atno 17321 bound_to 7965
  139.8117  143.7942  152.3171 LP  0  0  0  0  0  0  0  0  0  0  0  0  # atno 17342 bound_to 10162
  139.7993  144.7380  150.9846 LP  0  0  0  0  0  0  0  0  0  0  0  0  # atno 17343 bound_to 10162
  156.0430  130.3734  150.1387 LP  0  0  0  0  0  0  0  0  0  0  0  0  # atno 17370 bound_to 10713
  156.9572  130.9793  151.3486 LP  0  0  0  0  0  0  0  0  0  0  0  0  # atno 17371 bound_to 10713
  140.1567  134.9194  157.2662 LP  0  0  0  0  0  0  0  0  0  0  0  0  # atno 17394 bound_to 11000
  140.2659  134.3516  155.7390 LP  0  0  0  0  0  0  0  0  0  0  0  0  # atno 17395 bound_to 11000

$$$$
