AV-unprocessed.smi:3176|AV-procd|sdf|12127|dock7
  -GOLD-   2272017563D 1   1.00000     0.00000
 Structure written by MMmdl.
 33 34  0  0  0  0  0  0  0  0  2 V2000
  153.4384  138.9237  155.5710 O   0  0  0  0  0  0  0  0  0  0  0  0
  152.5842  138.7180  156.4333 C   0  0  0  0  0  0  0  0  0  0  0  0
  151.5345  139.5319  156.6257 N   0  0  0  0  0  0  0  0  0  0  0  0
  151.2964  140.7850  155.9161 C   0  0  0  0  0  0  0  0  0  0  0  0
  150.3440  141.7305  156.6773 C   0  0  0  0  0  0  0  0  0  0  0  0
  151.0644  142.7394  157.5557 C   0  0  0  0  0  0  0  0  0  0  0  0
  152.0153  142.3477  158.5236 C   0  0  0  0  0  0  0  0  0  0  0  0
  152.6327  143.3325  159.3217 C   0  0  0  0  0  0  0  0  0  0  0  0
  152.2892  144.6874  159.1339 C   0  0  0  0  0  0  0  0  0  0  0  0
  151.3359  145.0232  158.1507 C   0  0  0  0  0  0  0  0  0  0  0  0
  150.7653  144.0501  157.4067 N   0  3  0  0  0  0  0  0  0  0  0  0
  152.6760  137.4987  157.3669 C   0  0  1  0  0  0  0  0  0  0  0  0
  151.5170  137.3764  158.3696 C   0  0  0  0  0  0  0  0  0  0  0  0
  150.5179  136.5234  157.6193 C   0  0  0  0  0  0  0  0  0  0  0  0
  151.4413  135.5556  156.8911 C   0  0  0  0  0  0  0  0  0  0  0  0
  152.6066  136.3106  156.5719 O   0  0  0  0  0  0  0  0  0  0  0  0
  150.8735  139.2807  157.3472 H   0  0  0  0  0  0  0  0  0  0  0  0
  152.2416  141.2856  155.7010 H   0  0  0  0  0  0  0  0  0  0  0  0
  150.8571  140.5294  154.9517 H   0  0  0  0  0  0  0  0  0  0  0  0
  149.7195  142.2715  155.9652 H   0  0  0  0  0  0  0  0  0  0  0  0
  149.6582  141.1462  157.2920 H   0  0  0  0  0  0  0  0  0  0  0  0
  152.2621  141.3046  158.6598 H   0  0  0  0  0  0  0  0  0  0  0  0
  153.3586  143.0513  160.0705 H   0  0  0  0  0  0  0  0  0  0  0  0
  152.7498  145.4576  159.7354 H   0  0  0  0  0  0  0  0  0  0  0  0
  151.0131  146.0324  157.9402 H   0  0  0  0  0  0  0  0  0  0  0  0
  153.6321  137.5394  157.8895 H   0  0  0  0  0  0  0  0  0  0  0  0
  151.8584  136.8483  159.2607 H   0  0  0  0  0  0  0  0  0  0  0  0
  151.0958  138.3266  158.6998 H   0  0  0  0  0  0  0  0  0  0  0  0
  149.8042  136.0219  158.2732 H   0  0  0  0  0  0  0  0  0  0  0  0
  149.9618  137.1313  156.9048 H   0  0  0  0  0  0  0  0  0  0  0  0
  151.7274  134.7354  157.5507 H   0  0  0  0  0  0  0  0  0  0  0  0
  150.9834  135.1299  155.9982 H   0  0  0  0  0  0  0  0  0  0  0  0
  150.0755  144.3157  156.7035 H   0  0  0  0  0  0  0  0  0  0  0  0
  1  2  2  0  0  0  0
  2  3  1  0  0  0  0
  2 12  1  0  0  0  0
  3  4  1  0  0  0  0
  3 17  1  0  0  0  0
  4  5  1  0  0  0  0
  4 18  1  0  0  0  0
  4 19  1  0  0  0  0
  5  6  1  0  0  0  0
  5 20  1  0  0  0  0
  5 21  1  0  0  0  0
  6 11  1  0  0  0  0
  6  7  2  0  0  0  0
  7  8  1  0  0  0  0
  7 22  1  0  0  0  0
  8  9  2  0  0  0  0
  8 23  1  0  0  0  0
  9 10  1  0  0  0  0
  9 24  1  0  0  0  0
 10 11  2  0  0  0  0
 10 25  1  0  0  0  0
 11 33  1  0  0  0  0
 12 16  1  0  0  0  0
 12 13  1  0  0  0  0
 12 26  1  0  0  0  0
 13 14  1  0  0  0  0
 13 27  1  0  0  0  0
 13 28  1  0  0  0  0
 14 15  1  0  0  0  0
 14 29  1  0  0  0  0
 14 30  1  0  0  0  0
 15 16  1  0  0  0  0
 15 31  1  0  0  0  0
 15 32  1  0  0  0  0
M  CHG  1  11   1
M  END
> <s_m_source_file>
AV-unprocessed.smi

> <i_m_source_file_index>
3176

> <i_lp_mmshare_version>
43012

> <i_f3d_flags>
0

> <s_epik_input>
TzFbQ0gyXVtDSDJdW0NIMl1bQ0BIXTFDKD1PKVtOSF1bQ0gyXVtDSDJdYzJbY0hdW2NIXVtjSF1bY0hdbjI=

> <s_epik_cmdline>
J2VwaWtfcHl0aG9uJywgJy1waCcsICc3LjAnLCAnLXRuJywgJzgnLCAnLW1hJywgJzIwMCcsICctbWV0YWxfYmluZGluZycsICctaW1hZScsICc8aW5maWxlLm1hZT4nLCAnLW9tYWUnLCAnPG91dGZpbGUubWFlPic=

> <r_epik_Ionization_Penalty>
1.81664

> <r_epik_Ionization_Penalty_Charging>
1.81664

> <r_epik_Ionization_Penalty_Neutral>
5.71603e-08

> <r_epik_State_Penalty>
1.93152

> <r_epik_Charging_Adjusted_Penalty>
3.74817

> <i_epik_Tot_Q>
1

> <i_epik_Tot_abs_Q>
1

> <r_epik_Metal_State_Penalty>
1.95876

> <b_epik_Metal_Only>
0

> <s_lp_Force_Field>
OPLS_2005

> <r_lp_Energy>
22.6844

> <b_lp_Chiralities_Consistent>
1

> <s_lp_Variant>
AV-unprocessed.smi:3176-4

> <Gold.Version>
5.8.1

> <Gold.Id.Protein>
6NUR|6NUR_protein|mol2

> <Gold.PLP.Fitness>
43.0232

> <Gold.PLP.PLP>
-31.8459

> <Gold.PLP.part.hbond>
-3.0000

> <Gold.PLP.part.metal>
0.0000

> <Gold.PLP.part.buried>
-4.9511

> <Gold.PLP.part.nonpolar>
-23.5128

> <Gold.PLP.part.repulsive>
0.1148

> <Gold.PLP.ligand.clash>
0.0000

> <Gold.PLP.ligand.torsion>
0.4225

> <Gold.PLP.Chemscore.Hbond>
4.0000

> <Gold.PLP.Chemscore.CHOScore>
0.0000

> <Gold.PLP.Chemscore.Metal>
0.0000

> <Gold.Chemscore.Hbonds>
donor molecule, donor type, donor heavy atom, donor atom, acceptor molecule, acceptor atom, score
      L1  H    11    33       P1  8028  2.00
      P1  H  7997  8010       L1     1  0.99
      P1  H 10752 10765       L1    16  1.00

> <Gold.PLP.Chemscore.Internal.Correction>
0.0223

> <Gold.Rescore>
     Score         DG    S(hbond)    S(metal)    S(lipo)     H(rot)  DE(clash)    DE(int)     intcor
     20.29     -20.75       2.82        0.00      85.15       1.61       0.01       0.45       ----

> <Gold.Chemscore.Fitness>
20.2870

> <Gold.Chemscore.DG>
-20.7512

> <Gold.Chemscore.ZeroCoef>
-5.4800

> <Gold.Chemscore.Hbond>
2.8197

> <Gold.Chemscore.Metal>
0.0000

> <Gold.Chemscore.Lipo>
85.1541

> <Gold.Chemscore.Internal_Hbond>
0.0000

> <Gold.Chemscore.DEClash>
0.0149

> <Gold.Chemscore.DEInternal>
0.4493

> <Gold.Chemscore.Rot>
1.6054

> <Gold.Chemscore.Internal.Correction>
   9.000000E+99

> <Gold.Chemscore.Hbonds>
donor molecule, donor type, donor heavy atom, donor atom, acceptor molecule, acceptor atom, score
      L1  H    11    33       P1  8028  0.95
      P1  H  7997  8010       L1     1  0.46
      P1  H 10752 10765       L1    16  0.34

> <Gold.Chemscore.Hbond.Weighted>
-9.4179

> <Gold.Chemscore.Metal.Weighted>
-0.0000

> <Gold.Chemscore.Lipo.Weighted>
-9.9630

> <Gold.Chemscore.Internal_Hbond.Weighted>
0.0000

> <Gold.Chemscore.DEClash.Weighted>
0.0149

> <Gold.Chemscore.DEInternal.Weighted>
0.4493

> <Gold.Chemscore.Rot.Weighted>
4.1097

> <Gold.Chemscore.Internal.Correction.Weighted>
   9.000000E+99

> <Gold.Protein.RotatedTorsions>
[ 6907 6896 6895 6894 ] final  -16.00 input  -60.11 | X-H torsion
[ 7974 7965 7964 7962 ] final -104.13 input  175.53 | X-H torsion
[ 8008 7997 7996 7995 ] final   86.24 input   59.86 | X-H torsion
[ 10167 10162 10161 10158 ] final    3.97 input  -65.29 | X-H torsion
[ 10718 10713 10712 10709 ] final  -73.52 input   66.30 | X-H torsion
[ 10763 10752 10751 10750 ] final -145.50 input  -60.55 | X-H torsion
[ 11005 11000 10999 10996 ] final  104.83 input  -57.11 | X-H torsion

> <Gold.Protein.ActiveResidues>
 VAL166  LYS551  ARG553  GLY616  TRP617  ASP618  TYR619  PRO620  LYS621  CYS622 
 ASP623  PHE694  ASN695  SER759  ASP760  ASP761  ALA762  ILE779  LEU786  VAL792 
 PHE793  MET794  SER795  GLU796  ALA797  LYS798  CYS799  TRP800  GLU811  SER814 

> <Gold.Protein.RotatedAtoms>
  151.3154  135.0805  159.9286 H   0  0  0  0  0  0  0  0  0  0  0  0  # atno 6907 bound_to 6896
  152.5268  133.9693  159.7765 H   0  0  0  0  0  0  0  0  0  0  0  0  # atno 6908 bound_to 6896
  151.0004  133.6009  159.2726 H   0  0  0  0  0  0  0  0  0  0  0  0  # atno 6909 bound_to 6896
  145.2471  140.9225  143.3116 H   0  0  0  0  0  0  0  0  0  0  0  0  # atno 7974 bound_to 7965
  155.9602  140.3394  155.6484 H   0  0  0  0  0  0  0  0  0  0  0  0  # atno 8008 bound_to 7997
  155.6808  140.0737  157.2504 H   0  0  0  0  0  0  0  0  0  0  0  0  # atno 8009 bound_to 7997
  154.4141  140.1675  156.1967 H   0  0  0  0  0  0  0  0  0  0  0  0  # atno 8010 bound_to 7997
  140.6558  143.7430  150.7652 H   0  0  0  0  0  0  0  0  0  0  0  0  # atno 10167 bound_to 10162
  156.0277  130.4396  150.2755 H   0  0  0  0  0  0  0  0  0  0  0  0  # atno 10718 bound_to 10713
  154.8380  135.3411  154.6514 H   0  0  0  0  0  0  0  0  0  0  0  0  # atno 10763 bound_to 10752
  153.7127  135.6963  153.5037 H   0  0  0  0  0  0  0  0  0  0  0  0  # atno 10764 bound_to 10752
  153.2439  135.4375  155.0681 H   0  0  0  0  0  0  0  0  0  0  0  0  # atno 10765 bound_to 10752
  139.8796  134.9314  156.5421 H   0  0  0  0  0  0  0  0  0  0  0  0  # atno 11005 bound_to 11000
  144.9536  139.4056  143.6390 LP  0  0  0  0  0  0  0  0  0  0  0  0  # atno 17320 bound_to 7965
  146.3313  139.8555  142.8865 LP  0  0  0  0  0  0  0  0  0  0  0  0  # atno 17321 bound_to 7965
  140.1089  143.4718  152.2382 LP  0  0  0  0  0  0  0  0  0  0  0  0  # atno 17342 bound_to 10162
  139.5781  144.7497  151.3712 LP  0  0  0  0  0  0  0  0  0  0  0  0  # atno 17343 bound_to 10162
  157.0858  131.0156  151.3140 LP  0  0  0  0  0  0  0  0  0  0  0  0  # atno 17370 bound_to 10713
  157.4892  130.7812  149.7491 LP  0  0  0  0  0  0  0  0  0  0  0  0  # atno 17371 bound_to 10713
  140.8302  133.8284  155.8977 LP  0  0  0  0  0  0  0  0  0  0  0  0  # atno 17394 bound_to 11000
  140.9335  134.1991  157.4847 LP  0  0  0  0  0  0  0  0  0  0  0  0  # atno 17395 bound_to 11000

$$$$
