AV-unprocessed.smi:1239|AV-procd|sdf|5188|dock8
  -GOLD-   22720 4273D 1   1.00000     0.00000
 Structure written by MMmdl.
 47 48  0  0  0  0  0  0  0  0  1 V2000
  155.1962  142.6228  167.6114 C   0  0  0  0  0  0  0  0  0  0  0  0
  155.2416  141.0754  167.5306 C   0  0  1  0  0  0  0  0  0  0  0  0
  156.1841  140.6592  166.3631 C   0  0  0  0  0  0  0  0  0  0  0  0
  155.5007  140.5297  165.0787 N   0  0  0  0  0  0  0  0  0  0  0  0
  154.9680  141.5446  164.3836 C   0  0  0  0  0  0  0  0  0  0  0  0
  154.9838  142.7130  164.7699 O   0  0  0  0  0  0  0  0  0  0  0  0
  154.4149  141.1091  163.2388 N   0  0  0  0  0  0  0  0  0  0  0  0
  153.7716  141.8626  162.2199 C   0  0  0  0  0  0  0  0  0  0  0  0
  153.6348  141.4415  160.8773 C   0  0  0  0  0  0  0  0  0  0  0  0
  152.9580  142.2739  159.9651 C   0  0  0  0  0  0  0  0  0  0  0  0
  152.4250  143.5081  160.4128 C   0  0  0  0  0  0  0  0  0  0  0  0
  151.7397  144.3784  159.5345 N   0  0  0  0  0  0  0  0  0  0  0  0
  151.8389  144.1788  158.0923 C   0  0  0  0  0  0  0  0  0  0  0  0
  150.8556  145.4088  160.0648 C   0  0  0  0  0  0  0  0  0  0  0  0
  152.5483  143.8986  161.7052 N   0  0  0  0  0  0  0  0  0  0  0  0
  153.1969  143.0980  162.5757 C   0  0  0  0  0  0  0  0  0  0  0  0
  155.5969  140.4460  168.8241 N   0  0  0  0  0  0  0  0  0  0  0  0
  155.0662  141.1807  169.9787 C   0  0  0  0  0  0  0  0  0  0  0  0
  155.4635  140.5485  171.3242 C   0  0  0  0  0  0  0  0  0  0  0  0
  156.8784  140.4550  171.4128 O   0  0  0  0  0  0  0  0  0  0  0  0
  157.4283  139.6834  170.3543 C   0  0  0  0  0  0  0  0  0  0  0  0
  157.0475  140.3125  169.0031 C   0  0  0  0  0  0  0  0  0  0  0  0
  154.9804  143.0842  166.6486 H   0  0  0  0  0  0  0  0  0  0  0  0
  156.1462  143.0267  167.9627 H   0  0  0  0  0  0  0  0  0  0  0  0
  154.4113  142.9798  168.2764 H   0  0  0  0  0  0  0  0  0  0  0  0
  154.2368  140.7429  167.2655 H   0  0  0  0  0  0  0  0  0  0  0  0
  156.9810  141.3947  166.2496 H   0  0  0  0  0  0  0  0  0  0  0  0
  156.6718  139.7040  166.5526 H   0  0  0  0  0  0  0  0  0  0  0  0
  155.4368  139.6003  164.6898 H   0  0  0  0  0  0  0  0  0  0  0  0
  154.4133  140.1091  163.1008 H   0  0  0  0  0  0  0  0  0  0  0  0
  154.0196  140.4956  160.5295 H   0  0  0  0  0  0  0  0  0  0  0  0
  152.8582  141.9451  158.9418 H   0  0  0  0  0  0  0  0  0  0  0  0
  151.4539  143.1968  157.8156 H   0  0  0  0  0  0  0  0  0  0  0  0
  152.8769  144.2500  157.7654 H   0  0  0  0  0  0  0  0  0  0  0  0
  151.2662  144.9284  157.5461 H   0  0  0  0  0  0  0  0  0  0  0  0
  151.4164  146.1167  160.6756 H   0  0  0  0  0  0  0  0  0  0  0  0
  150.0701  144.9636  160.6762 H   0  0  0  0  0  0  0  0  0  0  0  0
  150.3744  145.9703  159.2639 H   0  0  0  0  0  0  0  0  0  0  0  0
  153.2614  143.4607  163.5913 H   0  0  0  0  0  0  0  0  0  0  0  0
  155.4099  142.2158  169.9489 H   0  0  0  0  0  0  0  0  0  0  0  0
  153.9790  141.2058  169.9538 H   0  0  0  0  0  0  0  0  0  0  0  0
  155.0955  141.1568  172.1506 H   0  0  0  0  0  0  0  0  0  0  0  0
  155.0175  139.5585  171.4328 H   0  0  0  0  0  0  0  0  0  0  0  0
  158.5122  139.6515  170.4645 H   0  0  0  0  0  0  0  0  0  0  0  0
  157.0695  138.6548  170.4166 H   0  0  0  0  0  0  0  0  0  0  0  0
  157.4752  139.6807  168.2266 H   0  0  0  0  0  0  0  0  0  0  0  0
  157.5224  141.2909  168.9140 H   0  0  0  0  0  0  0  0  0  0  0  0
  1  2  1  0  0  0  0
  1 23  1  0  0  0  0
  1 24  1  0  0  0  0
  1 25  1  0  0  0  0
  2  3  1  0  0  0  0
  2 17  1  0  0  0  0
  2 26  1  0  0  0  0
  3  4  1  0  0  0  0
  3 27  1  0  0  0  0
  3 28  1  0  0  0  0
  4  5  1  0  0  0  0
  4 29  1  0  0  0  0
  5  6  2  0  0  0  0
  5  7  1  0  0  0  0
  7  8  1  0  0  0  0
  7 30  1  0  0  0  0
  8 16  1  0  0  0  0
  8  9  2  0  0  0  0
  9 10  1  0  0  0  0
  9 31  1  0  0  0  0
 10 11  2  0  0  0  0
 10 32  1  0  0  0  0
 11 12  1  0  0  0  0
 11 15  1  0  0  0  0
 12 13  1  0  0  0  0
 12 14  1  0  0  0  0
 13 33  1  0  0  0  0
 13 34  1  0  0  0  0
 13 35  1  0  0  0  0
 14 36  1  0  0  0  0
 14 37  1  0  0  0  0
 14 38  1  0  0  0  0
 15 16  2  0  0  0  0
 16 39  1  0  0  0  0
 17 22  1  0  0  0  0
 17 18  1  0  0  0  0
 18 19  1  0  0  0  0
 18 40  1  0  0  0  0
 18 41  1  0  0  0  0
 19 20  1  0  0  0  0
 19 42  1  0  0  0  0
 19 43  1  0  0  0  0
 20 21  1  0  0  0  0
 21 22  1  0  0  0  0
 21 44  1  0  0  0  0
 21 45  1  0  0  0  0
 22 46  1  0  0  0  0
 22 47  1  0  0  0  0
M  END
> <s_m_source_file>
AV-unprocessed.smi

> <i_m_source_file_index>
1239

> <i_lp_mmshare_version>
43012

> <i_f3d_flags>
0

> <s_epik_input>
W0NIMl0xW0NIMl1PW0NIMl1bQ0gyXU4xW0NASF0oW0NIM10pW0NIMl1bTkhdQyg9TylbTkhdYzJbY0hdW2NIXWMoTihbQ0gzXSlbQ0gzXSluW2NIXTI=

> <s_epik_cmdline>
J2VwaWtfcHl0aG9uJywgJy1waCcsICc3LjAnLCAnLXRuJywgJzgnLCAnLW1hJywgJzIwMCcsICctbWV0YWxfYmluZGluZycsICctaW1hZScsICc8aW5maWxlLm1hZT4nLCAnLW9tYWUnLCAnPG91dGZpbGUubWFlPic=

> <r_lp_tautomer_probability>
1

> <r_epik_Ionization_Penalty>
0.87526

> <r_epik_Ionization_Penalty_Charging>
0

> <r_epik_Ionization_Penalty_Neutral>
0.87526

> <r_epik_State_Penalty>
0.859346

> <r_epik_Charging_Adjusted_Penalty>
0.859346

> <i_epik_Tot_Q>
0

> <i_epik_Tot_abs_Q>
0

> <r_epik_Metal_State_Penalty>
0.538105

> <b_epik_Metal_Only>
0

> <s_lp_Force_Field>
OPLS_2005

> <r_lp_Energy>
32.4423

> <b_lp_Chiralities_Consistent>
1

> <s_lp_Variant>
AV-unprocessed.smi:1239-4

> <Gold.Version>
5.8.1

> <Gold.Id.Protein>
6NUR|6NUR_protein|mol2

> <Gold.PLP.Fitness>
42.8945

> <Gold.PLP.PLP>
-45.3281

> <Gold.PLP.part.hbond>
-1.7512

> <Gold.PLP.part.metal>
0.0000

> <Gold.PLP.part.buried>
-4.4785

> <Gold.PLP.part.nonpolar>
-38.1526

> <Gold.PLP.part.repulsive>
0.3575

> <Gold.PLP.ligand.clash>
0.0000

> <Gold.PLP.ligand.torsion>
1.2465

> <Gold.PLP.Chemscore.Hbond>
0.0000

> <Gold.PLP.Chemscore.CHOScore>
0.0000

> <Gold.PLP.Chemscore.Metal>
0.0000

> <Gold.PLP.Chemscore.Internal.Correction>
0.0594

> <Gold.Rescore>
     Score         DG    S(hbond)    S(metal)    S(lipo)     H(rot)  DE(clash)    DE(int)     intcor
      8.87     -12.30       0.00        0.00      89.71       1.44       0.17       3.25       ----

> <Gold.Chemscore.Fitness>
8.8746

> <Gold.Chemscore.DG>
-12.2970

> <Gold.Chemscore.ZeroCoef>
-5.4800

> <Gold.Chemscore.Hbond>
0.0000

> <Gold.Chemscore.Metal>
0.0000

> <Gold.Chemscore.Lipo>
89.7061

> <Gold.Chemscore.Internal_Hbond>
0.0000

> <Gold.Chemscore.DEClash>
0.1714

> <Gold.Chemscore.DEInternal>
3.2511

> <Gold.Chemscore.Rot>
1.4370

> <Gold.Chemscore.Internal.Correction>
   9.000000E+99

> <Gold.Chemscore.Hbond.Weighted>
-0.0000

> <Gold.Chemscore.Metal.Weighted>
-0.0000

> <Gold.Chemscore.Lipo.Weighted>
-10.4956

> <Gold.Chemscore.Internal_Hbond.Weighted>
0.0000

> <Gold.Chemscore.DEClash.Weighted>
0.1714

> <Gold.Chemscore.DEInternal.Weighted>
3.2511

> <Gold.Chemscore.Rot.Weighted>
3.6786

> <Gold.Chemscore.Internal.Correction.Weighted>
   9.000000E+99

> <Gold.Protein.RotatedTorsions>
[ 6907 6896 6895 6894 ] final  108.72 input  -60.11 | X-H torsion
[ 7974 7965 7964 7962 ] final -162.06 input  175.53 | X-H torsion
[ 8008 7997 7996 7995 ] final  144.40 input   59.86 | X-H torsion
[ 10167 10162 10161 10158 ] final  -16.82 input  -65.29 | X-H torsion
[ 10718 10713 10712 10709 ] final -100.36 input   66.30 | X-H torsion
[ 10763 10752 10751 10750 ] final  -16.32 input  -60.55 | X-H torsion
[ 11005 11000 10999 10996 ] final    6.28 input  -57.11 | X-H torsion

> <Gold.Protein.ActiveResidues>
 VAL166  LYS551  ARG553  GLY616  TRP617  ASP618  TYR619  PRO620  LYS621  CYS622 
 ASP623  PHE694  ASN695  SER759  ASP760  ASP761  ALA762  ILE779  LEU786  VAL792 
 PHE793  MET794  SER795  GLU796  ALA797  LYS798  CYS799  TRP800  GLU811  SER814 

> <Gold.Protein.RotatedAtoms>
  152.5100  133.9048  159.7458 H   0  0  0  0  0  0  0  0  0  0  0  0  # atno 6907 bound_to 6896
  150.9455  133.6599  159.2789 H   0  0  0  0  0  0  0  0  0  0  0  0  # atno 6908 bound_to 6896
  151.3896  135.0958  159.9574 H   0  0  0  0  0  0  0  0  0  0  0  0  # atno 6909 bound_to 6896
  144.7370  140.3307  143.6153 H   0  0  0  0  0  0  0  0  0  0  0  0  # atno 7974 bound_to 7965
  156.2909  140.2237  156.5047 H   0  0  0  0  0  0  0  0  0  0  0  0  # atno 8008 bound_to 7997
  154.7660  140.0470  157.1034 H   0  0  0  0  0  0  0  0  0  0  0  0  # atno 8009 bound_to 7997
  154.9932  140.3092  155.4901 H   0  0  0  0  0  0  0  0  0  0  0  0  # atno 8010 bound_to 7997
  140.7239  143.5077  150.9789 H   0  0  0  0  0  0  0  0  0  0  0  0  # atno 10167 bound_to 10162
  156.0161  130.5324  150.6805 H   0  0  0  0  0  0  0  0  0  0  0  0  # atno 10718 bound_to 10713
  153.5567  135.7010  153.5566 H   0  0  0  0  0  0  0  0  0  0  0  0  # atno 10763 bound_to 10752
  153.3466  135.4006  155.1613 H   0  0  0  0  0  0  0  0  0  0  0  0  # atno 10764 bound_to 10752
  154.8654  135.3755  154.5082 H   0  0  0  0  0  0  0  0  0  0  0  0  # atno 10765 bound_to 10752
  140.5612  134.0190  155.7972 H   0  0  0  0  0  0  0  0  0  0  0  0  # atno 11005 bound_to 11000
  145.7475  139.1783  143.2341 LP  0  0  0  0  0  0  0  0  0  0  0  0  # atno 17320 bound_to 7965
  146.1087  140.7455  142.9514 LP  0  0  0  0  0  0  0  0  0  0  0  0  # atno 17321 bound_to 7965
  139.8790  143.7096  152.3159 LP  0  0  0  0  0  0  0  0  0  0  0  0  # atno 17342 bound_to 10162
  139.7372  144.7568  151.0709 LP  0  0  0  0  0  0  0  0  0  0  0  0  # atno 17343 bound_to 10162
  157.4508  131.0872  151.0848 LP  0  0  0  0  0  0  0  0  0  0  0  0  # atno 17370 bound_to 10713
  157.1364  130.6124  149.5543 LP  0  0  0  0  0  0  0  0  0  0  0  0  # atno 17371 bound_to 10713
  141.1113  133.9612  157.2905 LP  0  0  0  0  0  0  0  0  0  0  0  0  # atno 17394 bound_to 11000
  139.9407  135.0191  156.8698 LP  0  0  0  0  0  0  0  0  0  0  0  0  # atno 17395 bound_to 11000

$$$$
