AV-unprocessed.smi:1831|AV-procd|sdf|7462|dock3
  -GOLD-   22720 9153D 1   1.00000     0.00000
 Structure written by MMmdl.
 40 41  0  0  0  0  0  0  0  0  3 V2000
  152.8192  141.1140  159.3920 C   0  0  0  0  0  0  0  0  0  0  0  0
  152.3376  140.7928  158.0188 C   0  0  0  0  0  0  0  0  0  0  0  0
  152.8229  139.7746  157.3046 N   0  0  0  0  0  0  0  0  0  0  0  0
  152.2174  139.6732  156.0607 N   0  0  0  0  0  0  0  0  0  0  0  0
  151.2913  140.6186  155.8479 C   0  0  0  0  0  0  0  0  0  0  0  0
  150.5888  140.6947  154.7054 N   0  5  0  0  0  0  0  0  0  0  0  0
  149.4473  139.9845  154.5665 C   0  0  0  0  0  0  0  0  0  0  0  0
  149.2790  138.8042  154.8816 O   0  0  0  0  0  0  0  0  0  0  0  0
  148.4428  140.6812  154.0154 N   0  0  0  0  0  0  0  0  0  0  0  0
  147.1051  140.1781  153.7163 C   0  0  0  0  0  0  0  0  0  0  0  0
  147.1519  138.9315  152.8126 C   0  0  2  0  0  0  0  0  0  0  0  0
  146.6264  139.1709  151.3990 C   0  0  0  0  0  0  0  0  0  0  0  0
  146.1703  137.7896  150.9095 C   0  0  0  0  0  0  0  0  0  0  0  0
  146.1407  136.8926  152.0922 N   0  3  2  0  0  0  0  0  0  0  0  0
  145.0007  135.9340  152.1359 C   0  0  0  0  0  0  0  0  0  0  0  0
  144.8899  135.1195  150.8324 C   0  0  0  0  0  0  0  0  0  0  0  0
  143.6716  136.6658  152.4007 C   0  0  0  0  0  0  0  0  0  0  0  0
  146.2918  137.7576  153.2808 C   0  0  0  0  0  0  0  0  0  0  0  0
  151.0827  141.7177  157.2110 S   0  0  0  0  0  0  0  0  0  0  0  0
  152.4540  140.3689  160.0988 H   0  0  0  0  0  0  0  0  0  0  0  0
  152.4595  142.0957  159.7003 H   0  0  0  0  0  0  0  0  0  0  0  0
  153.9090  141.1187  159.4172 H   0  0  0  0  0  0  0  0  0  0  0  0
  148.6281  141.6458  153.7813 H   0  0  0  0  0  0  0  0  0  0  0  0
  146.5540  139.9711  154.6352 H   0  0  0  0  0  0  0  0  0  0  0  0
  146.5599  140.9742  153.2091 H   0  0  0  0  0  0  0  0  0  0  0  0
  148.1852  138.5881  152.7365 H   0  0  0  0  0  0  0  0  0  0  0  0
  145.7695  139.8458  151.4272 H   0  0  0  0  0  0  0  0  0  0  0  0
  147.3769  139.6188  150.7471 H   0  0  0  0  0  0  0  0  0  0  0  0
  145.1900  137.8732  150.4375 H   0  0  0  0  0  0  0  0  0  0  0  0
  146.8613  137.3823  150.1707 H   0  0  0  0  0  0  0  0  0  0  0  0
  145.1769  135.2353  152.9555 H   0  0  0  0  0  0  0  0  0  0  0  0
  144.0218  134.4600  150.8565 H   0  0  0  0  0  0  0  0  0  0  0  0
  145.7611  134.4844  150.6711 H   0  0  0  0  0  0  0  0  0  0  0  0
  144.7843  135.7714  149.9645 H   0  0  0  0  0  0  0  0  0  0  0  0
  142.8365  135.9648  152.4147 H   0  0  0  0  0  0  0  0  0  0  0  0
  143.4674  137.4063  151.6265 H   0  0  0  0  0  0  0  0  0  0  0  0
  143.6690  137.1796  153.3620 H   0  0  0  0  0  0  0  0  0  0  0  0
  146.7487  137.2210  154.1129 H   0  0  0  0  0  0  0  0  0  0  0  0
  145.3110  138.1150  153.5997 H   0  0  0  0  0  0  0  0  0  0  0  0
  146.9879  136.3444  152.0474 H   0  0  0  0  0  0  0  0  0  0  0  0
  1  2  1  0  0  0  0
  1 20  1  0  0  0  0
  1 21  1  0  0  0  0
  1 22  1  0  0  0  0
  2 19  1  0  0  0  0
  2  3  2  0  0  0  0
  3  4  1  0  0  0  0
  4  5  2  0  0  0  0
  5  6  1  0  0  0  0
  5 19  1  0  0  0  0
  6  7  1  0  0  0  0
  7  8  2  0  0  0  0
  7  9  1  0  0  0  0
  9 10  1  0  0  0  0
  9 23  1  0  0  0  0
 10 11  1  0  0  0  0
 10 24  1  0  0  0  0
 10 25  1  0  0  0  0
 11 18  1  0  0  0  0
 11 12  1  0  0  0  0
 11 26  1  0  0  0  0
 12 13  1  0  0  0  0
 12 27  1  0  0  0  0
 12 28  1  0  0  0  0
 13 14  1  0  0  0  0
 13 29  1  0  0  0  0
 13 30  1  0  0  0  0
 14 15  1  0  0  0  0
 14 18  1  0  0  0  0
 14 40  1  0  0  0  0
 15 16  1  0  0  0  0
 15 17  1  0  0  0  0
 15 31  1  0  0  0  0
 16 32  1  0  0  0  0
 16 33  1  0  0  0  0
 16 34  1  0  0  0  0
 17 35  1  0  0  0  0
 17 36  1  0  0  0  0
 17 37  1  0  0  0  0
 18 38  1  0  0  0  0
 18 39  1  0  0  0  0
M  CHG  1   6  -1
M  CHG  1  14   1
M  END
> <s_m_source_file>
AV-unprocessed.smi

> <i_m_source_file_index>
1831

> <i_lp_mmshare_version>
43012

> <i_f3d_flags>
0

> <s_epik_input>
W0NIM11jMW5uYyhzMSlbTkhdQyg9TylbTkhdW0NIMl1bQ0BASF0yW0NIMl1bQ0gyXU4oW0NIMl0yKVtDSF0oW0NIM10pW0NIM10=

> <s_epik_cmdline>
J2VwaWtfcHl0aG9uJywgJy1waCcsICc3LjAnLCAnLXRuJywgJzgnLCAnLW1hJywgJzIwMCcsICctbWV0YWxfYmluZGluZycsICctaW1hZScsICc8aW5maWxlLm1hZT4nLCAnLW9tYWUnLCAnPG91dGZpbGUubWFlPic=

> <r_lp_tautomer_probability>
1

> <r_epik_Ionization_Penalty>
4.24531

> <r_epik_Ionization_Penalty_Charging>
4.11954

> <r_epik_Ionization_Penalty_Neutral>
0.125766

> <r_epik_State_Penalty>
4.11879

> <r_epik_Charging_Adjusted_Penalty>
8.23833

> <i_epik_Tot_Q>
0

> <i_epik_Tot_abs_Q>
2

> <r_epik_Metal_State_Penalty>
0.659341

> <b_epik_Metal_Only>
1

> <s_lp_Force_Field>
OPLS_2005

> <r_lp_Energy>
22.0207

> <b_lp_Chiralities_Consistent>
1

> <s_lp_Variant>
AV-unprocessed.smi:1831-7

> <Gold.Version>
5.8.1

> <Gold.Id.Protein>
6NUR|6NUR_protein|mol2

> <Gold.PLP.Fitness>
40.6256

> <Gold.PLP.PLP>
-32.6592

> <Gold.PLP.part.hbond>
-3.8615

> <Gold.PLP.part.metal>
0.0000

> <Gold.PLP.part.buried>
3.5320

> <Gold.PLP.part.nonpolar>
-32.1850

> <Gold.PLP.part.repulsive>
0.3835

> <Gold.PLP.ligand.clash>
0.0000

> <Gold.PLP.ligand.torsion>
1.8654

> <Gold.PLP.Chemscore.Hbond>
3.8800

> <Gold.PLP.Chemscore.CHOScore>
0.0000

> <Gold.PLP.Chemscore.Metal>
0.0000

> <Gold.Chemscore.Hbonds>
donor molecule, donor type, donor heavy atom, donor atom, acceptor molecule, acceptor atom, score
      L1  H    14    40       P1  7948  2.00
      P1  H  7989  7998       L1     6  0.91
      P1  H  7997  8010       L1     3  1.00

> <Gold.PLP.Chemscore.Internal.Correction>
0.0571

> <Gold.Rescore>
     Score         DG    S(hbond)    S(metal)    S(lipo)     H(rot)  DE(clash)    DE(int)     intcor
     12.19     -16.68       1.85        0.00      76.01       1.51       1.54       2.95       ----

> <Gold.Chemscore.Fitness>
12.1915

> <Gold.Chemscore.DG>
-16.6806

> <Gold.Chemscore.ZeroCoef>
-5.4800

> <Gold.Chemscore.Hbond>
1.8507

> <Gold.Chemscore.Metal>
0.0000

> <Gold.Chemscore.Lipo>
76.0055

> <Gold.Chemscore.Internal_Hbond>
0.0000

> <Gold.Chemscore.DEClash>
1.5412

> <Gold.Chemscore.DEInternal>
2.9479

> <Gold.Chemscore.Rot>
1.5131

> <Gold.Chemscore.Internal.Correction>
   9.000000E+99

> <Gold.Chemscore.Hbonds>
donor molecule, donor type, donor heavy atom, donor atom, acceptor molecule, acceptor atom, score
      L1  H    14    40       P1  7948  0.94
      P1  H  7989  7998       L1     6  0.56
      P1  H  7997  8010       L1     3  0.29

> <Gold.Chemscore.Hbond.Weighted>
-6.1814

> <Gold.Chemscore.Metal.Weighted>
-0.0000

> <Gold.Chemscore.Lipo.Weighted>
-8.8926

> <Gold.Chemscore.Internal_Hbond.Weighted>
0.0000

> <Gold.Chemscore.DEClash.Weighted>
1.5412

> <Gold.Chemscore.DEInternal.Weighted>
2.9479

> <Gold.Chemscore.Rot.Weighted>
3.8735

> <Gold.Chemscore.Internal.Correction.Weighted>
   9.000000E+99

> <Gold.Protein.RotatedTorsions>
[ 6907 6896 6895 6894 ] final -168.28 input  -60.11 | X-H torsion
[ 7974 7965 7964 7962 ] final -130.54 input  175.53 | X-H torsion
[ 8008 7997 7996 7995 ] final   42.57 input   59.86 | X-H torsion
[ 10167 10162 10161 10158 ] final   88.87 input  -65.29 | X-H torsion
[ 10718 10713 10712 10709 ] final  -50.31 input   66.30 | X-H torsion
[ 10763 10752 10751 10750 ] final  -27.97 input  -60.55 | X-H torsion
[ 11005 11000 10999 10996 ] final  -23.49 input  -57.11 | X-H torsion

> <Gold.Protein.ActiveResidues>
 VAL166  LYS551  ARG553  GLY616  TRP617  ASP618  TYR619  PRO620  LYS621  CYS622 
 ASP623  PHE694  ASN695  SER759  ASP760  ASP761  ALA762  ILE779  LEU786  VAL792 
 PHE793  MET794  SER795  GLU796  ALA797  LYS798  CYS799  TRP800  GLU811  SER814 

> <Gold.Protein.RotatedAtoms>
  151.4731  133.3564  159.2826 H   0  0  0  0  0  0  0  0  0  0  0  0  # atno 6907 bound_to 6896
  150.8948  134.8357  159.7329 H   0  0  0  0  0  0  0  0  0  0  0  0  # atno 6908 bound_to 6896
  152.4844  134.4644  159.9667 H   0  0  0  0  0  0  0  0  0  0  0  0  # atno 6909 bound_to 6896
  144.9465  140.7297  143.4814 H   0  0  0  0  0  0  0  0  0  0  0  0  # atno 7974 bound_to 7965
  155.2883  140.3377  155.4254 H   0  0  0  0  0  0  0  0  0  0  0  0  # atno 8008 bound_to 7997
  156.2058  140.1750  156.7843 H   0  0  0  0  0  0  0  0  0  0  0  0  # atno 8009 bound_to 7997
  154.5619  140.0686  156.8816 H   0  0  0  0  0  0  0  0  0  0  0  0  # atno 8010 bound_to 7997
  139.8629  144.6534  150.9037 H   0  0  0  0  0  0  0  0  0  0  0  0  # atno 10167 bound_to 10162
  156.1812  130.4150  149.9504 H   0  0  0  0  0  0  0  0  0  0  0  0  # atno 10718 bound_to 10713
  153.7407  135.6932  153.4968 H   0  0  0  0  0  0  0  0  0  0  0  0  # atno 10763 bound_to 10752
  153.2071  135.4416  155.0335 H   0  0  0  0  0  0  0  0  0  0  0  0  # atno 10764 bound_to 10752
  154.8222  135.3427  154.6932 H   0  0  0  0  0  0  0  0  0  0  0  0  # atno 10765 bound_to 10752
  140.8756  133.7689  156.0240 H   0  0  0  0  0  0  0  0  0  0  0  0  # atno 11005 bound_to 11000
  145.2910  139.1883  143.4740 LP  0  0  0  0  0  0  0  0  0  0  0  0  # atno 17320 bound_to 7965
  146.3305  140.2887  142.8614 LP  0  0  0  0  0  0  0  0  0  0  0  0  # atno 17321 bound_to 7965
  140.7772  143.3728  151.1617 LP  0  0  0  0  0  0  0  0  0  0  0  0  # atno 17342 bound_to 10162
  139.7356  143.9004  152.3034 LP  0  0  0  0  0  0  0  0  0  0  0  0  # atno 17343 bound_to 10162
  156.7273  130.9030  151.3623 LP  0  0  0  0  0  0  0  0  0  0  0  0  # atno 17370 bound_to 10713
  157.6869  130.9195  150.0411 LP  0  0  0  0  0  0  0  0  0  0  0  0  # atno 17371 bound_to 10713
  140.8521  134.2941  157.5271 LP  0  0  0  0  0  0  0  0  0  0  0  0  # atno 17394 bound_to 11000
  139.8715  134.9473  156.3964 LP  0  0  0  0  0  0  0  0  0  0  0  0  # atno 17395 bound_to 11000

$$$$
