AV-unprocessed.smi:2773|AV-procd|sdf|10677|dock1
  -GOLD-   2272015123D 1   1.00000     0.00000
 Structure written by MMmdl.
 30 31  0  0  0  0  0  0  0  0  1 V2000
  147.8313  139.7768  155.9852 C   0  0  0  0  0  0  0  0  0  0  0  0
  148.2662  139.9764  154.5465 C   0  0  1  0  0  0  0  0  0  0  0  0
  147.7302  141.1258  153.7351 C   0  0  0  0  0  0  0  0  0  0  0  0
  149.1904  141.1067  154.1320 C   0  0  1  0  0  0  0  0  0  0  0  0
  149.6099  142.0620  155.1147 N   0  0  0  0  0  0  0  0  0  0  0  0
  150.4355  141.8677  156.1588 C   0  0  0  0  0  0  0  0  0  0  0  0
  150.9621  140.7736  156.3545 O   0  0  0  0  0  0  0  0  0  0  0  0
  150.6438  142.9651  156.9142 N   0  0  0  0  0  0  0  0  0  0  0  0
  151.4439  143.0947  158.0798 C   0  0  0  0  0  0  0  0  0  0  0  0
  151.4044  144.3655  158.6948 C   0  0  0  0  0  0  0  0  0  0  0  0
  152.1634  144.5949  159.8579 C   0  0  0  0  0  0  0  0  0  0  0  0
  152.9432  143.5472  160.3785 C   0  0  0  0  0  0  0  0  0  0  0  0
  152.9294  142.3059  159.7073 C   0  0  0  0  0  0  0  0  0  0  0  0
  153.7431  141.1196  160.2051 C   0  0  0  0  0  0  0  0  0  0  0  0
  153.7416  141.1002  161.5381 F   0  0  0  0  0  0  0  0  0  0  0  0
  153.2464  139.9621  159.7669 F   0  0  0  0  0  0  0  0  0  0  0  0
  155.0014  141.2265  159.7775 F   0  0  0  0  0  0  0  0  0  0  0  0
  152.1986  142.0907  158.5899 N   0  0  0  0  0  0  0  0  0  0  0  0
  147.6155  140.7301  156.4685 H   0  0  0  0  0  0  0  0  0  0  0  0
  148.6181  139.2721  156.5463 H   0  0  0  0  0  0  0  0  0  0  0  0
  146.9315  139.1626  156.0199 H   0  0  0  0  0  0  0  0  0  0  0  0
  148.4102  139.0404  154.0104 H   0  0  0  0  0  0  0  0  0  0  0  0
  147.4913  140.9331  152.6912 H   0  0  0  0  0  0  0  0  0  0  0  0
  147.0763  141.8379  154.2354 H   0  0  0  0  0  0  0  0  0  0  0  0
  149.8777  140.8948  153.3143 H   0  0  0  0  0  0  0  0  0  0  0  0
  149.2903  143.0085  154.9672 H   0  0  0  0  0  0  0  0  0  0  0  0
  150.1641  143.8035  156.6217 H   0  0  0  0  0  0  0  0  0  0  0  0
  150.7996  145.1601  158.2825 H   0  0  0  0  0  0  0  0  0  0  0  0
  152.1466  145.5597  160.3429 H   0  0  0  0  0  0  0  0  0  0  0  0
  153.5332  143.7003  161.2700 H   0  0  0  0  0  0  0  0  0  0  0  0
  1  2  1  0  0  0  0
  1 19  1  0  0  0  0
  1 20  1  0  0  0  0
  1 21  1  0  0  0  0
  2  4  1  0  0  0  0
  2  3  1  0  0  0  0
  2 22  1  0  0  0  0
  3  4  1  0  0  0  0
  3 23  1  0  0  0  0
  3 24  1  0  0  0  0
  4  5  1  0  0  0  0
  4 25  1  0  0  0  0
  5  6  1  0  0  0  0
  5 26  1  0  0  0  0
  6  7  2  0  0  0  0
  6  8  1  0  0  0  0
  8  9  1  0  0  0  0
  8 27  1  0  0  0  0
  9 18  1  0  0  0  0
  9 10  2  0  0  0  0
 10 11  1  0  0  0  0
 10 28  1  0  0  0  0
 11 12  2  0  0  0  0
 11 29  1  0  0  0  0
 12 13  1  0  0  0  0
 12 30  1  0  0  0  0
 13 14  1  0  0  0  0
 13 18  2  0  0  0  0
 14 15  1  0  0  0  0
 14 16  1  0  0  0  0
 14 17  1  0  0  0  0
M  END
> <s_m_source_file>
AV-unprocessed.smi

> <i_m_source_file_index>
2773

> <i_lp_mmshare_version>
43012

> <i_f3d_flags>
0

> <s_epik_input>
W0NIM11bQ0BASF0xW0NIMl1bQ0BIXTFbTkhdQyg9TylbTkhdYzJbY0hdW2NIXVtjSF1jKG4yKUMoRikoRilG

> <s_epik_cmdline>
J2VwaWtfcHl0aG9uJywgJy1waCcsICc3LjAnLCAnLXRuJywgJzgnLCAnLW1hJywgJzIwMCcsICctbWV0YWxfYmluZGluZycsICctaW1hZScsICc8aW5maWxlLm1hZT4nLCAnLW9tYWUnLCAnPG91dGZpbGUubWFlPic=

> <r_lp_tautomer_probability>
1

> <r_epik_Ionization_Penalty>
4.04275e-05

> <r_epik_Ionization_Penalty_Charging>
0

> <r_epik_Ionization_Penalty_Neutral>
4.04275e-05

> <r_epik_State_Penalty>
-0

> <r_epik_Charging_Adjusted_Penalty>
0

> <i_epik_Tot_Q>
0

> <i_epik_Tot_abs_Q>
0

> <r_epik_Metal_State_Penalty>
-0

> <b_epik_Metal_Only>
0

> <s_lp_Force_Field>
OPLS_2005

> <r_lp_Energy>
32.9292

> <b_lp_Chiralities_Consistent>
1

> <s_lp_Variant>
AV-unprocessed.smi:2773-2

> <Gold.Version>
5.8.1

> <Gold.Id.Protein>
6NUR|6NUR_protein|mol2

> <Gold.PLP.Fitness>
44.3535

> <Gold.PLP.PLP>
-40.5723

> <Gold.PLP.part.hbond>
-2.0000

> <Gold.PLP.part.metal>
0.0000

> <Gold.PLP.part.buried>
-4.5913

> <Gold.PLP.part.nonpolar>
-33.9632

> <Gold.PLP.part.repulsive>
0.2600

> <Gold.PLP.ligand.clash>
0.0000

> <Gold.PLP.ligand.torsion>
1.1315

> <Gold.PLP.Chemscore.Hbond>
2.0000

> <Gold.PLP.Chemscore.CHOScore>
0.0000

> <Gold.PLP.Chemscore.Metal>
0.0000

> <Gold.Chemscore.Hbonds>
donor molecule, donor type, donor heavy atom, donor atom, acceptor molecule, acceptor atom, score
      L1  H     5    26       P1  8028  1.00
      L1  H     8    27       P1  8028  1.00

> <Gold.PLP.Chemscore.Internal.Correction>
0.0443

> <Gold.Rescore>
     Score         DG    S(hbond)    S(metal)    S(lipo)     H(rot)  DE(clash)    DE(int)     intcor
     16.86     -18.72       1.96        0.00      79.02       1.00       0.02       1.84       ----

> <Gold.Chemscore.Fitness>
16.8612

> <Gold.Chemscore.DG>
-18.7196

> <Gold.Chemscore.ZeroCoef>
-5.4800

> <Gold.Chemscore.Hbond>
1.9623

> <Gold.Chemscore.Metal>
0.0000

> <Gold.Chemscore.Lipo>
79.0211

> <Gold.Chemscore.Internal_Hbond>
0.0000

> <Gold.Chemscore.DEClash>
0.0221

> <Gold.Chemscore.DEInternal>
1.8363

> <Gold.Chemscore.Rot>
1.0000

> <Gold.Chemscore.Internal.Correction>
   9.000000E+99

> <Gold.Chemscore.Hbonds>
donor molecule, donor type, donor heavy atom, donor atom, acceptor molecule, acceptor atom, score
      L1  H     5    26       P1  8028  0.95
      L1  H     8    27       P1  8028  0.98

> <Gold.Chemscore.Hbond.Weighted>
-6.5541

> <Gold.Chemscore.Metal.Weighted>
-0.0000

> <Gold.Chemscore.Lipo.Weighted>
-9.2455

> <Gold.Chemscore.Internal_Hbond.Weighted>
0.0000

> <Gold.Chemscore.DEClash.Weighted>
0.0221

> <Gold.Chemscore.DEInternal.Weighted>
1.8363

> <Gold.Chemscore.Rot.Weighted>
2.5600

> <Gold.Chemscore.Internal.Correction.Weighted>
   9.000000E+99

> <Gold.Protein.RotatedTorsions>
[ 6907 6896 6895 6894 ] final  -77.52 input  -60.11 | X-H torsion
[ 7974 7965 7964 7962 ] final   62.36 input  175.53 | X-H torsion
[ 8008 7997 7996 7995 ] final    5.63 input   59.86 | X-H torsion
[ 10167 10162 10161 10158 ] final -166.89 input  -65.29 | X-H torsion
[ 10718 10713 10712 10709 ] final   76.27 input   66.30 | X-H torsion
[ 10763 10752 10751 10750 ] final -176.73 input  -60.55 | X-H torsion
[ 11005 11000 10999 10996 ] final  -62.63 input  -57.11 | X-H torsion

> <Gold.Protein.ActiveResidues>
 VAL166  LYS551  ARG553  GLY616  TRP617  ASP618  TYR619  PRO620  LYS621  CYS622 
 ASP623  PHE694  ASN695  SER759  ASP760  ASP761  ALA762  ILE779  LEU786  VAL792 
 PHE793  MET794  SER795  GLU796  ALA797  LYS798  CYS799  TRP800  GLU811  SER814 

> <Gold.Protein.RotatedAtoms>
  150.6996  134.4410  159.5291 H   0  0  0  0  0  0  0  0  0  0  0  0  # atno 6907 bound_to 6896
  152.2120  134.8490  160.0505 H   0  0  0  0  0  0  0  0  0  0  0  0  # atno 6908 bound_to 6896
  151.9372  133.3592  159.3989 H   0  0  0  0  0  0  0  0  0  0  0  0  # atno 6909 bound_to 6896
  145.8742  139.3399  143.0744 H   0  0  0  0  0  0  0  0  0  0  0  0  # atno 7974 bound_to 7965
  154.7308  140.2730  155.6458 H   0  0  0  0  0  0  0  0  0  0  0  0  # atno 8008 bound_to 7997
  156.2849  140.2716  156.1933 H   0  0  0  0  0  0  0  0  0  0  0  0  # atno 8009 bound_to 7997
  155.0384  140.0371  157.2490 H   0  0  0  0  0  0  0  0  0  0  0  0  # atno 8010 bound_to 7997
  139.6085  144.0863  152.1818 H   0  0  0  0  0  0  0  0  0  0  0  0  # atno 10167 bound_to 10162
  157.6667  130.9766  150.1473 H   0  0  0  0  0  0  0  0  0  0  0  0  # atno 10718 bound_to 10713
  154.5688  135.2826  155.0848 H   0  0  0  0  0  0  0  0  0  0  0  0  # atno 10763 bound_to 10752
  154.2229  135.6388  153.5154 H   0  0  0  0  0  0  0  0  0  0  0  0  # atno 10764 bound_to 10752
  153.0051  135.5518  154.6304 H   0  0  0  0  0  0  0  0  0  0  0  0  # atno 10765 bound_to 10752
  141.1366  133.6642  156.5557 H   0  0  0  0  0  0  0  0  0  0  0  0  # atno 11005 bound_to 11000
  145.9100  140.9186  143.0459 LP  0  0  0  0  0  0  0  0  0  0  0  0  # atno 17320 bound_to 7965
  144.6726  140.1148  143.7453 LP  0  0  0  0  0  0  0  0  0  0  0  0  # atno 17321 bound_to 7965
  140.0476  144.5958  150.7361 LP  0  0  0  0  0  0  0  0  0  0  0  0  # atno 17342 bound_to 10162
  140.7302  143.2681  151.3979 LP  0  0  0  0  0  0  0  0  0  0  0  0  # atno 17343 bound_to 10162
  156.2281  130.3679  149.8477 LP  0  0  0  0  0  0  0  0  0  0  0  0  # atno 17370 bound_to 10713
  156.6311  130.8666  151.3495 LP  0  0  0  0  0  0  0  0  0  0  0  0  # atno 17371 bound_to 10713
  140.4028  134.7341  157.4790 LP  0  0  0  0  0  0  0  0  0  0  0  0  # atno 17394 bound_to 11000
  140.0483  134.6167  155.8893 LP  0  0  0  0  0  0  0  0  0  0  0  0  # atno 17395 bound_to 11000

$$$$
