AV-unprocessed.smi:431|AV-procd|sdf|2548|dock4
  -GOLD-   2262022513D 1   1.00000     0.00000
 Structure written by MMmdl.
 43 44  0  0  0  0  0  0  0  0  1 V2000
  151.8094  144.4781  158.0518 C   0  0  0  0  0  0  0  0  0  0  0  0
  151.1609  143.7272  156.8783 C   0  0  0  0  0  0  0  0  0  0  0  0
  151.0871  142.1959  157.0683 C   0  0  1  0  0  0  0  0  0  0  0  0
  150.5001  141.8395  158.4449 C   0  0  0  0  0  0  0  0  0  0  0  0
  150.2686  141.5168  155.9598 C   0  0  0  0  0  0  0  0  0  0  0  0
  150.7666  140.6134  155.2872 O   0  0  0  0  0  0  0  0  0  0  0  0
  149.0177  141.9681  155.7778 N   0  0  0  0  0  0  0  0  0  0  0  0
  148.0825  141.4978  154.7608 C   0  0  0  0  0  0  0  0  0  0  0  0
  146.8113  142.3281  154.7004 C   0  0  0  0  0  0  0  0  0  0  0  0
  146.4191  142.9610  153.5048 C   0  0  0  0  0  0  0  0  0  0  0  0
  145.2302  143.7152  153.4883 C   0  0  0  0  0  0  0  0  0  0  0  0
  144.4635  143.8242  154.6735 C   0  0  0  0  0  0  0  0  0  0  0  0
  143.2655  144.5721  154.6816 N   0  0  0  0  0  0  0  0  0  0  0  0
  142.0084  143.8535  154.8842 C   0  0  0  0  0  0  0  0  0  0  0  0
  140.8117  144.7648  154.5640 C   0  0  0  0  0  0  0  0  0  0  0  0
  140.8947  145.9557  155.3394 O   0  0  0  0  0  0  0  0  0  0  0  0
  142.0736  146.6974  155.0447 C   0  0  0  0  0  0  0  0  0  0  0  0
  143.3172  145.8555  155.3784 C   0  0  0  0  0  0  0  0  0  0  0  0
  144.8465  143.2131  155.8221 N   0  0  0  0  0  0  0  0  0  0  0  0
  145.9866  142.4912  155.8326 C   0  0  0  0  0  0  0  0  0  0  0  0
  151.7773  145.5548  157.8848 H   0  0  0  0  0  0  0  0  0  0  0  0
  152.8550  144.1987  158.1822 H   0  0  0  0  0  0  0  0  0  0  0  0
  151.2870  144.2723  158.9862 H   0  0  0  0  0  0  0  0  0  0  0  0
  150.1508  144.1151  156.7426 H   0  0  0  0  0  0  0  0  0  0  0  0
  151.6954  143.9657  155.9576 H   0  0  0  0  0  0  0  0  0  0  0  0
  152.1048  141.8028  157.0357 H   0  0  0  0  0  0  0  0  0  0  0  0
  150.4411  140.7591  158.5844 H   0  0  0  0  0  0  0  0  0  0  0  0
  149.4961  142.2470  158.5710 H   0  0  0  0  0  0  0  0  0  0  0  0
  151.1204  142.2372  159.2485 H   0  0  0  0  0  0  0  0  0  0  0  0
  148.6941  142.7106  156.3807 H   0  0  0  0  0  0  0  0  0  0  0  0
  148.5460  141.4860  153.7729 H   0  0  0  0  0  0  0  0  0  0  0  0
  147.8329  140.4613  154.9893 H   0  0  0  0  0  0  0  0  0  0  0  0
  147.0129  142.8657  152.6077 H   0  0  0  0  0  0  0  0  0  0  0  0
  144.9153  144.1830  152.5679 H   0  0  0  0  0  0  0  0  0  0  0  0
  141.9687  142.9704  154.2450 H   0  0  0  0  0  0  0  0  0  0  0  0
  141.9516  143.5114  155.9184 H   0  0  0  0  0  0  0  0  0  0  0  0
  140.7837  145.0106  153.5011 H   0  0  0  0  0  0  0  0  0  0  0  0
  139.8774  144.2536  154.7969 H   0  0  0  0  0  0  0  0  0  0  0  0
  142.0764  146.9950  153.9948 H   0  0  0  0  0  0  0  0  0  0  0  0
  142.0721  147.6140  155.6346 H   0  0  0  0  0  0  0  0  0  0  0  0
  143.3639  145.6698  156.4522 H   0  0  0  0  0  0  0  0  0  0  0  0
  144.2077  146.4246  155.1168 H   0  0  0  0  0  0  0  0  0  0  0  0
  146.2441  142.0311  156.7748 H   0  0  0  0  0  0  0  0  0  0  0  0
  1  2  1  0  0  0  0
  1 21  1  0  0  0  0
  1 22  1  0  0  0  0
  1 23  1  0  0  0  0
  2  3  1  0  0  0  0
  2 24  1  0  0  0  0
  2 25  1  0  0  0  0
  3  4  1  0  0  0  0
  3  5  1  0  0  0  0
  3 26  1  0  0  0  0
  4 27  1  0  0  0  0
  4 28  1  0  0  0  0
  4 29  1  0  0  0  0
  5  6  2  0  0  0  0
  5  7  1  0  0  0  0
  7  8  1  0  0  0  0
  7 30  1  0  0  0  0
  8  9  1  0  0  0  0
  8 31  1  0  0  0  0
  8 32  1  0  0  0  0
  9 20  1  0  0  0  0
  9 10  2  0  0  0  0
 10 11  1  0  0  0  0
 10 33  1  0  0  0  0
 11 12  2  0  0  0  0
 11 34  1  0  0  0  0
 12 13  1  0  0  0  0
 12 19  1  0  0  0  0
 13 18  1  0  0  0  0
 13 14  1  0  0  0  0
 14 15  1  0  0  0  0
 14 35  1  0  0  0  0
 14 36  1  0  0  0  0
 15 16  1  0  0  0  0
 15 37  1  0  0  0  0
 15 38  1  0  0  0  0
 16 17  1  0  0  0  0
 17 18  1  0  0  0  0
 17 39  1  0  0  0  0
 17 40  1  0  0  0  0
 18 41  1  0  0  0  0
 18 42  1  0  0  0  0
 19 20  2  0  0  0  0
 20 43  1  0  0  0  0
M  END
> <s_m_source_file>
AV-unprocessed.smi

> <i_m_source_file_index>
431

> <i_lp_mmshare_version>
43012

> <i_f3d_flags>
0

> <s_epik_input>
W0NIM11bQ0gyXVtDQEhdKFtDSDNdKUMoPU8pW05IXVtDSDJdYzFbY0hdW2NIXWMobltjSF0xKU4yW0NIMl1bQ0gyXU9bQ0gyXVtDSDJdMg==

> <s_epik_cmdline>
J2VwaWtfcHl0aG9uJywgJy1waCcsICc3LjAnLCAnLXRuJywgJzgnLCAnLW1hJywgJzIwMCcsICctbWV0YWxfYmluZGluZycsICctaW1hZScsICc8aW5maWxlLm1hZT4nLCAnLW9tYWUnLCAnPG91dGZpbGUubWFlPic=

> <r_lp_tautomer_probability>
1

> <r_epik_Ionization_Penalty>
0.00513882

> <r_epik_Ionization_Penalty_Charging>
0

> <r_epik_Ionization_Penalty_Neutral>
0.00513882

> <r_epik_State_Penalty>
0.00374265

> <r_epik_Charging_Adjusted_Penalty>
0.00374265

> <i_epik_Tot_Q>
0

> <i_epik_Tot_abs_Q>
0

> <r_epik_Metal_State_Penalty>
-0

> <b_epik_Metal_Only>
0

> <s_lp_Force_Field>
OPLS_2005

> <r_lp_Energy>
17.352

> <b_lp_Chiralities_Consistent>
1

> <s_lp_Variant>
AV-unprocessed.smi:431-2

> <Gold.Version>
5.8.1

> <Gold.Id.Protein>
6NUR|6NUR_protein|mol2

> <Gold.PLP.Fitness>
40.0924

> <Gold.PLP.PLP>
-36.5563

> <Gold.PLP.part.hbond>
-2.0000

> <Gold.PLP.part.metal>
0.0000

> <Gold.PLP.part.buried>
-4.1407

> <Gold.PLP.part.nonpolar>
-30.9700

> <Gold.PLP.part.repulsive>
0.3669

> <Gold.PLP.ligand.clash>
0.0000

> <Gold.PLP.ligand.torsion>
0.3548

> <Gold.PLP.Chemscore.Hbond>
1.2845

> <Gold.PLP.Chemscore.CHOScore>
0.0000

> <Gold.PLP.Chemscore.Metal>
0.0000

> <Gold.Chemscore.Hbonds>
donor molecule, donor type, donor heavy atom, donor atom, acceptor molecule, acceptor atom, score
      L1  H     7    30       P1  8028  0.26
      P1  H  7989  7998       L1     6  0.93

> <Gold.PLP.Chemscore.Internal.Correction>
0.3922

> <Gold.Rescore>
     Score         DG    S(hbond)    S(metal)    S(lipo)     H(rot)  DE(clash)    DE(int)     intcor
     14.40     -17.22       1.39        0.00      96.57       1.64       2.39       0.44       ----

> <Gold.Chemscore.Fitness>
14.4018

> <Gold.Chemscore.DG>
-17.2243

> <Gold.Chemscore.ZeroCoef>
-5.4800

> <Gold.Chemscore.Hbond>
1.3909

> <Gold.Chemscore.Metal>
0.0000

> <Gold.Chemscore.Lipo>
96.5712

> <Gold.Chemscore.Internal_Hbond>
0.0000

> <Gold.Chemscore.DEClash>
2.3870

> <Gold.Chemscore.DEInternal>
0.4355

> <Gold.Chemscore.Rot>
1.6407

> <Gold.Chemscore.Internal.Correction>
   9.000000E+99

> <Gold.Chemscore.Hbonds>
donor molecule, donor type, donor heavy atom, donor atom, acceptor molecule, acceptor atom, score
      L1  H     7    30       P1  8028  0.26
      P1  H  7989  7998       L1     6  0.86

> <Gold.Chemscore.Hbond.Weighted>
-4.6456

> <Gold.Chemscore.Metal.Weighted>
-0.0000

> <Gold.Chemscore.Lipo.Weighted>
-11.2988

> <Gold.Chemscore.Internal_Hbond.Weighted>
0.0000

> <Gold.Chemscore.DEClash.Weighted>
2.3870

> <Gold.Chemscore.DEInternal.Weighted>
0.4355

> <Gold.Chemscore.Rot.Weighted>
4.2001

> <Gold.Chemscore.Internal.Correction.Weighted>
   9.000000E+99

> <Gold.Protein.RotatedTorsions>
[ 6907 6896 6895 6894 ] final  -36.11 input  -60.11 | X-H torsion
[ 7974 7965 7964 7962 ] final  165.92 input  175.53 | X-H torsion
[ 8008 7997 7996 7995 ] final   55.61 input   59.86 | X-H torsion
[ 10167 10162 10161 10158 ] final  158.92 input  -65.29 | X-H torsion
[ 10718 10713 10712 10709 ] final  162.13 input   66.30 | X-H torsion
[ 10763 10752 10751 10750 ] final  157.98 input  -60.55 | X-H torsion
[ 11005 11000 10999 10996 ] final   54.35 input  -57.11 | X-H torsion

> <Gold.Protein.ActiveResidues>
 VAL166  LYS551  ARG553  GLY616  TRP617  ASP618  TYR619  PRO620  LYS621  CYS622 
 ASP623  PHE694  ASN695  SER759  ASP760  ASP761  ALA762  ILE779  LEU786  VAL792 
 PHE793  MET794  SER795  GLU796  ALA797  LYS798  CYS799  TRP800  GLU811  SER814 

> <Gold.Protein.RotatedAtoms>
  151.0313  134.9541  159.8112 H   0  0  0  0  0  0  0  0  0  0  0  0  # atno 6907 bound_to 6896
  152.5346  134.2776  159.9005 H   0  0  0  0  0  0  0  0  0  0  0  0  # atno 6908 bound_to 6896
  151.2786  133.4178  159.2659 H   0  0  0  0  0  0  0  0  0  0  0  0  # atno 6909 bound_to 6896
  144.7483  139.8539  143.6375 H   0  0  0  0  0  0  0  0  0  0  0  0  # atno 7974 bound_to 7965
  155.5039  140.3475  155.4376 H   0  0  0  0  0  0  0  0  0  0  0  0  # atno 8008 bound_to 7997
  156.0895  140.1407  156.9637 H   0  0  0  0  0  0  0  0  0  0  0  0  # atno 8009 bound_to 7997
  154.4626  140.0929  156.6912 H   0  0  0  0  0  0  0  0  0  0  0  0  # atno 8010 bound_to 7997
  139.4829  144.4779  151.8485 H   0  0  0  0  0  0  0  0  0  0  0  0  # atno 10167 bound_to 10162
  157.1268  131.0506  151.2390 H   0  0  0  0  0  0  0  0  0  0  0  0  # atno 10718 bound_to 10713
  154.2087  135.2787  155.2966 H   0  0  0  0  0  0  0  0  0  0  0  0  # atno 10763 bound_to 10752
  154.5796  135.5593  153.7175 H   0  0  0  0  0  0  0  0  0  0  0  0  # atno 10764 bound_to 10752
  153.0069  135.6341  154.2226 H   0  0  0  0  0  0  0  0  0  0  0  0  # atno 10765 bound_to 10752
  140.0693  134.5491  155.9064 H   0  0  0  0  0  0  0  0  0  0  0  0  # atno 11005 bound_to 11000
  146.1396  139.4450  143.0117 LP  0  0  0  0  0  0  0  0  0  0  0  0  # atno 17320 bound_to 7965
  145.7038  141.0127  143.1490 LP  0  0  0  0  0  0  0  0  0  0  0  0  # atno 17321 bound_to 7965
  140.4253  144.2189  150.5887 LP  0  0  0  0  0  0  0  0  0  0  0  0  # atno 17342 bound_to 10162
  140.4833  143.2371  151.8923 LP  0  0  0  0  0  0  0  0  0  0  0  0  # atno 17343 bound_to 10162
  157.4428  130.7553  149.7083 LP  0  0  0  0  0  0  0  0  0  0  0  0  # atno 17370 bound_to 10713
  155.9816  130.4017  150.3461 LP  0  0  0  0  0  0  0  0  0  0  0  0  # atno 17371 bound_to 10713
  141.2005  133.6613  156.5903 LP  0  0  0  0  0  0  0  0  0  0  0  0  # atno 17394 bound_to 11000
  140.3651  134.7654  157.4560 LP  0  0  0  0  0  0  0  0  0  0  0  0  # atno 17395 bound_to 11000

$$$$
