AV-unprocessed.smi:283|AV-procd|sdf|2150|dock5
  -GOLD-   2262021483D 1   1.00000     0.00000
 Structure written by MMmdl.
 48 51  0  0  0  0  0  0  0  0  1 V2000
  153.1703  140.0150  159.6158 C   0  0  0  0  0  0  0  0  0  0  0  0
  152.7436  141.0746  158.5908 C   0  0  1  0  0  0  0  0  0  0  0  0
  151.6542  140.5517  157.7693 N   0  0  0  0  0  0  0  0  0  0  0  0
  151.8194  139.4662  156.9807 C   0  0  0  0  0  0  0  0  0  0  0  0
  152.9320  139.4745  156.2090 N   0  0  0  0  0  0  0  0  0  0  0  0
  153.2001  138.4405  155.4086 C   0  0  0  0  0  0  0  0  0  0  0  0
  152.4989  137.3205  155.2322 N   0  0  0  0  0  0  0  0  0  0  0  0
  151.3652  137.3058  155.9921 C   0  0  0  0  0  0  0  0  0  0  0  0
  150.9520  138.3370  156.8859 C   0  0  0  0  0  0  0  0  0  0  0  0
  149.7450  137.9771  157.4732 N   0  0  0  0  0  0  0  0  0  0  0  0
  149.4770  136.8032  156.9730 C   0  0  0  0  0  0  0  0  0  0  0  0
  150.3975  136.3207  156.0714 N   0  0  0  0  0  0  0  0  0  0  0  0
  150.3404  135.0095  155.3428 C   0  0  2  0  0  0  0  0  0  0  0  0
  149.0385  134.5116  155.4123 O   0  0  0  0  0  0  0  0  0  0  0  0
  149.0560  133.1319  155.7662 C   0  0  2  0  0  0  0  0  0  0  0  0
  147.7364  132.7130  156.4392 C   0  0  0  0  0  0  0  0  0  0  0  0
  146.6553  132.8924  155.5492 O   0  0  0  0  0  0  0  0  0  0  0  0
  150.3175  132.9829  156.6293 C   0  0  2  0  0  0  0  0  0  0  0  0
  150.0687  133.3200  157.9834 O   0  0  0  0  0  0  0  0  0  0  0  0
  151.2813  133.9487  155.9502 C   0  0  2  0  0  0  0  0  0  0  0  0
  152.2949  134.4398  156.8119 O   0  0  0  0  0  0  0  0  0  0  0  0
  152.4403  142.4017  159.2934 C   0  0  0  0  0  0  0  0  0  0  0  0
  152.5898  142.5098  160.6960 C   0  0  0  0  0  0  0  0  0  0  0  0
  152.3073  143.7193  161.3578 C   0  0  0  0  0  0  0  0  0  0  0  0
  151.8812  144.8397  160.6226 C   0  0  0  0  0  0  0  0  0  0  0  0
  151.7446  144.7494  159.2253 C   0  0  0  0  0  0  0  0  0  0  0  0
  152.0260  143.5408  158.5573 C   0  0  0  0  0  0  0  0  0  0  0  0
  151.8547  143.4937  156.8373 Cl  0  0  0  0  0  0  0  0  0  0  0  0
  150.5992  135.2654  154.3145 H   0  0  0  0  0  0  0  0  0  0  0  0
  149.2086  132.5539  154.8526 H   0  0  0  0  0  0  0  0  0  0  0  0
  150.6950  131.9600  156.6069 H   0  0  0  0  0  0  0  0  0  0  0  0
  151.7602  133.4341  155.1161 H   0  0  0  0  0  0  0  0  0  0  0  0
  154.0429  140.3436  160.1812 H   0  0  0  0  0  0  0  0  0  0  0  0
  153.4319  139.0769  159.1256 H   0  0  0  0  0  0  0  0  0  0  0  0
  152.3710  139.8075  160.3284 H   0  0  0  0  0  0  0  0  0  0  0  0
  153.5853  141.2158  157.9148 H   0  0  0  0  0  0  0  0  0  0  0  0
  150.8810  141.1880  157.6411 H   0  0  0  0  0  0  0  0  0  0  0  0
  154.1072  138.5198  154.8280 H   0  0  0  0  0  0  0  0  0  0  0  0
  148.5873  136.2543  157.2448 H   0  0  0  0  0  0  0  0  0  0  0  0
  147.7673  131.6549  156.7010 H   0  0  0  0  0  0  0  0  0  0  0  0
  147.5636  133.2716  157.3596 H   0  0  0  0  0  0  0  0  0  0  0  0
  146.3655  132.0438  155.2513 H   0  0  0  0  0  0  0  0  0  0  0  0
  149.3215  133.8968  158.0199 H   0  0  0  0  0  0  0  0  0  0  0  0
  152.4676  135.3414  156.5888 H   0  0  0  0  0  0  0  0  0  0  0  0
  152.9186  141.6607  161.2769 H   0  0  0  0  0  0  0  0  0  0  0  0
  152.4170  143.7866  162.4302 H   0  0  0  0  0  0  0  0  0  0  0  0
  151.6632  145.7685  161.1289 H   0  0  0  0  0  0  0  0  0  0  0  0
  151.4232  145.6138  158.6632 H   0  0  0  0  0  0  0  0  0  0  0  0
  1  2  1  0  0  0  0
  1 33  1  0  0  0  0
  1 34  1  0  0  0  0
  1 35  1  0  0  0  0
  2  3  1  0  0  0  0
  2 22  1  0  0  0  0
  2 36  1  0  0  0  0
  3  4  1  0  0  0  0
  3 37  1  0  0  0  0
  4  9  1  0  0  0  0
  4  5  2  0  0  0  0
  5  6  1  0  0  0  0
  6  7  2  0  0  0  0
  6 38  1  0  0  0  0
  7  8  1  0  0  0  0
  8 12  1  0  0  0  0
  8  9  2  0  0  0  0
  9 10  1  0  0  0  0
 10 11  2  0  0  0  0
 11 12  1  0  0  0  0
 11 39  1  0  0  0  0
 12 13  1  0  0  0  0
 13 29  1  0  0  0  0
 13 20  1  0  0  0  0
 13 14  1  0  0  0  0
 14 15  1  0  0  0  0
 15 30  1  0  0  0  0
 15 16  1  0  0  0  0
 15 18  1  0  0  0  0
 16 17  1  0  0  0  0
 16 40  1  0  0  0  0
 16 41  1  0  0  0  0
 17 42  1  0  0  0  0
 18 31  1  0  0  0  0
 18 19  1  0  0  0  0
 18 20  1  0  0  0  0
 19 43  1  0  0  0  0
 20 32  1  0  0  0  0
 20 21  1  0  0  0  0
 21 44  1  0  0  0  0
 22 27  1  0  0  0  0
 22 23  2  0  0  0  0
 23 24  1  0  0  0  0
 23 45  1  0  0  0  0
 24 25  2  0  0  0  0
 24 46  1  0  0  0  0
 25 26  1  0  0  0  0
 25 47  1  0  0  0  0
 26 27  2  0  0  0  0
 26 48  1  0  0  0  0
 27 28  1  0  0  0  0
M  END
> <s_m_source_file>
AV-unprocessed.smi

> <i_m_source_file_index>
283

> <i_lp_mmshare_version>
43012

> <i_f3d_flags>
0

> <s_epik_input>
Q2xjMVtjSF1bY0hdW2NIXVtjSF1jMVtDQEhdKFtDSDNdKVtOSF1jKG5bY0hdbjIpYyhjMjMpbltjSF1uM1tDQEBIXTRPW0NASF0oW0NIMl1bT0hdKVtDQEBIXShbT0hdKVtDQEhdNFtPSF0=

> <s_epik_cmdline>
J2VwaWtfcHl0aG9uJywgJy1waCcsICc3LjAnLCAnLXRuJywgJzgnLCAnLW1hJywgJzIwMCcsICctbWV0YWxfYmluZGluZycsICctaW1hZScsICc8aW5maWxlLm1hZT4nLCAnLW9tYWUnLCAnPG91dGZpbGUubWFlPic=

> <r_lp_tautomer_probability>
1

> <r_epik_Ionization_Penalty>
0.000266407

> <r_epik_Ionization_Penalty_Charging>
0

> <r_epik_Ionization_Penalty_Neutral>
0.000266407

> <r_epik_State_Penalty>
-0

> <r_epik_Charging_Adjusted_Penalty>
0

> <i_epik_Tot_Q>
0

> <i_epik_Tot_abs_Q>
0

> <r_epik_Metal_State_Penalty>
-0

> <b_epik_Metal_Only>
0

> <s_epik_Chemistry_Notes>
This compound contains an acetal/aminal-like group ( X-CH(R)-Y where X, Y are N, S, or O) that may be acid/base labile, releasing an aldehyde.

> <s_lp_Force_Field>
OPLS_2005

> <r_lp_Energy>
56.8802

> <b_lp_Chiralities_Consistent>
1

> <s_lp_Variant>
AV-unprocessed.smi:283-26

> <Gold.Version>
5.8.1

> <Gold.Id.Protein>
6NUR|6NUR_protein|mol2

> <Gold.PLP.Fitness>
50.1044

> <Gold.PLP.PLP>
-43.4918

> <Gold.PLP.part.hbond>
-4.2998

> <Gold.PLP.part.metal>
0.0000

> <Gold.PLP.part.buried>
-6.7443

> <Gold.PLP.part.nonpolar>
-33.5996

> <Gold.PLP.part.repulsive>
0.1883

> <Gold.PLP.ligand.clash>
0.0000

> <Gold.PLP.ligand.torsion>
0.9188

> <Gold.PLP.Chemscore.Hbond>
2.7840

> <Gold.PLP.Chemscore.CHOScore>
0.0000

> <Gold.PLP.Chemscore.Metal>
0.0000

> <Gold.Chemscore.Hbonds>
donor molecule, donor type, donor heavy atom, donor atom, acceptor molecule, acceptor atom, score
      P1  H  6896  6908       L1    19  1.00
      P1  H  7997  8008       L1     5  1.00
      P1  H 10752 10765       L1     7  0.64

> <Gold.PLP.Chemscore.Internal.Correction>
0.0982

> <Gold.Rescore>
     Score         DG    S(hbond)    S(metal)    S(lipo)     H(rot)  DE(clash)    DE(int)     intcor
     14.48     -17.00       2.59        0.00     114.25       4.10       1.60       0.93       ----

> <Gold.Chemscore.Fitness>
14.4753

> <Gold.Chemscore.DG>
-17.0020

> <Gold.Chemscore.ZeroCoef>
-5.4800

> <Gold.Chemscore.Hbond>
2.5877

> <Gold.Chemscore.Metal>
0.0000

> <Gold.Chemscore.Lipo>
114.2472

> <Gold.Chemscore.Internal_Hbond>
0.0000

> <Gold.Chemscore.DEClash>
1.5977

> <Gold.Chemscore.DEInternal>
0.9290

> <Gold.Chemscore.Rot>
4.0968

> <Gold.Chemscore.Internal.Correction>
   9.000000E+99

> <Gold.Chemscore.Hbonds>
donor molecule, donor type, donor heavy atom, donor atom, acceptor molecule, acceptor atom, score
      P1  H  6896  6908       L1    19  0.61
      P1  H  7997  8008       L1     5  0.33
      P1  H 10752 10765       L1     7  0.53

> <Gold.Chemscore.Hbond.Weighted>
-8.6430

> <Gold.Chemscore.Metal.Weighted>
-0.0000

> <Gold.Chemscore.Lipo.Weighted>
-13.3669

> <Gold.Chemscore.Internal_Hbond.Weighted>
0.0000

> <Gold.Chemscore.DEClash.Weighted>
1.5977

> <Gold.Chemscore.DEInternal.Weighted>
0.9290

> <Gold.Chemscore.Rot.Weighted>
10.4879

> <Gold.Chemscore.Internal.Correction.Weighted>
   9.000000E+99

> <Gold.Protein.RotatedTorsions>
[ 6907 6896 6895 6894 ] final  104.19 input  -60.11 | X-H torsion
[ 7974 7965 7964 7962 ] final   -4.62 input  175.53 | X-H torsion
[ 8008 7997 7996 7995 ] final  -45.55 input   59.86 | X-H torsion
[ 10167 10162 10161 10158 ] final -177.69 input  -65.29 | X-H torsion
[ 10718 10713 10712 10709 ] final -122.28 input   66.30 | X-H torsion
[ 10763 10752 10751 10750 ] final -176.43 input  -60.55 | X-H torsion
[ 11005 11000 10999 10996 ] final -139.07 input  -57.11 | X-H torsion

> <Gold.Protein.ActiveResidues>
 VAL166  LYS551  ARG553  GLY616  TRP617  ASP618  TYR619  PRO620  LYS621  CYS622 
 ASP623  PHE694  ASN695  SER759  ASP760  ASP761  ALA762  ILE779  LEU786  VAL792 
 PHE793  MET794  SER795  GLU796  ALA797  LYS798  CYS799  TRP800  GLU811  SER814 

> <Gold.Protein.RotatedAtoms>
  152.5272  133.9714  159.7763 H   0  0  0  0  0  0  0  0  0  0  0  0  # atno 6907 bound_to 6896
  150.9985  133.6071  159.2705 H   0  0  0  0  0  0  0  0  0  0  0  0  # atno 6908 bound_to 6896
  151.3189  135.0819  159.9352 H   0  0  0  0  0  0  0  0  0  0  0  0  # atno 6909 bound_to 6896
  146.2369  140.1899  142.8332 H   0  0  0  0  0  0  0  0  0  0  0  0  # atno 7974 bound_to 7965
  154.4001  140.1394  156.3866 H   0  0  0  0  0  0  0  0  0  0  0  0  # atno 8008 bound_to 7997
  155.7953  140.3477  155.5352 H   0  0  0  0  0  0  0  0  0  0  0  0  # atno 8009 bound_to 7997
  155.8538  140.0945  157.1648 H   0  0  0  0  0  0  0  0  0  0  0  0  # atno 8010 bound_to 7997
  139.5468  144.2214  152.1003 H   0  0  0  0  0  0  0  0  0  0  0  0  # atno 10167 bound_to 10162
  156.1406  130.6463  150.9764 H   0  0  0  0  0  0  0  0  0  0  0  0  # atno 10718 bound_to 10713
  154.5724  135.2829  155.0814 H   0  0  0  0  0  0  0  0  0  0  0  0  # atno 10763 bound_to 10752
  154.2181  135.6396  153.5140 H   0  0  0  0  0  0  0  0  0  0  0  0  # atno 10764 bound_to 10752
  153.0062  135.5508  154.6352 H   0  0  0  0  0  0  0  0  0  0  0  0  # atno 10765 bound_to 10752
  140.8555  134.2234  157.4737 H   0  0  0  0  0  0  0  0  0  0  0  0  # atno 11005 bound_to 11000
  144.9866  140.8509  143.5365 LP  0  0  0  0  0  0  0  0  0  0  0  0  # atno 17320 bound_to 7965
  145.1899  139.2306  143.5248 LP  0  0  0  0  0  0  0  0  0  0  0  0  # atno 17321 bound_to 7965
  140.1702  144.4943  150.6584 LP  0  0  0  0  0  0  0  0  0  0  0  0  # atno 17342 bound_to 10162
  140.6719  143.2289  151.5604 LP  0  0  0  0  0  0  0  0  0  0  0  0  # atno 17343 bound_to 10162
  157.6572  131.0887  150.7921 LP  0  0  0  0  0  0  0  0  0  0  0  0  # atno 17370 bound_to 10713
  156.7997  130.4917  149.5371 LP  0  0  0  0  0  0  0  0  0  0  0  0  # atno 17371 bound_to 10713
  139.8705  134.9704  156.4700 LP  0  0  0  0  0  0  0  0  0  0  0  0  # atno 17394 bound_to 11000
  140.8742  133.7965  155.9397 LP  0  0  0  0  0  0  0  0  0  0  0  0  # atno 17395 bound_to 11000

$$$$
