AV-unprocessed.smi:281|AV-procd|sdf|2109|dock10
  -GOLD-   2262021403D 1   1.00000     0.00000
 Structure written by MMmdl.
 55 59  0  0  0  0  0  0  0  0  1 V2000
  147.6654  141.7771  153.8795 C   0  0  0  0  0  0  0  0  0  0  0  0
  148.4059  140.5333  154.3812 C   0  0  2  0  0  0  0  0  0  0  0  0
  147.6270  139.8080  155.4920 C   0  0  0  0  0  0  0  0  0  0  0  0
  148.4180  138.7009  156.0157 N   0  0  0  0  0  0  0  0  0  0  0  0
  147.7280  137.7972  156.7568 C   0  0  0  0  0  0  0  0  0  0  0  0
  146.5077  137.3652  156.3388 N   0  0  0  0  0  0  0  0  0  0  0  0
  145.8257  136.4685  157.0566 C   0  0  0  0  0  0  0  0  0  0  0  0
  146.1691  135.8847  158.2060 N   0  0  0  0  0  0  0  0  0  0  0  0
  147.3857  136.3227  158.6391 C   0  0  0  0  0  0  0  0  0  0  0  0
  148.2251  137.2656  157.9806 C   0  0  0  0  0  0  0  0  0  0  0  0
  149.3827  137.4656  158.7234 N   0  0  0  0  0  0  0  0  0  0  0  0
  149.2410  136.6782  159.7539 C   0  0  0  0  0  0  0  0  0  0  0  0
  148.0636  135.9655  159.7921 N   0  0  0  0  0  0  0  0  0  0  0  0
  147.6447  135.0286  160.8242 C   0  0  0  0  0  0  0  0  0  0  0  0
  147.1497  135.6896  162.1382 C   0  0  1  0  0  0  0  0  0  0  0  0
  148.1349  136.6207  162.5416 O   0  0  0  0  0  0  0  0  0  0  0  0
  145.7988  136.3940  162.0194 C   0  0  0  0  0  0  0  0  0  0  0  0
  144.7828  135.3914  162.5804 C   0  0  0  0  0  0  0  0  0  0  0  0
  145.5361  134.2814  163.0533 O   0  0  0  0  0  0  0  0  0  0  0  0
  146.8734  134.6998  163.2740 C   0  0  0  0  0  0  0  0  0  0  0  0
  149.7350  139.1180  156.4882 C   0  0  0  0  0  0  0  0  0  0  0  0
  150.4979  139.8840  155.3777 C   0  0  2  0  0  0  0  0  0  0  0  0
  150.9724  138.9732  154.2488 C   0  0  0  0  0  0  0  0  0  0  0  0
  152.2930  138.4275  154.7783 C   0  0  0  0  0  0  0  0  0  0  0  0
  152.8380  139.4670  155.5811 O   0  0  0  0  0  0  0  0  0  0  0  0
  151.8530  140.4675  155.8285 C   0  0  2  0  0  0  0  0  0  0  0  0
  151.9448  140.9758  157.2743 C   0  0  0  0  0  0  0  0  0  0  0  0
  149.6785  140.9463  154.8800 O   0  0  0  0  0  0  0  0  0  0  0  0
  146.6882  141.5146  153.4736 H   0  0  0  0  0  0  0  0  0  0  0  0
  148.2301  142.2744  153.0907 H   0  0  0  0  0  0  0  0  0  0  0  0
  147.5120  142.4968  154.6842 H   0  0  0  0  0  0  0  0  0  0  0  0
  148.5454  139.8583  153.5359 H   0  0  0  0  0  0  0  0  0  0  0  0
  147.4061  140.4979  156.3078 H   0  0  0  0  0  0  0  0  0  0  0  0
  146.6693  139.4666  155.1012 H   0  0  0  0  0  0  0  0  0  0  0  0
  144.8677  136.1772  156.6522 H   0  0  0  0  0  0  0  0  0  0  0  0
  149.9941  136.6028  160.5247 H   0  0  0  0  0  0  0  0  0  0  0  0
  146.8615  134.3938  160.4074 H   0  0  0  0  0  0  0  0  0  0  0  0
  148.4865  134.3680  161.0360 H   0  0  0  0  0  0  0  0  0  0  0  0
  148.0416  136.7721  163.4697 H   0  0  0  0  0  0  0  0  0  0  0  0
  145.7754  137.2946  162.6355 H   0  0  0  0  0  0  0  0  0  0  0  0
  145.5687  136.7027  160.9996 H   0  0  0  0  0  0  0  0  0  0  0  0
  144.2177  135.8318  163.4027 H   0  0  0  0  0  0  0  0  0  0  0  0
  144.0735  135.0597  161.8215 H   0  0  0  0  0  0  0  0  0  0  0  0
  147.5695  133.8616  163.2980 H   0  0  0  0  0  0  0  0  0  0  0  0
  146.9173  135.1966  164.2451 H   0  0  0  0  0  0  0  0  0  0  0  0
  149.5883  139.7598  157.3577 H   0  0  0  0  0  0  0  0  0  0  0  0
  150.3124  138.2538  156.8191 H   0  0  0  0  0  0  0  0  0  0  0  0
  150.2661  138.1849  153.9865 H   0  0  0  0  0  0  0  0  0  0  0  0
  151.1611  139.5631  153.3506 H   0  0  0  0  0  0  0  0  0  0  0  0
  152.1229  137.5523  155.4061 H   0  0  0  0  0  0  0  0  0  0  0  0
  152.9761  138.1414  153.9784 H   0  0  0  0  0  0  0  0  0  0  0  0
  152.1008  141.2950  155.1613 H   0  0  0  0  0  0  0  0  0  0  0  0
  151.1809  141.7273  157.4753 H   0  0  0  0  0  0  0  0  0  0  0  0
  152.9166  141.4336  157.4599 H   0  0  0  0  0  0  0  0  0  0  0  0
  151.8242  140.1661  157.9942 H   0  0  0  0  0  0  0  0  0  0  0  0
  1  2  1  0  0  0  0
  1 29  1  0  0  0  0
  1 30  1  0  0  0  0
  1 31  1  0  0  0  0
  2 28  1  0  0  0  0
  2  3  1  0  0  0  0
  2 32  1  0  0  0  0
  3  4  1  0  0  0  0
  3 33  1  0  0  0  0
  3 34  1  0  0  0  0
  4  5  1  0  0  0  0
  4 21  1  0  0  0  0
  5 10  1  0  0  0  0
  5  6  2  0  0  0  0
  6  7  1  0  0  0  0
  7  8  2  0  0  0  0
  7 35  1  0  0  0  0
  8  9  1  0  0  0  0
  9 13  1  0  0  0  0
  9 10  2  0  0  0  0
 10 11  1  0  0  0  0
 11 12  2  0  0  0  0
 12 13  1  0  0  0  0
 12 36  1  0  0  0  0
 13 14  1  0  0  0  0
 14 15  1  0  0  0  0
 14 37  1  0  0  0  0
 14 38  1  0  0  0  0
 15 20  1  0  0  0  0
 15 16  1  0  0  0  0
 15 17  1  0  0  0  0
 16 39  1  0  0  0  0
 17 18  1  0  0  0  0
 17 40  1  0  0  0  0
 17 41  1  0  0  0  0
 18 19  1  0  0  0  0
 18 42  1  0  0  0  0
 18 43  1  0  0  0  0
 19 20  1  0  0  0  0
 20 44  1  0  0  0  0
 20 45  1  0  0  0  0
 21 22  1  0  0  0  0
 21 46  1  0  0  0  0
 21 47  1  0  0  0  0
 22 26  1  0  0  0  0
 22 23  1  0  0  0  0
 22 28  1  0  0  0  0
 23 24  1  0  0  0  0
 23 48  1  0  0  0  0
 23 49  1  0  0  0  0
 24 25  1  0  0  0  0
 24 50  1  0  0  0  0
 24 51  1  0  0  0  0
 25 26  1  0  0  0  0
 26 27  1  0  0  0  0
 26 52  1  0  0  0  0
 27 53  1  0  0  0  0
 27 54  1  0  0  0  0
 27 55  1  0  0  0  0
M  END
> <s_m_source_file>
AV-unprocessed.smi

> <i_m_source_file_index>
281

> <i_lp_mmshare_version>
43012

> <i_f3d_flags>
0

> <s_epik_input>
W0NIM11bQ0BASF0xT1tDSDJdW0NIMl1bQ0BAXTEyW0NIMl1OKFtDSDJdW0NASF0oTzIpW0NIM10pYyhuW2NIXW4zKWMoYzM0KW5bY0hdbjRbQ0gyXVtDQEBdNShbT0hdKVtDSDJdW0NIMl1PW0NIMl01

> <s_epik_cmdline>
J2VwaWtfcHl0aG9uJywgJy1waCcsICc3LjAnLCAnLXRuJywgJzgnLCAnLW1hJywgJzIwMCcsICctbWV0YWxfYmluZGluZycsICctaW1hZScsICc8aW5maWxlLm1hZT4nLCAnLW9tYWUnLCAnPG91dGZpbGUubWFlPic=

> <r_lp_tautomer_probability>
1

> <r_epik_Ionization_Penalty>
0.00571331

> <r_epik_Ionization_Penalty_Charging>
0

> <r_epik_Ionization_Penalty_Neutral>
0.00571331

> <r_epik_State_Penalty>
0.00399586

> <r_epik_Charging_Adjusted_Penalty>
0.00399586

> <i_epik_Tot_Q>
0

> <i_epik_Tot_abs_Q>
0

> <r_epik_Metal_State_Penalty>
-0

> <b_epik_Metal_Only>
0

> <s_lp_Force_Field>
OPLS_2005

> <r_lp_Energy>
56.9386

> <b_lp_Chiralities_Consistent>
1

> <s_lp_Variant>
AV-unprocessed.smi:281-9

> <Gold.Version>
5.8.1

> <Gold.Id.Protein>
6NUR|6NUR_protein|mol2

> <Gold.PLP.Fitness>
43.4912

> <Gold.PLP.PLP>
-38.1537

> <Gold.PLP.part.hbond>
-3.2712

> <Gold.PLP.part.metal>
0.0000

> <Gold.PLP.part.buried>
-4.9682

> <Gold.PLP.part.nonpolar>
-29.4787

> <Gold.PLP.part.repulsive>
0.1620

> <Gold.PLP.ligand.clash>
0.0101

> <Gold.PLP.ligand.torsion>
0.4800

> <Gold.PLP.Chemscore.Hbond>
2.0000

> <Gold.PLP.Chemscore.CHOScore>
0.0000

> <Gold.PLP.Chemscore.Metal>
0.0000

> <Gold.Chemscore.Hbonds>
donor molecule, donor type, donor heavy atom, donor atom, acceptor molecule, acceptor atom, score
      P1  H  6931  6943       L1    16  1.00
      P1  H  7997  8009       L1    25  1.00

> <Gold.PLP.Chemscore.Internal.Correction>
0.3078

> <Gold.Rescore>
     Score         DG    S(hbond)    S(metal)    S(lipo)     H(rot)  DE(clash)    DE(int)     intcor
     13.85     -16.82       1.69        0.00      94.59       2.09       0.49       2.48       ----

> <Gold.Chemscore.Fitness>
13.8481

> <Gold.Chemscore.DG>
-16.8200

> <Gold.Chemscore.ZeroCoef>
-5.4800

> <Gold.Chemscore.Hbond>
1.6856

> <Gold.Chemscore.Metal>
0.0000

> <Gold.Chemscore.Lipo>
94.5942

> <Gold.Chemscore.Internal_Hbond>
0.0000

> <Gold.Chemscore.DEClash>
0.4925

> <Gold.Chemscore.DEInternal>
2.4794

> <Gold.Chemscore.Rot>
2.0927

> <Gold.Chemscore.Internal.Correction>
   9.000000E+99

> <Gold.Chemscore.Hbonds>
donor molecule, donor type, donor heavy atom, donor atom, acceptor molecule, acceptor atom, score
      P1  H  6931  6943       L1    16  0.34
      P1  H  7997  8009       L1    25  0.65

> <Gold.Chemscore.Hbond.Weighted>
-5.6298

> <Gold.Chemscore.Metal.Weighted>
-0.0000

> <Gold.Chemscore.Lipo.Weighted>
-11.0675

> <Gold.Chemscore.Internal_Hbond.Weighted>
0.0000

> <Gold.Chemscore.DEClash.Weighted>
0.4925

> <Gold.Chemscore.DEInternal.Weighted>
2.4794

> <Gold.Chemscore.Rot.Weighted>
5.3573

> <Gold.Chemscore.Internal.Correction.Weighted>
   9.000000E+99

> <Gold.Protein.RotatedTorsions>
[ 6907 6896 6895 6894 ] final  -45.34 input  -60.11 | X-H torsion
[ 7974 7965 7964 7962 ] final   50.30 input  175.53 | X-H torsion
[ 8008 7997 7996 7995 ] final -136.61 input   59.86 | X-H torsion
[ 10167 10162 10161 10158 ] final -115.44 input  -65.29 | X-H torsion
[ 10718 10713 10712 10709 ] final  165.54 input   66.30 | X-H torsion
[ 10763 10752 10751 10750 ] final  165.83 input  -60.55 | X-H torsion
[ 11005 11000 10999 10996 ] final   71.18 input  -57.11 | X-H torsion

> <Gold.Protein.ActiveResidues>
 VAL166  LYS551  ARG553  GLY616  TRP617  ASP618  TYR619  PRO620  LYS621  CYS622 
 ASP623  PHE694  ASN695  SER759  ASP760  ASP761  ALA762  ILE779  LEU786  VAL792 
 PHE793  MET794  SER795  GLU796  ALA797  LYS798  CYS799  TRP800  GLU811  SER814 

> <Gold.Protein.RotatedAtoms>
  150.9230  134.8647  159.7500 H   0  0  0  0  0  0  0  0  0  0  0  0  # atno 6907 bound_to 6896
  152.5001  134.4191  159.9484 H   0  0  0  0  0  0  0  0  0  0  0  0  # atno 6908 bound_to 6896
  151.4223  133.3655  159.2793 H   0  0  0  0  0  0  0  0  0  0  0  0  # atno 6909 bound_to 6896
  146.0025  139.4454  143.0006 H   0  0  0  0  0  0  0  0  0  0  0  0  # atno 7974 bound_to 7965
  155.3981  140.0504  157.3038 H   0  0  0  0  0  0  0  0  0  0  0  0  # atno 8008 bound_to 7997
  154.5004  140.2154  155.9320 H   0  0  0  0  0  0  0  0  0  0  0  0  # atno 8009 bound_to 7997
  156.1459  140.3145  155.8575 H   0  0  0  0  0  0  0  0  0  0  0  0  # atno 8010 bound_to 7997
  140.0901  143.4708  152.1875 H   0  0  0  0  0  0  0  0  0  0  0  0  # atno 10167 bound_to 10162
  157.0787  131.0386  151.2583 H   0  0  0  0  0  0  0  0  0  0  0  0  # atno 10718 bound_to 10713
  154.3298  135.2755  155.2477 H   0  0  0  0  0  0  0  0  0  0  0  0  # atno 10763 bound_to 10752
  154.4794  135.5862  153.6382 H   0  0  0  0  0  0  0  0  0  0  0  0  # atno 10764 bound_to 10752
  152.9867  135.6107  154.3490 H   0  0  0  0  0  0  0  0  0  0  0  0  # atno 10765 bound_to 10752
  139.9557  134.7148  156.0758 H   0  0  0  0  0  0  0  0  0  0  0  0  # atno 11005 bound_to 11000
  145.7466  140.9988  143.1272 LP  0  0  0  0  0  0  0  0  0  0  0  0  # atno 17320 bound_to 7965
  144.6924  139.9163  143.7466 LP  0  0  0  0  0  0  0  0  0  0  0  0  # atno 17321 bound_to 7965
  139.5730  144.7472  151.3841 LP  0  0  0  0  0  0  0  0  0  0  0  0  # atno 17342 bound_to 10162
  140.7033  143.7577  150.7439 LP  0  0  0  0  0  0  0  0  0  0  0  0  # atno 17343 bound_to 10162
  157.4818  130.7769  149.7421 LP  0  0  0  0  0  0  0  0  0  0  0  0  # atno 17370 bound_to 10713
  155.9930  130.3927  150.2920 LP  0  0  0  0  0  0  0  0  0  0  0  0  # atno 17371 bound_to 10713
  141.1228  133.6608  156.3259 LP  0  0  0  0  0  0  0  0  0  0  0  0  # atno 17394 bound_to 11000
  140.5614  134.5930  157.5434 LP  0  0  0  0  0  0  0  0  0  0  0  0  # atno 17395 bound_to 11000

$$$$
