AV-unprocessed.smi:1912|AV-procd|sdf|7751|dock7
  -GOLD-   22720 9493D 1   1.00000     0.00000
 Structure written by MMmdl.
 44 46  0  0  0  0  0  0  0  0  2 V2000
  151.2572  145.0514  158.8411 C   0  0  0  0  0  0  0  0  0  0  0  0
  152.4796  144.4686  159.2692 O   0  0  0  0  0  0  0  0  0  0  0  0
  152.5568  143.0939  159.3272 C   0  0  0  0  0  0  0  0  0  0  0  0
  153.4015  142.3802  160.2089 C   0  0  0  0  0  0  0  0  0  0  0  0
  153.4265  140.9738  160.1902 C   0  0  0  0  0  0  0  0  0  0  0  0
  152.6116  140.2441  159.2894 C   0  0  0  0  0  0  0  0  0  0  0  0
  152.6155  138.8663  159.2090 O   0  0  0  0  0  0  0  0  0  0  0  0
  153.3608  138.1339  160.1705 C   0  0  0  0  0  0  0  0  0  0  0  0
  151.7584  140.9549  158.4107 C   0  0  0  0  0  0  0  0  0  0  0  0
  150.8893  140.1981  157.4070 C   0  0  1  0  0  0  0  0  0  0  0  0
  149.5034  140.3432  157.6514 O   0  0  0  0  0  0  0  0  0  0  0  0
  151.2087  140.5760  155.9417 C   0  0  0  0  0  0  0  0  0  0  0  0
  150.3682  139.8805  154.9480 N   0  0  0  0  0  0  0  0  0  0  0  0
  150.5226  138.6570  154.3615 C   0  0  0  0  0  0  0  0  0  0  0  0
  151.6321  137.6824  154.5795 C   0  0  0  0  0  0  0  0  0  0  0  0
  149.4595  138.4699  153.5304 N   0  3  0  0  0  0  0  0  0  0  0  0
  148.6202  139.5824  153.5769 C   0  0  0  0  0  0  0  0  0  0  0  0
  147.4244  139.8469  152.9164 C   0  0  0  0  0  0  0  0  0  0  0  0
  146.8122  141.0877  153.1882 C   0  0  0  0  0  0  0  0  0  0  0  0
  147.3923  142.0116  154.0812 C   0  0  0  0  0  0  0  0  0  0  0  0
  148.6073  141.7335  154.7407 C   0  0  0  0  0  0  0  0  0  0  0  0
  149.2027  140.4996  154.4753 C   0  0  0  0  0  0  0  0  0  0  0  0
  151.7397  142.3682  158.4404 C   0  0  0  0  0  0  0  0  0  0  0  0
  151.3542  146.1369  158.8491 H   0  0  0  0  0  0  0  0  0  0  0  0
  150.4350  144.7891  159.5083 H   0  0  0  0  0  0  0  0  0  0  0  0
  151.0066  144.7506  157.8229 H   0  0  0  0  0  0  0  0  0  0  0  0
  154.0464  142.8891  160.9091 H   0  0  0  0  0  0  0  0  0  0  0  0
  154.0919  140.4764  160.8790 H   0  0  0  0  0  0  0  0  0  0  0  0
  153.2538  137.0679  159.9709 H   0  0  0  0  0  0  0  0  0  0  0  0
  152.9952  138.3177  161.1818 H   0  0  0  0  0  0  0  0  0  0  0  0
  154.4238  138.3731  160.1197 H   0  0  0  0  0  0  0  0  0  0  0  0
  151.0861  139.1326  157.5288 H   0  0  0  0  0  0  0  0  0  0  0  0
  149.3605  141.1776  158.0719 H   0  0  0  0  0  0  0  0  0  0  0  0
  151.1301  141.6525  155.7896 H   0  0  0  0  0  0  0  0  0  0  0  0
  152.2459  140.3258  155.7177 H   0  0  0  0  0  0  0  0  0  0  0  0
  151.7483  137.0384  153.7076 H   0  0  0  0  0  0  0  0  0  0  0  0
  151.4162  137.0559  155.4449 H   0  0  0  0  0  0  0  0  0  0  0  0
  152.5754  138.2008  154.7492 H   0  0  0  0  0  0  0  0  0  0  0  0
  146.9796  139.1408  152.2309 H   0  0  0  0  0  0  0  0  0  0  0  0
  145.8802  141.3358  152.7016 H   0  0  0  0  0  0  0  0  0  0  0  0
  146.8949  142.9528  154.2656 H   0  0  0  0  0  0  0  0  0  0  0  0
  149.0372  142.4485  155.4256 H   0  0  0  0  0  0  0  0  0  0  0  0
  151.1038  142.9144  157.7591 H   0  0  0  0  0  0  0  0  0  0  0  0
  149.3201  137.6371  152.9730 H   0  0  0  0  0  0  0  0  0  0  0  0
  1  2  1  0  0  0  0
  1 24  1  0  0  0  0
  1 25  1  0  0  0  0
  1 26  1  0  0  0  0
  2  3  1  0  0  0  0
  3 23  1  0  0  0  0
  3  4  2  0  0  0  0
  4  5  1  0  0  0  0
  4 27  1  0  0  0  0
  5  6  2  0  0  0  0
  5 28  1  0  0  0  0
  6  7  1  0  0  0  0
  6  9  1  0  0  0  0
  7  8  1  0  0  0  0
  8 29  1  0  0  0  0
  8 30  1  0  0  0  0
  8 31  1  0  0  0  0
  9 10  1  0  0  0  0
  9 23  2  0  0  0  0
 10 11  1  0  0  0  0
 10 12  1  0  0  0  0
 10 32  1  0  0  0  0
 11 33  1  0  0  0  0
 12 13  1  0  0  0  0
 12 34  1  0  0  0  0
 12 35  1  0  0  0  0
 13 22  1  0  0  0  0
 13 14  1  0  0  0  0
 14 15  1  0  0  0  0
 14 16  2  0  0  0  0
 15 36  1  0  0  0  0
 15 37  1  0  0  0  0
 15 38  1  0  0  0  0
 16 17  1  0  0  0  0
 16 44  1  0  0  0  0
 17 22  2  0  0  0  0
 17 18  1  0  0  0  0
 18 19  2  0  0  0  0
 18 39  1  0  0  0  0
 19 20  1  0  0  0  0
 19 40  1  0  0  0  0
 20 21  2  0  0  0  0
 20 41  1  0  0  0  0
 21 22  1  0  0  0  0
 21 42  1  0  0  0  0
 23 43  1  0  0  0  0
M  CHG  1  16   1
M  END
> <s_m_source_file>
AV-unprocessed.smi

> <i_m_source_file_index>
1912

> <i_lp_mmshare_version>
43012

> <i_f3d_flags>
0

> <s_epik_input>
W0NIM11PYzFbY0hdW2NIXWMoT1tDSDNdKWMoW2NIXTEpW0NASF0oW09IXSlbQ0gyXW4oYyhuMilbQ0gzXSljKGMyMylbY0hdW2NIXVtjSF1bY0hdMw==

> <s_epik_cmdline>
J2VwaWtfcHl0aG9uJywgJy1waCcsICc3LjAnLCAnLXRuJywgJzgnLCAnLW1hJywgJzIwMCcsICctbWV0YWxfYmluZGluZycsICctaW1hZScsICc8aW5maWxlLm1hZT4nLCAnLW9tYWUnLCAnPG91dGZpbGUubWFlPic=

> <r_lp_tautomer_probability>
1

> <r_epik_Ionization_Penalty>
0.963869

> <r_epik_Ionization_Penalty_Charging>
0.963868

> <r_epik_Ionization_Penalty_Neutral>
1.34362e-06

> <r_epik_State_Penalty>
1.00924

> <r_epik_Charging_Adjusted_Penalty>
1.9731

> <i_epik_Tot_Q>
1

> <i_epik_Tot_abs_Q>
1

> <r_epik_Metal_State_Penalty>
4.98304

> <b_epik_Metal_Only>
0

> <s_lp_Force_Field>
OPLS_2005

> <r_lp_Energy>
21.1539

> <b_lp_Chiralities_Consistent>
1

> <s_lp_Variant>
AV-unprocessed.smi:1912-4

> <Gold.Version>
5.8.1

> <Gold.Id.Protein>
6NUR|6NUR_protein|mol2

> <Gold.PLP.Fitness>
55.6243

> <Gold.PLP.PLP>
-51.1999

> <Gold.PLP.part.hbond>
-2.0000

> <Gold.PLP.part.metal>
0.0000

> <Gold.PLP.part.buried>
0.3663

> <Gold.PLP.part.nonpolar>
-49.2570

> <Gold.PLP.part.repulsive>
0.0755

> <Gold.PLP.ligand.clash>
0.0000

> <Gold.PLP.ligand.torsion>
0.8238

> <Gold.PLP.Chemscore.Hbond>
2.0000

> <Gold.PLP.Chemscore.CHOScore>
0.0000

> <Gold.PLP.Chemscore.Metal>
0.0000

> <Gold.Chemscore.Hbonds>
donor molecule, donor type, donor heavy atom, donor atom, acceptor molecule, acceptor atom, score
      L1  H    16    44       P1  7948  2.00

> <Gold.PLP.Chemscore.Internal.Correction>
0.0721

> <Gold.Rescore>
     Score         DG    S(hbond)    S(metal)    S(lipo)     H(rot)  DE(clash)    DE(int)     intcor
     17.93     -18.87       0.98        0.00     135.59       2.24       0.12       0.82       ----

> <Gold.Chemscore.Fitness>
17.9283

> <Gold.Chemscore.DG>
-18.8722

> <Gold.Chemscore.ZeroCoef>
-5.4800

> <Gold.Chemscore.Hbond>
0.9804

> <Gold.Chemscore.Metal>
0.0000

> <Gold.Chemscore.Lipo>
135.5939

> <Gold.Chemscore.Internal_Hbond>
0.0000

> <Gold.Chemscore.DEClash>
0.1204

> <Gold.Chemscore.DEInternal>
0.8235

> <Gold.Chemscore.Rot>
2.2448

> <Gold.Chemscore.Internal.Correction>
   9.000000E+99

> <Gold.Chemscore.Hbonds>
donor molecule, donor type, donor heavy atom, donor atom, acceptor molecule, acceptor atom, score
      L1  H    16    44       P1  7948  0.96

> <Gold.Chemscore.Hbond.Weighted>
-3.2744

> <Gold.Chemscore.Metal.Weighted>
-0.0000

> <Gold.Chemscore.Lipo.Weighted>
-15.8645

> <Gold.Chemscore.Internal_Hbond.Weighted>
0.0000

> <Gold.Chemscore.DEClash.Weighted>
0.1204

> <Gold.Chemscore.DEInternal.Weighted>
0.8235

> <Gold.Chemscore.Rot.Weighted>
5.7467

> <Gold.Chemscore.Internal.Correction.Weighted>
   9.000000E+99

> <Gold.Protein.RotatedTorsions>
[ 6907 6896 6895 6894 ] final -154.40 input  -60.11 | X-H torsion
[ 7974 7965 7964 7962 ] final  -61.96 input  175.53 | X-H torsion
[ 8008 7997 7996 7995 ] final  100.81 input   59.86 | X-H torsion
[ 10167 10162 10161 10158 ] final    0.97 input  -65.29 | X-H torsion
[ 10718 10713 10712 10709 ] final  118.50 input   66.30 | X-H torsion
[ 10763 10752 10751 10750 ] final  -70.23 input  -60.55 | X-H torsion
[ 11005 11000 10999 10996 ] final   73.84 input  -57.11 | X-H torsion

> <Gold.Protein.ActiveResidues>
 VAL166  LYS551  ARG553  GLY616  TRP617  ASP618  TYR619  PRO620  LYS621  CYS622 
 ASP623  PHE694  ASN695  SER759  ASP760  ASP761  ALA762  ILE779  LEU786  VAL792 
 PHE793  MET794  SER795  GLU796  ALA797  LYS798  CYS799  TRP800  GLU811  SER814 

> <Gold.Protein.RotatedAtoms>
  151.2570  133.4321  159.2613 H   0  0  0  0  0  0  0  0  0  0  0  0  # atno 6907 bound_to 6896
  151.0565  134.9708  159.8249 H   0  0  0  0  0  0  0  0  0  0  0  0  # atno 6908 bound_to 6896
  152.5391  134.2522  159.8956 H   0  0  0  0  0  0  0  0  0  0  0  0  # atno 6909 bound_to 6896
  145.7971  140.8676  143.0250 H   0  0  0  0  0  0  0  0  0  0  0  0  # atno 7974 bound_to 7965
  156.1239  140.3207  155.8249 H   0  0  0  0  0  0  0  0  0  0  0  0  # atno 8008 bound_to 7997
  155.4454  140.0528  157.3023 H   0  0  0  0  0  0  0  0  0  0  0  0  # atno 8009 bound_to 7997
  154.4848  140.2068  155.9694 H   0  0  0  0  0  0  0  0  0  0  0  0  # atno 8010 bound_to 7997
  140.6704  143.7064  150.7911 H   0  0  0  0  0  0  0  0  0  0  0  0  # atno 10167 bound_to 10162
  157.6026  131.1048  150.7765 H   0  0  0  0  0  0  0  0  0  0  0  0  # atno 10718 bound_to 10713
  154.4146  135.6001  153.5973 H   0  0  0  0  0  0  0  0  0  0  0  0  # atno 10763 bound_to 10752
  152.9791  135.5938  154.4028 H   0  0  0  0  0  0  0  0  0  0  0  0  # atno 10764 bound_to 10752
  154.3845  135.2841  155.2170 H   0  0  0  0  0  0  0  0  0  0  0  0  # atno 10765 bound_to 10752
  139.9420  134.7382  156.1076 H   0  0  0  0  0  0  0  0  0  0  0  0  # atno 11005 bound_to 11000
  144.6773  140.0206  143.7484 LP  0  0  0  0  0  0  0  0  0  0  0  0  # atno 17320 bound_to 7965
  145.9916  139.3019  143.0981 LP  0  0  0  0  0  0  0  0  0  0  0  0  # atno 17321 bound_to 7965
  140.0748  143.5025  152.2561 LP  0  0  0  0  0  0  0  0  0  0  0  0  # atno 17342 bound_to 10162
  139.5970  144.7570  151.3262 LP  0  0  0  0  0  0  0  0  0  0  0  0  # atno 17343 bound_to 10162
  156.8160  130.4968  149.5349 LP  0  0  0  0  0  0  0  0  0  0  0  0  # atno 17370 bound_to 10713
  156.1103  130.6035  151.0037 LP  0  0  0  0  0  0  0  0  0  0  0  0  # atno 17371 bound_to 10713
  141.1057  133.6661  156.2859 LP  0  0  0  0  0  0  0  0  0  0  0  0  # atno 17394 bound_to 11000
  140.5928  134.5633  157.5503 LP  0  0  0  0  0  0  0  0  0  0  0  0  # atno 17395 bound_to 11000

$$$$
