AV-unprocessed.smi:1216|AV-procd|sdf|5101|dock2
  -GOLD-   22720 4153D 1   1.00000     0.00000
 Structure written by MMmdl.
 42 43  0  0  0  0  0  0  0  0  1 V2000
  146.8491  143.2593  158.6982 C   0  0  0  0  0  0  0  0  0  0  0  0
  147.2792  142.4881  157.4432 C   0  0  1  0  0  0  0  0  0  0  0  0
  146.4198  142.8784  156.2220 C   0  0  0  0  0  0  0  0  0  0  0  0
  146.6573  142.0250  155.0720 N   0  0  0  0  0  0  0  0  0  0  0  0
  147.3636  142.3471  153.9203 C   0  0  0  0  0  0  0  0  0  0  0  0
  147.3306  141.2318  153.1144 C   0  0  0  0  0  0  0  0  0  0  0  0
  146.6082  140.2203  153.7428 N   0  0  0  0  0  0  0  0  0  0  0  0
  146.2395  140.7639  154.8955 C   0  0  0  0  0  0  0  0  0  0  0  0
  148.6955  142.7485  157.1877 N   0  0  0  0  0  0  0  0  0  0  0  0
  149.7261  142.1816  157.8345 C   0  0  0  0  0  0  0  0  0  0  0  0
  149.5859  141.3557  158.7377 O   0  0  0  0  0  0  0  0  0  0  0  0
  151.1239  142.6026  157.3609 C   0  0  0  0  0  0  0  0  0  0  0  0
  152.0057  143.0271  158.4586 N   0  0  0  0  0  0  0  0  0  0  0  0
  152.4753  144.4215  158.4253 C   0  0  0  0  0  0  0  0  0  0  0  0
  151.8828  145.3072  159.5455 C   0  0  0  0  0  0  0  0  0  0  0  0
  151.5364  144.5925  160.8664 C   0  0  0  0  0  0  0  0  0  0  0  0
  152.6774  143.7476  161.4704 C   0  0  0  0  0  0  0  0  0  0  0  0
  153.3150  142.6841  160.5445 C   0  0  0  0  0  0  0  0  0  0  0  0
  152.3865  142.1646  159.4343 C   0  0  0  0  0  0  0  0  0  0  0  0
  152.0249  140.9880  159.4683 O   0  0  0  0  0  0  0  0  0  0  0  0
  145.8089  143.0503  158.9493 H   0  0  0  0  0  0  0  0  0  0  0  0
  146.9475  144.3362  158.5575 H   0  0  0  0  0  0  0  0  0  0  0  0
  147.4568  142.9783  159.5591 H   0  0  0  0  0  0  0  0  0  0  0  0
  147.1290  141.4274  157.6532 H   0  0  0  0  0  0  0  0  0  0  0  0
  145.3603  142.8121  156.4723 H   0  0  0  0  0  0  0  0  0  0  0  0
  146.6078  143.9142  155.9356 H   0  0  0  0  0  0  0  0  0  0  0  0
  147.8228  143.3137  153.7761 H   0  0  0  0  0  0  0  0  0  0  0  0
  147.7662  141.0811  152.1377 H   0  0  0  0  0  0  0  0  0  0  0  0
  145.6566  140.2304  155.6320 H   0  0  0  0  0  0  0  0  0  0  0  0
  148.9085  143.4116  156.4566 H   0  0  0  0  0  0  0  0  0  0  0  0
  151.5727  141.7642  156.8267 H   0  0  0  0  0  0  0  0  0  0  0  0
  151.0292  143.3982  156.6193 H   0  0  0  0  0  0  0  0  0  0  0  0
  153.5640  144.4346  158.4796 H   0  0  0  0  0  0  0  0  0  0  0  0
  152.2565  144.8765  157.4584 H   0  0  0  0  0  0  0  0  0  0  0  0
  152.5706  146.1299  159.7439 H   0  0  0  0  0  0  0  0  0  0  0  0
  150.9699  145.7722  159.1722 H   0  0  0  0  0  0  0  0  0  0  0  0
  151.2261  145.3389  161.5984 H   0  0  0  0  0  0  0  0  0  0  0  0
  150.6579  143.9633  160.7171 H   0  0  0  0  0  0  0  0  0  0  0  0
  153.4639  144.4162  161.8221 H   0  0  0  0  0  0  0  0  0  0  0  0
  152.2968  143.2507  162.3635 H   0  0  0  0  0  0  0  0  0  0  0  0
  154.2224  143.0797  160.0887 H   0  0  0  0  0  0  0  0  0  0  0  0
  153.6536  141.8420  161.1494 H   0  0  0  0  0  0  0  0  0  0  0  0
  1  2  1  0  0  0  0
  1 21  1  0  0  0  0
  1 22  1  0  0  0  0
  1 23  1  0  0  0  0
  2  3  1  0  0  0  0
  2  9  1  0  0  0  0
  2 24  1  0  0  0  0
  3  4  1  0  0  0  0
  3 25  1  0  0  0  0
  3 26  1  0  0  0  0
  4  8  1  0  0  0  0
  4  5  1  0  0  0  0
  5  6  2  0  0  0  0
  5 27  1  0  0  0  0
  6  7  1  0  0  0  0
  6 28  1  0  0  0  0
  7  8  2  0  0  0  0
  8 29  1  0  0  0  0
  9 10  1  0  0  0  0
  9 30  1  0  0  0  0
 10 11  2  0  0  0  0
 10 12  1  0  0  0  0
 12 13  1  0  0  0  0
 12 31  1  0  0  0  0
 12 32  1  0  0  0  0
 13 19  1  0  0  0  0
 13 14  1  0  0  0  0
 14 15  1  0  0  0  0
 14 33  1  0  0  0  0
 14 34  1  0  0  0  0
 15 16  1  0  0  0  0
 15 35  1  0  0  0  0
 15 36  1  0  0  0  0
 16 17  1  0  0  0  0
 16 37  1  0  0  0  0
 16 38  1  0  0  0  0
 17 18  1  0  0  0  0
 17 39  1  0  0  0  0
 17 40  1  0  0  0  0
 18 19  1  0  0  0  0
 18 41  1  0  0  0  0
 18 42  1  0  0  0  0
 19 20  2  0  0  0  0
M  END
> <s_m_source_file>
AV-unprocessed.smi

> <i_m_source_file_index>
1216

> <i_lp_mmshare_version>
43012

> <i_f3d_flags>
0

> <s_epik_input>
W2NIXTFuW2NIXVtjSF1uMVtDSDJdW0NAQEhdKFtDSDNdKVtOSF1DKD1PKVtDSDJdTjJbQ0gyXVtDSDJdW0NIMl1bQ0gyXVtDSDJdQzI9Tw==

> <s_epik_cmdline>
J2VwaWtfcHl0aG9uJywgJy1waCcsICc3LjAnLCAnLXRuJywgJzgnLCAnLW1hJywgJzIwMCcsICctbWV0YWxfYmluZGluZycsICctaW1hZScsICc8aW5maWxlLm1hZT4nLCAnLW9tYWUnLCAnPG91dGZpbGUubWFlPic=

> <r_lp_tautomer_probability>
1

> <r_epik_Ionization_Penalty>
0.623868

> <r_epik_Ionization_Penalty_Charging>
0.623868

> <r_epik_Ionization_Penalty_Neutral>
4.50838e-08

> <r_epik_State_Penalty>
0.640129

> <r_epik_Charging_Adjusted_Penalty>
1.264

> <i_epik_Tot_Q>
0

> <i_epik_Tot_abs_Q>
0

> <r_epik_Metal_State_Penalty>
0.307431

> <b_epik_Metal_Only>
0

> <s_lp_Force_Field>
OPLS_2005

> <r_lp_Energy>
20.3142

> <b_lp_Chiralities_Consistent>
1

> <s_lp_Variant>
AV-unprocessed.smi:1216-4

> <Gold.Version>
5.8.1

> <Gold.Id.Protein>
6NUR|6NUR_protein|mol2

> <Gold.PLP.Fitness>
49.6656

> <Gold.PLP.PLP>
-41.8195

> <Gold.PLP.part.hbond>
-2.2450

> <Gold.PLP.part.metal>
0.0000

> <Gold.PLP.part.buried>
-5.1654

> <Gold.PLP.part.nonpolar>
-34.5752

> <Gold.PLP.part.repulsive>
0.1978

> <Gold.PLP.ligand.clash>
0.0000

> <Gold.PLP.ligand.torsion>
0.5701

> <Gold.PLP.Chemscore.Hbond>
1.0000

> <Gold.PLP.Chemscore.CHOScore>
1.9913

> <Gold.PLP.Chemscore.Metal>
0.0000

> <Gold.Chemscore.Hbonds>
donor molecule, donor type, donor heavy atom, donor atom, acceptor molecule, acceptor atom, score
      L1  H     9    30       P1  8028  0.99
      L1  C     5    27       P1  8028  0.91
      L1  C     6    28       P1  7957  1.00

> <Gold.PLP.Chemscore.Internal.Correction>
0.0125

> <Gold.Rescore>
     Score         DG    S(hbond)    S(metal)    S(lipo)     H(rot)  DE(clash)    DE(int)     intcor
     11.88     -14.19       0.97        0.00      93.47       2.13       0.42       1.89       ----

> <Gold.Chemscore.Fitness>
11.8839

> <Gold.Chemscore.DG>
-14.1898

> <Gold.Chemscore.ZeroCoef>
-5.4800

> <Gold.Chemscore.Hbond>
0.9691

> <Gold.Chemscore.Metal>
0.0000

> <Gold.Chemscore.Lipo>
93.4656

> <Gold.Chemscore.Internal_Hbond>
0.0000

> <Gold.Chemscore.DEClash>
0.4178

> <Gold.Chemscore.DEInternal>
1.8881

> <Gold.Chemscore.Rot>
2.1338

> <Gold.Chemscore.Internal.Correction>
   9.000000E+99

> <Gold.Chemscore.Hbonds>
donor molecule, donor type, donor heavy atom, donor atom, acceptor molecule, acceptor atom, score
      L1  H     9    30       P1  8028  0.88

> <Gold.Chemscore.Hbond.Weighted>
-3.2367

> <Gold.Chemscore.Metal.Weighted>
-0.0000

> <Gold.Chemscore.Lipo.Weighted>
-10.9355

> <Gold.Chemscore.Internal_Hbond.Weighted>
0.0000

> <Gold.Chemscore.DEClash.Weighted>
0.4178

> <Gold.Chemscore.DEInternal.Weighted>
1.8881

> <Gold.Chemscore.Rot.Weighted>
5.4625

> <Gold.Chemscore.Internal.Correction.Weighted>
   9.000000E+99

> <Gold.Protein.RotatedTorsions>
[ 6907 6896 6895 6894 ] final  155.34 input  -60.11 | X-H torsion
[ 7974 7965 7964 7962 ] final  -28.60 input  175.53 | X-H torsion
[ 8008 7997 7996 7995 ] final -171.29 input   59.86 | X-H torsion
[ 10167 10162 10161 10158 ] final -101.45 input  -65.29 | X-H torsion
[ 10718 10713 10712 10709 ] final   84.75 input   66.30 | X-H torsion
[ 10763 10752 10751 10750 ] final  156.82 input  -60.55 | X-H torsion
[ 11005 11000 10999 10996 ] final   54.47 input  -57.11 | X-H torsion

> <Gold.Protein.ActiveResidues>
 VAL166  LYS551  ARG553  GLY616  TRP617  ASP618  TYR619  PRO620  LYS621  CYS622 
 ASP623  PHE694  ASN695  SER759  ASP760  ASP761  ALA762  ILE779  LEU786  VAL792 
 PHE793  MET794  SER795  GLU796  ALA797  LYS798  CYS799  TRP800  GLU811  SER814 

> <Gold.Protein.RotatedAtoms>
  152.0455  133.3996  159.4354 H   0  0  0  0  0  0  0  0  0  0  0  0  # atno 6907 bound_to 6896
  150.6873  134.3367  159.4859 H   0  0  0  0  0  0  0  0  0  0  0  0  # atno 6908 bound_to 6896
  152.1170  134.9233  160.0615 H   0  0  0  0  0  0  0  0  0  0  0  0  # atno 6909 bound_to 6896
  146.1276  140.5304  142.8707 H   0  0  0  0  0  0  0  0  0  0  0  0  # atno 7974 bound_to 7965
  155.9296  140.1089  157.1143 H   0  0  0  0  0  0  0  0  0  0  0  0  # atno 8008 bound_to 7997
  154.4068  140.1240  156.4851 H   0  0  0  0  0  0  0  0  0  0  0  0  # atno 8009 bound_to 7997
  155.7096  140.3471  155.4970 H   0  0  0  0  0  0  0  0  0  0  0  0  # atno 8010 bound_to 7997
  140.2412  143.3537  152.0800 H   0  0  0  0  0  0  0  0  0  0  0  0  # atno 10167 bound_to 10162
  157.6903  131.0146  150.2719 H   0  0  0  0  0  0  0  0  0  0  0  0  # atno 10718 bound_to 10713
  154.1904  135.2795  155.3024 H   0  0  0  0  0  0  0  0  0  0  0  0  # atno 10763 bound_to 10752
  154.5933  135.5553  153.7304 H   0  0  0  0  0  0  0  0  0  0  0  0  # atno 10764 bound_to 10752
  153.0114  135.6374  154.2042 H   0  0  0  0  0  0  0  0  0  0  0  0  # atno 10765 bound_to 10752
  140.0684  134.5505  155.9074 H   0  0  0  0  0  0  0  0  0  0  0  0  # atno 11005 bound_to 11000
  144.7658  140.5527  143.6704 LP  0  0  0  0  0  0  0  0  0  0  0  0  # atno 17320 bound_to 7965
  145.5330  139.1475  143.3489 LP  0  0  0  0  0  0  0  0  0  0  0  0  # atno 17321 bound_to 7965
  139.5077  144.6836  151.5945 LP  0  0  0  0  0  0  0  0  0  0  0  0  # atno 17342 bound_to 10162
  140.6112  143.9432  150.6455 LP  0  0  0  0  0  0  0  0  0  0  0  0  # atno 17343 bound_to 10162
  156.3280  130.3796  149.7516 LP  0  0  0  0  0  0  0  0  0  0  0  0  # atno 17370 bound_to 10713
  156.5065  130.8152  151.3152 LP  0  0  0  0  0  0  0  0  0  0  0  0  # atno 17371 bound_to 10713
  141.2002  133.6611  156.5883 LP  0  0  0  0  0  0  0  0  0  0  0  0  # atno 17394 bound_to 11000
  140.3665  134.7643  157.4569 LP  0  0  0  0  0  0  0  0  0  0  0  0  # atno 17395 bound_to 11000

$$$$
