AV-unprocessed.smi:3061|AV-procd|sdf|11681|dock10
  -GOLD-   2272017 83D 1   1.00000     0.00000
 Structure written by MMmdl.
 35 36  0  0  0  0  0  0  0  0  1 V2000
  146.5175  140.3746  154.2594 C   0  0  0  0  0  0  0  0  0  0  0  0
  146.2116  138.9137  154.6156 C   0  0  2  0  0  0  0  0  0  0  0  0
  147.4415  138.0092  154.3873 C   0  0  0  0  0  0  0  0  0  0  0  0
  148.6903  138.6620  154.7398 N   0  0  0  0  0  0  0  0  0  0  0  0
  149.8312  138.7792  154.0585 C   0  0  0  0  0  0  0  0  0  0  0  0
  150.7671  139.4683  154.6964 N   0  0  0  0  0  0  0  0  0  0  0  0
  150.0893  139.7648  155.8450 C   0  0  0  0  0  0  0  0  0  0  0  0
  148.8419  139.3014  155.9235 N   0  0  0  0  0  0  0  0  0  0  0  0
  145.0746  138.4565  153.8174 N   0  0  0  0  0  0  0  0  0  0  0  0
  144.5171  137.2365  153.8782 C   0  0  0  0  0  0  0  0  0  0  0  0
  144.8825  136.3632  154.6661 O   0  0  0  0  0  0  0  0  0  0  0  0
  143.3865  136.9499  152.8788 C   0  0  1  0  0  0  0  0  0  0  0  0
  142.9160  135.4842  152.9776 C   0  0  0  0  0  0  0  0  0  0  0  0
  141.5076  135.5872  153.5387 C   0  0  0  0  0  0  0  0  0  0  0  0
  140.8396  134.6031  153.8525 O   0  0  0  0  0  0  0  0  0  0  0  0
  141.1266  136.8634  153.6425 N   0  0  0  0  0  0  0  0  0  0  0  0
  139.8460  137.3309  154.1549 C   0  0  0  0  0  0  0  0  0  0  0  0
  142.1251  137.7980  153.1526 C   0  0  0  0  0  0  0  0  0  0  0  0
  147.3446  140.7587  154.8570 H   0  0  0  0  0  0  0  0  0  0  0  0
  145.6535  141.0132  154.4459 H   0  0  0  0  0  0  0  0  0  0  0  0
  146.7897  140.4797  153.2086 H   0  0  0  0  0  0  0  0  0  0  0  0
  145.9546  138.8895  155.6763 H   0  0  0  0  0  0  0  0  0  0  0  0
  147.3480  137.0838  154.9585 H   0  0  0  0  0  0  0  0  0  0  0  0
  147.5029  137.7210  153.3373 H   0  0  0  0  0  0  0  0  0  0  0  0
  149.9765  138.3608  153.0733 H   0  0  0  0  0  0  0  0  0  0  0  0
  150.5286  140.3383  156.6480 H   0  0  0  0  0  0  0  0  0  0  0  0
  144.7085  139.1071  153.1373 H   0  0  0  0  0  0  0  0  0  0  0  0
  143.7455  137.1528  151.8684 H   0  0  0  0  0  0  0  0  0  0  0  0
  142.8823  135.0149  151.9941 H   0  0  0  0  0  0  0  0  0  0  0  0
  143.5396  134.8646  153.6244 H   0  0  0  0  0  0  0  0  0  0  0  0
  139.0217  136.8621  153.6164 H   0  0  0  0  0  0  0  0  0  0  0  0
  139.7498  138.4113  154.0448 H   0  0  0  0  0  0  0  0  0  0  0  0
  139.7486  137.0879  155.2136 H   0  0  0  0  0  0  0  0  0  0  0  0
  142.2931  138.5943  153.8802 H   0  0  0  0  0  0  0  0  0  0  0  0
  141.7648  138.2630  152.2342 H   0  0  0  0  0  0  0  0  0  0  0  0
  1  2  1  0  0  0  0
  1 19  1  0  0  0  0
  1 20  1  0  0  0  0
  1 21  1  0  0  0  0
  2  3  1  0  0  0  0
  2  9  1  0  0  0  0
  2 22  1  0  0  0  0
  3  4  1  0  0  0  0
  3 23  1  0  0  0  0
  3 24  1  0  0  0  0
  4  8  1  0  0  0  0
  4  5  1  0  0  0  0
  5  6  2  0  0  0  0
  5 25  1  0  0  0  0
  6  7  1  0  0  0  0
  7  8  2  0  0  0  0
  7 26  1  0  0  0  0
  9 10  1  0  0  0  0
  9 27  1  0  0  0  0
 10 11  2  0  0  0  0
 10 12  1  0  0  0  0
 12 18  1  0  0  0  0
 12 13  1  0  0  0  0
 12 28  1  0  0  0  0
 13 14  1  0  0  0  0
 13 29  1  0  0  0  0
 13 30  1  0  0  0  0
 14 15  2  0  0  0  0
 14 16  1  0  0  0  0
 16 17  1  0  0  0  0
 16 18  1  0  0  0  0
 17 31  1  0  0  0  0
 17 32  1  0  0  0  0
 17 33  1  0  0  0  0
 18 34  1  0  0  0  0
 18 35  1  0  0  0  0
M  END
> <s_m_source_file>
AV-unprocessed.smi

> <i_m_source_file_index>
3061

> <i_lp_mmshare_version>
43012

> <i_f3d_flags>
0

> <s_epik_input>
bjFbY0hdbltjSF1uMVtDSDJdW0NAQEhdKFtDSDNdKVtOSF1DKD1PKVtDQEBIXTJbQ0gyXUMoPU8pTihbQ0gzXSlbQ0gyXTI=

> <s_epik_cmdline>
J2VwaWtfcHl0aG9uJywgJy1waCcsICc3LjAnLCAnLXRuJywgJzgnLCAnLW1hJywgJzIwMCcsICctbWV0YWxfYmluZGluZycsICctaW1hZScsICc8aW5maWxlLm1hZT4nLCAnLW9tYWUnLCAnPG91dGZpbGUubWFlPic=

> <r_lp_tautomer_probability>
1

> <r_epik_Ionization_Penalty>
4.97611e-05

> <r_epik_Ionization_Penalty_Charging>
0

> <r_epik_Ionization_Penalty_Neutral>
4.97611e-05

> <r_epik_State_Penalty>
-0

> <r_epik_Charging_Adjusted_Penalty>
0

> <i_epik_Tot_Q>
0

> <i_epik_Tot_abs_Q>
0

> <r_epik_Metal_State_Penalty>
-0

> <b_epik_Metal_Only>
0

> <s_lp_Force_Field>
OPLS_2005

> <r_lp_Energy>
12.1986

> <b_lp_Chiralities_Consistent>
1

> <s_lp_Variant>
AV-unprocessed.smi:3061-3

> <Gold.Version>
5.8.1

> <Gold.Id.Protein>
6NUR|6NUR_protein|mol2

> <Gold.PLP.Fitness>
38.1968

> <Gold.PLP.PLP>
-24.7747

> <Gold.PLP.part.hbond>
-4.0000

> <Gold.PLP.part.metal>
0.0000

> <Gold.PLP.part.buried>
-4.3666

> <Gold.PLP.part.nonpolar>
-18.4085

> <Gold.PLP.part.repulsive>
0.3465

> <Gold.PLP.ligand.clash>
0.0000

> <Gold.PLP.ligand.torsion>
0.3919

> <Gold.PLP.Chemscore.Hbond>
3.0182

> <Gold.PLP.Chemscore.CHOScore>
1.7090

> <Gold.PLP.Chemscore.Metal>
0.0000

> <Gold.Chemscore.Hbonds>
donor molecule, donor type, donor heavy atom, donor atom, acceptor molecule, acceptor atom, score
      L1  H     9    27       P1 10175  1.00
      P1  H  7989  7998       L1     6  0.99
      P1  H 11000 11005       L1    15  1.00
      L1  C     5    25       P1  7948  0.81
      L1  C     5    25       P1  7957  0.66

> <Gold.PLP.Chemscore.Internal.Correction>
0.0242

> <Gold.Rescore>
     Score         DG    S(hbond)    S(metal)    S(lipo)     H(rot)  DE(clash)    DE(int)     intcor
     11.47     -11.89       2.80        0.00      27.81       2.42       0.16       0.26       ----

> <Gold.Chemscore.Fitness>
11.4677

> <Gold.Chemscore.DG>
-11.8907

> <Gold.Chemscore.ZeroCoef>
-5.4800

> <Gold.Chemscore.Hbond>
2.7998

> <Gold.Chemscore.Metal>
0.0000

> <Gold.Chemscore.Lipo>
27.8100

> <Gold.Chemscore.Internal_Hbond>
0.0000

> <Gold.Chemscore.DEClash>
0.1625

> <Gold.Chemscore.DEInternal>
0.2604

> <Gold.Chemscore.Rot>
2.4197

> <Gold.Chemscore.Internal.Correction>
   9.000000E+99

> <Gold.Chemscore.Hbonds>
donor molecule, donor type, donor heavy atom, donor atom, acceptor molecule, acceptor atom, score
      L1  H     9    27       P1 10175  0.99
      P1  H  7989  7998       L1     6  0.76
      P1  H 10995 11001       L1    15  0.01
      P1  H 11000 11005       L1    15  0.98

> <Gold.Chemscore.Hbond.Weighted>
-9.3514

> <Gold.Chemscore.Metal.Weighted>
-0.0000

> <Gold.Chemscore.Lipo.Weighted>
-3.2538

> <Gold.Chemscore.Internal_Hbond.Weighted>
0.0000

> <Gold.Chemscore.DEClash.Weighted>
0.1625

> <Gold.Chemscore.DEInternal.Weighted>
0.2604

> <Gold.Chemscore.Rot.Weighted>
6.1945

> <Gold.Chemscore.Internal.Correction.Weighted>
   9.000000E+99

> <Gold.Protein.RotatedTorsions>
[ 6907 6896 6895 6894 ] final -135.28 input  -60.11 | X-H torsion
[ 7974 7965 7964 7962 ] final   18.27 input  175.53 | X-H torsion
[ 8008 7997 7996 7995 ] final   42.66 input   59.86 | X-H torsion
[ 10167 10162 10161 10158 ] final   72.88 input  -65.29 | X-H torsion
[ 10718 10713 10712 10709 ] final  -26.44 input   66.30 | X-H torsion
[ 10763 10752 10751 10750 ] final  174.60 input  -60.55 | X-H torsion
[ 11005 11000 10999 10996 ] final   22.84 input  -57.11 | X-H torsion

> <Gold.Protein.ActiveResidues>
 VAL166  LYS551  ARG553  GLY616  TRP617  ASP618  TYR619  PRO620  LYS621  CYS622 
 ASP623  PHE694  ASN695  SER759  ASP760  ASP761  ALA762  ILE779  LEU786  VAL792 
 PHE793  MET794  SER795  GLU796  ALA797  LYS798  CYS799  TRP800  GLU811  SER814 

> <Gold.Protein.RotatedAtoms>
  150.9960  133.6102  159.2701 H   0  0  0  0  0  0  0  0  0  0  0  0  # atno 6907 bound_to 6896
  151.3306  135.0840  159.9347 H   0  0  0  0  0  0  0  0  0  0  0  0  # atno 6908 bound_to 6896
  152.5260  133.9590  159.7762 H   0  0  0  0  0  0  0  0  0  0  0  0  # atno 6909 bound_to 6896
  146.2190  139.8481  142.8628 H   0  0  0  0  0  0  0  0  0  0  0  0  # atno 7974 bound_to 7965
  155.2899  140.3378  155.4253 H   0  0  0  0  0  0  0  0  0  0  0  0  # atno 8008 bound_to 7997
  156.2051  140.1747  156.7858 H   0  0  0  0  0  0  0  0  0  0  0  0  # atno 8009 bound_to 7997
  154.5609  140.0687  156.8802 H   0  0  0  0  0  0  0  0  0  0  0  0  # atno 8010 bound_to 7997
  140.0305  144.5469  150.7511 H   0  0  0  0  0  0  0  0  0  0  0  0  # atno 10167 bound_to 10162
  156.4512  130.4484  149.6988 H   0  0  0  0  0  0  0  0  0  0  0  0  # atno 10718 bound_to 10713
  154.4561  135.2766  155.1746 H   0  0  0  0  0  0  0  0  0  0  0  0  # atno 10763 bound_to 10752
  154.3554  135.6141  153.5667 H   0  0  0  0  0  0  0  0  0  0  0  0  # atno 10764 bound_to 10752
  152.9851  135.5821  154.4914 H   0  0  0  0  0  0  0  0  0  0  0  0  # atno 10765 bound_to 10752
  140.3762  134.1969  155.7665 H   0  0  0  0  0  0  0  0  0  0  0  0  # atno 11005 bound_to 11000
  145.2829  141.0144  143.3707 LP  0  0  0  0  0  0  0  0  0  0  0  0  # atno 17320 bound_to 7965
  144.9136  139.4498  143.6575 LP  0  0  0  0  0  0  0  0  0  0  0  0  # atno 17321 bound_to 7965
  140.7304  143.2683  151.3972 LP  0  0  0  0  0  0  0  0  0  0  0  0  # atno 17342 bound_to 10162
  139.6079  144.1159  152.2268 LP  0  0  0  0  0  0  0  0  0  0  0  0  # atno 17343 bound_to 10162
  156.3814  130.7581  151.2574 LP  0  0  0  0  0  0  0  0  0  0  0  0  # atno 17370 bound_to 10713
  157.7502  131.0294  150.4093 LP  0  0  0  0  0  0  0  0  0  0  0  0  # atno 17371 bound_to 10713
  141.1938  133.8142  157.0782 LP  0  0  0  0  0  0  0  0  0  0  0  0  # atno 17394 bound_to 11000
  140.0513  134.9804  157.1142 LP  0  0  0  0  0  0  0  0  0  0  0  0  # atno 17395 bound_to 11000

$$$$
