AV-unprocessed.smi:102|AV-procd|sdf|946|dock6
  -GOLD-   2262017473D 1   1.00000     0.00000
 Structure written by MMmdl.
 44 45  0  0  0  0  0  0  0  0  1 V2000
  152.3259  144.4763  158.5090 C   0  0  0  0  0  0  0  0  0  0  0  0
  151.2687  143.3801  158.5007 C   0  0  0  0  0  0  0  0  0  0  0  0
  150.6094  143.1153  159.5062 O   0  0  0  0  0  0  0  0  0  0  0  0
  151.1672  142.7743  157.3073 O   0  0  0  0  0  0  0  0  0  0  0  0
  150.1618  141.7957  157.0985 C   0  0  0  0  0  0  0  0  0  0  0  0
  150.1646  141.3741  155.6171 C   0  0  1  0  0  0  0  0  0  0  0  0
  151.2540  140.4807  155.3836 O   0  0  0  0  0  0  0  0  0  0  0  0
  150.8332  139.1439  155.3799 C   0  0  1  0  0  0  0  0  0  0  0  0
  151.5860  138.3633  156.4398 N   0  0  0  0  0  0  0  0  0  0  0  0
  151.9764  138.9261  157.6490 C   0  0  0  0  0  0  0  0  0  0  0  0
  152.6269  138.2284  158.6097 C   0  0  0  0  0  0  0  0  0  0  0  0
  152.9706  138.8408  159.7554 F   0  0  0  0  0  0  0  0  0  0  0  0
  152.9599  136.8207  158.4124 C   0  0  0  0  0  0  0  0  0  0  0  0
  153.5423  136.1054  159.2252 O   0  0  0  0  0  0  0  0  0  0  0  0
  152.5590  136.3002  157.1787 N   0  0  0  0  0  0  0  0  0  0  0  0
  151.8883  137.0084  156.1804 C   0  0  0  0  0  0  0  0  0  0  0  0
  151.5751  136.4496  155.1302 O   0  0  0  0  0  0  0  0  0  0  0  0
  149.3056  139.1370  155.5981 C   0  0  1  0  0  0  0  0  0  0  0  0
  148.9846  138.8878  156.9678 O   0  0  0  0  0  0  0  0  0  0  0  0
  148.9937  137.6394  157.4643 C   0  0  0  0  0  0  0  0  0  0  0  0
  148.6481  137.6060  158.9467 C   0  0  0  0  0  0  0  0  0  0  0  0
  149.2461  136.6093  156.8401 O   0  0  0  0  0  0  0  0  0  0  0  0
  148.9453  140.5568  155.1829 C   0  0  1  0  0  0  0  0  0  0  0  0
  147.7170  141.0274  155.7279 O   0  0  0  0  0  0  0  0  0  0  0  0
  147.0413  142.0177  155.1190 C   0  0  0  0  0  0  0  0  0  0  0  0
  145.7740  142.4027  155.8700 C   0  0  0  0  0  0  0  0  0  0  0  0
  147.3605  142.5725  154.0676 O   0  0  0  0  0  0  0  0  0  0  0  0
  152.7702  135.3299  156.9965 H   0  0  0  0  0  0  0  0  0  0  0  0
  153.2206  144.1475  157.9802 H   0  0  0  0  0  0  0  0  0  0  0  0
  152.6051  144.7297  159.5319 H   0  0  0  0  0  0  0  0  0  0  0  0
  151.9440  145.3734  158.0218 H   0  0  0  0  0  0  0  0  0  0  0  0
  150.3217  140.9338  157.7462 H   0  0  0  0  0  0  0  0  0  0  0  0
  149.1995  142.2308  157.3693 H   0  0  0  0  0  0  0  0  0  0  0  0
  150.2641  142.2601  154.9892 H   0  0  0  0  0  0  0  0  0  0  0  0
  151.1293  138.7055  154.4251 H   0  0  0  0  0  0  0  0  0  0  0  0
  151.7672  139.9631  157.8583 H   0  0  0  0  0  0  0  0  0  0  0  0
  148.8559  138.3962  154.9355 H   0  0  0  0  0  0  0  0  0  0  0  0
  147.9423  138.3991  159.1943 H   0  0  0  0  0  0  0  0  0  0  0  0
  149.5484  137.7439  159.5459 H   0  0  0  0  0  0  0  0  0  0  0  0
  148.1980  136.6492  159.2114 H   0  0  0  0  0  0  0  0  0  0  0  0
  148.9033  140.5961  154.0929 H   0  0  0  0  0  0  0  0  0  0  0  0
  145.9817  142.5211  156.9335 H   0  0  0  0  0  0  0  0  0  0  0  0
  145.0151  141.6297  155.7476 H   0  0  0  0  0  0  0  0  0  0  0  0
  145.3744  143.3430  155.4893 H   0  0  0  0  0  0  0  0  0  0  0  0
  1  2  1  0  0  0  0
  1 29  1  0  0  0  0
  1 30  1  0  0  0  0
  1 31  1  0  0  0  0
  2  3  2  0  0  0  0
  2  4  1  0  0  0  0
  4  5  1  0  0  0  0
  5  6  1  0  0  0  0
  5 32  1  0  0  0  0
  5 33  1  0  0  0  0
  6 23  1  0  0  0  0
  6  7  1  0  0  0  0
  6 34  1  0  0  0  0
  7  8  1  0  0  0  0
  8  9  1  0  0  0  0
  8 18  1  0  0  0  0
  8 35  1  0  0  0  0
  9 16  1  0  0  0  0
  9 10  1  0  0  0  0
 10 11  2  0  0  0  0
 10 36  1  0  0  0  0
 11 12  1  0  0  0  0
 11 13  1  0  0  0  0
 13 14  2  0  0  0  0
 13 15  1  0  0  0  0
 15 28  1  0  0  0  0
 15 16  1  0  0  0  0
 16 17  2  0  0  0  0
 18 19  1  0  0  0  0
 18 23  1  0  0  0  0
 18 37  1  0  0  0  0
 19 20  1  0  0  0  0
 20 21  1  0  0  0  0
 20 22  2  0  0  0  0
 21 38  1  0  0  0  0
 21 39  1  0  0  0  0
 21 40  1  0  0  0  0
 23 24  1  0  0  0  0
 23 41  1  0  0  0  0
 24 25  1  0  0  0  0
 25 26  1  0  0  0  0
 25 27  2  0  0  0  0
 26 42  1  0  0  0  0
 26 43  1  0  0  0  0
 26 44  1  0  0  0  0
M  END
> <s_m_source_file>
AV-unprocessed.smi

> <i_m_source_file_index>
102

> <i_lp_mmshare_version>
43012

> <i_f3d_flags>
0

> <s_epik_input>
W0NIM11DKD1PKU9bQ0gyXVtDQEBIXTFPW0NASF0oW0NAQEhdKE9DKD1PKVtDSDNdKVtDQEhdMU9DKD1PKVtDSDNdKW4yW2NIXWMoRiljKD1PKVtuSF1jMj1P

> <s_epik_cmdline>
J2VwaWtfcHl0aG9uJywgJy1waCcsICc3LjAnLCAnLXRuJywgJzgnLCAnLW1hJywgJzIwMCcsICctbWV0YWxfYmluZGluZycsICctaW1hZScsICc8aW5maWxlLm1hZT4nLCAnLW9tYWUnLCAnPG91dGZpbGUubWFlPic=

> <r_lp_tautomer_probability>
0.999537

> <r_epik_Ionization_Penalty>
0.058267

> <r_epik_Ionization_Penalty_Charging>
0.058267

> <r_epik_Ionization_Penalty_Neutral>
6.57791e-16

> <r_epik_State_Penalty>
0.0503774

> <r_epik_Charging_Adjusted_Penalty>
0.108644

> <i_epik_Tot_Q>
0

> <i_epik_Tot_abs_Q>
0

> <r_epik_Metal_State_Penalty>
2.6644

> <b_epik_Metal_Only>
0

> <s_epik_Chemistry_Notes>
This compound has an ester and may undergo hydrolysis at high or low pH. This compound contains an acetal/aminal-like group ( X-CH(R)-Y where X, Y are N, S, or O) that may be acid/base labile, releasing an aldehyde.

> <s_lp_Force_Field>
OPLS_2005

> <r_lp_Energy>
16.4745

> <b_lp_Chiralities_Consistent>
1

> <s_lp_Variant>
AV-unprocessed.smi:102-2

> <Gold.Version>
5.8.1

> <Gold.Id.Protein>
6NUR|6NUR_protein|mol2

> <Gold.PLP.Fitness>
38.1444

> <Gold.PLP.PLP>
-31.7839

> <Gold.PLP.part.hbond>
-3.7396

> <Gold.PLP.part.metal>
0.0000

> <Gold.PLP.part.buried>
-5.7822

> <Gold.PLP.part.nonpolar>
-24.1795

> <Gold.PLP.part.repulsive>
1.2548

> <Gold.PLP.ligand.clash>
0.0000

> <Gold.PLP.ligand.torsion>
1.2707

> <Gold.PLP.Chemscore.Hbond>
2.9033

> <Gold.PLP.Chemscore.CHOScore>
0.0000

> <Gold.PLP.Chemscore.Metal>
0.0000

> <Gold.Chemscore.Hbonds>
donor molecule, donor type, donor heavy atom, donor atom, acceptor molecule, acceptor atom, score
      P1  H  6896  6907       L1    14  1.00
      P1  H  7989  7998       L1     7  0.91
      P1  H 10752 10765       L1    17  1.00

> <Gold.PLP.Chemscore.Internal.Correction>
0.1921

> <Gold.Rescore>
     Score         DG    S(hbond)    S(metal)    S(lipo)     H(rot)  DE(clash)    DE(int)     intcor
      4.16      -7.48       1.95        0.00      50.03       4.05       0.00       3.32       ----

> <Gold.Chemscore.Fitness>
4.1614

> <Gold.Chemscore.DG>
-7.4776

> <Gold.Chemscore.ZeroCoef>
-5.4800

> <Gold.Chemscore.Hbond>
1.9513

> <Gold.Chemscore.Metal>
0.0000

> <Gold.Chemscore.Lipo>
50.0304

> <Gold.Chemscore.Internal_Hbond>
0.0000

> <Gold.Chemscore.DEClash>
0.0009

> <Gold.Chemscore.DEInternal>
3.3153

> <Gold.Chemscore.Rot>
4.0520

> <Gold.Chemscore.Internal.Correction>
   9.000000E+99

> <Gold.Chemscore.Hbonds>
donor molecule, donor type, donor heavy atom, donor atom, acceptor molecule, acceptor atom, score
      P1  H  6896  6907       L1    14  0.75
      P1  H  7989  7998       L1     7  0.11
      P1  H 10752 10765       L1    17  0.40

> <Gold.Chemscore.Hbond.Weighted>
-6.5172

> <Gold.Chemscore.Metal.Weighted>
-0.0000

> <Gold.Chemscore.Lipo.Weighted>
-5.8536

> <Gold.Chemscore.Internal_Hbond.Weighted>
0.0000

> <Gold.Chemscore.DEClash.Weighted>
0.0009

> <Gold.Chemscore.DEInternal.Weighted>
3.3153

> <Gold.Chemscore.Rot.Weighted>
10.3732

> <Gold.Chemscore.Internal.Correction.Weighted>
   9.000000E+99

> <Gold.Protein.RotatedTorsions>
[ 6907 6896 6895 6894 ] final   50.12 input  -60.11 | X-H torsion
[ 7974 7965 7964 7962 ] final   -3.96 input  175.53 | X-H torsion
[ 8008 7997 7996 7995 ] final  112.30 input   59.86 | X-H torsion
[ 10167 10162 10161 10158 ] final   20.53 input  -65.29 | X-H torsion
[ 10718 10713 10712 10709 ] final   28.19 input   66.30 | X-H torsion
[ 10763 10752 10751 10750 ] final -171.80 input  -60.55 | X-H torsion
[ 11005 11000 10999 10996 ] final  -64.33 input  -57.11 | X-H torsion

> <Gold.Protein.ActiveResidues>
 VAL166  LYS551  ARG553  GLY616  TRP617  ASP618  TYR619  PRO620  LYS621  CYS622 
 ASP623  PHE694  ASN695  SER759  ASP760  ASP761  ALA762  ILE779  LEU786  VAL792 
 PHE793  MET794  SER795  GLU796  ALA797  LYS798  CYS799  TRP800  GLU811  SER814 

> <Gold.Protein.RotatedAtoms>
  152.2983  134.7641  160.0362 H   0  0  0  0  0  0  0  0  0  0  0  0  # atno 6907 bound_to 6896
  151.8163  133.3383  159.3578 H   0  0  0  0  0  0  0  0  0  0  0  0  # atno 6908 bound_to 6896
  150.7262  134.5546  159.5856 H   0  0  0  0  0  0  0  0  0  0  0  0  # atno 6909 bound_to 6896
  146.2381  140.1800  142.8332 H   0  0  0  0  0  0  0  0  0  0  0  0  # atno 7974 bound_to 7965
  156.2183  140.3002  155.9892 H   0  0  0  0  0  0  0  0  0  0  0  0  # atno 8008 bound_to 7997
  155.2548  140.0427  157.3008 H   0  0  0  0  0  0  0  0  0  0  0  0  # atno 8009 bound_to 7997
  154.5801  140.2373  155.8074 H   0  0  0  0  0  0  0  0  0  0  0  0  # atno 8010 bound_to 7997
  140.5496  143.9533  150.6569 H   0  0  0  0  0  0  0  0  0  0  0  0  # atno 10167 bound_to 10162
  157.2301  130.7020  149.6309 H   0  0  0  0  0  0  0  0  0  0  0  0  # atno 10718 bound_to 10713
  154.6264  135.2881  155.0267 H   0  0  0  0  0  0  0  0  0  0  0  0  # atno 10763 bound_to 10752
  154.1443  135.6513  153.4953 H   0  0  0  0  0  0  0  0  0  0  0  0  # atno 10764 bound_to 10752
  153.0259  135.5340  154.7074 H   0  0  0  0  0  0  0  0  0  0  0  0  # atno 10765 bound_to 10752
  141.1421  133.6664  156.5816 H   0  0  0  0  0  0  0  0  0  0  0  0  # atno 11005 bound_to 11000
  144.9942  140.8574  143.5321 LP  0  0  0  0  0  0  0  0  0  0  0  0  # atno 17320 bound_to 7965
  145.1810  139.2352  143.5292 LP  0  0  0  0  0  0  0  0  0  0  0  0  # atno 17321 bound_to 7965
  140.2955  143.3295  152.1022 LP  0  0  0  0  0  0  0  0  0  0  0  0  # atno 17342 bound_to 10162
  139.5022  144.6729  151.6199 LP  0  0  0  0  0  0  0  0  0  0  0  0  # atno 17343 bound_to 10162
  155.9676  130.4491  150.5647 LP  0  0  0  0  0  0  0  0  0  0  0  0  # atno 17370 bound_to 10713
  157.3487  131.0729  151.1731 LP  0  0  0  0  0  0  0  0  0  0  0  0  # atno 17371 bound_to 10713
  140.3833  134.7504  157.4675 LP  0  0  0  0  0  0  0  0  0  0  0  0  # atno 17394 bound_to 11000
  140.0621  134.5981  155.8737 LP  0  0  0  0  0  0  0  0  0  0  0  0  # atno 17395 bound_to 11000

$$$$
