AV-unprocessed.smi:1687|AV-procd|sdf|6767|dock3
  -GOLD-   22720 7523D 1   1.00000     0.00000
 Structure written by MMmdl.
 45 46  0  0  0  0  0  0  0  0  2 V2000
  145.8162  136.4559  151.4342 C   0  0  0  0  0  0  0  0  0  0  0  0
  146.0319  137.7728  152.1931 C   0  0  2  0  0  0  0  0  0  0  0  0
  146.5418  138.8879  151.2690 C   0  0  0  0  0  0  0  0  0  0  0  0
  146.7681  140.1914  152.0510 C   0  0  0  0  0  0  0  0  0  0  0  0
  147.7347  140.0022  153.1708 N   0  3  1  0  0  0  0  0  0  0  0  0
  148.1128  141.3063  153.8078 C   0  0  1  0  0  0  0  0  0  0  0  0
  147.0280  141.8911  154.7447 C   0  0  0  0  0  0  0  0  0  0  0  0
  149.4501  141.1463  154.5773 C   0  0  0  0  0  0  0  0  0  0  0  0
  149.6920  142.2219  155.5344 N   0  0  0  0  0  0  0  0  0  0  0  0
  150.5153  142.1298  156.5889 C   0  0  0  0  0  0  0  0  0  0  0  0
  151.1680  141.1177  156.8469 O   0  0  0  0  0  0  0  0  0  0  0  0
  150.5272  143.2689  157.3032 N   0  0  0  0  0  0  0  0  0  0  0  0
  151.2562  143.5522  158.4892 C   0  0  0  0  0  0  0  0  0  0  0  0
  151.2595  144.9102  158.8806 C   0  0  0  0  0  0  0  0  0  0  0  0
  151.9543  145.2945  160.0438 C   0  0  0  0  0  0  0  0  0  0  0  0
  152.6293  144.3097  160.7867 C   0  0  0  0  0  0  0  0  0  0  0  0
  152.5763  142.9807  160.3278 C   0  0  0  0  0  0  0  0  0  0  0  0
  151.9110  142.6101  159.2131 N   0  0  0  0  0  0  0  0  0  0  0  0
  147.2574  138.9341  154.0973 C   0  0  0  0  0  0  0  0  0  0  0  0
  147.0180  137.6055  153.3582 C   0  0  0  0  0  0  0  0  0  0  0  0
  146.7469  136.0887  151.0005 H   0  0  0  0  0  0  0  0  0  0  0  0
  145.0986  136.5838  150.6232 H   0  0  0  0  0  0  0  0  0  0  0  0
  145.4287  135.6810  152.0962 H   0  0  0  0  0  0  0  0  0  0  0  0
  145.0688  138.0819  152.6022 H   0  0  0  0  0  0  0  0  0  0  0  0
  147.4726  138.5815  150.7895 H   0  0  0  0  0  0  0  0  0  0  0  0
  145.8239  139.0633  150.4667 H   0  0  0  0  0  0  0  0  0  0  0  0
  147.1178  140.9536  151.3565 H   0  0  0  0  0  0  0  0  0  0  0  0
  145.8187  140.5532  152.4495 H   0  0  0  0  0  0  0  0  0  0  0  0
  148.2493  142.0326  153.0051 H   0  0  0  0  0  0  0  0  0  0  0  0
  147.3524  142.8272  155.1992 H   0  0  0  0  0  0  0  0  0  0  0  0
  146.7874  141.2039  155.5563 H   0  0  0  0  0  0  0  0  0  0  0  0
  146.1082  142.1259  154.2085 H   0  0  0  0  0  0  0  0  0  0  0  0
  149.4452  140.2049  155.1276 H   0  0  0  0  0  0  0  0  0  0  0  0
  150.3053  141.0911  153.9044 H   0  0  0  0  0  0  0  0  0  0  0  0
  149.1905  143.0864  155.3907 H   0  0  0  0  0  0  0  0  0  0  0  0
  149.9403  144.0177  156.9666 H   0  0  0  0  0  0  0  0  0  0  0  0
  150.7357  145.6547  158.2986 H   0  0  0  0  0  0  0  0  0  0  0  0
  151.9690  146.3273  160.3595 H   0  0  0  0  0  0  0  0  0  0  0  0
  153.1737  144.5654  161.6837 H   0  0  0  0  0  0  0  0  0  0  0  0
  153.0814  142.1946  160.8693 H   0  0  0  0  0  0  0  0  0  0  0  0
  147.9948  138.7340  154.8737 H   0  0  0  0  0  0  0  0  0  0  0  0
  146.3424  139.2609  154.5936 H   0  0  0  0  0  0  0  0  0  0  0  0
  146.6410  136.8608  154.0603 H   0  0  0  0  0  0  0  0  0  0  0  0
  147.9690  137.2222  152.9849 H   0  0  0  0  0  0  0  0  0  0  0  0
  148.5850  139.6418  152.7622 H   0  0  0  0  0  0  0  0  0  0  0  0
  1  2  1  0  0  0  0
  1 21  1  0  0  0  0
  1 22  1  0  0  0  0
  1 23  1  0  0  0  0
  2 20  1  0  0  0  0
  2  3  1  0  0  0  0
  2 24  1  0  0  0  0
  3  4  1  0  0  0  0
  3 25  1  0  0  0  0
  3 26  1  0  0  0  0
  4  5  1  0  0  0  0
  4 27  1  0  0  0  0
  4 28  1  0  0  0  0
  5  6  1  0  0  0  0
  5 19  1  0  0  0  0
  5 45  1  0  0  0  0
  6  7  1  0  0  0  0
  6  8  1  0  0  0  0
  6 29  1  0  0  0  0
  7 30  1  0  0  0  0
  7 31  1  0  0  0  0
  7 32  1  0  0  0  0
  8  9  1  0  0  0  0
  8 33  1  0  0  0  0
  8 34  1  0  0  0  0
  9 10  1  0  0  0  0
  9 35  1  0  0  0  0
 10 11  2  0  0  0  0
 10 12  1  0  0  0  0
 12 13  1  0  0  0  0
 12 36  1  0  0  0  0
 13 18  1  0  0  0  0
 13 14  2  0  0  0  0
 14 15  1  0  0  0  0
 14 37  1  0  0  0  0
 15 16  2  0  0  0  0
 15 38  1  0  0  0  0
 16 17  1  0  0  0  0
 16 39  1  0  0  0  0
 17 18  2  0  0  0  0
 17 40  1  0  0  0  0
 19 20  1  0  0  0  0
 19 41  1  0  0  0  0
 19 42  1  0  0  0  0
 20 43  1  0  0  0  0
 20 44  1  0  0  0  0
M  CHG  1   5   1
M  END
> <s_m_source_file>
AV-unprocessed.smi

> <i_m_source_file_index>
1687

> <i_lp_mmshare_version>
43012

> <i_f3d_flags>
0

> <s_epik_input>
W0NIM11bQ0hdMVtDSDJdW0NIMl1OKFtDSDJdW0NIMl0xKVtDQEhdKFtDSDNdKVtDSDJdW05IXUMoPU8pW05IXWMyW2NIXVtjSF1bY0hdW2NIXW4y

> <s_epik_cmdline>
J2VwaWtfcHl0aG9uJywgJy1waCcsICc3LjAnLCAnLXRuJywgJzgnLCAnLW1hJywgJzIwMCcsICctbWV0YWxfYmluZGluZycsICctaW1hZScsICc8aW5maWxlLm1hZT4nLCAnLW9tYWUnLCAnPG91dGZpbGUubWFlPic=

> <r_epik_Ionization_Penalty>
0.00142891

> <r_epik_Ionization_Penalty_Charging>
0.00139388

> <r_epik_Ionization_Penalty_Neutral>
3.50347e-05

> <r_epik_State_Penalty>
0.000929204

> <r_epik_Charging_Adjusted_Penalty>
0.00232308

> <i_epik_Tot_Q>
1

> <i_epik_Tot_abs_Q>
1

> <r_epik_Metal_State_Penalty>
-0

> <b_epik_Metal_Only>
0

> <s_lp_Force_Field>
OPLS_2005

> <r_lp_Energy>
22.8653

> <b_lp_Chiralities_Consistent>
1

> <s_lp_Variant>
AV-unprocessed.smi:1687-2

> <Gold.Version>
5.8.1

> <Gold.Id.Protein>
6NUR|6NUR_protein|mol2

> <Gold.PLP.Fitness>
48.5934

> <Gold.PLP.PLP>
-42.4426

> <Gold.PLP.part.hbond>
-3.0000

> <Gold.PLP.part.metal>
0.0000

> <Gold.PLP.part.buried>
0.1523

> <Gold.PLP.part.nonpolar>
-39.6539

> <Gold.PLP.part.repulsive>
0.2547

> <Gold.PLP.ligand.clash>
0.0000

> <Gold.PLP.ligand.torsion>
0.5929

> <Gold.PLP.Chemscore.Hbond>
2.4204

> <Gold.PLP.Chemscore.CHOScore>
0.0000

> <Gold.PLP.Chemscore.Metal>
0.0000

> <Gold.Chemscore.Hbonds>
donor molecule, donor type, donor heavy atom, donor atom, acceptor molecule, acceptor atom, score
      L1  H     5    45       P1  7957  0.69
      L1  H     9    35       P1  8028  1.00
      L1  H    12    36       P1  8028  1.00

> <Gold.PLP.Chemscore.Internal.Correction>
0.0754

> <Gold.Rescore>
     Score         DG    S(hbond)    S(metal)    S(lipo)     H(rot)  DE(clash)    DE(int)     intcor
     18.18     -23.29       2.57        0.00     111.65       1.50       3.34       1.77       ----

> <Gold.Chemscore.Fitness>
18.1817

> <Gold.Chemscore.DG>
-23.2929

> <Gold.Chemscore.ZeroCoef>
-5.4800

> <Gold.Chemscore.Hbond>
2.5686

> <Gold.Chemscore.Metal>
0.0000

> <Gold.Chemscore.Lipo>
111.6457

> <Gold.Chemscore.Internal_Hbond>
0.0000

> <Gold.Chemscore.DEClash>
3.3425

> <Gold.Chemscore.DEInternal>
1.7687

> <Gold.Chemscore.Rot>
1.4956

> <Gold.Chemscore.Internal.Correction>
   9.000000E+99

> <Gold.Chemscore.Hbonds>
donor molecule, donor type, donor heavy atom, donor atom, acceptor molecule, acceptor atom, score
      L1  H     5    45       P1  7957  0.70
      L1  H     9    35       P1  8028  0.98
      L1  H    12    36       P1  8028  0.88

> <Gold.Chemscore.Hbond.Weighted>
-8.5792

> <Gold.Chemscore.Metal.Weighted>
-0.0000

> <Gold.Chemscore.Lipo.Weighted>
-13.0625

> <Gold.Chemscore.Internal_Hbond.Weighted>
0.0000

> <Gold.Chemscore.DEClash.Weighted>
3.3425

> <Gold.Chemscore.DEInternal.Weighted>
1.7687

> <Gold.Chemscore.Rot.Weighted>
3.8289

> <Gold.Chemscore.Internal.Correction.Weighted>
   9.000000E+99

> <Gold.Protein.RotatedTorsions>
[ 6907 6896 6895 6894 ] final -156.12 input  -60.11 | X-H torsion
[ 7974 7965 7964 7962 ] final  -71.77 input  175.53 | X-H torsion
[ 8008 7997 7996 7995 ] final -153.05 input   59.86 | X-H torsion
[ 10167 10162 10161 10158 ] final  156.53 input  -65.29 | X-H torsion
[ 10718 10713 10712 10709 ] final -166.29 input   66.30 | X-H torsion
[ 10763 10752 10751 10750 ] final  -61.34 input  -60.55 | X-H torsion
[ 11005 11000 10999 10996 ] final -134.38 input  -57.11 | X-H torsion

> <Gold.Protein.ActiveResidues>
 VAL166  LYS551  ARG553  GLY616  TRP617  ASP618  TYR619  PRO620  LYS621  CYS622 
 ASP623  PHE694  ASN695  SER759  ASP760  ASP761  ALA762  ILE779  LEU786  VAL792 
 PHE793  MET794  SER795  GLU796  ALA797  LYS798  CYS799  TRP800  GLU811  SER814 

> <Gold.Protein.RotatedAtoms>
  151.2829  133.4201  159.2627 H   0  0  0  0  0  0  0  0  0  0  0  0  # atno 6907 bound_to 6896
  151.0345  134.9563  159.8139 H   0  0  0  0  0  0  0  0  0  0  0  0  # atno 6908 bound_to 6896
  152.5352  134.2789  159.9052 H   0  0  0  0  0  0  0  0  0  0  0  0  # atno 6909 bound_to 6896
  145.6738  140.9212  143.0869 H   0  0  0  0  0  0  0  0  0  0  0  0  # atno 7974 bound_to 7965
  155.6648  140.0726  157.2541 H   0  0  0  0  0  0  0  0  0  0  0  0  # atno 8008 bound_to 7997
  154.4135  140.1710  156.1866 H   0  0  0  0  0  0  0  0  0  0  0  0  # atno 8009 bound_to 7997
  155.9667  140.3365  155.6542 H   0  0  0  0  0  0  0  0  0  0  0  0  # atno 8010 bound_to 7997
  139.4821  144.5000  151.8182 H   0  0  0  0  0  0  0  0  0  0  0  0  # atno 10167 bound_to 10162
  156.6657  130.9064  151.3036 H   0  0  0  0  0  0  0  0  0  0  0  0  # atno 10718 bound_to 10713
  154.2831  135.6268  153.5355 H   0  0  0  0  0  0  0  0  0  0  0  0  # atno 10763 bound_to 10752
  152.9863  135.5638  154.5473 H   0  0  0  0  0  0  0  0  0  0  0  0  # atno 10764 bound_to 10752
  154.5068  135.2875  155.1351 H   0  0  0  0  0  0  0  0  0  0  0  0  # atno 10765 bound_to 10752
  140.8995  134.1709  157.4471 H   0  0  0  0  0  0  0  0  0  0  0  0  # atno 11005 bound_to 11000
  144.7048  139.8607  143.7433 LP  0  0  0  0  0  0  0  0  0  0  0  0  # atno 17320 bound_to 7965
  146.1023  139.4019  143.0339 LP  0  0  0  0  0  0  0  0  0  0  0  0  # atno 17321 bound_to 7965
  140.4492  144.1878  150.5896 LP  0  0  0  0  0  0  0  0  0  0  0  0  # atno 17342 bound_to 10162
  140.4602  143.2452  151.9230 LP  0  0  0  0  0  0  0  0  0  0  0  0  # atno 17343 bound_to 10162
  157.7094  130.9423  150.1040 LP  0  0  0  0  0  0  0  0  0  0  0  0  # atno 17370 bound_to 10713
  156.1977  130.3658  149.8828 LP  0  0  0  0  0  0  0  0  0  0  0  0  # atno 17371 bound_to 10713
  139.8740  134.9892  156.5446 LP  0  0  0  0  0  0  0  0  0  0  0  0  # atno 17394 bound_to 11000
  140.8248  133.8325  155.8929 LP  0  0  0  0  0  0  0  0  0  0  0  0  # atno 17395 bound_to 11000

$$$$
