AV-unprocessed.smi:843|AV-procd|sdf|3921|dock3
  -GOLD-   22720 1383D 1   1.00000     0.00000
 Structure written by MMmdl.
 46 47  0  0  0  0  0  0  0  0  2 V2000
  146.5215  129.2245  152.7419 C   0  0  0  0  0  0  0  0  0  0  0  0
  145.6260  129.8943  151.6895 C   0  0  0  0  0  0  0  0  0  0  0  0
  145.3921  131.3333  151.9708 N   0  3  2  0  0  0  0  0  0  0  0  0
  144.6587  132.0065  150.8688 C   0  0  0  0  0  0  0  0  0  0  0  0
  144.3052  133.4572  151.2359 C   0  0  0  0  0  0  0  0  0  0  0  0
  145.5591  134.2709  151.6149 C   0  0  1  0  0  0  0  0  0  0  0  0
  145.2397  135.7167  152.0519 C   0  0  0  0  0  0  0  0  0  0  0  0
  146.4396  136.4995  152.3357 N   0  0  0  0  0  0  0  0  0  0  0  0
  146.4627  137.7012  152.9302 C   0  0  0  0  0  0  0  0  0  0  0  0
  145.4466  138.3007  153.2797 O   0  0  0  0  0  0  0  0  0  0  0  0
  147.7241  138.1439  153.0700 N   0  0  0  0  0  0  0  0  0  0  0  0
  148.2073  139.3629  153.6265 C   0  0  0  0  0  0  0  0  0  0  0  0
  147.4612  140.5661  153.6945 C   0  0  0  0  0  0  0  0  0  0  0  0
  148.0507  141.7050  154.2739 C   0  0  0  0  0  0  0  0  0  0  0  0
  149.3632  141.6034  154.7686 C   0  0  0  0  0  0  0  0  0  0  0  0
  150.0843  140.4652  154.7173 N   0  0  0  0  0  0  0  0  0  0  0  0
  149.5184  139.3653  154.1598 C   0  0  0  0  0  0  0  0  0  0  0  0
  150.2594  138.1993  154.1142 O   0  0  0  0  0  0  0  0  0  0  0  0
  151.5916  138.2193  154.6160 C   0  0  0  0  0  0  0  0  0  0  0  0
  146.3168  133.5227  152.7260 C   0  0  0  0  0  0  0  0  0  0  0  0
  146.6322  132.0728  152.3236 C   0  0  0  0  0  0  0  0  0  0  0  0
  146.5920  128.1525  152.5565 H   0  0  0  0  0  0  0  0  0  0  0  0
  146.1187  129.3591  153.7463 H   0  0  0  0  0  0  0  0  0  0  0  0
  147.5368  129.6200  152.7298 H   0  0  0  0  0  0  0  0  0  0  0  0
  146.0465  129.7706  150.6903 H   0  0  0  0  0  0  0  0  0  0  0  0
  144.6695  129.3700  151.6880 H   0  0  0  0  0  0  0  0  0  0  0  0
  145.2634  131.9844  149.9608 H   0  0  0  0  0  0  0  0  0  0  0  0
  143.7394  131.4619  150.6502 H   0  0  0  0  0  0  0  0  0  0  0  0
  143.7937  133.9169  150.3902 H   0  0  0  0  0  0  0  0  0  0  0  0
  143.5964  133.4627  152.0654 H   0  0  0  0  0  0  0  0  0  0  0  0
  146.2094  134.3199  150.7399 H   0  0  0  0  0  0  0  0  0  0  0  0
  144.6193  136.2135  151.3039 H   0  0  0  0  0  0  0  0  0  0  0  0
  144.6469  135.6971  152.9667 H   0  0  0  0  0  0  0  0  0  0  0  0
  147.3230  136.0832  152.0789 H   0  0  0  0  0  0  0  0  0  0  0  0
  148.4428  137.5347  152.7072 H   0  0  0  0  0  0  0  0  0  0  0  0
  146.4521  140.6482  153.3252 H   0  0  0  0  0  0  0  0  0  0  0  0
  147.5063  142.6354  154.3397 H   0  0  0  0  0  0  0  0  0  0  0  0
  149.8454  142.4576  155.2202 H   0  0  0  0  0  0  0  0  0  0  0  0
  152.0277  137.2252  154.5190 H   0  0  0  0  0  0  0  0  0  0  0  0
  151.6171  138.4890  155.6730 H   0  0  0  0  0  0  0  0  0  0  0  0
  152.2188  138.9127  154.0538 H   0  0  0  0  0  0  0  0  0  0  0  0
  147.2454  134.0449  152.9596 H   0  0  0  0  0  0  0  0  0  0  0  0
  145.7250  133.5234  153.6427 H   0  0  0  0  0  0  0  0  0  0  0  0
  147.1421  131.5839  153.1527 H   0  0  0  0  0  0  0  0  0  0  0  0
  147.3208  132.0598  151.4770 H   0  0  0  0  0  0  0  0  0  0  0  0
  144.7855  131.3721  152.7777 H   0  0  0  0  0  0  0  0  0  0  0  0
  1  2  1  0  0  0  0
  1 22  1  0  0  0  0
  1 23  1  0  0  0  0
  1 24  1  0  0  0  0
  2  3  1  0  0  0  0
  2 25  1  0  0  0  0
  2 26  1  0  0  0  0
  3 21  1  0  0  0  0
  3  4  1  0  0  0  0
  3 46  1  0  0  0  0
  4  5  1  0  0  0  0
  4 27  1  0  0  0  0
  4 28  1  0  0  0  0
  5  6  1  0  0  0  0
  5 29  1  0  0  0  0
  5 30  1  0  0  0  0
  6  7  1  0  0  0  0
  6 20  1  0  0  0  0
  6 31  1  0  0  0  0
  7  8  1  0  0  0  0
  7 32  1  0  0  0  0
  7 33  1  0  0  0  0
  8  9  1  0  0  0  0
  8 34  1  0  0  0  0
  9 10  2  0  0  0  0
  9 11  1  0  0  0  0
 11 12  1  0  0  0  0
 11 35  1  0  0  0  0
 12 17  1  0  0  0  0
 12 13  2  0  0  0  0
 13 14  1  0  0  0  0
 13 36  1  0  0  0  0
 14 15  2  0  0  0  0
 14 37  1  0  0  0  0
 15 16  1  0  0  0  0
 15 38  1  0  0  0  0
 16 17  2  0  0  0  0
 17 18  1  0  0  0  0
 18 19  1  0  0  0  0
 19 39  1  0  0  0  0
 19 40  1  0  0  0  0
 19 41  1  0  0  0  0
 20 21  1  0  0  0  0
 20 42  1  0  0  0  0
 20 43  1  0  0  0  0
 21 44  1  0  0  0  0
 21 45  1  0  0  0  0
M  CHG  1   3   1
M  END
> <s_m_source_file>
AV-unprocessed.smi

> <i_m_source_file_index>
843

> <i_lp_mmshare_version>
43012

> <i_f3d_flags>
0

> <s_epik_input>
W0NIM11bQ0gyXU4xW0NIMl1bQ0gyXVtDSF0oW0NIMl1bQ0gyXTEpW0NIMl1bTkhdQyg9TylbTkhdYzJbY0hdW2NIXVtjSF1uYzJPW0NIM10=

> <s_epik_cmdline>
J2VwaWtfcHl0aG9uJywgJy1waCcsICc3LjAnLCAnLXRuJywgJzgnLCAnLW1hJywgJzIwMCcsICctbWV0YWxfYmluZGluZycsICctaW1hZScsICc8aW5maWxlLm1hZT4nLCAnLW9tYWUnLCAnPG91dGZpbGUubWFlPic=

> <r_lp_tautomer_probability>
1

> <r_epik_Ionization_Penalty>
0.00115026

> <r_epik_Ionization_Penalty_Charging>
0.00106265

> <r_epik_Ionization_Penalty_Neutral>
8.76119e-05

> <r_epik_State_Penalty>
0.000695551

> <r_epik_Charging_Adjusted_Penalty>
0.0017582

> <i_epik_Tot_Q>
1

> <i_epik_Tot_abs_Q>
1

> <r_epik_Metal_State_Penalty>
-0

> <b_epik_Metal_Only>
0

> <s_lp_Force_Field>
OPLS_2005

> <r_lp_Energy>
20.0446

> <b_lp_Chiralities_Consistent>
1

> <s_lp_Variant>
AV-unprocessed.smi:843-1

> <Gold.Version>
5.8.1

> <Gold.Id.Protein>
6NUR|6NUR_protein|mol2

> <Gold.PLP.Fitness>
47.2771

> <Gold.PLP.PLP>
-36.0648

> <Gold.PLP.part.hbond>
-3.2021

> <Gold.PLP.part.metal>
0.0000

> <Gold.PLP.part.buried>
-2.7999

> <Gold.PLP.part.nonpolar>
-32.3638

> <Gold.PLP.part.repulsive>
1.8755

> <Gold.PLP.ligand.clash>
0.0000

> <Gold.PLP.ligand.torsion>
0.2592

> <Gold.PLP.Chemscore.Hbond>
2.9440

> <Gold.PLP.Chemscore.CHOScore>
0.9560

> <Gold.PLP.Chemscore.Metal>
0.0000

> <Gold.Chemscore.Hbonds>
donor molecule, donor type, donor heavy atom, donor atom, acceptor molecule, acceptor atom, score
      L1  H     8    34       P1  7948  1.00
      L1  H    11    35       P1  7948  1.00
      P1  H  7989  7998       L1    16  0.94
      L1  C    15    38       P1  8028  0.96

> <Gold.PLP.Chemscore.Internal.Correction>
0.0307

> <Gold.Rescore>
     Score         DG    S(hbond)    S(metal)    S(lipo)     H(rot)  DE(clash)    DE(int)     intcor
     17.32     -19.10       2.29        0.00      87.13       1.65       0.59       1.19       ----

> <Gold.Chemscore.Fitness>
17.3189

> <Gold.Chemscore.DG>
-19.0986

> <Gold.Chemscore.ZeroCoef>
-5.4800

> <Gold.Chemscore.Hbond>
2.2894

> <Gold.Chemscore.Metal>
0.0000

> <Gold.Chemscore.Lipo>
87.1282

> <Gold.Chemscore.Internal_Hbond>
0.0000

> <Gold.Chemscore.DEClash>
0.5941

> <Gold.Chemscore.DEInternal>
1.1856

> <Gold.Chemscore.Rot>
1.6492

> <Gold.Chemscore.Internal.Correction>
   9.000000E+99

> <Gold.Chemscore.Hbonds>
donor molecule, donor type, donor heavy atom, donor atom, acceptor molecule, acceptor atom, score
      L1  H     8    34       P1  7948  0.94
      L1  H    11    35       P1  7948  0.97
      P1  H  7989  7998       L1    16  0.20

> <Gold.Chemscore.Hbond.Weighted>
-7.6465

> <Gold.Chemscore.Metal.Weighted>
-0.0000

> <Gold.Chemscore.Lipo.Weighted>
-10.1940

> <Gold.Chemscore.Internal_Hbond.Weighted>
0.0000

> <Gold.Chemscore.DEClash.Weighted>
0.5941

> <Gold.Chemscore.DEInternal.Weighted>
1.1856

> <Gold.Chemscore.Rot.Weighted>
4.2219

> <Gold.Chemscore.Internal.Correction.Weighted>
   9.000000E+99

> <Gold.Protein.RotatedTorsions>
[ 6907 6896 6895 6894 ] final  -50.32 input  -60.11 | X-H torsion
[ 7974 7965 7964 7962 ] final  141.98 input  175.53 | X-H torsion
[ 8008 7997 7996 7995 ] final   74.01 input   59.86 | X-H torsion
[ 10167 10162 10161 10158 ] final -146.73 input  -65.29 | X-H torsion
[ 10718 10713 10712 10709 ] final   68.21 input   66.30 | X-H torsion
[ 10763 10752 10751 10750 ] final  -15.33 input  -60.55 | X-H torsion
[ 11005 11000 10999 10996 ] final  -85.47 input  -57.11 | X-H torsion

> <Gold.Protein.ActiveResidues>
 VAL166  LYS551  ARG553  GLY616  TRP617  ASP618  TYR619  PRO620  LYS621  CYS622 
 ASP623  PHE694  ASN695  SER759  ASP760  ASP761  ALA762  ILE779  LEU786  VAL792 
 PHE793  MET794  SER795  GLU796  ALA797  LYS798  CYS799  TRP800  GLU811  SER814 

> <Gold.Protein.RotatedAtoms>
  150.8719  134.8094  159.7160 H   0  0  0  0  0  0  0  0  0  0  0  0  # atno 6907 bound_to 6896
  152.4720  134.4933  159.9712 H   0  0  0  0  0  0  0  0  0  0  0  0  # atno 6908 bound_to 6896
  151.5021  133.3464  159.2906 H   0  0  0  0  0  0  0  0  0  0  0  0  # atno 6909 bound_to 6896
  144.9048  139.5373  143.5737 H   0  0  0  0  0  0  0  0  0  0  0  0  # atno 7974 bound_to 7965
  155.7922  140.3479  155.5355 H   0  0  0  0  0  0  0  0  0  0  0  0  # atno 8008 bound_to 7997
  155.8623  140.0973  157.1626 H   0  0  0  0  0  0  0  0  0  0  0  0  # atno 8009 bound_to 7997
  154.4012  140.1356  156.3963 H   0  0  0  0  0  0  0  0  0  0  0  0  # atno 8010 bound_to 7997
  139.7687  143.8270  152.2620 H   0  0  0  0  0  0  0  0  0  0  0  0  # atno 10167 bound_to 10162
  157.6276  130.9361  150.0346 H   0  0  0  0  0  0  0  0  0  0  0  0  # atno 10718 bound_to 10713
  153.5418  135.7013  153.5633 H   0  0  0  0  0  0  0  0  0  0  0  0  # atno 10763 bound_to 10752
  153.3596  135.3973  155.1708 H   0  0  0  0  0  0  0  0  0  0  0  0  # atno 10764 bound_to 10752
  154.8672  135.3785  154.4923 H   0  0  0  0  0  0  0  0  0  0  0  0  # atno 10765 bound_to 10752
  141.1641  133.7401  156.9019 H   0  0  0  0  0  0  0  0  0  0  0  0  # atno 11005 bound_to 11000
  146.3127  139.7807  142.9007 LP  0  0  0  0  0  0  0  0  0  0  0  0  # atno 17320 bound_to 7965
  145.3555  141.0316  143.3314 LP  0  0  0  0  0  0  0  0  0  0  0  0  # atno 17321 bound_to 7965
  139.8298  144.7259  150.9466 LP  0  0  0  0  0  0  0  0  0  0  0  0  # atno 17342 bound_to 10162
  140.7812  143.4081  151.1038 LP  0  0  0  0  0  0  0  0  0  0  0  0  # atno 17343 bound_to 10162
  156.1457  130.3642  149.9513 LP  0  0  0  0  0  0  0  0  0  0  0  0  # atno 17370 bound_to 10713
  156.7544  130.9127  151.3639 LP  0  0  0  0  0  0  0  0  0  0  0  0  # atno 17371 bound_to 10713
  140.1576  134.9187  157.2674 LP  0  0  0  0  0  0  0  0  0  0  0  0  # atno 17394 bound_to 11000
  140.2648  134.3528  155.7393 LP  0  0  0  0  0  0  0  0  0  0  0  0  # atno 17395 bound_to 11000

$$$$
