AV-unprocessed.smi:1071|AV-procd|sdf|4682|dock10
  -GOLD-   22720 3203D 1   1.00000     0.00000
 Structure written by MMmdl.
 46 47  0  0  0  0  0  0  0  0  1 V2000
  146.2963  132.2293  155.1529 C   0  0  0  0  0  0  0  0  0  0  0  0
  146.9910  131.9527  156.3566 O   0  0  0  0  0  0  0  0  0  0  0  0
  148.2850  132.5317  156.3818 C   0  0  0  0  0  0  0  0  0  0  0  0
  148.1601  134.0192  156.7223 C   0  0  0  0  0  0  0  0  0  0  0  0
  149.4517  134.6153  156.6470 O   0  0  0  0  0  0  0  0  0  0  0  0
  149.6457  135.8444  157.2435 C   0  0  0  0  0  0  0  0  0  0  0  0
  148.6828  136.3065  158.1622 C   0  0  0  0  0  0  0  0  0  0  0  0
  148.8735  137.5582  158.7783 C   0  0  0  0  0  0  0  0  0  0  0  0
  150.0312  138.3073  158.4600 C   0  0  0  0  0  0  0  0  0  0  0  0
  150.3298  139.5886  158.9968 N   0  0  0  0  0  0  0  0  0  0  0  0
  151.4901  140.2725  158.9507 C   0  0  0  0  0  0  0  0  0  0  0  0
  152.5462  139.8001  158.5325 O   0  0  0  0  0  0  0  0  0  0  0  0
  151.3976  141.4948  159.5311 N   0  0  0  0  0  0  0  0  0  0  0  0
  150.2549  142.3790  159.2510 C   0  0  0  0  0  0  0  0  0  0  0  0
  150.6306  143.3266  158.0921 C   0  0  0  0  0  0  0  0  0  0  0  0
  151.8090  144.1197  158.4507 N   0  0  0  0  0  0  0  0  0  0  0  0
  152.1741  144.9864  157.3400 C   0  0  0  0  0  0  0  0  0  0  0  0
  152.9400  143.2539  158.7948 C   0  0  0  0  0  0  0  0  0  0  0  0
  152.5440  142.3220  159.9603 C   0  0  2  0  0  0  0  0  0  0  0  0
  153.7487  141.5411  160.5257 C   0  0  0  0  0  0  0  0  0  0  0  0
  150.9253  137.7631  157.5152 C   0  0  0  0  0  0  0  0  0  0  0  0
  150.7494  136.5635  156.9225 N   0  0  0  0  0  0  0  0  0  0  0  0
  145.3095  131.7673  155.1854 H   0  0  0  0  0  0  0  0  0  0  0  0
  146.8277  131.8261  154.2899 H   0  0  0  0  0  0  0  0  0  0  0  0
  146.1614  133.3025  155.0118 H   0  0  0  0  0  0  0  0  0  0  0  0
  148.9076  132.0300  157.1245 H   0  0  0  0  0  0  0  0  0  0  0  0
  148.7667  132.4112  155.4103 H   0  0  0  0  0  0  0  0  0  0  0  0
  147.4803  134.5010  156.0173 H   0  0  0  0  0  0  0  0  0  0  0  0
  147.7458  134.1326  157.7255 H   0  0  0  0  0  0  0  0  0  0  0  0
  147.8096  135.7127  158.3885 H   0  0  0  0  0  0  0  0  0  0  0  0
  148.1247  137.9203  159.4653 H   0  0  0  0  0  0  0  0  0  0  0  0
  149.5389  140.0979  159.3634 H   0  0  0  0  0  0  0  0  0  0  0  0
  149.3471  141.8345  158.9881 H   0  0  0  0  0  0  0  0  0  0  0  0
  150.0014  142.9518  160.1445 H   0  0  0  0  0  0  0  0  0  0  0  0
  150.8261  142.7517  157.1852 H   0  0  0  0  0  0  0  0  0  0  0  0
  149.7958  143.9945  157.8760 H   0  0  0  0  0  0  0  0  0  0  0  0
  153.0336  145.6039  157.6029 H   0  0  0  0  0  0  0  0  0  0  0  0
  151.3494  145.6544  157.0893 H   0  0  0  0  0  0  0  0  0  0  0  0
  152.4281  144.4071  156.4510 H   0  0  0  0  0  0  0  0  0  0  0  0
  153.2506  142.6693  157.9270 H   0  0  0  0  0  0  0  0  0  0  0  0
  153.7888  143.8738  159.0864 H   0  0  0  0  0  0  0  0  0  0  0  0
  152.1962  142.9444  160.7871 H   0  0  0  0  0  0  0  0  0  0  0  0
  154.4508  142.2227  161.0062 H   0  0  0  0  0  0  0  0  0  0  0  0
  154.3055  141.0131  159.7523 H   0  0  0  0  0  0  0  0  0  0  0  0
  153.4343  140.8159  161.2769 H   0  0  0  0  0  0  0  0  0  0  0  0
  151.8157  138.3036  157.2285 H   0  0  0  0  0  0  0  0  0  0  0  0
  1  2  1  0  0  0  0
  1 23  1  0  0  0  0
  1 24  1  0  0  0  0
  1 25  1  0  0  0  0
  2  3  1  0  0  0  0
  3  4  1  0  0  0  0
  3 26  1  0  0  0  0
  3 27  1  0  0  0  0
  4  5  1  0  0  0  0
  4 28  1  0  0  0  0
  4 29  1  0  0  0  0
  5  6  1  0  0  0  0
  6 22  1  0  0  0  0
  6  7  2  0  0  0  0
  7  8  1  0  0  0  0
  7 30  1  0  0  0  0
  8  9  2  0  0  0  0
  8 31  1  0  0  0  0
  9 10  1  0  0  0  0
  9 21  1  0  0  0  0
 10 11  1  0  0  0  0
 10 32  1  0  0  0  0
 11 12  2  0  0  0  0
 11 13  1  0  0  0  0
 13 19  1  0  0  0  0
 13 14  1  0  0  0  0
 14 15  1  0  0  0  0
 14 33  1  0  0  0  0
 14 34  1  0  0  0  0
 15 16  1  0  0  0  0
 15 35  1  0  0  0  0
 15 36  1  0  0  0  0
 16 17  1  0  0  0  0
 16 18  1  0  0  0  0
 17 37  1  0  0  0  0
 17 38  1  0  0  0  0
 17 39  1  0  0  0  0
 18 19  1  0  0  0  0
 18 40  1  0  0  0  0
 18 41  1  0  0  0  0
 19 20  1  0  0  0  0
 19 42  1  0  0  0  0
 20 43  1  0  0  0  0
 20 44  1  0  0  0  0
 20 45  1  0  0  0  0
 21 22  2  0  0  0  0
 21 46  1  0  0  0  0
M  END
> <s_m_source_file>
AV-unprocessed.smi

> <i_m_source_file_index>
1071

> <i_lp_mmshare_version>
43012

> <i_f3d_flags>
0

> <s_epik_input>
W0NIM11PW0NIMl1bQ0gyXU9jMVtjSF1bY0hdYyhbY0hdbjEpW05IXUMoPU8pTjJbQ0gyXVtDSDJdTihbQ0gzXSlbQ0gyXVtDQEhdMltDSDNd

> <s_epik_cmdline>
J2VwaWtfcHl0aG9uJywgJy1waCcsICc3LjAnLCAnLXRuJywgJzgnLCAnLW1hJywgJzIwMCcsICctbWV0YWxfYmluZGluZycsICctaW1hZScsICc8aW5maWxlLm1hZT4nLCAnLW9tYWUnLCAnPG91dGZpbGUubWFlPic=

> <r_lp_tautomer_probability>
1

> <r_epik_Ionization_Penalty>
0.623446

> <r_epik_Ionization_Penalty_Charging>
0

> <r_epik_Ionization_Penalty_Neutral>
0.623446

> <r_epik_State_Penalty>
0.639577

> <r_epik_Charging_Adjusted_Penalty>
0.639577

> <i_epik_Tot_Q>
0

> <i_epik_Tot_abs_Q>
0

> <r_epik_Metal_State_Penalty>
0.639567

> <b_epik_Metal_Only>
0

> <s_lp_Force_Field>
OPLS_2005

> <r_lp_Energy>
48.0993

> <b_lp_Chiralities_Consistent>
1

> <s_lp_Variant>
AV-unprocessed.smi:1071-6

> <Gold.Version>
5.8.1

> <Gold.Id.Protein>
6NUR|6NUR_protein|mol2

> <Gold.PLP.Fitness>
39.6306

> <Gold.PLP.PLP>
-34.8248

> <Gold.PLP.part.hbond>
-3.0000

> <Gold.PLP.part.metal>
0.0000

> <Gold.PLP.part.buried>
-4.9051

> <Gold.PLP.part.nonpolar>
-27.7273

> <Gold.PLP.part.repulsive>
0.2021

> <Gold.PLP.ligand.clash>
0.0000

> <Gold.PLP.ligand.torsion>
0.7916

> <Gold.PLP.Chemscore.Hbond>
1.9500

> <Gold.PLP.Chemscore.CHOScore>
0.0000

> <Gold.PLP.Chemscore.Metal>
0.0000

> <Gold.PLP.Chemscore.Internal.Correction>
0.5390

> <Gold.Rescore>
     Score         DG    S(hbond)    S(metal)    S(lipo)     H(rot)  DE(clash)    DE(int)     intcor
     13.63     -17.24       1.38        0.00      95.50       1.57       0.31       3.31       ----

> <Gold.Chemscore.Fitness>
13.6259

> <Gold.Chemscore.DG>
-17.2416

> <Gold.Chemscore.ZeroCoef>
-5.4800

> <Gold.Chemscore.Hbond>
1.3827

> <Gold.Chemscore.Metal>
0.0000

> <Gold.Chemscore.Lipo>
95.4999

> <Gold.Chemscore.Internal_Hbond>
0.0000

> <Gold.Chemscore.DEClash>
0.3092

> <Gold.Chemscore.DEInternal>
3.3065

> <Gold.Chemscore.Rot>
1.5743

> <Gold.Chemscore.Internal.Correction>
   9.000000E+99

> <Gold.Chemscore.Hbond.Weighted>
-4.6182

> <Gold.Chemscore.Metal.Weighted>
-0.0000

> <Gold.Chemscore.Lipo.Weighted>
-11.1735

> <Gold.Chemscore.Internal_Hbond.Weighted>
0.0000

> <Gold.Chemscore.DEClash.Weighted>
0.3092

> <Gold.Chemscore.DEInternal.Weighted>
3.3065

> <Gold.Chemscore.Rot.Weighted>
4.0301

> <Gold.Chemscore.Internal.Correction.Weighted>
   9.000000E+99

> <Gold.Protein.RotatedTorsions>
[ 6907 6896 6895 6894 ] final -136.63 input  -60.11 | X-H torsion
[ 7974 7965 7964 7962 ] final  174.54 input  175.53 | X-H torsion
[ 8008 7997 7996 7995 ] final  -99.10 input   59.86 | X-H torsion
[ 10167 10162 10161 10158 ] final   63.61 input  -65.29 | X-H torsion
[ 10718 10713 10712 10709 ] final  107.32 input   66.30 | X-H torsion
[ 10763 10752 10751 10750 ] final -125.56 input  -60.55 | X-H torsion
[ 11005 11000 10999 10996 ] final   68.16 input  -57.11 | X-H torsion

> <Gold.Protein.ActiveResidues>
 VAL166  LYS551  ARG553  GLY616  TRP617  ASP618  TYR619  PRO620  LYS621  CYS622 
 ASP623  PHE694  ASN695  SER759  ASP760  ASP761  ALA762  ILE779  LEU786  VAL792 
 PHE793  MET794  SER795  GLU796  ALA797  LYS798  CYS799  TRP800  GLU811  SER814 

> <Gold.Protein.RotatedAtoms>
  151.0124  133.5953  159.2680 H   0  0  0  0  0  0  0  0  0  0  0  0  # atno 6907 bound_to 6896
  151.3099  135.0790  159.9278 H   0  0  0  0  0  0  0  0  0  0  0  0  # atno 6908 bound_to 6896
  152.5303  133.9790  159.7852 H   0  0  0  0  0  0  0  0  0  0  0  0  # atno 6909 bound_to 6896
  144.7219  139.9812  143.6439 H   0  0  0  0  0  0  0  0  0  0  0  0  # atno 7974 bound_to 7965
  154.8102  140.0450  157.1337 H   0  0  0  0  0  0  0  0  0  0  0  0  # atno 8008 bound_to 7997
  154.9377  140.3048  155.5116 H   0  0  0  0  0  0  0  0  0  0  0  0  # atno 8009 bound_to 7997
  156.2971  140.2311  156.4444 H   0  0  0  0  0  0  0  0  0  0  0  0  # atno 8010 bound_to 7997
  140.1312  144.4641  150.6864 H   0  0  0  0  0  0  0  0  0  0  0  0  # atno 10167 bound_to 10162
  157.6633  131.0870  150.6138 H   0  0  0  0  0  0  0  0  0  0  0  0  # atno 10718 bound_to 10713
  154.8737  135.4025  154.3287 H   0  0  0  0  0  0  0  0  0  0  0  0  # atno 10763 bound_to 10752
  153.4104  135.7020  153.6368 H   0  0  0  0  0  0  0  0  0  0  0  0  # atno 10764 bound_to 10752
  153.5073  135.3715  155.2540 H   0  0  0  0  0  0  0  0  0  0  0  0  # atno 10765 bound_to 10752
  139.9727  134.6873  156.0414 H   0  0  0  0  0  0  0  0  0  0  0  0  # atno 11005 bound_to 11000
  146.0486  139.3489  143.0653 LP  0  0  0  0  0  0  0  0  0  0  0  0  # atno 17320 bound_to 7965
  145.8244  140.9663  143.0882 LP  0  0  0  0  0  0  0  0  0  0  0  0  # atno 17321 bound_to 7965
  140.6816  143.2329  151.5369 LP  0  0  0  0  0  0  0  0  0  0  0  0  # atno 17342 bound_to 10162
  139.5519  144.2374  152.1545 LP  0  0  0  0  0  0  0  0  0  0  0  0  # atno 17343 bound_to 10162
  156.6440  130.4466  149.5742 LP  0  0  0  0  0  0  0  0  0  0  0  0  # atno 17370 bound_to 10713
  156.2187  130.6724  151.1346 LP  0  0  0  0  0  0  0  0  0  0  0  0  # atno 17371 bound_to 10713
  141.1406  133.6565  156.3719 LP  0  0  0  0  0  0  0  0  0  0  0  0  # atno 17394 bound_to 11000
  140.5258  134.6260  157.5334 LP  0  0  0  0  0  0  0  0  0  0  0  0  # atno 17395 bound_to 11000

$$$$
