AV-unprocessed.smi:506|AV-procd|sdf|2750|dock8
  -GOLD-   2262023213D 1   1.00000     0.00000
 Structure written by MMmdl.
 40 42  0  0  0  0  0  0  0  0  1 V2000
  144.4640  145.3210  153.0576 C   0  0  0  0  0  0  0  0  0  0  0  0
  144.1647  144.6037  154.2461 O   0  0  0  0  0  0  0  0  0  0  0  0
  145.0923  143.6935  154.7054 C   0  0  0  0  0  0  0  0  0  0  0  0
  144.9925  143.3012  156.0546 C   0  0  0  0  0  0  0  0  0  0  0  0
  145.8991  142.3757  156.6046 C   0  0  0  0  0  0  0  0  0  0  0  0
  146.9284  141.8216  155.8193 C   0  0  0  0  0  0  0  0  0  0  0  0
  147.7723  140.9252  156.4371 O   0  0  0  0  0  0  0  0  0  0  0  0
  148.9646  140.5432  155.7641 C   0  0  0  0  0  0  0  0  0  0  0  0
  149.9965  141.6740  155.8814 C   0  0  0  0  0  0  0  0  0  0  0  0
  151.0547  141.3532  156.8287 N   0  0  0  0  0  0  0  0  0  0  0  0
  151.8602  140.2615  156.8489 C   0  0  0  0  0  0  0  0  0  0  0  0
  151.7507  139.1687  155.8304 C   0  0  0  0  0  0  0  0  0  0  0  0
  152.2429  139.5528  154.5644 O   0  0  0  0  0  0  0  0  0  0  0  0
  152.7569  140.2200  157.8351 N   0  0  0  0  0  0  0  0  0  0  0  0
  152.5132  141.3964  158.5168 C   0  0  0  0  0  0  0  0  0  0  0  0
  153.1373  141.9397  159.6626 C   0  0  0  0  0  0  0  0  0  0  0  0
  152.7150  143.1798  160.1852 C   0  0  0  0  0  0  0  0  0  0  0  0
  151.6647  143.8926  159.5716 C   0  0  0  0  0  0  0  0  0  0  0  0
  151.0280  143.3682  158.4304 C   0  0  0  0  0  0  0  0  0  0  0  0
  151.4534  142.1300  157.9123 C   0  0  0  0  0  0  0  0  0  0  0  0
  147.0328  142.2112  154.4617 C   0  0  0  0  0  0  0  0  0  0  0  0
  146.1248  143.1370  153.9109 C   0  0  0  0  0  0  0  0  0  0  0  0
  143.6391  145.9950  152.8270 H   0  0  0  0  0  0  0  0  0  0  0  0
  144.5885  144.6492  152.2072 H   0  0  0  0  0  0  0  0  0  0  0  0
  145.3630  145.9279  153.1736 H   0  0  0  0  0  0  0  0  0  0  0  0
  144.2117  143.7144  156.6760 H   0  0  0  0  0  0  0  0  0  0  0  0
  145.8044  142.0893  157.6420 H   0  0  0  0  0  0  0  0  0  0  0  0
  149.3717  139.6328  156.2062 H   0  0  0  0  0  0  0  0  0  0  0  0
  148.7560  140.3432  154.7121 H   0  0  0  0  0  0  0  0  0  0  0  0
  150.4495  141.8665  154.9084 H   0  0  0  0  0  0  0  0  0  0  0  0
  149.5115  142.6031  156.1795 H   0  0  0  0  0  0  0  0  0  0  0  0
  152.2865  138.2847  156.1753 H   0  0  0  0  0  0  0  0  0  0  0  0
  150.7048  138.8786  155.7242 H   0  0  0  0  0  0  0  0  0  0  0  0
  152.9261  138.9505  154.3131 H   0  0  0  0  0  0  0  0  0  0  0  0
  153.9434  141.4022  160.1394 H   0  0  0  0  0  0  0  0  0  0  0  0
  153.2001  143.5862  161.0604 H   0  0  0  0  0  0  0  0  0  0  0  0
  151.3487  144.8428  159.9765 H   0  0  0  0  0  0  0  0  0  0  0  0
  150.2259  143.9134  157.9557 H   0  0  0  0  0  0  0  0  0  0  0  0
  147.8019  141.8124  153.8181 H   0  0  0  0  0  0  0  0  0  0  0  0
  146.2431  143.4043  152.8719 H   0  0  0  0  0  0  0  0  0  0  0  0
  1  2  1  0  0  0  0
  1 23  1  0  0  0  0
  1 24  1  0  0  0  0
  1 25  1  0  0  0  0
  2  3  1  0  0  0  0
  3 22  1  0  0  0  0
  3  4  2  0  0  0  0
  4  5  1  0  0  0  0
  4 26  1  0  0  0  0
  5  6  2  0  0  0  0
  5 27  1  0  0  0  0
  6  7  1  0  0  0  0
  6 21  1  0  0  0  0
  7  8  1  0  0  0  0
  8  9  1  0  0  0  0
  8 28  1  0  0  0  0
  8 29  1  0  0  0  0
  9 10  1  0  0  0  0
  9 30  1  0  0  0  0
  9 31  1  0  0  0  0
 10 20  1  0  0  0  0
 10 11  1  0  0  0  0
 11 12  1  0  0  0  0
 11 14  2  0  0  0  0
 12 13  1  0  0  0  0
 12 32  1  0  0  0  0
 12 33  1  0  0  0  0
 13 34  1  0  0  0  0
 14 15  1  0  0  0  0
 15 20  2  0  0  0  0
 15 16  1  0  0  0  0
 16 17  2  0  0  0  0
 16 35  1  0  0  0  0
 17 18  1  0  0  0  0
 17 36  1  0  0  0  0
 18 19  2  0  0  0  0
 18 37  1  0  0  0  0
 19 20  1  0  0  0  0
 19 38  1  0  0  0  0
 21 22  2  0  0  0  0
 21 39  1  0  0  0  0
 22 40  1  0  0  0  0
M  END
> <s_m_source_file>
AV-unprocessed.smi

> <i_m_source_file_index>
506

> <i_lp_mmshare_version>
43012

> <i_f3d_flags>
0

> <s_epik_input>
W0NIM11PYzFbY0hdW2NIXWMoW2NIXVtjSF0xKU9bQ0gyXVtDSDJdbihjKG4yKVtDSDJdW09IXSljKGMyMylbY0hdW2NIXVtjSF1bY0hdMw==

> <s_epik_cmdline>
J2VwaWtfcHl0aG9uJywgJy1waCcsICc3LjAnLCAnLXRuJywgJzgnLCAnLW1hJywgJzIwMCcsICctbWV0YWxfYmluZGluZycsICctaW1hZScsICc8aW5maWxlLm1hZT4nLCAnLW9tYWUnLCAnPG91dGZpbGUubWFlPic=

> <r_lp_tautomer_probability>
1

> <r_epik_Ionization_Penalty>
0.0483634

> <r_epik_Ionization_Penalty_Charging>
0

> <r_epik_Ionization_Penalty_Neutral>
0.0483634

> <r_epik_State_Penalty>
0.0411758

> <r_epik_Charging_Adjusted_Penalty>
0.0411758

> <i_epik_Tot_Q>
0

> <i_epik_Tot_abs_Q>
0

> <r_epik_Metal_State_Penalty>
4.26388e-05

> <b_epik_Metal_Only>
0

> <s_lp_Force_Field>
OPLS_2005

> <r_lp_Energy>
17.7354

> <b_lp_Chiralities_Consistent>
1

> <s_lp_Variant>
AV-unprocessed.smi:506-1

> <Gold.Version>
5.8.1

> <Gold.Id.Protein>
6NUR|6NUR_protein|mol2

> <Gold.PLP.Fitness>
49.9229

> <Gold.PLP.PLP>
-46.4134

> <Gold.PLP.part.hbond>
-2.0000

> <Gold.PLP.part.metal>
0.0000

> <Gold.PLP.part.buried>
-5.1408

> <Gold.PLP.part.nonpolar>
-38.9037

> <Gold.PLP.part.repulsive>
0.1859

> <Gold.PLP.ligand.clash>
0.0000

> <Gold.PLP.ligand.torsion>
0.9632

> <Gold.PLP.Chemscore.Hbond>
1.7840

> <Gold.PLP.Chemscore.CHOScore>
0.0000

> <Gold.PLP.Chemscore.Metal>
0.0000

> <Gold.Chemscore.Hbonds>
donor molecule, donor type, donor heavy atom, donor atom, acceptor molecule, acceptor atom, score
      P1  H  7989  7998       L1    13  0.75
      P1  H  7997  8008       L1    14  0.98

> <Gold.PLP.Chemscore.Internal.Correction>
0.0838

> <Gold.Rescore>
     Score         DG    S(hbond)    S(metal)    S(lipo)     H(rot)  DE(clash)    DE(int)     intcor
     15.75     -16.74       1.32        0.00     112.24       2.46       0.15       0.83       ----

> <Gold.Chemscore.Fitness>
15.7539

> <Gold.Chemscore.DG>
-16.7397

> <Gold.Chemscore.ZeroCoef>
-5.4800

> <Gold.Chemscore.Hbond>
1.3222

> <Gold.Chemscore.Metal>
0.0000

> <Gold.Chemscore.Lipo>
112.2364

> <Gold.Chemscore.Internal_Hbond>
0.0000

> <Gold.Chemscore.DEClash>
0.1529

> <Gold.Chemscore.DEInternal>
0.8329

> <Gold.Chemscore.Rot>
2.4562

> <Gold.Chemscore.Internal.Correction>
   9.000000E+99

> <Gold.Chemscore.Hbonds>
donor molecule, donor type, donor heavy atom, donor atom, acceptor molecule, acceptor atom, score
      P1  H  7989  7998       L1    13  0.73
      P1  H  7997  8008       L1    14  0.39

> <Gold.Chemscore.Hbond.Weighted>
-4.4161

> <Gold.Chemscore.Metal.Weighted>
-0.0000

> <Gold.Chemscore.Lipo.Weighted>
-13.1317

> <Gold.Chemscore.Internal_Hbond.Weighted>
0.0000

> <Gold.Chemscore.DEClash.Weighted>
0.1529

> <Gold.Chemscore.DEInternal.Weighted>
0.8329

> <Gold.Chemscore.Rot.Weighted>
6.2880

> <Gold.Chemscore.Internal.Correction.Weighted>
   9.000000E+99

> <Gold.Protein.RotatedTorsions>
[ 6907 6896 6895 6894 ] final -122.07 input  -60.11 | X-H torsion
[ 7974 7965 7964 7962 ] final  -84.47 input  175.53 | X-H torsion
[ 8008 7997 7996 7995 ] final  -77.25 input   59.86 | X-H torsion
[ 10167 10162 10161 10158 ] final  -87.73 input  -65.29 | X-H torsion
[ 10718 10713 10712 10709 ] final   84.09 input   66.30 | X-H torsion
[ 10763 10752 10751 10750 ] final   78.48 input  -60.55 | X-H torsion
[ 11005 11000 10999 10996 ] final -111.58 input  -57.11 | X-H torsion

> <Gold.Protein.ActiveResidues>
 VAL166  LYS551  ARG553  GLY616  TRP617  ASP618  TYR619  PRO620  LYS621  CYS622 
 ASP623  PHE694  ASN695  SER759  ASP760  ASP761  ALA762  ILE779  LEU786  VAL792 
 PHE793  MET794  SER795  GLU796  ALA797  LYS798  CYS799  TRP800  GLU811  SER814 

> <Gold.Protein.RotatedAtoms>
  150.8541  133.7741  159.3014 H   0  0  0  0  0  0  0  0  0  0  0  0  # atno 6907 bound_to 6896
  151.5404  135.1067  159.9934 H   0  0  0  0  0  0  0  0  0  0  0  0  # atno 6908 bound_to 6896
  152.4576  133.7712  159.6856 H   0  0  0  0  0  0  0  0  0  0  0  0  # atno 6909 bound_to 6896
  145.5061  140.9543  143.1733 H   0  0  0  0  0  0  0  0  0  0  0  0  # atno 7974 bound_to 7965
  154.5579  140.0713  156.8772 H   0  0  0  0  0  0  0  0  0  0  0  0  # atno 8008 bound_to 7997
  155.2867  140.3375  155.4237 H   0  0  0  0  0  0  0  0  0  0  0  0  # atno 8009 bound_to 7997
  156.2017  140.1724  156.7870 H   0  0  0  0  0  0  0  0  0  0  0  0  # atno 8010 bound_to 7997
  140.3816  143.2746  151.9377 H   0  0  0  0  0  0  0  0  0  0  0  0  # atno 10167 bound_to 10162
  157.6891  131.0118  150.2620 H   0  0  0  0  0  0  0  0  0  0  0  0  # atno 10718 bound_to 10713
  153.0877  135.4875  154.8629 H   0  0  0  0  0  0  0  0  0  0  0  0  # atno 10763 bound_to 10752
  154.7231  135.3044  154.9017 H   0  0  0  0  0  0  0  0  0  0  0  0  # atno 10764 bound_to 10752
  153.9675  135.6805  153.4799 H   0  0  0  0  0  0  0  0  0  0  0  0  # atno 10765 bound_to 10752
  141.0726  133.9355  157.2455 H   0  0  0  0  0  0  0  0  0  0  0  0  # atno 11005 bound_to 11000
  144.7753  139.6644  143.7177 LP  0  0  0  0  0  0  0  0  0  0  0  0  # atno 17320 bound_to 7965
  146.2196  139.5611  142.9627 LP  0  0  0  0  0  0  0  0  0  0  0  0  # atno 17321 bound_to 7965
  139.4795  144.5813  151.7927 LP  0  0  0  0  0  0  0  0  0  0  0  0  # atno 17342 bound_to 10162
  140.4932  144.1279  150.5954 LP  0  0  0  0  0  0  0  0  0  0  0  0  # atno 17343 bound_to 10162
  156.3198  130.3784  149.7585 LP  0  0  0  0  0  0  0  0  0  0  0  0  # atno 17370 bound_to 10713
  156.5159  130.8193  151.3186 LP  0  0  0  0  0  0  0  0  0  0  0  0  # atno 17371 bound_to 10713
  139.9538  135.0170  156.9071 LP  0  0  0  0  0  0  0  0  0  0  0  0  # atno 17394 bound_to 11000
  140.5642  134.0505  155.7409 LP  0  0  0  0  0  0  0  0  0  0  0  0  # atno 17395 bound_to 11000

$$$$
