AV-unprocessed.smi:3181|AV-procd|sdf|12150|dock10
  -GOLD-   2272017593D 1   1.00000     0.00000
 Structure written by MMmdl.
 42 43  0  0  0  0  0  0  0  0  2 V2000
  149.5004  141.4745  154.8481 C   0  0  0  0  0  0  0  0  0  0  0  0
  150.3684  141.3195  156.1077 C   0  0  1  0  0  0  0  0  0  0  0  0
  151.6250  140.4555  155.8682 C   0  0  0  0  0  0  0  0  0  0  0  0
  151.3149  139.1495  155.3168 N   0  0  0  0  0  0  0  0  0  0  0  0
  152.1190  138.1490  154.9536 C   0  0  0  0  0  0  0  0  0  0  0  0
  151.4755  137.0887  154.4861 N   0  0  0  0  0  0  0  0  0  0  0  0
  150.1891  137.5369  154.5911 C   0  0  0  0  0  0  0  0  0  0  0  0
  150.0379  138.7671  155.0825 N   0  0  0  0  0  0  0  0  0  0  0  0
  150.7659  142.6589  156.5979 N   0  3  0  0  0  0  0  0  0  0  0  0
  150.9716  142.7878  158.0590 C   0  0  1  0  0  0  0  0  0  0  0  0
  151.7928  141.6140  158.6313 C   0  0  0  0  0  0  0  0  0  0  0  0
  152.0639  141.7916  160.1337 C   0  0  0  0  0  0  0  0  0  0  0  0
  152.7569  143.1358  160.4309 C   0  0  2  0  0  0  0  0  0  0  0  0
  153.1060  143.2817  161.9212 C   0  0  0  0  0  0  0  0  0  0  0  0
  151.9457  144.3315  159.8693 C   0  0  2  0  0  0  0  0  0  0  0  0
  150.6502  144.6403  160.6466 C   0  0  0  0  0  0  0  0  0  0  0  0
  151.6721  144.1271  158.3643 C   0  0  0  0  0  0  0  0  0  0  0  0
  149.1151  140.5140  154.5051 H   0  0  0  0  0  0  0  0  0  0  0  0
  150.0657  141.9187  154.0283 H   0  0  0  0  0  0  0  0  0  0  0  0
  148.6387  142.1138  155.0434 H   0  0  0  0  0  0  0  0  0  0  0  0
  149.7507  140.8299  156.8620 H   0  0  0  0  0  0  0  0  0  0  0  0
  152.3121  140.9670  155.1916 H   0  0  0  0  0  0  0  0  0  0  0  0
  152.1693  140.3027  156.8004 H   0  0  0  0  0  0  0  0  0  0  0  0
  153.1951  138.1962  155.0345 H   0  0  0  0  0  0  0  0  0  0  0  0
  149.3390  136.9395  154.2962 H   0  0  0  0  0  0  0  0  0  0  0  0
  151.6041  142.9515  156.1163 H   0  0  0  0  0  0  0  0  0  0  0  0
  149.9878  142.7985  158.5298 H   0  0  0  0  0  0  0  0  0  0  0  0
  151.2717  140.6690  158.4778 H   0  0  0  0  0  0  0  0  0  0  0  0
  152.7418  141.5337  158.0994 H   0  0  0  0  0  0  0  0  0  0  0  0
  151.1268  141.7209  160.6868 H   0  0  0  0  0  0  0  0  0  0  0  0
  152.6864  140.9685  160.4866 H   0  0  0  0  0  0  0  0  0  0  0  0
  153.7086  143.1251  159.8972 H   0  0  0  0  0  0  0  0  0  0  0  0
  152.2205  143.2129  162.5533 H   0  0  0  0  0  0  0  0  0  0  0  0
  153.5875  144.2393  162.1205 H   0  0  0  0  0  0  0  0  0  0  0  0
  153.7933  142.4970  162.2386 H   0  0  0  0  0  0  0  0  0  0  0  0
  152.5728  145.2199  159.9586 H   0  0  0  0  0  0  0  0  0  0  0  0
  149.9729  143.7874  160.6771 H   0  0  0  0  0  0  0  0  0  0  0  0
  150.1117  145.4707  160.1889 H   0  0  0  0  0  0  0  0  0  0  0  0
  150.8617  144.9313  161.6752 H   0  0  0  0  0  0  0  0  0  0  0  0
  152.6207  144.1652  157.8264 H   0  0  0  0  0  0  0  0  0  0  0  0
  151.0775  144.9572  157.9801 H   0  0  0  0  0  0  0  0  0  0  0  0
  150.0227  143.2958  156.3486 H   0  0  0  0  0  0  0  0  0  0  0  0
  1  2  1  0  0  0  0
  1 18  1  0  0  0  0
  1 19  1  0  0  0  0
  1 20  1  0  0  0  0
  2  3  1  0  0  0  0
  2  9  1  0  0  0  0
  2 21  1  0  0  0  0
  3  4  1  0  0  0  0
  3 22  1  0  0  0  0
  3 23  1  0  0  0  0
  4  8  1  0  0  0  0
  4  5  1  0  0  0  0
  5  6  2  0  0  0  0
  5 24  1  0  0  0  0
  6  7  1  0  0  0  0
  7  8  2  0  0  0  0
  7 25  1  0  0  0  0
  9 10  1  0  0  0  0
  9 26  1  0  0  0  0
  9 42  1  0  0  0  0
 10 17  1  0  0  0  0
 10 11  1  0  0  0  0
 10 27  1  0  0  0  0
 11 12  1  0  0  0  0
 11 28  1  0  0  0  0
 11 29  1  0  0  0  0
 12 13  1  0  0  0  0
 12 30  1  0  0  0  0
 12 31  1  0  0  0  0
 13 14  1  0  0  0  0
 13 15  1  0  0  0  0
 13 32  1  0  0  0  0
 14 33  1  0  0  0  0
 14 34  1  0  0  0  0
 14 35  1  0  0  0  0
 15 16  1  0  0  0  0
 15 17  1  0  0  0  0
 15 36  1  0  0  0  0
 16 37  1  0  0  0  0
 16 38  1  0  0  0  0
 16 39  1  0  0  0  0
 17 40  1  0  0  0  0
 17 41  1  0  0  0  0
M  CHG  1   9   1
M  END
> <s_m_source_file>
AV-unprocessed.smi

> <i_m_source_file_index>
3181

> <i_lp_mmshare_version>
43012

> <i_f3d_flags>
0

> <s_epik_input>
bjFbY0hdbltjSF1uMVtDSDJdW0NAQEhdKFtDSDNdKVtOSF1bQ0BASF0yW0NIMl1bQ0gyXVtDQEBIXShbQ0gzXSlbQ0BASF0oW0NIM10pW0NIMl0y

> <s_epik_cmdline>
J2VwaWtfcHl0aG9uJywgJy1waCcsICc3LjAnLCAnLXRuJywgJzgnLCAnLW1hJywgJzIwMCcsICctbWV0YWxfYmluZGluZycsICctaW1hZScsICc8aW5maWxlLm1hZT4nLCAnLW9tYWUnLCAnPG91dGZpbGUubWFlPic=

> <r_lp_tautomer_probability>
1

> <r_epik_Ionization_Penalty>
0.000617007

> <r_epik_Ionization_Penalty_Charging>
0.000616215

> <r_epik_Ionization_Penalty_Neutral>
7.92544e-07

> <r_epik_State_Penalty>
0.000388807

> <r_epik_Charging_Adjusted_Penalty>
0.00100502

> <i_epik_Tot_Q>
1

> <i_epik_Tot_abs_Q>
1

> <r_epik_Metal_State_Penalty>
-0

> <b_epik_Metal_Only>
0

> <s_lp_Force_Field>
OPLS_2005

> <r_lp_Energy>
21.8546

> <b_lp_Chiralities_Consistent>
1

> <s_lp_Variant>
AV-unprocessed.smi:3181-16

> <Gold.Version>
5.8.1

> <Gold.Id.Protein>
6NUR|6NUR_protein|mol2

> <Gold.PLP.Fitness>
51.4393

> <Gold.PLP.PLP>
-40.2907

> <Gold.PLP.part.hbond>
-2.0000

> <Gold.PLP.part.metal>
0.0000

> <Gold.PLP.part.buried>
-4.2979

> <Gold.PLP.part.nonpolar>
-35.0913

> <Gold.PLP.part.repulsive>
0.3376

> <Gold.PLP.ligand.clash>
0.0000

> <Gold.PLP.ligand.torsion>
0.4397

> <Gold.PLP.Chemscore.Hbond>
3.0000

> <Gold.PLP.Chemscore.CHOScore>
1.0000

> <Gold.PLP.Chemscore.Metal>
0.0000

> <Gold.Chemscore.Hbonds>
donor molecule, donor type, donor heavy atom, donor atom, acceptor molecule, acceptor atom, score
      L1  H     9    42       P1  8028  2.00
      P1  H 10752 10763       L1     6  0.94
      L1  C     7    25       P1  7948  0.80

> <Gold.PLP.Chemscore.Internal.Correction>
0.0280

> <Gold.Rescore>
     Score         DG    S(hbond)    S(metal)    S(lipo)     H(rot)  DE(clash)    DE(int)     intcor
     16.45     -18.33       1.92        0.00     101.26       2.11       0.03       1.85       ----

> <Gold.Chemscore.Fitness>
16.4459

> <Gold.Chemscore.DG>
-18.3279

> <Gold.Chemscore.ZeroCoef>
-5.4800

> <Gold.Chemscore.Hbond>
1.9163

> <Gold.Chemscore.Metal>
0.0000

> <Gold.Chemscore.Lipo>
101.2636

> <Gold.Chemscore.Internal_Hbond>
0.0000

> <Gold.Chemscore.DEClash>
0.0297

> <Gold.Chemscore.DEInternal>
1.8522

> <Gold.Chemscore.Rot>
2.1095

> <Gold.Chemscore.Internal.Correction>
   9.000000E+99

> <Gold.Chemscore.Hbonds>
donor molecule, donor type, donor heavy atom, donor atom, acceptor molecule, acceptor atom, score
      L1  H     9    42       P1  8028  0.99
      P1  H 10752 10763       L1     6  0.40

> <Gold.Chemscore.Hbond.Weighted>
-6.4003

> <Gold.Chemscore.Metal.Weighted>
-0.0000

> <Gold.Chemscore.Lipo.Weighted>
-11.8478

> <Gold.Chemscore.Internal_Hbond.Weighted>
0.0000

> <Gold.Chemscore.DEClash.Weighted>
0.0297

> <Gold.Chemscore.DEInternal.Weighted>
1.8522

> <Gold.Chemscore.Rot.Weighted>
5.4003

> <Gold.Chemscore.Internal.Correction.Weighted>
   9.000000E+99

> <Gold.Protein.RotatedTorsions>
[ 6907 6896 6895 6894 ] final  113.79 input  -60.11 | X-H torsion
[ 7974 7965 7964 7962 ] final   95.03 input  175.53 | X-H torsion
[ 8008 7997 7996 7995 ] final -104.83 input   59.86 | X-H torsion
[ 10167 10162 10161 10158 ] final  -66.02 input  -65.29 | X-H torsion
[ 10718 10713 10712 10709 ] final  -17.39 input   66.30 | X-H torsion
[ 10763 10752 10751 10750 ] final   43.79 input  -60.55 | X-H torsion
[ 11005 11000 10999 10996 ] final  -30.19 input  -57.11 | X-H torsion

> <Gold.Protein.ActiveResidues>
 VAL166  LYS551  ARG553  GLY616  TRP617  ASP618  TYR619  PRO620  LYS621  CYS622 
 ASP623  PHE694  ASN695  SER759  ASP760  ASP761  ALA762  ILE779  LEU786  VAL792 
 PHE793  MET794  SER795  GLU796  ALA797  LYS798  CYS799  TRP800  GLU811  SER814 

> <Gold.Protein.RotatedAtoms>
  152.4840  133.8327  159.7111 H   0  0  0  0  0  0  0  0  0  0  0  0  # atno 6907 bound_to 6896
  150.8912  133.7231  159.2910 H   0  0  0  0  0  0  0  0  0  0  0  0  # atno 6908 bound_to 6896
  151.4703  135.1049  159.9802 H   0  0  0  0  0  0  0  0  0  0  0  0  # atno 6909 bound_to 6896
  145.4577  139.2289  143.3005 H   0  0  0  0  0  0  0  0  0  0  0  0  # atno 7974 bound_to 7965
  154.8910  140.0416  157.1838 H   0  0  0  0  0  0  0  0  0  0  0  0  # atno 8008 bound_to 7997
  154.8541  140.2934  155.5559 H   0  0  0  0  0  0  0  0  0  0  0  0  # atno 8009 bound_to 7997
  156.2997  140.2459  156.3505 H   0  0  0  0  0  0  0  0  0  0  0  0  # atno 8010 bound_to 7997
  140.5688  143.2316  151.6581 H   0  0  0  0  0  0  0  0  0  0  0  0  # atno 10167 bound_to 10162
  156.5742  130.4757  149.6349 H   0  0  0  0  0  0  0  0  0  0  0  0  # atno 10718 bound_to 10713
  152.9853  135.6090  154.3169 H   0  0  0  0  0  0  0  0  0  0  0  0  # atno 10763 bound_to 10752
  154.2881  135.2775  155.2669 H   0  0  0  0  0  0  0  0  0  0  0  0  # atno 10764 bound_to 10752
  154.4977  135.5875  153.6564 H   0  0  0  0  0  0  0  0  0  0  0  0  # atno 10765 bound_to 10752
  140.9361  133.7308  156.1007 H   0  0  0  0  0  0  0  0  0  0  0  0  # atno 11005 bound_to 11000
  146.2469  140.5342  142.8910 LP  0  0  0  0  0  0  0  0  0  0  0  0  # atno 17320 bound_to 7965
  144.8022  140.6234  143.6470 LP  0  0  0  0  0  0  0  0  0  0  0  0  # atno 17321 bound_to 7965
  139.5106  144.3536  152.0629 LP  0  0  0  0  0  0  0  0  0  0  0  0  # atno 17342 bound_to 10162
  140.2671  144.4005  150.6164 LP  0  0  0  0  0  0  0  0  0  0  0  0  # atno 17343 bound_to 10162
  156.2688  130.7005  151.1796 LP  0  0  0  0  0  0  0  0  0  0  0  0  # atno 17370 bound_to 10713
  157.7341  131.0584  150.5540 LP  0  0  0  0  0  0  0  0  0  0  0  0  # atno 17371 bound_to 10713
  140.7797  134.3739  157.5490 LP  0  0  0  0  0  0  0  0  0  0  0  0  # atno 17394 bound_to 11000
  139.8808  134.9074  156.2944 LP  0  0  0  0  0  0  0  0  0  0  0  0  # atno 17395 bound_to 11000

$$$$
