AV-unprocessed.smi:1056|AV-procd|sdf|4641|dock2
  -GOLD-   22720 3143D 1   1.00000     0.00000
 Structure written by MMmdl.
 45 47  0  0  0  0  0  0  0  0  2 V2000
  152.3133  144.0860  160.0799 C   0  0  0  0  0  0  0  0  0  0  0  0
  152.0592  143.0218  159.0258 C   0  0  0  0  0  0  0  0  0  0  0  0
  151.1349  143.3013  157.9941 C   0  0  0  0  0  0  0  0  0  0  0  0
  150.9261  142.3090  157.0434 C   0  0  0  0  0  0  0  0  0  0  0  0
  150.0968  142.2798  155.9203 N   0  3  0  0  0  0  0  0  0  0  0  0
  150.2329  141.0826  155.2863 C   0  0  0  0  0  0  0  0  0  0  0  0
  151.1355  140.3455  155.9885 N   0  0  0  0  0  0  0  0  0  0  0  0
  151.6355  138.9866  155.7343 C   0  0  0  0  0  0  0  0  0  0  0  0
  150.9542  138.3119  154.5271 C   0  0  1  0  0  0  0  0  0  0  0  0
  151.8041  137.3091  154.0058 O   0  0  0  0  0  0  0  0  0  0  0  0
  149.6124  137.6618  154.9247 C   0  0  0  0  0  0  0  0  0  0  0  0
  149.6711  136.2348  155.2872 N   0  0  0  0  0  0  0  0  0  0  0  0
  148.3609  135.5744  155.3163 C   0  0  0  0  0  0  0  0  0  0  0  0
  147.4412  136.0843  156.4442 C   0  0  0  0  0  0  0  0  0  0  0  0
  148.1616  136.2856  157.7007 N   0  0  0  0  0  0  0  0  0  0  0  0
  149.5001  136.3158  157.8225 C   0  0  0  0  0  0  0  0  0  0  0  0
  150.0489  136.5448  158.8976 O   0  0  0  0  0  0  0  0  0  0  0  0
  150.3542  136.0215  156.5726 C   0  0  0  0  0  0  0  0  0  0  0  0
  151.5968  141.0715  157.0935 C   0  0  0  0  0  0  0  0  0  0  0  0
  152.5110  140.7808  158.1037 C   0  0  0  0  0  0  0  0  0  0  0  0
  152.7387  141.7774  159.0794 C   0  0  0  0  0  0  0  0  0  0  0  0
  153.7339  141.4886  160.1904 C   0  0  0  0  0  0  0  0  0  0  0  0
  151.7335  144.9885  159.8840 H   0  0  0  0  0  0  0  0  0  0  0  0
  153.3672  144.3648  160.0977 H   0  0  0  0  0  0  0  0  0  0  0  0
  152.0349  143.7195  161.0683 H   0  0  0  0  0  0  0  0  0  0  0  0
  150.6145  144.2468  157.9464 H   0  0  0  0  0  0  0  0  0  0  0  0
  149.7172  140.7733  154.3886 H   0  0  0  0  0  0  0  0  0  0  0  0
  152.7189  139.0163  155.6159 H   0  0  0  0  0  0  0  0  0  0  0  0
  151.4450  138.4051  156.6372 H   0  0  0  0  0  0  0  0  0  0  0  0
  150.8045  139.0701  153.7599 H   0  0  0  0  0  0  0  0  0  0  0  0
  151.5579  137.1492  153.1070 H   0  0  0  0  0  0  0  0  0  0  0  0
  149.2136  138.2275  155.7686 H   0  0  0  0  0  0  0  0  0  0  0  0
  148.8933  137.8126  154.1190 H   0  0  0  0  0  0  0  0  0  0  0  0
  147.8569  135.6443  154.3540 H   0  0  0  0  0  0  0  0  0  0  0  0
  148.5203  134.5049  155.4651 H   0  0  0  0  0  0  0  0  0  0  0  0
  146.9872  137.0336  156.1586 H   0  0  0  0  0  0  0  0  0  0  0  0
  146.6208  135.3854  156.6077 H   0  0  0  0  0  0  0  0  0  0  0  0
  147.6069  136.4547  158.5275 H   0  0  0  0  0  0  0  0  0  0  0  0
  150.6585  134.9762  156.6396 H   0  0  0  0  0  0  0  0  0  0  0  0
  151.2795  136.5976  156.6176 H   0  0  0  0  0  0  0  0  0  0  0  0
  153.0346  139.8370  158.1415 H   0  0  0  0  0  0  0  0  0  0  0  0
  154.1321  140.4762  160.1163 H   0  0  0  0  0  0  0  0  0  0  0  0
  153.2601  141.5876  161.1671 H   0  0  0  0  0  0  0  0  0  0  0  0
  154.5739  142.1817  160.1399 H   0  0  0  0  0  0  0  0  0  0  0  0
  149.4833  143.0211  155.6068 H   0  0  0  0  0  0  0  0  0  0  0  0
  1  2  1  0  0  0  0
  1 23  1  0  0  0  0
  1 24  1  0  0  0  0
  1 25  1  0  0  0  0
  2 21  1  0  0  0  0
  2  3  2  0  0  0  0
  3  4  1  0  0  0  0
  3 26  1  0  0  0  0
  4 19  2  0  0  0  0
  4  5  1  0  0  0  0
  5  6  2  0  0  0  0
  5 45  1  0  0  0  0
  6  7  1  0  0  0  0
  6 27  1  0  0  0  0
  7  8  1  0  0  0  0
  7 19  1  0  0  0  0
  8  9  1  0  0  0  0
  8 28  1  0  0  0  0
  8 29  1  0  0  0  0
  9 10  1  0  0  0  0
  9 11  1  0  0  0  0
  9 30  1  0  0  0  0
 10 31  1  0  0  0  0
 11 12  1  0  0  0  0
 11 32  1  0  0  0  0
 11 33  1  0  0  0  0
 12 18  1  0  0  0  0
 12 13  1  0  0  0  0
 13 14  1  0  0  0  0
 13 34  1  0  0  0  0
 13 35  1  0  0  0  0
 14 15  1  0  0  0  0
 14 36  1  0  0  0  0
 14 37  1  0  0  0  0
 15 16  1  0  0  0  0
 15 38  1  0  0  0  0
 16 17  2  0  0  0  0
 16 18  1  0  0  0  0
 18 39  1  0  0  0  0
 18 40  1  0  0  0  0
 19 20  1  0  0  0  0
 20 21  2  0  0  0  0
 20 41  1  0  0  0  0
 21 22  1  0  0  0  0
 22 42  1  0  0  0  0
 22 43  1  0  0  0  0
 22 44  1  0  0  0  0
M  CHG  1   5   1
M  END
> <s_m_source_file>
AV-unprocessed.smi

> <i_m_source_file_index>
1056

> <i_lp_mmshare_version>
43012

> <i_f3d_flags>
0

> <s_epik_input>
W0NIM11jKFtjSF0xKWMoW0NIM10pW2NIXWMoYzEyKW4oW2NIXW4yKVtDSDJdW0NASF0oW09IXSlbQ0gyXU4zW0NIMl1bQ0gyXVtOSF1DKD1PKVtDSDJdMw==

> <s_epik_cmdline>
J2VwaWtfcHl0aG9uJywgJy1waCcsICc3LjAnLCAnLXRuJywgJzgnLCAnLW1hJywgJzIwMCcsICctbWV0YWxfYmluZGluZycsICctaW1hZScsICc8aW5maWxlLm1hZT4nLCAnLW9tYWUnLCAnPG91dGZpbGUubWFlPic=

> <r_epik_Ionization_Penalty>
2.47196

> <r_epik_Ionization_Penalty_Charging>
1.21809

> <r_epik_Ionization_Penalty_Neutral>
1.25387

> <r_epik_State_Penalty>
2.6255

> <r_epik_Charging_Adjusted_Penalty>
3.84359

> <i_epik_Tot_Q>
1

> <i_epik_Tot_abs_Q>
1

> <r_epik_Metal_State_Penalty>
2.76698

> <b_epik_Metal_Only>
0

> <s_lp_Force_Field>
OPLS_2005

> <r_lp_Energy>
37.879

> <b_lp_Chiralities_Consistent>
1

> <s_lp_Variant>
AV-unprocessed.smi:1056-12

> <Gold.Version>
5.8.1

> <Gold.Id.Protein>
6NUR|6NUR_protein|mol2

> <Gold.PLP.Fitness>
53.1625

> <Gold.PLP.PLP>
-39.7110

> <Gold.PLP.part.hbond>
-4.0000

> <Gold.PLP.part.metal>
0.0000

> <Gold.PLP.part.buried>
-4.7998

> <Gold.PLP.part.nonpolar>
-30.6635

> <Gold.PLP.part.repulsive>
0.2854

> <Gold.PLP.ligand.clash>
0.0000

> <Gold.PLP.ligand.torsion>
0.7898

> <Gold.PLP.Chemscore.Hbond>
4.9920

> <Gold.PLP.Chemscore.CHOScore>
0.0000

> <Gold.PLP.Chemscore.Metal>
0.0000

> <Gold.Chemscore.Hbonds>
donor molecule, donor type, donor heavy atom, donor atom, acceptor molecule, acceptor atom, score
      L1  H     5    45       P1  8028  2.00
      L1  H    10    31       P1  7949  1.00
      P1  H  6896  6908       L1    17  0.99
      P1  H 10752 10765       L1    10  0.94

> <Gold.PLP.Chemscore.Internal.Correction>
0.0551

> <Gold.Rescore>
     Score         DG    S(hbond)    S(metal)    S(lipo)     H(rot)  DE(clash)    DE(int)     intcor
     21.51     -22.39       3.41        0.00      99.14       2.37       0.02       0.86       ----

> <Gold.Chemscore.Fitness>
21.5071

> <Gold.Chemscore.DG>
-22.3909

> <Gold.Chemscore.ZeroCoef>
-5.4800

> <Gold.Chemscore.Hbond>
3.4088

> <Gold.Chemscore.Metal>
0.0000

> <Gold.Chemscore.Lipo>
99.1353

> <Gold.Chemscore.Internal_Hbond>
0.0000

> <Gold.Chemscore.DEClash>
0.0243

> <Gold.Chemscore.DEInternal>
0.8594

> <Gold.Chemscore.Rot>
2.3724

> <Gold.Chemscore.Internal.Correction>
   9.000000E+99

> <Gold.Chemscore.Hbonds>
donor molecule, donor type, donor heavy atom, donor atom, acceptor molecule, acceptor atom, score
      L1  H     5    45       P1  8028  0.96
      L1  H    10    31       P1  7949  0.85
      P1  H  6896  6908       L1    17  0.69
      P1  H 10752 10765       L1    10  0.19

> <Gold.Chemscore.Hbond.Weighted>
-11.3854

> <Gold.Chemscore.Metal.Weighted>
-0.0000

> <Gold.Chemscore.Lipo.Weighted>
-11.5988

> <Gold.Chemscore.Internal_Hbond.Weighted>
0.0000

> <Gold.Chemscore.DEClash.Weighted>
0.0243

> <Gold.Chemscore.DEInternal.Weighted>
0.8594

> <Gold.Chemscore.Rot.Weighted>
6.0734

> <Gold.Chemscore.Internal.Correction.Weighted>
   9.000000E+99

> <Gold.Protein.RotatedTorsions>
[ 6907 6896 6895 6894 ] final -173.99 input  -60.11 | X-H torsion
[ 7974 7965 7964 7962 ] final   63.90 input  175.53 | X-H torsion
[ 8008 7997 7996 7995 ] final   59.46 input   59.86 | X-H torsion
[ 10167 10162 10161 10158 ] final  -48.77 input  -65.29 | X-H torsion
[ 10718 10713 10712 10709 ] final -167.16 input   66.30 | X-H torsion
[ 10763 10752 10751 10750 ] final  165.65 input  -60.55 | X-H torsion
[ 11005 11000 10999 10996 ] final  -20.39 input  -57.11 | X-H torsion

> <Gold.Protein.ActiveResidues>
 VAL166  LYS551  ARG553  GLY616  TRP617  ASP618  TYR619  PRO620  LYS621  CYS622 
 ASP623  PHE694  ASN695  SER759  ASP760  ASP761  ALA762  ILE779  LEU786  VAL792 
 PHE793  MET794  SER795  GLU796  ALA797  LYS798  CYS799  TRP800  GLU811  SER814 

> <Gold.Protein.RotatedAtoms>
  151.5651  133.3398  159.2978 H   0  0  0  0  0  0  0  0  0  0  0  0  # atno 6907 bound_to 6896
  150.8400  134.7691  159.6936 H   0  0  0  0  0  0  0  0  0  0  0  0  # atno 6908 bound_to 6896
  152.4469  134.5482  159.9910 H   0  0  0  0  0  0  0  0  0  0  0  0  # atno 6909 bound_to 6896
  145.8564  139.3287  143.0845 H   0  0  0  0  0  0  0  0  0  0  0  0  # atno 7974 bound_to 7965
  155.5665  140.3489  155.4504 H   0  0  0  0  0  0  0  0  0  0  0  0  # atno 8008 bound_to 7997
  156.0476  140.1310  157.0112 H   0  0  0  0  0  0  0  0  0  0  0  0  # atno 8009 bound_to 7997
  154.4419  140.1011  156.6313 H   0  0  0  0  0  0  0  0  0  0  0  0  # atno 8010 bound_to 7997
  140.6715  143.2725  151.4119 H   0  0  0  0  0  0  0  0  0  0  0  0  # atno 10167 bound_to 10162
  156.6784  130.9112  151.3053 H   0  0  0  0  0  0  0  0  0  0  0  0  # atno 10718 bound_to 10713
  154.3272  135.2755  155.2490 H   0  0  0  0  0  0  0  0  0  0  0  0  # atno 10763 bound_to 10752
  154.4817  135.5856  153.6398 H   0  0  0  0  0  0  0  0  0  0  0  0  # atno 10764 bound_to 10752
  152.9870  135.6113  154.3462 H   0  0  0  0  0  0  0  0  0  0  0  0  # atno 10765 bound_to 10752
  140.8460  133.7891  155.9913 H   0  0  0  0  0  0  0  0  0  0  0  0  # atno 11005 bound_to 11000
  145.9298  140.9056  143.0362 LP  0  0  0  0  0  0  0  0  0  0  0  0  # atno 17320 bound_to 7965
  144.6727  140.1403  143.7437 LP  0  0  0  0  0  0  0  0  0  0  0  0  # atno 17321 bound_to 7965
  139.5986  144.1343  152.2173 LP  0  0  0  0  0  0  0  0  0  0  0  0  # atno 17342 bound_to 10162
  140.0720  144.5771  150.7185 LP  0  0  0  0  0  0  0  0  0  0  0  0  # atno 17343 bound_to 10162
  157.7052  130.9377  150.0910 LP  0  0  0  0  0  0  0  0  0  0  0  0  # atno 17370 bound_to 10713
  156.1886  130.3653  149.8940 LP  0  0  0  0  0  0  0  0  0  0  0  0  # atno 17371 bound_to 10713
  140.8843  134.2573  157.5128 LP  0  0  0  0  0  0  0  0  0  0  0  0  # atno 17394 bound_to 11000
  139.8703  134.9630  156.4448 LP  0  0  0  0  0  0  0  0  0  0  0  0  # atno 17395 bound_to 11000

$$$$
