AV-unprocessed.smi:2717|AV-procd|sdf|10485|dock5
  -GOLD-   2272014533D 1   1.00000     0.00000
 Structure written by MMmdl.
 43 44  0  0  0  0  0  0  0  0  1 V2000
  152.5369  138.3977  154.4055 C   0  0  0  0  0  0  0  0  0  0  0  0
  151.6153  138.8371  155.5485 C   0  0  0  0  0  0  0  0  0  0  0  0
  150.5211  139.7409  155.0879 C   0  0  0  0  0  0  0  0  0  0  0  0
  149.5455  139.3544  154.2613 N   0  0  0  0  0  0  0  0  0  0  0  0
  148.6243  140.3739  154.0030 C   0  0  0  0  0  0  0  0  0  0  0  0
  147.4723  140.1274  153.0726 C   0  0  0  0  0  0  0  0  0  0  0  0
  146.5019  139.0365  153.5699 C   0  0  0  0  0  0  0  0  0  0  0  0
  146.7693  137.7258  152.9846 N   0  0  0  0  0  0  0  0  0  0  0  0
  145.9019  136.7051  152.9559 C   0  0  0  0  0  0  0  0  0  0  0  0
  144.7778  136.7401  153.4570 O   0  0  0  0  0  0  0  0  0  0  0  0
  146.3994  135.6505  152.2955 N   0  0  0  0  0  0  0  0  0  0  0  0
  145.6821  134.4064  152.0364 C   0  0  2  0  0  0  0  0  0  0  0  0
  146.6889  133.2903  151.7041 C   0  0  0  0  0  0  0  0  0  0  0  0
  145.9768  131.9684  151.3671 C   0  0  0  0  0  0  0  0  0  0  0  0
  144.9401  132.1350  150.2400 C   0  0  2  0  0  0  0  0  0  0  0  0
  145.5946  132.3724  149.0093 O   0  0  0  0  0  0  0  0  0  0  0  0
  143.9547  133.2798  150.5410 C   0  0  0  0  0  0  0  0  0  0  0  0
  144.6756  134.5954  150.8832 C   0  0  0  0  0  0  0  0  0  0  0  0
  148.9101  141.5426  154.6642 C   0  0  0  0  0  0  0  0  0  0  0  0
  150.3508  141.4057  155.6327 S   0  0  0  0  0  0  0  0  0  0  0  0
  153.3239  137.7385  154.7722 H   0  0  0  0  0  0  0  0  0  0  0  0
  153.0147  139.2565  153.9329 H   0  0  0  0  0  0  0  0  0  0  0  0
  151.9808  137.8585  153.6380 H   0  0  0  0  0  0  0  0  0  0  0  0
  151.1689  137.9629  156.0231 H   0  0  0  0  0  0  0  0  0  0  0  0
  152.1952  139.3488  156.3180 H   0  0  0  0  0  0  0  0  0  0  0  0
  146.9168  141.0523  152.9143 H   0  0  0  0  0  0  0  0  0  0  0  0
  147.8516  139.8471  152.0893 H   0  0  0  0  0  0  0  0  0  0  0  0
  146.5990  138.9328  154.6508 H   0  0  0  0  0  0  0  0  0  0  0  0
  145.4684  139.3294  153.3796 H   0  0  0  0  0  0  0  0  0  0  0  0
  147.6676  137.6006  152.5411 H   0  0  0  0  0  0  0  0  0  0  0  0
  147.3336  135.7226  151.9196 H   0  0  0  0  0  0  0  0  0  0  0  0
  145.1375  134.1145  152.9368 H   0  0  0  0  0  0  0  0  0  0  0  0
  147.3121  133.5927  150.8611 H   0  0  0  0  0  0  0  0  0  0  0  0
  147.3654  133.1355  152.5457 H   0  0  0  0  0  0  0  0  0  0  0  0
  146.7087  131.2056  151.0989 H   0  0  0  0  0  0  0  0  0  0  0  0
  145.4720  131.6021  152.2619 H   0  0  0  0  0  0  0  0  0  0  0  0
  144.3819  131.2049  150.1288 H   0  0  0  0  0  0  0  0  0  0  0  0
  145.4624  133.2763  148.7679 H   0  0  0  0  0  0  0  0  0  0  0  0
  143.2805  133.4309  149.6972 H   0  0  0  0  0  0  0  0  0  0  0  0
  143.3249  132.9933  151.3842 H   0  0  0  0  0  0  0  0  0  0  0  0
  143.9383  135.3545  151.1474 H   0  0  0  0  0  0  0  0  0  0  0  0
  145.1934  134.9676  149.9980 H   0  0  0  0  0  0  0  0  0  0  0  0
  148.3634  142.4737  154.6354 H   0  0  0  0  0  0  0  0  0  0  0  0
  1  2  1  0  0  0  0
  1 21  1  0  0  0  0
  1 22  1  0  0  0  0
  1 23  1  0  0  0  0
  2  3  1  0  0  0  0
  2 24  1  0  0  0  0
  2 25  1  0  0  0  0
  3 20  1  0  0  0  0
  3  4  2  0  0  0  0
  4  5  1  0  0  0  0
  5  6  1  0  0  0  0
  5 19  2  0  0  0  0
  6  7  1  0  0  0  0
  6 26  1  0  0  0  0
  6 27  1  0  0  0  0
  7  8  1  0  0  0  0
  7 28  1  0  0  0  0
  7 29  1  0  0  0  0
  8  9  1  0  0  0  0
  8 30  1  0  0  0  0
  9 10  2  0  0  0  0
  9 11  1  0  0  0  0
 11 12  1  0  0  0  0
 11 31  1  0  0  0  0
 12 18  1  0  0  0  0
 12 13  1  0  0  0  0
 12 32  1  0  0  0  0
 13 14  1  0  0  0  0
 13 33  1  0  0  0  0
 13 34  1  0  0  0  0
 14 15  1  0  0  0  0
 14 35  1  0  0  0  0
 14 36  1  0  0  0  0
 15 16  1  0  0  0  0
 15 17  1  0  0  0  0
 15 37  1  0  0  0  0
 16 38  1  0  0  0  0
 17 18  1  0  0  0  0
 17 39  1  0  0  0  0
 17 40  1  0  0  0  0
 18 41  1  0  0  0  0
 18 42  1  0  0  0  0
 19 20  1  0  0  0  0
 19 43  1  0  0  0  0
M  END
> <s_m_source_file>
AV-unprocessed.smi

> <i_m_source_file_index>
2717

> <i_lp_mmshare_version>
43012

> <i_f3d_flags>
0

> <s_epik_input>
W0NIM11bQ0gyXWMxbmMoW2NIXXMxKVtDSDJdW0NIMl1bTkhdQyg9TylbTkhdW0NAQEhdMltDSDJdW0NIMl1bQ0BASF0oW09IXSlbQ0gyXVtDSDJdMg==

> <s_epik_cmdline>
J2VwaWtfcHl0aG9uJywgJy1waCcsICc3LjAnLCAnLXRuJywgJzgnLCAnLW1hJywgJzIwMCcsICctbWV0YWxfYmluZGluZycsICctaW1hZScsICc8aW5maWxlLm1hZT4nLCAnLW9tYWUnLCAnPG91dGZpbGUubWFlPic=

> <r_epik_Ionization_Penalty>
0.00202099

> <r_epik_Ionization_Penalty_Charging>
0

> <r_epik_Ionization_Penalty_Neutral>
0.00202099

> <r_epik_State_Penalty>
0.00133629

> <r_epik_Charging_Adjusted_Penalty>
0.00133629

> <i_epik_Tot_Q>
0

> <i_epik_Tot_abs_Q>
0

> <r_epik_Metal_State_Penalty>
-0

> <b_epik_Metal_Only>
0

> <s_lp_Force_Field>
OPLS_2005

> <r_lp_Energy>
0.0101123

> <b_lp_Chiralities_Consistent>
1

> <s_lp_Variant>
AV-unprocessed.smi:2717-2

> <Gold.Version>
5.8.1

> <Gold.Id.Protein>
6NUR|6NUR_protein|mol2

> <Gold.PLP.Fitness>
47.0857

> <Gold.PLP.PLP>
-37.3097

> <Gold.PLP.part.hbond>
-3.4252

> <Gold.PLP.part.metal>
0.0000

> <Gold.PLP.part.buried>
-0.5242

> <Gold.PLP.part.nonpolar>
-32.8119

> <Gold.PLP.part.repulsive>
0.3366

> <Gold.PLP.ligand.clash>
0.0000

> <Gold.PLP.ligand.torsion>
0.6570

> <Gold.PLP.Chemscore.Hbond>
2.6880

> <Gold.PLP.Chemscore.CHOScore>
1.0000

> <Gold.PLP.Chemscore.Metal>
0.0000

> <Gold.Chemscore.Hbonds>
donor molecule, donor type, donor heavy atom, donor atom, acceptor molecule, acceptor atom, score
      L1  H     8    30       P1  7948  0.90
      L1  H    11    31       P1  7948  1.00
      L1  H    16    38       P1  7921  0.79
      L1  C    19    43       P1  8028  1.00

> <Gold.PLP.Chemscore.Internal.Correction>
0.0261

> <Gold.Rescore>
     Score         DG    S(hbond)    S(metal)    S(lipo)     H(rot)  DE(clash)    DE(int)     intcor
     16.33     -17.16       2.08        0.00      88.75       2.21       0.27       0.56       ----

> <Gold.Chemscore.Fitness>
16.3313

> <Gold.Chemscore.DG>
-17.1559

> <Gold.Chemscore.ZeroCoef>
-5.4800

> <Gold.Chemscore.Hbond>
2.0795

> <Gold.Chemscore.Metal>
0.0000

> <Gold.Chemscore.Lipo>
88.7527

> <Gold.Chemscore.Internal_Hbond>
0.0000

> <Gold.Chemscore.DEClash>
0.2671

> <Gold.Chemscore.DEInternal>
0.5575

> <Gold.Chemscore.Rot>
2.2084

> <Gold.Chemscore.Internal.Correction>
   9.000000E+99

> <Gold.Chemscore.Hbonds>
donor molecule, donor type, donor heavy atom, donor atom, acceptor molecule, acceptor atom, score
      L1  H     8    30       P1  7948  0.86
      L1  H    11    31       P1  7948  0.99
      L1  H    16    38       P1  7921  0.15

> <Gold.Chemscore.Hbond.Weighted>
-6.9454

> <Gold.Chemscore.Metal.Weighted>
-0.0000

> <Gold.Chemscore.Lipo.Weighted>
-10.3841

> <Gold.Chemscore.Internal_Hbond.Weighted>
0.0000

> <Gold.Chemscore.DEClash.Weighted>
0.2671

> <Gold.Chemscore.DEInternal.Weighted>
0.5575

> <Gold.Chemscore.Rot.Weighted>
5.6535

> <Gold.Chemscore.Internal.Correction.Weighted>
   9.000000E+99

> <Gold.Protein.RotatedTorsions>
[ 6907 6896 6895 6894 ] final -145.59 input  -60.11 | X-H torsion
[ 7974 7965 7964 7962 ] final   -4.58 input  175.53 | X-H torsion
[ 8008 7997 7996 7995 ] final   56.36 input   59.86 | X-H torsion
[ 10167 10162 10161 10158 ] final -168.12 input  -65.29 | X-H torsion
[ 10718 10713 10712 10709 ] final  -77.77 input   66.30 | X-H torsion
[ 10763 10752 10751 10750 ] final   27.49 input  -60.55 | X-H torsion
[ 11005 11000 10999 10996 ] final -105.92 input  -57.11 | X-H torsion

> <Gold.Protein.ActiveResidues>
 VAL166  LYS551  ARG553  GLY616  TRP617  ASP618  TYR619  PRO620  LYS621  CYS622 
 ASP623  PHE694  ASN695  SER759  ASP760  ASP761  ALA762  ILE779  LEU786  VAL792 
 PHE793  MET794  SER795  GLU796  ALA797  LYS798  CYS799  TRP800  GLU811  SER814 

> <Gold.Protein.RotatedAtoms>
  151.1299  133.5044  159.2599 H   0  0  0  0  0  0  0  0  0  0  0  0  # atno 6907 bound_to 6896
  151.1769  135.0343  159.8786 H   0  0  0  0  0  0  0  0  0  0  0  0  # atno 6908 bound_to 6896
  152.5459  134.1155  159.8430 H   0  0  0  0  0  0  0  0  0  0  0  0  # atno 6909 bound_to 6896
  146.2370  140.1892  142.8332 H   0  0  0  0  0  0  0  0  0  0  0  0  # atno 7974 bound_to 7965
  155.5162  140.3478  155.4398 H   0  0  0  0  0  0  0  0  0  0  0  0  # atno 8008 bound_to 7997
  156.0815  140.1388  156.9733 H   0  0  0  0  0  0  0  0  0  0  0  0  # atno 8009 bound_to 7997
  154.4583  140.0945  156.6796 H   0  0  0  0  0  0  0  0  0  0  0  0  # atno 8010 bound_to 7997
  139.6006  144.1020  152.1738 H   0  0  0  0  0  0  0  0  0  0  0  0  # atno 10167 bound_to 10162
  156.0135  130.4500  150.3396 H   0  0  0  0  0  0  0  0  0  0  0  0  # atno 10718 bound_to 10713
  153.0552  135.6536  154.0594 H   0  0  0  0  0  0  0  0  0  0  0  0  # atno 10763 bound_to 10752
  154.0273  135.2914  155.3374 H   0  0  0  0  0  0  0  0  0  0  0  0  # atno 10764 bound_to 10752
  154.6864  135.5300  153.8399 H   0  0  0  0  0  0  0  0  0  0  0  0  # atno 10765 bound_to 10752
  141.1030  133.8849  157.1793 H   0  0  0  0  0  0  0  0  0  0  0  0  # atno 11005 bound_to 11000
  144.9872  140.8513  143.5361 LP  0  0  0  0  0  0  0  0  0  0  0  0  # atno 17320 bound_to 7965
  145.1893  139.2310  143.5251 LP  0  0  0  0  0  0  0  0  0  0  0  0  # atno 17321 bound_to 7965
  140.0615  144.5853  150.7259 LP  0  0  0  0  0  0  0  0  0  0  0  0  # atno 17342 bound_to 10162
  140.7246  143.2623  151.4163 LP  0  0  0  0  0  0  0  0  0  0  0  0  # atno 17343 bound_to 10162
  157.1492  131.0316  151.2893 LP  0  0  0  0  0  0  0  0  0  0  0  0  # atno 17370 bound_to 10713
  157.4407  130.7542  149.7067 LP  0  0  0  0  0  0  0  0  0  0  0  0  # atno 17371 bound_to 10713
  139.9889  135.0072  156.9927 LP  0  0  0  0  0  0  0  0  0  0  0  0  # atno 17394 bound_to 11000
  140.4974  134.1132  155.7244 LP  0  0  0  0  0  0  0  0  0  0  0  0  # atno 17395 bound_to 11000

$$$$
