AV-unprocessed.smi:61|AV-procd|sdf|598|dock4
  -GOLD-   2262016493D 1   1.00000     0.00000
 Structure written by MMmdl.
 28 29  0  0  0  0  0  0  0  0  1 V2000
  150.1020  143.8598  157.9676 N   0  0  0  0  0  0  0  0  0  0  0  0
  150.7332  142.6404  157.9305 C   0  0  0  0  0  0  0  0  0  0  0  0
  151.3647  142.2611  159.0419 N   0  0  0  0  0  0  0  0  0  0  0  0
  151.9849  141.0625  159.0033 C   0  0  0  0  0  0  0  0  0  0  0  0
  151.9664  140.2526  157.8498 C   0  0  0  0  0  0  0  0  0  0  0  0
  151.2670  140.7543  156.7264 C   0  0  0  0  0  0  0  0  0  0  0  0
  151.1973  140.0056  155.5328 N   0  0  0  0  0  0  0  0  0  0  0  0
  152.2590  139.0316  155.3003 C   0  0  0  0  0  0  0  0  0  0  0  0
  151.5921  137.8113  154.6553 C   0  0  0  0  0  0  0  0  0  0  0  0
  150.3181  138.3769  154.0354 C   0  0  0  0  0  0  0  0  0  0  0  0
  149.9303  139.4778  155.0290 C   0  0  2  0  0  0  0  0  0  0  0  0
  148.9728  140.5562  154.4732 C   0  0  0  0  0  0  0  0  0  0  0  0
  149.4505  141.1138  153.2657 O   0  0  0  0  0  0  0  0  0  0  0  0
  150.6506  141.9604  156.7856 N   0  0  0  0  0  0  0  0  0  0  0  0
  149.6072  144.2027  157.1573 H   0  0  0  0  0  0  0  0  0  0  0  0
  150.0831  144.3989  158.8208 H   0  0  0  0  0  0  0  0  0  0  0  0
  152.5014  140.7475  159.8980 H   0  0  0  0  0  0  0  0  0  0  0  0
  152.4731  139.2990  157.8331 H   0  0  0  0  0  0  0  0  0  0  0  0
  152.9890  139.4721  154.6205 H   0  0  0  0  0  0  0  0  0  0  0  0
  152.7788  138.7495  156.2169 H   0  0  0  0  0  0  0  0  0  0  0  0
  152.2347  137.3115  153.9300 H   0  0  0  0  0  0  0  0  0  0  0  0
  151.3302  137.0860  155.4272 H   0  0  0  0  0  0  0  0  0  0  0  0
  150.5500  138.7913  153.0537 H   0  0  0  0  0  0  0  0  0  0  0  0
  149.5369  137.6270  153.9091 H   0  0  0  0  0  0  0  0  0  0  0  0
  149.4336  138.9919  155.8702 H   0  0  0  0  0  0  0  0  0  0  0  0
  147.9989  140.1089  154.2733 H   0  0  0  0  0  0  0  0  0  0  0  0
  148.8036  141.3580  155.1908 H   0  0  0  0  0  0  0  0  0  0  0  0
  149.5095  140.4259  152.6204 H   0  0  0  0  0  0  0  0  0  0  0  0
  1  2  1  0  0  0  0
  1 15  1  0  0  0  0
  1 16  1  0  0  0  0
  2 14  1  0  0  0  0
  2  3  2  0  0  0  0
  3  4  1  0  0  0  0
  4  5  2  0  0  0  0
  4 17  1  0  0  0  0
  5  6  1  0  0  0  0
  5 18  1  0  0  0  0
  6  7  1  0  0  0  0
  6 14  2  0  0  0  0
  7 11  1  0  0  0  0
  7  8  1  0  0  0  0
  8  9  1  0  0  0  0
  8 19  1  0  0  0  0
  8 20  1  0  0  0  0
  9 10  1  0  0  0  0
  9 21  1  0  0  0  0
  9 22  1  0  0  0  0
 10 11  1  0  0  0  0
 10 23  1  0  0  0  0
 10 24  1  0  0  0  0
 11 12  1  0  0  0  0
 11 25  1  0  0  0  0
 12 13  1  0  0  0  0
 12 26  1  0  0  0  0
 12 27  1  0  0  0  0
 13 28  1  0  0  0  0
M  END
> <s_m_source_file>
AV-unprocessed.smi

> <i_m_source_file_index>
61

> <i_lp_mmshare_version>
43012

> <i_f3d_flags>
0

> <s_epik_input>
W05IMl1jMW5bY0hdW2NIXWMobjEpTjJbQ0gyXVtDSDJdW0NIMl1bQ0BIXTJbQ0gyXVtPSF0=

> <s_epik_cmdline>
J2VwaWtfcHl0aG9uJywgJy1waCcsICc3LjAnLCAnLXRuJywgJzgnLCAnLW1hJywgJzIwMCcsICctbWV0YWxfYmluZGluZycsICctaW1hZScsICc8aW5maWxlLm1hZT4nLCAnLW9tYWUnLCAnPG91dGZpbGUubWFlPic=

> <r_lp_tautomer_probability>
1

> <r_epik_Ionization_Penalty>
0.76024

> <r_epik_Ionization_Penalty_Charging>
0

> <r_epik_Ionization_Penalty_Neutral>
0.76024

> <r_epik_State_Penalty>
0.587668

> <r_epik_Charging_Adjusted_Penalty>
0.587668

> <i_epik_Tot_Q>
0

> <i_epik_Tot_abs_Q>
0

> <r_epik_Metal_State_Penalty>
0.307814

> <b_epik_Metal_Only>
0

> <s_lp_Force_Field>
OPLS_2005

> <r_lp_Energy>
26.7573

> <b_lp_Chiralities_Consistent>
1

> <s_lp_Variant>
AV-unprocessed.smi:61-4

> <Gold.Version>
5.8.1

> <Gold.Id.Protein>
6NUR|6NUR_protein|mol2

> <Gold.PLP.Fitness>
36.5459

> <Gold.PLP.PLP>
-27.9484

> <Gold.PLP.part.hbond>
-4.6910

> <Gold.PLP.part.metal>
0.0000

> <Gold.PLP.part.buried>
-4.9936

> <Gold.PLP.part.nonpolar>
-19.9367

> <Gold.PLP.part.repulsive>
0.1392

> <Gold.PLP.ligand.clash>
0.0000

> <Gold.PLP.ligand.torsion>
0.4045

> <Gold.PLP.Chemscore.Hbond>
3.0205

> <Gold.PLP.Chemscore.CHOScore>
0.0000

> <Gold.PLP.Chemscore.Metal>
0.0000

> <Gold.Chemscore.Hbonds>
donor molecule, donor type, donor heavy atom, donor atom, acceptor molecule, acceptor atom, score
      L1  H     1    15       P1  8028  1.00
      L1  H    13    28       P1  7957  0.89
      P1  H  7989  7998       L1     7  0.09
      P1  H  8011  8017       L1    13  1.00

> <Gold.PLP.Chemscore.Internal.Correction>
0.3451

> <Gold.Rescore>
     Score         DG    S(hbond)    S(metal)    S(lipo)     H(rot)  DE(clash)    DE(int)     intcor
     13.40     -13.91       2.34        0.00      47.99       1.96       0.01       0.51       ----

> <Gold.Chemscore.Fitness>
13.3976

> <Gold.Chemscore.DG>
-13.9126

> <Gold.Chemscore.ZeroCoef>
-5.4800

> <Gold.Chemscore.Hbond>
2.3430

> <Gold.Chemscore.Metal>
0.0000

> <Gold.Chemscore.Lipo>
47.9874

> <Gold.Chemscore.Internal_Hbond>
0.0000

> <Gold.Chemscore.DEClash>
0.0073

> <Gold.Chemscore.DEInternal>
0.5076

> <Gold.Chemscore.Rot>
1.9561

> <Gold.Chemscore.Internal.Correction>
   9.000000E+99

> <Gold.Chemscore.Hbonds>
donor molecule, donor type, donor heavy atom, donor atom, acceptor molecule, acceptor atom, score
      L1  H     1    15       P1  8028  0.40
      L1  H    13    28       P1  7957  0.82
      P1  H  8011  8017       L1    13  0.25

> <Gold.Chemscore.Hbond.Weighted>
-7.8257

> <Gold.Chemscore.Metal.Weighted>
-0.0000

> <Gold.Chemscore.Lipo.Weighted>
-5.6145

> <Gold.Chemscore.Internal_Hbond.Weighted>
0.0000

> <Gold.Chemscore.DEClash.Weighted>
0.0073

> <Gold.Chemscore.DEInternal.Weighted>
0.5076

> <Gold.Chemscore.Rot.Weighted>
5.0077

> <Gold.Chemscore.Internal.Correction.Weighted>
   9.000000E+99

> <Gold.Protein.RotatedTorsions>
[ 6907 6896 6895 6894 ] final  -90.72 input  -60.11 | X-H torsion
[ 7974 7965 7964 7962 ] final   96.17 input  175.53 | X-H torsion
[ 8008 7997 7996 7995 ] final   30.77 input   59.86 | X-H torsion
[ 10167 10162 10161 10158 ] final -127.12 input  -65.29 | X-H torsion
[ 10718 10713 10712 10709 ] final    6.71 input   66.30 | X-H torsion
[ 10763 10752 10751 10750 ] final  -66.24 input  -60.55 | X-H torsion
[ 11005 11000 10999 10996 ] final -150.78 input  -57.11 | X-H torsion

> <Gold.Protein.ActiveResidues>
 VAL166  LYS551  ARG553  GLY616  TRP617  ASP618  TYR619  PRO620  LYS621  CYS622 
 ASP623  PHE694  ASN695  SER759  ASP760  ASP761  ALA762  ILE779  LEU786  VAL792 
 PHE793  MET794  SER795  GLU796  ALA797  LYS798  CYS799  TRP800  GLU811  SER814 

> <Gold.Protein.RotatedAtoms>
  150.6884  134.2389  159.4464 H   0  0  0  0  0  0  0  0  0  0  0  0  # atno 6907 bound_to 6896
  152.0334  134.9752  160.0582 H   0  0  0  0  0  0  0  0  0  0  0  0  # atno 6908 bound_to 6896
  152.1282  133.4357  159.4745 H   0  0  0  0  0  0  0  0  0  0  0  0  # atno 6909 bound_to 6896
  145.4424  139.2300  143.3085 H   0  0  0  0  0  0  0  0  0  0  0  0  # atno 7974 bound_to 7965
  155.0958  140.3224  155.4561 H   0  0  0  0  0  0  0  0  0  0  0  0  # atno 8008 bound_to 7997
  156.2730  140.2070  156.6031 H   0  0  0  0  0  0  0  0  0  0  0  0  # atno 8009 bound_to 7997
  154.6868  140.0520  157.0310 H   0  0  0  0  0  0  0  0  0  0  0  0  # atno 8010 bound_to 7997
  139.9643  143.5916  152.2434 H   0  0  0  0  0  0  0  0  0  0  0  0  # atno 10167 bound_to 10162
  156.9262  130.5809  149.5648 H   0  0  0  0  0  0  0  0  0  0  0  0  # atno 10718 bound_to 10713
  154.3569  135.6124  153.5671 H   0  0  0  0  0  0  0  0  0  0  0  0  # atno 10763 bound_to 10752
  152.9795  135.5806  154.4678 H   0  0  0  0  0  0  0  0  0  0  0  0  # atno 10764 bound_to 10752
  154.4409  135.2850  155.1825 H   0  0  0  0  0  0  0  0  0  0  0  0  # atno 10765 bound_to 10752
  140.7366  134.3562  157.5156 H   0  0  0  0  0  0  0  0  0  0  0  0  # atno 11005 bound_to 11000
  146.2549  140.5174  142.8878 LP  0  0  0  0  0  0  0  0  0  0  0  0  # atno 17320 bound_to 7965
  144.8113  140.6390  143.6413 LP  0  0  0  0  0  0  0  0  0  0  0  0  # atno 17321 bound_to 7965
  139.6530  144.7661  151.2111 LP  0  0  0  0  0  0  0  0  0  0  0  0  # atno 17342 bound_to 10162
  140.7543  143.6130  150.8586 LP  0  0  0  0  0  0  0  0  0  0  0  0  # atno 17343 bound_to 10162
  156.0468  130.5543  150.8899 LP  0  0  0  0  0  0  0  0  0  0  0  0  # atno 17370 bound_to 10713
  157.5876  131.0945  150.9171 LP  0  0  0  0  0  0  0  0  0  0  0  0  # atno 17371 bound_to 10713
  139.8815  134.9053  156.2897 LP  0  0  0  0  0  0  0  0  0  0  0  0  # atno 17394 bound_to 11000
  140.9874  133.7229  156.0763 LP  0  0  0  0  0  0  0  0  0  0  0  0  # atno 17395 bound_to 11000

$$$$
