AV-unprocessed.smi:2694|AV-procd|sdf|10406|dock7
  -GOLD-   2272014443D 1   1.00000     0.00000
 Structure written by MMmdl.
 42 44  0  0  0  0  0  0  0  0  1 V2000
  154.3242  135.5883  160.2418 O   0  0  0  0  0  0  0  0  0  0  0  0
  154.2306  135.6873  161.4655 C   0  0  0  0  0  0  0  0  0  0  0  0
  154.5596  134.5879  162.3726 C   0  0  0  0  0  0  0  0  0  0  0  0
  154.4398  134.7351  163.7138 C   0  0  0  0  0  0  0  0  0  0  0  0
  154.7520  133.6003  164.6797 C   0  0  0  0  0  0  0  0  0  0  0  0
  155.0463  132.2333  164.0404 C   0  0  0  0  0  0  0  0  0  0  0  0
  154.2680  131.5965  165.1972 C   0  0  0  0  0  0  0  0  0  0  0  0
  153.5421  132.9366  165.3592 C   0  0  0  0  0  0  0  0  0  0  0  0
  153.9866  135.9417  164.2596 N   0  0  0  0  0  0  0  0  0  0  0  0
  153.6885  136.9302  163.4781 C   0  0  0  0  0  0  0  0  0  0  0  0
  153.8059  136.8303  162.0787 N   0  0  0  0  0  0  0  0  0  0  0  0
  153.4331  138.0248  161.3040 C   0  0  0  0  0  0  0  0  0  0  0  0
  154.6683  138.7967  160.7876 C   0  0  1  0  0  0  0  0  0  0  0  0
  155.4267  137.9877  159.9107 O   0  0  0  0  0  0  0  0  0  0  0  0
  154.3005  140.0870  160.0347 C   0  0  0  0  0  0  0  0  0  0  0  0
  153.8260  141.0624  160.9547 O   0  0  0  0  0  0  0  0  0  0  0  0
  153.2380  142.2070  160.4593 C   0  0  0  0  0  0  0  0  0  0  0  0
  153.0028  142.4428  159.0805 C   0  0  0  0  0  0  0  0  0  0  0  0
  152.3928  143.6385  158.6540 C   0  0  0  0  0  0  0  0  0  0  0  0
  152.0115  144.6122  159.5948 C   0  0  0  0  0  0  0  0  0  0  0  0
  152.2419  144.3891  160.9644 C   0  0  0  0  0  0  0  0  0  0  0  0
  152.8515  143.1939  161.3939 C   0  0  0  0  0  0  0  0  0  0  0  0
  153.1247  142.9455  163.0816 Cl  0  0  0  0  0  0  0  0  0  0  0  0
  154.9016  133.6506  161.9587 H   0  0  0  0  0  0  0  0  0  0  0  0
  155.5190  133.8841  165.4027 H   0  0  0  0  0  0  0  0  0  0  0  0
  154.5535  132.0867  163.0774 H   0  0  0  0  0  0  0  0  0  0  0  0
  156.1026  131.9659  163.9990 H   0  0  0  0  0  0  0  0  0  0  0  0
  153.6281  130.7606  164.9135 H   0  0  0  0  0  0  0  0  0  0  0  0
  154.9022  131.3517  166.0509 H   0  0  0  0  0  0  0  0  0  0  0  0
  153.3731  133.2430  166.3919 H   0  0  0  0  0  0  0  0  0  0  0  0
  152.6257  132.9850  164.7679 H   0  0  0  0  0  0  0  0  0  0  0  0
  153.3276  137.8901  163.8515 H   0  0  0  0  0  0  0  0  0  0  0  0
  152.7615  137.7827  160.4774 H   0  0  0  0  0  0  0  0  0  0  0  0
  152.8429  138.6815  161.9461 H   0  0  0  0  0  0  0  0  0  0  0  0
  155.3182  139.0717  161.6192 H   0  0  0  0  0  0  0  0  0  0  0  0
  155.0665  138.0665  159.0408 H   0  0  0  0  0  0  0  0  0  0  0  0
  155.1949  140.4722  159.5424 H   0  0  0  0  0  0  0  0  0  0  0  0
  153.5599  139.8780  159.2606 H   0  0  0  0  0  0  0  0  0  0  0  0
  153.2806  141.7208  158.3280 H   0  0  0  0  0  0  0  0  0  0  0  0
  152.2174  143.8081  157.6018 H   0  0  0  0  0  0  0  0  0  0  0  0
  151.5434  145.5287  159.2667 H   0  0  0  0  0  0  0  0  0  0  0  0
  151.9497  145.1371  161.6870 H   0  0  0  0  0  0  0  0  0  0  0  0
  1  2  2  0  0  0  0
  2 11  1  0  0  0  0
  2  3  1  0  0  0  0
  3  4  2  0  0  0  0
  3 24  1  0  0  0  0
  4  5  1  0  0  0  0
  4  9  1  0  0  0  0
  5  8  1  0  0  0  0
  5  6  1  0  0  0  0
  5 25  1  0  0  0  0
  6  7  1  0  0  0  0
  6 26  1  0  0  0  0
  6 27  1  0  0  0  0
  7  8  1  0  0  0  0
  7 28  1  0  0  0  0
  7 29  1  0  0  0  0
  8 30  1  0  0  0  0
  8 31  1  0  0  0  0
  9 10  2  0  0  0  0
 10 11  1  0  0  0  0
 10 32  1  0  0  0  0
 11 12  1  0  0  0  0
 12 13  1  0  0  0  0
 12 33  1  0  0  0  0
 12 34  1  0  0  0  0
 13 14  1  0  0  0  0
 13 15  1  0  0  0  0
 13 35  1  0  0  0  0
 14 36  1  0  0  0  0
 15 16  1  0  0  0  0
 15 37  1  0  0  0  0
 15 38  1  0  0  0  0
 16 17  1  0  0  0  0
 17 22  1  0  0  0  0
 17 18  2  0  0  0  0
 18 19  1  0  0  0  0
 18 39  1  0  0  0  0
 19 20  2  0  0  0  0
 19 40  1  0  0  0  0
 20 21  1  0  0  0  0
 20 41  1  0  0  0  0
 21 22  2  0  0  0  0
 21 42  1  0  0  0  0
 22 23  1  0  0  0  0
M  END
> <s_m_source_file>
AV-unprocessed.smi

> <i_m_source_file_index>
2694

> <i_lp_mmshare_version>
43012

> <i_f3d_flags>
0

> <s_epik_input>
W0NIMl0xW0NIMl1bQ0gyXVtDSF0xYyhbY0hdYzI9TyluW2NIXW4yW0NIMl1bQ0BIXShbT0hdKVtDSDJdT2MzW2NIXVtjSF1bY0hdW2NIXWMzQ2w=

> <s_epik_cmdline>
J2VwaWtfcHl0aG9uJywgJy1waCcsICc3LjAnLCAnLXRuJywgJzgnLCAnLW1hJywgJzIwMCcsICctbWV0YWxfYmluZGluZycsICctaW1hZScsICc8aW5maWxlLm1hZT4nLCAnLW9tYWUnLCAnPG91dGZpbGUubWFlPic=

> <r_lp_tautomer_probability>
1

> <r_epik_Ionization_Penalty>
1.78212e-05

> <r_epik_Ionization_Penalty_Charging>
5.61663e-08

> <r_epik_Ionization_Penalty_Neutral>
1.7765e-05

> <r_epik_State_Penalty>
-0

> <r_epik_Charging_Adjusted_Penalty>
5.61663e-08

> <i_epik_Tot_Q>
0

> <i_epik_Tot_abs_Q>
0

> <r_epik_Metal_State_Penalty>
-0

> <b_epik_Metal_Only>
0

> <s_lp_Force_Field>
OPLS_2005

> <r_lp_Energy>
33.164

> <b_lp_Chiralities_Consistent>
1

> <s_lp_Variant>
AV-unprocessed.smi:2694-2

> <Gold.Version>
5.8.1

> <Gold.Id.Protein>
6NUR|6NUR_protein|mol2

> <Gold.PLP.Fitness>
54.3760

> <Gold.PLP.PLP>
-52.5669

> <Gold.PLP.part.hbond>
-0.7403

> <Gold.PLP.part.metal>
0.0000

> <Gold.PLP.part.buried>
-6.8749

> <Gold.PLP.part.nonpolar>
-46.0187

> <Gold.PLP.part.repulsive>
0.0859

> <Gold.PLP.ligand.clash>
0.0000

> <Gold.PLP.ligand.torsion>
0.5351

> <Gold.PLP.Chemscore.Hbond>
0.7963

> <Gold.PLP.Chemscore.CHOScore>
0.0000

> <Gold.PLP.Chemscore.Metal>
0.0000

> <Gold.Chemscore.Hbonds>
donor molecule, donor type, donor heavy atom, donor atom, acceptor molecule, acceptor atom, score
      P1  H  6896  6908       L1     1  0.66

> <Gold.PLP.Chemscore.Internal.Correction>
0.4906

> <Gold.Rescore>
     Score         DG    S(hbond)    S(metal)    S(lipo)     H(rot)  DE(clash)    DE(int)     intcor
     18.38     -19.23       0.98        0.00     142.51       2.42       0.20       0.65       ----

> <Gold.Chemscore.Fitness>
18.3823

> <Gold.Chemscore.DG>
-19.2301

> <Gold.Chemscore.ZeroCoef>
-5.4800

> <Gold.Chemscore.Hbond>
0.9829

> <Gold.Chemscore.Metal>
0.0000

> <Gold.Chemscore.Lipo>
142.5113

> <Gold.Chemscore.Internal_Hbond>
0.0000

> <Gold.Chemscore.DEClash>
0.1976

> <Gold.Chemscore.DEInternal>
0.6502

> <Gold.Chemscore.Rot>
2.4245

> <Gold.Chemscore.Internal.Correction>
   9.000000E+99

> <Gold.Chemscore.Hbonds>
donor molecule, donor type, donor heavy atom, donor atom, acceptor molecule, acceptor atom, score
      P1  H  6896  6908       L1     1  0.09

> <Gold.Chemscore.Hbond.Weighted>
-3.2829

> <Gold.Chemscore.Metal.Weighted>
-0.0000

> <Gold.Chemscore.Lipo.Weighted>
-16.6738

> <Gold.Chemscore.Internal_Hbond.Weighted>
0.0000

> <Gold.Chemscore.DEClash.Weighted>
0.1976

> <Gold.Chemscore.DEInternal.Weighted>
0.6502

> <Gold.Chemscore.Rot.Weighted>
6.2066

> <Gold.Chemscore.Internal.Correction.Weighted>
   9.000000E+99

> <Gold.Protein.RotatedTorsions>
[ 6907 6896 6895 6894 ] final  -49.22 input  -60.11 | X-H torsion
[ 7974 7965 7964 7962 ] final   -4.69 input  175.53 | X-H torsion
[ 8008 7997 7996 7995 ] final   46.39 input   59.86 | X-H torsion
[ 10167 10162 10161 10158 ] final   51.31 input  -65.29 | X-H torsion
[ 10718 10713 10712 10709 ] final   -0.76 input   66.30 | X-H torsion
[ 10763 10752 10751 10750 ] final   94.48 input  -60.55 | X-H torsion
[ 11005 11000 10999 10996 ] final -114.11 input  -57.11 | X-H torsion

> <Gold.Protein.ActiveResidues>
 VAL166  LYS551  ARG553  GLY616  TRP617  ASP618  TYR619  PRO620  LYS621  CYS622 
 ASP623  PHE694  ASN695  SER759  ASP760  ASP761  ALA762  ILE779  LEU786  VAL792 
 PHE793  MET794  SER795  GLU796  ALA797  LYS798  CYS799  TRP800  GLU811  SER814 

> <Gold.Protein.RotatedAtoms>
  150.8827  134.8221  159.7236 H   0  0  0  0  0  0  0  0  0  0  0  0  # atno 6907 bound_to 6896
  152.4788  134.4770  159.9663 H   0  0  0  0  0  0  0  0  0  0  0  0  # atno 6908 bound_to 6896
  151.4843  133.3500  159.2878 H   0  0  0  0  0  0  0  0  0  0  0  0  # atno 6909 bound_to 6896
  146.2367  140.1909  142.8332 H   0  0  0  0  0  0  0  0  0  0  0  0  # atno 7974 bound_to 7965
  155.3517  140.3414  155.4239 H   0  0  0  0  0  0  0  0  0  0  0  0  # atno 8008 bound_to 7997
  156.1760  140.1648  156.8396 H   0  0  0  0  0  0  0  0  0  0  0  0  # atno 8009 bound_to 7997
  154.5283  140.0751  156.8281 H   0  0  0  0  0  0  0  0  0  0  0  0  # atno 8010 bound_to 7997
  140.2632  144.3349  150.6312 H   0  0  0  0  0  0  0  0  0  0  0  0  # atno 10167 bound_to 10162
  156.8156  130.5439  149.5703 H   0  0  0  0  0  0  0  0  0  0  0  0  # atno 10718 bound_to 10713
  153.2421  135.4288  155.0709 H   0  0  0  0  0  0  0  0  0  0  0  0  # atno 10763 bound_to 10752
  154.8345  135.3405  154.6634 H   0  0  0  0  0  0  0  0  0  0  0  0  # atno 10764 bound_to 10752
  153.7058  135.7026  153.5107 H   0  0  0  0  0  0  0  0  0  0  0  0  # atno 10765 bound_to 10752
  141.0572  133.9593  157.2732 H   0  0  0  0  0  0  0  0  0  0  0  0  # atno 11005 bound_to 11000
  144.9858  140.8502  143.5369 LP  0  0  0  0  0  0  0  0  0  0  0  0  # atno 17320 bound_to 7965
  145.1909  139.2302  143.5243 LP  0  0  0  0  0  0  0  0  0  0  0  0  # atno 17321 bound_to 7965
  140.5949  143.2167  151.7183 LP  0  0  0  0  0  0  0  0  0  0  0  0  # atno 17342 bound_to 10162
  139.5010  144.3883  152.0306 LP  0  0  0  0  0  0  0  0  0  0  0  0  # atno 17343 bound_to 10162
  156.1018  130.5975  150.9907 LP  0  0  0  0  0  0  0  0  0  0  0  0  # atno 17370 bound_to 10713
  157.6483  131.0901  150.8105 LP  0  0  0  0  0  0  0  0  0  0  0  0  # atno 17371 bound_to 10713
  139.9400  135.0192  156.8680 LP  0  0  0  0  0  0  0  0  0  0  0  0  # atno 17394 bound_to 11000
  140.5940  134.0234  155.7511 LP  0  0  0  0  0  0  0  0  0  0  0  0  # atno 17395 bound_to 11000

$$$$
