AV-unprocessed.smi:2483|AV-procd|sdf|9786|dock3
  -GOLD-   2272013423D 1   1.00000     0.00000
 Structure written by MMmdl.
 38 39  0  0  0  0  0  0  0  0  2 V2000
  146.1998  141.4937  156.1149 C   0  0  0  0  0  0  0  0  0  0  0  0
  147.2516  141.7932  155.1509 N   0  0  0  0  0  0  0  0  0  0  0  0
  146.8244  142.4215  153.9083 C   0  0  0  0  0  0  0  0  0  0  0  0
  148.2421  140.8066  154.9729 C   0  0  0  0  0  0  0  0  0  0  0  0
  147.8999  139.6755  154.3140 N   0  0  0  0  0  0  0  0  0  0  0  0
  148.8149  138.7233  154.1090 C   0  0  0  0  0  0  0  0  0  0  0  0
  150.0809  138.8289  154.5322 N   0  3  0  0  0  0  0  0  0  0  0  0
  150.4744  139.9393  155.2003 C   0  0  0  0  0  0  0  0  0  0  0  0
  149.5624  140.9934  155.4504 C   0  0  0  0  0  0  0  0  0  0  0  0
  149.8901  142.1793  156.1709 N   0  0  0  0  0  0  0  0  0  0  0  0
  150.8922  142.4003  157.0382 C   0  0  0  0  0  0  0  0  0  0  0  0
  151.7227  141.5656  157.3941 O   0  0  0  0  0  0  0  0  0  0  0  0
  150.8791  143.6705  157.4720 N   0  0  0  0  0  0  0  0  0  0  0  0
  151.8104  144.2879  158.4268 C   0  0  0  0  0  0  0  0  0  0  0  0
  153.0988  144.7000  157.7133 C   0  0  0  0  0  0  0  0  0  0  0  0
  151.0979  145.3040  159.3491 C   0  0  0  0  0  0  0  0  0  0  0  0
  150.7928  144.1701  160.3302 C   0  0  0  0  0  0  0  0  0  0  0  0
  151.9292  143.3845  159.6706 C   0  0  0  0  0  0  0  0  0  0  0  0
  146.6194  141.0863  157.0355 H   0  0  0  0  0  0  0  0  0  0  0  0
  145.4891  140.7733  155.7075 H   0  0  0  0  0  0  0  0  0  0  0  0
  145.6538  142.4023  156.3700 H   0  0  0  0  0  0  0  0  0  0  0  0
  147.6697  142.6916  153.2753 H   0  0  0  0  0  0  0  0  0  0  0  0
  146.2622  143.3314  154.1205 H   0  0  0  0  0  0  0  0  0  0  0  0
  146.1792  141.7469  153.3443 H   0  0  0  0  0  0  0  0  0  0  0  0
  148.5507  137.8170  153.5841 H   0  0  0  0  0  0  0  0  0  0  0  0
  151.5064  139.9194  155.5124 H   0  0  0  0  0  0  0  0  0  0  0  0
  149.3060  142.9767  155.9638 H   0  0  0  0  0  0  0  0  0  0  0  0
  150.1543  144.2745  157.1127 H   0  0  0  0  0  0  0  0  0  0  0  0
  153.8377  145.0770  158.4207 H   0  0  0  0  0  0  0  0  0  0  0  0
  152.9250  145.4898  156.9823 H   0  0  0  0  0  0  0  0  0  0  0  0
  153.5520  143.8572  157.1902 H   0  0  0  0  0  0  0  0  0  0  0  0
  151.7866  146.0378  159.7709 H   0  0  0  0  0  0  0  0  0  0  0  0
  150.2145  145.7931  158.9381 H   0  0  0  0  0  0  0  0  0  0  0  0
  150.9564  144.4178  161.3793 H   0  0  0  0  0  0  0  0  0  0  0  0
  149.8128  143.7195  160.1660 H   0  0  0  0  0  0  0  0  0  0  0  0
  151.7151  142.3275  159.5053 H   0  0  0  0  0  0  0  0  0  0  0  0
  152.8772  143.5138  160.1957 H   0  0  0  0  0  0  0  0  0  0  0  0
  150.7521  138.0796  154.3617 H   0  0  0  0  0  0  0  0  0  0  0  0
  1  2  1  0  0  0  0
  1 19  1  0  0  0  0
  1 20  1  0  0  0  0
  1 21  1  0  0  0  0
  2  3  1  0  0  0  0
  2  4  1  0  0  0  0
  3 22  1  0  0  0  0
  3 23  1  0  0  0  0
  3 24  1  0  0  0  0
  4  9  1  0  0  0  0
  4  5  2  0  0  0  0
  5  6  1  0  0  0  0
  6  7  2  0  0  0  0
  6 25  1  0  0  0  0
  7  8  1  0  0  0  0
  7 38  1  0  0  0  0
  8  9  2  0  0  0  0
  8 26  1  0  0  0  0
  9 10  1  0  0  0  0
 10 11  1  0  0  0  0
 10 27  1  0  0  0  0
 11 12  2  0  0  0  0
 11 13  1  0  0  0  0
 13 14  1  0  0  0  0
 13 28  1  0  0  0  0
 14 18  1  0  0  0  0
 14 15  1  0  0  0  0
 14 16  1  0  0  0  0
 15 29  1  0  0  0  0
 15 30  1  0  0  0  0
 15 31  1  0  0  0  0
 16 17  1  0  0  0  0
 16 32  1  0  0  0  0
 16 33  1  0  0  0  0
 17 18  1  0  0  0  0
 17 34  1  0  0  0  0
 17 35  1  0  0  0  0
 18 36  1  0  0  0  0
 18 37  1  0  0  0  0
M  CHG  1   7   1
M  END
> <s_m_source_file>
AV-unprocessed.smi

> <i_m_source_file_index>
2483

> <i_lp_mmshare_version>
43012

> <i_f3d_flags>
0

> <s_epik_input>
W0NIM11OKFtDSDNdKWMxbltjSF1uW2NIXWMxW05IXUMoPU8pW05IXUMyKFtDSDNdKVtDSDJdW0NIMl1bQ0gyXTI=

> <s_epik_cmdline>
J2VwaWtfcHl0aG9uJywgJy1waCcsICc3LjAnLCAnLXRuJywgJzgnLCAnLW1hJywgJzIwMCcsICctbWV0YWxfYmluZGluZycsICctaW1hZScsICc8aW5maWxlLm1hZT4nLCAnLW9tYWUnLCAnPG91dGZpbGUubWFlPic=

> <r_lp_tautomer_probability>
0.999336

> <r_epik_Ionization_Penalty>
2.07201

> <r_epik_Ionization_Penalty_Charging>
2.07196

> <r_epik_Ionization_Penalty_Neutral>
5.01675e-05

> <r_epik_State_Penalty>
2.20599

> <r_epik_Charging_Adjusted_Penalty>
4.27795

> <i_epik_Tot_Q>
1

> <i_epik_Tot_abs_Q>
1

> <r_epik_Metal_State_Penalty>
2.22376

> <b_epik_Metal_Only>
0

> <s_lp_Force_Field>
OPLS_2005

> <r_lp_Energy>
22.2556

> <b_lp_Chiralities_Consistent>
1

> <s_lp_Variant>
AV-unprocessed.smi:2483-2

> <Gold.Version>
5.8.1

> <Gold.Id.Protein>
6NUR|6NUR_protein|mol2

> <Gold.PLP.Fitness>
42.7727

> <Gold.PLP.PLP>
-34.4232

> <Gold.PLP.part.hbond>
-2.0000

> <Gold.PLP.part.metal>
0.0000

> <Gold.PLP.part.buried>
-5.7118

> <Gold.PLP.part.nonpolar>
-28.4323

> <Gold.PLP.part.repulsive>
0.4241

> <Gold.PLP.ligand.clash>
0.0000

> <Gold.PLP.ligand.torsion>
0.6492

> <Gold.PLP.Chemscore.Hbond>
2.0000

> <Gold.PLP.Chemscore.CHOScore>
1.0000

> <Gold.PLP.Chemscore.Metal>
0.0000

> <Gold.Chemscore.Hbonds>
donor molecule, donor type, donor heavy atom, donor atom, acceptor molecule, acceptor atom, score
      L1  H    10    27       P1  8028  1.00
      L1  H    13    28       P1  8028  1.00
      L1  C     6    25       P1  7948  1.00

> <Gold.PLP.Chemscore.Internal.Correction>
0.6479

> <Gold.Rescore>
     Score         DG    S(hbond)    S(metal)    S(lipo)     H(rot)  DE(clash)    DE(int)     intcor
     15.38     -18.33       1.91        0.00      82.93       1.27       0.12       2.83       ----

> <Gold.Chemscore.Fitness>
15.3774

> <Gold.Chemscore.DG>
-18.3275

> <Gold.Chemscore.ZeroCoef>
-5.4800

> <Gold.Chemscore.Hbond>
1.9123

> <Gold.Chemscore.Metal>
0.0000

> <Gold.Chemscore.Lipo>
82.9314

> <Gold.Chemscore.Internal_Hbond>
0.0000

> <Gold.Chemscore.DEClash>
0.1174

> <Gold.Chemscore.DEInternal>
2.8327

> <Gold.Chemscore.Rot>
1.2666

> <Gold.Chemscore.Internal.Correction>
   9.000000E+99

> <Gold.Chemscore.Hbonds>
donor molecule, donor type, donor heavy atom, donor atom, acceptor molecule, acceptor atom, score
      L1  H    10    27       P1  8028  0.99
      L1  H    13    28       P1  8028  0.73

> <Gold.Chemscore.Hbond.Weighted>
-6.3871

> <Gold.Chemscore.Metal.Weighted>
-0.0000

> <Gold.Chemscore.Lipo.Weighted>
-9.7030

> <Gold.Chemscore.Internal_Hbond.Weighted>
0.0000

> <Gold.Chemscore.DEClash.Weighted>
0.1174

> <Gold.Chemscore.DEInternal.Weighted>
2.8327

> <Gold.Chemscore.Rot.Weighted>
3.2426

> <Gold.Chemscore.Internal.Correction.Weighted>
   9.000000E+99

> <Gold.Protein.RotatedTorsions>
[ 6907 6896 6895 6894 ] final  175.38 input  -60.11 | X-H torsion
[ 7974 7965 7964 7962 ] final -163.56 input  175.53 | X-H torsion
[ 8008 7997 7996 7995 ] final -106.33 input   59.86 | X-H torsion
[ 10167 10162 10161 10158 ] final  164.71 input  -65.29 | X-H torsion
[ 10718 10713 10712 10709 ] final  -63.05 input   66.30 | X-H torsion
[ 10763 10752 10751 10750 ] final -113.64 input  -60.55 | X-H torsion
[ 11005 11000 10999 10996 ] final  135.99 input  -57.11 | X-H torsion

> <Gold.Protein.ActiveResidues>
 VAL166  LYS551  ARG553  GLY616  TRP617  ASP618  TYR619  PRO620  LYS621  CYS622 
 ASP623  PHE694  ASN695  SER759  ASP760  ASP761  ALA762  ILE779  LEU786  VAL792 
 PHE793  MET794  SER795  GLU796  ALA797  LYS798  CYS799  TRP800  GLU811  SER814 

> <Gold.Protein.RotatedAtoms>
  151.7372  133.3320  159.3355 H   0  0  0  0  0  0  0  0  0  0  0  0  # atno 6907 bound_to 6896
  150.7588  134.6310  159.6196 H   0  0  0  0  0  0  0  0  0  0  0  0  # atno 6908 bound_to 6896
  152.3554  134.6950  160.0275 H   0  0  0  0  0  0  0  0  0  0  0  0  # atno 6909 bound_to 6896
  144.7322  140.3089  143.6191 H   0  0  0  0  0  0  0  0  0  0  0  0  # atno 7974 bound_to 7965
  154.9130  140.0409  157.1956 H   0  0  0  0  0  0  0  0  0  0  0  0  # atno 8008 bound_to 7997
  154.8330  140.2902  155.5688 H   0  0  0  0  0  0  0  0  0  0  0  0  # atno 8009 bound_to 7997
  156.2988  140.2497  156.3258 H   0  0  0  0  0  0  0  0  0  0  0  0  # atno 8010 bound_to 7997
  139.4893  144.4207  151.9189 H   0  0  0  0  0  0  0  0  0  0  0  0  # atno 10167 bound_to 10162
  156.0815  130.4216  150.1222 H   0  0  0  0  0  0  0  0  0  0  0  0  # atno 10718 bound_to 10713
  154.8405  135.4447  154.1381 H   0  0  0  0  0  0  0  0  0  0  0  0  # atno 10763 bound_to 10752
  153.2574  135.6932  153.7621 H   0  0  0  0  0  0  0  0  0  0  0  0  # atno 10764 bound_to 10752
  153.6911  135.3387  155.3178 H   0  0  0  0  0  0  0  0  0  0  0  0  # atno 10765 bound_to 10752
  140.0016  134.9476  157.0084 H   0  0  0  0  0  0  0  0  0  0  0  0  # atno 11005 bound_to 11000
  145.7685  139.1849  143.2226 LP  0  0  0  0  0  0  0  0  0  0  0  0  # atno 17320 bound_to 7965
  146.0929  140.7634  142.9586 LP  0  0  0  0  0  0  0  0  0  0  0  0  # atno 17321 bound_to 7965
  140.3651  144.2924  150.5927 LP  0  0  0  0  0  0  0  0  0  0  0  0  # atno 17342 bound_to 10162
  140.5368  143.2231  151.8150 LP  0  0  0  0  0  0  0  0  0  0  0  0  # atno 17343 bound_to 10162
  156.9253  130.9696  151.3542 LP  0  0  0  0  0  0  0  0  0  0  0  0  # atno 17370 bound_to 10713
  157.5934  130.8460  149.8693 LP  0  0  0  0  0  0  0  0  0  0  0  0  # atno 17371 bound_to 10713
  140.4718  134.1379  155.7204 LP  0  0  0  0  0  0  0  0  0  0  0  0  # atno 17394 bound_to 11000
  141.1646  133.8728  157.1751 LP  0  0  0  0  0  0  0  0  0  0  0  0  # atno 17395 bound_to 11000

$$$$
