AV-unprocessed.smi:1672|AV-procd|sdf|6703|dock3
  -GOLD-   22720 7443D 1   1.00000     0.00000
 Structure written by MMmdl.
 48 50  0  0  0  0  0  0  0  0  2 V2000
  143.5914  142.5281  155.0220 C   0  0  0  0  0  0  0  0  0  0  0  0
  144.8468  143.4125  154.9239 C   0  0  2  0  0  0  0  0  0  0  0  0
  146.0200  142.7050  154.2213 C   0  0  0  0  0  0  0  0  0  0  0  0
  146.6789  141.6403  155.1165 C   0  0  0  0  0  0  0  0  0  0  0  0
  147.1207  142.2234  156.4092 N   0  3  2  0  0  0  0  0  0  0  0  0
  147.8910  141.2537  157.2302 C   0  0  0  0  0  0  0  0  0  0  0  0
  149.1727  141.8675  157.8265 C   0  0  2  0  0  0  0  0  0  0  0  0
  148.9526  143.2479  158.0407 O   0  0  0  0  0  0  0  0  0  0  0  0
  150.3843  141.6741  156.8922 C   0  0  0  0  0  0  0  0  0  0  0  0
  151.5171  141.0422  157.5582 N   0  0  0  0  0  0  0  0  0  0  0  0
  152.1701  139.9028  157.2115 C   0  0  0  0  0  0  0  0  0  0  0  0
  151.8023  139.0952  156.0029 C   0  0  0  0  0  0  0  0  0  0  0  0
  152.2164  139.6885  154.7910 O   0  0  0  0  0  0  0  0  0  0  0  0
  153.1755  139.5454  158.0109 N   0  0  0  0  0  0  0  0  0  0  0  0
  153.1854  140.5502  158.9580 C   0  0  0  0  0  0  0  0  0  0  0  0
  154.0230  140.7469  160.0792 C   0  0  0  0  0  0  0  0  0  0  0  0
  153.8432  141.8674  160.9165 C   0  0  0  0  0  0  0  0  0  0  0  0
  152.8264  142.8055  160.6446 C   0  0  0  0  0  0  0  0  0  0  0  0
  151.9812  142.6283  159.5325 C   0  0  0  0  0  0  0  0  0  0  0  0
  152.1631  141.5067  158.7009 C   0  0  0  0  0  0  0  0  0  0  0  0
  145.9876  142.8490  157.1419 C   0  0  0  0  0  0  0  0  0  0  0  0
  145.3130  143.9413  156.2927 C   0  0  0  0  0  0  0  0  0  0  0  0
  143.7648  141.6291  155.6126 H   0  0  0  0  0  0  0  0  0  0  0  0
  143.2591  142.2127  154.0325 H   0  0  0  0  0  0  0  0  0  0  0  0
  142.7669  143.0719  155.4840 H   0  0  0  0  0  0  0  0  0  0  0  0
  144.5694  144.2743  154.3152 H   0  0  0  0  0  0  0  0  0  0  0  0
  145.6856  142.2536  153.2863 H   0  0  0  0  0  0  0  0  0  0  0  0
  146.7707  143.4473  153.9459 H   0  0  0  0  0  0  0  0  0  0  0  0
  145.9920  140.8136  155.3021 H   0  0  0  0  0  0  0  0  0  0  0  0
  147.5380  141.2220  154.5904 H   0  0  0  0  0  0  0  0  0  0  0  0
  147.2478  140.8625  158.0197 H   0  0  0  0  0  0  0  0  0  0  0  0
  148.1751  140.3955  156.6187 H   0  0  0  0  0  0  0  0  0  0  0  0
  149.3969  141.4132  158.7895 H   0  0  0  0  0  0  0  0  0  0  0  0
  149.1887  143.7145  157.2526 H   0  0  0  0  0  0  0  0  0  0  0  0
  150.1008  141.0741  156.0280 H   0  0  0  0  0  0  0  0  0  0  0  0
  150.7110  142.6352  156.4923 H   0  0  0  0  0  0  0  0  0  0  0  0
  152.2254  138.0943  156.0854 H   0  0  0  0  0  0  0  0  0  0  0  0
  150.7191  138.9711  155.9706 H   0  0  0  0  0  0  0  0  0  0  0  0
  153.1504  139.8280  154.8316 H   0  0  0  0  0  0  0  0  0  0  0  0
  154.8060  140.0353  160.2952 H   0  0  0  0  0  0  0  0  0  0  0  0
  154.4893  142.0085  161.7705 H   0  0  0  0  0  0  0  0  0  0  0  0
  152.6961  143.6614  161.2906 H   0  0  0  0  0  0  0  0  0  0  0  0
  151.2018  143.3459  159.3235 H   0  0  0  0  0  0  0  0  0  0  0  0
  145.2637  142.0827  157.4218 H   0  0  0  0  0  0  0  0  0  0  0  0
  146.3365  143.2981  158.0708 H   0  0  0  0  0  0  0  0  0  0  0  0
  146.0223  144.7555  156.1379 H   0  0  0  0  0  0  0  0  0  0  0  0
  144.4727  144.3736  156.8373 H   0  0  0  0  0  0  0  0  0  0  0  0
  147.7665  142.9645  156.1751 H   0  0  0  0  0  0  0  0  0  0  0  0
  1  2  1  0  0  0  0
  1 23  1  0  0  0  0
  1 24  1  0  0  0  0
  1 25  1  0  0  0  0
  2 22  1  0  0  0  0
  2  3  1  0  0  0  0
  2 26  1  0  0  0  0
  3  4  1  0  0  0  0
  3 27  1  0  0  0  0
  3 28  1  0  0  0  0
  4  5  1  0  0  0  0
  4 29  1  0  0  0  0
  4 30  1  0  0  0  0
  5  6  1  0  0  0  0
  5 21  1  0  0  0  0
  5 48  1  0  0  0  0
  6  7  1  0  0  0  0
  6 31  1  0  0  0  0
  6 32  1  0  0  0  0
  7  8  1  0  0  0  0
  7  9  1  0  0  0  0
  7 33  1  0  0  0  0
  8 34  1  0  0  0  0
  9 10  1  0  0  0  0
  9 35  1  0  0  0  0
  9 36  1  0  0  0  0
 10 20  1  0  0  0  0
 10 11  1  0  0  0  0
 11 12  1  0  0  0  0
 11 14  2  0  0  0  0
 12 13  1  0  0  0  0
 12 37  1  0  0  0  0
 12 38  1  0  0  0  0
 13 39  1  0  0  0  0
 14 15  1  0  0  0  0
 15 20  2  0  0  0  0
 15 16  1  0  0  0  0
 16 17  2  0  0  0  0
 16 40  1  0  0  0  0
 17 18  1  0  0  0  0
 17 41  1  0  0  0  0
 18 19  2  0  0  0  0
 18 42  1  0  0  0  0
 19 20  1  0  0  0  0
 19 43  1  0  0  0  0
 21 22  1  0  0  0  0
 21 44  1  0  0  0  0
 21 45  1  0  0  0  0
 22 46  1  0  0  0  0
 22 47  1  0  0  0  0
M  CHG  1   5   1
M  END
> <s_m_source_file>
AV-unprocessed.smi

> <i_m_source_file_index>
1672

> <i_lp_mmshare_version>
43012

> <i_f3d_flags>
0

> <s_epik_input>
W0NIM11bQ0hdMVtDSDJdW0NIMl1OKFtDSDJdW0NIMl0xKVtDSDJdW0NASF0oW09IXSlbQ0gyXW4oYyhuMilbQ0gyXVtPSF0pYyhjMjMpW2NIXVtjSF1bY0hdW2NIXTM=

> <s_epik_cmdline>
J2VwaWtfcHl0aG9uJywgJy1waCcsICc3LjAnLCAnLXRuJywgJzgnLCAnLW1hJywgJzIwMCcsICctbWV0YWxfYmluZGluZycsICctaW1hZScsICc8aW5maWxlLm1hZT4nLCAnLW9tYWUnLCAnPG91dGZpbGUubWFlPic=

> <r_epik_Ionization_Penalty>
0.0498263

> <r_epik_Ionization_Penalty_Charging>
0.00181365

> <r_epik_Ionization_Penalty_Neutral>
0.0480127

> <r_epik_State_Penalty>
0.0408546

> <r_epik_Charging_Adjusted_Penalty>
0.0426682

> <i_epik_Tot_Q>
1

> <i_epik_Tot_abs_Q>
1

> <r_epik_Metal_State_Penalty>
4.22946e-05

> <b_epik_Metal_Only>
0

> <s_lp_Force_Field>
OPLS_2005

> <r_lp_Energy>
23.4925

> <b_lp_Chiralities_Consistent>
1

> <s_lp_Variant>
AV-unprocessed.smi:1672-3

> <Gold.Version>
5.8.1

> <Gold.Id.Protein>
6NUR|6NUR_protein|mol2

> <Gold.PLP.Fitness>
50.0745

> <Gold.PLP.PLP>
-39.9101

> <Gold.PLP.part.hbond>
-4.9943

> <Gold.PLP.part.metal>
0.0000

> <Gold.PLP.part.buried>
-2.1566

> <Gold.PLP.part.nonpolar>
-30.6100

> <Gold.PLP.part.repulsive>
0.0042

> <Gold.PLP.ligand.clash>
0.0000

> <Gold.PLP.ligand.torsion>
1.8952

> <Gold.PLP.Chemscore.Hbond>
4.6160

> <Gold.PLP.Chemscore.CHOScore>
0.0000

> <Gold.PLP.Chemscore.Metal>
0.0000

> <Gold.Chemscore.Hbonds>
donor molecule, donor type, donor heavy atom, donor atom, acceptor molecule, acceptor atom, score
      L1  H     5    48       P1  8028  1.56
      L1  H     8    34       P1  8028  1.00
      P1  H  7989  7998       L1    13  0.77
      P1  H  7997  8009       L1    14  0.80

> <Gold.PLP.Chemscore.Internal.Correction>
0.1067

> <Gold.Rescore>
     Score         DG    S(hbond)    S(metal)    S(lipo)     H(rot)  DE(clash)    DE(int)     intcor
     11.48     -13.59       1.18        0.00      98.58       2.88       0.04       2.07       ----

> <Gold.Chemscore.Fitness>
11.4770

> <Gold.Chemscore.DG>
-13.5860

> <Gold.Chemscore.ZeroCoef>
-5.4800

> <Gold.Chemscore.Hbond>
1.1795

> <Gold.Chemscore.Metal>
0.0000

> <Gold.Chemscore.Lipo>
98.5783

> <Gold.Chemscore.Internal_Hbond>
0.0000

> <Gold.Chemscore.DEClash>
0.0385

> <Gold.Chemscore.DEInternal>
2.0705

> <Gold.Chemscore.Rot>
2.8778

> <Gold.Chemscore.Internal.Correction>
   9.000000E+99

> <Gold.Chemscore.Hbonds>
donor molecule, donor type, donor heavy atom, donor atom, acceptor molecule, acceptor atom, score
      L1  H     5    48       P1  8028  0.23
      L1  H     8    34       P1  8028  0.44
      P1  H  7989  7998       L1    13  0.31
      P1  H  7997  8009       L1    14  0.04

> <Gold.Chemscore.Hbond.Weighted>
-3.9394

> <Gold.Chemscore.Metal.Weighted>
-0.0000

> <Gold.Chemscore.Lipo.Weighted>
-11.5337

> <Gold.Chemscore.Internal_Hbond.Weighted>
0.0000

> <Gold.Chemscore.DEClash.Weighted>
0.0385

> <Gold.Chemscore.DEInternal.Weighted>
2.0705

> <Gold.Chemscore.Rot.Weighted>
7.3671

> <Gold.Chemscore.Internal.Correction.Weighted>
   9.000000E+99

> <Gold.Protein.RotatedTorsions>
[ 6907 6896 6895 6894 ] final -167.96 input  -60.11 | X-H torsion
[ 7974 7965 7964 7962 ] final -165.29 input  175.53 | X-H torsion
[ 8008 7997 7996 7995 ] final  164.00 input   59.86 | X-H torsion
[ 10167 10162 10161 10158 ] final  -54.60 input  -65.29 | X-H torsion
[ 10718 10713 10712 10709 ] final  100.22 input   66.30 | X-H torsion
[ 10763 10752 10751 10750 ] final -153.67 input  -60.55 | X-H torsion
[ 11005 11000 10999 10996 ] final   25.61 input  -57.11 | X-H torsion

> <Gold.Protein.ActiveResidues>
 VAL166  LYS551  ARG553  GLY616  TRP617  ASP618  TYR619  PRO620  LYS621  CYS622 
 ASP623  PHE694  ASN695  SER759  ASP760  ASP761  ALA762  ILE779  LEU786  VAL792 
 PHE793  MET794  SER795  GLU796  ALA797  LYS798  CYS799  TRP800  GLU811  SER814 

> <Gold.Protein.RotatedAtoms>
  151.4679  133.3576  159.2818 H   0  0  0  0  0  0  0  0  0  0  0  0  # atno 6907 bound_to 6896
  150.8981  134.8392  159.7351 H   0  0  0  0  0  0  0  0  0  0  0  0  # atno 6908 bound_to 6896
  152.4863  134.4597  159.9653 H   0  0  0  0  0  0  0  0  0  0  0  0  # atno 6909 bound_to 6896
  144.7274  140.2836  143.6232 H   0  0  0  0  0  0  0  0  0  0  0  0  # atno 7974 bound_to 7965
  156.1914  140.1708  156.8084 H   0  0  0  0  0  0  0  0  0  0  0  0  # atno 8008 bound_to 7997
  154.5476  140.0724  156.8646 H   0  0  0  0  0  0  0  0  0  0  0  0  # atno 8009 bound_to 7997
  155.3091  140.3366  155.4247 H   0  0  0  0  0  0  0  0  0  0  0  0  # atno 8010 bound_to 7997
  140.6421  143.2514  151.4959 H   0  0  0  0  0  0  0  0  0  0  0  0  # atno 10167 bound_to 10162
  157.6859  131.0692  150.5067 H   0  0  0  0  0  0  0  0  0  0  0  0  # atno 10718 bound_to 10713
  154.7912  135.3207  154.7773 H   0  0  0  0  0  0  0  0  0  0  0  0  # atno 10763 bound_to 10752
  153.8462  135.6866  153.4801 H   0  0  0  0  0  0  0  0  0  0  0  0  # atno 10764 bound_to 10752
  153.1583  135.4671  154.9676 H   0  0  0  0  0  0  0  0  0  0  0  0  # atno 10765 bound_to 10752
  140.3459  134.2281  155.7685 H   0  0  0  0  0  0  0  0  0  0  0  0  # atno 11005 bound_to 11000
  145.7925  139.1932  143.2095 LP  0  0  0  0  0  0  0  0  0  0  0  0  # atno 17320 bound_to 7965
  146.0744  140.7833  142.9672 LP  0  0  0  0  0  0  0  0  0  0  0  0  # atno 17321 bound_to 7965
  139.5631  144.2108  152.1722 LP  0  0  0  0  0  0  0  0  0  0  0  0  # atno 17342 bound_to 10162
  140.1382  144.5226  150.6760 LP  0  0  0  0  0  0  0  0  0  0  0  0  # atno 17343 bound_to 10162
  156.5386  130.4202  149.6165 LP  0  0  0  0  0  0  0  0  0  0  0  0  # atno 17370 bound_to 10713
  156.3005  130.7174  151.2045 LP  0  0  0  0  0  0  0  0  0  0  0  0  # atno 17371 bound_to 10713
  141.2025  133.7935  157.0385 LP  0  0  0  0  0  0  0  0  0  0  0  0  # atno 17394 bound_to 11000
  140.0742  134.9685  157.1518 LP  0  0  0  0  0  0  0  0  0  0  0  0  # atno 17395 bound_to 11000

$$$$
