AV-unprocessed.smi:2269|AV-procd|sdf|9152|dock6
  -GOLD-   2272012363D 1   1.00000     0.00000
 Structure written by MMmdl.
 41 42  0  0  0  0  0  0  0  0  1 V2000
  144.6591  145.0325  155.5119 C   0  0  0  0  0  0  0  0  0  0  0  0
  145.4961  143.7808  155.3166 C   0  0  0  0  0  0  0  0  0  0  0  0
  146.5209  143.8814  154.3713 N   0  0  0  0  0  0  0  0  0  0  0  0
  147.2881  142.8664  154.1415 C   0  0  0  0  0  0  0  0  0  0  0  0
  147.1213  141.6469  154.8181 N   0  0  0  0  0  0  0  0  0  0  0  0
  148.0687  140.5735  154.4718 C   0  0  0  0  0  0  0  0  0  0  0  0
  149.5177  140.9243  154.8799 C   0  0  2  0  0  0  0  0  0  0  0  0
  150.3922  140.2837  153.9713 O   0  0  0  0  0  0  0  0  0  0  0  0
  149.8645  140.3968  156.2818 C   0  0  0  0  0  0  0  0  0  0  0  0
  151.2291  140.6803  156.5544 O   0  0  0  0  0  0  0  0  0  0  0  0
  151.6072  140.4318  157.9001 C   0  0  0  0  0  0  0  0  0  0  0  0
  151.8996  141.7119  158.6722 C   0  0  0  0  0  0  0  0  0  0  0  0
  151.4429  142.9355  158.1367 C   0  0  0  0  0  0  0  0  0  0  0  0
  151.6841  144.1472  158.8112 C   0  0  0  0  0  0  0  0  0  0  0  0
  152.3847  144.1439  160.0310 C   0  0  0  0  0  0  0  0  0  0  0  0
  152.8447  142.9287  160.5723 C   0  0  0  0  0  0  0  0  0  0  0  0
  152.6076  141.7123  159.9004 C   0  0  0  0  0  0  0  0  0  0  0  0
  153.2092  140.2527  160.6052 Cl  0  0  0  0  0  0  0  0  0  0  0  0
  146.1499  141.4651  155.7591 C   0  0  0  0  0  0  0  0  0  0  0  0
  146.0204  140.3947  156.3565 O   0  0  0  0  0  0  0  0  0  0  0  0
  145.2823  142.6278  156.0077 C   0  0  0  0  0  0  0  0  0  0  0  0
  144.1831  142.4603  157.0495 C   0  0  0  0  0  0  0  0  0  0  0  0
  143.6155  144.8369  155.2645 H   0  0  0  0  0  0  0  0  0  0  0  0
  145.0068  145.8467  154.8748 H   0  0  0  0  0  0  0  0  0  0  0  0
  144.7154  145.3718  156.5464 H   0  0  0  0  0  0  0  0  0  0  0  0
  148.1054  142.8951  153.4189 H   0  0  0  0  0  0  0  0  0  0  0  0
  147.7539  139.6641  154.9866 H   0  0  0  0  0  0  0  0  0  0  0  0
  148.0206  140.3078  153.4136 H   0  0  0  0  0  0  0  0  0  0  0  0
  149.6729  142.0037  154.8491 H   0  0  0  0  0  0  0  0  0  0  0  0
  149.9779  140.2584  153.1224 H   0  0  0  0  0  0  0  0  0  0  0  0
  149.2619  140.9087  157.0336 H   0  0  0  0  0  0  0  0  0  0  0  0
  149.6415  139.3317  156.3637 H   0  0  0  0  0  0  0  0  0  0  0  0
  150.7670  139.9391  158.3897 H   0  0  0  0  0  0  0  0  0  0  0  0
  152.4273  139.7156  157.9354 H   0  0  0  0  0  0  0  0  0  0  0  0
  150.9054  142.9461  157.1997 H   0  0  0  0  0  0  0  0  0  0  0  0
  151.3312  145.0783  158.3926 H   0  0  0  0  0  0  0  0  0  0  0  0
  152.5701  145.0724  160.5508 H   0  0  0  0  0  0  0  0  0  0  0  0
  153.3844  142.9316  161.5080 H   0  0  0  0  0  0  0  0  0  0  0  0
  144.6201  142.2423  158.0244 H   0  0  0  0  0  0  0  0  0  0  0  0
  143.5301  141.6301  156.7778 H   0  0  0  0  0  0  0  0  0  0  0  0
  143.5572  143.3443  157.1597 H   0  0  0  0  0  0  0  0  0  0  0  0
  1  2  1  0  0  0  0
  1 23  1  0  0  0  0
  1 24  1  0  0  0  0
  1 25  1  0  0  0  0
  2 21  2  0  0  0  0
  2  3  1  0  0  0  0
  3  4  2  0  0  0  0
  4  5  1  0  0  0  0
  4 26  1  0  0  0  0
  5  6  1  0  0  0  0
  5 19  1  0  0  0  0
  6  7  1  0  0  0  0
  6 27  1  0  0  0  0
  6 28  1  0  0  0  0
  7  8  1  0  0  0  0
  7  9  1  0  0  0  0
  7 29  1  0  0  0  0
  8 30  1  0  0  0  0
  9 10  1  0  0  0  0
  9 31  1  0  0  0  0
  9 32  1  0  0  0  0
 10 11  1  0  0  0  0
 11 12  1  0  0  0  0
 11 33  1  0  0  0  0
 11 34  1  0  0  0  0
 12 17  1  0  0  0  0
 12 13  2  0  0  0  0
 13 14  1  0  0  0  0
 13 35  1  0  0  0  0
 14 15  2  0  0  0  0
 14 36  1  0  0  0  0
 15 16  1  0  0  0  0
 15 37  1  0  0  0  0
 16 17  2  0  0  0  0
 16 38  1  0  0  0  0
 17 18  1  0  0  0  0
 19 20  2  0  0  0  0
 19 21  1  0  0  0  0
 21 22  1  0  0  0  0
 22 39  1  0  0  0  0
 22 40  1  0  0  0  0
 22 41  1  0  0  0  0
M  END
> <s_m_source_file>
AV-unprocessed.smi

> <i_m_source_file_index>
2269

> <i_lp_mmshare_version>
43012

> <i_f3d_flags>
0

> <s_epik_input>
W0NIM11jMW5bY0hdbihjKD1PKWMxW0NIM10pW0NIMl1bQ0BIXShbT0hdKVtDSDJdT1tDSDJdYzJbY0hdW2NIXVtjSF1bY0hdYzJDbA==

> <s_epik_cmdline>
J2VwaWtfcHl0aG9uJywgJy1waCcsICc3LjAnLCAnLXRuJywgJzgnLCAnLW1hJywgJzIwMCcsICctbWV0YWxfYmluZGluZycsICctaW1hZScsICc8aW5maWxlLm1hZT4nLCAnLW9tYWUnLCAnPG91dGZpbGUubWFlPic=

> <r_lp_tautomer_probability>
1

> <r_epik_Ionization_Penalty>
5.36022e-05

> <r_epik_Ionization_Penalty_Charging>
1.17753e-07

> <r_epik_Ionization_Penalty_Neutral>
5.34845e-05

> <r_epik_State_Penalty>
-0

> <r_epik_Charging_Adjusted_Penalty>
1.17753e-07

> <i_epik_Tot_Q>
0

> <i_epik_Tot_abs_Q>
0

> <r_epik_Metal_State_Penalty>
-0

> <b_epik_Metal_Only>
0

> <s_lp_Force_Field>
OPLS_2005

> <r_lp_Energy>
24.1822

> <b_lp_Chiralities_Consistent>
1

> <s_lp_Variant>
AV-unprocessed.smi:2269-1

> <Gold.Version>
5.8.1

> <Gold.Id.Protein>
6NUR|6NUR_protein|mol2

> <Gold.PLP.Fitness>
49.8802

> <Gold.PLP.PLP>
-45.8247

> <Gold.PLP.part.hbond>
-2.6932

> <Gold.PLP.part.metal>
0.0000

> <Gold.PLP.part.buried>
-6.0163

> <Gold.PLP.part.nonpolar>
-36.4715

> <Gold.PLP.part.repulsive>
0.2652

> <Gold.PLP.ligand.clash>
0.0000

> <Gold.PLP.ligand.torsion>
1.0275

> <Gold.PLP.Chemscore.Hbond>
1.9920

> <Gold.PLP.Chemscore.CHOScore>
0.0000

> <Gold.PLP.Chemscore.Metal>
0.0000

> <Gold.Chemscore.Hbonds>
donor molecule, donor type, donor heavy atom, donor atom, acceptor molecule, acceptor atom, score
      L1  H     8    30       P1  7957  1.00
      P1  H  7989  7998       L1     8  0.51

> <Gold.PLP.Chemscore.Internal.Correction>
0.1346

> <Gold.Rescore>
     Score         DG    S(hbond)    S(metal)    S(lipo)     H(rot)  DE(clash)    DE(int)     intcor
     16.97     -17.86       1.55        0.00     116.55       2.52       0.01       0.89       ----

> <Gold.Chemscore.Fitness>
16.9678

> <Gold.Chemscore.DG>
-17.8612

> <Gold.Chemscore.ZeroCoef>
-5.4800

> <Gold.Chemscore.Hbond>
1.5529

> <Gold.Chemscore.Metal>
0.0000

> <Gold.Chemscore.Lipo>
116.5454

> <Gold.Chemscore.Internal_Hbond>
0.0000

> <Gold.Chemscore.DEClash>
0.0075

> <Gold.Chemscore.DEInternal>
0.8859

> <Gold.Chemscore.Rot>
2.5162

> <Gold.Chemscore.Internal.Correction>
   9.000000E+99

> <Gold.Chemscore.Hbonds>
donor molecule, donor type, donor heavy atom, donor atom, acceptor molecule, acceptor atom, score
      L1  H     8    30       P1  7957  0.96
      P1  H  7989  7998       L1     8  0.05

> <Gold.Chemscore.Hbond.Weighted>
-5.1868

> <Gold.Chemscore.Metal.Weighted>
-0.0000

> <Gold.Chemscore.Lipo.Weighted>
-13.6358

> <Gold.Chemscore.Internal_Hbond.Weighted>
0.0000

> <Gold.Chemscore.DEClash.Weighted>
0.0075

> <Gold.Chemscore.DEInternal.Weighted>
0.8859

> <Gold.Chemscore.Rot.Weighted>
6.4414

> <Gold.Chemscore.Internal.Correction.Weighted>
   9.000000E+99

> <Gold.Protein.RotatedTorsions>
[ 6907 6896 6895 6894 ] final   60.07 input  -60.11 | X-H torsion
[ 7974 7965 7964 7962 ] final   67.50 input  175.53 | X-H torsion
[ 8008 7997 7996 7995 ] final   67.68 input   59.86 | X-H torsion
[ 10167 10162 10161 10158 ] final -126.22 input  -65.29 | X-H torsion
[ 10718 10713 10712 10709 ] final -134.61 input   66.30 | X-H torsion
[ 10763 10752 10751 10750 ] final  117.99 input  -60.55 | X-H torsion
[ 11005 11000 10999 10996 ] final  121.57 input  -57.11 | X-H torsion

> <Gold.Protein.ActiveResidues>
 VAL166  LYS551  ARG553  GLY616  TRP617  ASP618  TYR619  PRO620  LYS621  CYS622 
 ASP623  PHE694  ASN695  SER759  ASP760  ASP761  ALA762  ILE779  LEU786  VAL792 
 PHE793  MET794  SER795  GLU796  ALA797  LYS798  CYS799  TRP800  GLU811  SER814 

> <Gold.Protein.RotatedAtoms>
  152.3970  134.6348  160.0084 H   0  0  0  0  0  0  0  0  0  0  0  0  # atno 6907 bound_to 6896
  151.6565  133.3313  159.3172 H   0  0  0  0  0  0  0  0  0  0  0  0  # atno 6908 bound_to 6896
  150.7876  134.6917  159.6545 H   0  0  0  0  0  0  0  0  0  0  0  0  # atno 6909 bound_to 6896
  145.8139  139.3047  143.1083 H   0  0  0  0  0  0  0  0  0  0  0  0  # atno 7974 bound_to 7965
  155.6966  140.3495  155.4915 H   0  0  0  0  0  0  0  0  0  0  0  0  # atno 8008 bound_to 7997
  155.9477  140.1113  157.1025 H   0  0  0  0  0  0  0  0  0  0  0  0  # atno 8009 bound_to 7997
  154.4115  140.1200  156.4998 H   0  0  0  0  0  0  0  0  0  0  0  0  # atno 8010 bound_to 7997
  139.9738  143.5817  152.2403 H   0  0  0  0  0  0  0  0  0  0  0  0  # atno 10167 bound_to 10162
  156.2573  130.7189  151.1110 H   0  0  0  0  0  0  0  0  0  0  0  0  # atno 10718 bound_to 10713
  153.5608  135.3521  155.2798 H   0  0  0  0  0  0  0  0  0  0  0  0  # atno 10763 bound_to 10752
  154.8695  135.4136  154.2833 H   0  0  0  0  0  0  0  0  0  0  0  0  # atno 10764 bound_to 10752
  153.3578  135.7058  153.6805 H   0  0  0  0  0  0  0  0  0  0  0  0  # atno 10765 bound_to 10752
  139.9232  134.9639  156.7979 H   0  0  0  0  0  0  0  0  0  0  0  0  # atno 11005 bound_to 11000
  145.9748  140.8731  143.0144 LP  0  0  0  0  0  0  0  0  0  0  0  0  # atno 17320 bound_to 7965
  144.6754  140.1997  143.7388 LP  0  0  0  0  0  0  0  0  0  0  0  0  # atno 17321 bound_to 7965
  139.6461  144.7658  151.2240 LP  0  0  0  0  0  0  0  0  0  0  0  0  # atno 17342 bound_to 10162
  140.7513  143.6236  150.8489 LP  0  0  0  0  0  0  0  0  0  0  0  0  # atno 17343 bound_to 10162
  157.7237  131.0664  150.6025 LP  0  0  0  0  0  0  0  0  0  0  0  0  # atno 17370 bound_to 10713
  156.6110  130.4380  149.5859 LP  0  0  0  0  0  0  0  0  0  0  0  0  # atno 17371 bound_to 10713
  140.6414  133.9815  155.7709 LP  0  0  0  0  0  0  0  0  0  0  0  0  # atno 17394 bound_to 11000
  141.0769  134.0122  157.3445 LP  0  0  0  0  0  0  0  0  0  0  0  0  # atno 17395 bound_to 11000

$$$$
