AV-unprocessed.smi:1445|AV-procd|sdf|5888|dock4
  -GOLD-   22720 5573D 1   1.00000     0.00000
 Structure written by MMmdl.
 46 47  0  0  0  0  0  0  0  0  2 V2000
  147.8422  131.5837  153.1879 C   0  0  0  0  0  0  0  0  0  0  0  0
  147.4768  132.7141  152.4038 O   0  0  0  0  0  0  0  0  0  0  0  0
  146.2514  132.7056  151.7646 C   0  0  0  0  0  0  0  0  0  0  0  0
  145.6934  131.5087  151.4537 N   0  0  0  0  0  0  0  0  0  0  0  0
  144.4963  131.4997  150.8322 C   0  0  0  0  0  0  0  0  0  0  0  0
  143.7940  132.6716  150.4957 C   0  0  0  0  0  0  0  0  0  0  0  0
  144.3705  133.9141  150.8171 C   0  0  0  0  0  0  0  0  0  0  0  0
  145.6340  133.9402  151.4558 C   0  0  0  0  0  0  0  0  0  0  0  0
  146.2956  135.1383  151.8406 N   0  0  0  0  0  0  0  0  0  0  0  0
  145.7635  136.2517  152.3718 C   0  0  0  0  0  0  0  0  0  0  0  0
  144.5702  136.4246  152.6191 O   0  0  0  0  0  0  0  0  0  0  0  0
  146.7022  137.1848  152.5835 N   0  0  0  0  0  0  0  0  0  0  0  0
  146.4503  138.5116  153.1335 C   0  0  0  0  0  0  0  0  0  0  0  0
  147.7653  139.2587  153.4291 C   0  0  0  0  0  0  0  0  0  0  0  0
  148.8640  138.3404  153.8218 N   0  3  2  0  0  0  0  0  0  0  0  0
  148.4921  137.4860  154.9794 C   0  0  0  0  0  0  0  0  0  0  0  0
  149.5871  136.4501  155.2784 C   0  0  0  0  0  0  0  0  0  0  0  0
  150.9376  137.1345  155.5219 C   0  0  0  0  0  0  0  0  0  0  0  0
  151.2989  138.0377  154.3309 C   0  0  2  0  0  0  0  0  0  0  0  0
  152.6346  138.7593  154.5597 C   0  0  0  0  0  0  0  0  0  0  0  0
  150.1584  139.0378  154.0520 C   0  0  0  0  0  0  0  0  0  0  0  0
  148.8286  131.7493  153.6209 H   0  0  0  0  0  0  0  0  0  0  0  0
  147.8953  130.6787  152.5812 H   0  0  0  0  0  0  0  0  0  0  0  0
  147.1431  131.4244  154.0101 H   0  0  0  0  0  0  0  0  0  0  0  0
  144.0828  130.5290  150.6019 H   0  0  0  0  0  0  0  0  0  0  0  0
  142.8324  132.6183  150.0071 H   0  0  0  0  0  0  0  0  0  0  0  0
  143.8290  134.8174  150.5820 H   0  0  0  0  0  0  0  0  0  0  0  0
  147.2782  135.1788  151.6118 H   0  0  0  0  0  0  0  0  0  0  0  0
  147.6583  136.9598  152.3486 H   0  0  0  0  0  0  0  0  0  0  0  0
  145.8286  139.0881  152.4461 H   0  0  0  0  0  0  0  0  0  0  0  0
  145.8652  138.3763  154.0421 H   0  0  0  0  0  0  0  0  0  0  0  0
  148.0723  139.8593  152.5715 H   0  0  0  0  0  0  0  0  0  0  0  0
  147.5837  139.9601  154.2449 H   0  0  0  0  0  0  0  0  0  0  0  0
  148.3168  138.1135  155.8549 H   0  0  0  0  0  0  0  0  0  0  0  0
  147.5573  136.9642  154.7704 H   0  0  0  0  0  0  0  0  0  0  0  0
  149.3092  135.8544  156.1484 H   0  0  0  0  0  0  0  0  0  0  0  0
  149.6731  135.7549  154.4421 H   0  0  0  0  0  0  0  0  0  0  0  0
  150.8900  137.7255  156.4379 H   0  0  0  0  0  0  0  0  0  0  0  0
  151.7122  136.3824  155.6760 H   0  0  0  0  0  0  0  0  0  0  0  0
  151.4153  137.4045  153.4499 H   0  0  0  0  0  0  0  0  0  0  0  0
  152.5854  139.4205  155.4256 H   0  0  0  0  0  0  0  0  0  0  0  0
  152.9079  139.3638  153.6942 H   0  0  0  0  0  0  0  0  0  0  0  0
  153.4420  138.0465  154.7307 H   0  0  0  0  0  0  0  0  0  0  0  0
  150.4214  139.6356  153.1804 H   0  0  0  0  0  0  0  0  0  0  0  0
  150.0518  139.7319  154.8876 H   0  0  0  0  0  0  0  0  0  0  0  0
  149.0005  137.7117  153.0430 H   0  0  0  0  0  0  0  0  0  0  0  0
  1  2  1  0  0  0  0
  1 22  1  0  0  0  0
  1 23  1  0  0  0  0
  1 24  1  0  0  0  0
  2  3  1  0  0  0  0
  3  8  1  0  0  0  0
  3  4  2  0  0  0  0
  4  5  1  0  0  0  0
  5  6  2  0  0  0  0
  5 25  1  0  0  0  0
  6  7  1  0  0  0  0
  6 26  1  0  0  0  0
  7  8  2  0  0  0  0
  7 27  1  0  0  0  0
  8  9  1  0  0  0  0
  9 10  1  0  0  0  0
  9 28  1  0  0  0  0
 10 11  2  0  0  0  0
 10 12  1  0  0  0  0
 12 13  1  0  0  0  0
 12 29  1  0  0  0  0
 13 14  1  0  0  0  0
 13 30  1  0  0  0  0
 13 31  1  0  0  0  0
 14 15  1  0  0  0  0
 14 32  1  0  0  0  0
 14 33  1  0  0  0  0
 15 21  1  0  0  0  0
 15 16  1  0  0  0  0
 15 46  1  0  0  0  0
 16 17  1  0  0  0  0
 16 34  1  0  0  0  0
 16 35  1  0  0  0  0
 17 18  1  0  0  0  0
 17 36  1  0  0  0  0
 17 37  1  0  0  0  0
 18 19  1  0  0  0  0
 18 38  1  0  0  0  0
 18 39  1  0  0  0  0
 19 20  1  0  0  0  0
 19 21  1  0  0  0  0
 19 40  1  0  0  0  0
 20 41  1  0  0  0  0
 20 42  1  0  0  0  0
 20 43  1  0  0  0  0
 21 44  1  0  0  0  0
 21 45  1  0  0  0  0
M  CHG  1  15   1
M  END
> <s_m_source_file>
AV-unprocessed.smi

> <i_m_source_file_index>
1445

> <i_lp_mmshare_version>
43012

> <i_f3d_flags>
0

> <s_epik_input>
W0NIM11PYzFuW2NIXVtjSF1bY0hdYzFbTkhdQyg9TylbTkhdW0NIMl1bQ0gyXU4yW0NIMl1bQ0gyXVtDSDJdW0NAQEhdKFtDSDNdKVtDSDJdMg==

> <s_epik_cmdline>
J2VwaWtfcHl0aG9uJywgJy1waCcsICc3LjAnLCAnLXRuJywgJzgnLCAnLW1hJywgJzIwMCcsICctbWV0YWxfYmluZGluZycsICctaW1hZScsICc8aW5maWxlLm1hZT4nLCAnLW9tYWUnLCAnPG91dGZpbGUubWFlPic=

> <r_lp_tautomer_probability>
1

> <r_epik_Ionization_Penalty>
0.00179544

> <r_epik_Ionization_Penalty_Charging>
0.00171832

> <r_epik_Ionization_Penalty_Neutral>
7.71118e-05

> <r_epik_State_Penalty>
0.0011618

> <r_epik_Charging_Adjusted_Penalty>
0.00288012

> <i_epik_Tot_Q>
1

> <i_epik_Tot_abs_Q>
1

> <r_epik_Metal_State_Penalty>
-0

> <b_epik_Metal_Only>
0

> <s_lp_Force_Field>
OPLS_2005

> <r_lp_Energy>
18.8635

> <b_lp_Chiralities_Consistent>
1

> <s_lp_Variant>
AV-unprocessed.smi:1445-4

> <Gold.Version>
5.8.1

> <Gold.Id.Protein>
6NUR|6NUR_protein|mol2

> <Gold.PLP.Fitness>
46.3335

> <Gold.PLP.PLP>
-36.2598

> <Gold.PLP.part.hbond>
-3.1546

> <Gold.PLP.part.metal>
0.0000

> <Gold.PLP.part.buried>
-4.8255

> <Gold.PLP.part.nonpolar>
-29.0486

> <Gold.PLP.part.repulsive>
0.5464

> <Gold.PLP.ligand.clash>
0.0000

> <Gold.PLP.ligand.torsion>
0.8808

> <Gold.PLP.Chemscore.Hbond>
3.9280

> <Gold.PLP.Chemscore.CHOScore>
0.0000

> <Gold.PLP.Chemscore.Metal>
0.0000

> <Gold.Chemscore.Hbonds>
donor molecule, donor type, donor heavy atom, donor atom, acceptor molecule, acceptor atom, score
      L1  H     9    28       P1  7948  0.91
      L1  H    12    29       P1  7948  1.00
      L1  H    15    46       P1  7948  2.00

> <Gold.PLP.Chemscore.Internal.Correction>
0.0513

> <Gold.Rescore>
     Score         DG    S(hbond)    S(metal)    S(lipo)     H(rot)  DE(clash)    DE(int)     intcor
     18.32     -20.58       2.83        0.00      85.77       1.71       0.18       2.08       ----

> <Gold.Chemscore.Fitness>
18.3181

> <Gold.Chemscore.DG>
-20.5777

> <Gold.Chemscore.ZeroCoef>
-5.4800

> <Gold.Chemscore.Hbond>
2.8271

> <Gold.Chemscore.Metal>
0.0000

> <Gold.Chemscore.Lipo>
85.7665

> <Gold.Chemscore.Internal_Hbond>
0.0000

> <Gold.Chemscore.DEClash>
0.1791

> <Gold.Chemscore.DEInternal>
2.0805

> <Gold.Chemscore.Rot>
1.7107

> <Gold.Chemscore.Internal.Correction>
   9.000000E+99

> <Gold.Chemscore.Hbonds>
donor molecule, donor type, donor heavy atom, donor atom, acceptor molecule, acceptor atom, score
      L1  H     9    28       P1  7948  0.80
      L1  H    12    29       P1  7948  0.95
      L1  H    15    46       P1  7948  1.00

> <Gold.Chemscore.Hbond.Weighted>
-9.4425

> <Gold.Chemscore.Metal.Weighted>
-0.0000

> <Gold.Chemscore.Lipo.Weighted>
-10.0347

> <Gold.Chemscore.Internal_Hbond.Weighted>
0.0000

> <Gold.Chemscore.DEClash.Weighted>
0.1791

> <Gold.Chemscore.DEInternal.Weighted>
2.0805

> <Gold.Chemscore.Rot.Weighted>
4.3794

> <Gold.Chemscore.Internal.Correction.Weighted>
   9.000000E+99

> <Gold.Protein.RotatedTorsions>
[ 6907 6896 6895 6894 ] final   76.72 input  -60.11 | X-H torsion
[ 7974 7965 7964 7962 ] final -144.99 input  175.53 | X-H torsion
[ 8008 7997 7996 7995 ] final  -87.40 input   59.86 | X-H torsion
[ 10167 10162 10161 10158 ] final -142.48 input  -65.29 | X-H torsion
[ 10718 10713 10712 10709 ] final    9.30 input   66.30 | X-H torsion
[ 10763 10752 10751 10750 ] final   80.94 input  -60.55 | X-H torsion
[ 11005 11000 10999 10996 ] final  -28.65 input  -57.11 | X-H torsion

> <Gold.Protein.ActiveResidues>
 VAL166  LYS551  ARG553  GLY616  TRP617  ASP618  TYR619  PRO620  LYS621  CYS622 
 ASP623  PHE694  ASN695  SER759  ASP760  ASP761  ALA762  ILE779  LEU786  VAL792 
 PHE793  MET794  SER795  GLU796  ALA797  LYS798  CYS799  TRP800  GLU811  SER814 

> <Gold.Protein.RotatedAtoms>
  152.5086  134.3926  159.9388 H   0  0  0  0  0  0  0  0  0  0  0  0  # atno 6907 bound_to 6896
  151.3887  133.3790  159.2726 H   0  0  0  0  0  0  0  0  0  0  0  0  # atno 6908 bound_to 6896
  150.9449  134.8876  159.7695 H   0  0  0  0  0  0  0  0  0  0  0  0  # atno 6909 bound_to 6896
  144.8258  140.5640  143.5548 H   0  0  0  0  0  0  0  0  0  0  0  0  # atno 7974 bound_to 7965
  154.6628  140.0566  157.0081 H   0  0  0  0  0  0  0  0  0  0  0  0  # atno 8008 bound_to 7997
  155.1203  140.3247  155.4480 H   0  0  0  0  0  0  0  0  0  0  0  0  # atno 8009 bound_to 7997
  156.2625  140.1999  156.6325 H   0  0  0  0  0  0  0  0  0  0  0  0  # atno 8010 bound_to 7997
  139.8085  143.7735  152.2662 H   0  0  0  0  0  0  0  0  0  0  0  0  # atno 10167 bound_to 10162
  156.9643  130.5945  149.5664 H   0  0  0  0  0  0  0  0  0  0  0  0  # atno 10718 bound_to 10713
  153.1075  135.4784  154.8976 H   0  0  0  0  0  0  0  0  0  0  0  0  # atno 10763 bound_to 10752
  154.7445  135.3090  154.8671 H   0  0  0  0  0  0  0  0  0  0  0  0  # atno 10764 bound_to 10752
  153.9270  135.6849  153.4800 H   0  0  0  0  0  0  0  0  0  0  0  0  # atno 10765 bound_to 10752
  140.9227  133.7389  156.0823 H   0  0  0  0  0  0  0  0  0  0  0  0  # atno 11005 bound_to 11000
  145.5003  139.1483  143.3661 LP  0  0  0  0  0  0  0  0  0  0  0  0  # atno 17320 bound_to 7965
  146.2563  140.5143  142.8872 LP  0  0  0  0  0  0  0  0  0  0  0  0  # atno 17321 bound_to 7965
  139.7877  144.7422  150.9999 LP  0  0  0  0  0  0  0  0  0  0  0  0  # atno 17342 bound_to 10162
  140.7818  143.4475  151.0461 LP  0  0  0  0  0  0  0  0  0  0  0  0  # atno 17343 bound_to 10162
  156.0309  130.5400  150.8531 LP  0  0  0  0  0  0  0  0  0  0  0  0  # atno 17370 bound_to 10713
  157.5636  131.0946  150.9522 LP  0  0  0  0  0  0  0  0  0  0  0  0  # atno 17371 bound_to 10713
  140.7967  134.3556  157.5450 LP  0  0  0  0  0  0  0  0  0  0  0  0  # atno 17394 bound_to 11000
  139.8779  134.9173  156.3175 LP  0  0  0  0  0  0  0  0  0  0  0  0  # atno 17395 bound_to 11000

$$$$
