AV-unprocessed.smi:2741|AV-procd|sdf|10561|dock2
  -GOLD-   2272015 13D 1   1.00000     0.00000
 Structure written by MMmdl.
 39 40  0  0  0  0  0  0  0  0  1 V2000
  149.7414  141.9425  158.1681 O   0  0  0  0  0  0  0  0  0  0  0  0
  150.5103  142.5620  157.4315 C   0  0  0  0  0  0  0  0  0  0  0  0
  151.3929  143.6924  157.9793 C   0  0  0  0  0  0  0  0  0  0  0  0
  151.9740  143.3981  159.3002 N   0  0  0  0  0  0  0  0  0  0  0  0
  152.7747  142.2436  159.4051 C   0  0  0  0  0  0  0  0  0  0  0  0
  153.3588  141.8589  160.5563 C   0  0  0  0  0  0  0  0  0  0  0  0
  154.2595  140.6358  160.6320 C   0  0  0  0  0  0  0  0  0  0  0  0
  153.6126  139.5426  160.2274 F   0  0  0  0  0  0  0  0  0  0  0  0
  155.3198  140.8050  159.8431 F   0  0  0  0  0  0  0  0  0  0  0  0
  154.6951  140.4289  161.8753 F   0  0  0  0  0  0  0  0  0  0  0  0
  153.1531  142.7209  161.7034 C   0  0  0  0  0  0  0  0  0  0  0  0
  152.3906  143.8286  161.6202 C   0  0  0  0  0  0  0  0  0  0  0  0
  151.7394  144.2190  160.3676 C   0  0  0  0  0  0  0  0  0  0  0  0
  151.0311  145.2224  160.2818 O   0  0  0  0  0  0  0  0  0  0  0  0
  150.6533  142.2914  156.1255 N   0  0  0  0  0  0  0  0  0  0  0  0
  149.9455  141.2416  155.4002 C   0  0  0  0  0  0  0  0  0  0  0  0
  150.8972  140.1302  154.9159 C   0  0  1  0  0  0  0  0  0  0  0  0
  151.9332  139.7107  155.9647 C   0  0  0  0  0  0  0  0  0  0  0  0
  152.3572  138.3123  155.5234 C   0  0  0  0  0  0  0  0  0  0  0  0
  151.0478  137.6730  155.0571 C   0  0  2  0  0  0  0  0  0  0  0  0
  151.2680  136.6534  154.1053 O   0  0  0  0  0  0  0  0  0  0  0  0
  150.1965  138.8231  154.4940 C   0  0  0  0  0  0  0  0  0  0  0  0
  152.1825  143.8876  157.2523 H   0  0  0  0  0  0  0  0  0  0  0  0
  150.8112  144.6151  158.0198 H   0  0  0  0  0  0  0  0  0  0  0  0
  152.8793  141.6857  158.4858 H   0  0  0  0  0  0  0  0  0  0  0  0
  153.6142  142.4709  162.6476 H   0  0  0  0  0  0  0  0  0  0  0  0
  152.2561  144.4456  162.4968 H   0  0  0  0  0  0  0  0  0  0  0  0
  151.3080  142.8483  155.5956 H   0  0  0  0  0  0  0  0  0  0  0  0
  149.1581  140.8207  156.0275 H   0  0  0  0  0  0  0  0  0  0  0  0
  149.4456  141.7020  154.5473 H   0  0  0  0  0  0  0  0  0  0  0  0
  151.4516  140.4982  154.0507 H   0  0  0  0  0  0  0  0  0  0  0  0
  152.7732  140.4036  156.0237 H   0  0  0  0  0  0  0  0  0  0  0  0
  151.4735  139.6584  156.9528 H   0  0  0  0  0  0  0  0  0  0  0  0
  153.0613  138.3921  154.6935 H   0  0  0  0  0  0  0  0  0  0  0  0
  152.8413  137.7458  156.3194 H   0  0  0  0  0  0  0  0  0  0  0  0
  150.5368  137.2407  155.9185 H   0  0  0  0  0  0  0  0  0  0  0  0
  151.1937  137.0276  153.2406 H   0  0  0  0  0  0  0  0  0  0  0  0
  149.1829  138.7602  154.8922 H   0  0  0  0  0  0  0  0  0  0  0  0
  150.1159  138.7795  153.4068 H   0  0  0  0  0  0  0  0  0  0  0  0
  1  2  2  0  0  0  0
  2  3  1  0  0  0  0
  2 15  1  0  0  0  0
  3  4  1  0  0  0  0
  3 23  1  0  0  0  0
  3 24  1  0  0  0  0
  4 13  1  0  0  0  0
  4  5  1  0  0  0  0
  5  6  2  0  0  0  0
  5 25  1  0  0  0  0
  6  7  1  0  0  0  0
  6 11  1  0  0  0  0
  7  8  1  0  0  0  0
  7  9  1  0  0  0  0
  7 10  1  0  0  0  0
 11 12  2  0  0  0  0
 11 26  1  0  0  0  0
 12 13  1  0  0  0  0
 12 27  1  0  0  0  0
 13 14  2  0  0  0  0
 15 16  1  0  0  0  0
 15 28  1  0  0  0  0
 16 17  1  0  0  0  0
 16 29  1  0  0  0  0
 16 30  1  0  0  0  0
 17 22  1  0  0  0  0
 17 18  1  0  0  0  0
 17 31  1  0  0  0  0
 18 19  1  0  0  0  0
 18 32  1  0  0  0  0
 18 33  1  0  0  0  0
 19 20  1  0  0  0  0
 19 34  1  0  0  0  0
 19 35  1  0  0  0  0
 20 21  1  0  0  0  0
 20 22  1  0  0  0  0
 20 36  1  0  0  0  0
 21 37  1  0  0  0  0
 22 38  1  0  0  0  0
 22 39  1  0  0  0  0
M  END
> <s_m_source_file>
AV-unprocessed.smi

> <i_m_source_file_index>
2741

> <i_lp_mmshare_version>
43012

> <i_f3d_flags>
0

> <s_epik_input>
W09IXVtDQEBIXShbQ0gyXTEpW0NIMl1bQ0gyXVtDQEhdMVtDSDJdW05IXUMoPU8pW0NIMl1uMltjSF1jKEMoRikoRilGKVtjSF1bY0hdYzI9Tw==

> <s_epik_cmdline>
J2VwaWtfcHl0aG9uJywgJy1waCcsICc3LjAnLCAnLXRuJywgJzgnLCAnLW1hJywgJzIwMCcsICctbWV0YWxfYmluZGluZycsICctaW1hZScsICc8aW5maWxlLm1hZT4nLCAnLW9tYWUnLCAnPG91dGZpbGUubWFlPic=

> <r_lp_tautomer_probability>
1

> <r_epik_Ionization_Penalty>
1.17551e-06

> <r_epik_Ionization_Penalty_Charging>
1.78841e-08

> <r_epik_Ionization_Penalty_Neutral>
1.15762e-06

> <r_epik_State_Penalty>
-0

> <r_epik_Charging_Adjusted_Penalty>
1.78841e-08

> <i_epik_Tot_Q>
0

> <i_epik_Tot_abs_Q>
0

> <r_epik_Metal_State_Penalty>
-0

> <b_epik_Metal_Only>
0

> <s_lp_Force_Field>
OPLS_2005

> <r_lp_Energy>
34.082

> <b_lp_Chiralities_Consistent>
1

> <s_lp_Variant>
AV-unprocessed.smi:2741-4

> <Gold.Version>
5.8.1

> <Gold.Id.Protein>
6NUR|6NUR_protein|mol2

> <Gold.PLP.Fitness>
58.2983

> <Gold.PLP.PLP>
-54.6692

> <Gold.PLP.part.hbond>
-2.8503

> <Gold.PLP.part.metal>
0.0000

> <Gold.PLP.part.buried>
-2.2809

> <Gold.PLP.part.nonpolar>
-50.0275

> <Gold.PLP.part.repulsive>
0.4054

> <Gold.PLP.ligand.clash>
0.0000

> <Gold.PLP.ligand.torsion>
0.4782

> <Gold.PLP.Chemscore.Hbond>
1.5148

> <Gold.PLP.Chemscore.CHOScore>
0.0000

> <Gold.PLP.Chemscore.Metal>
0.0000

> <Gold.Chemscore.Hbonds>
donor molecule, donor type, donor heavy atom, donor atom, acceptor molecule, acceptor atom, score
      L1  H    21    37       P1  7949  0.51
      P1  H 10752 10764       L1    21  1.00

> <Gold.PLP.Chemscore.Internal.Correction>
0.0411

> <Gold.Rescore>
     Score         DG    S(hbond)    S(metal)    S(lipo)     H(rot)  DE(clash)    DE(int)     intcor
     15.05     -17.09       1.52        0.00     110.25       2.48       1.56       0.48       ----

> <Gold.Chemscore.Fitness>
15.0528

> <Gold.Chemscore.DG>
-17.0890

> <Gold.Chemscore.ZeroCoef>
-5.4800

> <Gold.Chemscore.Hbond>
1.5151

> <Gold.Chemscore.Metal>
0.0000

> <Gold.Chemscore.Lipo>
110.2487

> <Gold.Chemscore.Internal_Hbond>
0.0000

> <Gold.Chemscore.DEClash>
1.5550

> <Gold.Chemscore.DEInternal>
0.4812

> <Gold.Chemscore.Rot>
2.4807

> <Gold.Chemscore.Internal.Correction>
   9.000000E+99

> <Gold.Chemscore.Hbonds>
donor molecule, donor type, donor heavy atom, donor atom, acceptor molecule, acceptor atom, score
      L1  H    21    37       P1  7949  0.27
      P1  H 10752 10764       L1    21  0.65

> <Gold.Chemscore.Hbond.Weighted>
-5.0606

> <Gold.Chemscore.Metal.Weighted>
-0.0000

> <Gold.Chemscore.Lipo.Weighted>
-12.8991

> <Gold.Chemscore.Internal_Hbond.Weighted>
0.0000

> <Gold.Chemscore.DEClash.Weighted>
1.5550

> <Gold.Chemscore.DEInternal.Weighted>
0.4812

> <Gold.Chemscore.Rot.Weighted>
6.3507

> <Gold.Chemscore.Internal.Correction.Weighted>
   9.000000E+99

> <Gold.Protein.RotatedTorsions>
[ 6907 6896 6895 6894 ] final  106.68 input  -60.11 | X-H torsion
[ 7974 7965 7964 7962 ] final -171.75 input  175.53 | X-H torsion
[ 8008 7997 7996 7995 ] final  -10.86 input   59.86 | X-H torsion
[ 10167 10162 10161 10158 ] final  103.76 input  -65.29 | X-H torsion
[ 10718 10713 10712 10709 ] final  147.81 input   66.30 | X-H torsion
[ 10763 10752 10751 10750 ] final  -80.53 input  -60.55 | X-H torsion
[ 11005 11000 10999 10996 ] final  -76.64 input  -57.11 | X-H torsion

> <Gold.Protein.ActiveResidues>
 VAL166  LYS551  ARG553  GLY616  TRP617  ASP618  TYR619  PRO620  LYS621  CYS622 
 ASP623  PHE694  ASN695  SER759  ASP760  ASP761  ALA762  ILE779  LEU786  VAL792 
 PHE793  MET794  SER795  GLU796  ALA797  LYS798  CYS799  TRP800  GLU811  SER814 

> <Gold.Protein.RotatedAtoms>
  152.5184  133.9345  159.7596 H   0  0  0  0  0  0  0  0  0  0  0  0  # atno 6907 bound_to 6896
  150.9688  133.6357  159.2748 H   0  0  0  0  0  0  0  0  0  0  0  0  # atno 6908 bound_to 6896
  151.3576  135.0903  159.9476 H   0  0  0  0  0  0  0  0  0  0  0  0  # atno 6909 bound_to 6896
  144.7153  140.1876  143.6352 H   0  0  0  0  0  0  0  0  0  0  0  0  # atno 7974 bound_to 7965
  154.5517  140.2318  155.8475 H   0  0  0  0  0  0  0  0  0  0  0  0  # atno 8008 bound_to 7997
  156.1952  140.3067  155.9374 H   0  0  0  0  0  0  0  0  0  0  0  0  # atno 8009 bound_to 7997
  155.3058  140.0433  157.3023 H   0  0  0  0  0  0  0  0  0  0  0  0  # atno 8010 bound_to 7997
  139.7235  144.7053  151.0834 H   0  0  0  0  0  0  0  0  0  0  0  0  # atno 10167 bound_to 10162
  157.3164  131.0897  151.1275 H   0  0  0  0  0  0  0  0  0  0  0  0  # atno 10718 bound_to 10713
  154.5524  135.5657  153.6934 H   0  0  0  0  0  0  0  0  0  0  0  0  # atno 10763 bound_to 10752
  152.9993  135.6254  154.2356 H   0  0  0  0  0  0  0  0  0  0  0  0  # atno 10764 bound_to 10752
  154.2291  135.2866  155.2876 H   0  0  0  0  0  0  0  0  0  0  0  0  # atno 10765 bound_to 10752
  141.1655  133.6991  156.7699 H   0  0  0  0  0  0  0  0  0  0  0  0  # atno 11005 bound_to 11000
  145.8799  139.2317  143.1611 LP  0  0  0  0  0  0  0  0  0  0  0  0  # atno 17320 bound_to 7965
  146.0005  140.8524  143.0021 LP  0  0  0  0  0  0  0  0  0  0  0  0  # atno 17321 bound_to 7965
  140.7758  143.5135  150.9623 LP  0  0  0  0  0  0  0  0  0  0  0  0  # atno 17342 bound_to 10162
  139.8822  143.7057  152.3155 LP  0  0  0  0  0  0  0  0  0  0  0  0  # atno 17343 bound_to 10162
  157.2577  130.6644  149.5960 LP  0  0  0  0  0  0  0  0  0  0  0  0  # atno 17370 bound_to 10713
  155.9682  130.4518  150.5751 LP  0  0  0  0  0  0  0  0  0  0  0  0  # atno 17371 bound_to 10713
  140.2472  134.8568  157.3631 LP  0  0  0  0  0  0  0  0  0  0  0  0  # atno 17394 bound_to 11000
  140.1738  134.4575  155.7814 LP  0  0  0  0  0  0  0  0  0  0  0  0  # atno 17395 bound_to 11000

$$$$
