AV-unprocessed.smi:2162|AV-procd|sdf|8802|dock6
  -GOLD-   2272011583D 1   1.00000     0.00000
 Structure written by MMmdl.
 41 42  0  0  0  0  0  0  0  0  1 V2000
  146.2936  138.2328  153.8071 C   0  0  0  0  0  0  0  0  0  0  0  0
  146.4509  139.6632  154.1946 C   0  0  0  0  0  0  0  0  0  0  0  0
  145.8724  140.2069  155.2686 N   0  0  0  0  0  0  0  0  0  0  0  0
  146.1767  141.5638  155.4148 C   0  0  0  0  0  0  0  0  0  0  0  0
  145.6208  142.3369  156.5758 C   0  0  0  0  0  0  0  0  0  0  0  0
  146.6353  142.5483  157.7133 C   0  0  0  0  0  0  0  0  0  0  0  0
  148.0064  142.5601  157.2131 N   0  0  0  0  0  0  0  0  0  0  0  0
  148.8930  141.5632  157.3432 C   0  0  0  0  0  0  0  0  0  0  0  0
  148.6410  140.5013  157.9135 O   0  0  0  0  0  0  0  0  0  0  0  0
  150.2844  141.8061  156.7369 C   0  0  2  0  0  0  0  0  0  0  0  0
  151.2021  140.5823  156.9142 C   0  0  0  0  0  0  0  0  0  0  0  0
  152.2325  141.0422  157.9321 C   0  0  0  0  0  0  0  0  0  0  0  0
  153.0631  140.2793  158.4236 O   0  0  0  0  0  0  0  0  0  0  0  0
  152.0886  142.3433  158.2167 N   0  0  0  0  0  0  0  0  0  0  0  0
  152.8752  143.0914  159.2069 C   0  0  0  0  0  0  0  0  0  0  0  0
  152.8002  142.3971  160.5762 C   0  0  0  0  0  0  0  0  0  0  0  0
  152.4683  144.5736  159.2936 C   0  0  0  0  0  0  0  0  0  0  0  0
  151.0310  142.9647  157.4293 C   0  0  0  0  0  0  0  0  0  0  0  0
  146.9987  142.0435  154.4254 C   0  0  0  0  0  0  0  0  0  0  0  0
  147.4242  140.8055  153.2766 S   0  0  0  0  0  0  0  0  0  0  0  0
  145.6245  137.7180  154.4977 H   0  0  0  0  0  0  0  0  0  0  0  0
  147.2629  137.7345  153.8226 H   0  0  0  0  0  0  0  0  0  0  0  0
  145.8791  138.1630  152.8013 H   0  0  0  0  0  0  0  0  0  0  0  0
  145.2704  143.3108  156.2318 H   0  0  0  0  0  0  0  0  0  0  0  0
  144.7389  141.8319  156.9717 H   0  0  0  0  0  0  0  0  0  0  0  0
  146.3956  143.4709  158.2443 H   0  0  0  0  0  0  0  0  0  0  0  0
  146.5508  141.7379  158.4381 H   0  0  0  0  0  0  0  0  0  0  0  0
  148.3011  143.3933  156.7243 H   0  0  0  0  0  0  0  0  0  0  0  0
  150.1733  142.0302  155.6742 H   0  0  0  0  0  0  0  0  0  0  0  0
  150.6826  139.6908  157.2696 H   0  0  0  0  0  0  0  0  0  0  0  0
  151.7041  140.3291  155.9800 H   0  0  0  0  0  0  0  0  0  0  0  0
  153.9182  143.0752  158.8860 H   0  0  0  0  0  0  0  0  0  0  0  0
  153.4106  142.9183  161.3140 H   0  0  0  0  0  0  0  0  0  0  0  0
  153.1613  141.3697  160.5198 H   0  0  0  0  0  0  0  0  0  0  0  0
  151.7762  142.3695  160.9503 H   0  0  0  0  0  0  0  0  0  0  0  0
  153.1288  145.1161  159.9705 H   0  0  0  0  0  0  0  0  0  0  0  0
  151.4510  144.6962  159.6665 H   0  0  0  0  0  0  0  0  0  0  0  0
  152.5321  145.0582  158.3190 H   0  0  0  0  0  0  0  0  0  0  0  0
  151.4716  143.6284  156.6842 H   0  0  0  0  0  0  0  0  0  0  0  0
  150.3792  143.5669  158.0646 H   0  0  0  0  0  0  0  0  0  0  0  0
  147.3817  143.0461  154.3059 H   0  0  0  0  0  0  0  0  0  0  0  0
  1  2  1  0  0  0  0
  1 21  1  0  0  0  0
  1 22  1  0  0  0  0
  1 23  1  0  0  0  0
  2 20  1  0  0  0  0
  2  3  2  0  0  0  0
  3  4  1  0  0  0  0
  4  5  1  0  0  0  0
  4 19  2  0  0  0  0
  5  6  1  0  0  0  0
  5 24  1  0  0  0  0
  5 25  1  0  0  0  0
  6  7  1  0  0  0  0
  6 26  1  0  0  0  0
  6 27  1  0  0  0  0
  7  8  1  0  0  0  0
  7 28  1  0  0  0  0
  8  9  2  0  0  0  0
  8 10  1  0  0  0  0
 10 18  1  0  0  0  0
 10 11  1  0  0  0  0
 10 29  1  0  0  0  0
 11 12  1  0  0  0  0
 11 30  1  0  0  0  0
 11 31  1  0  0  0  0
 12 13  2  0  0  0  0
 12 14  1  0  0  0  0
 14 15  1  0  0  0  0
 14 18  1  0  0  0  0
 15 16  1  0  0  0  0
 15 17  1  0  0  0  0
 15 32  1  0  0  0  0
 16 33  1  0  0  0  0
 16 34  1  0  0  0  0
 16 35  1  0  0  0  0
 17 36  1  0  0  0  0
 17 37  1  0  0  0  0
 17 38  1  0  0  0  0
 18 39  1  0  0  0  0
 18 40  1  0  0  0  0
 19 20  1  0  0  0  0
 19 41  1  0  0  0  0
M  END
> <s_m_source_file>
AV-unprocessed.smi

> <i_m_source_file_index>
2162

> <i_lp_mmshare_version>
43012

> <i_f3d_flags>
0

> <s_epik_input>
W0NIM11jMW5jKFtjSF1zMSlbQ0gyXVtDSDJdW05IXUMoPU8pW0NAQEhdMltDSDJdQyg9TylOKFtDSDJdMilbQ0hdKFtDSDNdKVtDSDNd

> <s_epik_cmdline>
J2VwaWtfcHl0aG9uJywgJy1waCcsICc3LjAnLCAnLXRuJywgJzgnLCAnLW1hJywgJzIwMCcsICctbWV0YWxfYmluZGluZycsICctaW1hZScsICc8aW5maWxlLm1hZT4nLCAnLW9tYWUnLCAnPG91dGZpbGUubWFlPic=

> <r_epik_Ionization_Penalty>
0.000973993

> <r_epik_Ionization_Penalty_Charging>
0

> <r_epik_Ionization_Penalty_Neutral>
0.000973993

> <r_epik_State_Penalty>
0.000633765

> <r_epik_Charging_Adjusted_Penalty>
0.000633765

> <i_epik_Tot_Q>
0

> <i_epik_Tot_abs_Q>
0

> <r_epik_Metal_State_Penalty>
-0

> <b_epik_Metal_Only>
0

> <s_lp_Force_Field>
OPLS_2005

> <r_lp_Energy>
15.0968

> <b_lp_Chiralities_Consistent>
1

> <s_lp_Variant>
AV-unprocessed.smi:2162-1

> <Gold.Version>
5.8.1

> <Gold.Id.Protein>
6NUR|6NUR_protein|mol2

> <Gold.PLP.Fitness>
44.0465

> <Gold.PLP.PLP>
-36.2100

> <Gold.PLP.part.hbond>
-2.0000

> <Gold.PLP.part.metal>
0.0000

> <Gold.PLP.part.buried>
-3.5592

> <Gold.PLP.part.nonpolar>
-29.3318

> <Gold.PLP.part.repulsive>
0.1176

> <Gold.PLP.ligand.clash>
0.0000

> <Gold.PLP.ligand.torsion>
0.6076

> <Gold.PLP.Chemscore.Hbond>
1.9920

> <Gold.PLP.Chemscore.CHOScore>
1.0000

> <Gold.PLP.Chemscore.Metal>
0.0000

> <Gold.Chemscore.Hbonds>
donor molecule, donor type, donor heavy atom, donor atom, acceptor molecule, acceptor atom, score
      L1  H     7    28       P1  8028  0.95
      P1  H  7997  8010       L1    13  0.81
      L1  C    19    41       P1  8028  0.88

> <Gold.PLP.Chemscore.Internal.Correction>
0.0757

> <Gold.Rescore>
     Score         DG    S(hbond)    S(metal)    S(lipo)     H(rot)  DE(clash)    DE(int)     intcor
     13.78     -14.53       0.97        0.00      85.80       1.66       0.05       0.70       ----

> <Gold.Chemscore.Fitness>
13.7789

> <Gold.Chemscore.DG>
-14.5274

> <Gold.Chemscore.ZeroCoef>
-5.4800

> <Gold.Chemscore.Hbond>
0.9744

> <Gold.Chemscore.Metal>
0.0000

> <Gold.Chemscore.Lipo>
85.8006

> <Gold.Chemscore.Internal_Hbond>
0.0000

> <Gold.Chemscore.DEClash>
0.0456

> <Gold.Chemscore.DEInternal>
0.7029

> <Gold.Chemscore.Rot>
1.6585

> <Gold.Chemscore.Internal.Correction>
   9.000000E+99

> <Gold.Chemscore.Hbonds>
donor molecule, donor type, donor heavy atom, donor atom, acceptor molecule, acceptor atom, score
      L1  H     7    28       P1  8028  0.22
      P1  H  7997  8010       L1    13  0.46

> <Gold.Chemscore.Hbond.Weighted>
-3.2544

> <Gold.Chemscore.Metal.Weighted>
-0.0000

> <Gold.Chemscore.Lipo.Weighted>
-10.0387

> <Gold.Chemscore.Internal_Hbond.Weighted>
0.0000

> <Gold.Chemscore.DEClash.Weighted>
0.0456

> <Gold.Chemscore.DEInternal.Weighted>
0.7029

> <Gold.Chemscore.Rot.Weighted>
4.2457

> <Gold.Chemscore.Internal.Correction.Weighted>
   9.000000E+99

> <Gold.Protein.RotatedTorsions>
[ 6907 6896 6895 6894 ] final -103.39 input  -60.11 | X-H torsion
[ 7974 7965 7964 7962 ] final -157.43 input  175.53 | X-H torsion
[ 8008 7997 7996 7995 ] final   34.34 input   59.86 | X-H torsion
[ 10167 10162 10161 10158 ] final -114.42 input  -65.29 | X-H torsion
[ 10718 10713 10712 10709 ] final -140.71 input   66.30 | X-H torsion
[ 10763 10752 10751 10750 ] final   96.05 input  -60.55 | X-H torsion
[ 11005 11000 10999 10996 ] final   44.46 input  -57.11 | X-H torsion

> <Gold.Protein.ActiveResidues>
 VAL166  LYS551  ARG553  GLY616  TRP617  ASP618  TYR619  PRO620  LYS621  CYS622 
 ASP623  PHE694  ASN695  SER759  ASP760  ASP761  ALA762  ILE779  LEU786  VAL792 
 PHE793  MET794  SER795  GLU796  ALA797  LYS798  CYS799  TRP800  GLU811  SER814 

> <Gold.Protein.RotatedAtoms>
  150.7238  134.0437  159.3774 H   0  0  0  0  0  0  0  0  0  0  0  0  # atno 6907 bound_to 6896
  151.8411  135.0587  160.0457 H   0  0  0  0  0  0  0  0  0  0  0  0  # atno 6908 bound_to 6896
  152.2861  133.5481  159.5565 H   0  0  0  0  0  0  0  0  0  0  0  0  # atno 6909 bound_to 6896
  144.7549  140.3970  143.6020 H   0  0  0  0  0  0  0  0  0  0  0  0  # atno 7974 bound_to 7965
  155.1533  140.3277  155.4426 H   0  0  0  0  0  0  0  0  0  0  0  0  # atno 8008 bound_to 7997
  156.2567  140.1973  156.6594 H   0  0  0  0  0  0  0  0  0  0  0  0  # atno 8009 bound_to 7997
  154.6457  140.0564  156.9884 H   0  0  0  0  0  0  0  0  0  0  0  0  # atno 8010 bound_to 7997
  140.1011  143.4612  152.1811 H   0  0  0  0  0  0  0  0  0  0  0  0  # atno 10167 bound_to 10162
  156.3255  130.7558  151.1665 H   0  0  0  0  0  0  0  0  0  0  0  0  # atno 10718 bound_to 10713
  153.2604  135.4232  155.0888 H   0  0  0  0  0  0  0  0  0  0  0  0  # atno 10763 bound_to 10752
  154.8418  135.3447  154.6385 H   0  0  0  0  0  0  0  0  0  0  0  0  # atno 10764 bound_to 10752
  153.6806  135.7039  153.5176 H   0  0  0  0  0  0  0  0  0  0  0  0  # atno 10765 bound_to 10752
  140.1550  134.4413  155.8356 H   0  0  0  0  0  0  0  0  0  0  0  0  # atno 11005 bound_to 11000
  145.6815  139.1619  143.2698 LP  0  0  0  0  0  0  0  0  0  0  0  0  # atno 17320 bound_to 7965
  146.1546  140.6876  142.9306 LP  0  0  0  0  0  0  0  0  0  0  0  0  # atno 17321 bound_to 7965
  139.5670  144.7441  151.3994 LP  0  0  0  0  0  0  0  0  0  0  0  0  # atno 17342 bound_to 10162
  140.6977  143.7709  150.7353 LP  0  0  0  0  0  0  0  0  0  0  0  0  # atno 17343 bound_to 10162
  157.7420  131.0495  150.5054 LP  0  0  0  0  0  0  0  0  0  0  0  0  # atno 17370 bound_to 10713
  156.5212  130.4162  149.6250 LP  0  0  0  0  0  0  0  0  0  0  0  0  # atno 17371 bound_to 10713
  141.2203  133.6888  156.7491 LP  0  0  0  0  0  0  0  0  0  0  0  0  # atno 17394 bound_to 11000
  140.2558  134.8505  157.3712 LP  0  0  0  0  0  0  0  0  0  0  0  0  # atno 17395 bound_to 11000

$$$$
