AV-unprocessed.smi:2567|AV-procd|sdf|10078|dock4
  -GOLD-   2272014103D 1   1.00000     0.00000
 Structure written by MMmdl.
 34 35  0  0  0  0  0  0  0  0  2 V2000
  149.8041  133.8172  155.1190 C   0  0  0  0  0  0  0  0  0  0  0  0
  148.6751  132.8227  154.7682 C   0  0  0  0  0  0  0  0  0  0  0  0
  149.3545  131.5809  154.1503 C   0  0  0  0  0  0  0  0  0  0  0  0
  147.9211  132.4164  156.0472 C   0  0  0  0  0  0  0  0  0  0  0  0
  147.7070  133.4362  153.7836 C   0  0  0  0  0  0  0  0  0  0  0  0
  146.7718  134.3047  154.1769 N   0  0  0  0  0  0  0  0  0  0  0  0
  146.0523  134.4893  153.0511 N   0  0  0  0  0  0  0  0  0  0  0  0
  146.5360  133.7065  152.0864 C   0  0  0  0  0  0  0  0  0  0  0  0
  145.9295  133.6521  150.7199 C   0  0  2  0  0  0  0  0  0  0  0  0
  144.6156  134.4519  150.6280 C   0  0  0  0  0  0  0  0  0  0  0  0
  144.0103  134.2776  149.2932 N   0  3  0  0  0  0  0  0  0  0  0  0
  143.8218  132.8498  148.9684 C   0  0  0  0  0  0  0  0  0  0  0  0
  145.1532  132.0926  149.1162 C   0  0  0  0  0  0  0  0  0  0  0  0
  145.6699  132.2806  150.4297 O   0  0  0  0  0  0  0  0  0  0  0  0
  147.5711  132.9822  152.4976 N   0  0  0  0  0  0  0  0  0  0  0  0
  145.2605  135.1144  153.0004 H   0  0  0  0  0  0  0  0  0  0  0  0
  150.5309  133.3687  155.7972 H   0  0  0  0  0  0  0  0  0  0  0  0
  149.4194  134.7104  155.6124 H   0  0  0  0  0  0  0  0  0  0  0  0
  150.3433  134.1383  154.2269 H   0  0  0  0  0  0  0  0  0  0  0  0
  149.8814  131.8325  153.2291 H   0  0  0  0  0  0  0  0  0  0  0  0
  148.6314  130.7994  153.9138 H   0  0  0  0  0  0  0  0  0  0  0  0
  150.0818  131.1440  154.8353 H   0  0  0  0  0  0  0  0  0  0  0  0
  148.5929  131.9665  156.7788 H   0  0  0  0  0  0  0  0  0  0  0  0
  147.1368  131.6901  155.8306 H   0  0  0  0  0  0  0  0  0  0  0  0
  147.4495  133.2786  156.5202 H   0  0  0  0  0  0  0  0  0  0  0  0
  146.6560  134.0398  150.0026 H   0  0  0  0  0  0  0  0  0  0  0  0
  143.9075  134.1110  151.3850 H   0  0  0  0  0  0  0  0  0  0  0  0
  144.7947  135.5123  150.8084 H   0  0  0  0  0  0  0  0  0  0  0  0
  143.1176  134.7493  149.2645 H   0  0  0  0  0  0  0  0  0  0  0  0
  143.0718  132.4260  149.6376 H   0  0  0  0  0  0  0  0  0  0  0  0
  143.4369  132.7565  147.9527 H   0  0  0  0  0  0  0  0  0  0  0  0
  145.0006  131.0268  148.9456 H   0  0  0  0  0  0  0  0  0  0  0  0
  145.8795  132.4324  148.3762 H   0  0  0  0  0  0  0  0  0  0  0  0
  144.6226  134.6885  148.6028 H   0  0  0  0  0  0  0  0  0  0  0  0
  1  2  1  0  0  0  0
  1 17  1  0  0  0  0
  1 18  1  0  0  0  0
  1 19  1  0  0  0  0
  2  3  1  0  0  0  0
  2  4  1  0  0  0  0
  2  5  1  0  0  0  0
  3 20  1  0  0  0  0
  3 21  1  0  0  0  0
  3 22  1  0  0  0  0
  4 23  1  0  0  0  0
  4 24  1  0  0  0  0
  4 25  1  0  0  0  0
  5 15  1  0  0  0  0
  5  6  2  0  0  0  0
  6  7  1  0  0  0  0
  7 16  1  0  0  0  0
  7  8  1  0  0  0  0
  8  9  1  0  0  0  0
  8 15  2  0  0  0  0
  9 14  1  0  0  0  0
  9 10  1  0  0  0  0
  9 26  1  0  0  0  0
 10 11  1  0  0  0  0
 10 27  1  0  0  0  0
 10 28  1  0  0  0  0
 11 12  1  0  0  0  0
 11 29  1  0  0  0  0
 11 34  1  0  0  0  0
 12 13  1  0  0  0  0
 12 30  1  0  0  0  0
 12 31  1  0  0  0  0
 13 14  1  0  0  0  0
 13 32  1  0  0  0  0
 13 33  1  0  0  0  0
M  CHG  1  11   1
M  END
> <s_m_source_file>
AV-unprocessed.smi

> <i_m_source_file_index>
2567

> <i_lp_mmshare_version>
43012

> <i_f3d_flags>
0

> <s_epik_input>
W0NIM11DKFtDSDNdKShbQ0gzXSljMW5bbkhdYyhuMSlbQ0BASF0yW0NIMl1bTkhdW0NIMl1bQ0gyXU8y

> <s_epik_cmdline>
J2VwaWtfcHl0aG9uJywgJy1waCcsICc3LjAnLCAnLXRuJywgJzgnLCAnLW1hJywgJzIwMCcsICctbWV0YWxfYmluZGluZycsICctaW1hZScsICc8aW5maWxlLm1hZT4nLCAnLW9tYWUnLCAnPG91dGZpbGUubWFlPic=

> <r_epik_Ionization_Penalty>
0.162344

> <r_epik_Ionization_Penalty_Charging>
0.125708

> <r_epik_Ionization_Penalty_Neutral>
0.0366363

> <r_epik_State_Penalty>
1.18286

> <r_epik_Charging_Adjusted_Penalty>
1.30856

> <i_epik_Tot_Q>
1

> <i_epik_Tot_abs_Q>
1

> <r_epik_Metal_State_Penalty>
1.49333

> <b_epik_Metal_Only>
0

> <s_lp_Force_Field>
OPLS_2005

> <r_lp_Energy>
12.4699

> <b_lp_Chiralities_Consistent>
1

> <s_lp_Variant>
AV-unprocessed.smi:2567-3

> <Gold.Version>
5.8.1

> <Gold.Id.Protein>
6NUR|6NUR_protein|mol2

> <Gold.PLP.Fitness>
33.2640

> <Gold.PLP.PLP>
-25.1098

> <Gold.PLP.part.hbond>
-2.0000

> <Gold.PLP.part.metal>
0.0000

> <Gold.PLP.part.buried>
-4.4129

> <Gold.PLP.part.nonpolar>
-19.9045

> <Gold.PLP.part.repulsive>
0.5102

> <Gold.PLP.ligand.clash>
0.0000

> <Gold.PLP.ligand.torsion>
0.5257

> <Gold.PLP.Chemscore.Hbond>
3.0000

> <Gold.PLP.Chemscore.CHOScore>
0.0000

> <Gold.PLP.Chemscore.Metal>
0.0000

> <Gold.Chemscore.Hbonds>
donor molecule, donor type, donor heavy atom, donor atom, acceptor molecule, acceptor atom, score
      L1  H    11    29       P1 10186  1.26
      L1  H    11    34       P1  7921  1.00

> <Gold.PLP.Chemscore.Internal.Correction>
0.2056

> <Gold.Rescore>
     Score         DG    S(hbond)    S(metal)    S(lipo)     H(rot)  DE(clash)    DE(int)     intcor
     15.11     -15.42       1.94        0.00      57.33       1.26       0.15       0.16       ----

> <Gold.Chemscore.Fitness>
15.1090

> <Gold.Chemscore.DG>
-15.4157

> <Gold.Chemscore.ZeroCoef>
-5.4800

> <Gold.Chemscore.Hbond>
1.9360

> <Gold.Chemscore.Metal>
0.0000

> <Gold.Chemscore.Lipo>
57.3253

> <Gold.Chemscore.Internal_Hbond>
0.0000

> <Gold.Chemscore.DEClash>
0.1467

> <Gold.Chemscore.DEInternal>
0.1601

> <Gold.Chemscore.Rot>
1.2647

> <Gold.Chemscore.Internal.Correction>
   9.000000E+99

> <Gold.Chemscore.Hbonds>
donor molecule, donor type, donor heavy atom, donor atom, acceptor molecule, acceptor atom, score
      L1  H    11    29       P1 10186  0.59
      L1  H    11    34       P1  7921  0.99

> <Gold.Chemscore.Hbond.Weighted>
-6.4662

> <Gold.Chemscore.Metal.Weighted>
-0.0000

> <Gold.Chemscore.Lipo.Weighted>
-6.7071

> <Gold.Chemscore.Internal_Hbond.Weighted>
0.0000

> <Gold.Chemscore.DEClash.Weighted>
0.1467

> <Gold.Chemscore.DEInternal.Weighted>
0.1601

> <Gold.Chemscore.Rot.Weighted>
3.2375

> <Gold.Chemscore.Internal.Correction.Weighted>
   9.000000E+99

> <Gold.Protein.RotatedTorsions>
[ 6907 6896 6895 6894 ] final   -7.05 input  -60.11 | X-H torsion
[ 7974 7965 7964 7962 ] final -179.66 input  175.53 | X-H torsion
[ 8008 7997 7996 7995 ] final   84.68 input   59.86 | X-H torsion
[ 10167 10162 10161 10158 ] final   92.33 input  -65.29 | X-H torsion
[ 10718 10713 10712 10709 ] final -128.48 input   66.30 | X-H torsion
[ 10763 10752 10751 10750 ] final  140.07 input  -60.55 | X-H torsion
[ 11005 11000 10999 10996 ] final  -32.89 input  -57.11 | X-H torsion

> <Gold.Protein.ActiveResidues>
 VAL166  LYS551  ARG553  GLY616  TRP617  ASP618  TYR619  PRO620  LYS621  CYS622 
 ASP623  PHE694  ASN695  SER759  ASP760  ASP761  ALA762  ILE779  LEU786  VAL792 
 PHE793  MET794  SER795  GLU796  ALA797  LYS798  CYS799  TRP800  GLU811  SER814 

> <Gold.Protein.RotatedAtoms>
  151.4557  135.1034  159.9710 H   0  0  0  0  0  0  0  0  0  0  0  0  # atno 6907 bound_to 6896
  152.4872  133.8399  159.7157 H   0  0  0  0  0  0  0  0  0  0  0  0  # atno 6908 bound_to 6896
  150.8991  133.7082  159.2911 H   0  0  0  0  0  0  0  0  0  0  0  0  # atno 6909 bound_to 6896
  144.7138  140.0685  143.6430 H   0  0  0  0  0  0  0  0  0  0  0  0  # atno 7974 bound_to 7965
  155.9402  140.3408  155.6321 H   0  0  0  0  0  0  0  0  0  0  0  0  # atno 8008 bound_to 7997
  155.7049  140.0764  157.2414 H   0  0  0  0  0  0  0  0  0  0  0  0  # atno 8009 bound_to 7997
  154.4101  140.1633  156.2219 H   0  0  0  0  0  0  0  0  0  0  0  0  # atno 8010 bound_to 7997
  139.8287  144.6697  150.9426 H   0  0  0  0  0  0  0  0  0  0  0  0  # atno 10167 bound_to 10162
  156.1955  130.6823  151.0476 H   0  0  0  0  0  0  0  0  0  0  0  0  # atno 10718 bound_to 10713
  153.9165  135.3005  155.3448 H   0  0  0  0  0  0  0  0  0  0  0  0  # atno 10763 bound_to 10752
  154.7597  135.4940  153.9444 H   0  0  0  0  0  0  0  0  0  0  0  0  # atno 10764 bound_to 10752
  153.1164  135.6772  153.9513 H   0  0  0  0  0  0  0  0  0  0  0  0  # atno 10765 bound_to 10752
  140.9590  133.7176  156.1338 H   0  0  0  0  0  0  0  0  0  0  0  0  # atno 11005 bound_to 11000
  145.9804  139.2937  143.1045 LP  0  0  0  0  0  0  0  0  0  0  0  0  # atno 17320 bound_to 7965
  145.9017  140.9238  143.0499 LP  0  0  0  0  0  0  0  0  0  0  0  0  # atno 17321 bound_to 7965
  140.7808  143.4021  151.1131 LP  0  0  0  0  0  0  0  0  0  0  0  0  # atno 17342 bound_to 10162
  139.7676  143.8541  152.3114 LP  0  0  0  0  0  0  0  0  0  0  0  0  # atno 17343 bound_to 10162
  157.6955  131.0795  150.6982 LP  0  0  0  0  0  0  0  0  0  0  0  0  # atno 17370 bound_to 10713
  156.7038  130.4631  149.5565 LP  0  0  0  0  0  0  0  0  0  0  0  0  # atno 17371 bound_to 10713
  140.7495  134.4061  157.5543 LP  0  0  0  0  0  0  0  0  0  0  0  0  # atno 17394 bound_to 11000
  139.8871  134.8890  156.2544 LP  0  0  0  0  0  0  0  0  0  0  0  0  # atno 17395 bound_to 11000

$$$$
