AV-unprocessed.smi:1903|AV-procd|sdf|7722|dock8
  -GOLD-   22720 9463D 1   1.00000     0.00000
 Structure written by MMmdl.
 47 48  0  0  0  0  0  0  0  0  2 V2000
  148.5193  137.1093  158.5220 C   0  0  0  0  0  0  0  0  0  0  0  0
  148.1692  136.4656  159.8333 C   0  0  0  0  0  0  0  0  0  0  0  0
  148.0816  137.2129  160.9211 N   0  0  0  0  0  0  0  0  0  0  0  0
  147.7589  136.3509  161.9058 N   0  0  0  0  0  0  0  0  0  0  0  0
  147.5788  136.8484  163.2559 C   0  0  0  0  0  0  0  0  0  0  0  0
  147.6419  135.0561  161.4394 C   0  0  0  0  0  0  0  0  0  0  0  0
  147.2868  133.9175  162.3406 C   0  0  0  0  0  0  0  0  0  0  0  0
  147.9010  135.0898  160.0946 C   0  0  0  0  0  0  0  0  0  0  0  0
  147.9068  133.9546  159.1021 C   0  0  0  0  0  0  0  0  0  0  0  0
  146.7250  134.1002  158.1432 C   0  0  0  0  0  0  0  0  0  0  0  0
  145.6259  134.4556  158.5679 O   0  0  0  0  0  0  0  0  0  0  0  0
  146.9619  133.8223  156.8516 N   0  0  0  0  0  0  0  0  0  0  0  0
  145.9656  133.8712  155.7886 C   0  0  0  0  0  0  0  0  0  0  0  0
  146.3139  132.9047  154.6399 C   0  0  0  0  0  0  0  0  0  0  0  0
  145.3137  132.9426  153.5431 N   0  3  0  0  0  0  0  0  0  0  0  0
  145.0230  134.3310  153.0974 C   0  0  0  0  0  0  0  0  0  0  0  0
  143.8891  134.3590  152.0586 C   0  0  0  0  0  0  0  0  0  0  0  0
  144.2197  133.4623  150.8592 C   0  0  0  0  0  0  0  0  0  0  0  0
  144.5448  132.0438  151.3432 C   0  0  0  0  0  0  0  0  0  0  0  0
  145.6661  132.0632  152.3958 C   0  0  0  0  0  0  0  0  0  0  0  0
  147.7977  136.8398  157.7508 H   0  0  0  0  0  0  0  0  0  0  0  0
  149.5037  136.7873  158.1822 H   0  0  0  0  0  0  0  0  0  0  0  0
  148.5328  138.1974  158.5947 H   0  0  0  0  0  0  0  0  0  0  0  0
  148.2231  136.2960  163.9403 H   0  0  0  0  0  0  0  0  0  0  0  0
  146.5397  136.7165  163.5584 H   0  0  0  0  0  0  0  0  0  0  0  0
  147.8321  137.9078  163.3135 H   0  0  0  0  0  0  0  0  0  0  0  0
  147.2319  132.9775  161.7920 H   0  0  0  0  0  0  0  0  0  0  0  0
  146.3181  134.0851  162.8116 H   0  0  0  0  0  0  0  0  0  0  0  0
  148.0309  133.8009  163.1287 H   0  0  0  0  0  0  0  0  0  0  0  0
  148.8316  133.9412  158.5240 H   0  0  0  0  0  0  0  0  0  0  0  0
  147.8514  132.9848  159.5976 H   0  0  0  0  0  0  0  0  0  0  0  0
  147.8946  133.5332  156.5936 H   0  0  0  0  0  0  0  0  0  0  0  0
  145.0069  133.6144  156.2373 H   0  0  0  0  0  0  0  0  0  0  0  0
  145.8702  134.8923  155.4150 H   0  0  0  0  0  0  0  0  0  0  0  0
  147.2878  133.1884  154.2384 H   0  0  0  0  0  0  0  0  0  0  0  0
  146.4204  131.8835  155.0093 H   0  0  0  0  0  0  0  0  0  0  0  0
  144.7334  134.9405  153.9546 H   0  0  0  0  0  0  0  0  0  0  0  0
  145.9273  134.7780  152.6811 H   0  0  0  0  0  0  0  0  0  0  0  0
  142.9597  134.0242  152.5213 H   0  0  0  0  0  0  0  0  0  0  0  0
  143.7162  135.3819  151.7223 H   0  0  0  0  0  0  0  0  0  0  0  0
  143.3828  133.4412  150.1605 H   0  0  0  0  0  0  0  0  0  0  0  0
  145.0719  133.8715  150.3149 H   0  0  0  0  0  0  0  0  0  0  0  0
  143.6504  131.5874  151.7688 H   0  0  0  0  0  0  0  0  0  0  0  0
  144.8376  131.4198  150.4985 H   0  0  0  0  0  0  0  0  0  0  0  0
  146.5972  132.4087  151.9440 H   0  0  0  0  0  0  0  0  0  0  0  0
  145.8417  131.0438  152.7370 H   0  0  0  0  0  0  0  0  0  0  0  0
  144.4512  132.5887  153.9322 H   0  0  0  0  0  0  0  0  0  0  0  0
  1  2  1  0  0  0  0
  1 21  1  0  0  0  0
  1 22  1  0  0  0  0
  1 23  1  0  0  0  0
  2  8  1  0  0  0  0
  2  3  2  0  0  0  0
  3  4  1  0  0  0  0
  4  5  1  0  0  0  0
  4  6  1  0  0  0  0
  5 24  1  0  0  0  0
  5 25  1  0  0  0  0
  5 26  1  0  0  0  0
  6  7  1  0  0  0  0
  6  8  2  0  0  0  0
  7 27  1  0  0  0  0
  7 28  1  0  0  0  0
  7 29  1  0  0  0  0
  8  9  1  0  0  0  0
  9 10  1  0  0  0  0
  9 30  1  0  0  0  0
  9 31  1  0  0  0  0
 10 11  2  0  0  0  0
 10 12  1  0  0  0  0
 12 13  1  0  0  0  0
 12 32  1  0  0  0  0
 13 14  1  0  0  0  0
 13 33  1  0  0  0  0
 13 34  1  0  0  0  0
 14 15  1  0  0  0  0
 14 35  1  0  0  0  0
 14 36  1  0  0  0  0
 15 20  1  0  0  0  0
 15 16  1  0  0  0  0
 15 47  1  0  0  0  0
 16 17  1  0  0  0  0
 16 37  1  0  0  0  0
 16 38  1  0  0  0  0
 17 18  1  0  0  0  0
 17 39  1  0  0  0  0
 17 40  1  0  0  0  0
 18 19  1  0  0  0  0
 18 41  1  0  0  0  0
 18 42  1  0  0  0  0
 19 20  1  0  0  0  0
 19 43  1  0  0  0  0
 19 44  1  0  0  0  0
 20 45  1  0  0  0  0
 20 46  1  0  0  0  0
M  CHG  1  15   1
M  END
> <s_m_source_file>
AV-unprocessed.smi

> <i_m_source_file_index>
1903

> <i_lp_mmshare_version>
43012

> <i_f3d_flags>
0

> <s_epik_input>
W0NIM11jMW5uKFtDSDNdKWMoW0NIM10pYzFbQ0gyXUMoPU8pW05IXVtDSDJdW0NIMl1OMltDSDJdW0NIMl1bQ0gyXVtDSDJdW0NIMl0y

> <s_epik_cmdline>
J2VwaWtfcHl0aG9uJywgJy1waCcsICc3LjAnLCAnLXRuJywgJzgnLCAnLW1hJywgJzIwMCcsICctbWV0YWxfYmluZGluZycsICctaW1hZScsICc8aW5maWxlLm1hZT4nLCAnLW9tYWUnLCAnPG91dGZpbGUubWFlPic=

> <r_lp_tautomer_probability>
1

> <r_epik_Ionization_Penalty>
0.00456445

> <r_epik_Ionization_Penalty_Charging>
0.00240401

> <r_epik_Ionization_Penalty_Neutral>
0.00216044

> <r_epik_State_Penalty>
-0

> <r_epik_Charging_Adjusted_Penalty>
0.00240401

> <i_epik_Tot_Q>
1

> <i_epik_Tot_abs_Q>
1

> <r_epik_Metal_State_Penalty>
-0

> <b_epik_Metal_Only>
0

> <s_lp_Force_Field>
OPLS_2005

> <r_lp_Energy>
10.8117

> <b_lp_Chiralities_Consistent>
1

> <s_lp_Variant>
AV-unprocessed.smi:1903-1

> <Gold.Version>
5.8.1

> <Gold.Id.Protein>
6NUR|6NUR_protein|mol2

> <Gold.PLP.Fitness>
42.9091

> <Gold.PLP.PLP>
-32.8005

> <Gold.PLP.part.hbond>
-2.9664

> <Gold.PLP.part.metal>
0.0000

> <Gold.PLP.part.buried>
-4.7480

> <Gold.PLP.part.nonpolar>
-25.2683

> <Gold.PLP.part.repulsive>
0.0000

> <Gold.PLP.ligand.clash>
0.0000

> <Gold.PLP.ligand.torsion>
0.5629

> <Gold.PLP.Chemscore.Hbond>
3.7280

> <Gold.PLP.Chemscore.CHOScore>
0.0000

> <Gold.PLP.Chemscore.Metal>
0.0000

> <Gold.Chemscore.Hbonds>
donor molecule, donor type, donor heavy atom, donor atom, acceptor molecule, acceptor atom, score
      L1  H    15    47       P1 10957  1.50
      P1  H  6931  6943       L1     3  0.73
      P1  H  6934  6947       L1     3  0.70

> <Gold.PLP.Chemscore.Internal.Correction>
0.0504

> <Gold.Rescore>
     Score         DG    S(hbond)    S(metal)    S(lipo)     H(rot)  DE(clash)    DE(int)     intcor
     15.87     -16.38       1.99        0.00      72.37       1.65       0.03       0.47       ----

> <Gold.Chemscore.Fitness>
15.8715

> <Gold.Chemscore.DG>
-16.3793

> <Gold.Chemscore.ZeroCoef>
-5.4800

> <Gold.Chemscore.Hbond>
1.9902

> <Gold.Chemscore.Metal>
0.0000

> <Gold.Chemscore.Lipo>
72.3708

> <Gold.Chemscore.Internal_Hbond>
0.0000

> <Gold.Chemscore.DEClash>
0.0341

> <Gold.Chemscore.DEInternal>
0.4738

> <Gold.Chemscore.Rot>
1.6467

> <Gold.Chemscore.Internal.Correction>
   9.000000E+99

> <Gold.Chemscore.Hbonds>
donor molecule, donor type, donor heavy atom, donor atom, acceptor molecule, acceptor atom, score
      L1  H    15    47       P1 10957  0.45
      P1  H  6931  6943       L1     3  0.11
      P1  H  6934  6947       L1     3  0.63

> <Gold.Chemscore.Hbond.Weighted>
-6.6474

> <Gold.Chemscore.Metal.Weighted>
-0.0000

> <Gold.Chemscore.Lipo.Weighted>
-8.4674

> <Gold.Chemscore.Internal_Hbond.Weighted>
0.0000

> <Gold.Chemscore.DEClash.Weighted>
0.0341

> <Gold.Chemscore.DEInternal.Weighted>
0.4738

> <Gold.Chemscore.Rot.Weighted>
4.2155

> <Gold.Chemscore.Internal.Correction.Weighted>
   9.000000E+99

> <Gold.Protein.RotatedTorsions>
[ 6907 6896 6895 6894 ] final   36.18 input  -60.11 | X-H torsion
[ 7974 7965 7964 7962 ] final -163.11 input  175.53 | X-H torsion
[ 8008 7997 7996 7995 ] final  -74.03 input   59.86 | X-H torsion
[ 10167 10162 10161 10158 ] final  -17.46 input  -65.29 | X-H torsion
[ 10718 10713 10712 10709 ] final  -55.55 input   66.30 | X-H torsion
[ 10763 10752 10751 10750 ] final  106.25 input  -60.55 | X-H torsion
[ 11005 11000 10999 10996 ] final   63.30 input  -57.11 | X-H torsion

> <Gold.Protein.ActiveResidues>
 VAL166  LYS551  ARG553  GLY616  TRP617  ASP618  TYR619  PRO620  LYS621  CYS622 
 ASP623  PHE694  ASN695  SER759  ASP760  ASP761  ALA762  ILE779  LEU786  VAL792 
 PHE793  MET794  SER795  GLU796  ALA797  LYS798  CYS799  TRP800  GLU811  SER814 

> <Gold.Protein.RotatedAtoms>
  152.1262  134.9169  160.0560 H   0  0  0  0  0  0  0  0  0  0  0  0  # atno 6907 bound_to 6896
  152.0291  133.3925  159.4298 H   0  0  0  0  0  0  0  0  0  0  0  0  # atno 6908 bound_to 6896
  150.6852  134.3462  159.4933 H   0  0  0  0  0  0  0  0  0  0  0  0  # atno 6909 bound_to 6896
  144.7336  140.3155  143.6180 H   0  0  0  0  0  0  0  0  0  0  0  0  # atno 7974 bound_to 7965
  154.5296  140.0768  156.8322 H   0  0  0  0  0  0  0  0  0  0  0  0  # atno 8008 bound_to 7997
  155.3402  140.3407  155.4221 H   0  0  0  0  0  0  0  0  0  0  0  0  # atno 8009 bound_to 7997
  156.1768  140.1638  156.8335 H   0  0  0  0  0  0  0  0  0  0  0  0  # atno 8010 bound_to 7997
  140.7247  143.5013  150.9865 H   0  0  0  0  0  0  0  0  0  0  0  0  # atno 10167 bound_to 10162
  156.1359  130.4157  150.0186 H   0  0  0  0  0  0  0  0  0  0  0  0  # atno 10718 bound_to 10713
  153.3904  135.3883  155.1919 H   0  0  0  0  0  0  0  0  0  0  0  0  # atno 10763 bound_to 10752
  154.8718  135.3747  154.4745 H   0  0  0  0  0  0  0  0  0  0  0  0  # atno 10764 bound_to 10752
  153.5231  135.7086  153.5783 H   0  0  0  0  0  0  0  0  0  0  0  0  # atno 10765 bound_to 10752
  140.0034  134.6408  155.9895 H   0  0  0  0  0  0  0  0  0  0  0  0  # atno 11005 bound_to 11000
  145.7621  139.1828  143.2261 LP  0  0  0  0  0  0  0  0  0  0  0  0  # atno 17320 bound_to 7965
  146.0978  140.7580  142.9564 LP  0  0  0  0  0  0  0  0  0  0  0  0  # atno 17321 bound_to 7965
  139.8723  143.7177  152.3165 LP  0  0  0  0  0  0  0  0  0  0  0  0  # atno 17342 bound_to 10162
  139.7430  144.7554  151.0623 LP  0  0  0  0  0  0  0  0  0  0  0  0  # atno 17343 bound_to 10162
  156.8085  130.9316  151.3644 LP  0  0  0  0  0  0  0  0  0  0  0  0  # atno 17370 bound_to 10713
  157.6532  130.8902  149.9675 LP  0  0  0  0  0  0  0  0  0  0  0  0  # atno 17371 bound_to 10713
  141.1658  133.6537  156.4476 LP  0  0  0  0  0  0  0  0  0  0  0  0  # atno 17394 bound_to 11000
  140.4687  134.6774  157.5119 LP  0  0  0  0  0  0  0  0  0  0  0  0  # atno 17395 bound_to 11000

$$$$
