AV-unprocessed.smi:1047|AV-procd|sdf|4603|dock3
  -GOLD-   22720 3 93D 1   1.00000     0.00000
 Structure written by MMmdl.
 57 59  0  0  0  0  0  0  0  0  3 V2000
  147.7632  131.9737  159.8510 C   0  0  0  0  0  0  0  0  0  0  0  0
  146.7876  132.8929  160.5995 C   0  0  0  0  0  0  0  0  0  0  0  0
  147.3837  134.2116  160.9298 N   0  3  2  0  0  0  0  0  0  0  0  0
  146.5754  135.0047  161.8891 C   0  0  0  0  0  0  0  0  0  0  0  0
  147.2659  136.3438  162.1947 C   0  0  0  0  0  0  0  0  0  0  0  0
  147.4854  137.0518  160.9817 O   0  0  0  0  0  0  0  0  0  0  0  0
  148.3510  136.3491  160.0957 C   0  0  2  0  0  0  0  0  0  0  0  0
  148.5848  137.2332  158.8621 C   0  0  0  0  0  0  0  0  0  0  0  0
  149.7721  136.8087  158.1278 N   0  0  0  0  0  0  0  0  0  0  0  0
  149.9954  137.5647  156.8989 C   0  0  0  0  0  0  0  0  0  0  0  0
  151.4496  138.0564  156.7979 C   0  0  1  0  0  0  0  0  0  0  0  0
  152.2773  136.9546  156.4808 O   0  0  0  0  0  0  0  0  0  0  0  0
  151.6100  139.1407  155.7141 C   0  0  0  0  0  0  0  0  0  0  0  0
  151.1089  140.4541  156.1448 N   0  0  0  0  0  0  0  0  0  0  0  0
  150.2340  141.2913  155.5242 C   0  0  0  0  0  0  0  0  0  0  0  0
  150.0824  142.3886  156.3156 N   0  3  0  0  0  0  0  0  0  0  0  0
  150.8724  142.2513  157.4586 C   0  0  0  0  0  0  0  0  0  0  0  0
  151.0517  143.0978  158.5462 C   0  0  0  0  0  0  0  0  0  0  0  0
  151.9327  142.6644  159.5623 C   0  0  0  0  0  0  0  0  0  0  0  0
  152.1500  143.5651  160.7664 C   0  0  0  0  0  0  0  0  0  0  0  0
  152.6008  141.4165  159.4654 C   0  0  0  0  0  0  0  0  0  0  0  0
  153.5455  140.9607  160.5643 C   0  0  0  0  0  0  0  0  0  0  0  0
  152.4048  140.5696  158.3507 C   0  0  0  0  0  0  0  0  0  0  0  0
  151.5341  141.0116  157.3570 C   0  0  0  0  0  0  0  0  0  0  0  0
  147.6802  135.0135  159.7183 C   0  0  0  0  0  0  0  0  0  0  0  0
  147.2644  131.0528  159.5482 H   0  0  0  0  0  0  0  0  0  0  0  0
  148.6139  131.6892  160.4696 H   0  0  0  0  0  0  0  0  0  0  0  0
  148.1450  132.4538  158.9496 H   0  0  0  0  0  0  0  0  0  0  0  0
  145.9178  133.0469  159.9592 H   0  0  0  0  0  0  0  0  0  0  0  0
  146.4225  132.4089  161.5065 H   0  0  0  0  0  0  0  0  0  0  0  0
  145.5837  135.1856  161.4716 H   0  0  0  0  0  0  0  0  0  0  0  0
  146.4358  134.4548  162.8193 H   0  0  0  0  0  0  0  0  0  0  0  0
  146.6379  136.9498  162.8480 H   0  0  0  0  0  0  0  0  0  0  0  0
  148.2110  136.1875  162.7173 H   0  0  0  0  0  0  0  0  0  0  0  0
  149.3061  136.1500  160.5866 H   0  0  0  0  0  0  0  0  0  0  0  0
  147.7163  137.1773  158.2046 H   0  0  0  0  0  0  0  0  0  0  0  0
  148.6775  138.2758  159.1691 H   0  0  0  0  0  0  0  0  0  0  0  0
  150.5886  136.8811  158.7266 H   0  0  0  0  0  0  0  0  0  0  0  0
  149.7256  136.9733  156.0227 H   0  0  0  0  0  0  0  0  0  0  0  0
  149.3330  138.4314  156.8991 H   0  0  0  0  0  0  0  0  0  0  0  0
  151.7709  138.4704  157.7552 H   0  0  0  0  0  0  0  0  0  0  0  0
  152.8795  136.8149  157.1952 H   0  0  0  0  0  0  0  0  0  0  0  0
  152.6471  139.2326  155.3910 H   0  0  0  0  0  0  0  0  0  0  0  0
  151.0395  138.8625  154.8268 H   0  0  0  0  0  0  0  0  0  0  0  0
  149.7470  141.1168  154.5755 H   0  0  0  0  0  0  0  0  0  0  0  0
  150.5384  144.0460  158.6134 H   0  0  0  0  0  0  0  0  0  0  0  0
  153.1971  143.8598  160.8400 H   0  0  0  0  0  0  0  0  0  0  0  0
  151.8684  143.0500  161.6852 H   0  0  0  0  0  0  0  0  0  0  0  0
  151.5517  144.4740  160.6981 H   0  0  0  0  0  0  0  0  0  0  0  0
  153.9880  139.9910  160.3343 H   0  0  0  0  0  0  0  0  0  0  0  0
  153.0135  140.8684  161.5115 H   0  0  0  0  0  0  0  0  0  0  0  0
  154.3589  141.6756  160.6911 H   0  0  0  0  0  0  0  0  0  0  0  0
  152.9105  139.6183  158.2825 H   0  0  0  0  0  0  0  0  0  0  0  0
  148.3382  134.4476  159.0573 H   0  0  0  0  0  0  0  0  0  0  0  0
  146.7551  135.1974  159.1687 H   0  0  0  0  0  0  0  0  0  0  0  0
  148.2728  134.0266  161.3720 H   0  0  0  0  0  0  0  0  0  0  0  0
  149.4821  143.1715  156.0903 H   0  0  0  0  0  0  0  0  0  0  0  0
  1  2  1  0  0  0  0
  1 26  1  0  0  0  0
  1 27  1  0  0  0  0
  1 28  1  0  0  0  0
  2  3  1  0  0  0  0
  2 29  1  0  0  0  0
  2 30  1  0  0  0  0
  3 25  1  0  0  0  0
  3  4  1  0  0  0  0
  3 56  1  0  0  0  0
  4  5  1  0  0  0  0
  4 31  1  0  0  0  0
  4 32  1  0  0  0  0
  5  6  1  0  0  0  0
  5 33  1  0  0  0  0
  5 34  1  0  0  0  0
  6  7  1  0  0  0  0
  7  8  1  0  0  0  0
  7 25  1  0  0  0  0
  7 35  1  0  0  0  0
  8  9  1  0  0  0  0
  8 36  1  0  0  0  0
  8 37  1  0  0  0  0
  9 10  1  0  0  0  0
  9 38  1  0  0  0  0
 10 11  1  0  0  0  0
 10 39  1  0  0  0  0
 10 40  1  0  0  0  0
 11 12  1  0  0  0  0
 11 13  1  0  0  0  0
 11 41  1  0  0  0  0
 12 42  1  0  0  0  0
 13 14  1  0  0  0  0
 13 43  1  0  0  0  0
 13 44  1  0  0  0  0
 14 24  1  0  0  0  0
 14 15  1  0  0  0  0
 15 16  2  0  0  0  0
 15 45  1  0  0  0  0
 16 17  1  0  0  0  0
 16 57  1  0  0  0  0
 17 24  2  0  0  0  0
 17 18  1  0  0  0  0
 18 19  2  0  0  0  0
 18 46  1  0  0  0  0
 19 20  1  0  0  0  0
 19 21  1  0  0  0  0
 20 47  1  0  0  0  0
 20 48  1  0  0  0  0
 20 49  1  0  0  0  0
 21 22  1  0  0  0  0
 21 23  2  0  0  0  0
 22 50  1  0  0  0  0
 22 51  1  0  0  0  0
 22 52  1  0  0  0  0
 23 24  1  0  0  0  0
 23 53  1  0  0  0  0
 25 54  1  0  0  0  0
 25 55  1  0  0  0  0
M  CHG  1   3   1
M  CHG  1  16   1
M  END
> <s_m_source_file>
AV-unprocessed.smi

> <i_m_source_file_index>
1047

> <i_lp_mmshare_version>
43012

> <i_f3d_flags>
0

> <s_epik_input>
W0NIM11bQ0gyXU4xW0NIMl1bQ0gyXU9bQ0BIXShbQ0gyXTEpW0NIMl1bTkhdW0NIMl1bQ0BIXShbT0hdKVtDSDJdbihbY0hdbjIpYyhjMjMpW2NIXWMoW0NIM10pYyhbY0hdMylbQ0gzXQ==

> <s_epik_cmdline>
J2VwaWtfcHl0aG9uJywgJy1waCcsICc3LjAnLCAnLXRuJywgJzgnLCAnLW1hJywgJzIwMCcsICctbWV0YWxfYmluZGluZycsICctaW1hZScsICc8aW5maWxlLm1hZT4nLCAnLW9tYWUnLCAnPG91dGZpbGUubWFlPic=

> <r_epik_Ionization_Penalty>
2.03028

> <r_epik_Ionization_Penalty_Charging>
1.21256

> <r_epik_Ionization_Penalty_Neutral>
0.817715

> <r_epik_State_Penalty>
2.54959

> <r_epik_Charging_Adjusted_Penalty>
3.76215

> <i_epik_Tot_Q>
2

> <i_epik_Tot_abs_Q>
2

> <r_epik_Metal_State_Penalty>
6.52811

> <b_epik_Metal_Only>
0

> <s_lp_Force_Field>
OPLS_2005

> <r_lp_Energy>
34.649

> <b_lp_Chiralities_Consistent>
1

> <s_lp_Variant>
AV-unprocessed.smi:1047-44

> <Gold.Version>
5.8.1

> <Gold.Id.Protein>
6NUR|6NUR_protein|mol2

> <Gold.PLP.Fitness>
60.4760

> <Gold.PLP.PLP>
-49.9781

> <Gold.PLP.part.hbond>
-3.6209

> <Gold.PLP.part.metal>
0.0000

> <Gold.PLP.part.buried>
-6.5093

> <Gold.PLP.part.nonpolar>
-40.6684

> <Gold.PLP.part.repulsive>
0.1301

> <Gold.PLP.ligand.clash>
0.0000

> <Gold.PLP.ligand.torsion>
0.8668

> <Gold.PLP.Chemscore.Hbond>
3.9667

> <Gold.PLP.Chemscore.CHOScore>
0.0000

> <Gold.PLP.Chemscore.Metal>
0.0000

> <Gold.Chemscore.Hbonds>
donor molecule, donor type, donor heavy atom, donor atom, acceptor molecule, acceptor atom, score
      L1  H    16    57       P1  8028  2.00
      P1  H  6931  6943       L1     6  0.29
      P1  H  6934  6947       L1     6  1.00
      P1  H 10752 10763       L1    12  0.49

> <Gold.PLP.Chemscore.Internal.Correction>
0.3312

> <Gold.Rescore>
     Score         DG    S(hbond)    S(metal)    S(lipo)     H(rot)  DE(clash)    DE(int)     intcor
     19.61     -20.48       1.95        0.00     131.88       2.71       0.07       0.80       ----

> <Gold.Chemscore.Fitness>
19.6068

> <Gold.Chemscore.DG>
-20.4775

> <Gold.Chemscore.ZeroCoef>
-5.4800

> <Gold.Chemscore.Hbond>
1.9467

> <Gold.Chemscore.Metal>
0.0000

> <Gold.Chemscore.Lipo>
131.8820

> <Gold.Chemscore.Internal_Hbond>
0.0000

> <Gold.Chemscore.DEClash>
0.0732

> <Gold.Chemscore.DEInternal>
0.7975

> <Gold.Chemscore.Rot>
2.7088

> <Gold.Chemscore.Internal.Correction>
   9.000000E+99

> <Gold.Chemscore.Hbonds>
donor molecule, donor type, donor heavy atom, donor atom, acceptor molecule, acceptor atom, score
      L1  H    16    57       P1  8028  1.00
      P1  H  6934  6947       L1     6  0.89
      P1  H 10752 10763       L1    12  0.12

> <Gold.Chemscore.Hbond.Weighted>
-6.5019

> <Gold.Chemscore.Metal.Weighted>
-0.0000

> <Gold.Chemscore.Lipo.Weighted>
-15.4302

> <Gold.Chemscore.Internal_Hbond.Weighted>
0.0000

> <Gold.Chemscore.DEClash.Weighted>
0.0732

> <Gold.Chemscore.DEInternal.Weighted>
0.7975

> <Gold.Chemscore.Rot.Weighted>
6.9346

> <Gold.Chemscore.Internal.Correction.Weighted>
   9.000000E+99

> <Gold.Protein.RotatedTorsions>
[ 6907 6896 6895 6894 ] final  161.54 input  -60.11 | X-H torsion
[ 7974 7965 7964 7962 ] final  -23.32 input  175.53 | X-H torsion
[ 8008 7997 7996 7995 ] final  114.52 input   59.86 | X-H torsion
[ 10167 10162 10161 10158 ] final  110.56 input  -65.29 | X-H torsion
[ 10718 10713 10712 10709 ] final  164.45 input   66.30 | X-H torsion
[ 10763 10752 10751 10750 ] final   84.36 input  -60.55 | X-H torsion
[ 11005 11000 10999 10996 ] final   75.20 input  -57.11 | X-H torsion

> <Gold.Protein.ActiveResidues>
 VAL166  LYS551  ARG553  GLY616  TRP617  ASP618  TYR619  PRO620  LYS621  CYS622 
 ASP623  PHE694  ASN695  SER759  ASP760  ASP761  ALA762  ILE779  LEU786  VAL792 
 PHE793  MET794  SER795  GLU796  ALA797  LYS798  CYS799  TRP800  GLU811  SER814 

> <Gold.Protein.RotatedAtoms>
  151.9541  133.3675  159.4010 H   0  0  0  0  0  0  0  0  0  0  0  0  # atno 6907 bound_to 6896
  150.6975  134.4310  159.5257 H   0  0  0  0  0  0  0  0  0  0  0  0  # atno 6908 bound_to 6896
  152.1988  134.8607  160.0561 H   0  0  0  0  0  0  0  0  0  0  0  0  # atno 6909 bound_to 6896
  146.1623  140.4599  142.8566 H   0  0  0  0  0  0  0  0  0  0  0  0  # atno 7974 bound_to 7965
  156.2326  140.2957  156.0228 H   0  0  0  0  0  0  0  0  0  0  0  0  # atno 8008 bound_to 7997
  155.2182  140.0415  157.2961 H   0  0  0  0  0  0  0  0  0  0  0  0  # atno 8009 bound_to 7997
  154.6022  140.2430  155.7784 H   0  0  0  0  0  0  0  0  0  0  0  0  # atno 8010 bound_to 7997
  139.6679  144.7126  151.1743 H   0  0  0  0  0  0  0  0  0  0  0  0  # atno 10167 bound_to 10162
  157.0942  131.0426  151.2525 H   0  0  0  0  0  0  0  0  0  0  0  0  # atno 10718 bound_to 10713
  153.1374  135.4657  154.9444 H   0  0  0  0  0  0  0  0  0  0  0  0  # atno 10763 bound_to 10752
  154.7718  135.3161  154.8177 H   0  0  0  0  0  0  0  0  0  0  0  0  # atno 10764 bound_to 10752
  153.8706  135.6904  153.4829 H   0  0  0  0  0  0  0  0  0  0  0  0  # atno 10765 bound_to 10752
  139.9355  134.7498  156.1242 H   0  0  0  0  0  0  0  0  0  0  0  0  # atno 11005 bound_to 11000
  144.8044  140.6273  143.6456 LP  0  0  0  0  0  0  0  0  0  0  0  0  # atno 17320 bound_to 7965
  145.4556  139.1518  143.3894 LP  0  0  0  0  0  0  0  0  0  0  0  0  # atno 17321 bound_to 7965
  140.7606  143.5891  150.8815 LP  0  0  0  0  0  0  0  0  0  0  0  0  # atno 17342 bound_to 10162
  139.9554  143.6225  152.3017 LP  0  0  0  0  0  0  0  0  0  0  0  0  # atno 17343 bound_to 10162
  157.4695  130.7700  149.7310 LP  0  0  0  0  0  0  0  0  0  0  0  0  # atno 17370 bound_to 10713
  155.9890  130.3955  150.3092 LP  0  0  0  0  0  0  0  0  0  0  0  0  # atno 17371 bound_to 10713
  141.0966  133.6693  156.2658 LP  0  0  0  0  0  0  0  0  0  0  0  0  # atno 17394 bound_to 11000
  140.6088  134.5479  157.5530 LP  0  0  0  0  0  0  0  0  0  0  0  0  # atno 17395 bound_to 11000

$$$$
