AV-unprocessed.smi:41|AV-procd|sdf|384|dock5
  -GOLD-   2262016243D 1   1.00000     0.00000
 Structure written by MMmdl.
 26 27  0  0  0  0  0  0  0  0  1 V2000
  148.7337  140.4884  153.6373 N   0  0  0  0  0  0  0  0  0  0  0  0
  149.3336  140.7579  154.8057 C   0  0  0  0  0  0  0  0  0  0  0  0
  150.6118  140.4685  154.9514 N   0  0  0  0  0  0  0  0  0  0  0  0
  151.3097  140.7034  156.1072 C   0  0  0  0  0  0  0  0  0  0  0  0
  152.4961  140.3887  156.1909 O   0  0  0  0  0  0  0  0  0  0  0  0
  150.6146  141.3168  157.1809 N   0  0  0  0  0  0  0  0  0  0  0  0
  151.2703  141.5242  158.4701 C   0  0  1  0  0  0  0  0  0  0  0  0
  152.1255  140.3323  158.9506 C   0  0  0  0  0  0  0  0  0  0  0  0
  153.3843  141.0120  160.0445 S   0  0  0  0  0  0  0  0  0  0  0  0
  152.9124  142.6874  159.5552 C   0  0  2  0  0  0  0  0  0  0  0  0
  152.1911  143.4427  160.6875 C   0  0  0  0  0  0  0  0  0  0  0  0
  151.8861  142.5643  161.7503 O   0  0  0  0  0  0  0  0  0  0  0  0
  152.0945  142.6450  158.3951 O   0  0  0  0  0  0  0  0  0  0  0  0
  149.2598  141.5949  157.0438 C   0  0  0  0  0  0  0  0  0  0  0  0
  148.5922  141.3477  155.8964 C   0  0  0  0  0  0  0  0  0  0  0  0
  147.2835  141.6321  155.7805 F   0  0  0  0  0  0  0  0  0  0  0  0
  150.5201  141.7338  159.2332 H   0  0  0  0  0  0  0  0  0  0  0  0
  153.8165  143.2357  159.2882 H   0  0  0  0  0  0  0  0  0  0  0  0
  147.7533  140.6985  153.5146 H   0  0  0  0  0  0  0  0  0  0  0  0
  149.2623  140.0735  152.8835 H   0  0  0  0  0  0  0  0  0  0  0  0
  151.4983  139.6018  159.4620 H   0  0  0  0  0  0  0  0  0  0  0  0
  152.6324  139.8310  158.1292 H   0  0  0  0  0  0  0  0  0  0  0  0
  152.8321  144.2343  161.0768 H   0  0  0  0  0  0  0  0  0  0  0  0
  151.2733  143.9139  160.3348 H   0  0  0  0  0  0  0  0  0  0  0  0
  152.6846  142.3664  162.2155 H   0  0  0  0  0  0  0  0  0  0  0  0
  148.6983  142.0073  157.8686 H   0  0  0  0  0  0  0  0  0  0  0  0
  1  2  1  0  0  0  0
  1 19  1  0  0  0  0
  1 20  1  0  0  0  0
  2 15  1  0  0  0  0
  2  3  2  0  0  0  0
  3  4  1  0  0  0  0
  4  5  2  0  0  0  0
  4  6  1  0  0  0  0
  6  7  1  0  0  0  0
  6 14  1  0  0  0  0
  7 17  1  0  0  0  0
  7 13  1  0  0  0  0
  7  8  1  0  0  0  0
  8  9  1  0  0  0  0
  8 21  1  0  0  0  0
  8 22  1  0  0  0  0
  9 10  1  0  0  0  0
 10 18  1  0  0  0  0
 10 11  1  0  0  0  0
 10 13  1  0  0  0  0
 11 12  1  0  0  0  0
 11 23  1  0  0  0  0
 11 24  1  0  0  0  0
 12 25  1  0  0  0  0
 14 15  2  0  0  0  0
 14 26  1  0  0  0  0
 15 16  1  0  0  0  0
M  END
> <s_m_source_file>
AV-unprocessed.smi

> <i_m_source_file_index>
41

> <i_lp_mmshare_version>
43012

> <i_f3d_flags>
0

> <s_epik_input>
W05IMl1jMW5jKD1PKW4oW2NIXWMxRilbQ0BASF0yW0NIMl1TW0NAQEhdKE8yKVtDSDJdW09IXQ==

> <s_epik_cmdline>
J2VwaWtfcHl0aG9uJywgJy1waCcsICc3LjAnLCAnLXRuJywgJzgnLCAnLW1hJywgJzIwMCcsICctbWV0YWxfYmluZGluZycsICctaW1hZScsICc8aW5maWxlLm1hZT4nLCAnLW9tYWUnLCAnPG91dGZpbGUubWFlPic=

> <r_lp_tautomer_probability>
1

> <r_epik_Ionization_Penalty>
0.000101883

> <r_epik_Ionization_Penalty_Charging>
1.48607e-08

> <r_epik_Ionization_Penalty_Neutral>
0.000101868

> <r_epik_State_Penalty>
-0

> <r_epik_Charging_Adjusted_Penalty>
1.48607e-08

> <i_epik_Tot_Q>
0

> <i_epik_Tot_abs_Q>
0

> <r_epik_Metal_State_Penalty>
-0

> <b_epik_Metal_Only>
0

> <s_epik_Chemistry_Notes>
This compound contains an acetal/aminal-like group ( X-CH(R)-Y where X, Y are N, S, or O) that may be acid/base labile, releasing an aldehyde.

> <s_lp_Force_Field>
OPLS_2005

> <r_lp_Energy>
13.4753

> <b_lp_Chiralities_Consistent>
1

> <s_lp_Variant>
AV-unprocessed.smi:41-2

> <Gold.Version>
5.8.1

> <Gold.Id.Protein>
6NUR|6NUR_protein|mol2

> <Gold.PLP.Fitness>
39.8630

> <Gold.PLP.PLP>
-30.9709

> <Gold.PLP.part.hbond>
-4.3977

> <Gold.PLP.part.metal>
0.0000

> <Gold.PLP.part.buried>
-3.1484

> <Gold.PLP.part.nonpolar>
-23.1329

> <Gold.PLP.part.repulsive>
0.2402

> <Gold.PLP.ligand.clash>
0.0000

> <Gold.PLP.ligand.torsion>
1.0988

> <Gold.PLP.Chemscore.Hbond>
3.6800

> <Gold.PLP.Chemscore.CHOScore>
0.0000

> <Gold.PLP.Chemscore.Metal>
0.0000

> <Gold.Chemscore.Hbonds>
donor molecule, donor type, donor heavy atom, donor atom, acceptor molecule, acceptor atom, score
      L1  H     1    20       P1  7957  0.94
      P1  H  6933  6945       L1    12  0.71
      P1  H  7989  7998       L1     3  1.00
      P1  H  7997  8009       L1     5  0.99

> <Gold.PLP.Chemscore.Internal.Correction>
0.0496

> <Gold.Rescore>
     Score         DG    S(hbond)    S(metal)    S(lipo)     H(rot)  DE(clash)    DE(int)     intcor
     13.32     -16.58       3.34        0.00      47.47       2.19       0.68       2.57       ----

> <Gold.Chemscore.Fitness>
13.3236

> <Gold.Chemscore.DG>
-16.5754

> <Gold.Chemscore.ZeroCoef>
-5.4800

> <Gold.Chemscore.Hbond>
3.3398

> <Gold.Chemscore.Metal>
0.0000

> <Gold.Chemscore.Lipo>
47.4726

> <Gold.Chemscore.Internal_Hbond>
0.0000

> <Gold.Chemscore.DEClash>
0.6845

> <Gold.Chemscore.DEInternal>
2.5673

> <Gold.Chemscore.Rot>
2.1929

> <Gold.Chemscore.Internal.Correction>
   9.000000E+99

> <Gold.Chemscore.Hbonds>
donor molecule, donor type, donor heavy atom, donor atom, acceptor molecule, acceptor atom, score
      L1  H     1    20       P1  7957  0.91
      P1  H  6933  6945       L1    12  0.67
      P1  H  7989  7998       L1     3  0.63
      P1  H  7997  8009       L1     5  0.94

> <Gold.Chemscore.Hbond.Weighted>
-11.1548

> <Gold.Chemscore.Metal.Weighted>
-0.0000

> <Gold.Chemscore.Lipo.Weighted>
-5.5543

> <Gold.Chemscore.Internal_Hbond.Weighted>
0.0000

> <Gold.Chemscore.DEClash.Weighted>
0.6845

> <Gold.Chemscore.DEInternal.Weighted>
2.5673

> <Gold.Chemscore.Rot.Weighted>
5.6137

> <Gold.Chemscore.Internal.Correction.Weighted>
   9.000000E+99

> <Gold.Protein.RotatedTorsions>
[ 6907 6896 6895 6894 ] final   90.14 input  -60.11 | X-H torsion
[ 7974 7965 7964 7962 ] final  150.37 input  175.53 | X-H torsion
[ 8008 7997 7996 7995 ] final -165.00 input   59.86 | X-H torsion
[ 10167 10162 10161 10158 ] final -128.87 input  -65.29 | X-H torsion
[ 10718 10713 10712 10709 ] final -168.76 input   66.30 | X-H torsion
[ 10763 10752 10751 10750 ] final  -54.68 input  -60.55 | X-H torsion
[ 11005 11000 10999 10996 ] final -114.49 input  -57.11 | X-H torsion

> <Gold.Protein.ActiveResidues>
 VAL166  LYS551  ARG553  GLY616  TRP617  ASP618  TYR619  PRO620  LYS621  CYS622 
 ASP623  PHE694  ASN695  SER759  ASP760  ASP761  ALA762  ILE779  LEU786  VAL792 
 PHE793  MET794  SER795  GLU796  ALA797  LYS798  CYS799  TRP800  GLU811  SER814 

> <Gold.Protein.RotatedAtoms>
  152.5442  134.1858  159.8653 H   0  0  0  0  0  0  0  0  0  0  0  0  # atno 6907 bound_to 6896
  151.1857  133.4691  159.2602 H   0  0  0  0  0  0  0  0  0  0  0  0  # atno 6908 bound_to 6896
  151.1134  135.0051  159.8560 H   0  0  0  0  0  0  0  0  0  0  0  0  # atno 6909 bound_to 6896
  144.8369  139.6400  143.6034 H   0  0  0  0  0  0  0  0  0  0  0  0  # atno 7974 bound_to 7965
  155.8436  140.0952  157.1719 H   0  0  0  0  0  0  0  0  0  0  0  0  # atno 8008 bound_to 7997
  154.3982  140.1396  156.3820 H   0  0  0  0  0  0  0  0  0  0  0  0  # atno 8009 bound_to 7997
  155.8038  140.3452  155.5420 H   0  0  0  0  0  0  0  0  0  0  0  0  # atno 8010 bound_to 7997
  139.9457  143.6112  152.2490 H   0  0  0  0  0  0  0  0  0  0  0  0  # atno 10167 bound_to 10162
  156.7017  130.9199  151.3080 H   0  0  0  0  0  0  0  0  0  0  0  0  # atno 10718 bound_to 10713
  154.1787  135.6447  153.5028 H   0  0  0  0  0  0  0  0  0  0  0  0  # atno 10763 bound_to 10752
  153.0065  135.5401  154.6537 H   0  0  0  0  0  0  0  0  0  0  0  0  # atno 10764 bound_to 10752
  154.5895  135.2933  155.0622 H   0  0  0  0  0  0  0  0  0  0  0  0  # atno 10765 bound_to 10752
  141.0548  133.9629  157.2773 H   0  0  0  0  0  0  0  0  0  0  0  0  # atno 11005 bound_to 11000
  146.2667  139.6536  142.9325 LP  0  0  0  0  0  0  0  0  0  0  0  0  # atno 17320 bound_to 7965
  145.4776  141.0437  143.2664 LP  0  0  0  0  0  0  0  0  0  0  0  0  # atno 17321 bound_to 7965
  139.6668  144.7662  151.1858 LP  0  0  0  0  0  0  0  0  0  0  0  0  # atno 17342 bound_to 10162
  140.7598  143.5925  150.8781 LP  0  0  0  0  0  0  0  0  0  0  0  0  # atno 17343 bound_to 10162
  157.6970  130.9293  150.0675 LP  0  0  0  0  0  0  0  0  0  0  0  0  # atno 17370 bound_to 10713
  156.1724  130.3647  149.9146 LP  0  0  0  0  0  0  0  0  0  0  0  0  # atno 17371 bound_to 10713
  139.9381  135.0194  156.8621 LP  0  0  0  0  0  0  0  0  0  0  0  0  # atno 17394 bound_to 11000
  140.5985  134.0194  155.7527 LP  0  0  0  0  0  0  0  0  0  0  0  0  # atno 17395 bound_to 11000

$$$$
