AV-unprocessed.smi:3232|AV-procd|sdf|12342|dock7
  -GOLD-   2272018203D 1   1.00000     0.00000
 Structure written by MMmdl.
 40 41  0  0  0  0  0  0  0  0  2 V2000
  145.3840  134.6709  151.2710 C   0  0  0  0  0  0  0  0  0  0  0  0
  145.5080  136.1553  150.9016 C   0  0  0  0  0  0  0  0  0  0  0  0
  146.3013  136.9166  151.8967 N   0  3  1  0  0  0  0  0  0  0  0  0
  146.6109  138.3087  151.5093 C   0  0  0  0  0  0  0  0  0  0  0  0
  146.8921  139.0288  152.8214 C   0  0  0  0  0  0  0  0  0  0  0  0
  145.8985  138.3864  153.7825 C   0  0  0  0  0  0  0  0  0  0  0  0
  145.7056  136.9493  153.2564 C   0  0  2  0  0  0  0  0  0  0  0  0
  146.3494  135.8692  154.1513 C   0  0  0  0  0  0  0  0  0  0  0  0
  147.8054  135.9473  154.1458 N   0  0  0  0  0  0  0  0  0  0  0  0
  148.5748  136.0736  155.2383 C   0  0  0  0  0  0  0  0  0  0  0  0
  148.1187  136.0808  156.3824 O   0  0  0  0  0  0  0  0  0  0  0  0
  150.0809  136.2415  154.9862 C   0  0  2  0  0  0  0  0  0  0  0  0
  150.9516  135.5428  156.0468 C   0  0  0  0  0  0  0  0  0  0  0  0
  150.4132  137.6563  154.8872 N   0  0  0  0  0  0  0  0  0  0  0  0
  150.1190  138.5620  153.9499 C   0  0  0  0  0  0  0  0  0  0  0  0
  150.6134  139.7672  154.1938 N   0  0  0  0  0  0  0  0  0  0  0  0
  151.2384  139.5206  155.3833 C   0  0  0  0  0  0  0  0  0  0  0  0
  151.1536  138.2712  155.8403 N   0  0  0  0  0  0  0  0  0  0  0  0
  144.7441  134.1493  150.5590 H   0  0  0  0  0  0  0  0  0  0  0  0
  144.9463  134.5461  152.2616 H   0  0  0  0  0  0  0  0  0  0  0  0
  146.3530  134.1717  151.2650 H   0  0  0  0  0  0  0  0  0  0  0  0
  145.9468  136.2653  149.9089 H   0  0  0  0  0  0  0  0  0  0  0  0
  144.5069  136.5853  150.8503 H   0  0  0  0  0  0  0  0  0  0  0  0
  147.4538  138.3599  150.8195 H   0  0  0  0  0  0  0  0  0  0  0  0
  145.7452  138.7608  151.0221 H   0  0  0  0  0  0  0  0  0  0  0  0
  147.9118  138.8207  153.1484 H   0  0  0  0  0  0  0  0  0  0  0  0
  146.7744  140.1104  152.7470 H   0  0  0  0  0  0  0  0  0  0  0  0
  146.2404  138.4359  154.8166 H   0  0  0  0  0  0  0  0  0  0  0  0
  144.9487  138.9208  153.7326 H   0  0  0  0  0  0  0  0  0  0  0  0
  144.6328  136.7617  153.1815 H   0  0  0  0  0  0  0  0  0  0  0  0
  145.9855  135.9549  155.1767 H   0  0  0  0  0  0  0  0  0  0  0  0
  146.0619  134.8762  153.8043 H   0  0  0  0  0  0  0  0  0  0  0  0
  148.2613  135.9459  153.2443 H   0  0  0  0  0  0  0  0  0  0  0  0
  150.2993  135.7740  154.0240 H   0  0  0  0  0  0  0  0  0  0  0  0
  150.7168  134.4798  156.1136 H   0  0  0  0  0  0  0  0  0  0  0  0
  150.8124  135.9782  157.0372 H   0  0  0  0  0  0  0  0  0  0  0  0
  152.0094  135.6276  155.7962 H   0  0  0  0  0  0  0  0  0  0  0  0
  149.5370  138.3327  153.0691 H   0  0  0  0  0  0  0  0  0  0  0  0
  151.7764  140.2835  155.9265 H   0  0  0  0  0  0  0  0  0  0  0  0
  147.1897  136.4469  151.9978 H   0  0  0  0  0  0  0  0  0  0  0  0
  1  2  1  0  0  0  0
  1 19  1  0  0  0  0
  1 20  1  0  0  0  0
  1 21  1  0  0  0  0
  2  3  1  0  0  0  0
  2 22  1  0  0  0  0
  2 23  1  0  0  0  0
  3  7  1  0  0  0  0
  3  4  1  0  0  0  0
  3 40  1  0  0  0  0
  4  5  1  0  0  0  0
  4 24  1  0  0  0  0
  4 25  1  0  0  0  0
  5  6  1  0  0  0  0
  5 26  1  0  0  0  0
  5 27  1  0  0  0  0
  6  7  1  0  0  0  0
  6 28  1  0  0  0  0
  6 29  1  0  0  0  0
  7  8  1  0  0  0  0
  7 30  1  0  0  0  0
  8  9  1  0  0  0  0
  8 31  1  0  0  0  0
  8 32  1  0  0  0  0
  9 10  1  0  0  0  0
  9 33  1  0  0  0  0
 10 11  2  0  0  0  0
 10 12  1  0  0  0  0
 12 13  1  0  0  0  0
 12 14  1  0  0  0  0
 12 34  1  0  0  0  0
 13 35  1  0  0  0  0
 13 36  1  0  0  0  0
 13 37  1  0  0  0  0
 14 18  1  0  0  0  0
 14 15  1  0  0  0  0
 15 16  2  0  0  0  0
 15 38  1  0  0  0  0
 16 17  1  0  0  0  0
 17 18  2  0  0  0  0
 17 39  1  0  0  0  0
M  CHG  1   3   1
M  END
> <s_m_source_file>
AV-unprocessed.smi

> <i_m_source_file_index>
3232

> <i_lp_mmshare_version>
43012

> <i_f3d_flags>
0

> <s_epik_input>
W0NIM11bQ0gyXU4xW0NIMl1bQ0gyXVtDSDJdW0NASF0xW0NIMl1bTkhdQyg9TylbQ0BIXShbQ0gzXSluMltjSF1uW2NIXW4y

> <s_epik_cmdline>
J2VwaWtfcHl0aG9uJywgJy1waCcsICc3LjAnLCAnLXRuJywgJzgnLCAnLW1hJywgJzIwMCcsICctbWV0YWxfYmluZGluZycsICctaW1hZScsICc8aW5maWxlLm1hZT4nLCAnLW9tYWUnLCAnPG91dGZpbGUubWFlPic=

> <r_lp_tautomer_probability>
1

> <r_epik_Ionization_Penalty>
0.00177695

> <r_epik_Ionization_Penalty_Charging>
0.00176881

> <r_epik_Ionization_Penalty_Neutral>
8.13528e-06

> <r_epik_State_Penalty>
0.00119827

> <r_epik_Charging_Adjusted_Penalty>
0.00296709

> <i_epik_Tot_Q>
1

> <i_epik_Tot_abs_Q>
1

> <r_epik_Metal_State_Penalty>
-0

> <b_epik_Metal_Only>
0

> <s_lp_Force_Field>
OPLS_2005

> <r_lp_Energy>
32.398

> <b_lp_Chiralities_Consistent>
1

> <s_lp_Variant>
AV-unprocessed.smi:3232-4

> <Gold.Version>
5.8.1

> <Gold.Id.Protein>
6NUR|6NUR_protein|mol2

> <Gold.PLP.Fitness>
41.8273

> <Gold.PLP.PLP>
-26.6340

> <Gold.PLP.part.hbond>
-3.0000

> <Gold.PLP.part.metal>
0.0000

> <Gold.PLP.part.buried>
-1.6510

> <Gold.PLP.part.nonpolar>
-23.6996

> <Gold.PLP.part.repulsive>
0.2135

> <Gold.PLP.ligand.clash>
0.0000

> <Gold.PLP.ligand.torsion>
1.0238

> <Gold.PLP.Chemscore.Hbond>
4.0000

> <Gold.PLP.Chemscore.CHOScore>
1.7207

> <Gold.PLP.Chemscore.Metal>
0.0000

> <Gold.Chemscore.Hbonds>
donor molecule, donor type, donor heavy atom, donor atom, acceptor molecule, acceptor atom, score
      L1  H     3    40       P1  7948  2.00
      L1  H     9    33       P1  7948  1.00
      P1  H  7989  7998       L1    16  1.00
      L1  C    15    38       P1  7948  1.00
      L1  C    15    38       P1  7957  0.72

> <Gold.PLP.Chemscore.Internal.Correction>
0.0788

> <Gold.Rescore>
     Score         DG    S(hbond)    S(metal)    S(lipo)     H(rot)  DE(clash)    DE(int)     intcor
     13.36     -14.49       2.91        0.00      48.41       2.49       0.09       1.04       ----

> <Gold.Chemscore.Fitness>
13.3586

> <Gold.Chemscore.DG>
-14.4918

> <Gold.Chemscore.ZeroCoef>
-5.4800

> <Gold.Chemscore.Hbond>
2.9094

> <Gold.Chemscore.Metal>
0.0000

> <Gold.Chemscore.Lipo>
48.4126

> <Gold.Chemscore.Internal_Hbond>
0.0000

> <Gold.Chemscore.DEClash>
0.0899

> <Gold.Chemscore.DEInternal>
1.0434

> <Gold.Chemscore.Rot>
2.4882

> <Gold.Chemscore.Internal.Correction>
   9.000000E+99

> <Gold.Chemscore.Hbonds>
donor molecule, donor type, donor heavy atom, donor atom, acceptor molecule, acceptor atom, score
      L1  H     3    40       P1  7948  0.99
      L1  H     9    33       P1  7948  0.97
      P1  H  7989  7998       L1    16  0.40

> <Gold.Chemscore.Hbond.Weighted>
-9.7173

> <Gold.Chemscore.Metal.Weighted>
-0.0000

> <Gold.Chemscore.Lipo.Weighted>
-5.6643

> <Gold.Chemscore.Internal_Hbond.Weighted>
0.0000

> <Gold.Chemscore.DEClash.Weighted>
0.0899

> <Gold.Chemscore.DEInternal.Weighted>
1.0434

> <Gold.Chemscore.Rot.Weighted>
6.3697

> <Gold.Chemscore.Internal.Correction.Weighted>
   9.000000E+99

> <Gold.Protein.RotatedTorsions>
[ 6907 6896 6895 6894 ] final  -41.43 input  -60.11 | X-H torsion
[ 7974 7965 7964 7962 ] final -158.12 input  175.53 | X-H torsion
[ 8008 7997 7996 7995 ] final   72.74 input   59.86 | X-H torsion
[ 10167 10162 10161 10158 ] final -118.97 input  -65.29 | X-H torsion
[ 10718 10713 10712 10709 ] final  -82.10 input   66.30 | X-H torsion
[ 10763 10752 10751 10750 ] final  -31.79 input  -60.55 | X-H torsion
[ 11005 11000 10999 10996 ] final   22.54 input  -57.11 | X-H torsion

> <Gold.Protein.ActiveResidues>
 VAL166  LYS551  ARG553  GLY616  TRP617  ASP618  TYR619  PRO620  LYS621  CYS622 
 ASP623  PHE694  ASN695  SER759  ASP760  ASP761  ALA762  ILE779  LEU786  VAL792 
 PHE793  MET794  SER795  GLU796  ALA797  LYS798  CYS799  TRP800  GLU811  SER814 

> <Gold.Protein.RotatedAtoms>
  150.9669  134.9048  159.7764 H   0  0  0  0  0  0  0  0  0  0  0  0  # atno 6907 bound_to 6896
  152.5176  134.3595  159.9289 H   0  0  0  0  0  0  0  0  0  0  0  0  # atno 6908 bound_to 6896
  151.3605  133.3850  159.2724 H   0  0  0  0  0  0  0  0  0  0  0  0  # atno 6909 bound_to 6896
  144.7519  140.3873  143.6041 H   0  0  0  0  0  0  0  0  0  0  0  0  # atno 7974 bound_to 7965
  155.7734  140.3484  155.5259 H   0  0  0  0  0  0  0  0  0  0  0  0  # atno 8008 bound_to 7997
  155.8800  140.1000  157.1513 H   0  0  0  0  0  0  0  0  0  0  0  0  # atno 8009 bound_to 7997
  154.4024  140.1324  156.4171 H   0  0  0  0  0  0  0  0  0  0  0  0  # atno 8010 bound_to 7997
  140.0518  143.5053  152.2078 H   0  0  0  0  0  0  0  0  0  0  0  0  # atno 10167 bound_to 10162
  156.0039  130.4624  150.4053 H   0  0  0  0  0  0  0  0  0  0  0  0  # atno 10718 bound_to 10713
  153.8032  135.6888  153.4852 H   0  0  0  0  0  0  0  0  0  0  0  0  # atno 10763 bound_to 10752
  153.1675  135.4555  154.9856 H   0  0  0  0  0  0  0  0  0  0  0  0  # atno 10764 bound_to 10752
  154.7998  135.3333  154.7519 H   0  0  0  0  0  0  0  0  0  0  0  0  # atno 10765 bound_to 10752
  140.3794  134.1937  155.7664 H   0  0  0  0  0  0  0  0  0  0  0  0  # atno 11005 bound_to 11000
  145.6914  139.1640  143.2645 LP  0  0  0  0  0  0  0  0  0  0  0  0  # atno 17320 bound_to 7965
  146.1480  140.6965  142.9335 LP  0  0  0  0  0  0  0  0  0  0  0  0  # atno 17321 bound_to 7965
  139.5948  144.7563  151.3312 LP  0  0  0  0  0  0  0  0  0  0  0  0  # atno 17342 bound_to 10162
  140.7213  143.7127  150.7757 LP  0  0  0  0  0  0  0  0  0  0  0  0  # atno 17343 bound_to 10162
  157.2119  131.0462  151.2594 LP  0  0  0  0  0  0  0  0  0  0  0  0  # atno 17370 bound_to 10713
  157.3881  130.7267  149.6677 LP  0  0  0  0  0  0  0  0  0  0  0  0  # atno 17371 bound_to 10713
  141.1928  133.8164  157.0823 LP  0  0  0  0  0  0  0  0  0  0  0  0  # atno 17394 bound_to 11000
  140.0490  134.9815  157.1102 LP  0  0  0  0  0  0  0  0  0  0  0  0  # atno 17395 bound_to 11000

$$$$
