AV-unprocessed.smi:1967|AV-procd|sdf|7955|dock9
  -GOLD-   2272010123D 1   1.00000     0.00000
 Structure written by MMmdl.
 36 37  0  0  0  0  0  0  0  0  2 V2000
  151.2146  140.7216  155.4552 O   0  0  0  0  0  0  0  0  0  0  0  0
  151.3197  140.3725  156.8815 S   0  0  0  0  0  0  0  0  0  0  0  0
  150.1017  139.9078  157.5654 O   0  0  0  0  0  0  0  0  0  0  0  0
  152.6300  139.4830  157.2287 N   0  5  0  0  0  0  0  0  0  0  0  0
  152.5151  138.0353  157.2269 C   0  0  0  0  0  0  0  0  0  0  0  0
  151.9638  137.5506  158.5849 C   0  0  0  0  0  0  0  0  0  0  0  0
  152.9337  137.7233  159.7496 C   0  0  0  0  0  0  0  0  0  0  0  0
  153.3883  139.0093  160.1216 C   0  0  0  0  0  0  0  0  0  0  0  0
  154.2784  139.1232  161.2064 C   0  0  0  0  0  0  0  0  0  0  0  0
  154.6771  137.9546  161.8830 C   0  0  0  0  0  0  0  0  0  0  0  0
  154.1641  136.7184  161.4428 C   0  0  0  0  0  0  0  0  0  0  0  0
  153.3100  136.5975  160.4043 N   0  0  0  0  0  0  0  0  0  0  0  0
  151.8229  141.8181  157.7046 N   0  0  0  0  0  0  0  0  0  0  0  0
  151.0818  143.0691  157.4393 C   0  0  0  0  0  0  0  0  0  0  0  0
  151.9119  144.3045  157.8246 C   0  0  0  0  0  0  0  0  0  0  0  0
  152.3904  144.2211  159.2775 C   0  0  0  0  0  0  0  0  0  0  0  0
  153.1797  142.9237  159.4769 C   0  0  0  0  0  0  0  0  0  0  0  0
  152.3430  141.6954  159.0825 C   0  0  0  0  0  0  0  0  0  0  0  0
  151.8582  137.6879  156.4289 H   0  0  0  0  0  0  0  0  0  0  0  0
  153.4804  137.5601  157.0483 H   0  0  0  0  0  0  0  0  0  0  0  0
  151.0431  138.0862  158.8216 H   0  0  0  0  0  0  0  0  0  0  0  0
  151.6884  136.4968  158.5159 H   0  0  0  0  0  0  0  0  0  0  0  0
  153.0658  139.8879  159.5821 H   0  0  0  0  0  0  0  0  0  0  0  0
  154.6487  140.0899  161.5140 H   0  0  0  0  0  0  0  0  0  0  0  0
  155.3587  138.0039  162.7192 H   0  0  0  0  0  0  0  0  0  0  0  0
  154.4463  135.8019  161.9395 H   0  0  0  0  0  0  0  0  0  0  0  0
  150.8164  143.1265  156.3839 H   0  0  0  0  0  0  0  0  0  0  0  0
  150.1460  143.0513  157.9993 H   0  0  0  0  0  0  0  0  0  0  0  0
  152.7722  144.3870  157.1593 H   0  0  0  0  0  0  0  0  0  0  0  0
  151.3203  145.2084  157.6780 H   0  0  0  0  0  0  0  0  0  0  0  0
  153.0122  145.0832  159.5207 H   0  0  0  0  0  0  0  0  0  0  0  0
  151.5349  144.2450  159.9537 H   0  0  0  0  0  0  0  0  0  0  0  0
  154.0898  142.9520  158.8764 H   0  0  0  0  0  0  0  0  0  0  0  0
  153.4980  142.8366  160.5160 H   0  0  0  0  0  0  0  0  0  0  0  0
  151.5034  141.5728  159.7680 H   0  0  0  0  0  0  0  0  0  0  0  0
  152.9548  140.7980  159.1700 H   0  0  0  0  0  0  0  0  0  0  0  0
  1  2  2  0  0  0  0
  2  3  2  0  0  0  0
  2  4  1  0  0  0  0
  2 13  1  0  0  0  0
  4  5  1  0  0  0  0
  5  6  1  0  0  0  0
  5 19  1  0  0  0  0
  5 20  1  0  0  0  0
  6  7  1  0  0  0  0
  6 21  1  0  0  0  0
  6 22  1  0  0  0  0
  7 12  1  0  0  0  0
  7  8  2  0  0  0  0
  8  9  1  0  0  0  0
  8 23  1  0  0  0  0
  9 10  2  0  0  0  0
  9 24  1  0  0  0  0
 10 11  1  0  0  0  0
 10 25  1  0  0  0  0
 11 12  2  0  0  0  0
 11 26  1  0  0  0  0
 13 18  1  0  0  0  0
 13 14  1  0  0  0  0
 14 15  1  0  0  0  0
 14 27  1  0  0  0  0
 14 28  1  0  0  0  0
 15 16  1  0  0  0  0
 15 29  1  0  0  0  0
 15 30  1  0  0  0  0
 16 17  1  0  0  0  0
 16 31  1  0  0  0  0
 16 32  1  0  0  0  0
 17 18  1  0  0  0  0
 17 33  1  0  0  0  0
 17 34  1  0  0  0  0
 18 35  1  0  0  0  0
 18 36  1  0  0  0  0
M  CHG  1   4  -1
M  END
> <s_m_source_file>
AV-unprocessed.smi

> <i_m_source_file_index>
1967

> <i_lp_mmshare_version>
43012

> <i_f3d_flags>
0

> <s_epik_input>
W0NIMl0xW0NIMl1bQ0gyXVtDSDJdW0NIMl1OMVMoPU8pKD1PKVtOSF1bQ0gyXVtDSDJdYzJbY0hdW2NIXVtjSF1bY0hdbjI=

> <s_epik_cmdline>
J2VwaWtfcHl0aG9uJywgJy1waCcsICc3LjAnLCAnLXRuJywgJzgnLCAnLW1hJywgJzIwMCcsICctbWV0YWxfYmluZGluZycsICctaW1hZScsICc8aW5maWxlLm1hZT4nLCAnLW9tYWUnLCAnPG91dGZpbGUubWFlPic=

> <r_epik_Ionization_Penalty>
2.02944

> <r_epik_Ionization_Penalty_Charging>
1.95606

> <r_epik_Ionization_Penalty_Neutral>
0.0733798

> <r_epik_State_Penalty>
2.47711

> <r_epik_Charging_Adjusted_Penalty>
4.43317

> <i_epik_Tot_Q>
-1

> <i_epik_Tot_abs_Q>
1

> <r_epik_Metal_State_Penalty>
0.729901

> <b_epik_Metal_Only>
0

> <s_lp_Force_Field>
OPLS_2005

> <r_lp_Energy>
6.94762

> <b_lp_Chiralities_Consistent>
1

> <s_lp_Variant>
AV-unprocessed.smi:1967-2

> <Gold.Version>
5.8.1

> <Gold.Id.Protein>
6NUR|6NUR_protein|mol2

> <Gold.PLP.Fitness>
44.9183

> <Gold.PLP.PLP>
-34.3527

> <Gold.PLP.part.hbond>
-2.9958

> <Gold.PLP.part.metal>
0.0000

> <Gold.PLP.part.buried>
-3.5663

> <Gold.PLP.part.nonpolar>
-27.6565

> <Gold.PLP.part.repulsive>
0.0344

> <Gold.PLP.ligand.clash>
0.0000

> <Gold.PLP.ligand.torsion>
1.9652

> <Gold.PLP.Chemscore.Hbond>
3.8000

> <Gold.PLP.Chemscore.CHOScore>
0.0000

> <Gold.PLP.Chemscore.Metal>
0.0000

> <Gold.Chemscore.Hbonds>
donor molecule, donor type, donor heavy atom, donor atom, acceptor molecule, acceptor atom, score
      P1  H  6896  6907       L1    12  1.00
      P1  H  7989  7998       L1     1  0.80
      P1  H  7997  8009       L1     4  2.00

> <Gold.PLP.Chemscore.Internal.Correction>
3.0960

> <Gold.Rescore>
     Score         DG    S(hbond)    S(metal)    S(lipo)     H(rot)  DE(clash)    DE(int)     intcor
     20.71     -22.97       2.71        0.00     100.66       1.30       0.28       1.98       ----

> <Gold.Chemscore.Fitness>
20.7115

> <Gold.Chemscore.DG>
-22.9695

> <Gold.Chemscore.ZeroCoef>
-5.4800

> <Gold.Chemscore.Hbond>
2.7066

> <Gold.Chemscore.Metal>
0.0000

> <Gold.Chemscore.Lipo>
100.6558

> <Gold.Chemscore.Internal_Hbond>
0.0000

> <Gold.Chemscore.DEClash>
0.2826

> <Gold.Chemscore.DEInternal>
1.9754

> <Gold.Chemscore.Rot>
1.2997

> <Gold.Chemscore.Internal.Correction>
   9.000000E+99

> <Gold.Chemscore.Hbonds>
donor molecule, donor type, donor heavy atom, donor atom, acceptor molecule, acceptor atom, score
      P1  H  6896  6907       L1    12  0.83
      P1  H  7989  7998       L1     1  0.77
      P1  H  7997  8009       L1     4  0.78

> <Gold.Chemscore.Hbond.Weighted>
-9.0401

> <Gold.Chemscore.Metal.Weighted>
-0.0000

> <Gold.Chemscore.Lipo.Weighted>
-11.7767

> <Gold.Chemscore.Internal_Hbond.Weighted>
0.0000

> <Gold.Chemscore.DEClash.Weighted>
0.2826

> <Gold.Chemscore.DEInternal.Weighted>
1.9754

> <Gold.Chemscore.Rot.Weighted>
3.3273

> <Gold.Chemscore.Internal.Correction.Weighted>
   9.000000E+99

> <Gold.Protein.RotatedTorsions>
[ 6907 6896 6895 6894 ] final   32.60 input  -60.11 | X-H torsion
[ 7974 7965 7964 7962 ] final -153.49 input  175.53 | X-H torsion
[ 8008 7997 7996 7995 ] final -175.43 input   59.86 | X-H torsion
[ 10167 10162 10161 10158 ] final   21.23 input  -65.29 | X-H torsion
[ 10718 10713 10712 10709 ] final   42.30 input   66.30 | X-H torsion
[ 10763 10752 10751 10750 ] final  -11.07 input  -60.55 | X-H torsion
[ 11005 11000 10999 10996 ] final -152.62 input  -57.11 | X-H torsion

> <Gold.Protein.ActiveResidues>
 VAL166  LYS551  ARG553  GLY616  TRP617  ASP618  TYR619  PRO620  LYS621  CYS622 
 ASP623  PHE694  ASN695  SER759  ASP760  ASP761  ALA762  ILE779  LEU786  VAL792 
 PHE793  MET794  SER795  GLU796  ALA797  LYS798  CYS799  TRP800  GLU811  SER814 

> <Gold.Protein.RotatedAtoms>
  152.0767  134.9498  160.0573 H   0  0  0  0  0  0  0  0  0  0  0  0  # atno 6907 bound_to 6896
  152.0803  133.4144  159.4506 H   0  0  0  0  0  0  0  0  0  0  0  0  # atno 6908 bound_to 6896
  150.6836  134.2910  159.4710 H   0  0  0  0  0  0  0  0  0  0  0  0  # atno 6909 bound_to 6896
  144.7738  140.4519  143.5888 H   0  0  0  0  0  0  0  0  0  0  0  0  # atno 7974 bound_to 7965
  155.9825  140.1184  157.0713 H   0  0  0  0  0  0  0  0  0  0  0  0  # atno 8008 bound_to 7997
  154.4187  140.1141  156.5522 H   0  0  0  0  0  0  0  0  0  0  0  0  # atno 8009 bound_to 7997
  155.6452  140.3473  155.4731 H   0  0  0  0  0  0  0  0  0  0  0  0  # atno 8010 bound_to 7997
  140.5442  143.9623  150.6538 H   0  0  0  0  0  0  0  0  0  0  0  0  # atno 10167 bound_to 10162
  157.4033  130.7872  149.7367 H   0  0  0  0  0  0  0  0  0  0  0  0  # atno 10718 bound_to 10713
  153.4784  135.7017  153.5952 H   0  0  0  0  0  0  0  0  0  0  0  0  # atno 10763 bound_to 10752
  153.4176  135.3833  155.2090 H   0  0  0  0  0  0  0  0  0  0  0  0  # atno 10764 bound_to 10752
  154.8722  135.3920  154.4231 H   0  0  0  0  0  0  0  0  0  0  0  0  # atno 10765 bound_to 10752
  140.7169  134.3770  157.5189 H   0  0  0  0  0  0  0  0  0  0  0  0  # atno 11005 bound_to 11000
  145.6245  139.1528  143.3004 LP  0  0  0  0  0  0  0  0  0  0  0  0  # atno 17320 bound_to 7965
  146.1904  140.6353  142.9148 LP  0  0  0  0  0  0  0  0  0  0  0  0  # atno 17321 bound_to 7965
  140.3032  143.3247  152.0951 LP  0  0  0  0  0  0  0  0  0  0  0  0  # atno 17342 bound_to 10162
  139.5001  144.6684  151.6302 LP  0  0  0  0  0  0  0  0  0  0  0  0  # atno 17343 bound_to 10162
  155.9829  130.4005  150.3390 LP  0  0  0  0  0  0  0  0  0  0  0  0  # atno 17370 bound_to 10713
  157.1520  131.0323  151.2880 LP  0  0  0  0  0  0  0  0  0  0  0  0  # atno 17371 bound_to 10713
  139.8857  134.8928  156.2624 LP  0  0  0  0  0  0  0  0  0  0  0  0  # atno 17394 bound_to 11000
  141.0037  133.7136  156.1000 LP  0  0  0  0  0  0  0  0  0  0  0  0  # atno 17395 bound_to 11000

$$$$
