AV-unprocessed.smi:1629|AV-procd|sdf|6523|dock1
  -GOLD-   22720 7203D 1   1.00000     0.00000
 Structure written by MMmdl.
 43 44  0  0  0  0  0  0  0  0  2 V2000
  152.5188  132.2836  158.7764 C   0  0  0  0  0  0  0  0  0  0  0  0
  153.6944  133.6919  158.8663 S   0  0  0  0  0  0  0  0  0  0  0  0
  154.9832  133.1685  158.3852 O   0  0  0  0  0  0  0  0  0  0  0  0
  153.0774  134.7786  158.0889 O   0  0  0  0  0  0  0  0  0  0  0  0
  153.6901  133.9813  160.4622 N   0  5  0  0  0  0  0  0  0  0  0  0
  154.5695  134.9998  161.0181 C   0  0  0  0  0  0  0  0  0  0  0  0
  153.7568  136.1032  161.7482 C   0  0  0  0  0  0  0  0  0  0  0  0
  154.6165  137.3339  162.1483 C   0  0  0  0  0  0  0  0  0  0  0  0
  155.2879  137.9150  160.9639 N   0  0  0  0  0  0  0  0  0  0  0  0
  155.0476  139.1253  160.4004 C   0  0  0  0  0  0  0  0  0  0  0  0
  155.4534  139.4455  159.2825 O   0  0  0  0  0  0  0  0  0  0  0  0
  154.3197  139.9582  161.1593 N   0  0  0  0  0  0  0  0  0  0  0  0
  153.9321  141.3134  160.7885 C   0  0  0  0  0  0  0  0  0  0  0  0
  152.7277  141.3089  159.8315 C   0  0  0  0  0  0  0  0  0  0  0  0
  152.3165  142.6981  159.3731 C   0  0  0  0  0  0  0  0  0  0  0  0
  152.5182  143.8215  160.2041 C   0  0  0  0  0  0  0  0  0  0  0  0
  152.1343  145.0885  159.7242 C   0  0  0  0  0  0  0  0  0  0  0  0
  151.5653  145.1831  158.4395 C   0  0  0  0  0  0  0  0  0  0  0  0
  151.4064  144.0018  157.6880 C   0  0  0  0  0  0  0  0  0  0  0  0
  151.7732  142.7823  158.1380 N   0  0  0  0  0  0  0  0  0  0  0  0
  156.1894  136.9177  160.3579 C   0  0  0  0  0  0  0  0  0  0  0  0
  155.3934  135.6685  159.8865 C   0  0  0  0  0  0  0  0  0  0  0  0
  152.4126  131.9684  157.7390 H   0  0  0  0  0  0  0  0  0  0  0  0
  151.5488  132.5943  159.1631 H   0  0  0  0  0  0  0  0  0  0  0  0
  152.8998  131.4539  159.3713 H   0  0  0  0  0  0  0  0  0  0  0  0
  155.2782  134.5736  161.7294 H   0  0  0  0  0  0  0  0  0  0  0  0
  152.9415  136.4433  161.1074 H   0  0  0  0  0  0  0  0  0  0  0  0
  153.2882  135.6893  162.6412 H   0  0  0  0  0  0  0  0  0  0  0  0
  153.9855  138.0443  162.6818 H   0  0  0  0  0  0  0  0  0  0  0  0
  155.3788  137.0474  162.8760 H   0  0  0  0  0  0  0  0  0  0  0  0
  154.0182  139.6284  162.0648 H   0  0  0  0  0  0  0  0  0  0  0  0
  153.6829  141.8644  161.6964 H   0  0  0  0  0  0  0  0  0  0  0  0
  154.7720  141.8297  160.3213 H   0  0  0  0  0  0  0  0  0  0  0  0
  152.9560  140.6984  158.9570 H   0  0  0  0  0  0  0  0  0  0  0  0
  151.8770  140.8302  160.3183 H   0  0  0  0  0  0  0  0  0  0  0  0
  152.9623  143.7174  161.1835 H   0  0  0  0  0  0  0  0  0  0  0  0
  152.2750  145.9715  160.3300 H   0  0  0  0  0  0  0  0  0  0  0  0
  151.2586  146.1379  158.0390 H   0  0  0  0  0  0  0  0  0  0  0  0
  150.9744  144.0374  156.6989 H   0  0  0  0  0  0  0  0  0  0  0  0
  156.7411  137.3250  159.5097 H   0  0  0  0  0  0  0  0  0  0  0  0
  156.9535  136.6388  161.0863 H   0  0  0  0  0  0  0  0  0  0  0  0
  156.0809  134.9406  159.4541 H   0  0  0  0  0  0  0  0  0  0  0  0
  154.7260  135.9718  159.0780 H   0  0  0  0  0  0  0  0  0  0  0  0
  1  2  1  0  0  0  0
  1 23  1  0  0  0  0
  1 24  1  0  0  0  0
  1 25  1  0  0  0  0
  2  3  2  0  0  0  0
  2  4  2  0  0  0  0
  2  5  1  0  0  0  0
  5  6  1  0  0  0  0
  6 22  1  0  0  0  0
  6  7  1  0  0  0  0
  6 26  1  0  0  0  0
  7  8  1  0  0  0  0
  7 27  1  0  0  0  0
  7 28  1  0  0  0  0
  8  9  1  0  0  0  0
  8 29  1  0  0  0  0
  8 30  1  0  0  0  0
  9 10  1  0  0  0  0
  9 21  1  0  0  0  0
 10 11  2  0  0  0  0
 10 12  1  0  0  0  0
 12 13  1  0  0  0  0
 12 31  1  0  0  0  0
 13 14  1  0  0  0  0
 13 32  1  0  0  0  0
 13 33  1  0  0  0  0
 14 15  1  0  0  0  0
 14 34  1  0  0  0  0
 14 35  1  0  0  0  0
 15 20  1  0  0  0  0
 15 16  2  0  0  0  0
 16 17  1  0  0  0  0
 16 36  1  0  0  0  0
 17 18  2  0  0  0  0
 17 37  1  0  0  0  0
 18 19  1  0  0  0  0
 18 38  1  0  0  0  0
 19 20  2  0  0  0  0
 19 39  1  0  0  0  0
 21 22  1  0  0  0  0
 21 40  1  0  0  0  0
 21 41  1  0  0  0  0
 22 42  1  0  0  0  0
 22 43  1  0  0  0  0
M  CHG  1   5  -1
M  END
> <s_m_source_file>
AV-unprocessed.smi

> <i_m_source_file_index>
1629

> <i_lp_mmshare_version>
43012

> <i_f3d_flags>
0

> <s_epik_input>
W0NIM11TKD1PKSg9TylbTkhdW0NIXTFbQ0gyXVtDSDJdTihbQ0gyXVtDSDJdMSlDKD1PKVtOSF1bQ0gyXVtDSDJdYzJbY0hdW2NIXVtjSF1bY0hdbjI=

> <s_epik_cmdline>
J2VwaWtfcHl0aG9uJywgJy1waCcsICc3LjAnLCAnLXRuJywgJzgnLCAnLW1hJywgJzIwMCcsICctbWV0YWxfYmluZGluZycsICctaW1hZScsICc8aW5maWxlLm1hZT4nLCAnLW9tYWUnLCAnPG91dGZpbGUubWFlPic=

> <r_epik_Ionization_Penalty>
6.75298

> <r_epik_Ionization_Penalty_Charging>
6.70803

> <r_epik_Ionization_Penalty_Neutral>
0.0449518

> <r_epik_State_Penalty>
6.74601

> <r_epik_Charging_Adjusted_Penalty>
13.454

> <i_epik_Tot_Q>
-1

> <i_epik_Tot_abs_Q>
1

> <r_epik_Metal_State_Penalty>
2.70902

> <b_epik_Metal_Only>
1

> <s_lp_Force_Field>
OPLS_2005

> <r_lp_Energy>
26.8071

> <b_lp_Chiralities_Consistent>
1

> <s_lp_Variant>
AV-unprocessed.smi:1629-3

> <Gold.Version>
5.8.1

> <Gold.Id.Protein>
6NUR|6NUR_protein|mol2

> <Gold.PLP.Fitness>
51.8407

> <Gold.PLP.PLP>
-38.2070

> <Gold.PLP.part.hbond>
-3.0000

> <Gold.PLP.part.metal>
0.0000

> <Gold.PLP.part.buried>
-4.9285

> <Gold.PLP.part.nonpolar>
-30.0154

> <Gold.PLP.part.repulsive>
0.0572

> <Gold.PLP.ligand.clash>
0.0000

> <Gold.PLP.ligand.torsion>
1.2089

> <Gold.PLP.Chemscore.Hbond>
4.0000

> <Gold.PLP.Chemscore.CHOScore>
1.0000

> <Gold.PLP.Chemscore.Metal>
0.0000

> <Gold.Chemscore.Hbonds>
donor molecule, donor type, donor heavy atom, donor atom, acceptor molecule, acceptor atom, score
      P1  H  7997  8008       L1    11  1.00
      L1  C    19    39       P1  8028  1.00

> <Gold.PLP.Chemscore.Internal.Correction>
1.0516

> <Gold.Rescore>
     Score         DG    S(hbond)    S(metal)    S(lipo)     H(rot)  DE(clash)    DE(int)     intcor
     19.90     -22.45       2.80        0.00     101.90       1.68       0.10       2.45       ----

> <Gold.Chemscore.Fitness>
19.8999

> <Gold.Chemscore.DG>
-22.4454

> <Gold.Chemscore.ZeroCoef>
-5.4800

> <Gold.Chemscore.Hbond>
2.7988

> <Gold.Chemscore.Metal>
0.0000

> <Gold.Chemscore.Lipo>
101.8955

> <Gold.Chemscore.Internal_Hbond>
0.0000

> <Gold.Chemscore.DEClash>
0.0998

> <Gold.Chemscore.DEInternal>
2.4457

> <Gold.Chemscore.Rot>
1.6813

> <Gold.Chemscore.Internal.Correction>
   9.000000E+99

> <Gold.Chemscore.Hbonds>
donor molecule, donor type, donor heavy atom, donor atom, acceptor molecule, acceptor atom, score
      P1  H  7997  8008       L1    11  0.94

> <Gold.Chemscore.Hbond.Weighted>
-9.3479

> <Gold.Chemscore.Metal.Weighted>
-0.0000

> <Gold.Chemscore.Lipo.Weighted>
-11.9218

> <Gold.Chemscore.Internal_Hbond.Weighted>
0.0000

> <Gold.Chemscore.DEClash.Weighted>
0.0998

> <Gold.Chemscore.DEInternal.Weighted>
2.4457

> <Gold.Chemscore.Rot.Weighted>
4.3042

> <Gold.Chemscore.Internal.Correction.Weighted>
   9.000000E+99

> <Gold.Protein.RotatedTorsions>
[ 6907 6896 6895 6894 ] final -147.85 input  -60.11 | X-H torsion
[ 7974 7965 7964 7962 ] final  -60.19 input  175.53 | X-H torsion
[ 8008 7997 7996 7995 ] final -144.34 input   59.86 | X-H torsion
[ 10167 10162 10161 10158 ] final  119.48 input  -65.29 | X-H torsion
[ 10718 10713 10712 10709 ] final -149.55 input   66.30 | X-H torsion
[ 10763 10752 10751 10750 ] final   30.76 input  -60.55 | X-H torsion
[ 11005 11000 10999 10996 ] final  164.17 input  -57.11 | X-H torsion

> <Gold.Protein.ActiveResidues>
 VAL166  LYS551  ARG553  GLY616  TRP617  ASP618  TYR619  PRO620  LYS621  CYS622 
 ASP623  PHE694  ASN695  SER759  ASP760  ASP761  ALA762  ILE779  LEU786  VAL792 
 PHE793  MET794  SER795  GLU796  ALA797  LYS798  CYS799  TRP800  GLU811  SER814 

> <Gold.Protein.RotatedAtoms>
  151.1615  133.4842  159.2594 H   0  0  0  0  0  0  0  0  0  0  0  0  # atno 6907 bound_to 6896
  151.1449  135.0198  159.8652 H   0  0  0  0  0  0  0  0  0  0  0  0  # atno 6908 bound_to 6896
  152.5463  134.1505  159.8570 H   0  0  0  0  0  0  0  0  0  0  0  0  # atno 6909 bound_to 6896
  145.8185  140.8555  143.0145 H   0  0  0  0  0  0  0  0  0  0  0  0  # atno 7974 bound_to 7965
  155.5253  140.0595  157.2899 H   0  0  0  0  0  0  0  0  0  0  0  0  # atno 8008 bound_to 7997
  154.4503  140.1945  156.0484 H   0  0  0  0  0  0  0  0  0  0  0  0  # atno 8009 bound_to 7997
  156.0690  140.3262  155.7557 H   0  0  0  0  0  0  0  0  0  0  0  0  # atno 8010 bound_to 7997
  139.6044  144.7066  151.2988 H   0  0  0  0  0  0  0  0  0  0  0  0  # atno 10167 bound_to 10162
  156.4346  130.8092  151.2320 H   0  0  0  0  0  0  0  0  0  0  0  0  # atno 10718 bound_to 10713
  153.0353  135.6456  154.1095 H   0  0  0  0  0  0  0  0  0  0  0  0  # atno 10763 bound_to 10752
  154.0811  135.2873  155.3292 H   0  0  0  0  0  0  0  0  0  0  0  0  # atno 10764 bound_to 10752
  154.6529  135.5419  153.7988 H   0  0  0  0  0  0  0  0  0  0  0  0  # atno 10765 bound_to 10752
  140.2432  134.8035  157.3430 H   0  0  0  0  0  0  0  0  0  0  0  0  # atno 11005 bound_to 11000
  144.6750  140.0498  143.7479 LP  0  0  0  0  0  0  0  0  0  0  0  0  # atno 17320 bound_to 7965
  145.9701  139.2863  143.1104 LP  0  0  0  0  0  0  0  0  0  0  0  0  # atno 17321 bound_to 7965
  140.7273  143.6965  150.7879 LP  0  0  0  0  0  0  0  0  0  0  0  0  # atno 17342 bound_to 10162
  140.0548  143.5213  152.2656 LP  0  0  0  0  0  0  0  0  0  0  0  0  # atno 17343 bound_to 10162
  157.7507  131.0187  150.3639 LP  0  0  0  0  0  0  0  0  0  0  0  0  # atno 17370 bound_to 10713
  156.3983  130.3911  149.6978 LP  0  0  0  0  0  0  0  0  0  0  0  0  # atno 17371 bound_to 10713
  140.1632  134.4702  155.7880 LP  0  0  0  0  0  0  0  0  0  0  0  0  # atno 17394 bound_to 11000
  141.2208  133.6910  156.7581 LP  0  0  0  0  0  0  0  0  0  0  0  0  # atno 17395 bound_to 11000

$$$$
