AV-unprocessed.smi:1549|AV-procd|sdf|6222|dock5
  -GOLD-   22720 6393D 1   1.00000     0.00000
 Structure written by MMmdl.
 41 42  0  0  0  0  0  0  0  0  1 V2000
  150.6289  138.7892  154.3106 C   0  0  0  0  0  0  0  0  0  0  0  0
  151.0770  137.5802  155.1354 C   0  0  0  0  0  0  0  0  0  0  0  0
  150.2769  136.4585  154.7740 O   0  0  0  0  0  0  0  0  0  0  0  0
  150.5508  135.2335  155.3522 C   0  0  0  0  0  0  0  0  0  0  0  0
  151.5233  135.1674  156.2962 N   0  0  0  0  0  0  0  0  0  0  0  0
  151.7946  133.9711  156.8569 C   0  0  0  0  0  0  0  0  0  0  0  0
  151.1223  132.7859  156.5065 C   0  0  0  0  0  0  0  0  0  0  0  0
  150.1124  132.8522  155.5288 C   0  0  0  0  0  0  0  0  0  0  0  0
  149.8067  134.1035  154.9406 C   0  0  0  0  0  0  0  0  0  0  0  0
  148.8258  134.2774  153.9256 N   0  0  0  0  0  0  0  0  0  0  0  0
  147.7828  133.4859  153.6239 C   0  0  0  0  0  0  0  0  0  0  0  0
  147.4614  132.4700  154.2401 O   0  0  0  0  0  0  0  0  0  0  0  0
  147.1104  133.9596  152.5649 N   0  0  0  0  0  0  0  0  0  0  0  0
  145.9151  133.3647  151.9722 C   0  0  2  0  0  0  0  0  0  0  0  0
  146.3227  132.3798  150.8596 C   0  0  0  0  0  0  0  0  0  0  0  0
  145.0927  131.7969  150.1448 C   0  0  0  0  0  0  0  0  0  0  0  0
  144.1945  132.9152  149.5895 C   0  0  1  0  0  0  0  0  0  0  0  0
  143.0457  132.3485  148.9955 O   0  0  0  0  0  0  0  0  0  0  0  0
  143.7718  133.8881  150.7035 C   0  0  0  0  0  0  0  0  0  0  0  0
  144.9983  134.4743  151.4213 C   0  0  0  0  0  0  0  0  0  0  0  0
  151.2240  139.6694  154.5549 H   0  0  0  0  0  0  0  0  0  0  0  0
  149.5828  139.0283  154.5031 H   0  0  0  0  0  0  0  0  0  0  0  0
  150.7383  138.5970  153.2430 H   0  0  0  0  0  0  0  0  0  0  0  0
  152.1303  137.3734  154.9397 H   0  0  0  0  0  0  0  0  0  0  0  0
  150.9666  137.8020  156.1979 H   0  0  0  0  0  0  0  0  0  0  0  0
  152.5758  133.9568  157.6025 H   0  0  0  0  0  0  0  0  0  0  0  0
  151.3793  131.8463  156.9727 H   0  0  0  0  0  0  0  0  0  0  0  0
  149.6072  131.9439  155.2399 H   0  0  0  0  0  0  0  0  0  0  0  0
  148.9024  135.1338  153.3963 H   0  0  0  0  0  0  0  0  0  0  0  0
  147.4523  134.8055  152.1327 H   0  0  0  0  0  0  0  0  0  0  0  0
  145.3573  132.8053  152.7255 H   0  0  0  0  0  0  0  0  0  0  0  0
  146.9566  132.8856  150.1299 H   0  0  0  0  0  0  0  0  0  0  0  0
  146.9206  131.5700  151.2793 H   0  0  0  0  0  0  0  0  0  0  0  0
  145.4138  131.1374  149.3378 H   0  0  0  0  0  0  0  0  0  0  0  0
  144.5274  131.1791  150.8443 H   0  0  0  0  0  0  0  0  0  0  0  0
  144.7354  133.4629  148.8168 H   0  0  0  0  0  0  0  0  0  0  0  0
  142.3611  132.9998  148.9820 H   0  0  0  0  0  0  0  0  0  0  0  0
  143.1676  134.6951  150.2876 H   0  0  0  0  0  0  0  0  0  0  0  0
  143.1419  133.3712  151.4291 H   0  0  0  0  0  0  0  0  0  0  0  0
  144.6718  135.1258  152.2327 H   0  0  0  0  0  0  0  0  0  0  0  0
  145.5553  135.1034  150.7254 H   0  0  0  0  0  0  0  0  0  0  0  0
  1  2  1  0  0  0  0
  1 21  1  0  0  0  0
  1 22  1  0  0  0  0
  1 23  1  0  0  0  0
  2  3  1  0  0  0  0
  2 24  1  0  0  0  0
  2 25  1  0  0  0  0
  3  4  1  0  0  0  0
  4  9  1  0  0  0  0
  4  5  2  0  0  0  0
  5  6  1  0  0  0  0
  6  7  2  0  0  0  0
  6 26  1  0  0  0  0
  7  8  1  0  0  0  0
  7 27  1  0  0  0  0
  8  9  2  0  0  0  0
  8 28  1  0  0  0  0
  9 10  1  0  0  0  0
 10 11  1  0  0  0  0
 10 29  1  0  0  0  0
 11 12  2  0  0  0  0
 11 13  1  0  0  0  0
 13 14  1  0  0  0  0
 13 30  1  0  0  0  0
 14 20  1  0  0  0  0
 14 15  1  0  0  0  0
 14 31  1  0  0  0  0
 15 16  1  0  0  0  0
 15 32  1  0  0  0  0
 15 33  1  0  0  0  0
 16 17  1  0  0  0  0
 16 34  1  0  0  0  0
 16 35  1  0  0  0  0
 17 18  1  0  0  0  0
 17 19  1  0  0  0  0
 17 36  1  0  0  0  0
 18 37  1  0  0  0  0
 19 20  1  0  0  0  0
 19 38  1  0  0  0  0
 19 39  1  0  0  0  0
 20 40  1  0  0  0  0
 20 41  1  0  0  0  0
M  END
> <s_m_source_file>
AV-unprocessed.smi

> <i_m_source_file_index>
1549

> <i_lp_mmshare_version>
43012

> <i_f3d_flags>
0

> <s_epik_input>
W0NIM11bQ0gyXU9jMW5bY0hdW2NIXVtjSF1jMVtOSF1DKD1PKVtOSF1bQ0BASF0yW0NIMl1bQ0gyXVtDQEBIXShbT0hdKVtDSDJdW0NIMl0y

> <s_epik_cmdline>
J2VwaWtfcHl0aG9uJywgJy1waCcsICc3LjAnLCAnLXRuJywgJzgnLCAnLW1hJywgJzIwMCcsICctbWV0YWxfYmluZGluZycsICctaW1hZScsICc8aW5maWxlLm1hZT4nLCAnLW9tYWUnLCAnPG91dGZpbGUubWFlPic=

> <r_lp_tautomer_probability>
1

> <r_epik_Ionization_Penalty>
0.000120387

> <r_epik_Ionization_Penalty_Charging>
0

> <r_epik_Ionization_Penalty_Neutral>
0.000120387

> <r_epik_State_Penalty>
-0

> <r_epik_Charging_Adjusted_Penalty>
0

> <i_epik_Tot_Q>
0

> <i_epik_Tot_abs_Q>
0

> <r_epik_Metal_State_Penalty>
-0

> <b_epik_Metal_Only>
0

> <s_lp_Force_Field>
OPLS_2005

> <r_lp_Energy>
10.7929

> <b_lp_Chiralities_Consistent>
1

> <s_lp_Variant>
AV-unprocessed.smi:1549-1

> <Gold.Version>
5.8.1

> <Gold.Id.Protein>
6NUR|6NUR_protein|mol2

> <Gold.PLP.Fitness>
47.7450

> <Gold.PLP.PLP>
-35.0072

> <Gold.PLP.part.hbond>
-5.6131

> <Gold.PLP.part.metal>
0.0000

> <Gold.PLP.part.buried>
-2.8023

> <Gold.PLP.part.nonpolar>
-27.2765

> <Gold.PLP.part.repulsive>
0.2570

> <Gold.PLP.ligand.clash>
0.0000

> <Gold.PLP.ligand.torsion>
0.4769

> <Gold.PLP.Chemscore.Hbond>
4.5600

> <Gold.PLP.Chemscore.CHOScore>
0.0000

> <Gold.PLP.Chemscore.Metal>
0.0000

> <Gold.Chemscore.Hbonds>
donor molecule, donor type, donor heavy atom, donor atom, acceptor molecule, acceptor atom, score
      L1  H    10    29       P1  7948  1.00
      L1  H    13    30       P1  7948  0.96
      L1  H    18    37       P1 10186  0.99
      P1  H 10752 10763       L1     5  0.91
      P1  H 10785 10796       L1    18  0.52

> <Gold.PLP.Chemscore.Internal.Correction>
0.0116

> <Gold.Rescore>
     Score         DG    S(hbond)    S(metal)    S(lipo)     H(rot)  DE(clash)    DE(int)     intcor
     17.60     -19.83       2.90        0.00      82.13       1.93       0.64       1.59       ----

> <Gold.Chemscore.Fitness>
17.6047

> <Gold.Chemscore.DG>
-19.8326

> <Gold.Chemscore.ZeroCoef>
-5.4800

> <Gold.Chemscore.Hbond>
2.9006

> <Gold.Chemscore.Metal>
0.0000

> <Gold.Chemscore.Lipo>
82.1348

> <Gold.Chemscore.Internal_Hbond>
0.0000

> <Gold.Chemscore.DEClash>
0.6400

> <Gold.Chemscore.DEInternal>
1.5879

> <Gold.Chemscore.Rot>
1.9318

> <Gold.Chemscore.Internal.Correction>
   9.000000E+99

> <Gold.Chemscore.Hbonds>
donor molecule, donor type, donor heavy atom, donor atom, acceptor molecule, acceptor atom, score
      L1  H    10    29       P1  7948  0.49
      L1  H    13    30       P1  7948  0.77
      L1  H    18    37       P1 10186  0.92
      P1  H 10752 10763       L1     5  0.07
      P1  H 10785 10796       L1    18  0.43

> <Gold.Chemscore.Hbond.Weighted>
-9.6882

> <Gold.Chemscore.Metal.Weighted>
-0.0000

> <Gold.Chemscore.Lipo.Weighted>
-9.6098

> <Gold.Chemscore.Internal_Hbond.Weighted>
0.0000

> <Gold.Chemscore.DEClash.Weighted>
0.6400

> <Gold.Chemscore.DEInternal.Weighted>
1.5879

> <Gold.Chemscore.Rot.Weighted>
4.9454

> <Gold.Chemscore.Internal.Correction.Weighted>
   9.000000E+99

> <Gold.Protein.RotatedTorsions>
[ 6907 6896 6895 6894 ] final  -39.66 input  -60.11 | X-H torsion
[ 7974 7965 7964 7962 ] final -166.26 input  175.53 | X-H torsion
[ 8008 7997 7996 7995 ] final  175.56 input   59.86 | X-H torsion
[ 10167 10162 10161 10158 ] final   95.09 input  -65.29 | X-H torsion
[ 10718 10713 10712 10709 ] final  -12.84 input   66.30 | X-H torsion
[ 10763 10752 10751 10750 ] final   98.21 input  -60.55 | X-H torsion
[ 11005 11000 10999 10996 ] final  -87.56 input  -57.11 | X-H torsion

> <Gold.Protein.ActiveResidues>
 VAL166  LYS551  ARG553  GLY616  TRP617  ASP618  TYR619  PRO620  LYS621  CYS622 
 ASP623  PHE694  ASN695  SER759  ASP760  ASP761  ALA762  ILE779  LEU786  VAL792 
 PHE793  MET794  SER795  GLU796  ALA797  LYS798  CYS799  TRP800  GLU811  SER814 

> <Gold.Protein.RotatedAtoms>
  150.9876  134.9218  159.7880 H   0  0  0  0  0  0  0  0  0  0  0  0  # atno 6907 bound_to 6896
  152.5241  134.3325  159.9198 H   0  0  0  0  0  0  0  0  0  0  0  0  # atno 6908 bound_to 6896
  151.3331  133.3951  159.2699 H   0  0  0  0  0  0  0  0  0  0  0  0  # atno 6909 bound_to 6896
  144.7249  140.2692  143.6253 H   0  0  0  0  0  0  0  0  0  0  0  0  # atno 7974 bound_to 7965
  156.0857  140.1406  156.9656 H   0  0  0  0  0  0  0  0  0  0  0  0  # atno 8008 bound_to 7997
  154.4611  140.0943  156.6944 H   0  0  0  0  0  0  0  0  0  0  0  0  # atno 8009 bound_to 7997
  155.5002  140.3450  155.4372 H   0  0  0  0  0  0  0  0  0  0  0  0  # atno 8010 bound_to 7997
  139.8021  144.6809  150.9751 H   0  0  0  0  0  0  0  0  0  0  0  0  # atno 10167 bound_to 10162
  156.6388  130.4922  149.6102 H   0  0  0  0  0  0  0  0  0  0  0  0  # atno 10718 bound_to 10713
  153.2863  135.4156  155.1126 H   0  0  0  0  0  0  0  0  0  0  0  0  # atno 10763 bound_to 10752
  154.8506  135.3507  154.6042 H   0  0  0  0  0  0  0  0  0  0  0  0  # atno 10764 bound_to 10752
  153.6464  135.7054  153.5282 H   0  0  0  0  0  0  0  0  0  0  0  0  # atno 10765 bound_to 10752
  141.1615  133.7518  156.9324 H   0  0  0  0  0  0  0  0  0  0  0  0  # atno 11005 bound_to 11000
  145.8059  139.1983  143.2021 LP  0  0  0  0  0  0  0  0  0  0  0  0  # atno 17320 bound_to 7965
  146.0637  140.7944  142.9722 LP  0  0  0  0  0  0  0  0  0  0  0  0  # atno 17321 bound_to 7965
  140.7820  143.4271  151.0752 LP  0  0  0  0  0  0  0  0  0  0  0  0  # atno 17342 bound_to 10162
  139.7942  143.8175  152.3155 LP  0  0  0  0  0  0  0  0  0  0  0  0  # atno 17343 bound_to 10162
  156.2175  130.6717  151.1334 LP  0  0  0  0  0  0  0  0  0  0  0  0  # atno 17370 bound_to 10713
  157.7177  131.0700  150.6261 LP  0  0  0  0  0  0  0  0  0  0  0  0  # atno 17371 bound_to 10713
  140.1377  134.9314  157.2424 LP  0  0  0  0  0  0  0  0  0  0  0  0  # atno 17394 bound_to 11000
  140.2875  134.3279  155.7325 LP  0  0  0  0  0  0  0  0  0  0  0  0  # atno 17395 bound_to 11000

$$$$
