AV-unprocessed.smi:1762|AV-procd|sdf|7105|dock10
  -GOLD-   22720 8323D 1   1.00000     0.00000
 Structure written by MMmdl.
 53 54  0  0  0  0  0  0  0  0  2 V2000
  149.4822  137.1227  159.2655 C   0  0  0  0  0  0  0  0  0  0  0  0
  148.4044  136.2792  159.9557 C   0  0  2  0  0  0  0  0  0  0  0  0
  147.3788  135.7123  158.9566 C   0  0  0  0  0  0  0  0  0  0  0  0
  146.2955  134.9729  159.6138 N   0  0  0  0  0  0  0  0  0  0  0  0
  145.3388  134.3599  158.6496 C   0  0  2  0  0  0  0  0  0  0  0  0
  144.7722  135.3745  157.6282 C   0  0  0  0  0  0  0  0  0  0  0  0
  144.2493  136.4213  158.0128 O   0  0  0  0  0  0  0  0  0  0  0  0
  144.9091  135.0634  156.3292 N   0  0  0  0  0  0  0  0  0  0  0  0
  144.4649  135.8998  155.2212 C   0  0  0  0  0  0  0  0  0  0  0  0
  143.3011  135.2488  154.4547 C   0  0  0  0  0  0  0  0  0  0  0  0
  143.6897  134.8614  153.0415 C   0  0  0  0  0  0  0  0  0  0  0  0
  144.2521  135.7896  152.1385 C   0  0  0  0  0  0  0  0  0  0  0  0
  144.5872  135.3666  150.8353 C   0  0  0  0  0  0  0  0  0  0  0  0
  144.3523  134.0266  150.4630 C   0  0  0  0  0  0  0  0  0  0  0  0
  143.7863  133.1425  151.4042 C   0  0  0  0  0  0  0  0  0  0  0  0
  143.4786  133.5858  152.6432 N   0  3  0  0  0  0  0  0  0  0  0  0
  144.1828  133.5272  159.3002 C   0  0  0  0  0  0  0  0  0  0  0  0
  144.6620  132.5717  160.4121 C   0  0  0  0  0  0  0  0  0  0  0  0
  143.3106  132.7678  158.2811 C   0  0  0  0  0  0  0  0  0  0  0  0
  145.6680  135.8566  160.6132 C   0  0  0  0  0  0  0  0  0  0  0  0
  146.6736  136.4732  161.6061 C   0  0  1  0  0  0  0  0  0  0  0  0
  147.1899  135.4698  162.6523 C   0  0  0  0  0  0  0  0  0  0  0  0
  147.7403  137.1068  160.9041 O   0  0  0  0  0  0  0  0  0  0  0  0
  150.0408  136.5297  158.5410 H   0  0  0  0  0  0  0  0  0  0  0  0
  150.1941  137.5146  159.9923 H   0  0  0  0  0  0  0  0  0  0  0  0
  149.0436  137.9705  158.7385 H   0  0  0  0  0  0  0  0  0  0  0  0
  148.8987  135.4570  160.4742 H   0  0  0  0  0  0  0  0  0  0  0  0
  146.9632  136.5222  158.3543 H   0  0  0  0  0  0  0  0  0  0  0  0
  147.9310  135.0675  158.2763 H   0  0  0  0  0  0  0  0  0  0  0  0
  145.9141  133.6441  158.0582 H   0  0  0  0  0  0  0  0  0  0  0  0
  145.3531  134.1869  156.0956 H   0  0  0  0  0  0  0  0  0  0  0  0
  144.1539  136.8631  155.6266 H   0  0  0  0  0  0  0  0  0  0  0  0
  145.3016  136.1007  154.5496 H   0  0  0  0  0  0  0  0  0  0  0  0
  142.9536  134.3573  154.9790 H   0  0  0  0  0  0  0  0  0  0  0  0
  142.4504  135.9306  154.4152 H   0  0  0  0  0  0  0  0  0  0  0  0
  144.4245  136.8134  152.4390 H   0  0  0  0  0  0  0  0  0  0  0  0
  145.0195  136.0614  150.1298 H   0  0  0  0  0  0  0  0  0  0  0  0
  144.6031  133.6825  149.4700 H   0  0  0  0  0  0  0  0  0  0  0  0
  143.5729  132.1023  151.2053 H   0  0  0  0  0  0  0  0  0  0  0  0
  143.5268  134.2226  159.8213 H   0  0  0  0  0  0  0  0  0  0  0  0
  145.2463  131.7405  160.0163 H   0  0  0  0  0  0  0  0  0  0  0  0
  143.8139  132.1421  160.9461 H   0  0  0  0  0  0  0  0  0  0  0  0
  145.2765  133.0958  161.1446 H   0  0  0  0  0  0  0  0  0  0  0  0
  143.8676  131.9804  157.7741 H   0  0  0  0  0  0  0  0  0  0  0  0
  142.9097  133.4360  157.5190 H   0  0  0  0  0  0  0  0  0  0  0  0
  142.4606  132.2962  158.7747 H   0  0  0  0  0  0  0  0  0  0  0  0
  145.1417  136.6632  160.0995 H   0  0  0  0  0  0  0  0  0  0  0  0
  144.9184  135.3326  161.2051 H   0  0  0  0  0  0  0  0  0  0  0  0
  146.1606  137.2644  162.1538 H   0  0  0  0  0  0  0  0  0  0  0  0
  146.3723  135.1021  163.2729 H   0  0  0  0  0  0  0  0  0  0  0  0
  147.9204  135.9379  163.3122 H   0  0  0  0  0  0  0  0  0  0  0  0
  147.6616  134.6022  162.1915 H   0  0  0  0  0  0  0  0  0  0  0  0
  143.0699  132.9285  153.3081 H   0  0  0  0  0  0  0  0  0  0  0  0
  1  2  1  0  0  0  0
  1 24  1  0  0  0  0
  1 25  1  0  0  0  0
  1 26  1  0  0  0  0
  2 23  1  0  0  0  0
  2  3  1  0  0  0  0
  2 27  1  0  0  0  0
  3  4  1  0  0  0  0
  3 28  1  0  0  0  0
  3 29  1  0  0  0  0
  4  5  1  0  0  0  0
  4 20  1  0  0  0  0
  5  6  1  0  0  0  0
  5 17  1  0  0  0  0
  5 30  1  0  0  0  0
  6  7  2  0  0  0  0
  6  8  1  0  0  0  0
  8  9  1  0  0  0  0
  8 31  1  0  0  0  0
  9 10  1  0  0  0  0
  9 32  1  0  0  0  0
  9 33  1  0  0  0  0
 10 11  1  0  0  0  0
 10 34  1  0  0  0  0
 10 35  1  0  0  0  0
 11 16  1  0  0  0  0
 11 12  2  0  0  0  0
 12 13  1  0  0  0  0
 12 36  1  0  0  0  0
 13 14  2  0  0  0  0
 13 37  1  0  0  0  0
 14 15  1  0  0  0  0
 14 38  1  0  0  0  0
 15 16  2  0  0  0  0
 15 39  1  0  0  0  0
 16 53  1  0  0  0  0
 17 18  1  0  0  0  0
 17 19  1  0  0  0  0
 17 40  1  0  0  0  0
 18 41  1  0  0  0  0
 18 42  1  0  0  0  0
 18 43  1  0  0  0  0
 19 44  1  0  0  0  0
 19 45  1  0  0  0  0
 19 46  1  0  0  0  0
 20 21  1  0  0  0  0
 20 47  1  0  0  0  0
 20 48  1  0  0  0  0
 21 22  1  0  0  0  0
 21 23  1  0  0  0  0
 21 49  1  0  0  0  0
 22 50  1  0  0  0  0
 22 51  1  0  0  0  0
 22 52  1  0  0  0  0
M  CHG  1  16   1
M  END
> <s_m_source_file>
AV-unprocessed.smi

> <i_m_source_file_index>
1762

> <i_lp_mmshare_version>
43012

> <i_f3d_flags>
0

> <s_epik_input>
W0NIM11bQ0BASF0xW0NIMl1OKFtDSDJdW0NASF0oTzEpW0NIM10pW0NAQEhdKFtDSF0oW0NIM10pW0NIM10pQyg9TylbTkhdW0NIMl1bQ0gyXWMyW2NIXVtjSF1bY0hdW2NIXW4y

> <s_epik_cmdline>
J2VwaWtfcHl0aG9uJywgJy1waCcsICc3LjAnLCAnLXRuJywgJzgnLCAnLW1hJywgJzIwMCcsICctbWV0YWxfYmluZGluZycsICctaW1hZScsICc8aW5maWxlLm1hZT4nLCAnLW9tYWUnLCAnPG91dGZpbGUubWFlPic=

> <r_epik_Ionization_Penalty>
1.86475

> <r_epik_Ionization_Penalty_Charging>
1.85347

> <r_epik_Ionization_Penalty_Neutral>
0.0112771

> <r_epik_State_Penalty>
1.99714

> <r_epik_Charging_Adjusted_Penalty>
3.85061

> <i_epik_Tot_Q>
1

> <i_epik_Tot_abs_Q>
1

> <r_epik_Metal_State_Penalty>
2.02271

> <b_epik_Metal_Only>
0

> <s_lp_Force_Field>
OPLS_2005

> <r_lp_Energy>
35.8241

> <b_lp_Chiralities_Consistent>
1

> <s_lp_Variant>
AV-unprocessed.smi:1762-7

> <Gold.Version>
5.8.1

> <Gold.Id.Protein>
6NUR|6NUR_protein|mol2

> <Gold.PLP.Fitness>
39.6505

> <Gold.PLP.PLP>
-29.5199

> <Gold.PLP.part.hbond>
-3.0000

> <Gold.PLP.part.metal>
0.0000

> <Gold.PLP.part.buried>
-5.8077

> <Gold.PLP.part.nonpolar>
-21.3221

> <Gold.PLP.part.repulsive>
0.0000

> <Gold.PLP.ligand.clash>
0.0000

> <Gold.PLP.ligand.torsion>
0.8183

> <Gold.PLP.Chemscore.Hbond>
3.8240

> <Gold.PLP.Chemscore.CHOScore>
0.0000

> <Gold.PLP.Chemscore.Metal>
0.0000

> <Gold.Chemscore.Hbonds>
donor molecule, donor type, donor heavy atom, donor atom, acceptor molecule, acceptor atom, score
      L1  H    16    53       P1 10957  2.00
      P1  H  6931  6943       L1    23  0.91
      P1  H  6934  6947       L1    23  0.90

> <Gold.PLP.Chemscore.Internal.Correction>
0.2952

> <Gold.Rescore>
     Score         DG    S(hbond)    S(metal)    S(lipo)     H(rot)  DE(clash)    DE(int)     intcor
     15.68     -16.62       2.18        0.00      70.65       1.72       0.01       0.93       ----

> <Gold.Chemscore.Fitness>
15.6821

> <Gold.Chemscore.DG>
-16.6202

> <Gold.Chemscore.ZeroCoef>
-5.4800

> <Gold.Chemscore.Hbond>
2.1768

> <Gold.Chemscore.Metal>
0.0000

> <Gold.Chemscore.Lipo>
70.6511

> <Gold.Chemscore.Internal_Hbond>
0.0000

> <Gold.Chemscore.DEClash>
0.0073

> <Gold.Chemscore.DEInternal>
0.9308

> <Gold.Chemscore.Rot>
1.7174

> <Gold.Chemscore.Internal.Correction>
   9.000000E+99

> <Gold.Chemscore.Hbonds>
donor molecule, donor type, donor heavy atom, donor atom, acceptor molecule, acceptor atom, score
      L1  H    16    53       P1 10957  0.70
      P1  H  6931  6943       L1    23  0.65
      P1  H  6934  6947       L1    23  0.34

> <Gold.Chemscore.Hbond.Weighted>
-7.2706

> <Gold.Chemscore.Metal.Weighted>
-0.0000

> <Gold.Chemscore.Lipo.Weighted>
-8.2662

> <Gold.Chemscore.Internal_Hbond.Weighted>
0.0000

> <Gold.Chemscore.DEClash.Weighted>
0.0073

> <Gold.Chemscore.DEInternal.Weighted>
0.9308

> <Gold.Chemscore.Rot.Weighted>
4.3966

> <Gold.Chemscore.Internal.Correction.Weighted>
   9.000000E+99

> <Gold.Protein.RotatedTorsions>
[ 6907 6896 6895 6894 ] final  144.51 input  -60.11 | X-H torsion
[ 7974 7965 7964 7962 ] final -142.56 input  175.53 | X-H torsion
[ 8008 7997 7996 7995 ] final  161.37 input   59.86 | X-H torsion
[ 10167 10162 10161 10158 ] final  -90.38 input  -65.29 | X-H torsion
[ 10718 10713 10712 10709 ] final   81.80 input   66.30 | X-H torsion
[ 10763 10752 10751 10750 ] final  -64.73 input  -60.55 | X-H torsion
[ 11005 11000 10999 10996 ] final -144.84 input  -57.11 | X-H torsion

> <Gold.Protein.ActiveResidues>
 VAL166  LYS551  ARG553  GLY616  TRP617  ASP618  TYR619  PRO620  LYS621  CYS622 
 ASP623  PHE694  ASN695  SER759  ASP760  ASP761  ALA762  ILE779  LEU786  VAL792 
 PHE793  MET794  SER795  GLU796  ALA797  LYS798  CYS799  TRP800  GLU811  SER814 

> <Gold.Protein.RotatedAtoms>
  152.1927  133.4785  159.5016 H   0  0  0  0  0  0  0  0  0  0  0  0  # atno 6907 bound_to 6896
  150.6954  134.1691  159.4214 H   0  0  0  0  0  0  0  0  0  0  0  0  # atno 6908 bound_to 6896
  151.9606  135.0125  160.0598 H   0  0  0  0  0  0  0  0  0  0  0  0  # atno 6909 bound_to 6896
  144.8434  140.5943  143.5437 H   0  0  0  0  0  0  0  0  0  0  0  0  # atno 7974 bound_to 7965
  156.2108  140.1779  156.7700 H   0  0  0  0  0  0  0  0  0  0  0  0  # atno 8008 bound_to 7997
  154.5719  140.0681  156.9007 H   0  0  0  0  0  0  0  0  0  0  0  0  # atno 8009 bound_to 7997
  155.2657  140.3339  155.4272 H   0  0  0  0  0  0  0  0  0  0  0  0  # atno 8010 bound_to 7997
  140.3555  143.2869  151.9676 H   0  0  0  0  0  0  0  0  0  0  0  0  # atno 10167 bound_to 10162
  157.6842  131.0020  150.2280 H   0  0  0  0  0  0  0  0  0  0  0  0  # atno 10718 bound_to 10713
  154.3345  135.6169  153.5567 H   0  0  0  0  0  0  0  0  0  0  0  0  # atno 10763 bound_to 10752
  152.9809  135.5754  154.4924 H   0  0  0  0  0  0  0  0  0  0  0  0  # atno 10764 bound_to 10752
  154.4616  135.2856  155.1685 H   0  0  0  0  0  0  0  0  0  0  0  0  # atno 10765 bound_to 10752
  140.7983  134.2887  157.4988 H   0  0  0  0  0  0  0  0  0  0  0  0  # atno 11005 bound_to 11000
  145.4646  139.1509  143.3847 LP  0  0  0  0  0  0  0  0  0  0  0  0  # atno 17320 bound_to 7965
  146.2723  140.4777  142.8809 LP  0  0  0  0  0  0  0  0  0  0  0  0  # atno 17321 bound_to 7965
  139.4820  144.6039  151.7557 LP  0  0  0  0  0  0  0  0  0  0  0  0  # atno 17342 bound_to 10162
  140.5178  144.0926  150.6013 LP  0  0  0  0  0  0  0  0  0  0  0  0  # atno 17343 bound_to 10162
  156.2919  130.3747  149.7834 LP  0  0  0  0  0  0  0  0  0  0  0  0  # atno 17370 bound_to 10713
  156.5490  130.8333  151.3293 LP  0  0  0  0  0  0  0  0  0  0  0  0  # atno 17371 bound_to 10713
  139.8724  134.9415  156.3798 LP  0  0  0  0  0  0  0  0  0  0  0  0  # atno 17394 bound_to 11000
  140.9320  133.7573  156.0037 LP  0  0  0  0  0  0  0  0  0  0  0  0  # atno 17395 bound_to 11000

$$$$
