AV-unprocessed.smi:92|AV-procd|sdf|843|dock7
  -GOLD-   2262017283D 1   1.00000     0.00000
 Structure written by MMmdl.
 61 64  0  0  0  0  0  0  0  0  2 V2000
  151.3195  142.1893  157.3168 C   0  0  0  0  0  0  0  0  0  0  0  0
  149.8068  142.0060  157.5027 C   0  0  0  0  0  0  0  0  0  0  0  0
  149.0606  142.0934  156.2187 N   0  3  2  0  0  0  0  0  0  0  0  0
  147.5889  142.0147  156.3794 C   0  0  0  0  0  0  0  0  0  0  0  0
  147.1446  140.5864  156.7216 C   0  0  0  0  0  0  0  0  0  0  0  0
  147.5942  139.5703  155.6452 C   0  0  2  0  0  0  0  0  0  0  0  0
  147.1284  138.2079  155.9547 N   0  0  0  0  0  0  0  0  0  0  0  0
  147.1354  137.7075  157.3239 C   0  0  0  0  0  0  0  0  0  0  0  0
  146.2151  137.6238  155.1446 C   0  0  0  0  0  0  0  0  0  0  0  0
  145.0889  138.3264  154.8643 N   0  0  0  0  0  0  0  0  0  0  0  0
  144.1486  137.7982  154.0755 C   0  0  0  0  0  0  0  0  0  0  0  0
  144.1355  136.6057  153.4769 N   0  0  0  0  0  0  0  0  0  0  0  0
  145.2713  135.9007  153.7476 C   0  0  0  0  0  0  0  0  0  0  0  0
  146.3590  136.3358  154.5564 C   0  0  0  0  0  0  0  0  0  0  0  0
  147.3456  135.3582  154.5848 N   0  0  0  0  0  0  0  0  0  0  0  0
  146.8718  134.4031  153.8327 C   0  0  0  0  0  0  0  0  0  0  0  0
  145.6148  134.6299  153.3195 N   0  0  0  0  0  0  0  0  0  0  0  0
  144.8753  133.7652  152.4471 C   0  0  0  0  0  0  0  0  0  0  0  0
  145.3771  132.3540  152.1275 C   0  0  0  0  0  0  0  0  0  0  0  0
  144.8653  132.4846  150.6762 C   0  0  0  0  0  0  0  0  0  0  0  0
  145.8592  132.0400  149.5918 C   0  0  0  0  0  0  0  0  0  0  0  0
  147.1775  132.4459  149.9000 O   0  0  0  0  0  0  0  0  0  0  0  0
  143.5075  131.8250  150.3476 C   0  0  0  0  0  0  0  0  0  0  0  0
  142.9713  132.2375  149.1069 O   0  0  0  0  0  0  0  0  0  0  0  0
  144.8427  134.0079  150.9343 C   0  0  0  0  0  0  0  0  0  0  0  0
  149.1277  139.6915  155.3984 C   0  0  1  0  0  0  0  0  0  0  0  0
  149.6274  138.8571  154.2041 C   0  0  0  0  0  0  0  0  0  0  0  0
  149.5308  141.1677  155.1554 C   0  0  0  0  0  0  0  0  0  0  0  0
  151.8228  142.2165  158.2836 H   0  0  0  0  0  0  0  0  0  0  0  0
  151.5434  143.1244  156.8027 H   0  0  0  0  0  0  0  0  0  0  0  0
  151.7643  141.3747  156.7460 H   0  0  0  0  0  0  0  0  0  0  0  0
  149.5990  141.0669  158.0152 H   0  0  0  0  0  0  0  0  0  0  0  0
  149.4580  142.7973  158.1674 H   0  0  0  0  0  0  0  0  0  0  0  0
  147.2537  142.7155  157.1452 H   0  0  0  0  0  0  0  0  0  0  0  0
  147.1173  142.3322  155.4484 H   0  0  0  0  0  0  0  0  0  0  0  0
  147.5464  140.3206  157.6994 H   0  0  0  0  0  0  0  0  0  0  0  0
  146.0587  140.5607  156.8200 H   0  0  0  0  0  0  0  0  0  0  0  0
  147.0940  139.8565  154.7189 H   0  0  0  0  0  0  0  0  0  0  0  0
  146.1346  137.6753  157.7539 H   0  0  0  0  0  0  0  0  0  0  0  0
  147.7603  138.3301  157.9643 H   0  0  0  0  0  0  0  0  0  0  0  0
  147.5418  136.6961  157.3452 H   0  0  0  0  0  0  0  0  0  0  0  0
  143.2808  138.4177  153.9023 H   0  0  0  0  0  0  0  0  0  0  0  0
  147.4273  133.4968  153.6396 H   0  0  0  0  0  0  0  0  0  0  0  0
  143.8639  133.7299  152.8537 H   0  0  0  0  0  0  0  0  0  0  0  0
  146.4643  132.2783  152.1869 H   0  0  0  0  0  0  0  0  0  0  0  0
  144.9010  131.5655  152.7110 H   0  0  0  0  0  0  0  0  0  0  0  0
  145.8431  130.9574  149.4611 H   0  0  0  0  0  0  0  0  0  0  0  0
  145.5983  132.4709  148.6246 H   0  0  0  0  0  0  0  0  0  0  0  0
  147.6651  131.6901  150.1898 H   0  0  0  0  0  0  0  0  0  0  0  0
  143.6014  130.7389  150.3230 H   0  0  0  0  0  0  0  0  0  0  0  0
  142.7665  132.0563  151.1132 H   0  0  0  0  0  0  0  0  0  0  0  0
  142.2026  131.7189  148.9246 H   0  0  0  0  0  0  0  0  0  0  0  0
  143.9473  134.5204  150.5813 H   0  0  0  0  0  0  0  0  0  0  0  0
  145.7422  134.5113  150.5759 H   0  0  0  0  0  0  0  0  0  0  0  0
  149.6531  139.3413  156.2864 H   0  0  0  0  0  0  0  0  0  0  0  0
  149.0892  139.1099  153.2900 H   0  0  0  0  0  0  0  0  0  0  0  0
  149.5179  137.7882  154.3713 H   0  0  0  0  0  0  0  0  0  0  0  0
  150.6879  139.0332  154.0216 H   0  0  0  0  0  0  0  0  0  0  0  0
  149.1014  141.5059  154.2111 H   0  0  0  0  0  0  0  0  0  0  0  0
  150.6100  141.2535  155.0336 H   0  0  0  0  0  0  0  0  0  0  0  0
  149.2420  143.0268  155.8773 H   0  0  0  0  0  0  0  0  0  0  0  0
  1  2  1  0  0  0  0
  1 29  1  0  0  0  0
  1 30  1  0  0  0  0
  1 31  1  0  0  0  0
  2  3  1  0  0  0  0
  2 32  1  0  0  0  0
  2 33  1  0  0  0  0
  3 28  1  0  0  0  0
  3  4  1  0  0  0  0
  3 61  1  0  0  0  0
  4  5  1  0  0  0  0
  4 34  1  0  0  0  0
  4 35  1  0  0  0  0
  5  6  1  0  0  0  0
  5 36  1  0  0  0  0
  5 37  1  0  0  0  0
  6  7  1  0  0  0  0
  6 26  1  0  0  0  0
  6 38  1  0  0  0  0
  7  8  1  0  0  0  0
  7  9  1  0  0  0  0
  8 39  1  0  0  0  0
  8 40  1  0  0  0  0
  8 41  1  0  0  0  0
  9 14  1  0  0  0  0
  9 10  2  0  0  0  0
 10 11  1  0  0  0  0
 11 12  2  0  0  0  0
 11 42  1  0  0  0  0
 12 13  1  0  0  0  0
 13 17  1  0  0  0  0
 13 14  2  0  0  0  0
 14 15  1  0  0  0  0
 15 16  2  0  0  0  0
 16 17  1  0  0  0  0
 16 43  1  0  0  0  0
 17 18  1  0  0  0  0
 18 25  1  0  0  0  0
 18 19  1  0  0  0  0
 18 44  1  0  0  0  0
 19 20  1  0  0  0  0
 19 45  1  0  0  0  0
 19 46  1  0  0  0  0
 20 21  1  0  0  0  0
 20 23  1  0  0  0  0
 20 25  1  0  0  0  0
 21 22  1  0  0  0  0
 21 47  1  0  0  0  0
 21 48  1  0  0  0  0
 22 49  1  0  0  0  0
 23 24  1  0  0  0  0
 23 50  1  0  0  0  0
 23 51  1  0  0  0  0
 24 52  1  0  0  0  0
 25 53  1  0  0  0  0
 25 54  1  0  0  0  0
 26 27  1  0  0  0  0
 26 28  1  0  0  0  0
 26 55  1  0  0  0  0
 27 56  1  0  0  0  0
 27 57  1  0  0  0  0
 27 58  1  0  0  0  0
 28 59  1  0  0  0  0
 28 60  1  0  0  0  0
M  CHG  1   3   1
M  END
> <s_m_source_file>
AV-unprocessed.smi

> <i_m_source_file_index>
92

> <i_lp_mmshare_version>
43012

> <i_f3d_flags>
0

> <s_epik_input>
W0NIM11bQ0gyXU4xW0NIMl1bQ0gyXVtDQEhdKFtDQEBIXShbQ0gzXSlbQ0gyXTEpTihbQ0gzXSljKG5bY0hdbjIpYyhjMjMpbltjSF1uM1tDSF0oW0NIMl00KVtDSDJdQzQoW0NIMl1bT0hdKVtDSDJdW09IXQ==

> <s_epik_cmdline>
J2VwaWtfcHl0aG9uJywgJy1waCcsICc3LjAnLCAnLXRuJywgJzgnLCAnLW1hJywgJzIwMCcsICctbWV0YWxfYmluZGluZycsICctaW1hZScsICc8aW5maWxlLm1hZT4nLCAnLW9tYWUnLCAnPG91dGZpbGUubWFlPic=

> <r_lp_tautomer_probability>
1

> <r_epik_Ionization_Penalty>
0.00235514

> <r_epik_Ionization_Penalty_Charging>
0.00137877

> <r_epik_Ionization_Penalty_Neutral>
0.000976366

> <r_epik_State_Penalty>
-0

> <r_epik_Charging_Adjusted_Penalty>
0.00137877

> <i_epik_Tot_Q>
1

> <i_epik_Tot_abs_Q>
1

> <r_epik_Metal_State_Penalty>
-0

> <b_epik_Metal_Only>
0

> <s_lp_Force_Field>
OPLS_2005

> <r_lp_Energy>
56.5643

> <b_lp_Chiralities_Consistent>
1

> <s_lp_Variant>
AV-unprocessed.smi:92-3

> <Gold.Version>
5.8.1

> <Gold.Id.Protein>
6NUR|6NUR_protein|mol2

> <Gold.PLP.Fitness>
44.2402

> <Gold.PLP.PLP>
-32.8191

> <Gold.PLP.part.hbond>
-5.2614

> <Gold.PLP.part.metal>
0.0000

> <Gold.PLP.part.buried>
-3.7866

> <Gold.PLP.part.nonpolar>
-24.2266

> <Gold.PLP.part.repulsive>
0.3222

> <Gold.PLP.ligand.clash>
0.0000

> <Gold.PLP.ligand.torsion>
1.9945

> <Gold.PLP.Chemscore.Hbond>
4.0000

> <Gold.PLP.Chemscore.CHOScore>
0.7189

> <Gold.PLP.Chemscore.Metal>
0.0000

> <Gold.Chemscore.Hbonds>
donor molecule, donor type, donor heavy atom, donor atom, acceptor molecule, acceptor atom, score
      L1  H     3    61       P1  8028  2.00
      L1  H    22    49       P1 10747  1.00
      L1  H    24    52       P1 10952  0.97
      L1  C    11    42       P1 10175  0.73

> <Gold.PLP.Chemscore.Internal.Correction>
1.2535

> <Gold.Rescore>
     Score         DG    S(hbond)    S(metal)    S(lipo)     H(rot)  DE(clash)    DE(int)     intcor
     14.89     -16.78       2.97        0.00      82.35       3.22       0.04       1.86       ----

> <Gold.Chemscore.Fitness>
14.8876

> <Gold.Chemscore.DG>
-16.7802

> <Gold.Chemscore.ZeroCoef>
-5.4800

> <Gold.Chemscore.Hbond>
2.9682

> <Gold.Chemscore.Metal>
0.0000

> <Gold.Chemscore.Lipo>
82.3472

> <Gold.Chemscore.Internal_Hbond>
0.0000

> <Gold.Chemscore.DEClash>
0.0360

> <Gold.Chemscore.DEInternal>
1.8565

> <Gold.Chemscore.Rot>
3.2219

> <Gold.Chemscore.Internal.Correction>
   9.000000E+99

> <Gold.Chemscore.Hbonds>
donor molecule, donor type, donor heavy atom, donor atom, acceptor molecule, acceptor atom, score
      L1  H     3    61       P1  8028  0.98
      L1  H    22    49       P1 10747  0.90
      L1  H    24    52       P1 10952  0.86

> <Gold.Chemscore.Hbond.Weighted>
-9.9137

> <Gold.Chemscore.Metal.Weighted>
-0.0000

> <Gold.Chemscore.Lipo.Weighted>
-9.6346

> <Gold.Chemscore.Internal_Hbond.Weighted>
0.0000

> <Gold.Chemscore.DEClash.Weighted>
0.0360

> <Gold.Chemscore.DEInternal.Weighted>
1.8565

> <Gold.Chemscore.Rot.Weighted>
8.2482

> <Gold.Chemscore.Internal.Correction.Weighted>
   9.000000E+99

> <Gold.Protein.RotatedTorsions>
[ 6907 6896 6895 6894 ] final   89.93 input  -60.11 | X-H torsion
[ 7974 7965 7964 7962 ] final -162.70 input  175.53 | X-H torsion
[ 8008 7997 7996 7995 ] final -148.10 input   59.86 | X-H torsion
[ 10167 10162 10161 10158 ] final   45.36 input  -65.29 | X-H torsion
[ 10718 10713 10712 10709 ] final  -52.33 input   66.30 | X-H torsion
[ 10763 10752 10751 10750 ] final   -7.38 input  -60.55 | X-H torsion
[ 11005 11000 10999 10996 ] final  -44.06 input  -57.11 | X-H torsion

> <Gold.Protein.ActiveResidues>
 VAL166  LYS551  ARG553  GLY616  TRP617  ASP618  TYR619  PRO620  LYS621  CYS622 
 ASP623  PHE694  ASN695  SER759  ASP760  ASP761  ALA762  ILE779  LEU786  VAL792 
 PHE793  MET794  SER795  GLU796  ALA797  LYS798  CYS799  TRP800  GLU811  SER814 

> <Gold.Protein.RotatedAtoms>
  152.5440  134.1890  159.8666 H   0  0  0  0  0  0  0  0  0  0  0  0  # atno 6907 bound_to 6896
  151.1887  133.4673  159.2602 H   0  0  0  0  0  0  0  0  0  0  0  0  # atno 6908 bound_to 6896
  151.1105  135.0036  159.8547 H   0  0  0  0  0  0  0  0  0  0  0  0  # atno 6909 bound_to 6896
  144.7349  140.3214  143.6170 H   0  0  0  0  0  0  0  0  0  0  0  0  # atno 7974 bound_to 7965
  155.5862  140.0648  157.2770 H   0  0  0  0  0  0  0  0  0  0  0  0  # atno 8008 bound_to 7997
  154.4318  140.1843  156.1074 H   0  0  0  0  0  0  0  0  0  0  0  0  # atno 8009 bound_to 7997
  156.0267  140.3311  155.7099 H   0  0  0  0  0  0  0  0  0  0  0  0  # atno 8010 bound_to 7997
  140.3249  144.2660  150.6177 H   0  0  0  0  0  0  0  0  0  0  0  0  # atno 10167 bound_to 10162
  156.1631  130.4149  149.9762 H   0  0  0  0  0  0  0  0  0  0  0  0  # atno 10718 bound_to 10713
  153.4256  135.7011  153.6265 H   0  0  0  0  0  0  0  0  0  0  0  0  # atno 10763 bound_to 10752
  153.4701  135.3717  155.2386 H   0  0  0  0  0  0  0  0  0  0  0  0  # atno 10764 bound_to 10752
  154.8724  135.4041  154.3631 H   0  0  0  0  0  0  0  0  0  0  0  0  # atno 10765 bound_to 10752
  141.0425  133.6774  156.2819 H   0  0  0  0  0  0  0  0  0  0  0  0  # atno 11005 bound_to 11000
  145.7565  139.1810  143.2291 LP  0  0  0  0  0  0  0  0  0  0  0  0  # atno 17320 bound_to 7965
  146.1020  140.7532  142.9544 LP  0  0  0  0  0  0  0  0  0  0  0  0  # atno 17321 bound_to 7965
  140.5450  143.2216  151.8022 LP  0  0  0  0  0  0  0  0  0  0  0  0  # atno 17342 bound_to 10162
  139.4867  144.4551  151.9608 LP  0  0  0  0  0  0  0  0  0  0  0  0  # atno 17343 bound_to 10162
  156.7585  130.9142  151.3640 LP  0  0  0  0  0  0  0  0  0  0  0  0  # atno 17370 bound_to 10713
  157.6748  130.9084  150.0124 LP  0  0  0  0  0  0  0  0  0  0  0  0  # atno 17371 bound_to 10713
  140.6208  134.5364  157.5547 LP  0  0  0  0  0  0  0  0  0  0  0  0  # atno 17394 bound_to 11000
  139.9286  134.8006  156.0994 LP  0  0  0  0  0  0  0  0  0  0  0  0  # atno 17395 bound_to 11000

$$$$
