AV-unprocessed.smi:44|AV-procd|sdf|405|dock3
  -GOLD-   2262016263D 1   1.00000     0.00000
 Structure written by MMmdl.
 28 30  0  0  0  0  0  0  0  0  2 V2000
  151.7411  137.8450  154.0810 O   0  0  0  0  0  0  0  0  0  0  0  0
  151.9102  137.9744  155.2919 C   0  0  0  0  0  0  0  0  0  0  0  0
  152.3065  136.9776  156.1463 N   0  5  0  0  0  0  0  0  0  0  0  0
  152.4613  137.2543  157.5033 C   0  0  0  0  0  0  0  0  0  0  0  0
  152.2751  138.3803  158.1045 N   0  0  0  0  0  0  0  0  0  0  0  0
  151.8765  139.4007  157.2659 C   0  0  0  0  0  0  0  0  0  0  0  0
  151.6747  139.3077  155.9153 C   0  0  0  0  0  0  0  0  0  0  0  0
  151.2743  140.5270  155.3823 N   0  0  0  0  0  0  0  0  0  0  0  0
  151.2543  141.3113  156.4607 C   0  0  0  0  0  0  0  0  0  0  0  0
  151.6070  140.7163  157.6207 N   0  0  0  0  0  0  0  0  0  0  0  0
  151.6809  141.3106  158.9930 C   0  0  1  0  0  0  0  0  0  0  0  0
  153.0244  142.0326  159.1780 C   0  0  0  0  0  0  0  0  0  0  0  0
  152.5910  143.4189  159.6122 C   0  0  0  0  0  0  0  0  0  0  0  0
  151.2402  143.5666  158.9177 C   0  0  2  0  0  0  0  0  0  0  0  0
  150.3469  144.6495  159.5399 C   0  0  0  0  0  0  0  0  0  0  0  0
  148.9945  144.4071  159.2164 O   0  0  0  0  0  0  0  0  0  0  0  0
  150.6784  142.2760  159.1259 O   0  0  0  0  0  0  0  0  0  0  0  0
  151.5199  140.4714  159.6706 H   0  0  0  0  0  0  0  0  0  0  0  0
  151.3971  143.7474  157.8524 H   0  0  0  0  0  0  0  0  0  0  0  0
  152.7780  136.3711  158.0636 H   0  0  0  0  0  0  0  0  0  0  0  0
  150.9740  142.3524  156.3999 H   0  0  0  0  0  0  0  0  0  0  0  0
  153.6409  141.5248  159.9201 H   0  0  0  0  0  0  0  0  0  0  0  0
  153.5696  142.0754  158.2332 H   0  0  0  0  0  0  0  0  0  0  0  0
  152.4668  143.4479  160.6957 H   0  0  0  0  0  0  0  0  0  0  0  0
  153.3031  144.1944  159.3287 H   0  0  0  0  0  0  0  0  0  0  0  0
  150.4773  144.6989  160.6214 H   0  0  0  0  0  0  0  0  0  0  0  0
  150.6093  145.6280  159.1367 H   0  0  0  0  0  0  0  0  0  0  0  0
  148.8125  144.7974  158.3756 H   0  0  0  0  0  0  0  0  0  0  0  0
  1  2  2  0  0  0  0
  2  7  1  0  0  0  0
  2  3  1  0  0  0  0
  3  4  1  0  0  0  0
  4  5  2  0  0  0  0
  4 20  1  0  0  0  0
  5  6  1  0  0  0  0
  6 10  1  0  0  0  0
  6  7  2  0  0  0  0
  7  8  1  0  0  0  0
  8  9  2  0  0  0  0
  9 10  1  0  0  0  0
  9 21  1  0  0  0  0
 10 11  1  0  0  0  0
 11 18  1  0  0  0  0
 11 17  1  0  0  0  0
 11 12  1  0  0  0  0
 12 13  1  0  0  0  0
 12 22  1  0  0  0  0
 12 23  1  0  0  0  0
 13 14  1  0  0  0  0
 13 24  1  0  0  0  0
 13 25  1  0  0  0  0
 14 19  1  0  0  0  0
 14 15  1  0  0  0  0
 14 17  1  0  0  0  0
 15 16  1  0  0  0  0
 15 26  1  0  0  0  0
 15 27  1  0  0  0  0
 16 28  1  0  0  0  0
M  CHG  1   3  -1
M  END
> <s_m_source_file>
AV-unprocessed.smi

> <i_m_source_file_index>
44

> <i_lp_mmshare_version>
43012

> <i_f3d_flags>
0

> <s_epik_input>
bjFbY0hdW25IXWMoPU8pYyhjMTIpbltjSF1uMltDQEhdM1tDSDJdW0NIMl1bQ0BIXShPMylbQ0gyXVtPSF0=

> <s_epik_cmdline>
J2VwaWtfcHl0aG9uJywgJy1waCcsICc3LjAnLCAnLXRuJywgJzgnLCAnLW1hJywgJzIwMCcsICctbWV0YWxfYmluZGluZycsICctaW1hZScsICc8aW5maWxlLm1hZT4nLCAnLW9tYWUnLCAnPG91dGZpbGUubWFlPic=

> <r_lp_tautomer_probability>
0.85571

> <r_epik_Ionization_Penalty>
2.55863

> <r_epik_Ionization_Penalty_Charging>
1.36424e-10

> <r_epik_Ionization_Penalty_Neutral>
2.55863

> <r_epik_State_Penalty>
2.63326

> <r_epik_Charging_Adjusted_Penalty>
2.63326

> <i_epik_Tot_Q>
-1

> <i_epik_Tot_abs_Q>
1

> <r_epik_Metal_State_Penalty>
0.475154

> <b_epik_Metal_Only>
1

> <s_epik_Chemistry_Notes>
This compound contains an acetal/aminal-like group ( X-CH(R)-Y where X, Y are N, S, or O) that may be acid/base labile, releasing an aldehyde.

> <s_lp_Force_Field>
OPLS_2005

> <r_lp_Energy>
48.3687

> <b_lp_Chiralities_Consistent>
1

> <s_lp_Variant>
AV-unprocessed.smi:44-11

> <Gold.Version>
5.8.1

> <Gold.Id.Protein>
6NUR|6NUR_protein|mol2

> <Gold.PLP.Fitness>
40.1808

> <Gold.PLP.PLP>
-30.1043

> <Gold.PLP.part.hbond>
-3.9455

> <Gold.PLP.part.metal>
0.0000

> <Gold.PLP.part.buried>
-5.7561

> <Gold.PLP.part.nonpolar>
-20.6405

> <Gold.PLP.part.repulsive>
0.2223

> <Gold.PLP.ligand.clash>
0.0000

> <Gold.PLP.ligand.torsion>
0.8416

> <Gold.PLP.Chemscore.Hbond>
3.9120

> <Gold.PLP.Chemscore.CHOScore>
0.0000

> <Gold.PLP.Chemscore.Metal>
0.0000

> <Gold.Chemscore.Hbonds>
donor molecule, donor type, donor heavy atom, donor atom, acceptor molecule, acceptor atom, score
      L1  H    16    28       P1  8029  1.00
      P1  H  7989  7998       L1     8  0.88
      P1  H 10752 10765       L1     3  1.93

> <Gold.PLP.Chemscore.Internal.Correction>
0.0238

> <Gold.Rescore>
     Score         DG    S(hbond)    S(metal)    S(lipo)     H(rot)  DE(clash)    DE(int)     intcor
     12.80     -13.76       2.57        0.00      46.78       2.26       0.16       0.81       ----

> <Gold.Chemscore.Fitness>
12.7953

> <Gold.Chemscore.DG>
-13.7586

> <Gold.Chemscore.ZeroCoef>
-5.4800

> <Gold.Chemscore.Hbond>
2.5712

> <Gold.Chemscore.Metal>
0.0000

> <Gold.Chemscore.Lipo>
46.7799

> <Gold.Chemscore.Internal_Hbond>
0.0000

> <Gold.Chemscore.DEClash>
0.1579

> <Gold.Chemscore.DEInternal>
0.8055

> <Gold.Chemscore.Rot>
2.2588

> <Gold.Chemscore.Internal.Correction>
   9.000000E+99

> <Gold.Chemscore.Hbonds>
donor molecule, donor type, donor heavy atom, donor atom, acceptor molecule, acceptor atom, score
      L1  H    16    28       P1  8029  0.72
      P1  H  7989  7998       L1     8  0.83
      P1  H 10752 10765       L1     3  0.64

> <Gold.Chemscore.Hbond.Weighted>
-8.5878

> <Gold.Chemscore.Metal.Weighted>
-0.0000

> <Gold.Chemscore.Lipo.Weighted>
-5.4732

> <Gold.Chemscore.Internal_Hbond.Weighted>
0.0000

> <Gold.Chemscore.DEClash.Weighted>
0.1579

> <Gold.Chemscore.DEInternal.Weighted>
0.8055

> <Gold.Chemscore.Rot.Weighted>
5.7825

> <Gold.Chemscore.Internal.Correction.Weighted>
   9.000000E+99

> <Gold.Protein.RotatedTorsions>
[ 6907 6896 6895 6894 ] final  -75.55 input  -60.11 | X-H torsion
[ 7974 7965 7964 7962 ] final   94.84 input  175.53 | X-H torsion
[ 8008 7997 7996 7995 ] final   15.85 input   59.86 | X-H torsion
[ 10167 10162 10161 10158 ] final   53.87 input  -65.29 | X-H torsion
[ 10718 10713 10712 10709 ] final   54.83 input   66.30 | X-H torsion
[ 10763 10752 10751 10750 ] final -145.46 input  -60.55 | X-H torsion
[ 11005 11000 10999 10996 ] final -163.66 input  -57.11 | X-H torsion

> <Gold.Protein.ActiveResidues>
 VAL166  LYS551  ARG553  GLY616  TRP617  ASP618  TYR619  PRO620  LYS621  CYS622 
 ASP623  PHE694  ASN695  SER759  ASP760  ASP761  ALA762  ILE779  LEU786  VAL792 
 PHE793  MET794  SER795  GLU796  ALA797  LYS798  CYS799  TRP800  GLU811  SER814 

> <Gold.Protein.RotatedAtoms>
  150.7055  134.4704  159.5422 H   0  0  0  0  0  0  0  0  0  0  0  0  # atno 6907 bound_to 6896
  152.2361  134.8271  160.0476 H   0  0  0  0  0  0  0  0  0  0  0  0  # atno 6908 bound_to 6896
  151.9069  133.3516  159.3887 H   0  0  0  0  0  0  0  0  0  0  0  0  # atno 6909 bound_to 6896
  145.4602  139.2287  143.2992 H   0  0  0  0  0  0  0  0  0  0  0  0  # atno 7974 bound_to 7965
  154.8685  140.2955  155.5495 H   0  0  0  0  0  0  0  0  0  0  0  0  # atno 8008 bound_to 7997
  156.3021  140.2464  156.3603 H   0  0  0  0  0  0  0  0  0  0  0  0  # atno 8009 bound_to 7997
  154.8842  140.0397  157.1789 H   0  0  0  0  0  0  0  0  0  0  0  0  # atno 8010 bound_to 7997
  140.2362  144.3633  150.6396 H   0  0  0  0  0  0  0  0  0  0  0  0  # atno 10167 bound_to 10162
  157.5292  130.8618  149.8664 H   0  0  0  0  0  0  0  0  0  0  0  0  # atno 10718 bound_to 10713
  154.8382  135.3413  154.6507 H   0  0  0  0  0  0  0  0  0  0  0  0  # atno 10763 bound_to 10752
  153.7120  135.6963  153.5039 H   0  0  0  0  0  0  0  0  0  0  0  0  # atno 10764 bound_to 10752
  153.2445  135.4374  155.0686 H   0  0  0  0  0  0  0  0  0  0  0  0  # atno 10765 bound_to 10752
  140.5956  134.5000  157.5198 H   0  0  0  0  0  0  0  0  0  0  0  0  # atno 11005 bound_to 11000
  146.2455  140.5370  142.8915 LP  0  0  0  0  0  0  0  0  0  0  0  0  # atno 17320 bound_to 7965
  144.8007  140.6208  143.6480 LP  0  0  0  0  0  0  0  0  0  0  0  0  # atno 17321 bound_to 7965
  140.6148  143.2171  151.6813 LP  0  0  0  0  0  0  0  0  0  0  0  0  # atno 17342 bound_to 10162
  139.5093  144.3582  152.0587 LP  0  0  0  0  0  0  0  0  0  0  0  0  # atno 17343 bound_to 10162
  156.0410  130.3739  150.1437 LP  0  0  0  0  0  0  0  0  0  0  0  0  # atno 17370 bound_to 10713
  156.9622  130.9808  151.3476 LP  0  0  0  0  0  0  0  0  0  0  0  0  # atno 17371 bound_to 10713
  139.9255  134.8065  156.1082 LP  0  0  0  0  0  0  0  0  0  0  0  0  # atno 17394 bound_to 11000
  141.0906  133.6716  156.2533 LP  0  0  0  0  0  0  0  0  0  0  0  0  # atno 17395 bound_to 11000

$$$$
