AV-unprocessed.smi:130|AV-procd|sdf|1159|dock7
  -GOLD-   2262018293D 1   1.00000     0.00000
 Structure written by MMmdl.
 44 47  0  0  0  0  0  0  0  0  1 V2000
  150.1620  140.4911  156.5315 O   0  0  0  0  0  0  0  0  0  0  0  0
  150.8236  139.9173  157.3975 C   0  0  0  0  0  0  0  0  0  0  0  0
  150.7404  138.3783  157.5008 C   0  0  0  0  0  0  0  0  0  0  0  0
  149.4240  137.8831  157.9622 N   0  0  0  0  0  0  0  0  0  0  0  0
  148.2810  138.1461  157.1665 C   0  0  0  0  0  0  0  0  0  0  0  0
  148.3665  138.7856  156.1172 O   0  0  0  0  0  0  0  0  0  0  0  0
  147.0242  137.6028  157.6693 C   0  0  0  0  0  0  0  0  0  0  0  0
  145.8898  137.7979  156.9760 F   0  0  0  0  0  0  0  0  0  0  0  0
  146.9823  136.9004  158.8199 C   0  0  0  0  0  0  0  0  0  0  0  0
  148.1056  136.6535  159.5876 N   0  0  0  0  0  0  0  0  0  0  0  0
  148.0221  135.8398  160.8589 C   0  0  2  0  0  0  0  0  0  0  0  0
  146.5725  135.4137  161.1198 C   0  0  0  0  0  0  0  0  0  0  0  0
  146.0985  136.4835  162.0799 C   0  0  0  0  0  0  0  0  0  0  0  0
  147.3683  136.7665  162.8739 C   0  0  0  0  0  0  0  0  0  0  0  0
  148.4320  136.6340  161.9353 O   0  0  0  0  0  0  0  0  0  0  0  0
  149.3631  137.1326  159.1610 C   0  0  0  0  0  0  0  0  0  0  0  0
  150.3831  136.8911  159.8103 O   0  0  0  0  0  0  0  0  0  0  0  0
  151.6283  140.5693  158.2734 N   0  0  0  0  0  0  0  0  0  0  0  0
  152.4116  139.8881  159.3192 C   0  0  0  0  0  0  0  0  0  0  0  0
  153.1555  140.9963  160.0963 C   0  0  0  0  0  0  0  0  0  0  0  0
  152.7337  142.2492  159.3873 C   0  0  0  0  0  0  0  0  0  0  0  0
  153.1378  143.5615  159.6877 C   0  0  0  0  0  0  0  0  0  0  0  0
  152.6298  144.6140  158.8976 C   0  0  0  0  0  0  0  0  0  0  0  0
  151.7377  144.3427  157.8348 C   0  0  0  0  0  0  0  0  0  0  0  0
  151.3415  143.0180  157.5472 C   0  0  0  0  0  0  0  0  0  0  0  0
  151.8553  141.9696  158.3444 C   0  0  0  0  0  0  0  0  0  0  0  0
  150.9874  137.9448  156.5306 H   0  0  0  0  0  0  0  0  0  0  0  0
  151.5322  138.0242  158.1623 H   0  0  0  0  0  0  0  0  0  0  0  0
  146.0258  136.5150  159.1400 H   0  0  0  0  0  0  0  0  0  0  0  0
  148.7144  135.0052  160.7380 H   0  0  0  0  0  0  0  0  0  0  0  0
  145.9860  135.3462  160.2026 H   0  0  0  0  0  0  0  0  0  0  0  0
  146.5789  134.4383  161.6078 H   0  0  0  0  0  0  0  0  0  0  0  0
  145.7877  137.3732  161.5312 H   0  0  0  0  0  0  0  0  0  0  0  0
  145.2667  136.1595  162.7060 H   0  0  0  0  0  0  0  0  0  0  0  0
  147.3642  137.7529  163.3379 H   0  0  0  0  0  0  0  0  0  0  0  0
  147.4987  136.0206  163.6589 H   0  0  0  0  0  0  0  0  0  0  0  0
  151.7620  139.3256  159.9910 H   0  0  0  0  0  0  0  0  0  0  0  0
  153.1260  139.1949  158.8731 H   0  0  0  0  0  0  0  0  0  0  0  0
  152.8523  141.0319  161.1432 H   0  0  0  0  0  0  0  0  0  0  0  0
  154.2378  140.8733  160.0458 H   0  0  0  0  0  0  0  0  0  0  0  0
  153.8197  143.7593  160.5016 H   0  0  0  0  0  0  0  0  0  0  0  0
  152.9240  145.6321  159.1050 H   0  0  0  0  0  0  0  0  0  0  0  0
  151.3557  145.1562  157.2362 H   0  0  0  0  0  0  0  0  0  0  0  0
  150.6608  142.8435  156.7294 H   0  0  0  0  0  0  0  0  0  0  0  0
  1  2  2  0  0  0  0
  2  3  1  0  0  0  0
  2 18  1  0  0  0  0
  3  4  1  0  0  0  0
  3 27  1  0  0  0  0
  3 28  1  0  0  0  0
  4 16  1  0  0  0  0
  4  5  1  0  0  0  0
  5  6  2  0  0  0  0
  5  7  1  0  0  0  0
  7  8  1  0  0  0  0
  7  9  2  0  0  0  0
  9 10  1  0  0  0  0
  9 29  1  0  0  0  0
 10 11  1  0  0  0  0
 10 16  1  0  0  0  0
 11 15  1  0  0  0  0
 11 12  1  0  0  0  0
 11 30  1  0  0  0  0
 12 13  1  0  0  0  0
 12 31  1  0  0  0  0
 12 32  1  0  0  0  0
 13 14  1  0  0  0  0
 13 33  1  0  0  0  0
 13 34  1  0  0  0  0
 14 15  1  0  0  0  0
 14 35  1  0  0  0  0
 14 36  1  0  0  0  0
 16 17  2  0  0  0  0
 18 26  1  0  0  0  0
 18 19  1  0  0  0  0
 19 20  1  0  0  0  0
 19 37  1  0  0  0  0
 19 38  1  0  0  0  0
 20 21  1  0  0  0  0
 20 39  1  0  0  0  0
 20 40  1  0  0  0  0
 21 26  2  0  0  0  0
 21 22  1  0  0  0  0
 22 23  2  0  0  0  0
 22 41  1  0  0  0  0
 23 24  1  0  0  0  0
 23 42  1  0  0  0  0
 24 25  2  0  0  0  0
 24 43  1  0  0  0  0
 25 26  1  0  0  0  0
 25 44  1  0  0  0  0
M  END
> <s_m_source_file>
AV-unprocessed.smi

> <i_m_source_file_index>
130

> <i_lp_mmshare_version>
43012

> <i_f3d_flags>
0

> <s_epik_input>
W2NIXTFbY0hdW2NIXVtjSF1jKGMxMilOKFtDSDJdW0NIMl0yKUMoPU8pW0NIMl1uM2MoPU8pYyhGKVtjSF1uKGMzPU8pW0NAQEhdNFtDSDJdW0NIMl1bQ0gyXU80

> <s_epik_cmdline>
J2VwaWtfcHl0aG9uJywgJy1waCcsICc3LjAnLCAnLXRuJywgJzgnLCAnLW1hJywgJzIwMCcsICctbWV0YWxfYmluZGluZycsICctaW1hZScsICc8aW5maWxlLm1hZT4nLCAnLW9tYWUnLCAnPG91dGZpbGUubWFlPic=

> <r_lp_tautomer_probability>
1

> <r_epik_Ionization_Penalty>
1.67926e-06

> <r_epik_Ionization_Penalty_Charging>
3.62822e-09

> <r_epik_Ionization_Penalty_Neutral>
1.67563e-06

> <r_epik_State_Penalty>
-0

> <r_epik_Charging_Adjusted_Penalty>
3.62822e-09

> <i_epik_Tot_Q>
0

> <i_epik_Tot_abs_Q>
0

> <r_epik_Metal_State_Penalty>
-0

> <b_epik_Metal_Only>
0

> <s_epik_Chemistry_Notes>
This compound contains an acetal/aminal-like group ( X-CH(R)-Y where X, Y are N, S, or O) that may be acid/base labile, releasing an aldehyde.

> <s_lp_Force_Field>
OPLS_2005

> <r_lp_Energy>
53.4857

> <b_lp_Chiralities_Consistent>
1

> <s_lp_Variant>
AV-unprocessed.smi:130-1

> <Gold.Version>
5.8.1

> <Gold.Id.Protein>
6NUR|6NUR_protein|mol2

> <Gold.PLP.Fitness>
54.0145

> <Gold.PLP.PLP>
-48.1805

> <Gold.PLP.part.hbond>
-2.5775

> <Gold.PLP.part.metal>
0.0000

> <Gold.PLP.part.buried>
-6.0549

> <Gold.PLP.part.nonpolar>
-40.8672

> <Gold.PLP.part.repulsive>
0.0237

> <Gold.PLP.ligand.clash>
0.0000

> <Gold.PLP.ligand.torsion>
0.0750

> <Gold.PLP.Chemscore.Hbond>
1.9913

> <Gold.PLP.Chemscore.CHOScore>
0.0000

> <Gold.PLP.Chemscore.Metal>
0.0000

> <Gold.Chemscore.Hbonds>
donor molecule, donor type, donor heavy atom, donor atom, acceptor molecule, acceptor atom, score
      P1  H  6896  6908       L1    17  1.00
      P1  H  6931  6943       L1    15  1.00

> <Gold.PLP.Chemscore.Internal.Correction>
0.0103

> <Gold.Rescore>
     Score         DG    S(hbond)    S(metal)    S(lipo)     H(rot)  DE(clash)    DE(int)     intcor
     17.36     -20.59       1.82        0.00     111.54       1.57       0.02       3.21       ----

> <Gold.Chemscore.Fitness>
17.3553

> <Gold.Chemscore.DG>
-20.5858

> <Gold.Chemscore.ZeroCoef>
-5.4800

> <Gold.Chemscore.Hbond>
1.8193

> <Gold.Chemscore.Metal>
0.0000

> <Gold.Chemscore.Lipo>
111.5350

> <Gold.Chemscore.Internal_Hbond>
0.0000

> <Gold.Chemscore.DEClash>
0.0187

> <Gold.Chemscore.DEInternal>
3.2118

> <Gold.Chemscore.Rot>
1.5704

> <Gold.Chemscore.Internal.Correction>
   9.000000E+99

> <Gold.Chemscore.Hbonds>
donor molecule, donor type, donor heavy atom, donor atom, acceptor molecule, acceptor atom, score
      P1  H  6896  6908       L1    17  0.97
      P1  H  6931  6943       L1    15  0.30

> <Gold.Chemscore.Hbond.Weighted>
-6.0766

> <Gold.Chemscore.Metal.Weighted>
-0.0000

> <Gold.Chemscore.Lipo.Weighted>
-13.0496

> <Gold.Chemscore.Internal_Hbond.Weighted>
0.0000

> <Gold.Chemscore.DEClash.Weighted>
0.0187

> <Gold.Chemscore.DEInternal.Weighted>
3.2118

> <Gold.Chemscore.Rot.Weighted>
4.0203

> <Gold.Chemscore.Internal.Correction.Weighted>
   9.000000E+99

> <Gold.Protein.RotatedTorsions>
[ 6907 6896 6895 6894 ] final -147.08 input  -60.11 | X-H torsion
[ 7974 7965 7964 7962 ] final  -84.54 input  175.53 | X-H torsion
[ 8008 7997 7996 7995 ] final  -21.84 input   59.86 | X-H torsion
[ 10167 10162 10161 10158 ] final  -39.89 input  -65.29 | X-H torsion
[ 10718 10713 10712 10709 ] final   74.55 input   66.30 | X-H torsion
[ 10763 10752 10751 10750 ] final  -27.54 input  -60.55 | X-H torsion
[ 11005 11000 10999 10996 ] final -158.04 input  -57.11 | X-H torsion

> <Gold.Protein.ActiveResidues>
 VAL166  LYS551  ARG553  GLY616  TRP617  ASP618  TYR619  PRO620  LYS621  CYS622 
 ASP623  PHE694  ASN695  SER759  ASP760  ASP761  ALA762  ILE779  LEU786  VAL792 
 PHE793  MET794  SER795  GLU796  ALA797  LYS798  CYS799  TRP800  GLU811  SER814 

> <Gold.Protein.RotatedAtoms>
  151.1507  133.4909  159.2595 H   0  0  0  0  0  0  0  0  0  0  0  0  # atno 6907 bound_to 6896
  151.1557  135.0249  159.8698 H   0  0  0  0  0  0  0  0  0  0  0  0  # atno 6908 bound_to 6896
  152.5463  134.1386  159.8522 H   0  0  0  0  0  0  0  0  0  0  0  0  # atno 6909 bound_to 6896
  145.5053  140.9544  143.1737 H   0  0  0  0  0  0  0  0  0  0  0  0  # atno 7974 bound_to 7965
  154.4681  140.2024  156.0066 H   0  0  0  0  0  0  0  0  0  0  0  0  # atno 8008 bound_to 7997
  156.0962  140.3250  155.7852 H   0  0  0  0  0  0  0  0  0  0  0  0  # atno 8009 bound_to 7997
  155.4874  140.0543  157.2949 H   0  0  0  0  0  0  0  0  0  0  0  0  # atno 8010 bound_to 7997
  140.7051  143.3186  151.2847 H   0  0  0  0  0  0  0  0  0  0  0  0  # atno 10167 bound_to 10162
  157.6597  130.9683  150.1228 H   0  0  0  0  0  0  0  0  0  0  0  0  # atno 10718 bound_to 10713
  153.7338  135.6937  153.4983 H   0  0  0  0  0  0  0  0  0  0  0  0  # atno 10763 bound_to 10752
  153.2117  135.4400  155.0386 H   0  0  0  0  0  0  0  0  0  0  0  0  # atno 10764 bound_to 10752
  154.8244  135.3438  154.6866 H   0  0  0  0  0  0  0  0  0  0  0  0  # atno 10765 bound_to 10752
  140.6580  134.4380  157.5235 H   0  0  0  0  0  0  0  0  0  0  0  0  # atno 11005 bound_to 11000
  144.7757  139.6635  143.7176 LP  0  0  0  0  0  0  0  0  0  0  0  0  # atno 17320 bound_to 7965
  146.2200  139.5619  142.9624 LP  0  0  0  0  0  0  0  0  0  0  0  0  # atno 17321 bound_to 7965
  139.6633  144.0150  152.2707 LP  0  0  0  0  0  0  0  0  0  0  0  0  # atno 17342 bound_to 10162
  139.9724  144.6484  150.7976 LP  0  0  0  0  0  0  0  0  0  0  0  0  # atno 17343 bound_to 10162
  156.2095  130.3665  149.8688 LP  0  0  0  0  0  0  0  0  0  0  0  0  # atno 17370 bound_to 10713
  156.6571  130.8767  151.3541 LP  0  0  0  0  0  0  0  0  0  0  0  0  # atno 17371 bound_to 10713
  139.9023  134.8528  156.1846 LP  0  0  0  0  0  0  0  0  0  0  0  0  # atno 17394 bound_to 11000
  141.0487  133.6900  156.1731 LP  0  0  0  0  0  0  0  0  0  0  0  0  # atno 17395 bound_to 11000

$$$$
