AV-unprocessed.smi:264|AV-procd|sdf|2013|dock6
  -GOLD-   2262021213D 1   1.00000     0.00000
 Structure written by MMmdl.
 52 56  0  0  0  0  0  0  0  0  1 V2000
  146.8183  133.8898  151.1042 C   0  0  0  0  0  0  0  0  0  0  0  0
  145.4819  133.3494  151.6387 C   0  0  2  0  0  0  0  0  0  0  0  0
  145.3293  131.9705  151.3026 O   0  0  0  0  0  0  0  0  0  0  0  0
  144.1542  131.7859  150.5272 C   0  0  0  0  0  0  0  0  0  0  0  0
  143.2329  132.9117  150.9762 C   0  0  0  0  0  0  0  0  0  0  0  0
  144.1994  134.0735  151.1622 C   0  0  2  0  0  0  0  0  0  0  0  0
  144.4027  134.6875  149.8992 O   0  0  0  0  0  0  0  0  0  0  0  0
  143.7032  135.1513  152.1558 C   0  0  0  0  0  0  0  0  0  0  0  0
  144.7331  136.1099  152.5267 N   0  0  0  0  0  0  0  0  0  0  0  0
  145.4531  136.9159  151.6741 C   0  0  0  0  0  0  0  0  0  0  0  0
  146.3328  137.6888  152.2496 N   0  0  0  0  0  0  0  0  0  0  0  0
  146.2096  137.3972  153.6032 C   0  0  0  0  0  0  0  0  0  0  0  0
  146.8563  137.8664  154.7820 C   0  0  0  0  0  0  0  0  0  0  0  0
  147.8543  138.7868  154.7552 N   0  0  0  0  0  0  0  0  0  0  0  0
  147.6453  139.8921  153.8280 C   0  0  0  0  0  0  0  0  0  0  0  0
  148.6247  141.0315  154.1412 C   0  0  0  0  0  0  0  0  0  0  0  0
  149.9664  140.5460  154.1439 O   0  0  0  0  0  0  0  0  0  0  0  0
  150.2205  139.4582  155.0420 C   0  0  2  0  0  0  0  0  0  0  0  0
  150.2466  139.9085  156.5002 C   0  0  0  0  0  0  0  0  0  0  0  0
  151.6405  140.5032  156.6279 C   0  0  0  0  0  0  0  0  0  0  0  0
  152.4509  139.6046  155.8878 O   0  0  0  0  0  0  0  0  0  0  0  0
  151.6856  139.0407  154.8249 C   0  0  0  0  0  0  0  0  0  0  0  0
  149.2335  138.3058  154.7542 C   0  0  0  0  0  0  0  0  0  0  0  0
  146.4365  137.3518  155.9694 N   0  0  0  0  0  0  0  0  0  0  0  0
  145.4648  136.4353  156.0042 C   0  0  0  0  0  0  0  0  0  0  0  0
  144.7865  135.8995  154.9879 N   0  0  0  0  0  0  0  0  0  0  0  0
  145.1950  136.4166  153.7946 C   0  0  0  0  0  0  0  0  0  0  0  0
  146.9394  134.9459  151.3464 H   0  0  0  0  0  0  0  0  0  0  0  0
  146.8926  133.7793  150.0222 H   0  0  0  0  0  0  0  0  0  0  0  0
  147.6566  133.3499  151.5449 H   0  0  0  0  0  0  0  0  0  0  0  0
  145.5192  133.3781  152.7284 H   0  0  0  0  0  0  0  0  0  0  0  0
  144.4022  131.8882  149.4699 H   0  0  0  0  0  0  0  0  0  0  0  0
  143.7212  130.7977  150.6831 H   0  0  0  0  0  0  0  0  0  0  0  0
  142.4282  133.1153  150.2685 H   0  0  0  0  0  0  0  0  0  0  0  0
  142.7796  132.6416  151.9308 H   0  0  0  0  0  0  0  0  0  0  0  0
  145.0946  134.2277  149.4488 H   0  0  0  0  0  0  0  0  0  0  0  0
  142.8712  135.7079  151.7224 H   0  0  0  0  0  0  0  0  0  0  0  0
  143.3171  134.6839  153.0627 H   0  0  0  0  0  0  0  0  0  0  0  0
  145.3089  136.9084  150.6034 H   0  0  0  0  0  0  0  0  0  0  0  0
  147.8056  139.5336  152.8102 H   0  0  0  0  0  0  0  0  0  0  0  0
  146.6248  140.2704  153.8709 H   0  0  0  0  0  0  0  0  0  0  0  0
  148.5401  141.8114  153.3844 H   0  0  0  0  0  0  0  0  0  0  0  0
  148.3775  141.5010  155.0926 H   0  0  0  0  0  0  0  0  0  0  0  0
  149.4596  140.6066  156.7801 H   0  0  0  0  0  0  0  0  0  0  0  0
  150.1646  139.0446  157.1611 H   0  0  0  0  0  0  0  0  0  0  0  0
  151.6838  141.4934  156.1715 H   0  0  0  0  0  0  0  0  0  0  0  0
  151.9730  140.5846  157.6631 H   0  0  0  0  0  0  0  0  0  0  0  0
  151.8023  137.9572  154.8678 H   0  0  0  0  0  0  0  0  0  0  0  0
  152.0666  139.3715  153.8579 H   0  0  0  0  0  0  0  0  0  0  0  0
  149.3609  137.5130  155.4928 H   0  0  0  0  0  0  0  0  0  0  0  0
  149.4516  137.8718  153.7773 H   0  0  0  0  0  0  0  0  0  0  0  0
  145.1930  136.0785  156.9869 H   0  0  0  0  0  0  0  0  0  0  0  0
  1  2  1  0  0  0  0
  1 28  1  0  0  0  0
  1 29  1  0  0  0  0
  1 30  1  0  0  0  0
  2  6  1  0  0  0  0
  2  3  1  0  0  0  0
  2 31  1  0  0  0  0
  3  4  1  0  0  0  0
  4  5  1  0  0  0  0
  4 32  1  0  0  0  0
  4 33  1  0  0  0  0
  5  6  1  0  0  0  0
  5 34  1  0  0  0  0
  5 35  1  0  0  0  0
  6  7  1  0  0  0  0
  6  8  1  0  0  0  0
  7 36  1  0  0  0  0
  8  9  1  0  0  0  0
  8 37  1  0  0  0  0
  8 38  1  0  0  0  0
  9 27  1  0  0  0  0
  9 10  1  0  0  0  0
 10 11  2  0  0  0  0
 10 39  1  0  0  0  0
 11 12  1  0  0  0  0
 12 27  2  0  0  0  0
 12 13  1  0  0  0  0
 13 14  1  0  0  0  0
 13 24  2  0  0  0  0
 14 23  1  0  0  0  0
 14 15  1  0  0  0  0
 15 16  1  0  0  0  0
 15 40  1  0  0  0  0
 15 41  1  0  0  0  0
 16 17  1  0  0  0  0
 16 42  1  0  0  0  0
 16 43  1  0  0  0  0
 17 18  1  0  0  0  0
 18 22  1  0  0  0  0
 18 19  1  0  0  0  0
 18 23  1  0  0  0  0
 19 20  1  0  0  0  0
 19 44  1  0  0  0  0
 19 45  1  0  0  0  0
 20 21  1  0  0  0  0
 20 46  1  0  0  0  0
 20 47  1  0  0  0  0
 21 22  1  0  0  0  0
 22 48  1  0  0  0  0
 22 49  1  0  0  0  0
 23 50  1  0  0  0  0
 23 51  1  0  0  0  0
 24 25  1  0  0  0  0
 25 26  2  0  0  0  0
 25 52  1  0  0  0  0
 26 27  1  0  0  0  0
M  END
> <s_m_source_file>
AV-unprocessed.smi

> <i_m_source_file_index>
264

> <i_lp_mmshare_version>
43012

> <i_f3d_flags>
0

> <s_epik_input>
W0NIMl0xW0NIMl1PW0NAQEhdKFtDSDNdKVtDQEBdMShbT0hdKVtDSDJdbihbY0hdbjIpYyhjMjMpbltjSF1uYzNOKFtDSDJdNClbQ0gyXVtDSDJdT1tDQF00NVtDSDJdW0NIMl1PW0NIMl01

> <s_epik_cmdline>
J2VwaWtfcHl0aG9uJywgJy1waCcsICc3LjAnLCAnLXRuJywgJzgnLCAnLW1hJywgJzIwMCcsICctbWV0YWxfYmluZGluZycsICctaW1hZScsICc8aW5maWxlLm1hZT4nLCAnLW9tYWUnLCAnPG91dGZpbGUubWFlPic=

> <r_lp_tautomer_probability>
1

> <r_epik_Ionization_Penalty>
0.00539389

> <r_epik_Ionization_Penalty_Charging>
0

> <r_epik_Ionization_Penalty_Neutral>
0.00539389

> <r_epik_State_Penalty>
0.00375441

> <r_epik_Charging_Adjusted_Penalty>
0.00375441

> <i_epik_Tot_Q>
0

> <i_epik_Tot_abs_Q>
0

> <r_epik_Metal_State_Penalty>
-0

> <b_epik_Metal_Only>
0

> <s_lp_Force_Field>
OPLS_2005

> <r_lp_Energy>
54.0423

> <b_lp_Chiralities_Consistent>
1

> <s_lp_Variant>
AV-unprocessed.smi:264-7

> <Gold.Version>
5.8.1

> <Gold.Id.Protein>
6NUR|6NUR_protein|mol2

> <Gold.PLP.Fitness>
42.8302

> <Gold.PLP.PLP>
-35.3213

> <Gold.PLP.part.hbond>
-3.0000

> <Gold.PLP.part.metal>
0.0000

> <Gold.PLP.part.buried>
-4.0235

> <Gold.PLP.part.nonpolar>
-27.9707

> <Gold.PLP.part.repulsive>
2.2442

> <Gold.PLP.ligand.clash>
0.0000

> <Gold.PLP.ligand.torsion>
0.6838

> <Gold.PLP.Chemscore.Hbond>
2.1272

> <Gold.PLP.Chemscore.CHOScore>
0.7389

> <Gold.PLP.Chemscore.Metal>
0.0000

> <Gold.Chemscore.Hbonds>
donor molecule, donor type, donor heavy atom, donor atom, acceptor molecule, acceptor atom, score
      L1  H     7    36       P1  7921  0.36
      P1  H  7989  7998       L1    17  0.74
      P1  H  7997  8010       L1    21  1.00
      L1  C    10    39       P1 10171  0.70

> <Gold.PLP.Chemscore.Internal.Correction>
0.2785

> <Gold.Rescore>
     Score         DG    S(hbond)    S(metal)    S(lipo)     H(rot)  DE(clash)    DE(int)     intcor
     13.26     -16.68       2.06        0.00      83.09       2.11       1.47       1.95       ----

> <Gold.Chemscore.Fitness>
13.2584

> <Gold.Chemscore.DG>
-16.6762

> <Gold.Chemscore.ZeroCoef>
-5.4800

> <Gold.Chemscore.Hbond>
2.0558

> <Gold.Chemscore.Metal>
0.0000

> <Gold.Chemscore.Lipo>
83.0931

> <Gold.Chemscore.Internal_Hbond>
0.0000

> <Gold.Chemscore.DEClash>
1.4708

> <Gold.Chemscore.DEInternal>
1.9470

> <Gold.Chemscore.Rot>
2.1063

> <Gold.Chemscore.Internal.Correction>
   9.000000E+99

> <Gold.Chemscore.Hbonds>
donor molecule, donor type, donor heavy atom, donor atom, acceptor molecule, acceptor atom, score
      L1  H     7    36       P1  7921  0.36
      P1  H  7989  7998       L1    17  0.29
      P1  H  7997  8010       L1    21  0.58

> <Gold.Chemscore.Hbond.Weighted>
-6.8664

> <Gold.Chemscore.Metal.Weighted>
-0.0000

> <Gold.Chemscore.Lipo.Weighted>
-9.7219

> <Gold.Chemscore.Internal_Hbond.Weighted>
0.0000

> <Gold.Chemscore.DEClash.Weighted>
1.4708

> <Gold.Chemscore.DEInternal.Weighted>
1.9470

> <Gold.Chemscore.Rot.Weighted>
5.3921

> <Gold.Chemscore.Internal.Correction.Weighted>
   9.000000E+99

> <Gold.Protein.RotatedTorsions>
[ 6907 6896 6895 6894 ] final   -1.81 input  -60.11 | X-H torsion
[ 7974 7965 7964 7962 ] final   26.40 input  175.53 | X-H torsion
[ 8008 7997 7996 7995 ] final   85.25 input   59.86 | X-H torsion
[ 10167 10162 10161 10158 ] final -148.24 input  -65.29 | X-H torsion
[ 10718 10713 10712 10709 ] final   31.84 input   66.30 | X-H torsion
[ 10763 10752 10751 10750 ] final  -85.14 input  -60.55 | X-H torsion
[ 11005 11000 10999 10996 ] final  -30.24 input  -57.11 | X-H torsion

> <Gold.Protein.ActiveResidues>
 VAL166  LYS551  ARG553  GLY616  TRP617  ASP618  TYR619  PRO620  LYS621  CYS622 
 ASP623  PHE694  ASN695  SER759  ASP760  ASP761  ALA762  ILE779  LEU786  VAL792 
 PHE793  MET794  SER795  GLU796  ALA797  LYS798  CYS799  TRP800  GLU811  SER814 

> <Gold.Protein.RotatedAtoms>
  151.5400  135.1068  159.9923 H   0  0  0  0  0  0  0  0  0  0  0  0  # atno 6907 bound_to 6896
  152.4540  133.7681  159.6794 H   0  0  0  0  0  0  0  0  0  0  0  0  # atno 6908 bound_to 6896
  150.8477  133.7770  159.3061 H   0  0  0  0  0  0  0  0  0  0  0  0  # atno 6909 bound_to 6896
  146.1839  139.7334  142.8880 H   0  0  0  0  0  0  0  0  0  0  0  0  # atno 7974 bound_to 7965
  155.9476  140.3403  155.6380 H   0  0  0  0  0  0  0  0  0  0  0  0  # atno 8008 bound_to 7997
  155.6961  140.0754  157.2447 H   0  0  0  0  0  0  0  0  0  0  0  0  # atno 8009 bound_to 7997
  154.4115  140.1648  156.2127 H   0  0  0  0  0  0  0  0  0  0  0  0  # atno 8010 bound_to 7997
  139.7550  143.8462  152.2595 H   0  0  0  0  0  0  0  0  0  0  0  0  # atno 10167 bound_to 10162
  157.2776  130.7239  149.6538 H   0  0  0  0  0  0  0  0  0  0  0  0  # atno 10718 bound_to 10713
  154.6076  135.5495  153.7440 H   0  0  0  0  0  0  0  0  0  0  0  0  # atno 10763 bound_to 10752
  153.0181  135.6382  154.1624 H   0  0  0  0  0  0  0  0  0  0  0  0  # atno 10764 bound_to 10752
  154.1562  135.2900  155.3101 H   0  0  0  0  0  0  0  0  0  0  0  0  # atno 10765 bound_to 10752
  140.9366  133.7305  156.1014 H   0  0  0  0  0  0  0  0  0  0  0  0  # atno 11005 bound_to 11000
  145.3995  141.0383  143.3078 LP  0  0  0  0  0  0  0  0  0  0  0  0  # atno 17320 bound_to 7965
  144.8363  139.5544  143.6920 LP  0  0  0  0  0  0  0  0  0  0  0  0  # atno 17321 bound_to 7965
  139.8451  144.7191  150.9282 LP  0  0  0  0  0  0  0  0  0  0  0  0  # atno 17342 bound_to 10162
  140.7802  143.3948  151.1248 LP  0  0  0  0  0  0  0  0  0  0  0  0  # atno 17343 bound_to 10162
  155.9664  130.4348  150.5065 LP  0  0  0  0  0  0  0  0  0  0  0  0  # atno 17370 bound_to 10713
  157.3002  131.0643  151.2073 LP  0  0  0  0  0  0  0  0  0  0  0  0  # atno 17371 bound_to 10713
  140.7791  134.3746  157.5491 LP  0  0  0  0  0  0  0  0  0  0  0  0  # atno 17394 bound_to 11000
  139.8809  134.9070  156.2935 LP  0  0  0  0  0  0  0  0  0  0  0  0  # atno 17395 bound_to 11000

$$$$
