AV-unprocessed.smi:1960|AV-procd|sdf|7916|dock8
  -GOLD-   2272010 83D 1   1.00000     0.00000
 Structure written by MMmdl.
 38 39  0  0  0  0  0  0  0  0  1 V2000
  149.3324  141.1602  155.9691 C   0  0  0  0  0  0  0  0  0  0  0  0
  147.7065  140.6481  156.6606 S   0  0  0  0  0  0  0  0  0  0  0  0
  147.8638  139.3151  157.2622 O   0  0  0  0  0  0  0  0  0  0  0  0
  147.1835  141.7575  157.4726 O   0  0  0  0  0  0  0  0  0  0  0  0
  146.6835  140.4839  155.2620 N   0  0  0  0  0  0  0  0  0  0  0  0
  147.2435  140.6871  153.9108 C   0  0  0  0  0  0  0  0  0  0  0  0
  147.5229  139.3500  153.2022 C   0  0  0  0  0  0  0  0  0  0  0  0
  146.2727  138.4543  153.1794 C   0  0  0  0  0  0  0  0  0  0  0  0
  146.5699  137.1594  152.5729 N   0  0  0  0  0  0  0  0  0  0  0  0
  145.6575  136.3100  152.0786 C   0  0  0  0  0  0  0  0  0  0  0  0
  144.4480  136.5386  152.0821 O   0  0  0  0  0  0  0  0  0  0  0  0
  146.2419  135.2104  151.5707 N   0  0  0  0  0  0  0  0  0  0  0  0
  145.6312  134.0790  150.9644 C   0  0  0  0  0  0  0  0  0  0  0  0
  146.4713  133.0307  150.5354 C   0  0  0  0  0  0  0  0  0  0  0  0
  145.8888  131.8906  149.9463 C   0  0  0  0  0  0  0  0  0  0  0  0
  144.5584  131.7412  149.7767 N   0  0  0  0  0  0  0  0  0  0  0  0
  143.7544  132.7391  150.2006 C   0  0  0  0  0  0  0  0  0  0  0  0
  144.2337  133.9204  150.8018 C   0  0  0  0  0  0  0  0  0  0  0  0
  145.7675  138.2535  154.6157 C   0  0  0  0  0  0  0  0  0  0  0  0
  145.5013  139.6001  155.3116 C   0  0  0  0  0  0  0  0  0  0  0  0
  150.0407  141.2908  156.7867 H   0  0  0  0  0  0  0  0  0  0  0  0
  149.2290  142.1048  155.4381 H   0  0  0  0  0  0  0  0  0  0  0  0
  149.7083  140.3920  155.2958 H   0  0  0  0  0  0  0  0  0  0  0  0
  146.5275  141.2653  153.3257 H   0  0  0  0  0  0  0  0  0  0  0  0
  148.1523  141.2860  153.9619 H   0  0  0  0  0  0  0  0  0  0  0  0
  147.8616  139.5476  152.1846 H   0  0  0  0  0  0  0  0  0  0  0  0
  148.3420  138.8301  153.6981 H   0  0  0  0  0  0  0  0  0  0  0  0
  145.4874  138.9484  152.6038 H   0  0  0  0  0  0  0  0  0  0  0  0
  147.5422  136.8926  152.5262 H   0  0  0  0  0  0  0  0  0  0  0  0
  147.2513  135.2074  151.5680 H   0  0  0  0  0  0  0  0  0  0  0  0
  147.5437  133.0968  150.6479 H   0  0  0  0  0  0  0  0  0  0  0  0
  146.5094  131.0757  149.6036 H   0  0  0  0  0  0  0  0  0  0  0  0
  142.6940  132.5893  150.0625 H   0  0  0  0  0  0  0  0  0  0  0  0
  143.5261  134.6647  151.1324 H   0  0  0  0  0  0  0  0  0  0  0  0
  144.8507  137.6629  154.6075 H   0  0  0  0  0  0  0  0  0  0  0  0
  146.4938  137.6777  155.1884 H   0  0  0  0  0  0  0  0  0  0  0  0
  145.1902  139.4394  156.3433 H   0  0  0  0  0  0  0  0  0  0  0  0
  144.6724  140.1076  154.8167 H   0  0  0  0  0  0  0  0  0  0  0  0
  1  2  1  0  0  0  0
  1 21  1  0  0  0  0
  1 22  1  0  0  0  0
  1 23  1  0  0  0  0
  2  3  2  0  0  0  0
  2  4  2  0  0  0  0
  2  5  1  0  0  0  0
  5 20  1  0  0  0  0
  5  6  1  0  0  0  0
  6  7  1  0  0  0  0
  6 24  1  0  0  0  0
  6 25  1  0  0  0  0
  7  8  1  0  0  0  0
  7 26  1  0  0  0  0
  7 27  1  0  0  0  0
  8  9  1  0  0  0  0
  8 19  1  0  0  0  0
  8 28  1  0  0  0  0
  9 10  1  0  0  0  0
  9 29  1  0  0  0  0
 10 11  2  0  0  0  0
 10 12  1  0  0  0  0
 12 13  1  0  0  0  0
 12 30  1  0  0  0  0
 13 18  1  0  0  0  0
 13 14  2  0  0  0  0
 14 15  1  0  0  0  0
 14 31  1  0  0  0  0
 15 16  2  0  0  0  0
 15 32  1  0  0  0  0
 16 17  1  0  0  0  0
 17 18  2  0  0  0  0
 17 33  1  0  0  0  0
 18 34  1  0  0  0  0
 19 20  1  0  0  0  0
 19 35  1  0  0  0  0
 19 36  1  0  0  0  0
 20 37  1  0  0  0  0
 20 38  1  0  0  0  0
M  END
> <s_m_source_file>
AV-unprocessed.smi

> <i_m_source_file_index>
1960

> <i_lp_mmshare_version>
43012

> <i_f3d_flags>
0

> <s_epik_input>
W0NIM11TKD1PKSg9TylOMVtDSDJdW0NIMl1bQ0hdKFtDSDJdW0NIMl0xKVtOSF1DKD1PKVtOSF1jMltjSF1bY0hdbltjSF1bY0hdMg==

> <s_epik_cmdline>
J2VwaWtfcHl0aG9uJywgJy1waCcsICc3LjAnLCAnLXRuJywgJzgnLCAnLW1hJywgJzIwMCcsICctbWV0YWxfYmluZGluZycsICctaW1hZScsICc8aW5maWxlLm1hZT4nLCAnLW9tYWUnLCAnPG91dGZpbGUubWFlPic=

> <r_epik_Ionization_Penalty>
0.116752

> <r_epik_Ionization_Penalty_Charging>
0

> <r_epik_Ionization_Penalty_Neutral>
0.116752

> <r_epik_State_Penalty>
0.106329

> <r_epik_Charging_Adjusted_Penalty>
0.106329

> <i_epik_Tot_Q>
0

> <i_epik_Tot_abs_Q>
0

> <r_epik_Metal_State_Penalty>
0.0886803

> <b_epik_Metal_Only>
0

> <s_lp_Force_Field>
OPLS_2005

> <r_lp_Energy>
6.48368

> <b_lp_Chiralities_Consistent>
1

> <s_lp_Variant>
AV-unprocessed.smi:1960-1

> <Gold.Version>
5.8.1

> <Gold.Id.Protein>
6NUR|6NUR_protein|mol2

> <Gold.PLP.Fitness>
38.2898

> <Gold.PLP.PLP>
-27.4435

> <Gold.PLP.part.hbond>
-2.9951

> <Gold.PLP.part.metal>
0.0000

> <Gold.PLP.part.buried>
-4.0394

> <Gold.PLP.part.nonpolar>
-22.5328

> <Gold.PLP.part.repulsive>
0.9721

> <Gold.PLP.ligand.clash>
0.0000

> <Gold.PLP.ligand.torsion>
1.4748

> <Gold.PLP.Chemscore.Hbond>
2.1048

> <Gold.PLP.Chemscore.CHOScore>
1.8098

> <Gold.PLP.Chemscore.Metal>
0.0000

> <Gold.Chemscore.Hbonds>
donor molecule, donor type, donor heavy atom, donor atom, acceptor molecule, acceptor atom, score
      L1  H     9    29       P1  7948  1.00
      L1  H    12    30       P1  7948  0.98
      P1  H 10785 10796       L1    16  0.13
      L1  C    15    32       P1 10747  0.84
      L1  C    17    33       P1 10186  0.90

> <Gold.PLP.Chemscore.Internal.Correction>
2.0519

> <Gold.Rescore>
     Score         DG    S(hbond)    S(metal)    S(lipo)     H(rot)  DE(clash)    DE(int)     intcor
     14.53     -17.37       1.92        0.00      68.80       1.00       0.20       2.63       ----

> <Gold.Chemscore.Fitness>
14.5327

> <Gold.Chemscore.DG>
-17.3659

> <Gold.Chemscore.ZeroCoef>
-5.4800

> <Gold.Chemscore.Hbond>
1.9150

> <Gold.Chemscore.Metal>
0.0000

> <Gold.Chemscore.Lipo>
68.8012

> <Gold.Chemscore.Internal_Hbond>
0.0000

> <Gold.Chemscore.DEClash>
0.1984

> <Gold.Chemscore.DEInternal>
2.6348

> <Gold.Chemscore.Rot>
1.0000

> <Gold.Chemscore.Internal.Correction>
   9.000000E+99

> <Gold.Chemscore.Hbonds>
donor molecule, donor type, donor heavy atom, donor atom, acceptor molecule, acceptor atom, score
      L1  H     9    29       P1  7948  0.99
      L1  H    12    30       P1  7948  0.83
      P1  H 10785 10796       L1    16  0.09

> <Gold.Chemscore.Hbond.Weighted>
-6.3962

> <Gold.Chemscore.Metal.Weighted>
-0.0000

> <Gold.Chemscore.Lipo.Weighted>
-8.0497

> <Gold.Chemscore.Internal_Hbond.Weighted>
0.0000

> <Gold.Chemscore.DEClash.Weighted>
0.1984

> <Gold.Chemscore.DEInternal.Weighted>
2.6348

> <Gold.Chemscore.Rot.Weighted>
2.5600

> <Gold.Chemscore.Internal.Correction.Weighted>
   9.000000E+99

> <Gold.Protein.RotatedTorsions>
[ 6907 6896 6895 6894 ] final -151.10 input  -60.11 | X-H torsion
[ 7974 7965 7964 7962 ] final  163.62 input  175.53 | X-H torsion
[ 8008 7997 7996 7995 ] final  -99.24 input   59.86 | X-H torsion
[ 10167 10162 10161 10158 ] final  124.54 input  -65.29 | X-H torsion
[ 10718 10713 10712 10709 ] final  141.16 input   66.30 | X-H torsion
[ 10763 10752 10751 10750 ] final  -32.24 input  -60.55 | X-H torsion
[ 11005 11000 10999 10996 ] final  146.86 input  -57.11 | X-H torsion

> <Gold.Protein.ActiveResidues>
 VAL166  LYS551  ARG553  GLY616  TRP617  ASP618  TYR619  PRO620  LYS621  CYS622 
 ASP623  PHE694  ASN695  SER759  ASP760  ASP761  ALA762  ILE779  LEU786  VAL792 
 PHE793  MET794  SER795  GLU796  ALA797  LYS798  CYS799  TRP800  GLU811  SER814 

> <Gold.Protein.RotatedAtoms>
  151.2081  133.4571  159.2597 H   0  0  0  0  0  0  0  0  0  0  0  0  # atno 6907 bound_to 6896
  151.1003  134.9968  159.8455 H   0  0  0  0  0  0  0  0  0  0  0  0  # atno 6908 bound_to 6896
  152.5443  134.2008  159.8764 H   0  0  0  0  0  0  0  0  0  0  0  0  # atno 6909 bound_to 6896
  144.7582  139.8208  143.6342 H   0  0  0  0  0  0  0  0  0  0  0  0  # atno 7974 bound_to 7965
  154.8121  140.0449  157.1350 H   0  0  0  0  0  0  0  0  0  0  0  0  # atno 8008 bound_to 7997
  154.9357  140.3046  155.5125 H   0  0  0  0  0  0  0  0  0  0  0  0  # atno 8009 bound_to 7997
  156.2972  140.2315  156.4421 H   0  0  0  0  0  0  0  0  0  0  0  0  # atno 8010 bound_to 7997
  139.5736  144.6952  151.3713 H   0  0  0  0  0  0  0  0  0  0  0  0  # atno 10167 bound_to 10162
  157.3952  131.1010  151.0607 H   0  0  0  0  0  0  0  0  0  0  0  0  # atno 10718 bound_to 10713
  153.8104  135.6883  153.4842 H   0  0  0  0  0  0  0  0  0  0  0  0  # atno 10763 bound_to 10752
  153.1632  135.4572  154.9799 H   0  0  0  0  0  0  0  0  0  0  0  0  # atno 10764 bound_to 10752
  154.7969  135.3323  154.7585 H   0  0  0  0  0  0  0  0  0  0  0  0  # atno 10765 bound_to 10752
  140.0828  134.9087  157.1528 H   0  0  0  0  0  0  0  0  0  0  0  0  # atno 11005 bound_to 11000
  146.1615  139.4731  142.9985 LP  0  0  0  0  0  0  0  0  0  0  0  0  # atno 17320 bound_to 7965
  145.6709  141.0217  143.1658 LP  0  0  0  0  0  0  0  0  0  0  0  0  # atno 17321 bound_to 7965
  140.7019  143.7609  150.7418 LP  0  0  0  0  0  0  0  0  0  0  0  0  # atno 17342 bound_to 10162
  140.1123  143.4688  152.2363 LP  0  0  0  0  0  0  0  0  0  0  0  0  # atno 17343 bound_to 10162
  157.1626  130.6232  149.5615 LP  0  0  0  0  0  0  0  0  0  0  0  0  # atno 17370 bound_to 10713
  155.9808  130.4812  150.6795 LP  0  0  0  0  0  0  0  0  0  0  0  0  # atno 17371 bound_to 10713
  140.3463  134.2648  155.7204 LP  0  0  0  0  0  0  0  0  0  0  0  0  # atno 17394 bound_to 11000
  141.2052  133.7865  157.0244 LP  0  0  0  0  0  0  0  0  0  0  0  0  # atno 17395 bound_to 11000

$$$$
