AV-unprocessed.smi:2531|AV-procd|sdf|9965|dock4
  -GOLD-   2272014 03D 1   1.00000     0.00000
 Structure written by MMmdl.
 47 49  0  0  0  0  0  0  0  0  2 V2000
  153.2550  141.3991  159.8604 O   0  0  0  0  0  0  0  0  0  0  0  0
  152.4086  141.6301  158.9960 C   0  0  0  0  0  0  0  0  0  0  0  0
  151.4946  142.8665  159.0969 C   0  0  0  0  0  0  0  0  0  0  0  0
  151.5714  143.7513  157.8365 C   0  0  0  0  0  0  0  0  0  0  0  0
  152.5047  144.9042  158.2022 C   0  0  0  0  0  0  0  0  0  0  0  0
  152.1961  145.1665  159.6732 C   0  0  0  0  0  0  0  0  0  0  0  0
  151.8970  143.7869  160.2722 C   0  0  0  0  0  0  0  0  0  0  0  0
  152.1843  140.7476  157.9366 N   0  0  0  0  0  0  0  0  0  0  0  0
  150.8405  140.4096  157.4920 C   0  0  0  0  0  0  0  0  0  0  0  0
  151.4299  139.0519  157.0860 C   0  0  0  0  0  0  0  0  0  0  0  0
  151.8534  138.9733  155.2845 S   0  0  0  0  0  0  0  0  0  0  0  0
  150.8444  139.7412  154.5387 O   0  0  0  0  0  0  0  0  0  0  0  0
  153.2829  139.2604  155.0900 O   0  0  0  0  0  0  0  0  0  0  0  0
  151.6144  137.3017  154.9224 N   0  0  0  0  0  0  0  0  0  0  0  0
  150.3329  136.6817  155.2708 C   0  0  0  0  0  0  0  0  0  0  0  0
  150.2016  135.2701  154.6712 C   0  0  0  0  0  0  0  0  0  0  0  0
  148.8322  134.6484  154.8782 C   0  0  0  0  0  0  0  0  0  0  0  0
  148.4420  134.0909  156.1151 C   0  0  0  0  0  0  0  0  0  0  0  0
  147.1679  133.4973  156.2315 C   0  0  0  0  0  0  0  0  0  0  0  0
  146.3117  133.4742  155.1110 C   0  0  0  0  0  0  0  0  0  0  0  0
  146.7519  134.0457  153.9000 C   0  0  0  0  0  0  0  0  0  0  0  0
  147.9800  134.6044  153.8281 N   0  3  0  0  0  0  0  0  0  0  0  0
  152.6241  139.3622  157.9988 C   0  0  0  0  0  0  0  0  0  0  0  0
  150.4626  142.5339  159.2173 H   0  0  0  0  0  0  0  0  0  0  0  0
  151.9111  143.2192  156.9464 H   0  0  0  0  0  0  0  0  0  0  0  0
  150.5792  144.1440  157.6104 H   0  0  0  0  0  0  0  0  0  0  0  0
  153.5439  144.5913  158.0916 H   0  0  0  0  0  0  0  0  0  0  0  0
  152.3514  145.7837  157.5766 H   0  0  0  0  0  0  0  0  0  0  0  0
  153.0103  145.6787  160.1864 H   0  0  0  0  0  0  0  0  0  0  0  0
  151.3095  145.7974  159.7499 H   0  0  0  0  0  0  0  0  0  0  0  0
  151.1037  143.8507  161.0178 H   0  0  0  0  0  0  0  0  0  0  0  0
  152.7835  143.4150  160.7892 H   0  0  0  0  0  0  0  0  0  0  0  0
  150.1190  140.3352  158.3079 H   0  0  0  0  0  0  0  0  0  0  0  0
  150.4790  141.0244  156.6670 H   0  0  0  0  0  0  0  0  0  0  0  0
  150.8220  138.2008  157.3936 H   0  0  0  0  0  0  0  0  0  0  0  0
  151.8691  137.0972  153.9558 H   0  0  0  0  0  0  0  0  0  0  0  0
  150.2183  136.6493  156.3552 H   0  0  0  0  0  0  0  0  0  0  0  0
  149.5314  137.3165  154.8928 H   0  0  0  0  0  0  0  0  0  0  0  0
  150.4051  135.3114  153.6005 H   0  0  0  0  0  0  0  0  0  0  0  0
  150.9620  134.6135  155.0968 H   0  0  0  0  0  0  0  0  0  0  0  0
  149.1131  134.1071  156.9615 H   0  0  0  0  0  0  0  0  0  0  0  0
  146.8528  133.0610  157.1683 H   0  0  0  0  0  0  0  0  0  0  0  0
  145.3328  133.0224  155.1797 H   0  0  0  0  0  0  0  0  0  0  0  0
  146.1656  134.0701  152.9931 H   0  0  0  0  0  0  0  0  0  0  0  0
  153.6066  139.1844  157.5613 H   0  0  0  0  0  0  0  0  0  0  0  0
  152.5252  138.9191  158.9918 H   0  0  0  0  0  0  0  0  0  0  0  0
  148.2821  135.0060  152.9403 H   0  0  0  0  0  0  0  0  0  0  0  0
  1  2  2  0  0  0  0
  2  3  1  0  0  0  0
  2  8  1  0  0  0  0
  3  7  1  0  0  0  0
  3  4  1  0  0  0  0
  3 24  1  0  0  0  0
  4  5  1  0  0  0  0
  4 25  1  0  0  0  0
  4 26  1  0  0  0  0
  5  6  1  0  0  0  0
  5 27  1  0  0  0  0
  5 28  1  0  0  0  0
  6  7  1  0  0  0  0
  6 29  1  0  0  0  0
  6 30  1  0  0  0  0
  7 31  1  0  0  0  0
  7 32  1  0  0  0  0
  8 23  1  0  0  0  0
  8  9  1  0  0  0  0
  9 10  1  0  0  0  0
  9 33  1  0  0  0  0
  9 34  1  0  0  0  0
 10 11  1  0  0  0  0
 10 23  1  0  0  0  0
 10 35  1  0  0  0  0
 11 12  2  0  0  0  0
 11 13  2  0  0  0  0
 11 14  1  0  0  0  0
 14 15  1  0  0  0  0
 14 36  1  0  0  0  0
 15 16  1  0  0  0  0
 15 37  1  0  0  0  0
 15 38  1  0  0  0  0
 16 17  1  0  0  0  0
 16 39  1  0  0  0  0
 16 40  1  0  0  0  0
 17 22  1  0  0  0  0
 17 18  2  0  0  0  0
 18 19  1  0  0  0  0
 18 41  1  0  0  0  0
 19 20  2  0  0  0  0
 19 42  1  0  0  0  0
 20 21  1  0  0  0  0
 20 43  1  0  0  0  0
 21 22  2  0  0  0  0
 21 44  1  0  0  0  0
 22 47  1  0  0  0  0
 23 45  1  0  0  0  0
 23 46  1  0  0  0  0
M  CHG  1  22   1
M  END
> <s_m_source_file>
AV-unprocessed.smi

> <i_m_source_file_index>
2531

> <i_lp_mmshare_version>
43012

> <i_f3d_flags>
0

> <s_epik_input>
W0NIMl0xW0NIMl1bQ0gyXVtDSDJdW0NIXTFDKD1PKU4yW0NIMl1bQ0hdKFtDSDJdMilTKD1PKSg9TylbTkhdW0NIMl1bQ0gyXWMzW2NIXVtjSF1bY0hdW2NIXW4z

> <s_epik_cmdline>
J2VwaWtfcHl0aG9uJywgJy1waCcsICc3LjAnLCAnLXRuJywgJzgnLCAnLW1hJywgJzIwMCcsICctbWV0YWxfYmluZGluZycsICctaW1hZScsICc8aW5maWxlLm1hZT4nLCAnLW9tYWUnLCAnPG91dGZpbGUubWFlPic=

> <r_epik_Ionization_Penalty>
2.00952

> <r_epik_Ionization_Penalty_Charging>
2.00945

> <r_epik_Ionization_Penalty_Neutral>
6.7549e-05

> <r_epik_State_Penalty>
2.13885

> <r_epik_Charging_Adjusted_Penalty>
4.1483

> <i_epik_Tot_Q>
1

> <i_epik_Tot_abs_Q>
1

> <r_epik_Metal_State_Penalty>
2.25125

> <b_epik_Metal_Only>
0

> <s_lp_Force_Field>
OPLS_2005

> <r_lp_Energy>
39.4399

> <b_lp_Chiralities_Consistent>
1

> <s_lp_Variant>
AV-unprocessed.smi:2531-2

> <Gold.Version>
5.8.1

> <Gold.Id.Protein>
6NUR|6NUR_protein|mol2

> <Gold.PLP.Fitness>
52.8074

> <Gold.PLP.PLP>
-41.9752

> <Gold.PLP.part.hbond>
-4.0000

> <Gold.PLP.part.metal>
0.0000

> <Gold.PLP.part.buried>
-7.5860

> <Gold.PLP.part.nonpolar>
-31.2854

> <Gold.PLP.part.repulsive>
0.1030

> <Gold.PLP.ligand.clash>
0.0000

> <Gold.PLP.ligand.torsion>
1.4257

> <Gold.PLP.Chemscore.Hbond>
4.0000

> <Gold.PLP.Chemscore.CHOScore>
0.0000

> <Gold.PLP.Chemscore.Metal>
0.0000

> <Gold.Chemscore.Hbonds>
donor molecule, donor type, donor heavy atom, donor atom, acceptor molecule, acceptor atom, score
      L1  H    22    47       P1  7948  2.00
      P1  H  7989  7998       L1    12  1.00
      P1  H  7997  8010       L1    13  1.00

> <Gold.PLP.Chemscore.Internal.Correction>
1.6836

> <Gold.Rescore>
     Score         DG    S(hbond)    S(metal)    S(lipo)     H(rot)  DE(clash)    DE(int)     intcor
     20.13     -21.78       2.92        0.00      99.18       1.97       0.18       1.48       ----

> <Gold.Chemscore.Fitness>
20.1250

> <Gold.Chemscore.DG>
-21.7820

> <Gold.Chemscore.ZeroCoef>
-5.4800

> <Gold.Chemscore.Hbond>
2.9204

> <Gold.Chemscore.Metal>
0.0000

> <Gold.Chemscore.Lipo>
99.1765

> <Gold.Chemscore.Internal_Hbond>
0.0000

> <Gold.Chemscore.DEClash>
0.1819

> <Gold.Chemscore.DEInternal>
1.4751

> <Gold.Chemscore.Rot>
1.9749

> <Gold.Chemscore.Internal.Correction>
   9.000000E+99

> <Gold.Chemscore.Hbonds>
donor molecule, donor type, donor heavy atom, donor atom, acceptor molecule, acceptor atom, score
      L1  H    22    47       P1  7948  0.85
      P1  H  7989  7998       L1    12  0.70
      P1  H  7997  8010       L1    13  1.00

> <Gold.Chemscore.Hbond.Weighted>
-9.7540

> <Gold.Chemscore.Metal.Weighted>
-0.0000

> <Gold.Chemscore.Lipo.Weighted>
-11.6036

> <Gold.Chemscore.Internal_Hbond.Weighted>
0.0000

> <Gold.Chemscore.DEClash.Weighted>
0.1819

> <Gold.Chemscore.DEInternal.Weighted>
1.4751

> <Gold.Chemscore.Rot.Weighted>
5.0556

> <Gold.Chemscore.Internal.Correction.Weighted>
   9.000000E+99

> <Gold.Protein.RotatedTorsions>
[ 6907 6896 6895 6894 ] final -150.97 input  -60.11 | X-H torsion
[ 7974 7965 7964 7962 ] final -107.78 input  175.53 | X-H torsion
[ 8008 7997 7996 7995 ] final  100.69 input   59.86 | X-H torsion
[ 10167 10162 10161 10158 ] final  -47.08 input  -65.29 | X-H torsion
[ 10718 10713 10712 10709 ] final   14.89 input   66.30 | X-H torsion
[ 10763 10752 10751 10750 ] final  139.48 input  -60.55 | X-H torsion
[ 11005 11000 10999 10996 ] final  164.04 input  -57.11 | X-H torsion

> <Gold.Protein.ActiveResidues>
 VAL166  LYS551  ARG553  GLY616  TRP617  ASP618  TYR619  PRO620  LYS621  CYS622 
 ASP623  PHE694  ASN695  SER759  ASP760  ASP761  ALA762  ILE779  LEU786  VAL792 
 PHE793  MET794  SER795  GLU796  ALA797  LYS798  CYS799  TRP800  GLU811  SER814 

> <Gold.Protein.RotatedAtoms>
  151.2062  133.4582  159.2597 H   0  0  0  0  0  0  0  0  0  0  0  0  # atno 6907 bound_to 6896
  151.1021  134.9978  159.8463 H   0  0  0  0  0  0  0  0  0  0  0  0  # atno 6908 bound_to 6896
  152.5444  134.1988  159.8756 H   0  0  0  0  0  0  0  0  0  0  0  0  # atno 6909 bound_to 6896
  145.2010  140.9056  143.3369 H   0  0  0  0  0  0  0  0  0  0  0  0  # atno 7974 bound_to 7965
  156.1228  140.3209  155.8233 H   0  0  0  0  0  0  0  0  0  0  0  0  # atno 8008 bound_to 7997
  155.4474  140.0530  157.3021 H   0  0  0  0  0  0  0  0  0  0  0  0  # atno 8009 bound_to 7997
  154.4840  140.2065  155.9712 H   0  0  0  0  0  0  0  0  0  0  0  0  # atno 8010 bound_to 7997
  140.6790  143.2801  151.3875 H   0  0  0  0  0  0  0  0  0  0  0  0  # atno 10167 bound_to 10162
  157.0457  130.6249  149.5759 H   0  0  0  0  0  0  0  0  0  0  0  0  # atno 10718 bound_to 10713
  153.9069  135.3015  155.3448 H   0  0  0  0  0  0  0  0  0  0  0  0  # atno 10763 bound_to 10752
  154.7643  135.4918  153.9526 H   0  0  0  0  0  0  0  0  0  0  0  0  # atno 10764 bound_to 10752
  153.1214  135.6783  153.9431 H   0  0  0  0  0  0  0  0  0  0  0  0  # atno 10765 bound_to 10752
  140.2418  134.8045  157.3418 H   0  0  0  0  0  0  0  0  0  0  0  0  # atno 11005 bound_to 11000
  144.9948  139.3655  143.6197 LP  0  0  0  0  0  0  0  0  0  0  0  0  # atno 17320 bound_to 7965
  146.3417  139.9146  142.8775 LP  0  0  0  0  0  0  0  0  0  0  0  0  # atno 17321 bound_to 7965
  139.6101  144.1117  152.2289 LP  0  0  0  0  0  0  0  0  0  0  0  0  # atno 17342 bound_to 10162
  140.0528  144.5919  150.7323 LP  0  0  0  0  0  0  0  0  0  0  0  0  # atno 17343 bound_to 10162
  156.0024  130.5105  150.7709 LP  0  0  0  0  0  0  0  0  0  0  0  0  # atno 17370 bound_to 10713
  157.5070  131.0923  151.0245 LP  0  0  0  0  0  0  0  0  0  0  0  0  # atno 17371 bound_to 10713
  140.1645  134.4686  155.7872 LP  0  0  0  0  0  0  0  0  0  0  0  0  # atno 17394 bound_to 11000
  141.2210  133.6915  156.7602 LP  0  0  0  0  0  0  0  0  0  0  0  0  # atno 17395 bound_to 11000

$$$$
