AV-unprocessed.smi:754|AV-procd|sdf|3610|dock7
  -GOLD-   22720 1 03D 1   1.00000     0.00000
 Structure written by MMmdl.
 37 38  0  0  0  0  0  0  0  0  1 V2000
  148.2317  145.0930  160.5280 C   0  0  0  0  0  0  0  0  0  0  0  0
  149.7420  144.9306  160.3431 C   0  0  0  0  0  0  0  0  0  0  0  0
  149.9904  144.3697  159.0651 O   0  0  0  0  0  0  0  0  0  0  0  0
  150.5033  143.0484  159.1328 C   0  0  1  0  0  0  0  0  0  0  0  0
  150.6439  142.3472  157.7785 C   0  0  0  0  0  0  0  0  0  0  0  0
  151.9952  141.8191  158.2711 C   0  0  2  0  0  0  0  0  0  0  0  0
  151.8475  140.5061  158.8976 N   0  0  0  0  0  0  0  0  0  0  0  0
  152.3387  139.3617  158.3999 C   0  0  0  0  0  0  0  0  0  0  0  0
  152.8961  139.2785  157.3061 O   0  0  0  0  0  0  0  0  0  0  0  0
  152.2132  138.1276  159.2918 C   0  0  0  0  0  0  0  0  0  0  0  0
  152.7393  136.9585  158.6120 N   0  0  0  0  0  0  0  0  0  0  0  0
  153.8259  136.2209  158.8496 C   0  0  0  0  0  0  0  0  0  0  0  0
  153.9236  135.2081  158.0023 N   0  0  0  0  0  0  0  0  0  0  0  0
  152.8062  135.3609  157.1986 N   0  0  0  0  0  0  0  0  0  0  0  0
  152.0988  136.3970  157.5564 N   0  0  0  0  0  0  0  0  0  0  0  0
  152.0423  142.9953  159.2896 C   0  0  0  0  0  0  0  0  0  0  0  0
  152.8093  144.2253  158.7857 C   0  0  0  0  0  0  0  0  0  0  0  0
  152.5592  142.7107  160.7058 C   0  0  0  0  0  0  0  0  0  0  0  0
  148.0026  145.5194  161.5046 H   0  0  0  0  0  0  0  0  0  0  0  0
  147.7232  144.1313  160.4548 H   0  0  0  0  0  0  0  0  0  0  0  0
  147.8128  145.7529  159.7680 H   0  0  0  0  0  0  0  0  0  0  0  0
  150.2339  145.9004  160.4302 H   0  0  0  0  0  0  0  0  0  0  0  0
  150.1434  144.2855  161.1258 H   0  0  0  0  0  0  0  0  0  0  0  0
  149.9927  142.4292  159.8741 H   0  0  0  0  0  0  0  0  0  0  0  0
  149.8872  141.5878  157.5776 H   0  0  0  0  0  0  0  0  0  0  0  0
  150.7406  143.0446  156.9450 H   0  0  0  0  0  0  0  0  0  0  0  0
  152.7709  141.8636  157.5044 H   0  0  0  0  0  0  0  0  0  0  0  0
  151.4019  140.4791  159.8037 H   0  0  0  0  0  0  0  0  0  0  0  0
  152.7521  138.2815  160.2278 H   0  0  0  0  0  0  0  0  0  0  0  0
  151.1670  137.9477  159.5427 H   0  0  0  0  0  0  0  0  0  0  0  0
  154.5318  136.4177  159.6431 H   0  0  0  0  0  0  0  0  0  0  0  0
  153.8814  144.0324  158.7379 H   0  0  0  0  0  0  0  0  0  0  0  0
  152.6595  145.0873  159.4367 H   0  0  0  0  0  0  0  0  0  0  0  0
  152.4926  144.5219  157.7854 H   0  0  0  0  0  0  0  0  0  0  0  0
  153.6050  142.4022  160.6942 H   0  0  0  0  0  0  0  0  0  0  0  0
  151.9929  141.9192  161.1972 H   0  0  0  0  0  0  0  0  0  0  0  0
  152.4822  143.5908  161.3449 H   0  0  0  0  0  0  0  0  0  0  0  0
  1  2  1  0  0  0  0
  1 19  1  0  0  0  0
  1 20  1  0  0  0  0
  1 21  1  0  0  0  0
  2  3  1  0  0  0  0
  2 22  1  0  0  0  0
  2 23  1  0  0  0  0
  3  4  1  0  0  0  0
  4 16  1  0  0  0  0
  4  5  1  0  0  0  0
  4 24  1  0  0  0  0
  5  6  1  0  0  0  0
  5 25  1  0  0  0  0
  5 26  1  0  0  0  0
  6  7  1  0  0  0  0
  6 16  1  0  0  0  0
  6 27  1  0  0  0  0
  7  8  1  0  0  0  0
  7 28  1  0  0  0  0
  8  9  2  0  0  0  0
  8 10  1  0  0  0  0
 10 11  1  0  0  0  0
 10 29  1  0  0  0  0
 10 30  1  0  0  0  0
 11 15  1  0  0  0  0
 11 12  1  0  0  0  0
 12 13  2  0  0  0  0
 12 31  1  0  0  0  0
 13 14  1  0  0  0  0
 14 15  2  0  0  0  0
 16 17  1  0  0  0  0
 16 18  1  0  0  0  0
 17 32  1  0  0  0  0
 17 33  1  0  0  0  0
 17 34  1  0  0  0  0
 18 35  1  0  0  0  0
 18 36  1  0  0  0  0
 18 37  1  0  0  0  0
M  END
> <s_m_source_file>
AV-unprocessed.smi

> <i_m_source_file_index>
754

> <i_lp_mmshare_version>
43012

> <i_f3d_flags>
0

> <s_epik_input>
W0NIM11bQ0gyXU9bQ0BASF0oQzEoW0NIM10pW0NIM10pW0NIMl1bQ0BIXTFbTkhdQyg9TylbQ0gyXW4yW2NIXW5ubjI=

> <s_epik_cmdline>
J2VwaWtfcHl0aG9uJywgJy1waCcsICc3LjAnLCAnLXRuJywgJzgnLCAnLW1hJywgJzIwMCcsICctbWV0YWxfYmluZGluZycsICctaW1hZScsICc8aW5maWxlLm1hZT4nLCAnLW9tYWUnLCAnPG91dGZpbGUubWFlPic=

> <r_lp_tautomer_probability>
1

> <r_epik_Ionization_Penalty>
8.28422e-07

> <r_epik_Ionization_Penalty_Charging>
0

> <r_epik_Ionization_Penalty_Neutral>
8.28422e-07

> <r_epik_State_Penalty>
-0

> <r_epik_Charging_Adjusted_Penalty>
0

> <i_epik_Tot_Q>
0

> <i_epik_Tot_abs_Q>
0

> <r_epik_Metal_State_Penalty>
-0

> <b_epik_Metal_Only>
0

> <s_lp_Force_Field>
OPLS_2005

> <r_lp_Energy>
21.5247

> <b_lp_Chiralities_Consistent>
1

> <s_lp_Variant>
AV-unprocessed.smi:754-4

> <Gold.Version>
5.8.1

> <Gold.Id.Protein>
6NUR|6NUR_protein|mol2

> <Gold.PLP.Fitness>
35.6644

> <Gold.PLP.PLP>
-30.9905

> <Gold.PLP.part.hbond>
-2.6173

> <Gold.PLP.part.metal>
0.0000

> <Gold.PLP.part.buried>
-6.3593

> <Gold.PLP.part.nonpolar>
-22.5504

> <Gold.PLP.part.repulsive>
0.3109

> <Gold.PLP.ligand.clash>
0.0000

> <Gold.PLP.ligand.torsion>
0.8327

> <Gold.PLP.Chemscore.Hbond>
2.0000

> <Gold.PLP.Chemscore.CHOScore>
0.0000

> <Gold.PLP.Chemscore.Metal>
0.0000

> <Gold.Chemscore.Hbonds>
donor molecule, donor type, donor heavy atom, donor atom, acceptor molecule, acceptor atom, score
      P1  H  7997  8009       L1     9  1.00
      P1  H 10752 10765       L1    14  1.00

> <Gold.PLP.Chemscore.Internal.Correction>
0.3394

> <Gold.Rescore>
     Score         DG    S(hbond)    S(metal)    S(lipo)     H(rot)  DE(clash)    DE(int)     intcor
     12.96     -15.18       1.93        0.00      81.69       2.46       0.01       2.21       ----

> <Gold.Chemscore.Fitness>
12.9607

> <Gold.Chemscore.DG>
-15.1796

> <Gold.Chemscore.ZeroCoef>
-5.4800

> <Gold.Chemscore.Hbond>
1.9292

> <Gold.Chemscore.Metal>
0.0000

> <Gold.Chemscore.Lipo>
81.6886

> <Gold.Chemscore.Internal_Hbond>
0.0000

> <Gold.Chemscore.DEClash>
0.0073

> <Gold.Chemscore.DEInternal>
2.2115

> <Gold.Chemscore.Rot>
2.4616

> <Gold.Chemscore.Internal.Correction>
   9.000000E+99

> <Gold.Chemscore.Hbonds>
donor molecule, donor type, donor heavy atom, donor atom, acceptor molecule, acceptor atom, score
      P1  H  7997  8009       L1     9  1.00
      P1  H 10752 10765       L1    14  0.45

> <Gold.Chemscore.Hbond.Weighted>
-6.4437

> <Gold.Chemscore.Metal.Weighted>
-0.0000

> <Gold.Chemscore.Lipo.Weighted>
-9.5576

> <Gold.Chemscore.Internal_Hbond.Weighted>
0.0000

> <Gold.Chemscore.DEClash.Weighted>
0.0073

> <Gold.Chemscore.DEInternal.Weighted>
2.2115

> <Gold.Chemscore.Rot.Weighted>
6.3016

> <Gold.Chemscore.Internal.Correction.Weighted>
   9.000000E+99

> <Gold.Protein.RotatedTorsions>
[ 6907 6896 6895 6894 ] final   20.62 input  -60.11 | X-H torsion
[ 7974 7965 7964 7962 ] final  -73.23 input  175.53 | X-H torsion
[ 8008 7997 7996 7995 ] final  175.35 input   59.86 | X-H torsion
[ 10167 10162 10161 10158 ] final  147.45 input  -65.29 | X-H torsion
[ 10718 10713 10712 10709 ] final   44.21 input   66.30 | X-H torsion
[ 10763 10752 10751 10750 ] final -124.49 input  -60.55 | X-H torsion
[ 11005 11000 10999 10996 ] final  -16.36 input  -57.11 | X-H torsion

> <Gold.Protein.ActiveResidues>
 VAL166  LYS551  ARG553  GLY616  TRP617  ASP618  TYR619  PRO620  LYS621  CYS622 
 ASP623  PHE694  ASN695  SER759  ASP760  ASP761  ALA762  ILE779  LEU786  VAL792 
 PHE793  MET794  SER795  GLU796  ALA797  LYS798  CYS799  TRP800  GLU811  SER814 

> <Gold.Protein.RotatedAtoms>
  151.8992  135.0385  160.0504 H   0  0  0  0  0  0  0  0  0  0  0  0  # atno 6907 bound_to 6896
  152.2372  133.5101  159.5258 H   0  0  0  0  0  0  0  0  0  0  0  0  # atno 6908 bound_to 6896
  150.7043  134.1054  159.4023 H   0  0  0  0  0  0  0  0  0  0  0  0  # atno 6909 bound_to 6896
  145.6549  140.9271  143.0965 H   0  0  0  0  0  0  0  0  0  0  0  0  # atno 7974 bound_to 7965
  156.0879  140.1411  156.9629 H   0  0  0  0  0  0  0  0  0  0  0  0  # atno 8008 bound_to 7997
  154.4624  140.0938  156.6976 H   0  0  0  0  0  0  0  0  0  0  0  0  # atno 8009 bound_to 7997
  155.4968  140.3449  155.4366 H   0  0  0  0  0  0  0  0  0  0  0  0  # atno 8010 bound_to 7997
  139.4890  144.5754  151.6975 H   0  0  0  0  0  0  0  0  0  0  0  0  # atno 10167 bound_to 10162
  157.4244  130.7988  149.7545 H   0  0  0  0  0  0  0  0  0  0  0  0  # atno 10718 bound_to 10713
  154.8724  135.4062  154.3114 H   0  0  0  0  0  0  0  0  0  0  0  0  # atno 10763 bound_to 10752
  153.3957  135.7016  153.6468 H   0  0  0  0  0  0  0  0  0  0  0  0  # atno 10764 bound_to 10752
  153.5231  135.3683  155.2612 H   0  0  0  0  0  0  0  0  0  0  0  0  # atno 10765 bound_to 10752
  140.8060  133.8177  155.9516 H   0  0  0  0  0  0  0  0  0  0  0  0  # atno 11005 bound_to 11000
  144.7109  139.8374  143.7415 LP  0  0  0  0  0  0  0  0  0  0  0  0  # atno 17320 bound_to 7965
  146.1173  139.4186  143.0250 LP  0  0  0  0  0  0  0  0  0  0  0  0  # atno 17321 bound_to 7965
  140.5349  144.0671  150.6067 LP  0  0  0  0  0  0  0  0  0  0  0  0  # atno 17342 bound_to 10162
  140.3674  143.2874  152.0317 LP  0  0  0  0  0  0  0  0  0  0  0  0  # atno 17343 bound_to 10162
  155.9891  130.3954  150.3087 LP  0  0  0  0  0  0  0  0  0  0  0  0  # atno 17370 bound_to 10713
  157.1238  131.0253  151.2998 LP  0  0  0  0  0  0  0  0  0  0  0  0  # atno 17371 bound_to 10713
  140.9246  134.2098  157.4904 LP  0  0  0  0  0  0  0  0  0  0  0  0  # atno 17394 bound_to 11000
  139.8717  134.9807  156.5086 LP  0  0  0  0  0  0  0  0  0  0  0  0  # atno 17395 bound_to 11000

$$$$
