AV-unprocessed.smi:1368|AV-procd|sdf|5576|dock9
  -GOLD-   22720 5173D 1   1.00000     0.00000
 Structure written by MMmdl.
 46 48  0  0  0  0  0  0  0  0  1 V2000
  148.0272  134.4412  162.6496 C   0  0  0  0  0  0  0  0  0  0  0  0
  148.4255  135.3565  161.4958 C   0  0  0  0  0  0  0  0  0  0  0  0
  148.2190  136.5655  161.5893 O   0  0  0  0  0  0  0  0  0  0  0  0
  149.0118  134.7508  160.4461 N   0  0  0  0  0  0  0  0  0  0  0  0
  149.4800  135.3202  159.2299 C   0  0  0  0  0  0  0  0  0  0  0  0
  150.1704  136.5457  159.3170 C   0  0  0  0  0  0  0  0  0  0  0  0
  150.6794  137.1643  158.1594 C   0  0  0  0  0  0  0  0  0  0  0  0
  150.5182  136.5695  156.8924 C   0  0  0  0  0  0  0  0  0  0  0  0
  151.0456  137.2436  155.8118 O   0  0  0  0  0  0  0  0  0  0  0  0
  152.1770  138.0773  156.0266 C   0  0  0  0  0  0  0  0  0  0  0  0
  151.7540  139.5466  155.8716 C   0  0  1  0  0  0  0  0  0  0  0  0
  150.9525  139.6603  154.7118 O   0  0  0  0  0  0  0  0  0  0  0  0
  150.9523  140.0404  157.0932 C   0  0  0  0  0  0  0  0  0  0  0  0
  151.7675  140.7780  158.0496 N   0  0  0  0  0  0  0  0  0  0  0  0
  152.7490  140.2996  158.8531 C   0  0  0  0  0  0  0  0  0  0  0  0
  153.1369  138.8551  158.8523 C   0  0  0  0  0  0  0  0  0  0  0  0
  153.3406  141.1939  159.6451 N   0  0  0  0  0  0  0  0  0  0  0  0
  152.6790  142.3644  159.3270 C   0  0  0  0  0  0  0  0  0  0  0  0
  152.8414  143.6764  159.8272 C   0  0  0  0  0  0  0  0  0  0  0  0
  152.0374  144.7294  159.3435 C   0  0  0  0  0  0  0  0  0  0  0  0
  151.0621  144.4867  158.3546 C   0  0  0  0  0  0  0  0  0  0  0  0
  150.8829  143.1868  157.8439 C   0  0  0  0  0  0  0  0  0  0  0  0
  151.6872  142.1388  158.3304 C   0  0  0  0  0  0  0  0  0  0  0  0
  149.8380  135.3293  156.8056 C   0  0  0  0  0  0  0  0  0  0  0  0
  149.3279  134.7089  157.9626 C   0  0  0  0  0  0  0  0  0  0  0  0
  147.8036  133.4339  162.2960 H   0  0  0  0  0  0  0  0  0  0  0  0
  147.1405  134.8264  163.1542 H   0  0  0  0  0  0  0  0  0  0  0  0
  148.8362  134.3794  163.3779 H   0  0  0  0  0  0  0  0  0  0  0  0
  149.1900  133.7630  160.5549 H   0  0  0  0  0  0  0  0  0  0  0  0
  150.3099  137.0230  160.2764 H   0  0  0  0  0  0  0  0  0  0  0  0
  151.2002  138.1068  158.2452 H   0  0  0  0  0  0  0  0  0  0  0  0
  152.6258  137.9050  157.0068 H   0  0  0  0  0  0  0  0  0  0  0  0
  152.9261  137.8372  155.2701 H   0  0  0  0  0  0  0  0  0  0  0  0
  152.6400  140.1701  155.7487 H   0  0  0  0  0  0  0  0  0  0  0  0
  150.0446  139.6118  154.9699 H   0  0  0  0  0  0  0  0  0  0  0  0
  150.1317  140.6823  156.7701 H   0  0  0  0  0  0  0  0  0  0  0  0
  150.4885  139.1978  157.6066 H   0  0  0  0  0  0  0  0  0  0  0  0
  153.9598  138.6804  159.5463 H   0  0  0  0  0  0  0  0  0  0  0  0
  153.4581  138.5476  157.8574 H   0  0  0  0  0  0  0  0  0  0  0  0
  152.2934  138.2372  159.1599 H   0  0  0  0  0  0  0  0  0  0  0  0
  153.5861  143.8728  160.5844 H   0  0  0  0  0  0  0  0  0  0  0  0
  152.1701  145.7283  159.7327 H   0  0  0  0  0  0  0  0  0  0  0  0
  150.4520  145.2990  157.9876 H   0  0  0  0  0  0  0  0  0  0  0  0
  150.1388  142.9974  157.0846 H   0  0  0  0  0  0  0  0  0  0  0  0
  149.6964  134.8272  155.8608 H   0  0  0  0  0  0  0  0  0  0  0  0
  148.8354  133.7558  157.8503 H   0  0  0  0  0  0  0  0  0  0  0  0
  1  2  1  0  0  0  0
  1 26  1  0  0  0  0
  1 27  1  0  0  0  0
  1 28  1  0  0  0  0
  2  3  2  0  0  0  0
  2  4  1  0  0  0  0
  4  5  1  0  0  0  0
  4 29  1  0  0  0  0
  5 25  1  0  0  0  0
  5  6  2  0  0  0  0
  6  7  1  0  0  0  0
  6 30  1  0  0  0  0
  7  8  2  0  0  0  0
  7 31  1  0  0  0  0
  8  9  1  0  0  0  0
  8 24  1  0  0  0  0
  9 10  1  0  0  0  0
 10 11  1  0  0  0  0
 10 32  1  0  0  0  0
 10 33  1  0  0  0  0
 11 12  1  0  0  0  0
 11 13  1  0  0  0  0
 11 34  1  0  0  0  0
 12 35  1  0  0  0  0
 13 14  1  0  0  0  0
 13 36  1  0  0  0  0
 13 37  1  0  0  0  0
 14 23  1  0  0  0  0
 14 15  1  0  0  0  0
 15 16  1  0  0  0  0
 15 17  2  0  0  0  0
 16 38  1  0  0  0  0
 16 39  1  0  0  0  0
 16 40  1  0  0  0  0
 17 18  1  0  0  0  0
 18 23  2  0  0  0  0
 18 19  1  0  0  0  0
 19 20  2  0  0  0  0
 19 41  1  0  0  0  0
 20 21  1  0  0  0  0
 20 42  1  0  0  0  0
 21 22  2  0  0  0  0
 21 43  1  0  0  0  0
 22 23  1  0  0  0  0
 22 44  1  0  0  0  0
 24 25  2  0  0  0  0
 24 45  1  0  0  0  0
 25 46  1  0  0  0  0
M  END
> <s_m_source_file>
AV-unprocessed.smi

> <i_m_source_file_index>
1368

> <i_lp_mmshare_version>
43012

> <i_f3d_flags>
0

> <s_epik_input>
W0NIM11DKD1PKVtOSF1jMVtjSF1bY0hdYyhbY0hdW2NIXTEpT1tDSDJdW0NASF0oW09IXSlbQ0gyXW4oYyhuMilbQ0gzXSljKGMyMylbY0hdW2NIXVtjSF1bY0hdMw==

> <s_epik_cmdline>
J2VwaWtfcHl0aG9uJywgJy1waCcsICc3LjAnLCAnLXRuJywgJzgnLCAnLW1hJywgJzIwMCcsICctbWV0YWxfYmluZGluZycsICctaW1hZScsICc8aW5maWxlLm1hZT4nLCAnLW9tYWUnLCAnPG91dGZpbGUubWFlPic=

> <r_lp_tautomer_probability>
1

> <r_epik_Ionization_Penalty>
0.119634

> <r_epik_Ionization_Penalty_Charging>
0

> <r_epik_Ionization_Penalty_Neutral>
0.119634

> <r_epik_State_Penalty>
0.10919

> <r_epik_Charging_Adjusted_Penalty>
0.10919

> <i_epik_Tot_Q>
0

> <i_epik_Tot_abs_Q>
0

> <r_epik_Metal_State_Penalty>
0.0906856

> <b_epik_Metal_Only>
0

> <s_lp_Force_Field>
OPLS_2005

> <r_lp_Energy>
21.7849

> <b_lp_Chiralities_Consistent>
1

> <s_lp_Variant>
AV-unprocessed.smi:1368-2

> <Gold.Version>
5.8.1

> <Gold.Id.Protein>
6NUR|6NUR_protein|mol2

> <Gold.PLP.Fitness>
52.5287

> <Gold.PLP.PLP>
-47.4864

> <Gold.PLP.part.hbond>
-3.0000

> <Gold.PLP.part.metal>
0.0000

> <Gold.PLP.part.buried>
-7.5659

> <Gold.PLP.part.nonpolar>
-37.1442

> <Gold.PLP.part.repulsive>
0.1509

> <Gold.PLP.ligand.clash>
0.0000

> <Gold.PLP.ligand.torsion>
1.7557

> <Gold.PLP.Chemscore.Hbond>
2.8240

> <Gold.PLP.Chemscore.CHOScore>
0.0000

> <Gold.PLP.Chemscore.Metal>
0.0000

> <Gold.Chemscore.Hbonds>
donor molecule, donor type, donor heavy atom, donor atom, acceptor molecule, acceptor atom, score
      P1  H  6931  6943       L1     3  1.00
      P1  H  7989  7998       L1    12  1.00

> <Gold.PLP.Chemscore.Internal.Correction>
0.0816

> <Gold.Rescore>
     Score         DG    S(hbond)    S(metal)    S(lipo)     H(rot)  DE(clash)    DE(int)     intcor
     19.28     -22.08       2.73        0.00     116.33       2.39       0.00       2.79       ----

> <Gold.Chemscore.Fitness>
19.2803

> <Gold.Chemscore.DG>
-22.0751

> <Gold.Chemscore.ZeroCoef>
-5.4800

> <Gold.Chemscore.Hbond>
2.7265

> <Gold.Chemscore.Metal>
0.0000

> <Gold.Chemscore.Lipo>
116.3308

> <Gold.Chemscore.Internal_Hbond>
0.0000

> <Gold.Chemscore.DEClash>
0.0000

> <Gold.Chemscore.DEInternal>
2.7948

> <Gold.Chemscore.Rot>
2.3914

> <Gold.Chemscore.Internal.Correction>
   9.000000E+99

> <Gold.Chemscore.Hbonds>
donor molecule, donor type, donor heavy atom, donor atom, acceptor molecule, acceptor atom, score
      P1  H  6931  6943       L1     3  1.00
      P1  H  7989  7998       L1    12  0.85

> <Gold.Chemscore.Hbond.Weighted>
-9.1064

> <Gold.Chemscore.Metal.Weighted>
-0.0000

> <Gold.Chemscore.Lipo.Weighted>
-13.6107

> <Gold.Chemscore.Internal_Hbond.Weighted>
0.0000

> <Gold.Chemscore.DEClash.Weighted>
0.0000

> <Gold.Chemscore.DEInternal.Weighted>
2.7948

> <Gold.Chemscore.Rot.Weighted>
6.1220

> <Gold.Chemscore.Internal.Correction.Weighted>
   9.000000E+99

> <Gold.Protein.RotatedTorsions>
[ 6907 6896 6895 6894 ] final  153.84 input  -60.11 | X-H torsion
[ 7974 7965 7964 7962 ] final  102.69 input  175.53 | X-H torsion
[ 8008 7997 7996 7995 ] final  -67.79 input   59.86 | X-H torsion
[ 10167 10162 10161 10158 ] final  -73.21 input  -65.29 | X-H torsion
[ 10718 10713 10712 10709 ] final  141.89 input   66.30 | X-H torsion
[ 10763 10752 10751 10750 ] final -134.51 input  -60.55 | X-H torsion
[ 11005 11000 10999 10996 ] final -140.08 input  -57.11 | X-H torsion

> <Gold.Protein.ActiveResidues>
 VAL166  LYS551  ARG553  GLY616  TRP617  ASP618  TYR619  PRO620  LYS621  CYS622 
 ASP623  PHE694  ASN695  SER759  ASP760  ASP761  ALA762  ILE779  LEU786  VAL792 
 PHE793  MET794  SER795  GLU796  ALA797  LYS798  CYS799  TRP800  GLU811  SER814 

> <Gold.Protein.RotatedAtoms>
  152.0670  133.4089  159.4442 H   0  0  0  0  0  0  0  0  0  0  0  0  # atno 6907 bound_to 6896
  150.6864  134.3135  159.4765 H   0  0  0  0  0  0  0  0  0  0  0  0  # atno 6908 bound_to 6896
  152.0962  134.9372  160.0621 H   0  0  0  0  0  0  0  0  0  0  0  0  # atno 6909 bound_to 6896
  145.3558  139.2429  143.3534 H   0  0  0  0  0  0  0  0  0  0  0  0  # atno 7974 bound_to 7965
  154.4823  140.0886  156.7406 H   0  0  0  0  0  0  0  0  0  0  0  0  # atno 8008 bound_to 7997
  155.4438  140.3455  155.4274 H   0  0  0  0  0  0  0  0  0  0  0  0  # atno 8009 bound_to 7997
  156.1210  140.1474  156.9192 H   0  0  0  0  0  0  0  0  0  0  0  0  # atno 8010 bound_to 7997
  140.5129  143.2342  151.7562 H   0  0  0  0  0  0  0  0  0  0  0  0  # atno 10167 bound_to 10162
  157.3868  131.0999  151.0685 H   0  0  0  0  0  0  0  0  0  0  0  0  # atno 10718 bound_to 10713
  154.8718  135.3732  154.4747 H   0  0  0  0  0  0  0  0  0  0  0  0  # atno 10763 bound_to 10752
  153.5405  135.7026  153.5644 H   0  0  0  0  0  0  0  0  0  0  0  0  # atno 10764 bound_to 10752
  153.3808  135.3997  155.1820 H   0  0  0  0  0  0  0  0  0  0  0  0  # atno 10765 bound_to 10752
  140.8458  134.2347  157.4787 H   0  0  0  0  0  0  0  0  0  0  0  0  # atno 11005 bound_to 11000
  146.2949  140.4182  142.8725 LP  0  0  0  0  0  0  0  0  0  0  0  0  # atno 17320 bound_to 7965
  144.8684  140.7238  143.6063 LP  0  0  0  0  0  0  0  0  0  0  0  0  # atno 17321 bound_to 7965
  139.4901  144.4365  151.9813 LP  0  0  0  0  0  0  0  0  0  0  0  0  # atno 17342 bound_to 10162
  140.3458  144.3148  150.5958 LP  0  0  0  0  0  0  0  0  0  0  0  0  # atno 17343 bound_to 10162
  157.1733  130.6277  149.5648 LP  0  0  0  0  0  0  0  0  0  0  0  0  # atno 17370 bound_to 10713
  155.9789  130.4778  150.6681 LP  0  0  0  0  0  0  0  0  0  0  0  0  # atno 17371 bound_to 10713
  139.8703  134.9658  156.4542 LP  0  0  0  0  0  0  0  0  0  0  0  0  # atno 17394 bound_to 11000
  140.8845  133.7893  155.9503 LP  0  0  0  0  0  0  0  0  0  0  0  0  # atno 17395 bound_to 11000

$$$$
