AV-unprocessed.smi:2093|AV-procd|sdf|8548|dock3
  -GOLD-   2272011273D 1   1.00000     0.00000
 Structure written by MMmdl.
 30 31  0  0  0  0  0  0  0  0  2 V2000
  154.3205  140.1562  160.8588 C   0  0  0  0  0  0  0  0  0  0  0  0
  153.1320  140.8237  160.1430 C   0  0  2  0  0  0  0  0  0  0  0  0
  153.1853  140.5234  158.7136 N   0  0  0  0  0  0  0  0  0  0  0  0
  152.1947  140.0025  157.9751 C   0  0  0  0  0  0  0  0  0  0  0  0
  151.1166  139.7185  158.5023 O   0  0  0  0  0  0  0  0  0  0  0  0
  152.5155  139.8421  156.6709 N   0  5  0  0  0  0  0  0  0  0  0  0
  151.6866  139.1750  155.8515 C   0  0  0  0  0  0  0  0  0  0  0  0
  151.0608  139.7535  154.8202 N   0  0  0  0  0  0  0  0  0  0  0  0
  150.2421  138.8775  154.1054 C   0  0  0  0  0  0  0  0  0  0  0  0
  150.2369  137.6041  154.6094 C   0  0  0  0  0  0  0  0  0  0  0  0
  151.2663  137.4666  156.0062 S   0  0  0  0  0  0  0  0  0  0  0  0
  153.1186  142.3528  160.3370 C   0  0  2  0  0  0  0  0  0  0  0  0
  152.7348  142.8148  161.7434 C   0  0  0  0  0  0  0  0  0  0  0  0
  152.2545  144.2240  161.4836 C   0  0  0  0  0  0  0  0  0  0  0  0
  151.5369  144.0729  160.1453 C   0  0  0  0  0  0  0  0  0  0  0  0
  152.1388  142.9567  159.4946 O   0  0  0  0  0  0  0  0  0  0  0  0
  154.2820  140.3235  161.9352 H   0  0  0  0  0  0  0  0  0  0  0  0
  155.2716  140.5455  160.4941 H   0  0  0  0  0  0  0  0  0  0  0  0
  154.3218  139.0770  160.7019 H   0  0  0  0  0  0  0  0  0  0  0  0
  152.2047  140.4214  160.5547 H   0  0  0  0  0  0  0  0  0  0  0  0
  154.0474  140.7434  158.2367 H   0  0  0  0  0  0  0  0  0  0  0  0
  149.6970  139.2474  153.2499 H   0  0  0  0  0  0  0  0  0  0  0  0
  149.6935  136.7441  154.2488 H   0  0  0  0  0  0  0  0  0  0  0  0
  154.0897  142.7766  160.0744 H   0  0  0  0  0  0  0  0  0  0  0  0
  151.9182  142.2091  162.1386 H   0  0  0  0  0  0  0  0  0  0  0  0
  153.5656  142.7734  162.4482 H   0  0  0  0  0  0  0  0  0  0  0  0
  151.6088  144.6105  162.2726 H   0  0  0  0  0  0  0  0  0  0  0  0
  153.1078  144.8957  161.3791 H   0  0  0  0  0  0  0  0  0  0  0  0
  150.4797  143.8538  160.2987 H   0  0  0  0  0  0  0  0  0  0  0  0
  151.6111  144.9737  159.5356 H   0  0  0  0  0  0  0  0  0  0  0  0
  1  2  1  0  0  0  0
  1 17  1  0  0  0  0
  1 18  1  0  0  0  0
  1 19  1  0  0  0  0
  2  3  1  0  0  0  0
  2 12  1  0  0  0  0
  2 20  1  0  0  0  0
  3  4  1  0  0  0  0
  3 21  1  0  0  0  0
  4  5  2  0  0  0  0
  4  6  1  0  0  0  0
  6  7  1  0  0  0  0
  7 11  1  0  0  0  0
  7  8  2  0  0  0  0
  8  9  1  0  0  0  0
  9 10  2  0  0  0  0
  9 22  1  0  0  0  0
 10 11  1  0  0  0  0
 10 23  1  0  0  0  0
 12 16  1  0  0  0  0
 12 13  1  0  0  0  0
 12 24  1  0  0  0  0
 13 14  1  0  0  0  0
 13 25  1  0  0  0  0
 13 26  1  0  0  0  0
 14 15  1  0  0  0  0
 14 27  1  0  0  0  0
 14 28  1  0  0  0  0
 15 16  1  0  0  0  0
 15 29  1  0  0  0  0
 15 30  1  0  0  0  0
M  CHG  1   6  -1
M  END
> <s_m_source_file>
AV-unprocessed.smi

> <i_m_source_file_index>
2093

> <i_lp_mmshare_version>
43012

> <i_f3d_flags>
0

> <s_epik_input>
TzFbQ0gyXVtDSDJdW0NIMl1bQ0BIXTFbQ0BIXShbQ0gzXSlbTkhdQyg9TylbTkhdYzJuW2NIXVtjSF1zMg==

> <s_epik_cmdline>
J2VwaWtfcHl0aG9uJywgJy1waCcsICc3LjAnLCAnLXRuJywgJzgnLCAnLW1hJywgJzIwMCcsICctbWV0YWxfYmluZGluZycsICctaW1hZScsICc8aW5maWxlLm1hZT4nLCAnLW9tYWUnLCAnPG91dGZpbGUubWFlPic=

> <r_lp_tautomer_probability>
0.999

> <r_epik_Ionization_Penalty>
8.26346

> <r_epik_Ionization_Penalty_Charging>
6.6559

> <r_epik_Ionization_Penalty_Neutral>
1.60756

> <r_epik_State_Penalty>
6.65607

> <r_epik_Charging_Adjusted_Penalty>
13.312

> <i_epik_Tot_Q>
-1

> <i_epik_Tot_abs_Q>
1

> <r_epik_Metal_State_Penalty>
2.5789

> <b_epik_Metal_Only>
1

> <s_lp_Force_Field>
OPLS_2005

> <r_lp_Energy>
13.8271

> <b_lp_Chiralities_Consistent>
1

> <s_lp_Variant>
AV-unprocessed.smi:2093-5

> <Gold.Version>
5.8.1

> <Gold.Id.Protein>
6NUR|6NUR_protein|mol2

> <Gold.PLP.Fitness>
47.3011

> <Gold.PLP.PLP>
-33.9006

> <Gold.PLP.part.hbond>
-2.0000

> <Gold.PLP.part.metal>
0.0000

> <Gold.PLP.part.buried>
-4.1632

> <Gold.PLP.part.nonpolar>
-27.9432

> <Gold.PLP.part.repulsive>
0.6074

> <Gold.PLP.ligand.clash>
0.0000

> <Gold.PLP.ligand.torsion>
0.8343

> <Gold.PLP.Chemscore.Hbond>
3.0000

> <Gold.PLP.Chemscore.CHOScore>
1.9991

> <Gold.PLP.Chemscore.Metal>
0.0000

> <Gold.Chemscore.Hbonds>
donor molecule, donor type, donor heavy atom, donor atom, acceptor molecule, acceptor atom, score
      P1  H  7989  7998       L1     8  1.00
      P1  H  7997  8010       L1     6  2.00
      L1  C     9    22       P1  7957  1.00
      L1  C    10    23       P1  7948  0.96

> <Gold.PLP.Chemscore.Internal.Correction>
0.0719

> <Gold.Rescore>
     Score         DG    S(hbond)    S(metal)    S(lipo)     H(rot)  DE(clash)    DE(int)     intcor
     16.07     -16.73       1.52        0.00      80.82       1.28       0.07       0.58       ----

> <Gold.Chemscore.Fitness>
16.0739

> <Gold.Chemscore.DG>
-16.7261

> <Gold.Chemscore.ZeroCoef>
-5.4800

> <Gold.Chemscore.Hbond>
1.5153

> <Gold.Chemscore.Metal>
0.0000

> <Gold.Chemscore.Lipo>
80.8213

> <Gold.Chemscore.Internal_Hbond>
0.0000

> <Gold.Chemscore.DEClash>
0.0727

> <Gold.Chemscore.DEInternal>
0.5794

> <Gold.Chemscore.Rot>
1.2778

> <Gold.Chemscore.Internal.Correction>
   9.000000E+99

> <Gold.Chemscore.Hbonds>
donor molecule, donor type, donor heavy atom, donor atom, acceptor molecule, acceptor atom, score
      P1  H  7989  7998       L1     8  0.30
      P1  H  7997  8010       L1     6  0.74

> <Gold.Chemscore.Hbond.Weighted>
-5.0611

> <Gold.Chemscore.Metal.Weighted>
-0.0000

> <Gold.Chemscore.Lipo.Weighted>
-9.4561

> <Gold.Chemscore.Internal_Hbond.Weighted>
0.0000

> <Gold.Chemscore.DEClash.Weighted>
0.0727

> <Gold.Chemscore.DEInternal.Weighted>
0.5794

> <Gold.Chemscore.Rot.Weighted>
3.2711

> <Gold.Chemscore.Internal.Correction.Weighted>
   9.000000E+99

> <Gold.Protein.RotatedTorsions>
[ 6907 6896 6895 6894 ] final  135.23 input  -60.11 | X-H torsion
[ 7974 7965 7964 7962 ] final  -54.25 input  175.53 | X-H torsion
[ 8008 7997 7996 7995 ] final   72.74 input   59.86 | X-H torsion
[ 10167 10162 10161 10158 ] final   70.23 input  -65.29 | X-H torsion
[ 10718 10713 10712 10709 ] final   90.85 input   66.30 | X-H torsion
[ 10763 10752 10751 10750 ] final   76.08 input  -60.55 | X-H torsion
[ 11005 11000 10999 10996 ] final  151.34 input  -57.11 | X-H torsion

> <Gold.Protein.ActiveResidues>
 VAL166  LYS551  ARG553  GLY616  TRP617  ASP618  TYR619  PRO620  LYS621  CYS622 
 ASP623  PHE694  ASN695  SER759  ASP760  ASP761  ALA762  ILE779  LEU786  VAL792 
 PHE793  MET794  SER795  GLU796  ALA797  LYS798  CYS799  TRP800  GLU811  SER814 

> <Gold.Protein.RotatedAtoms>
  152.3027  133.5672  159.5628 H   0  0  0  0  0  0  0  0  0  0  0  0  # atno 6907 bound_to 6896
  150.7285  134.0267  159.3728 H   0  0  0  0  0  0  0  0  0  0  0  0  # atno 6908 bound_to 6896
  151.8166  135.0665  160.0470 H   0  0  0  0  0  0  0  0  0  0  0  0  # atno 6909 bound_to 6896
  145.8876  140.8095  142.9808 H   0  0  0  0  0  0  0  0  0  0  0  0  # atno 7974 bound_to 7965
  155.7733  140.3484  155.5258 H   0  0  0  0  0  0  0  0  0  0  0  0  # atno 8008 bound_to 7997
  155.8800  140.1000  157.1512 H   0  0  0  0  0  0  0  0  0  0  0  0  # atno 8009 bound_to 7997
  154.4024  140.1324  156.4172 H   0  0  0  0  0  0  0  0  0  0  0  0  # atno 8010 bound_to 7997
  140.0592  144.5247  150.7307 H   0  0  0  0  0  0  0  0  0  0  0  0  # atno 10167 bound_to 10162
  157.6959  131.0386  150.3641 H   0  0  0  0  0  0  0  0  0  0  0  0  # atno 10718 bound_to 10713
  153.0700  135.4964  154.8284 H   0  0  0  0  0  0  0  0  0  0  0  0  # atno 10763 bound_to 10752
  154.7009  135.3001  154.9345 H   0  0  0  0  0  0  0  0  0  0  0  0  # atno 10764 bound_to 10752
  154.0069  135.6759  153.4815 H   0  0  0  0  0  0  0  0  0  0  0  0  # atno 10765 bound_to 10752
  140.1210  134.8863  157.2072 H   0  0  0  0  0  0  0  0  0  0  0  0  # atno 11005 bound_to 11000
  144.6729  140.1480  143.7432 LP  0  0  0  0  0  0  0  0  0  0  0  0  # atno 17320 bound_to 7965
  145.8947  139.2396  143.1529 LP  0  0  0  0  0  0  0  0  0  0  0  0  # atno 17321 bound_to 7965
  140.7180  143.2562  151.4371 LP  0  0  0  0  0  0  0  0  0  0  0  0  # atno 17342 bound_to 10162
  139.5904  144.1511  152.2081 LP  0  0  0  0  0  0  0  0  0  0  0  0  # atno 17343 bound_to 10162
  156.4073  130.3927  149.6916 LP  0  0  0  0  0  0  0  0  0  0  0  0  # atno 17370 bound_to 10713
  156.4213  130.7770  151.2787 LP  0  0  0  0  0  0  0  0  0  0  0  0  # atno 17371 bound_to 10713
  140.2965  134.3180  155.7301 LP  0  0  0  0  0  0  0  0  0  0  0  0  # atno 17394 bound_to 11000
  141.2151  133.7566  156.9579 LP  0  0  0  0  0  0  0  0  0  0  0  0  # atno 17395 bound_to 11000

$$$$
