AV-unprocessed.smi:598|AV-procd|sdf|3021|dock9
  -GOLD-   2262023533D 1   1.00000     0.00000
 Structure written by MMmdl.
 43 44  0  0  0  0  0  0  0  0  3 V2000
  144.4761  134.0081  150.7924 C   0  0  0  0  0  0  0  0  0  0  0  0
  145.5801  134.4993  151.7459 C   0  0  2  0  0  0  0  0  0  0  0  0
  146.5590  133.3459  152.0486 C   0  0  0  0  0  0  0  0  0  0  0  0
  147.6967  133.7798  152.9826 C   0  0  0  0  0  0  0  0  0  0  0  0
  147.1445  134.3749  154.2867 C   0  0  0  0  0  0  0  0  0  0  0  0
  146.1693  135.5365  154.0202 C   0  0  1  0  0  0  0  0  0  0  0  0
  146.9059  136.6884  153.4953 N   0  0  0  0  0  0  0  0  0  0  0  0
  146.5876  137.9806  153.6681 C   0  0  0  0  0  0  0  0  0  0  0  0
  145.6367  138.3601  154.3522 O   0  0  0  0  0  0  0  0  0  0  0  0
  147.4865  138.9957  152.9517 C   0  0  0  0  0  0  0  0  0  0  0  0
  148.4670  139.6049  153.8645 N   0  0  0  0  0  0  0  0  0  0  0  0
  149.6497  138.8734  154.0910 C   0  0  0  0  0  0  0  0  0  0  0  0
  150.6353  139.3317  154.8865 C   0  0  0  0  0  0  0  0  0  0  0  0
  151.8466  138.5697  155.0968 N   0  3  0  0  0  0  0  0  0  0  0  0
  151.8972  137.4182  154.6773 O   0  0  0  0  0  0  0  0  0  0  0  0
  152.7857  139.0950  155.6878 O   0  5  0  0  0  0  0  0  0  0  0  0
  150.4442  140.6220  155.5197 C   0  0  0  0  0  0  0  0  0  0  0  0
  149.3167  141.3286  155.3046 C   0  0  0  0  0  0  0  0  0  0  0  0
  148.2478  140.8300  154.4324 C   0  0  0  0  0  0  0  0  0  0  0  0
  147.2212  141.4767  154.2247 O   0  0  0  0  0  0  0  0  0  0  0  0
  145.0223  135.1004  153.0664 C   0  0  1  0  0  0  0  0  0  0  0  0
  144.0069  136.2376  152.8314 C   0  0  0  0  0  0  0  0  0  0  0  0
  143.8309  133.2740  151.2760 H   0  0  0  0  0  0  0  0  0  0  0  0
  144.9055  133.5391  149.9066 H   0  0  0  0  0  0  0  0  0  0  0  0
  143.8496  134.8281  150.4419 H   0  0  0  0  0  0  0  0  0  0  0  0
  146.1346  135.2786  151.2212 H   0  0  0  0  0  0  0  0  0  0  0  0
  146.0172  132.5150  152.5029 H   0  0  0  0  0  0  0  0  0  0  0  0
  146.9828  132.9624  151.1197 H   0  0  0  0  0  0  0  0  0  0  0  0
  148.3363  132.9259  153.2079 H   0  0  0  0  0  0  0  0  0  0  0  0
  148.3286  134.5109  152.4771 H   0  0  0  0  0  0  0  0  0  0  0  0
  146.6278  133.5931  154.8448 H   0  0  0  0  0  0  0  0  0  0  0  0
  147.9655  134.7081  154.9230 H   0  0  0  0  0  0  0  0  0  0  0  0
  145.7283  135.8062  154.9814 H   0  0  0  0  0  0  0  0  0  0  0  0
  147.7114  136.4787  152.9240 H   0  0  0  0  0  0  0  0  0  0  0  0
  147.9698  138.4975  152.1099 H   0  0  0  0  0  0  0  0  0  0  0  0
  146.8736  139.7799  152.5035 H   0  0  0  0  0  0  0  0  0  0  0  0
  149.6966  137.9294  153.5670 H   0  0  0  0  0  0  0  0  0  0  0  0
  151.2039  141.0321  156.1686 H   0  0  0  0  0  0  0  0  0  0  0  0
  149.1958  142.2885  155.7850 H   0  0  0  0  0  0  0  0  0  0  0  0
  144.4775  134.3051  153.5780 H   0  0  0  0  0  0  0  0  0  0  0  0
  144.4203  137.0244  152.1996 H   0  0  0  0  0  0  0  0  0  0  0  0
  143.7049  136.6923  153.7753 H   0  0  0  0  0  0  0  0  0  0  0  0
  143.0983  135.8723  152.3536 H   0  0  0  0  0  0  0  0  0  0  0  0
  1  2  1  0  0  0  0
  1 23  1  0  0  0  0
  1 24  1  0  0  0  0
  1 25  1  0  0  0  0
  2 21  1  0  0  0  0
  2  3  1  0  0  0  0
  2 26  1  0  0  0  0
  3  4  1  0  0  0  0
  3 27  1  0  0  0  0
  3 28  1  0  0  0  0
  4  5  1  0  0  0  0
  4 29  1  0  0  0  0
  4 30  1  0  0  0  0
  5  6  1  0  0  0  0
  5 31  1  0  0  0  0
  5 32  1  0  0  0  0
  6  7  1  0  0  0  0
  6 21  1  0  0  0  0
  6 33  1  0  0  0  0
  7  8  1  0  0  0  0
  7 34  1  0  0  0  0
  8  9  2  0  0  0  0
  8 10  1  0  0  0  0
 10 11  1  0  0  0  0
 10 35  1  0  0  0  0
 10 36  1  0  0  0  0
 11 19  1  0  0  0  0
 11 12  1  0  0  0  0
 12 13  2  0  0  0  0
 12 37  1  0  0  0  0
 13 14  1  0  0  0  0
 13 17  1  0  0  0  0
 14 15  2  0  0  0  0
 14 16  1  0  0  0  0
 17 18  2  0  0  0  0
 17 38  1  0  0  0  0
 18 19  1  0  0  0  0
 18 39  1  0  0  0  0
 19 20  2  0  0  0  0
 21 22  1  0  0  0  0
 21 40  1  0  0  0  0
 22 41  1  0  0  0  0
 22 42  1  0  0  0  0
 22 43  1  0  0  0  0
M  CHG  1  14   1
M  CHG  1  16  -1
M  END
> <s_m_source_file>
AV-unprocessed.smi

> <i_m_source_file_index>
598

> <i_lp_mmshare_version>
43012

> <i_f3d_flags>
0

> <s_epik_input>
W0NIM11bQ0BASF0xW0NIMl1bQ0gyXVtDSDJdW0NASF0oW0NASF0xW0NIM10pW05IXUMoPU8pW0NIMl1uMltjSF1jKFtOK10oPU8pW08tXSlbY0hdW2NIXWMyPU8=

> <s_epik_cmdline>
J2VwaWtfcHl0aG9uJywgJy1waCcsICc3LjAnLCAnLXRuJywgJzgnLCAnLW1hJywgJzIwMCcsICctbWV0YWxfYmluZGluZycsICctaW1hZScsICc8aW5maWxlLm1hZT4nLCAnLW9tYWUnLCAnPG91dGZpbGUubWFlPic=

> <r_lp_tautomer_probability>
1

> <r_epik_Ionization_Penalty>
1.91291e-08

> <r_epik_Ionization_Penalty_Charging>
8.21931e-11

> <r_epik_Ionization_Penalty_Neutral>
1.90469e-08

> <r_epik_State_Penalty>
-0

> <r_epik_Charging_Adjusted_Penalty>
8.21931e-11

> <i_epik_Tot_Q>
0

> <i_epik_Tot_abs_Q>
2

> <r_epik_Metal_State_Penalty>
-0

> <b_epik_Metal_Only>
0

> <s_lp_Force_Field>
OPLS_2005

> <r_lp_Energy>
23.6598

> <b_lp_Chiralities_Consistent>
1

> <s_lp_Variant>
AV-unprocessed.smi:598-1

> <Gold.Version>
5.8.1

> <Gold.Id.Protein>
6NUR|6NUR_protein|mol2

> <Gold.PLP.Fitness>
42.1552

> <Gold.PLP.PLP>
-32.3012

> <Gold.PLP.part.hbond>
-3.0000

> <Gold.PLP.part.metal>
0.0000

> <Gold.PLP.part.buried>
-0.3625

> <Gold.PLP.part.nonpolar>
-29.6597

> <Gold.PLP.part.repulsive>
0.3702

> <Gold.PLP.ligand.clash>
0.0000

> <Gold.PLP.ligand.torsion>
0.9955

> <Gold.PLP.Chemscore.Hbond>
2.9440

> <Gold.PLP.Chemscore.CHOScore>
1.0000

> <Gold.PLP.Chemscore.Metal>
0.0000

> <Gold.Chemscore.Hbonds>
donor molecule, donor type, donor heavy atom, donor atom, acceptor molecule, acceptor atom, score
      L1  H     7    34       P1  7948  1.00
      P1  H  7997  8010       L1    16  1.00
      P1  H 10752 10764       L1    15  0.83
      L1  C    12    37       P1  7948  1.00

> <Gold.PLP.Chemscore.Internal.Correction>
0.0130

> <Gold.Rescore>
     Score         DG    S(hbond)    S(metal)    S(lipo)     H(rot)  DE(clash)    DE(int)     intcor
     17.23     -18.82       2.86        0.00      66.02       1.54       0.46       1.14       ----

> <Gold.Chemscore.Fitness>
17.2251

> <Gold.Chemscore.DG>
-18.8226

> <Gold.Chemscore.ZeroCoef>
-5.4800

> <Gold.Chemscore.Hbond>
2.8621

> <Gold.Chemscore.Metal>
0.0000

> <Gold.Chemscore.Lipo>
66.0160

> <Gold.Chemscore.Internal_Hbond>
0.0000

> <Gold.Chemscore.DEClash>
0.4586

> <Gold.Chemscore.DEInternal>
1.1390

> <Gold.Chemscore.Rot>
1.5393

> <Gold.Chemscore.Internal.Correction>
   9.000000E+99

> <Gold.Chemscore.Hbonds>
donor molecule, donor type, donor heavy atom, donor atom, acceptor molecule, acceptor atom, score
      L1  H     7    34       P1  7948  1.00
      P1  H  7997  8010       L1    16  0.99
      P1  H 10752 10764       L1    15  0.78

> <Gold.Chemscore.Hbond.Weighted>
-9.5595

> <Gold.Chemscore.Metal.Weighted>
-0.0000

> <Gold.Chemscore.Lipo.Weighted>
-7.7239

> <Gold.Chemscore.Internal_Hbond.Weighted>
0.0000

> <Gold.Chemscore.DEClash.Weighted>
0.4586

> <Gold.Chemscore.DEInternal.Weighted>
1.1390

> <Gold.Chemscore.Rot.Weighted>
3.9407

> <Gold.Chemscore.Internal.Correction.Weighted>
   9.000000E+99

> <Gold.Protein.RotatedTorsions>
[ 6907 6896 6895 6894 ] final  162.32 input  -60.11 | X-H torsion
[ 7974 7965 7964 7962 ] final -150.96 input  175.53 | X-H torsion
[ 8008 7997 7996 7995 ] final   93.20 input   59.86 | X-H torsion
[ 10167 10162 10161 10158 ] final  -91.21 input  -65.29 | X-H torsion
[ 10718 10713 10712 10709 ] final -139.21 input   66.30 | X-H torsion
[ 10763 10752 10751 10750 ] final  -69.47 input  -60.55 | X-H torsion
[ 11005 11000 10999 10996 ] final  173.58 input  -57.11 | X-H torsion

> <Gold.Protein.ActiveResidues>
 VAL166  LYS551  ARG553  GLY616  TRP617  ASP618  TYR619  PRO620  LYS621  CYS622 
 ASP623  PHE694  ASN695  SER759  ASP760  ASP761  ALA762  ILE779  LEU786  VAL792 
 PHE793  MET794  SER795  GLU796  ALA797  LYS798  CYS799  TRP800  GLU811  SER814 

> <Gold.Protein.RotatedAtoms>
  151.9423  133.3641  159.3969 H   0  0  0  0  0  0  0  0  0  0  0  0  # atno 6907 bound_to 6896
  150.6996  134.4427  159.5309 H   0  0  0  0  0  0  0  0  0  0  0  0  # atno 6908 bound_to 6896
  152.2086  134.8522  160.0551 H   0  0  0  0  0  0  0  0  0  0  0  0  # atno 6909 bound_to 6896
  144.7877  140.4862  143.5794 H   0  0  0  0  0  0  0  0  0  0  0  0  # atno 7974 bound_to 7965
  156.0440  140.3316  155.7276 H   0  0  0  0  0  0  0  0  0  0  0  0  # atno 8008 bound_to 7997
  155.5701  140.0627  157.2826 H   0  0  0  0  0  0  0  0  0  0  0  0  # atno 8009 bound_to 7997
  154.4406  140.1862  156.0859 H   0  0  0  0  0  0  0  0  0  0  0  0  # atno 8010 bound_to 7997
  140.3471  143.2911  151.9768 H   0  0  0  0  0  0  0  0  0  0  0  0  # atno 10167 bound_to 10162
  156.3082  130.7467  151.1536 H   0  0  0  0  0  0  0  0  0  0  0  0  # atno 10718 bound_to 10713
  154.4038  135.6025  153.5913 H   0  0  0  0  0  0  0  0  0  0  0  0  # atno 10763 bound_to 10752
  152.9788  135.5913  154.4152 H   0  0  0  0  0  0  0  0  0  0  0  0  # atno 10764 bound_to 10752
  154.3954  135.2842  155.2107 H   0  0  0  0  0  0  0  0  0  0  0  0  # atno 10765 bound_to 10752
  140.3421  134.7268  157.4209 H   0  0  0  0  0  0  0  0  0  0  0  0  # atno 11005 bound_to 11000
  145.5877  139.1493  143.3200 LP  0  0  0  0  0  0  0  0  0  0  0  0  # atno 17320 bound_to 7965
  146.2116  140.6004  142.9057 LP  0  0  0  0  0  0  0  0  0  0  0  0  # atno 17321 bound_to 7965
  139.4831  144.6107  151.7438 LP  0  0  0  0  0  0  0  0  0  0  0  0  # atno 17342 bound_to 10162
  140.5254  144.0814  150.6036 LP  0  0  0  0  0  0  0  0  0  0  0  0  # atno 17343 bound_to 10162
  157.7384  131.0540  150.5293 LP  0  0  0  0  0  0  0  0  0  0  0  0  # atno 17370 bound_to 10713
  156.5429  130.4212  149.6145 LP  0  0  0  0  0  0  0  0  0  0  0  0  # atno 17371 bound_to 10713
  140.0773  134.5780  155.8578 LP  0  0  0  0  0  0  0  0  0  0  0  0  # atno 17394 bound_to 11000
  141.2036  133.6633  156.6070 LP  0  0  0  0  0  0  0  0  0  0  0  0  # atno 17395 bound_to 11000

$$$$
