AV-unprocessed.smi:3071|AV-procd|sdf|11715|dock2
  -GOLD-   2272017113D 1   1.00000     0.00000
 Structure written by MMmdl.
 29 30  0  0  0  0  0  0  0  0  3 V2000
  151.5162  139.0702  154.9291 C   0  0  0  0  0  0  0  0  0  0  0  0
  150.3954  140.0577  154.8699 C   0  0  0  0  0  0  0  0  0  0  0  0
  149.5272  140.1873  153.8600 N   0  3  0  0  0  0  0  0  0  0  0  0
  148.6352  141.1907  154.1235 C   0  0  0  0  0  0  0  0  0  0  0  0
  148.9737  141.6967  155.3510 C   0  0  0  0  0  0  0  0  0  0  0  0
  150.0581  140.9787  155.7892 N   0  0  0  0  0  0  0  0  0  0  0  0
  150.7711  141.1651  157.0613 C   0  0  0  0  0  0  0  0  0  0  0  0
  151.1222  142.6388  157.3418 C   0  0  2  0  0  0  0  0  0  0  0  0
  152.2377  142.8568  158.3689 C   0  0  0  0  0  0  0  0  0  0  0  0
  151.9690  144.2735  158.8617 C   0  0  0  0  0  0  0  0  0  0  0  0
  150.4410  144.3654  158.8624 C   0  0  0  0  0  0  0  0  0  0  0  0
  149.9625  143.3959  157.8555 N   0  3  0  0  0  0  0  0  0  0  0  0
  151.4780  138.4358  154.0428 H   0  0  0  0  0  0  0  0  0  0  0  0
  151.4039  138.4602  155.8248 H   0  0  0  0  0  0  0  0  0  0  0  0
  152.4611  139.6133  154.9559 H   0  0  0  0  0  0  0  0  0  0  0  0
  147.8480  141.4626  153.4353 H   0  0  0  0  0  0  0  0  0  0  0  0
  148.5313  142.4942  155.9307 H   0  0  0  0  0  0  0  0  0  0  0  0
  150.1622  140.7500  157.8652 H   0  0  0  0  0  0  0  0  0  0  0  0
  151.6793  140.5621  157.0173 H   0  0  0  0  0  0  0  0  0  0  0  0
  151.4219  143.1238  156.4119 H   0  0  0  0  0  0  0  0  0  0  0  0
  152.1369  142.1542  159.1977 H   0  0  0  0  0  0  0  0  0  0  0  0
  153.2355  142.7387  157.9451 H   0  0  0  0  0  0  0  0  0  0  0  0
  152.4059  144.4738  159.8405 H   0  0  0  0  0  0  0  0  0  0  0  0
  152.3840  144.9940  158.1552 H   0  0  0  0  0  0  0  0  0  0  0  0
  150.0435  144.0745  159.8354 H   0  0  0  0  0  0  0  0  0  0  0  0
  150.0886  145.3736  158.6428 H   0  0  0  0  0  0  0  0  0  0  0  0
  149.4962  143.8725  157.0964 H   0  0  0  0  0  0  0  0  0  0  0  0
  149.3158  142.7625  158.3045 H   0  0  0  0  0  0  0  0  0  0  0  0
  149.5335  139.6231  153.0193 H   0  0  0  0  0  0  0  0  0  0  0  0
  1  2  1  0  0  0  0
  1 13  1  0  0  0  0
  1 14  1  0  0  0  0
  1 15  1  0  0  0  0
  2  6  1  0  0  0  0
  2  3  2  0  0  0  0
  3  4  1  0  0  0  0
  3 29  1  0  0  0  0
  4  5  2  0  0  0  0
  4 16  1  0  0  0  0
  5  6  1  0  0  0  0
  5 17  1  0  0  0  0
  6  7  1  0  0  0  0
  7  8  1  0  0  0  0
  7 18  1  0  0  0  0
  7 19  1  0  0  0  0
  8 12  1  0  0  0  0
  8  9  1  0  0  0  0
  8 20  1  0  0  0  0
  9 10  1  0  0  0  0
  9 21  1  0  0  0  0
  9 22  1  0  0  0  0
 10 11  1  0  0  0  0
 10 23  1  0  0  0  0
 10 24  1  0  0  0  0
 11 12  1  0  0  0  0
 11 25  1  0  0  0  0
 11 26  1  0  0  0  0
 12 27  1  0  0  0  0
 12 28  1  0  0  0  0
M  CHG  1   3   1
M  CHG  1  12   1
M  END
> <s_m_source_file>
AV-unprocessed.smi

> <i_m_source_file_index>
3071

> <i_lp_mmshare_version>
43012

> <i_f3d_flags>
0

> <s_epik_input>
W0NIM11jMW5bY0hdW2NIXW4xW0NIMl1bQ0BASF0yW0NIMl1bQ0gyXVtDSDJdW05IXTI=

> <s_epik_cmdline>
J2VwaWtfcHl0aG9uJywgJy1waCcsICc3LjAnLCAnLXRuJywgJzgnLCAnLW1hJywgJzIwMCcsICctbWV0YWxfYmluZGluZycsICctaW1hZScsICc8aW5maWxlLm1hZT4nLCAnLW9tYWUnLCAnPG91dGZpbGUubWFlPic=

> <r_lp_tautomer_probability>
1

> <r_epik_Ionization_Penalty>
0.770167

> <r_epik_Ionization_Penalty_Charging>
0.000985251

> <r_epik_Ionization_Penalty_Neutral>
0.769181

> <r_epik_State_Penalty>
0.493256

> <r_epik_Charging_Adjusted_Penalty>
0.494241

> <i_epik_Tot_Q>
2

> <i_epik_Tot_abs_Q>
2

> <r_epik_Metal_State_Penalty>
4.24699

> <b_epik_Metal_Only>
0

> <s_lp_Force_Field>
OPLS_2005

> <r_lp_Energy>
34.2939

> <b_lp_Chiralities_Consistent>
1

> <s_lp_Variant>
AV-unprocessed.smi:3071-3

> <Gold.Version>
5.8.1

> <Gold.Id.Protein>
6NUR|6NUR_protein|mol2

> <Gold.PLP.Fitness>
38.6742

> <Gold.PLP.PLP>
-28.3892

> <Gold.PLP.part.hbond>
-2.1341

> <Gold.PLP.part.metal>
0.0000

> <Gold.PLP.part.buried>
-1.0794

> <Gold.PLP.part.nonpolar>
-25.8782

> <Gold.PLP.part.repulsive>
0.7797

> <Gold.PLP.ligand.clash>
0.0000

> <Gold.PLP.ligand.torsion>
0.2967

> <Gold.PLP.Chemscore.Hbond>
2.6560

> <Gold.PLP.Chemscore.CHOScore>
0.9700

> <Gold.PLP.Chemscore.Metal>
0.0000

> <Gold.Chemscore.Hbonds>
donor molecule, donor type, donor heavy atom, donor atom, acceptor molecule, acceptor atom, score
      L1  H     3    29       P1  7957  0.67
      L1  H    12    27       P1  8028  2.00
      L1  C     5    17       P1  8028  0.94

> <Gold.PLP.Chemscore.Internal.Correction>
0.0005

> <Gold.Rescore>
     Score         DG    S(hbond)    S(metal)    S(lipo)     H(rot)  DE(clash)    DE(int)     intcor
     15.73     -16.00       1.67        0.00      69.40       1.25       0.12       0.14       ----

> <Gold.Chemscore.Fitness>
15.7323

> <Gold.Chemscore.DG>
-15.9956

> <Gold.Chemscore.ZeroCoef>
-5.4800

> <Gold.Chemscore.Hbond>
1.6737

> <Gold.Chemscore.Metal>
0.0000

> <Gold.Chemscore.Lipo>
69.3986

> <Gold.Chemscore.Internal_Hbond>
0.0000

> <Gold.Chemscore.DEClash>
0.1228

> <Gold.Chemscore.DEInternal>
0.1405

> <Gold.Chemscore.Rot>
1.2477

> <Gold.Chemscore.Internal.Correction>
   9.000000E+99

> <Gold.Chemscore.Hbonds>
donor molecule, donor type, donor heavy atom, donor atom, acceptor molecule, acceptor atom, score
      L1  H     3    29       P1  7957  0.68
      L1  H    12    27       P1  8028  0.70

> <Gold.Chemscore.Hbond.Weighted>
-5.5900

> <Gold.Chemscore.Metal.Weighted>
-0.0000

> <Gold.Chemscore.Lipo.Weighted>
-8.1196

> <Gold.Chemscore.Internal_Hbond.Weighted>
0.0000

> <Gold.Chemscore.DEClash.Weighted>
0.1228

> <Gold.Chemscore.DEInternal.Weighted>
0.1405

> <Gold.Chemscore.Rot.Weighted>
3.1941

> <Gold.Chemscore.Internal.Correction.Weighted>
   9.000000E+99

> <Gold.Protein.RotatedTorsions>
[ 6907 6896 6895 6894 ] final   82.32 input  -60.11 | X-H torsion
[ 7974 7965 7964 7962 ] final  143.76 input  175.53 | X-H torsion
[ 8008 7997 7996 7995 ] final  -52.81 input   59.86 | X-H torsion
[ 10167 10162 10161 10158 ] final -129.36 input  -65.29 | X-H torsion
[ 10718 10713 10712 10709 ] final -128.67 input   66.30 | X-H torsion
[ 10763 10752 10751 10750 ] final  140.70 input  -60.55 | X-H torsion
[ 11005 11000 10999 10996 ] final  -62.46 input  -57.11 | X-H torsion

> <Gold.Protein.ActiveResidues>
 VAL166  LYS551  ARG553  GLY616  TRP617  ASP618  TYR619  PRO620  LYS621  CYS622 
 ASP623  PHE694  ASN695  SER759  ASP760  ASP761  ALA762  ILE779  LEU786  VAL792 
 PHE793  MET794  SER795  GLU796  ALA797  LYS798  CYS799  TRP800  GLU811  SER814 

> <Gold.Protein.RotatedAtoms>
  152.5295  134.3068  159.9098 H   0  0  0  0  0  0  0  0  0  0  0  0  # atno 6907 bound_to 6896
  151.3018  133.4112  159.2648 H   0  0  0  0  0  0  0  0  0  0  0  0  # atno 6908 bound_to 6896
  151.0113  134.9415  159.8065 H   0  0  0  0  0  0  0  0  0  0  0  0  # atno 6909 bound_to 6896
  144.8893  139.5582  143.5806 H   0  0  0  0  0  0  0  0  0  0  0  0  # atno 7974 bound_to 7965
  154.4116  140.1215  156.5052 H   0  0  0  0  0  0  0  0  0  0  0  0  # atno 8008 bound_to 7997
  155.6855  140.3496  155.4853 H   0  0  0  0  0  0  0  0  0  0  0  0  # atno 8009 bound_to 7997
  155.9514  140.1105  157.0963 H   0  0  0  0  0  0  0  0  0  0  0  0  # atno 8010 bound_to 7997
  139.9406  143.6168  152.2504 H   0  0  0  0  0  0  0  0  0  0  0  0  # atno 10167 bound_to 10162
  156.1973  130.6834  151.0496 H   0  0  0  0  0  0  0  0  0  0  0  0  # atno 10718 bound_to 10713
  153.9270  135.2994  155.3446 H   0  0  0  0  0  0  0  0  0  0  0  0  # atno 10763 bound_to 10752
  154.7546  135.4963  153.9355 H   0  0  0  0  0  0  0  0  0  0  0  0  # atno 10764 bound_to 10752
  153.1112  135.6759  153.9602 H   0  0  0  0  0  0  0  0  0  0  0  0  # atno 10765 bound_to 10752
  141.1360  133.6640  156.5531 H   0  0  0  0  0  0  0  0  0  0  0  0  # atno 11005 bound_to 11000
  146.3044  139.7531  142.9067 LP  0  0  0  0  0  0  0  0  0  0  0  0  # atno 17320 bound_to 7965
  145.3811  141.0358  143.3177 LP  0  0  0  0  0  0  0  0  0  0  0  0  # atno 17321 bound_to 7965
  139.6708  144.7661  151.1787 LP  0  0  0  0  0  0  0  0  0  0  0  0  # atno 17342 bound_to 10162
  140.7612  143.5869  150.8837 LP  0  0  0  0  0  0  0  0  0  0  0  0  # atno 17343 bound_to 10162
  157.6965  131.0792  150.6953 LP  0  0  0  0  0  0  0  0  0  0  0  0  # atno 17370 bound_to 10713
  156.7010  130.4623  149.5573 LP  0  0  0  0  0  0  0  0  0  0  0  0  # atno 17371 bound_to 10713
  140.4048  134.7325  157.4801 LP  0  0  0  0  0  0  0  0  0  0  0  0  # atno 17394 bound_to 11000
  140.0470  134.6185  155.8909 LP  0  0  0  0  0  0  0  0  0  0  0  0  # atno 17395 bound_to 11000

$$$$
