AV-unprocessed.smi:1207|AV-procd|sdf|5058|dock8
  -GOLD-   22720 4 93D 1   1.00000     0.00000
 Structure written by MMmdl.
 53 55  0  0  0  0  0  0  0  0  3 V2000
  152.5238  143.5989  160.1381 C   0  0  0  0  0  0  0  0  0  0  0  0
  152.1769  142.6742  158.9836 C   0  0  0  0  0  0  0  0  0  0  0  0
  151.2382  143.1165  158.0242 C   0  0  0  0  0  0  0  0  0  0  0  0
  150.9391  142.2473  156.9819 C   0  0  0  0  0  0  0  0  0  0  0  0
  150.0706  142.3833  155.8969 N   0  3  0  0  0  0  0  0  0  0  0  0
  150.1138  141.2548  155.1354 C   0  0  0  0  0  0  0  0  0  0  0  0
  150.9962  140.3990  155.7203 N   0  0  0  0  0  0  0  0  0  0  0  0
  151.4144  139.0490  155.3186 C   0  0  0  0  0  0  0  0  0  0  0  0
  150.2255  138.1435  154.9417 C   0  0  1  0  0  0  0  0  0  0  0  0
  149.7918  138.4628  153.6336 O   0  0  0  0  0  0  0  0  0  0  0  0
  150.5927  136.6470  154.9937 C   0  0  0  0  0  0  0  0  0  0  0  0
  149.4553  135.7861  154.5810 N   0  3  1  0  0  0  0  0  0  0  0  0
  149.8407  134.3610  154.4607 C   0  0  0  0  0  0  0  0  0  0  0  0
  148.2408  135.9800  155.4142 C   0  0  0  0  0  0  0  0  0  0  0  0
  148.4648  135.4742  156.8142 C   0  0  0  0  0  0  0  0  0  0  0  0
  147.9462  134.2823  157.3965 C   0  0  0  0  0  0  0  0  0  0  0  0
  147.0643  133.2432  156.7647 C   0  0  0  0  0  0  0  0  0  0  0  0
  148.3395  134.1330  158.6493 N   0  0  0  0  0  0  0  0  0  0  0  0
  149.1364  135.2453  158.9356 O   0  0  0  0  0  0  0  0  0  0  0  0
  149.1959  136.0289  157.8294 C   0  0  0  0  0  0  0  0  0  0  0  0
  150.0086  137.2741  157.9442 C   0  0  0  0  0  0  0  0  0  0  0  0
  151.5389  140.9778  156.8726 C   0  0  0  0  0  0  0  0  0  0  0  0
  152.4686  140.5276  157.8069 C   0  0  0  0  0  0  0  0  0  0  0  0
  152.7843  141.3961  158.8761 C   0  0  0  0  0  0  0  0  0  0  0  0
  153.7920  140.9310  159.9138 C   0  0  0  0  0  0  0  0  0  0  0  0
  151.9793  144.5412  160.0727 H   0  0  0  0  0  0  0  0  0  0  0  0
  153.5893  143.8299  160.1379 H   0  0  0  0  0  0  0  0  0  0  0  0
  152.2697  143.1333  161.0906 H   0  0  0  0  0  0  0  0  0  0  0  0
  150.7729  144.0887  158.0992 H   0  0  0  0  0  0  0  0  0  0  0  0
  149.5472  141.0719  154.2337 H   0  0  0  0  0  0  0  0  0  0  0  0
  152.0971  139.1538  154.4742 H   0  0  0  0  0  0  0  0  0  0  0  0
  151.9938  138.6147  156.1345 H   0  0  0  0  0  0  0  0  0  0  0  0
  149.4001  138.3501  155.6215 H   0  0  0  0  0  0  0  0  0  0  0  0
  149.6070  137.6599  153.1699 H   0  0  0  0  0  0  0  0  0  0  0  0
  151.4527  136.4762  154.3439 H   0  0  0  0  0  0  0  0  0  0  0  0
  150.9115  136.3605  155.9974 H   0  0  0  0  0  0  0  0  0  0  0  0
  150.1339  133.9518  155.4283 H   0  0  0  0  0  0  0  0  0  0  0  0
  150.6781  134.2441  153.7722 H   0  0  0  0  0  0  0  0  0  0  0  0
  149.0167  133.7631  154.0712 H   0  0  0  0  0  0  0  0  0  0  0  0
  147.9550  137.0326  155.4032 H   0  0  0  0  0  0  0  0  0  0  0  0
  147.3954  135.4533  154.9725 H   0  0  0  0  0  0  0  0  0  0  0  0
  146.2146  133.7045  156.2611 H   0  0  0  0  0  0  0  0  0  0  0  0
  146.6684  132.5456  157.5034 H   0  0  0  0  0  0  0  0  0  0  0  0
  147.6154  132.6641  156.0237 H   0  0  0  0  0  0  0  0  0  0  0  0
  150.1926  137.7179  156.9660 H   0  0  0  0  0  0  0  0  0  0  0  0
  150.9743  137.0636  158.4040 H   0  0  0  0  0  0  0  0  0  0  0  0
  149.4956  138.0132  158.5597 H   0  0  0  0  0  0  0  0  0  0  0  0
  152.9321  139.5559  157.7243 H   0  0  0  0  0  0  0  0  0  0  0  0
  154.1585  139.9279  159.6936 H   0  0  0  0  0  0  0  0  0  0  0  0
  153.3390  140.9094  160.9053 H   0  0  0  0  0  0  0  0  0  0  0  0
  154.6517  141.6011  159.9402 H   0  0  0  0  0  0  0  0  0  0  0  0
  149.2163  136.0897  153.6473 H   0  0  0  0  0  0  0  0  0  0  0  0
  149.4904  143.1863  155.6884 H   0  0  0  0  0  0  0  0  0  0  0  0
  1  2  1  0  0  0  0
  1 26  1  0  0  0  0
  1 27  1  0  0  0  0
  1 28  1  0  0  0  0
  2 24  1  0  0  0  0
  2  3  2  0  0  0  0
  3  4  1  0  0  0  0
  3 29  1  0  0  0  0
  4 22  2  0  0  0  0
  4  5  1  0  0  0  0
  5  6  2  0  0  0  0
  5 53  1  0  0  0  0
  6  7  1  0  0  0  0
  6 30  1  0  0  0  0
  7  8  1  0  0  0  0
  7 22  1  0  0  0  0
  8  9  1  0  0  0  0
  8 31  1  0  0  0  0
  8 32  1  0  0  0  0
  9 10  1  0  0  0  0
  9 11  1  0  0  0  0
  9 33  1  0  0  0  0
 10 34  1  0  0  0  0
 11 12  1  0  0  0  0
 11 35  1  0  0  0  0
 11 36  1  0  0  0  0
 12 13  1  0  0  0  0
 12 14  1  0  0  0  0
 12 52  1  0  0  0  0
 13 37  1  0  0  0  0
 13 38  1  0  0  0  0
 13 39  1  0  0  0  0
 14 15  1  0  0  0  0
 14 40  1  0  0  0  0
 14 41  1  0  0  0  0
 15 20  2  0  0  0  0
 15 16  1  0  0  0  0
 16 17  1  0  0  0  0
 16 18  2  0  0  0  0
 17 42  1  0  0  0  0
 17 43  1  0  0  0  0
 17 44  1  0  0  0  0
 18 19  1  0  0  0  0
 19 20  1  0  0  0  0
 20 21  1  0  0  0  0
 21 45  1  0  0  0  0
 21 46  1  0  0  0  0
 21 47  1  0  0  0  0
 22 23  1  0  0  0  0
 23 24  2  0  0  0  0
 23 48  1  0  0  0  0
 24 25  1  0  0  0  0
 25 49  1  0  0  0  0
 25 50  1  0  0  0  0
 25 51  1  0  0  0  0
M  CHG  1   5   1
M  CHG  1  12   1
M  END
> <s_m_source_file>
AV-unprocessed.smi

> <i_m_source_file_index>
1207

> <i_lp_mmshare_version>
43012

> <i_f3d_flags>
0

> <s_epik_input>
W0NIM11jKFtjSF0xKWMoW0NIM10pW2NIXWMoYzEyKW4oW2NIXW4yKVtDSDJdW0NASF0oW09IXSlbQ0gyXU4oW0NIM10pW0NIMl1jM2MoW0NIM10pbm9jM1tDSDNd

> <s_epik_cmdline>
J2VwaWtfcHl0aG9uJywgJy1waCcsICc3LjAnLCAnLXRuJywgJzgnLCAnLW1hJywgJzIwMCcsICctbWV0YWxfYmluZGluZycsICctaW1hZScsICc8aW5maWxlLm1hZT4nLCAnLW9tYWUnLCAnPG91dGZpbGUubWFlPic=

> <r_epik_Ionization_Penalty>
1.77463

> <r_epik_Ionization_Penalty_Charging>
1.77463

> <r_epik_Ionization_Penalty_Neutral>
3.70885e-06

> <r_epik_State_Penalty>
1.85225

> <r_epik_Charging_Adjusted_Penalty>
3.62688

> <i_epik_Tot_Q>
2

> <i_epik_Tot_abs_Q>
2

> <r_epik_Metal_State_Penalty>
1.92674

> <b_epik_Metal_Only>
0

> <s_lp_Force_Field>
OPLS_2005

> <r_lp_Energy>
18.8212

> <b_lp_Chiralities_Consistent>
1

> <s_lp_Variant>
AV-unprocessed.smi:1207-10

> <Gold.Version>
5.8.1

> <Gold.Id.Protein>
6NUR|6NUR_protein|mol2

> <Gold.PLP.Fitness>
58.4571

> <Gold.PLP.PLP>
-41.4349

> <Gold.PLP.part.hbond>
-5.0000

> <Gold.PLP.part.metal>
0.0000

> <Gold.PLP.part.buried>
-4.8308

> <Gold.PLP.part.nonpolar>
-31.6827

> <Gold.PLP.part.repulsive>
0.1435

> <Gold.PLP.ligand.clash>
0.0000

> <Gold.PLP.ligand.torsion>
0.5443

> <Gold.PLP.Chemscore.Hbond>
6.0000

> <Gold.PLP.Chemscore.CHOScore>
0.0000

> <Gold.PLP.Chemscore.Metal>
0.0000

> <Gold.Chemscore.Hbonds>
donor molecule, donor type, donor heavy atom, donor atom, acceptor molecule, acceptor atom, score
      L1  H     5    53       P1  8028  2.00
      L1  H    10    34       P1  7948  1.00
      L1  H    12    52       P1  7948  2.00
      P1  H  6896  6909       L1    19  0.85

> <Gold.PLP.Chemscore.Internal.Correction>
0.1107

> <Gold.Rescore>
     Score         DG    S(hbond)    S(metal)    S(lipo)     H(rot)  DE(clash)    DE(int)     intcor
     23.17     -23.93       3.79        0.00     104.99       2.54       0.15       0.61       ----

> <Gold.Chemscore.Fitness>
23.1678

> <Gold.Chemscore.DG>
-23.9268

> <Gold.Chemscore.ZeroCoef>
-5.4800

> <Gold.Chemscore.Hbond>
3.7884

> <Gold.Chemscore.Metal>
0.0000

> <Gold.Chemscore.Lipo>
104.9881

> <Gold.Chemscore.Internal_Hbond>
0.0000

> <Gold.Chemscore.DEClash>
0.1491

> <Gold.Chemscore.DEInternal>
0.6099

> <Gold.Chemscore.Rot>
2.5351

> <Gold.Chemscore.Internal.Correction>
   9.000000E+99

> <Gold.Chemscore.Hbonds>
donor molecule, donor type, donor heavy atom, donor atom, acceptor molecule, acceptor atom, score
      L1  H     5    53       P1  8028  0.99
      L1  H    10    34       P1  7948  0.75
      L1  H    12    52       P1  7948  0.85
      P1  H  6896  6909       L1    19  0.14

> <Gold.Chemscore.Hbond.Weighted>
-12.6532

> <Gold.Chemscore.Metal.Weighted>
-0.0000

> <Gold.Chemscore.Lipo.Weighted>
-12.2836

> <Gold.Chemscore.Internal_Hbond.Weighted>
0.0000

> <Gold.Chemscore.DEClash.Weighted>
0.1491

> <Gold.Chemscore.DEInternal.Weighted>
0.6099

> <Gold.Chemscore.Rot.Weighted>
6.4900

> <Gold.Chemscore.Internal.Correction.Weighted>
   9.000000E+99

> <Gold.Protein.RotatedTorsions>
[ 6907 6896 6895 6894 ] final   32.98 input  -60.11 | X-H torsion
[ 7974 7965 7964 7962 ] final  170.02 input  175.53 | X-H torsion
[ 8008 7997 7996 7995 ] final   -1.51 input   59.86 | X-H torsion
[ 10167 10162 10161 10158 ] final    6.56 input  -65.29 | X-H torsion
[ 10718 10713 10712 10709 ] final   57.94 input   66.30 | X-H torsion
[ 10763 10752 10751 10750 ] final   17.58 input  -60.55 | X-H torsion
[ 11005 11000 10999 10996 ] final  -41.85 input  -57.11 | X-H torsion

> <Gold.Protein.ActiveResidues>
 VAL166  LYS551  ARG553  GLY616  TRP617  ASP618  TYR619  PRO620  LYS621  CYS622 
 ASP623  PHE694  ASN695  SER759  ASP760  ASP761  ALA762  ILE779  LEU786  VAL792 
 PHE793  MET794  SER795  GLU796  ALA797  LYS798  CYS799  TRP800  GLU811  SER814 

> <Gold.Protein.RotatedAtoms>
  152.0821  134.9464  160.0573 H   0  0  0  0  0  0  0  0  0  0  0  0  # atno 6907 bound_to 6896
  152.0748  133.4119  159.4483 H   0  0  0  0  0  0  0  0  0  0  0  0  # atno 6908 bound_to 6896
  150.6836  134.2970  159.4734 H   0  0  0  0  0  0  0  0  0  0  0  0  # atno 6909 bound_to 6896
  144.7337  139.9140  143.6416 H   0  0  0  0  0  0  0  0  0  0  0  0  # atno 7974 bound_to 7965
  154.6460  140.2557  155.7267 H   0  0  0  0  0  0  0  0  0  0  0  0  # atno 8008 bound_to 7997
  156.2552  140.2877  156.0795 H   0  0  0  0  0  0  0  0  0  0  0  0  # atno 8009 bound_to 7997
  155.1523  140.0382  157.2814 H   0  0  0  0  0  0  0  0  0  0  0  0  # atno 8010 bound_to 7997
  140.6421  143.7749  150.7443 H   0  0  0  0  0  0  0  0  0  0  0  0  # atno 10167 bound_to 10162
  157.5556  130.8797  149.9030 H   0  0  0  0  0  0  0  0  0  0  0  0  # atno 10718 bound_to 10713
  153.1326  135.6743  153.9154 H   0  0  0  0  0  0  0  0  0  0  0  0  # atno 10763 bound_to 10752
  153.8635  135.3078  155.3440 H   0  0  0  0  0  0  0  0  0  0  0  0  # atno 10764 bound_to 10752
  154.7720  135.4934  153.9750 H   0  0  0  0  0  0  0  0  0  0  0  0  # atno 10765 bound_to 10752
  141.0275  133.6835  156.2514 H   0  0  0  0  0  0  0  0  0  0  0  0  # atno 11005 bound_to 11000
  146.0980  139.3973  143.0365 LP  0  0  0  0  0  0  0  0  0  0  0  0  # atno 17320 bound_to 7965
  145.7619  140.9932  143.1195 LP  0  0  0  0  0  0  0  0  0  0  0  0  # atno 17321 bound_to 7965
  140.1383  143.4464  152.2210 LP  0  0  0  0  0  0  0  0  0  0  0  0  # atno 17342 bound_to 10162
  139.5630  144.7418  151.4100 LP  0  0  0  0  0  0  0  0  0  0  0  0  # atno 17343 bound_to 10162
  156.0615  130.3699  150.0971 LP  0  0  0  0  0  0  0  0  0  0  0  0  # atno 17370 bound_to 10713
  156.9140  130.9661  151.3558 LP  0  0  0  0  0  0  0  0  0  0  0  0  # atno 17371 bound_to 10713
  140.6466  134.5111  157.5574 LP  0  0  0  0  0  0  0  0  0  0  0  0  # atno 17394 bound_to 11000
  139.9185  134.8196  156.1286 LP  0  0  0  0  0  0  0  0  0  0  0  0  # atno 17395 bound_to 11000

$$$$
