AV-unprocessed.smi:34|AV-procd|sdf|233|dock9
  -GOLD-   2262015573D 1   1.00000     0.00000
 Structure written by MMmdl.
 54 58  0  0  0  0  0  0  0  0  2 V2000
  153.7905  139.8746  160.2280 O   0  0  0  0  0  0  0  0  0  0  0  0
  153.3479  140.6718  159.3982 C   0  0  0  0  0  0  0  0  0  0  0  0
  153.1878  140.4827  158.0638 N   0  5  0  0  0  0  0  0  0  0  0  0
  151.9864  140.1418  157.5734 C   0  0  0  0  0  0  0  0  0  0  0  0
  151.3724  140.9300  156.6547 N   0  0  0  0  0  0  0  0  0  0  0  0
  150.1681  140.5974  156.1766 C   0  0  0  0  0  0  0  0  0  0  0  0
  149.4071  139.5425  156.4815 N   0  0  0  0  0  0  0  0  0  0  0  0
  150.0084  138.7423  157.4080 C   0  0  0  0  0  0  0  0  0  0  0  0
  151.2860  138.9781  157.9957 C   0  0  0  0  0  0  0  0  0  0  0  0
  151.6033  137.9780  158.9024 N   0  0  0  0  0  0  0  0  0  0  0  0
  150.5301  137.1952  158.8242 C   0  0  0  0  0  0  0  0  0  0  0  0
  149.5467  137.5664  157.9808 N   0  0  0  0  0  0  0  0  0  0  0  0
  148.2552  136.8489  157.7496 C   0  0  2  0  0  0  0  0  0  0  0  0
  148.5283  135.5450  157.3263 O   0  0  0  0  0  0  0  0  0  0  0  0
  147.6795  135.1759  156.2333 C   0  0  2  0  0  0  0  0  0  0  0  0
  148.5110  135.0265  154.9517 C   0  0  0  0  0  0  0  0  0  0  0  0
  147.6468  134.8494  153.8411 O   0  0  0  0  0  0  0  0  0  0  0  0
  147.5694  133.6485  153.2344 C   0  0  0  0  0  0  0  0  0  0  0  0
  148.2925  132.6916  153.5198 O   0  0  0  0  0  0  0  0  0  0  0  0
  146.5157  133.5961  152.1808 C   0  0  0  0  0  0  0  0  0  0  0  0
  145.7857  134.7680  151.8735 C   0  0  0  0  0  0  0  0  0  0  0  0
  144.7854  134.7510  150.8821 C   0  0  0  0  0  0  0  0  0  0  0  0
  144.5032  133.5616  150.1856 C   0  0  0  0  0  0  0  0  0  0  0  0
  145.2231  132.3893  150.4813 C   0  0  0  0  0  0  0  0  0  0  0  0
  146.2243  132.4043  151.4721 C   0  0  0  0  0  0  0  0  0  0  0  0
  146.6628  136.3148  156.1258 C   0  0  1  0  0  0  0  0  0  0  0  0
  145.6453  136.0313  156.9443 F   0  0  0  0  0  0  0  0  0  0  0  0
  147.4525  137.5102  156.6335 C   0  0  1  0  0  0  0  0  0  0  0  0
  146.5809  138.5286  157.0817 O   0  0  0  0  0  0  0  0  0  0  0  0
  152.9815  142.0605  159.8497 C   0  0  0  0  0  0  0  0  0  0  0  0
  153.0731  142.3987  161.2193 C   0  0  0  0  0  0  0  0  0  0  0  0
  152.7105  143.6846  161.6658 C   0  0  0  0  0  0  0  0  0  0  0  0
  152.2438  144.6441  160.7481 C   0  0  0  0  0  0  0  0  0  0  0  0
  152.1354  144.3152  159.3840 C   0  0  0  0  0  0  0  0  0  0  0  0
  152.4970  143.0293  158.9369 C   0  0  0  0  0  0  0  0  0  0  0  0
  149.7521  141.2754  155.4462 H   0  0  0  0  0  0  0  0  0  0  0  0
  150.4507  136.2993  159.4224 H   0  0  0  0  0  0  0  0  0  0  0  0
  147.7440  136.8317  158.7138 H   0  0  0  0  0  0  0  0  0  0  0  0
  147.1805  134.2307  156.4517 H   0  0  0  0  0  0  0  0  0  0  0  0
  149.1082  135.9244  154.7893 H   0  0  0  0  0  0  0  0  0  0  0  0
  149.2070  134.1929  155.0434 H   0  0  0  0  0  0  0  0  0  0  0  0
  145.9851  135.6935  152.3942 H   0  0  0  0  0  0  0  0  0  0  0  0
  144.2353  135.6526  150.6557 H   0  0  0  0  0  0  0  0  0  0  0  0
  143.7368  133.5491  149.4247 H   0  0  0  0  0  0  0  0  0  0  0  0
  145.0079  131.4757  149.9467 H   0  0  0  0  0  0  0  0  0  0  0  0
  146.7597  131.4878  151.6726 H   0  0  0  0  0  0  0  0  0  0  0  0
  146.2532  136.4513  155.1244 H   0  0  0  0  0  0  0  0  0  0  0  0
  148.1255  137.8837  155.8598 H   0  0  0  0  0  0  0  0  0  0  0  0
  145.8066  138.1231  157.4414 H   0  0  0  0  0  0  0  0  0  0  0  0
  153.4280  141.6732  161.9370 H   0  0  0  0  0  0  0  0  0  0  0  0
  152.7897  143.9335  162.7136 H   0  0  0  0  0  0  0  0  0  0  0  0
  151.9651  145.6296  161.0904 H   0  0  0  0  0  0  0  0  0  0  0  0
  151.7715  145.0479  158.6792 H   0  0  0  0  0  0  0  0  0  0  0  0
  152.3952  142.7940  157.8872 H   0  0  0  0  0  0  0  0  0  0  0  0
  1  2  2  0  0  0  0
  2  3  1  0  0  0  0
  2 30  1  0  0  0  0
  3  4  1  0  0  0  0
  4  9  1  0  0  0  0
  4  5  2  0  0  0  0
  5  6  1  0  0  0  0
  6  7  2  0  0  0  0
  6 36  1  0  0  0  0
  7  8  1  0  0  0  0
  8 12  1  0  0  0  0
  8  9  2  0  0  0  0
  9 10  1  0  0  0  0
 10 11  2  0  0  0  0
 11 12  1  0  0  0  0
 11 37  1  0  0  0  0
 12 13  1  0  0  0  0
 13 28  1  0  0  0  0
 13 14  1  0  0  0  0
 13 38  1  0  0  0  0
 14 15  1  0  0  0  0
 15 16  1  0  0  0  0
 15 26  1  0  0  0  0
 15 39  1  0  0  0  0
 16 17  1  0  0  0  0
 16 40  1  0  0  0  0
 16 41  1  0  0  0  0
 17 18  1  0  0  0  0
 18 19  2  0  0  0  0
 18 20  1  0  0  0  0
 20 25  1  0  0  0  0
 20 21  2  0  0  0  0
 21 22  1  0  0  0  0
 21 42  1  0  0  0  0
 22 23  2  0  0  0  0
 22 43  1  0  0  0  0
 23 24  1  0  0  0  0
 23 44  1  0  0  0  0
 24 25  2  0  0  0  0
 24 45  1  0  0  0  0
 25 46  1  0  0  0  0
 26 27  1  0  0  0  0
 26 28  1  0  0  0  0
 26 47  1  0  0  0  0
 28 29  1  0  0  0  0
 28 48  1  0  0  0  0
 29 49  1  0  0  0  0
 30 35  1  0  0  0  0
 30 31  2  0  0  0  0
 31 32  1  0  0  0  0
 31 50  1  0  0  0  0
 32 33  2  0  0  0  0
 32 51  1  0  0  0  0
 33 34  1  0  0  0  0
 33 52  1  0  0  0  0
 34 35  2  0  0  0  0
 34 53  1  0  0  0  0
 35 54  1  0  0  0  0
M  CHG  1   3  -1
M  END
> <s_m_source_file>
AV-unprocessed.smi

> <i_m_source_file_index>
34

> <i_lp_mmshare_version>
43012

> <i_f3d_flags>
0

> <s_epik_input>
W2NIXTFbY0hdW2NIXVtjSF1bY0hdYzFDKD1PKVtOSF1jKG5bY0hdbjIpYyhjMjMpbltjSF1uM1tDQEBIXTRPW0NASF0oW0NAQEhdKEYpW0NASF00W09IXSlbQ0gyXU9DKD1PKWM1W2NIXVtjSF1bY0hdW2NIXVtjSF01

> <s_epik_cmdline>
J2VwaWtfcHl0aG9uJywgJy1waCcsICc3LjAnLCAnLXRuJywgJzgnLCAnLW1hJywgJzIwMCcsICctbWV0YWxfYmluZGluZycsICctaW1hZScsICc8aW5maWxlLm1hZT4nLCAnLW9tYWUnLCAnPG91dGZpbGUubWFlPic=

> <r_lp_tautomer_probability>
1

> <r_epik_Ionization_Penalty>
4.33227

> <r_epik_Ionization_Penalty_Charging>
3.41027

> <r_epik_Ionization_Penalty_Neutral>
0.922001

> <r_epik_State_Penalty>
3.41358

> <r_epik_Charging_Adjusted_Penalty>
6.82385

> <i_epik_Tot_Q>
-1

> <i_epik_Tot_abs_Q>
1

> <r_epik_Metal_State_Penalty>
0.496292

> <b_epik_Metal_Only>
1

> <s_epik_Chemistry_Notes>
This compound has an ester and may undergo hydrolysis at high or low pH. This compound contains an acetal/aminal-like group ( X-CH(R)-Y where X, Y are N, S, or O) that may be acid/base labile, releasing an aldehyde.

> <s_lp_Force_Field>
OPLS_2005

> <r_lp_Energy>
46.7296

> <b_lp_Chiralities_Consistent>
1

> <s_lp_Variant>
AV-unprocessed.smi:34-19

> <Gold.Version>
5.8.1

> <Gold.Id.Protein>
6NUR|6NUR_protein|mol2

> <Gold.PLP.Fitness>
52.6178

> <Gold.PLP.PLP>
-50.3371

> <Gold.PLP.part.hbond>
-1.0000

> <Gold.PLP.part.metal>
0.0000

> <Gold.PLP.part.buried>
-8.9117

> <Gold.PLP.part.nonpolar>
-42.2177

> <Gold.PLP.part.repulsive>
1.4807

> <Gold.PLP.ligand.clash>
0.0000

> <Gold.PLP.ligand.torsion>
1.7237

> <Gold.PLP.Chemscore.Hbond>
1.8240

> <Gold.PLP.Chemscore.CHOScore>
0.0000

> <Gold.PLP.Chemscore.Metal>
0.0000

> <Gold.Chemscore.Hbonds>
donor molecule, donor type, donor heavy atom, donor atom, acceptor molecule, acceptor atom, score
      P1  H  7997  8009       L1     3  1.54

> <Gold.PLP.Chemscore.Internal.Correction>
0.2562

> <Gold.Rescore>
     Score         DG    S(hbond)    S(metal)    S(lipo)     H(rot)  DE(clash)    DE(int)     intcor
     12.76     -15.93       0.90        0.00     122.55       2.69       0.09       3.08       ----

> <Gold.Chemscore.Fitness>
12.7608

> <Gold.Chemscore.DG>
-15.9271

> <Gold.Chemscore.ZeroCoef>
-5.4800

> <Gold.Chemscore.Hbond>
0.8999

> <Gold.Chemscore.Metal>
0.0000

> <Gold.Chemscore.Lipo>
122.5547

> <Gold.Chemscore.Internal_Hbond>
0.0000

> <Gold.Chemscore.DEClash>
0.0855

> <Gold.Chemscore.DEInternal>
3.0809

> <Gold.Chemscore.Rot>
2.6944

> <Gold.Chemscore.Internal.Correction>
   9.000000E+99

> <Gold.Chemscore.Hbonds>
donor molecule, donor type, donor heavy atom, donor atom, acceptor molecule, acceptor atom, score
      P1  H  7997  8009       L1     3  0.61

> <Gold.Chemscore.Hbond.Weighted>
-3.0058

> <Gold.Chemscore.Metal.Weighted>
-0.0000

> <Gold.Chemscore.Lipo.Weighted>
-14.3389

> <Gold.Chemscore.Internal_Hbond.Weighted>
0.0000

> <Gold.Chemscore.DEClash.Weighted>
0.0855

> <Gold.Chemscore.DEInternal.Weighted>
3.0809

> <Gold.Chemscore.Rot.Weighted>
6.8975

> <Gold.Chemscore.Internal.Correction.Weighted>
   9.000000E+99

> <Gold.Protein.RotatedTorsions>
[ 6907 6896 6895 6894 ] final  -71.38 input  -60.11 | X-H torsion
[ 7974 7965 7964 7962 ] final  -21.74 input  175.53 | X-H torsion
[ 8008 7997 7996 7995 ] final  165.16 input   59.86 | X-H torsion
[ 10167 10162 10161 10158 ] final  119.31 input  -65.29 | X-H torsion
[ 10718 10713 10712 10709 ] final -129.91 input   66.30 | X-H torsion
[ 10763 10752 10751 10750 ] final  162.17 input  -60.55 | X-H torsion
[ 11005 11000 10999 10996 ] final   66.30 input  -57.11 | X-H torsion

> <Gold.Protein.ActiveResidues>
 VAL166  LYS551  ARG553  GLY616  TRP617  ASP618  TYR619  PRO620  LYS621  CYS622 
 ASP623  PHE694  ASN695  SER759  ASP760  ASP761  ALA762  ILE779  LEU786  VAL792 
 PHE793  MET794  SER795  GLU796  ALA797  LYS798  CYS799  TRP800  GLU811  SER814 

> <Gold.Protein.RotatedAtoms>
  150.7215  134.5317  159.5703 H   0  0  0  0  0  0  0  0  0  0  0  0  # atno 6907 bound_to 6896
  152.2849  134.7785  160.0398 H   0  0  0  0  0  0  0  0  0  0  0  0  # atno 6908 bound_to 6896
  151.8418  133.3389  159.3682 H   0  0  0  0  0  0  0  0  0  0  0  0  # atno 6909 bound_to 6896
  146.1715  140.4383  142.8530 H   0  0  0  0  0  0  0  0  0  0  0  0  # atno 7974 bound_to 7965
  156.1823  140.1677  156.8251 H   0  0  0  0  0  0  0  0  0  0  0  0  # atno 8008 bound_to 7997
  154.5374  140.0744  156.8484 H   0  0  0  0  0  0  0  0  0  0  0  0  # atno 8009 bound_to 7997
  155.3283  140.3377  155.4242 H   0  0  0  0  0  0  0  0  0  0  0  0  # atno 8010 bound_to 7997
  139.6054  144.7068  151.2965 H   0  0  0  0  0  0  0  0  0  0  0  0  # atno 10167 bound_to 10162
  156.2092  130.6907  151.0630 H   0  0  0  0  0  0  0  0  0  0  0  0  # atno 10718 bound_to 10713
  154.2742  135.2765  155.2725 H   0  0  0  0  0  0  0  0  0  0  0  0  # atno 10763 bound_to 10752
  154.5275  135.5739  153.6734 H   0  0  0  0  0  0  0  0  0  0  0  0  # atno 10764 bound_to 10752
  152.9940  135.6219  154.2898 H   0  0  0  0  0  0  0  0  0  0  0  0  # atno 10765 bound_to 10752
  139.9841  134.6697  156.0209 H   0  0  0  0  0  0  0  0  0  0  0  0  # atno 11005 bound_to 11000
  144.8171  140.6486  143.6377 LP  0  0  0  0  0  0  0  0  0  0  0  0  # atno 17320 bound_to 7965
  145.4326  139.1547  143.4014 LP  0  0  0  0  0  0  0  0  0  0  0  0  # atno 17321 bound_to 7965
  140.7281  143.6945  150.7895 LP  0  0  0  0  0  0  0  0  0  0  0  0  # atno 17342 bound_to 10162
  140.0530  143.5231  152.2665 LP  0  0  0  0  0  0  0  0  0  0  0  0  # atno 17343 bound_to 10162
  157.7029  131.0768  150.6761 LP  0  0  0  0  0  0  0  0  0  0  0  0  # atno 17370 bound_to 10713
  156.6820  130.4570  149.5625 LP  0  0  0  0  0  0  0  0  0  0  0  0  # atno 17371 bound_to 10713
  141.1508  133.6549  156.4008 LP  0  0  0  0  0  0  0  0  0  0  0  0  # atno 17394 bound_to 11000
  140.5038  134.6460  157.5259 LP  0  0  0  0  0  0  0  0  0  0  0  0  # atno 17395 bound_to 11000

$$$$
