AV-unprocessed.smi:3181|AV-procd|sdf|12142|dock5
  -GOLD-   2272017583D 1   1.00000     0.00000
 Structure written by MMmdl.
 42 43  0  0  0  0  0  0  0  0  2 V2000
  147.0627  140.5051  153.0496 C   0  0  0  0  0  0  0  0  0  0  0  0
  147.2320  138.9789  153.1308 C   0  0  1  0  0  0  0  0  0  0  0  0
  146.4292  138.2369  152.0399 C   0  0  0  0  0  0  0  0  0  0  0  0
  145.5214  137.2423  152.5818 N   0  0  0  0  0  0  0  0  0  0  0  0
  144.1882  137.1926  152.5857 C   0  0  0  0  0  0  0  0  0  0  0  0
  143.6952  136.1118  153.1738 N   0  0  0  0  0  0  0  0  0  0  0  0
  144.8603  135.4917  153.5269 C   0  0  0  0  0  0  0  0  0  0  0  0
  145.9842  136.1263  153.1918 N   0  0  0  0  0  0  0  0  0  0  0  0
  148.6686  138.6359  153.0259 N   0  3  0  0  0  0  0  0  0  0  0  0
  149.4562  138.7229  154.2773 C   0  0  1  0  0  0  0  0  0  0  0  0
  150.8593  138.1082  154.1184 C   0  0  0  0  0  0  0  0  0  0  0  0
  151.6788  138.2590  155.4077 C   0  0  0  0  0  0  0  0  0  0  0  0
  151.7969  139.7298  155.8563 C   0  0  2  0  0  0  0  0  0  0  0  0
  152.6360  139.8182  157.1438 C   0  0  0  0  0  0  0  0  0  0  0  0
  150.3908  140.3677  156.0063 C   0  0  1  0  0  0  0  0  0  0  0  0
  150.4452  141.8568  156.3928 C   0  0  0  0  0  0  0  0  0  0  0  0
  149.5741  140.1945  154.7091 C   0  0  0  0  0  0  0  0  0  0  0  0
  146.0255  140.8022  153.2058 H   0  0  0  0  0  0  0  0  0  0  0  0
  147.3765  140.8892  152.0784 H   0  0  0  0  0  0  0  0  0  0  0  0
  147.6584  141.0061  153.8135 H   0  0  0  0  0  0  0  0  0  0  0  0
  146.8629  138.6673  154.1093 H   0  0  0  0  0  0  0  0  0  0  0  0
  145.8452  138.9485  151.4543 H   0  0  0  0  0  0  0  0  0  0  0  0
  147.0978  137.7362  151.3393 H   0  0  0  0  0  0  0  0  0  0  0  0
  143.5651  137.9620  152.1537 H   0  0  0  0  0  0  0  0  0  0  0  0
  144.8807  134.5447  154.0456 H   0  0  0  0  0  0  0  0  0  0  0  0
  148.7613  137.7080  152.6379 H   0  0  0  0  0  0  0  0  0  0  0  0
  148.9140  138.1848  155.0570 H   0  0  0  0  0  0  0  0  0  0  0  0
  150.7878  137.0493  153.8691 H   0  0  0  0  0  0  0  0  0  0  0  0
  151.3859  138.5876  153.2920 H   0  0  0  0  0  0  0  0  0  0  0  0
  151.2156  137.6690  156.2001 H   0  0  0  0  0  0  0  0  0  0  0  0
  152.6725  137.8362  155.2534 H   0  0  0  0  0  0  0  0  0  0  0  0
  152.3348  140.2718  155.0768 H   0  0  0  0  0  0  0  0  0  0  0  0
  152.1228  139.3518  157.9853 H   0  0  0  0  0  0  0  0  0  0  0  0
  152.8557  140.8506  157.4145 H   0  0  0  0  0  0  0  0  0  0  0  0
  153.5951  139.3141  157.0210 H   0  0  0  0  0  0  0  0  0  0  0  0
  149.8624  139.8419  156.8033 H   0  0  0  0  0  0  0  0  0  0  0  0
  151.0284  142.4329  155.6735 H   0  0  0  0  0  0  0  0  0  0  0  0
  150.8867  142.0043  157.3780 H   0  0  0  0  0  0  0  0  0  0  0  0
  149.4446  142.2889  156.4290 H   0  0  0  0  0  0  0  0  0  0  0  0
  150.0375  140.7744  153.9092 H   0  0  0  0  0  0  0  0  0  0  0  0
  148.5756  140.6112  154.8491 H   0  0  0  0  0  0  0  0  0  0  0  0
  149.0798  139.2908  152.3763 H   0  0  0  0  0  0  0  0  0  0  0  0
  1  2  1  0  0  0  0
  1 18  1  0  0  0  0
  1 19  1  0  0  0  0
  1 20  1  0  0  0  0
  2  3  1  0  0  0  0
  2  9  1  0  0  0  0
  2 21  1  0  0  0  0
  3  4  1  0  0  0  0
  3 22  1  0  0  0  0
  3 23  1  0  0  0  0
  4  8  1  0  0  0  0
  4  5  1  0  0  0  0
  5  6  2  0  0  0  0
  5 24  1  0  0  0  0
  6  7  1  0  0  0  0
  7  8  2  0  0  0  0
  7 25  1  0  0  0  0
  9 10  1  0  0  0  0
  9 26  1  0  0  0  0
  9 42  1  0  0  0  0
 10 17  1  0  0  0  0
 10 11  1  0  0  0  0
 10 27  1  0  0  0  0
 11 12  1  0  0  0  0
 11 28  1  0  0  0  0
 11 29  1  0  0  0  0
 12 13  1  0  0  0  0
 12 30  1  0  0  0  0
 12 31  1  0  0  0  0
 13 14  1  0  0  0  0
 13 15  1  0  0  0  0
 13 32  1  0  0  0  0
 14 33  1  0  0  0  0
 14 34  1  0  0  0  0
 14 35  1  0  0  0  0
 15 16  1  0  0  0  0
 15 17  1  0  0  0  0
 15 36  1  0  0  0  0
 16 37  1  0  0  0  0
 16 38  1  0  0  0  0
 16 39  1  0  0  0  0
 17 40  1  0  0  0  0
 17 41  1  0  0  0  0
M  CHG  1   9   1
M  END
> <s_m_source_file>
AV-unprocessed.smi

> <i_m_source_file_index>
3181

> <i_lp_mmshare_version>
43012

> <i_f3d_flags>
0

> <s_epik_input>
bjFbY0hdbltjSF1uMVtDSDJdW0NAQEhdKFtDSDNdKVtOSF1bQ0BASF0yW0NIMl1bQ0gyXVtDQEBIXShbQ0gzXSlbQ0BASF0oW0NIM10pW0NIMl0y

> <s_epik_cmdline>
J2VwaWtfcHl0aG9uJywgJy1waCcsICc3LjAnLCAnLXRuJywgJzgnLCAnLW1hJywgJzIwMCcsICctbWV0YWxfYmluZGluZycsICctaW1hZScsICc8aW5maWxlLm1hZT4nLCAnLW9tYWUnLCAnPG91dGZpbGUubWFlPic=

> <r_lp_tautomer_probability>
1

> <r_epik_Ionization_Penalty>
0.000617007

> <r_epik_Ionization_Penalty_Charging>
0.000616215

> <r_epik_Ionization_Penalty_Neutral>
7.92544e-07

> <r_epik_State_Penalty>
0.000388807

> <r_epik_Charging_Adjusted_Penalty>
0.00100502

> <i_epik_Tot_Q>
1

> <i_epik_Tot_abs_Q>
1

> <r_epik_Metal_State_Penalty>
-0

> <b_epik_Metal_Only>
0

> <s_lp_Force_Field>
OPLS_2005

> <r_lp_Energy>
19.8676

> <b_lp_Chiralities_Consistent>
1

> <s_lp_Variant>
AV-unprocessed.smi:3181-8

> <Gold.Version>
5.8.1

> <Gold.Id.Protein>
6NUR|6NUR_protein|mol2

> <Gold.PLP.Fitness>
41.6794

> <Gold.PLP.PLP>
-29.4865

> <Gold.PLP.part.hbond>
-1.9260

> <Gold.PLP.part.metal>
0.0000

> <Gold.PLP.part.buried>
0.8407

> <Gold.PLP.part.nonpolar>
-29.4525

> <Gold.PLP.part.repulsive>
0.2763

> <Gold.PLP.ligand.clash>
0.0000

> <Gold.PLP.ligand.torsion>
1.1032

> <Gold.PLP.Chemscore.Hbond>
2.9750

> <Gold.PLP.Chemscore.CHOScore>
1.8099

> <Gold.PLP.Chemscore.Metal>
0.0000

> <Gold.Chemscore.Hbonds>
donor molecule, donor type, donor heavy atom, donor atom, acceptor molecule, acceptor atom, score
      L1  H     9    26       P1  7948  2.00
      L1  H     9    42       P1  7957  0.96
      L1  C     5    24       P1 10171  0.81
      L1  C     5    24       P1 10175  1.00

> <Gold.PLP.Chemscore.Internal.Correction>
0.0445

> <Gold.Rescore>
     Score         DG    S(hbond)    S(metal)    S(lipo)     H(rot)  DE(clash)    DE(int)     intcor
     14.07     -15.65       1.97        0.00      76.82       2.11       0.42       1.16       ----

> <Gold.Chemscore.Fitness>
14.0703

> <Gold.Chemscore.DG>
-15.6544

> <Gold.Chemscore.ZeroCoef>
-5.4800

> <Gold.Chemscore.Hbond>
1.9722

> <Gold.Chemscore.Metal>
0.0000

> <Gold.Chemscore.Lipo>
76.8160

> <Gold.Chemscore.Internal_Hbond>
0.0000

> <Gold.Chemscore.DEClash>
0.4216

> <Gold.Chemscore.DEInternal>
1.1625

> <Gold.Chemscore.Rot>
2.1095

> <Gold.Chemscore.Internal.Correction>
   9.000000E+99

> <Gold.Chemscore.Hbonds>
donor molecule, donor type, donor heavy atom, donor atom, acceptor molecule, acceptor atom, score
      L1  H     9    26       P1  7948  1.00
      L1  H     9    42       P1  7957  0.91

> <Gold.Chemscore.Hbond.Weighted>
-6.5872

> <Gold.Chemscore.Metal.Weighted>
-0.0000

> <Gold.Chemscore.Lipo.Weighted>
-8.9875

> <Gold.Chemscore.Internal_Hbond.Weighted>
0.0000

> <Gold.Chemscore.DEClash.Weighted>
0.4216

> <Gold.Chemscore.DEInternal.Weighted>
1.1625

> <Gold.Chemscore.Rot.Weighted>
5.4003

> <Gold.Chemscore.Internal.Correction.Weighted>
   9.000000E+99

> <Gold.Protein.RotatedTorsions>
[ 6907 6896 6895 6894 ] final -143.47 input  -60.11 | X-H torsion
[ 7974 7965 7964 7962 ] final  134.98 input  175.53 | X-H torsion
[ 8008 7997 7996 7995 ] final  124.23 input   59.86 | X-H torsion
[ 10167 10162 10161 10158 ] final  -60.98 input  -65.29 | X-H torsion
[ 10718 10713 10712 10709 ] final   73.12 input   66.30 | X-H torsion
[ 10763 10752 10751 10750 ] final -113.16 input  -60.55 | X-H torsion
[ 11005 11000 10999 10996 ] final -155.36 input  -57.11 | X-H torsion

> <Gold.Protein.ActiveResidues>
 VAL166  LYS551  ARG553  GLY616  TRP617  ASP618  TYR619  PRO620  LYS621  CYS622 
 ASP623  PHE694  ASN695  SER759  ASP760  ASP761  ALA762  ILE779  LEU786  VAL792 
 PHE793  MET794  SER795  GLU796  ALA797  LYS798  CYS799  TRP800  GLU811  SER814 

> <Gold.Protein.RotatedAtoms>
  151.1009  133.5244  159.2609 H   0  0  0  0  0  0  0  0  0  0  0  0  # atno 6907 bound_to 6896
  151.2075  135.0467  159.8907 H   0  0  0  0  0  0  0  0  0  0  0  0  # atno 6908 bound_to 6896
  152.5443  134.0829  159.8297 H   0  0  0  0  0  0  0  0  0  0  0  0  # atno 6909 bound_to 6896
  144.9709  139.4606  143.5433 H   0  0  0  0  0  0  0  0  0  0  0  0  # atno 7974 bound_to 7965
  156.2794  140.2744  156.1755 H   0  0  0  0  0  0  0  0  0  0  0  0  # atno 8008 bound_to 7997
  155.0611  140.0386  157.2594 H   0  0  0  0  0  0  0  0  0  0  0  0  # atno 8009 bound_to 7997
  154.7117  140.2670  155.6629 H   0  0  0  0  0  0  0  0  0  0  0  0  # atno 8010 bound_to 7997
  140.6036  143.2367  151.5872 H   0  0  0  0  0  0  0  0  0  0  0  0  # atno 10167 bound_to 10162
  157.6533  130.9613  150.1025 H   0  0  0  0  0  0  0  0  0  0  0  0  # atno 10718 bound_to 10713
  154.8383  135.4464  154.1306 H   0  0  0  0  0  0  0  0  0  0  0  0  # atno 10763 bound_to 10752
  153.2517  135.6927  153.7678 H   0  0  0  0  0  0  0  0  0  0  0  0  # atno 10764 bound_to 10752
  153.6988  135.3375  155.3195 H   0  0  0  0  0  0  0  0  0  0  0  0  # atno 10765 bound_to 10752
  140.6873  134.4079  157.5222 H   0  0  0  0  0  0  0  0  0  0  0  0  # atno 11005 bound_to 11000
  146.3382  139.8921  142.8807 LP  0  0  0  0  0  0  0  0  0  0  0  0  # atno 17320 bound_to 7965
  145.2560  141.0060  143.3854 LP  0  0  0  0  0  0  0  0  0  0  0  0  # atno 17321 bound_to 7965
  139.5309  144.2920  152.1144 LP  0  0  0  0  0  0  0  0  0  0  0  0  # atno 17342 bound_to 10162
  140.2106  144.4567  150.6388 LP  0  0  0  0  0  0  0  0  0  0  0  0  # atno 17343 bound_to 10162
  156.1944  130.3656  149.8868 LP  0  0  0  0  0  0  0  0  0  0  0  0  # atno 17370 bound_to 10713
  156.6788  130.8850  151.3573 LP  0  0  0  0  0  0  0  0  0  0  0  0  # atno 17371 bound_to 10713
  139.8934  134.8732  156.2227 LP  0  0  0  0  0  0  0  0  0  0  0  0  # atno 17394 bound_to 11000
  141.0269  133.7010  156.1364 LP  0  0  0  0  0  0  0  0  0  0  0  0  # atno 17395 bound_to 11000

$$$$
