AV-unprocessed.smi:1010|AV-procd|sdf|4415|dock4
  -GOLD-   22720 2363D 1   1.00000     0.00000
 Structure written by MMmdl.
 55 57  0  0  0  0  0  0  0  0  2 V2000
  144.6103  146.5147  157.2276 C   0  0  0  0  0  0  0  0  0  0  0  0
  145.4946  146.4717  158.4196 N   0  3  0  0  0  0  0  0  0  0  0  0
  145.5295  147.8033  159.0797 C   0  0  0  0  0  0  0  0  0  0  0  0
  145.3247  145.2940  159.3521 C   0  0  0  0  0  0  0  0  0  0  0  0
  145.4939  143.9805  158.5194 C   0  0  0  0  0  0  0  0  0  0  0  0
  146.8744  143.7137  158.1175 N   0  0  0  0  0  0  0  0  0  0  0  0
  147.2954  142.6887  157.3645 C   0  0  0  0  0  0  0  0  0  0  0  0
  146.5467  141.8240  156.9110 O   0  0  0  0  0  0  0  0  0  0  0  0
  148.6281  142.7226  157.2075 N   0  0  0  0  0  0  0  0  0  0  0  0
  149.4614  141.7439  156.5985 C   0  0  0  0  0  0  0  0  0  0  0  0
  149.0393  141.0161  155.4593 C   0  0  0  0  0  0  0  0  0  0  0  0
  149.9260  140.1093  154.8537 C   0  0  0  0  0  0  0  0  0  0  0  0
  151.2131  139.9730  155.4000 C   0  0  0  0  0  0  0  0  0  0  0  0
  151.6344  140.6689  156.4749 N   0  0  0  0  0  0  0  0  0  0  0  0
  150.7865  141.5378  157.0780 C   0  0  0  0  0  0  0  0  0  0  0  0
  151.2761  142.2291  158.2099 N   0  0  0  0  0  0  0  0  0  0  0  0
  152.0063  143.4825  158.0525 C   0  0  0  0  0  0  0  0  0  0  0  0
  152.6931  143.7100  159.3960 C   0  0  0  0  0  0  0  0  0  0  0  0
  153.0497  142.2894  159.8224 C   0  0  0  0  0  0  0  0  0  0  0  0
  151.8924  141.4454  159.2769 C   0  0  0  0  0  0  0  0  0  0  0  0
  146.3715  145.3370  160.5003 C   0  0  0  0  0  0  0  0  0  0  0  0
  146.1117  144.2863  161.5990 C   0  0  0  0  0  0  0  0  0  0  0  0
  144.7928  144.4147  162.1133 O   0  0  0  0  0  0  0  0  0  0  0  0
  143.7888  144.2145  161.1274 C   0  0  0  0  0  0  0  0  0  0  0  0
  143.9240  145.2962  160.0419 C   0  0  0  0  0  0  0  0  0  0  0  0
  143.5578  146.4940  157.5118 H   0  0  0  0  0  0  0  0  0  0  0  0
  144.8130  145.6878  156.5475 H   0  0  0  0  0  0  0  0  0  0  0  0
  144.7811  147.4261  156.6533 H   0  0  0  0  0  0  0  0  0  0  0  0
  144.5376  148.1083  159.4146 H   0  0  0  0  0  0  0  0  0  0  0  0
  145.8854  148.5591  158.3789 H   0  0  0  0  0  0  0  0  0  0  0  0
  146.2017  147.8306  159.9352 H   0  0  0  0  0  0  0  0  0  0  0  0
  145.0885  143.1160  159.0448 H   0  0  0  0  0  0  0  0  0  0  0  0
  144.9185  144.0216  157.5972 H   0  0  0  0  0  0  0  0  0  0  0  0
  147.5690  144.3728  158.4391 H   0  0  0  0  0  0  0  0  0  0  0  0
  149.1169  143.4554  157.7010 H   0  0  0  0  0  0  0  0  0  0  0  0
  148.0598  141.1559  155.0277 H   0  0  0  0  0  0  0  0  0  0  0  0
  149.6309  139.5425  153.9833 H   0  0  0  0  0  0  0  0  0  0  0  0
  151.9262  139.2921  154.9594 H   0  0  0  0  0  0  0  0  0  0  0  0
  152.7617  143.3960  157.2706 H   0  0  0  0  0  0  0  0  0  0  0  0
  151.3367  144.3034  157.7941 H   0  0  0  0  0  0  0  0  0  0  0  0
  153.5603  144.3670  159.3243 H   0  0  0  0  0  0  0  0  0  0  0  0
  151.9910  144.1478  160.1069 H   0  0  0  0  0  0  0  0  0  0  0  0
  153.9820  141.9884  159.3423 H   0  0  0  0  0  0  0  0  0  0  0  0
  153.1789  142.1869  160.9001 H   0  0  0  0  0  0  0  0  0  0  0  0
  151.1539  141.2782  160.0613 H   0  0  0  0  0  0  0  0  0  0  0  0
  152.2401  140.4731  158.9248 H   0  0  0  0  0  0  0  0  0  0  0  0
  147.3807  145.1898  160.1152 H   0  0  0  0  0  0  0  0  0  0  0  0
  146.3627  146.3227  160.9669 H   0  0  0  0  0  0  0  0  0  0  0  0
  146.2736  143.2722  161.2332 H   0  0  0  0  0  0  0  0  0  0  0  0
  146.8158  144.4308  162.4184 H   0  0  0  0  0  0  0  0  0  0  0  0
  143.8448  143.2064  160.7171 H   0  0  0  0  0  0  0  0  0  0  0  0
  142.8145  144.2968  161.6094 H   0  0  0  0  0  0  0  0  0  0  0  0
  143.7471  146.2386  160.5590 H   0  0  0  0  0  0  0  0  0  0  0  0
  143.1208  145.1978  159.3109 H   0  0  0  0  0  0  0  0  0  0  0  0
  146.4222  146.3523  158.0369 H   0  0  0  0  0  0  0  0  0  0  0  0
  1  2  1  0  0  0  0
  1 26  1  0  0  0  0
  1 27  1  0  0  0  0
  1 28  1  0  0  0  0
  2  3  1  0  0  0  0
  2  4  1  0  0  0  0
  2 55  1  0  0  0  0
  3 29  1  0  0  0  0
  3 30  1  0  0  0  0
  3 31  1  0  0  0  0
  4 25  1  0  0  0  0
  4  5  1  0  0  0  0
  4 21  1  0  0  0  0
  5  6  1  0  0  0  0
  5 32  1  0  0  0  0
  5 33  1  0  0  0  0
  6  7  1  0  0  0  0
  6 34  1  0  0  0  0
  7  8  2  0  0  0  0
  7  9  1  0  0  0  0
  9 10  1  0  0  0  0
  9 35  1  0  0  0  0
 10 15  1  0  0  0  0
 10 11  2  0  0  0  0
 11 12  1  0  0  0  0
 11 36  1  0  0  0  0
 12 13  2  0  0  0  0
 12 37  1  0  0  0  0
 13 14  1  0  0  0  0
 13 38  1  0  0  0  0
 14 15  2  0  0  0  0
 15 16  1  0  0  0  0
 16 20  1  0  0  0  0
 16 17  1  0  0  0  0
 17 18  1  0  0  0  0
 17 39  1  0  0  0  0
 17 40  1  0  0  0  0
 18 19  1  0  0  0  0
 18 41  1  0  0  0  0
 18 42  1  0  0  0  0
 19 20  1  0  0  0  0
 19 43  1  0  0  0  0
 19 44  1  0  0  0  0
 20 45  1  0  0  0  0
 20 46  1  0  0  0  0
 21 22  1  0  0  0  0
 21 47  1  0  0  0  0
 21 48  1  0  0  0  0
 22 23  1  0  0  0  0
 22 49  1  0  0  0  0
 22 50  1  0  0  0  0
 23 24  1  0  0  0  0
 24 25  1  0  0  0  0
 24 51  1  0  0  0  0
 24 52  1  0  0  0  0
 25 53  1  0  0  0  0
 25 54  1  0  0  0  0
M  CHG  1   2   1
M  END
> <s_m_source_file>
AV-unprocessed.smi

> <i_m_source_file_index>
1010

> <i_lp_mmshare_version>
43012

> <i_f3d_flags>
0

> <s_epik_input>
W0NIMl0xW0NIMl1PW0NIMl1bQ0gyXUMxKE4oW0NIM10pW0NIM10pW0NIMl1bTkhdQyg9TylbTkhdYzJbY0hdW2NIXVtjSF1uYzJOM1tDSDJdW0NIMl1bQ0gyXVtDSDJdMw==

> <s_epik_cmdline>
J2VwaWtfcHl0aG9uJywgJy1waCcsICc3LjAnLCAnLXRuJywgJzgnLCAnLW1hJywgJzIwMCcsICctbWV0YWxfYmluZGluZycsICctaW1hZScsICc8aW5maWxlLm1hZT4nLCAnLW9tYWUnLCAnPG91dGZpbGUubWFlPic=

> <r_lp_tautomer_probability>
1

> <r_epik_Ionization_Penalty>
0.0977718

> <r_epik_Ionization_Penalty_Charging>
0.0128317

> <r_epik_Ionization_Penalty_Neutral>
0.0849401

> <r_epik_State_Penalty>
0.0837778

> <r_epik_Charging_Adjusted_Penalty>
0.0966095

> <i_epik_Tot_Q>
1

> <i_epik_Tot_abs_Q>
1

> <r_epik_Metal_State_Penalty>
0.0755623

> <b_epik_Metal_Only>
0

> <s_lp_Force_Field>
OPLS_2005

> <r_lp_Energy>
58.4563

> <b_lp_Chiralities_Consistent>
1

> <s_lp_Variant>
AV-unprocessed.smi:1010-1

> <Gold.Version>
5.8.1

> <Gold.Id.Protein>
6NUR|6NUR_protein|mol2

> <Gold.PLP.Fitness>
49.1775

> <Gold.PLP.PLP>
-43.8842

> <Gold.PLP.part.hbond>
-3.0000

> <Gold.PLP.part.metal>
0.0000

> <Gold.PLP.part.buried>
-5.9569

> <Gold.PLP.part.nonpolar>
-34.9219

> <Gold.PLP.part.repulsive>
0.7400

> <Gold.PLP.ligand.clash>
0.0000

> <Gold.PLP.ligand.torsion>
0.8691

> <Gold.PLP.Chemscore.Hbond>
2.1973

> <Gold.PLP.Chemscore.CHOScore>
0.0000

> <Gold.PLP.Chemscore.Metal>
0.0000

> <Gold.Chemscore.Hbonds>
donor molecule, donor type, donor heavy atom, donor atom, acceptor molecule, acceptor atom, score
      L1  H     2    55       P1  8029  2.00
      L1  H     6    34       P1  8029  0.30

> <Gold.PLP.Chemscore.Internal.Correction>
0.4395

> <Gold.Rescore>
     Score         DG    S(hbond)    S(metal)    S(lipo)     H(rot)  DE(clash)    DE(int)     intcor
     15.98     -17.72       1.17        0.00     106.43       1.60       0.13       1.61       ----

> <Gold.Chemscore.Fitness>
15.9804

> <Gold.Chemscore.DG>
-17.7208

> <Gold.Chemscore.ZeroCoef>
-5.4800

> <Gold.Chemscore.Hbond>
1.1657

> <Gold.Chemscore.Metal>
0.0000

> <Gold.Chemscore.Lipo>
106.4267

> <Gold.Chemscore.Internal_Hbond>
0.0000

> <Gold.Chemscore.DEClash>
0.1319

> <Gold.Chemscore.DEInternal>
1.6085

> <Gold.Chemscore.Rot>
1.6033

> <Gold.Chemscore.Internal.Correction>
   9.000000E+99

> <Gold.Chemscore.Hbonds>
donor molecule, donor type, donor heavy atom, donor atom, acceptor molecule, acceptor atom, score
      L1  H     2    55       P1  8029  1.00
      L1  H     6    34       P1  8029  0.25

> <Gold.Chemscore.Hbond.Weighted>
-3.8934

> <Gold.Chemscore.Metal.Weighted>
-0.0000

> <Gold.Chemscore.Lipo.Weighted>
-12.4519

> <Gold.Chemscore.Internal_Hbond.Weighted>
0.0000

> <Gold.Chemscore.DEClash.Weighted>
0.1319

> <Gold.Chemscore.DEInternal.Weighted>
1.6085

> <Gold.Chemscore.Rot.Weighted>
4.1046

> <Gold.Chemscore.Internal.Correction.Weighted>
   9.000000E+99

> <Gold.Protein.RotatedTorsions>
[ 6907 6896 6895 6894 ] final -129.75 input  -60.11 | X-H torsion
[ 7974 7965 7964 7962 ] final   -0.21 input  175.53 | X-H torsion
[ 8008 7997 7996 7995 ] final   91.34 input   59.86 | X-H torsion
[ 10167 10162 10161 10158 ] final  -52.90 input  -65.29 | X-H torsion
[ 10718 10713 10712 10709 ] final   -9.77 input   66.30 | X-H torsion
[ 10763 10752 10751 10750 ] final -145.78 input  -60.55 | X-H torsion
[ 11005 11000 10999 10996 ] final  -13.30 input  -57.11 | X-H torsion

> <Gold.Protein.ActiveResidues>
 VAL166  LYS551  ARG553  GLY616  TRP617  ASP618  TYR619  PRO620  LYS621  CYS622 
 ASP623  PHE694  ASN695  SER759  ASP760  ASP761  ALA762  ILE779  LEU786  VAL792 
 PHE793  MET794  SER795  GLU796  ALA797  LYS798  CYS799  TRP800  GLU811  SER814 

> <Gold.Protein.RotatedAtoms>
  150.9321  133.6754  159.2808 H   0  0  0  0  0  0  0  0  0  0  0  0  # atno 6907 bound_to 6896
  151.4173  135.0992  159.9613 H   0  0  0  0  0  0  0  0  0  0  0  0  # atno 6908 bound_to 6896
  152.5031  133.8781  159.7387 H   0  0  0  0  0  0  0  0  0  0  0  0  # atno 6909 bound_to 6896
  146.2429  140.1235  142.8340 H   0  0  0  0  0  0  0  0  0  0  0  0  # atno 7974 bound_to 7965
  156.0226  140.3339  155.7054 H   0  0  0  0  0  0  0  0  0  0  0  0  # atno 8008 bound_to 7997
  155.6001  140.0655  157.2753 H   0  0  0  0  0  0  0  0  0  0  0  0  # atno 8009 bound_to 7997
  154.4322  140.1812  156.1152 H   0  0  0  0  0  0  0  0  0  0  0  0  # atno 8010 bound_to 7997
  140.6513  143.2568  151.4714 H   0  0  0  0  0  0  0  0  0  0  0  0  # atno 10167 bound_to 10162
  156.6833  130.5043  149.5965 H   0  0  0  0  0  0  0  0  0  0  0  0  # atno 10718 bound_to 10713
  154.8367  135.3404  154.6558 H   0  0  0  0  0  0  0  0  0  0  0  0  # atno 10763 bound_to 10752
  153.7173  135.6960  153.5026 H   0  0  0  0  0  0  0  0  0  0  0  0  # atno 10764 bound_to 10752
  153.2407  135.4385  155.0648 H   0  0  0  0  0  0  0  0  0  0  0  0  # atno 10765 bound_to 10752
  140.7747  133.8410  155.9238 H   0  0  0  0  0  0  0  0  0  0  0  0  # atno 11005 bound_to 11000
  145.0386  140.8928  143.5066 LP  0  0  0  0  0  0  0  0  0  0  0  0  # atno 17320 bound_to 7965
  145.1311  139.2631  143.5539 LP  0  0  0  0  0  0  0  0  0  0  0  0  # atno 17321 bound_to 7965
  139.5729  144.1887  152.1862 LP  0  0  0  0  0  0  0  0  0  0  0  0  # atno 17342 bound_to 10162
  140.1188  144.5391  150.6876 LP  0  0  0  0  0  0  0  0  0  0  0  0  # atno 17343 bound_to 10162
  156.1852  130.6524  151.0997 LP  0  0  0  0  0  0  0  0  0  0  0  0  # atno 17370 bound_to 10713
  157.7036  131.0766  150.6741 LP  0  0  0  0  0  0  0  0  0  0  0  0  # atno 17371 bound_to 10713
  140.9540  134.1742  157.4706 LP  0  0  0  0  0  0  0  0  0  0  0  0  # atno 17394 bound_to 11000
  139.8751  134.9920  156.5575 LP  0  0  0  0  0  0  0  0  0  0  0  0  # atno 17395 bound_to 11000

$$$$
