AV-unprocessed.smi:912|AV-procd|sdf|4145|dock5
  -GOLD-   22720 2 53D 1   1.00000     0.00000
 Structure written by MMmdl.
 27 27  0  0  0  0  0  0  0  0  2 V2000
  150.8735  141.3084  156.0992 C   0  0  0  0  0  0  0  0  0  0  0  0
  151.2354  140.1626  155.2675 N   0  0  0  0  0  0  0  0  0  0  0  0
  150.3299  139.0000  155.2236 C   0  0  2  0  0  0  0  0  0  0  0  0
  150.1097  138.5776  156.6996 C   0  0  0  0  0  0  0  0  0  0  0  0
  150.9432  137.8400  154.3923 C   0  0  0  0  0  0  0  0  0  0  0  0
  150.9353  137.9631  153.0600 N   0  0  0  0  0  0  0  0  0  0  0  0
  151.4130  136.8432  154.9383 O   0  0  0  0  0  0  0  0  0  0  0  0
  148.9634  139.3576  154.6009 C   0  0  0  0  0  0  0  0  0  0  0  0
  147.9064  138.4148  154.4958 C   0  0  0  0  0  0  0  0  0  0  0  0
  146.6814  138.7962  153.9113 C   0  0  0  0  0  0  0  0  0  0  0  0
  146.5146  140.0544  153.4539 N   0  3  0  0  0  0  0  0  0  0  0  0
  147.4840  140.9896  153.5276 C   0  0  0  0  0  0  0  0  0  0  0  0
  148.7298  140.6644  154.1003 C   0  0  0  0  0  0  0  0  0  0  0  0
  151.5620  142.1279  155.8940 H   0  0  0  0  0  0  0  0  0  0  0  0
  150.9517  141.0831  157.1628 H   0  0  0  0  0  0  0  0  0  0  0  0
  149.8666  141.6687  155.8922 H   0  0  0  0  0  0  0  0  0  0  0  0
  152.1851  139.8704  155.4454 H   0  0  0  0  0  0  0  0  0  0  0  0
  149.4267  137.7321  156.7871 H   0  0  0  0  0  0  0  0  0  0  0  0
  149.6808  139.3944  157.2816 H   0  0  0  0  0  0  0  0  0  0  0  0
  151.0342  138.2789  157.1936 H   0  0  0  0  0  0  0  0  0  0  0  0
  151.3113  137.2268  152.4809 H   0  0  0  0  0  0  0  0  0  0  0  0
  150.5388  138.7903  152.6375 H   0  0  0  0  0  0  0  0  0  0  0  0
  148.0101  137.4002  154.8497 H   0  0  0  0  0  0  0  0  0  0  0  0
  145.8355  138.1343  153.7966 H   0  0  0  0  0  0  0  0  0  0  0  0
  147.2365  141.9630  153.1297 H   0  0  0  0  0  0  0  0  0  0  0  0
  149.4990  141.4211  154.1563 H   0  0  0  0  0  0  0  0  0  0  0  0
  145.6196  140.3087  153.0347 H   0  0  0  0  0  0  0  0  0  0  0  0
  1  2  1  0  0  0  0
  1 14  1  0  0  0  0
  1 15  1  0  0  0  0
  1 16  1  0  0  0  0
  2  3  1  0  0  0  0
  2 17  1  0  0  0  0
  3  4  1  0  0  0  0
  3  5  1  0  0  0  0
  3  8  1  0  0  0  0
  4 18  1  0  0  0  0
  4 19  1  0  0  0  0
  4 20  1  0  0  0  0
  5  6  1  0  0  0  0
  5  7  2  0  0  0  0
  6 21  1  0  0  0  0
  6 22  1  0  0  0  0
  8 13  1  0  0  0  0
  8  9  2  0  0  0  0
  9 10  1  0  0  0  0
  9 23  1  0  0  0  0
 10 11  2  0  0  0  0
 10 24  1  0  0  0  0
 11 12  1  0  0  0  0
 11 27  1  0  0  0  0
 12 13  2  0  0  0  0
 12 25  1  0  0  0  0
 13 26  1  0  0  0  0
M  CHG  1  11   1
M  END
> <s_m_source_file>
AV-unprocessed.smi

> <i_m_source_file_index>
912

> <i_lp_mmshare_version>
43012

> <i_f3d_flags>
0

> <s_epik_input>
W0NIM11bTkhdW0NAQF0oW0NIM10pKEMoPU8pW05IMl0pYzFbY0hdW2NIXW5bY0hdW2NIXTE=

> <s_epik_cmdline>
J2VwaWtfcHl0aG9uJywgJy1waCcsICc3LjAnLCAnLXRuJywgJzgnLCAnLW1hJywgJzIwMCcsICctbWV0YWxfYmluZGluZycsICctaW1hZScsICc8aW5maWxlLm1hZT4nLCAnLW9tYWUnLCAnPG91dGZpbGUubWFlPic=

> <r_epik_Ionization_Penalty>
0.562542

> <r_epik_Ionization_Penalty_Charging>
0.554844

> <r_epik_Ionization_Penalty_Neutral>
0.00769834

> <r_epik_State_Penalty>
1.39075

> <r_epik_Charging_Adjusted_Penalty>
1.94559

> <i_epik_Tot_Q>
1

> <i_epik_Tot_abs_Q>
1

> <r_epik_Metal_State_Penalty>
1.55563

> <b_epik_Metal_Only>
0

> <s_lp_Force_Field>
OPLS_2005

> <r_lp_Energy>
18.1992

> <b_lp_Chiralities_Consistent>
1

> <s_lp_Variant>
AV-unprocessed.smi:912-6

> <Gold.Version>
5.8.1

> <Gold.Id.Protein>
6NUR|6NUR_protein|mol2

> <Gold.PLP.Fitness>
32.5701

> <Gold.PLP.PLP>
-17.4775

> <Gold.PLP.part.hbond>
-5.8415

> <Gold.PLP.part.metal>
0.0000

> <Gold.PLP.part.buried>
2.7538

> <Gold.PLP.part.nonpolar>
-15.3368

> <Gold.PLP.part.repulsive>
0.2636

> <Gold.PLP.ligand.clash>
0.0000

> <Gold.PLP.ligand.torsion>
0.5116

> <Gold.PLP.Chemscore.Hbond>
5.3630

> <Gold.PLP.Chemscore.CHOScore>
0.0000

> <Gold.PLP.Chemscore.Metal>
0.0000

> <Gold.Chemscore.Hbonds>
donor molecule, donor type, donor heavy atom, donor atom, acceptor molecule, acceptor atom, score
      L1  H     6    21       P1  7949  1.00
      L1  H     6    22       P1  7957  0.66
      L1  H    11    27       P1 10175  2.00
      P1  H  7989  7998       L1     2  0.70
      P1  H 10752 10764       L1     7  1.00

> <Gold.PLP.Chemscore.Internal.Correction>
0.0268

> <Gold.Rescore>
     Score         DG    S(hbond)    S(metal)    S(lipo)     H(rot)  DE(clash)    DE(int)     intcor
     13.25     -15.12       2.83        0.00      41.63       1.82       1.53       0.33       ----

> <Gold.Chemscore.Fitness>
13.2541

> <Gold.Chemscore.DG>
-15.1211

> <Gold.Chemscore.ZeroCoef>
-5.4800

> <Gold.Chemscore.Hbond>
2.8252

> <Gold.Chemscore.Metal>
0.0000

> <Gold.Chemscore.Lipo>
41.6296

> <Gold.Chemscore.Internal_Hbond>
0.0000

> <Gold.Chemscore.DEClash>
1.5321

> <Gold.Chemscore.DEInternal>
0.3349

> <Gold.Chemscore.Rot>
1.8226

> <Gold.Chemscore.Internal.Correction>
   9.000000E+99

> <Gold.Chemscore.Hbonds>
donor molecule, donor type, donor heavy atom, donor atom, acceptor molecule, acceptor atom, score
      L1  H     6    21       P1  7949  0.71
      L1  H     6    22       P1  7957  0.11
      L1  H    11    27       P1 10175  0.90
      P1  H  7989  7998       L1     2  0.03
      P1  H 10752 10764       L1     7  0.92

> <Gold.Chemscore.Hbond.Weighted>
-9.4363

> <Gold.Chemscore.Metal.Weighted>
-0.0000

> <Gold.Chemscore.Lipo.Weighted>
-4.8707

> <Gold.Chemscore.Internal_Hbond.Weighted>
0.0000

> <Gold.Chemscore.DEClash.Weighted>
1.5321

> <Gold.Chemscore.DEInternal.Weighted>
0.3349

> <Gold.Chemscore.Rot.Weighted>
4.6659

> <Gold.Chemscore.Internal.Correction.Weighted>
   9.000000E+99

> <Gold.Protein.RotatedTorsions>
[ 6907 6896 6895 6894 ] final  118.51 input  -60.11 | X-H torsion
[ 7974 7965 7964 7962 ] final  148.99 input  175.53 | X-H torsion
[ 8008 7997 7996 7995 ] final   48.68 input   59.86 | X-H torsion
[ 10167 10162 10161 10158 ] final  133.45 input  -65.29 | X-H torsion
[ 10718 10713 10712 10709 ] final  106.26 input   66.30 | X-H torsion
[ 10763 10752 10751 10750 ] final  -76.75 input  -60.55 | X-H torsion
[ 11005 11000 10999 10996 ] final -161.11 input  -57.11 | X-H torsion

> <Gold.Protein.ActiveResidues>
 VAL166  LYS551  ARG553  GLY616  TRP617  ASP618  TYR619  PRO620  LYS621  CYS622 
 ASP623  PHE694  ASN695  SER759  ASP760  ASP761  ALA762  ILE779  LEU786  VAL792 
 PHE793  MET794  SER795  GLU796  ALA797  LYS798  CYS799  TRP800  GLU811  SER814 

> <Gold.Protein.RotatedAtoms>
  152.4538  133.7681  159.6783 H   0  0  0  0  0  0  0  0  0  0  0  0  # atno 6907 bound_to 6896
  150.8457  133.7854  159.3050 H   0  0  0  0  0  0  0  0  0  0  0  0  # atno 6908 bound_to 6896
  151.5465  135.1071  159.9991 H   0  0  0  0  0  0  0  0  0  0  0  0  # atno 6909 bound_to 6896
  144.8472  139.6223  143.5990 H   0  0  0  0  0  0  0  0  0  0  0  0  # atno 7974 bound_to 7965
  155.3896  140.3432  155.4250 H   0  0  0  0  0  0  0  0  0  0  0  0  # atno 8008 bound_to 7997
  156.1565  140.1587  156.8717 H   0  0  0  0  0  0  0  0  0  0  0  0  # atno 8009 bound_to 7997
  154.5099  140.0792  156.7951 H   0  0  0  0  0  0  0  0  0  0  0  0  # atno 8010 bound_to 7997
  139.5297  144.6615  151.4997 H   0  0  0  0  0  0  0  0  0  0  0  0  # atno 10167 bound_to 10162
  157.6675  131.0847  150.5980 H   0  0  0  0  0  0  0  0  0  0  0  0  # atno 10718 bound_to 10713
  154.5039  135.5787  153.6552 H   0  0  0  0  0  0  0  0  0  0  0  0  # atno 10763 bound_to 10752
  152.9884  135.6142  154.2966 H   0  0  0  0  0  0  0  0  0  0  0  0  # atno 10764 bound_to 10752
  154.2876  135.2849  155.2649 H   0  0  0  0  0  0  0  0  0  0  0  0  # atno 10765 bound_to 10752
  140.6240  134.4721  157.5225 H   0  0  0  0  0  0  0  0  0  0  0  0  # atno 11005 bound_to 11000
  146.2754  139.6740  142.9266 LP  0  0  0  0  0  0  0  0  0  0  0  0  # atno 17320 bound_to 7965
  145.4573  141.0431  143.2771 LP  0  0  0  0  0  0  0  0  0  0  0  0  # atno 17321 bound_to 7965
  140.6466  143.8782  150.6743 LP  0  0  0  0  0  0  0  0  0  0  0  0  # atno 17342 bound_to 10162
  140.2134  143.3866  152.1700 LP  0  0  0  0  0  0  0  0  0  0  0  0  # atno 17343 bound_to 10162
  156.6281  130.4424  149.5797 LP  0  0  0  0  0  0  0  0  0  0  0  0  # atno 17370 bound_to 10713
  156.2303  130.6790  151.1457 LP  0  0  0  0  0  0  0  0  0  0  0  0  # atno 17371 bound_to 10713
  139.9142  134.8281  156.1423 LP  0  0  0  0  0  0  0  0  0  0  0  0  # atno 17394 bound_to 11000
  141.0722  133.6791  156.2164 LP  0  0  0  0  0  0  0  0  0  0  0  0  # atno 17395 bound_to 11000

$$$$
