AV-unprocessed.smi:3150|AV-procd|sdf|12008|dock1
  -GOLD-   2272017413D 1   1.00000     0.00000
 Structure written by MMmdl.
 33 34  0  0  0  0  0  0  0  0  1 V2000
  147.6747  134.6645  159.4939 C   0  0  0  0  0  0  0  0  0  0  0  0
  147.7306  136.1469  159.0954 C   0  0  1  0  0  0  0  0  0  0  0  0
  147.4319  136.9173  160.2566 O   0  0  0  0  0  0  0  0  0  0  0  0
  146.0741  136.8802  160.6787 C   0  0  0  0  0  0  0  0  0  0  0  0
  146.0303  136.5181  162.1474 C   0  0  0  0  0  0  0  0  0  0  0  0
  147.2770  136.6254  162.9962 C   0  0  0  0  0  0  0  0  0  0  0  0
  146.7151  135.2690  162.6545 C   0  0  0  0  0  0  0  0  0  0  0  0
  149.1132  136.5286  158.5419 C   0  0  0  0  0  0  0  0  0  0  0  0
  150.0957  136.5057  159.2840 O   0  0  0  0  0  0  0  0  0  0  0  0
  149.1417  136.8870  157.2448 N   0  0  0  0  0  0  0  0  0  0  0  0
  150.2551  137.2986  156.4617 C   0  0  0  0  0  0  0  0  0  0  0  0
  151.1921  138.1726  156.9079 N   0  0  0  0  0  0  0  0  0  0  0  0
  152.2199  138.5109  156.1021 C   0  0  0  0  0  0  0  0  0  0  0  0
  152.3782  137.9997  154.8017 C   0  0  0  0  0  0  0  0  0  0  0  0
  151.4151  137.0936  154.3250 C   0  0  0  0  0  0  0  0  0  0  0  0
  150.3390  136.7363  155.1621 C   0  0  0  0  0  0  0  0  0  0  0  0
  149.3981  135.8561  154.7036 O   0  0  0  0  0  0  0  0  0  0  0  0
  147.9157  134.0181  158.6494 H   0  0  0  0  0  0  0  0  0  0  0  0
  146.6763  134.3952  159.8392 H   0  0  0  0  0  0  0  0  0  0  0  0
  148.3728  134.4380  160.3007 H   0  0  0  0  0  0  0  0  0  0  0  0
  146.9651  136.3239  158.3372 H   0  0  0  0  0  0  0  0  0  0  0  0
  145.5777  137.8397  160.5270 H   0  0  0  0  0  0  0  0  0  0  0  0
  145.5244  136.1262  160.1142 H   0  0  0  0  0  0  0  0  0  0  0  0
  145.0992  136.7910  162.6405 H   0  0  0  0  0  0  0  0  0  0  0  0
  148.2025  136.9214  162.5058 H   0  0  0  0  0  0  0  0  0  0  0  0
  147.1595  136.9747  164.0199 H   0  0  0  0  0  0  0  0  0  0  0  0
  146.2208  134.7143  163.4494 H   0  0  0  0  0  0  0  0  0  0  0  0
  147.2632  134.6636  161.9351 H   0  0  0  0  0  0  0  0  0  0  0  0
  148.2581  136.8681  156.7566 H   0  0  0  0  0  0  0  0  0  0  0  0
  152.9372  139.2093  156.5069 H   0  0  0  0  0  0  0  0  0  0  0  0
  153.2158  138.2950  154.1875 H   0  0  0  0  0  0  0  0  0  0  0  0
  151.5021  136.6792  153.3313 H   0  0  0  0  0  0  0  0  0  0  0  0
  149.3173  135.8576  153.7620 H   0  0  0  0  0  0  0  0  0  0  0  0
  1  2  1  0  0  0  0
  1 18  1  0  0  0  0
  1 19  1  0  0  0  0
  1 20  1  0  0  0  0
  2  3  1  0  0  0  0
  2  8  1  0  0  0  0
  2 21  1  0  0  0  0
  3  4  1  0  0  0  0
  4  5  1  0  0  0  0
  4 22  1  0  0  0  0
  4 23  1  0  0  0  0
  5  7  1  0  0  0  0
  5  6  1  0  0  0  0
  5 24  1  0  0  0  0
  6  7  1  0  0  0  0
  6 25  1  0  0  0  0
  6 26  1  0  0  0  0
  7 27  1  0  0  0  0
  7 28  1  0  0  0  0
  8  9  2  0  0  0  0
  8 10  1  0  0  0  0
 10 11  1  0  0  0  0
 10 29  1  0  0  0  0
 11 16  1  0  0  0  0
 11 12  2  0  0  0  0
 12 13  1  0  0  0  0
 13 14  2  0  0  0  0
 13 30  1  0  0  0  0
 14 15  1  0  0  0  0
 14 31  1  0  0  0  0
 15 16  2  0  0  0  0
 15 32  1  0  0  0  0
 16 17  1  0  0  0  0
 17 33  1  0  0  0  0
M  END
> <s_m_source_file>
AV-unprocessed.smi

> <i_m_source_file_index>
3150

> <i_lp_mmshare_version>
43012

> <i_f3d_flags>
0

> <s_epik_input>
W0NIMl0xW0NIMl1bQ0hdMVtDSDJdT1tDQEBIXShbQ0gzXSlDKD1PKVtOSF1jMm5bY0hdW2NIXVtjSF1jMltPSF0=

> <s_epik_cmdline>
J2VwaWtfcHl0aG9uJywgJy1waCcsICc3LjAnLCAnLXRuJywgJzgnLCAnLW1hJywgJzIwMCcsICctbWV0YWxfYmluZGluZycsICctaW1hZScsICc8aW5maWxlLm1hZT4nLCAnLW9tYWUnLCAnPG91dGZpbGUubWFlPic=

> <r_lp_tautomer_probability>
0.43658

> <r_epik_Ionization_Penalty>
0.0204299

> <r_epik_Ionization_Penalty_Charging>
0

> <r_epik_Ionization_Penalty_Neutral>
0.0204299

> <r_epik_State_Penalty>
0.419322

> <r_epik_Charging_Adjusted_Penalty>
0.419322

> <i_epik_Tot_Q>
0

> <i_epik_Tot_abs_Q>
0

> <r_epik_Metal_State_Penalty>
0.377394

> <b_epik_Metal_Only>
0

> <s_lp_Force_Field>
OPLS_2005

> <r_lp_Energy>
16.197

> <b_lp_Chiralities_Consistent>
1

> <s_lp_Variant>
AV-unprocessed.smi:3150-2

> <Gold.Version>
5.8.1

> <Gold.Id.Protein>
6NUR|6NUR_protein|mol2

> <Gold.PLP.Fitness>
37.2576

> <Gold.PLP.PLP>
-31.1441

> <Gold.PLP.part.hbond>
-4.0000

> <Gold.PLP.part.metal>
0.0000

> <Gold.PLP.part.buried>
-2.5158

> <Gold.PLP.part.nonpolar>
-24.6738

> <Gold.PLP.part.repulsive>
0.0182

> <Gold.PLP.ligand.clash>
0.0000

> <Gold.PLP.ligand.torsion>
1.1944

> <Gold.PLP.Chemscore.Hbond>
2.6243

> <Gold.PLP.Chemscore.CHOScore>
0.0000

> <Gold.PLP.Chemscore.Metal>
0.0000

> <Gold.Chemscore.Hbonds>
donor molecule, donor type, donor heavy atom, donor atom, acceptor molecule, acceptor atom, score
      L1  H    17    33       P1  7948  1.00
      P1  H  6896  6908       L1     9  1.00

> <Gold.PLP.Chemscore.Internal.Correction>
0.6296

> <Gold.Rescore>
     Score         DG    S(hbond)    S(metal)    S(lipo)     H(rot)  DE(clash)    DE(int)     intcor
     14.12     -15.68       2.28        0.00      70.70       2.22       0.27       1.30       ----

> <Gold.Chemscore.Fitness>
14.1213

> <Gold.Chemscore.DG>
-15.6844

> <Gold.Chemscore.ZeroCoef>
-5.4800

> <Gold.Chemscore.Hbond>
2.2797

> <Gold.Chemscore.Metal>
0.0000

> <Gold.Chemscore.Lipo>
70.6957

> <Gold.Chemscore.Internal_Hbond>
0.0000

> <Gold.Chemscore.DEClash>
0.2676

> <Gold.Chemscore.DEInternal>
1.2955

> <Gold.Chemscore.Rot>
2.2192

> <Gold.Chemscore.Internal.Correction>
   9.000000E+99

> <Gold.Chemscore.Hbonds>
donor molecule, donor type, donor heavy atom, donor atom, acceptor molecule, acceptor atom, score
      L1  H    17    33       P1  7948  0.65
      P1  H  6896  6908       L1     9  0.98

> <Gold.Chemscore.Hbond.Weighted>
-7.6142

> <Gold.Chemscore.Metal.Weighted>
-0.0000

> <Gold.Chemscore.Lipo.Weighted>
-8.2714

> <Gold.Chemscore.Internal_Hbond.Weighted>
0.0000

> <Gold.Chemscore.DEClash.Weighted>
0.2676

> <Gold.Chemscore.DEInternal.Weighted>
1.2955

> <Gold.Chemscore.Rot.Weighted>
5.6812

> <Gold.Chemscore.Internal.Correction.Weighted>
   9.000000E+99

> <Gold.Protein.RotatedTorsions>
[ 6907 6896 6895 6894 ] final -166.57 input  -60.11 | X-H torsion
[ 7974 7965 7964 7962 ] final  -98.97 input  175.53 | X-H torsion
[ 8008 7997 7996 7995 ] final  157.72 input   59.86 | X-H torsion
[ 10167 10162 10161 10158 ] final  -41.07 input  -65.29 | X-H torsion
[ 10718 10713 10712 10709 ] final  -49.13 input   66.30 | X-H torsion
[ 10763 10752 10751 10750 ] final  166.71 input  -60.55 | X-H torsion
[ 11005 11000 10999 10996 ] final -115.02 input  -57.11 | X-H torsion

> <Gold.Protein.ActiveResidues>
 VAL166  LYS551  ARG553  GLY616  TRP617  ASP618  TYR619  PRO620  LYS621  CYS622 
 ASP623  PHE694  ASN695  SER759  ASP760  ASP761  ALA762  ILE779  LEU786  VAL792 
 PHE793  MET794  SER795  GLU796  ALA797  LYS798  CYS799  TRP800  GLU811  SER814 

> <Gold.Protein.RotatedAtoms>
  151.4456  133.3631  159.2787 H   0  0  0  0  0  0  0  0  0  0  0  0  # atno 6907 bound_to 6896
  150.9127  134.8545  159.7446 H   0  0  0  0  0  0  0  0  0  0  0  0  # atno 6908 bound_to 6896
  152.4940  134.4387  159.9588 H   0  0  0  0  0  0  0  0  0  0  0  0  # atno 6909 bound_to 6896
  145.3136  140.9406  143.2755 H   0  0  0  0  0  0  0  0  0  0  0  0  # atno 7974 bound_to 7965
  156.2347  140.1877  156.7152 H   0  0  0  0  0  0  0  0  0  0  0  0  # atno 8008 bound_to 7997
  154.6084  140.0625  156.9489 H   0  0  0  0  0  0  0  0  0  0  0  0  # atno 8009 bound_to 7997
  155.2057  140.3296  155.4339 H   0  0  0  0  0  0  0  0  0  0  0  0  # atno 8010 bound_to 7997
  140.7014  143.3116  151.3014 H   0  0  0  0  0  0  0  0  0  0  0  0  # atno 10167 bound_to 10162
  156.1922  130.4153  149.9356 H   0  0  0  0  0  0  0  0  0  0  0  0  # atno 10718 bound_to 10713
  154.3430  135.2754  155.2412 H   0  0  0  0  0  0  0  0  0  0  0  0  # atno 10763 bound_to 10752
  154.4675  135.5891  153.6301 H   0  0  0  0  0  0  0  0  0  0  0  0  # atno 10764 bound_to 10752
  152.9856  135.6080  154.3633 H   0  0  0  0  0  0  0  0  0  0  0  0  # atno 10765 bound_to 10752
  141.0515  133.9680  157.2828 H   0  0  0  0  0  0  0  0  0  0  0  0  # atno 11005 bound_to 11000
  144.8996  139.4667  143.6639 LP  0  0  0  0  0  0  0  0  0  0  0  0  # atno 17320 bound_to 7965
  146.3108  139.7741  142.9021 LP  0  0  0  0  0  0  0  0  0  0  0  0  # atno 17321 bound_to 7965
  139.6541  144.0309  152.2647 LP  0  0  0  0  0  0  0  0  0  0  0  0  # atno 17342 bound_to 10162
  139.9854  144.6399  150.7862 LP  0  0  0  0  0  0  0  0  0  0  0  0  # atno 17343 bound_to 10162
  156.7092  130.8963  151.3607 LP  0  0  0  0  0  0  0  0  0  0  0  0  # atno 17370 bound_to 10713
  157.6936  130.9258  150.0581 LP  0  0  0  0  0  0  0  0  0  0  0  0  # atno 17371 bound_to 10713
  139.9354  135.0197  156.8538 LP  0  0  0  0  0  0  0  0  0  0  0  0  # atno 17394 bound_to 11000
  140.6047  134.0139  155.7551 LP  0  0  0  0  0  0  0  0  0  0  0  0  # atno 17395 bound_to 11000

$$$$
