AV-unprocessed.smi:3303|AV-procd|sdf|12664|dock9
  -GOLD-   2272019 03D 1   1.00000     0.00000
 Structure written by MMmdl.
 45 46  0  0  0  0  0  0  0  0  3 V2000
  152.7070  138.5089  154.4036 C   0  0  0  0  0  0  0  0  0  0  0  0
  151.2476  138.0760  154.1843 C   0  0  1  0  0  0  0  0  0  0  0  0
  150.9077  136.7721  154.9324 C   0  0  0  0  0  0  0  0  0  0  0  0
  149.5249  136.3101  154.6402 N   0  3  1  0  0  0  0  0  0  0  0  0
  149.2696  134.9852  155.2564 C   0  0  0  0  0  0  0  0  0  0  0  0
  148.5000  137.3440  154.9783 C   0  0  2  0  0  0  0  0  0  0  0  0
  147.0678  136.8927  154.6310 C   0  0  0  0  0  0  0  0  0  0  0  0
  148.8083  138.6758  154.2558 C   0  0  0  0  0  0  0  0  0  0  0  0
  150.2336  139.1902  154.5171 C   0  0  1  0  0  0  0  0  0  0  0  0
  150.3690  139.6732  155.9131 N   0  3  0  0  0  0  0  0  0  0  0  0
  150.9387  141.0291  156.0462 C   0  0  0  0  0  0  0  0  0  0  0  0
  150.2382  141.8148  157.1625 C   0  0  0  0  0  0  0  0  0  0  0  0
  151.2237  142.3851  158.1644 C   0  0  0  0  0  0  0  0  0  0  0  0
  151.3860  143.7800  158.3048 C   0  0  0  0  0  0  0  0  0  0  0  0
  152.3103  144.2542  159.2560 C   0  0  0  0  0  0  0  0  0  0  0  0
  153.0316  143.3208  160.0253 C   0  0  0  0  0  0  0  0  0  0  0  0
  152.7951  141.9485  159.8098 C   0  0  0  0  0  0  0  0  0  0  0  0
  151.9096  141.4832  158.9018 N   0  0  0  0  0  0  0  0  0  0  0  0
  152.9196  138.7013  155.4556 H   0  0  0  0  0  0  0  0  0  0  0  0
  152.9357  139.4171  153.8450 H   0  0  0  0  0  0  0  0  0  0  0  0
  153.3982  137.7357  154.0664 H   0  0  0  0  0  0  0  0  0  0  0  0
  151.1493  137.8644  153.1180 H   0  0  0  0  0  0  0  0  0  0  0  0
  151.6135  135.9964  154.6317 H   0  0  0  0  0  0  0  0  0  0  0  0
  151.0294  136.9045  156.0089 H   0  0  0  0  0  0  0  0  0  0  0  0
  149.1868  135.0668  156.3410 H   0  0  0  0  0  0  0  0  0  0  0  0
  150.0789  134.2901  155.0312 H   0  0  0  0  0  0  0  0  0  0  0  0
  148.3563  134.5331  154.8711 H   0  0  0  0  0  0  0  0  0  0  0  0
  148.5427  137.5173  156.0552 H   0  0  0  0  0  0  0  0  0  0  0  0
  146.3543  137.7007  154.7959 H   0  0  0  0  0  0  0  0  0  0  0  0
  146.7377  136.0591  155.2508 H   0  0  0  0  0  0  0  0  0  0  0  0
  146.9870  136.5914  153.5858 H   0  0  0  0  0  0  0  0  0  0  0  0
  148.6773  138.5353  153.1816 H   0  0  0  0  0  0  0  0  0  0  0  0
  148.0840  139.4385  154.5465 H   0  0  0  0  0  0  0  0  0  0  0  0
  150.4119  140.0270  153.8388 H   0  0  0  0  0  0  0  0  0  0  0  0
  149.4552  139.6753  156.3433 H   0  0  0  0  0  0  0  0  0  0  0  0
  152.0058  140.9526  156.2601 H   0  0  0  0  0  0  0  0  0  0  0  0
  150.8338  141.5537  155.0952 H   0  0  0  0  0  0  0  0  0  0  0  0
  149.6545  142.6329  156.7377 H   0  0  0  0  0  0  0  0  0  0  0  0
  149.5292  141.1704  157.6842 H   0  0  0  0  0  0  0  0  0  0  0  0
  150.8187  144.4732  157.7009 H   0  0  0  0  0  0  0  0  0  0  0  0
  152.4633  145.3146  159.3929 H   0  0  0  0  0  0  0  0  0  0  0  0
  153.7489  143.6486  160.7632 H   0  0  0  0  0  0  0  0  0  0  0  0
  153.3295  141.2051  160.3827 H   0  0  0  0  0  0  0  0  0  0  0  0
  150.9611  139.0304  156.4195 H   0  0  0  0  0  0  0  0  0  0  0  0
  149.4765  136.1696  153.6407 H   0  0  0  0  0  0  0  0  0  0  0  0
  1  2  1  0  0  0  0
  1 19  1  0  0  0  0
  1 20  1  0  0  0  0
  1 21  1  0  0  0  0
  2  9  1  0  0  0  0
  2  3  1  0  0  0  0
  2 22  1  0  0  0  0
  3  4  1  0  0  0  0
  3 23  1  0  0  0  0
  3 24  1  0  0  0  0
  4  5  1  0  0  0  0
  4  6  1  0  0  0  0
  4 45  1  0  0  0  0
  5 25  1  0  0  0  0
  5 26  1  0  0  0  0
  5 27  1  0  0  0  0
  6  7  1  0  0  0  0
  6  8  1  0  0  0  0
  6 28  1  0  0  0  0
  7 29  1  0  0  0  0
  7 30  1  0  0  0  0
  7 31  1  0  0  0  0
  8  9  1  0  0  0  0
  8 32  1  0  0  0  0
  8 33  1  0  0  0  0
  9 10  1  0  0  0  0
  9 34  1  0  0  0  0
 10 11  1  0  0  0  0
 10 35  1  0  0  0  0
 10 44  1  0  0  0  0
 11 12  1  0  0  0  0
 11 36  1  0  0  0  0
 11 37  1  0  0  0  0
 12 13  1  0  0  0  0
 12 38  1  0  0  0  0
 12 39  1  0  0  0  0
 13 18  1  0  0  0  0
 13 14  2  0  0  0  0
 14 15  1  0  0  0  0
 14 40  1  0  0  0  0
 15 16  2  0  0  0  0
 15 41  1  0  0  0  0
 16 17  1  0  0  0  0
 16 42  1  0  0  0  0
 17 18  2  0  0  0  0
 17 43  1  0  0  0  0
M  CHG  1   4   1
M  CHG  1  10   1
M  END
> <s_m_source_file>
AV-unprocessed.smi

> <i_m_source_file_index>
3303

> <i_lp_mmshare_version>
43012

> <i_f3d_flags>
0

> <s_epik_input>
W0NIM11bQ0BASF0xW0NIMl1OKFtDSDNdKVtDQEBIXShbQ0gzXSlbQ0gyXVtDQEhdMVtOSF1bQ0gyXVtDSDJdYzJbY0hdW2NIXVtjSF1bY0hdbjI=

> <s_epik_cmdline>
J2VwaWtfcHl0aG9uJywgJy1waCcsICc3LjAnLCAnLXRuJywgJzgnLCAnLW1hJywgJzIwMCcsICctbWV0YWxfYmluZGluZycsICctaW1hZScsICc8aW5maWxlLm1hZT4nLCAnLW9tYWUnLCAnPG91dGZpbGUubWFlPic=

> <r_epik_Ionization_Penalty>
0.0769462

> <r_epik_Ionization_Penalty_Charging>
0.0759813

> <r_epik_Ionization_Penalty_Neutral>
0.000964829

> <r_epik_State_Penalty>
0.0654373

> <r_epik_Charging_Adjusted_Penalty>
0.141419

> <i_epik_Tot_Q>
2

> <i_epik_Tot_abs_Q>
2

> <r_epik_Metal_State_Penalty>
0.0656439

> <b_epik_Metal_Only>
0

> <s_lp_Force_Field>
OPLS_2005

> <r_lp_Energy>
34.3244

> <b_lp_Chiralities_Consistent>
1

> <s_lp_Variant>
AV-unprocessed.smi:3303-8

> <Gold.Version>
5.8.1

> <Gold.Id.Protein>
6NUR|6NUR_protein|mol2

> <Gold.PLP.Fitness>
43.4885

> <Gold.PLP.PLP>
-40.1920

> <Gold.PLP.part.hbond>
-1.0000

> <Gold.PLP.part.metal>
0.0000

> <Gold.PLP.part.buried>
-3.9189

> <Gold.PLP.part.nonpolar>
-34.8014

> <Gold.PLP.part.repulsive>
0.0812

> <Gold.PLP.ligand.clash>
0.0000

> <Gold.PLP.ligand.torsion>
1.3642

> <Gold.PLP.Chemscore.Hbond>
2.0000

> <Gold.PLP.Chemscore.CHOScore>
0.0000

> <Gold.PLP.Chemscore.Metal>
0.0000

> <Gold.Chemscore.Hbonds>
donor molecule, donor type, donor heavy atom, donor atom, acceptor molecule, acceptor atom, score
      L1  H     4    45       P1  7948  2.00

> <Gold.PLP.Chemscore.Internal.Correction>
0.0248

> <Gold.Rescore>
     Score         DG    S(hbond)    S(metal)    S(lipo)     H(rot)  DE(clash)    DE(int)     intcor
     17.90     -19.38       0.99        0.00     120.61       1.37       0.17       1.31       ----

> <Gold.Chemscore.Fitness>
17.8975

> <Gold.Chemscore.DG>
-19.3769

> <Gold.Chemscore.ZeroCoef>
-5.4800

> <Gold.Chemscore.Hbond>
0.9891

> <Gold.Chemscore.Metal>
0.0000

> <Gold.Chemscore.Lipo>
120.6124

> <Gold.Chemscore.Internal_Hbond>
0.0000

> <Gold.Chemscore.DEClash>
0.1708

> <Gold.Chemscore.DEInternal>
1.3086

> <Gold.Chemscore.Rot>
1.3744

> <Gold.Chemscore.Internal.Correction>
   9.000000E+99

> <Gold.Chemscore.Hbonds>
donor molecule, donor type, donor heavy atom, donor atom, acceptor molecule, acceptor atom, score
      L1  H     4    45       P1  7948  0.60

> <Gold.Chemscore.Hbond.Weighted>
-3.3037

> <Gold.Chemscore.Metal.Weighted>
-0.0000

> <Gold.Chemscore.Lipo.Weighted>
-14.1116

> <Gold.Chemscore.Internal_Hbond.Weighted>
0.0000

> <Gold.Chemscore.DEClash.Weighted>
0.1708

> <Gold.Chemscore.DEInternal.Weighted>
1.3086

> <Gold.Chemscore.Rot.Weighted>
3.5185

> <Gold.Chemscore.Internal.Correction.Weighted>
   9.000000E+99

> <Gold.Protein.RotatedTorsions>
[ 6907 6896 6895 6894 ] final  -82.88 input  -60.11 | X-H torsion
[ 7974 7965 7964 7962 ] final    6.71 input  175.53 | X-H torsion
[ 8008 7997 7996 7995 ] final  168.73 input   59.86 | X-H torsion
[ 10167 10162 10161 10158 ] final -129.63 input  -65.29 | X-H torsion
[ 10718 10713 10712 10709 ] final   81.86 input   66.30 | X-H torsion
[ 10763 10752 10751 10750 ] final   82.97 input  -60.55 | X-H torsion
[ 11005 11000 10999 10996 ] final  -63.05 input  -57.11 | X-H torsion

> <Gold.Protein.ActiveResidues>
 VAL166  LYS551  ARG553  GLY616  TRP617  ASP618  TYR619  PRO620  LYS621  CYS622 
 ASP623  PHE694  ASN695  SER759  ASP760  ASP761  ALA762  ILE779  LEU786  VAL792 
 PHE793  MET794  SER795  GLU796  ALA797  LYS798  CYS799  TRP800  GLU811  SER814 

> <Gold.Protein.RotatedAtoms>
  150.6892  134.3598  159.4945 H   0  0  0  0  0  0  0  0  0  0  0  0  # atno 6907 bound_to 6896
  152.1428  134.9046  160.0562 H   0  0  0  0  0  0  0  0  0  0  0  0  # atno 6908 bound_to 6896
  152.0174  133.3850  159.4281 H   0  0  0  0  0  0  0  0  0  0  0  0  # atno 6909 bound_to 6896
  146.2432  140.0192  142.8399 H   0  0  0  0  0  0  0  0  0  0  0  0  # atno 7974 bound_to 7965
  156.1521  140.1583  156.8752 H   0  0  0  0  0  0  0  0  0  0  0  0  # atno 8008 bound_to 7997
  154.5081  140.0808  156.7971 H   0  0  0  0  0  0  0  0  0  0  0  0  # atno 8009 bound_to 7997
  155.3875  140.3408  155.4252 H   0  0  0  0  0  0  0  0  0  0  0  0  # atno 8010 bound_to 7997
  139.9377  143.6198  152.2512 H   0  0  0  0  0  0  0  0  0  0  0  0  # atno 10167 bound_to 10162
  157.6843  131.0022  150.2289 H   0  0  0  0  0  0  0  0  0  0  0  0  # atno 10718 bound_to 10713
  153.1249  135.4708  154.9256 H   0  0  0  0  0  0  0  0  0  0  0  0  # atno 10763 bound_to 10752
  154.7611  135.3132  154.8379 H   0  0  0  0  0  0  0  0  0  0  0  0  # atno 10764 bound_to 10752
  153.8934  135.6882  153.4813 H   0  0  0  0  0  0  0  0  0  0  0  0  # atno 10765 bound_to 10752
  141.1380  133.6647  156.5621 H   0  0  0  0  0  0  0  0  0  0  0  0  # atno 11005 bound_to 11000
  145.1256  140.9488  143.4574 LP  0  0  0  0  0  0  0  0  0  0  0  0  # atno 17320 bound_to 7965
  145.0438  139.3238  143.5963 LP  0  0  0  0  0  0  0  0  0  0  0  0  # atno 17321 bound_to 7965
  139.6730  144.7660  151.1749 LP  0  0  0  0  0  0  0  0  0  0  0  0  # atno 17342 bound_to 10162
  140.7620  143.5837  150.8868 LP  0  0  0  0  0  0  0  0  0  0  0  0  # atno 17343 bound_to 10162
  156.2925  130.3747  149.7827 LP  0  0  0  0  0  0  0  0  0  0  0  0  # atno 17370 bound_to 10713
  156.5482  130.8330  151.3291 LP  0  0  0  0  0  0  0  0  0  0  0  0  # atno 17371 bound_to 10713
  140.3980  134.7382  157.4762 LP  0  0  0  0  0  0  0  0  0  0  0  0  # atno 17394 bound_to 11000
  140.0517  134.6121  155.8854 LP  0  0  0  0  0  0  0  0  0  0  0  0  # atno 17395 bound_to 11000

$$$$
