AV-unprocessed.smi:1898|AV-procd|sdf|7702|dock3
  -GOLD-   22720 9443D 1   1.00000     0.00000
 Structure written by MMmdl.
 47 48  0  0  0  0  0  0  0  0  2 V2000
  143.2639  136.9723  152.0990 C   0  0  0  0  0  0  0  0  0  0  0  0
  144.3367  137.9553  152.1056 N   0  0  0  0  0  0  0  0  0  0  0  0
  145.6364  137.6526  151.9787 C   0  0  0  0  0  0  0  0  0  0  0  0
  146.0513  136.5004  151.8494 O   0  0  0  0  0  0  0  0  0  0  0  0
  146.6141  138.8316  152.0230 C   0  0  0  0  0  0  0  0  0  0  0  0
  146.3878  139.7313  153.1835 N   0  3  2  0  0  0  0  0  0  0  0  0
  147.2608  140.9321  153.1483 C   0  0  0  0  0  0  0  0  0  0  0  0
  146.9007  141.9164  154.2762 C   0  0  0  0  0  0  0  0  0  0  0  0
  146.9440  141.2506  155.6624 C   0  0  2  0  0  0  0  0  0  0  0  0
  148.3266  140.9836  156.0585 N   0  0  0  0  0  0  0  0  0  0  0  0
  148.9107  141.4297  157.1799 C   0  0  0  0  0  0  0  0  0  0  0  0
  148.3259  142.1052  158.0260 O   0  0  0  0  0  0  0  0  0  0  0  0
  150.1893  141.0237  157.2551 N   0  0  0  0  0  0  0  0  0  0  0  0
  151.1485  141.2971  158.2693 C   0  0  0  0  0  0  0  0  0  0  0  0
  151.2494  142.5409  158.9389 C   0  0  0  0  0  0  0  0  0  0  0  0
  152.2515  142.7135  159.9114 C   0  0  0  0  0  0  0  0  0  0  0  0
  153.1220  141.6403  160.1747 C   0  0  0  0  0  0  0  0  0  0  0  0
  153.0469  140.4548  159.5357 N   0  0  0  0  0  0  0  0  0  0  0  0
  152.0819  140.2860  158.5969 C   0  0  0  0  0  0  0  0  0  0  0  0
  152.0105  139.0728  157.9386 O   0  0  0  0  0  0  0  0  0  0  0  0
  152.9426  138.0549  158.2873 C   0  0  0  0  0  0  0  0  0  0  0  0
  146.0908  139.9666  155.6502 C   0  0  0  0  0  0  0  0  0  0  0  0
  146.4759  139.0297  154.4922 C   0  0  0  0  0  0  0  0  0  0  0  0
  142.3010  137.4712  152.2109 H   0  0  0  0  0  0  0  0  0  0  0  0
  143.3789  136.2662  152.9225 H   0  0  0  0  0  0  0  0  0  0  0  0
  143.2520  136.4148  151.1615 H   0  0  0  0  0  0  0  0  0  0  0  0
  144.0731  138.9240  152.2160 H   0  0  0  0  0  0  0  0  0  0  0  0
  147.6458  138.4758  152.0201 H   0  0  0  0  0  0  0  0  0  0  0  0
  146.4719  139.3865  151.0948 H   0  0  0  0  0  0  0  0  0  0  0  0
  148.3055  140.6272  153.2264 H   0  0  0  0  0  0  0  0  0  0  0  0
  147.1512  141.4385  152.1886 H   0  0  0  0  0  0  0  0  0  0  0  0
  147.5678  142.7791  154.2492 H   0  0  0  0  0  0  0  0  0  0  0  0
  145.8969  142.3055  154.0994 H   0  0  0  0  0  0  0  0  0  0  0  0
  146.5178  141.9491  156.3851 H   0  0  0  0  0  0  0  0  0  0  0  0
  148.8869  140.4366  155.4215 H   0  0  0  0  0  0  0  0  0  0  0  0
  150.5022  140.3968  156.5283 H   0  0  0  0  0  0  0  0  0  0  0  0
  150.5928  143.3676  158.7166 H   0  0  0  0  0  0  0  0  0  0  0  0
  152.3540  143.6505  160.4388 H   0  0  0  0  0  0  0  0  0  0  0  0
  153.9039  141.7384  160.9129 H   0  0  0  0  0  0  0  0  0  0  0  0
  152.7512  137.1689  157.6823 H   0  0  0  0  0  0  0  0  0  0  0  0
  152.8454  137.7663  159.3349 H   0  0  0  0  0  0  0  0  0  0  0  0
  153.9692  138.3705  158.0960 H   0  0  0  0  0  0  0  0  0  0  0  0
  146.1732  139.4395  156.6013 H   0  0  0  0  0  0  0  0  0  0  0  0
  145.0393  140.2393  155.5503 H   0  0  0  0  0  0  0  0  0  0  0  0
  145.8122  138.1647  154.5002 H   0  0  0  0  0  0  0  0  0  0  0  0
  147.4878  138.6481  154.6364 H   0  0  0  0  0  0  0  0  0  0  0  0
  145.4391  140.0674  153.0934 H   0  0  0  0  0  0  0  0  0  0  0  0
  1  2  1  0  0  0  0
  1 24  1  0  0  0  0
  1 25  1  0  0  0  0
  1 26  1  0  0  0  0
  2  3  1  0  0  0  0
  2 27  1  0  0  0  0
  3  4  2  0  0  0  0
  3  5  1  0  0  0  0
  5  6  1  0  0  0  0
  5 28  1  0  0  0  0
  5 29  1  0  0  0  0
  6 23  1  0  0  0  0
  6  7  1  0  0  0  0
  6 47  1  0  0  0  0
  7  8  1  0  0  0  0
  7 30  1  0  0  0  0
  7 31  1  0  0  0  0
  8  9  1  0  0  0  0
  8 32  1  0  0  0  0
  8 33  1  0  0  0  0
  9 10  1  0  0  0  0
  9 22  1  0  0  0  0
  9 34  1  0  0  0  0
 10 11  1  0  0  0  0
 10 35  1  0  0  0  0
 11 12  2  0  0  0  0
 11 13  1  0  0  0  0
 13 14  1  0  0  0  0
 13 36  1  0  0  0  0
 14 19  1  0  0  0  0
 14 15  2  0  0  0  0
 15 16  1  0  0  0  0
 15 37  1  0  0  0  0
 16 17  2  0  0  0  0
 16 38  1  0  0  0  0
 17 18  1  0  0  0  0
 17 39  1  0  0  0  0
 18 19  2  0  0  0  0
 19 20  1  0  0  0  0
 20 21  1  0  0  0  0
 21 40  1  0  0  0  0
 21 41  1  0  0  0  0
 21 42  1  0  0  0  0
 22 23  1  0  0  0  0
 22 43  1  0  0  0  0
 22 44  1  0  0  0  0
 23 45  1  0  0  0  0
 23 46  1  0  0  0  0
M  CHG  1   6   1
M  END
> <s_m_source_file>
AV-unprocessed.smi

> <i_m_source_file_index>
1898

> <i_lp_mmshare_version>
43012

> <i_f3d_flags>
0

> <s_epik_input>
W0NIM11bTkhdQyg9TylbQ0gyXU4xW0NIMl1bQ0gyXVtDSF0oW0NIMl1bQ0gyXTEpW05IXUMoPU8pW05IXWMyW2NIXVtjSF1bY0hdbmMyT1tDSDNd

> <s_epik_cmdline>
J2VwaWtfcHl0aG9uJywgJy1waCcsICc3LjAnLCAnLXRuJywgJzgnLCAnLW1hJywgJzIwMCcsICctbWV0YWxfYmluZGluZycsICctaW1hZScsICc8aW5maWxlLm1hZT4nLCAnLW9tYWUnLCAnPG91dGZpbGUubWFlPic=

> <r_lp_tautomer_probability>
1

> <r_epik_Ionization_Penalty>
0.838943

> <r_epik_Ionization_Penalty_Charging>
0.838844

> <r_epik_Ionization_Penalty_Neutral>
9.87395e-05

> <r_epik_State_Penalty>
0.8734

> <r_epik_Charging_Adjusted_Penalty>
1.71224

> <i_epik_Tot_Q>
1

> <i_epik_Tot_abs_Q>
1

> <r_epik_Metal_State_Penalty>
0.877926

> <b_epik_Metal_Only>
0

> <s_lp_Force_Field>
OPLS_2005

> <r_lp_Energy>
16.0451

> <b_lp_Chiralities_Consistent>
1

> <s_lp_Variant>
AV-unprocessed.smi:1898-3

> <Gold.Version>
5.8.1

> <Gold.Id.Protein>
6NUR|6NUR_protein|mol2

> <Gold.PLP.Fitness>
43.9166

> <Gold.PLP.PLP>
-35.6508

> <Gold.PLP.part.hbond>
-3.0000

> <Gold.PLP.part.metal>
0.0000

> <Gold.PLP.part.buried>
-5.8020

> <Gold.PLP.part.nonpolar>
-27.8379

> <Gold.PLP.part.repulsive>
1.3180

> <Gold.PLP.ligand.clash>
0.0000

> <Gold.PLP.ligand.torsion>
0.3833

> <Gold.PLP.Chemscore.Hbond>
3.0000

> <Gold.PLP.Chemscore.CHOScore>
0.0000

> <Gold.PLP.Chemscore.Metal>
0.0000

> <Gold.Chemscore.Hbonds>
donor molecule, donor type, donor heavy atom, donor atom, acceptor molecule, acceptor atom, score
      L1  H     2    27       P1 10175  1.00
      L1  H     6    47       P1 10175  2.00

> <Gold.PLP.Chemscore.Internal.Correction>
0.0324

> <Gold.Rescore>
     Score         DG    S(hbond)    S(metal)    S(lipo)     H(rot)  DE(clash)    DE(int)     intcor
     15.41     -16.00       1.97        0.00      77.24       2.00       0.05       0.54       ----

> <Gold.Chemscore.Fitness>
15.4147

> <Gold.Chemscore.DG>
-16.0002

> <Gold.Chemscore.ZeroCoef>
-5.4800

> <Gold.Chemscore.Hbond>
1.9740

> <Gold.Chemscore.Metal>
0.0000

> <Gold.Chemscore.Lipo>
77.2442

> <Gold.Chemscore.Internal_Hbond>
0.0000

> <Gold.Chemscore.DEClash>
0.0480

> <Gold.Chemscore.DEInternal>
0.5375

> <Gold.Chemscore.Rot>
1.9963

> <Gold.Chemscore.Internal.Correction>
   9.000000E+99

> <Gold.Chemscore.Hbonds>
donor molecule, donor type, donor heavy atom, donor atom, acceptor molecule, acceptor atom, score
      L1  H     2    27       P1 10175  0.98
      L1  H     6    47       P1 10175  1.00

> <Gold.Chemscore.Hbond.Weighted>
-6.5932

> <Gold.Chemscore.Metal.Weighted>
-0.0000

> <Gold.Chemscore.Lipo.Weighted>
-9.0376

> <Gold.Chemscore.Internal_Hbond.Weighted>
0.0000

> <Gold.Chemscore.DEClash.Weighted>
0.0480

> <Gold.Chemscore.DEInternal.Weighted>
0.5375

> <Gold.Chemscore.Rot.Weighted>
5.1105

> <Gold.Chemscore.Internal.Correction.Weighted>
   9.000000E+99

> <Gold.Protein.RotatedTorsions>
[ 6907 6896 6895 6894 ] final -161.45 input  -60.11 | X-H torsion
[ 7974 7965 7964 7962 ] final  147.61 input  175.53 | X-H torsion
[ 8008 7997 7996 7995 ] final  -12.95 input   59.86 | X-H torsion
[ 10167 10162 10161 10158 ] final   -3.23 input  -65.29 | X-H torsion
[ 10718 10713 10712 10709 ] final  -46.20 input   66.30 | X-H torsion
[ 10763 10752 10751 10750 ] final   62.17 input  -60.55 | X-H torsion
[ 11005 11000 10999 10996 ] final  -40.56 input  -57.11 | X-H torsion

> <Gold.Protein.ActiveResidues>
 VAL166  LYS551  ARG553  GLY616  TRP617  ASP618  TYR619  PRO620  LYS621  CYS622 
 ASP623  PHE694  ASN695  SER759  ASP760  ASP761  ALA762  ILE779  LEU786  VAL792 
 PHE793  MET794  SER795  GLU796  ALA797  LYS798  CYS799  TRP800  GLU811  SER814 

> <Gold.Protein.RotatedAtoms>
  151.3649  133.3876  159.2693 H   0  0  0  0  0  0  0  0  0  0  0  0  # atno 6907 bound_to 6896
  150.9697  134.9072  159.7791 H   0  0  0  0  0  0  0  0  0  0  0  0  # atno 6908 bound_to 6896
  152.5180  134.3610  159.9337 H   0  0  0  0  0  0  0  0  0  0  0  0  # atno 6909 bound_to 6896
  144.8578  139.6050  143.5944 H   0  0  0  0  0  0  0  0  0  0  0  0  # atno 7974 bound_to 7965
  154.5333  140.2262  155.8766 H   0  0  0  0  0  0  0  0  0  0  0  0  # atno 8008 bound_to 7997
  156.1786  140.3105  155.9069 H   0  0  0  0  0  0  0  0  0  0  0  0  # atno 8009 bound_to 7997
  155.3406  140.0450  157.3035 H   0  0  0  0  0  0  0  0  0  0  0  0  # atno 8010 bound_to 7997
  140.6882  143.6564  150.8305 H   0  0  0  0  0  0  0  0  0  0  0  0  # atno 10167 bound_to 10162
  156.2206  130.4166  149.8997 H   0  0  0  0  0  0  0  0  0  0  0  0  # atno 10718 bound_to 10713
  152.9974  135.5474  154.6150 H   0  0  0  0  0  0  0  0  0  0  0  0  # atno 10763 bound_to 10752
  154.5462  135.2823  155.1052 H   0  0  0  0  0  0  0  0  0  0  0  0  # atno 10764 bound_to 10752
  154.2310  135.6433  153.5228 H   0  0  0  0  0  0  0  0  0  0  0  0  # atno 10765 bound_to 10752
  141.0183  133.6874  156.2338 H   0  0  0  0  0  0  0  0  0  0  0  0  # atno 11005 bound_to 11000
  146.2837  139.6945  142.9211 LP  0  0  0  0  0  0  0  0  0  0  0  0  # atno 17320 bound_to 7965
  145.4371  141.0419  143.2878 LP  0  0  0  0  0  0  0  0  0  0  0  0  # atno 17321 bound_to 7965
  140.0274  143.5479  152.2775 LP  0  0  0  0  0  0  0  0  0  0  0  0  # atno 17342 bound_to 10162
  139.6259  144.7637  151.2639 LP  0  0  0  0  0  0  0  0  0  0  0  0  # atno 17343 bound_to 10162
  156.6645  130.8795  151.3552 LP  0  0  0  0  0  0  0  0  0  0  0  0  # atno 17370 bound_to 10713
  157.7086  130.9413  150.1012 LP  0  0  0  0  0  0  0  0  0  0  0  0  # atno 17371 bound_to 10713
  140.6616  134.4961  157.5583 LP  0  0  0  0  0  0  0  0  0  0  0  0  # atno 17394 bound_to 11000
  139.9130  134.8304  156.1460 LP  0  0  0  0  0  0  0  0  0  0  0  0  # atno 17395 bound_to 11000

$$$$
