AV-unprocessed.smi:1335|AV-procd|sdf|5495|dock10
  -GOLD-   22720 5 73D 1   1.00000     0.00000
 Structure written by MMmdl.
 47 49  0  0  0  0  0  0  0  0  1 V2000
  146.8378  137.6355  163.1224 C   0  0  0  0  0  0  0  0  0  0  0  0
  147.4412  137.0750  161.9656 O   0  0  0  0  0  0  0  0  0  0  0  0
  147.3553  135.7110  161.7747 C   0  0  0  0  0  0  0  0  0  0  0  0
  146.7425  134.8302  162.7031 C   0  0  0  0  0  0  0  0  0  0  0  0
  146.6970  133.4449  162.4566 C   0  0  0  0  0  0  0  0  0  0  0  0
  147.2638  132.9183  161.2832 C   0  0  0  0  0  0  0  0  0  0  0  0
  147.8725  133.7806  160.3543 C   0  0  0  0  0  0  0  0  0  0  0  0
  147.9174  135.1703  160.5916 C   0  0  0  0  0  0  0  0  0  0  0  0
  148.5856  136.0624  159.5554 C   0  0  0  0  0  0  0  0  0  0  0  0
  149.1759  135.3226  158.4980 O   0  0  0  0  0  0  0  0  0  0  0  0
  149.6129  136.1236  157.4092 C   0  0  0  0  0  0  0  0  0  0  0  0
  150.8856  136.8696  157.8346 C   0  0  1  0  0  0  0  0  0  0  0  0
  151.5719  137.2434  156.6572 O   0  0  0  0  0  0  0  0  0  0  0  0
  150.5671  138.1407  158.6501 C   0  0  0  0  0  0  0  0  0  0  0  0
  151.7824  138.7474  159.1863 N   0  0  0  0  0  0  0  0  0  0  0  0
  152.8000  138.1016  159.8020 C   0  0  0  0  0  0  0  0  0  0  0  0
  152.8675  136.8895  160.0046 O   0  0  0  0  0  0  0  0  0  0  0  0
  153.7188  139.0246  160.1712 N   0  0  0  0  0  0  0  0  0  0  0  0
  154.9759  138.7806  160.8680 C   0  0  0  0  0  0  0  0  0  0  0  0
  153.2632  140.2981  159.8070 C   0  0  0  0  0  0  0  0  0  0  0  0
  153.8346  141.5692  159.9878 C   0  0  0  0  0  0  0  0  0  0  0  0
  153.1038  142.6800  159.5045 C   0  0  0  0  0  0  0  0  0  0  0  0
  151.8474  142.5029  158.8681 C   0  0  0  0  0  0  0  0  0  0  0  0
  151.2948  141.2114  158.7007 C   0  0  0  0  0  0  0  0  0  0  0  0
  152.0433  140.1253  159.1875 C   0  0  0  0  0  0  0  0  0  0  0  0
  147.0155  138.7107  163.1345 H   0  0  0  0  0  0  0  0  0  0  0  0
  147.2662  137.2212  164.0361 H   0  0  0  0  0  0  0  0  0  0  0  0
  145.7582  137.4805  163.1245 H   0  0  0  0  0  0  0  0  0  0  0  0
  146.2984  135.1923  163.6175 H   0  0  0  0  0  0  0  0  0  0  0  0
  146.2271  132.7855  163.1713 H   0  0  0  0  0  0  0  0  0  0  0  0
  147.2314  131.8550  161.0954 H   0  0  0  0  0  0  0  0  0  0  0  0
  148.3085  133.3724  159.4541 H   0  0  0  0  0  0  0  0  0  0  0  0
  147.8152  136.6992  159.1195 H   0  0  0  0  0  0  0  0  0  0  0  0
  149.3121  136.7421  160.0019 H   0  0  0  0  0  0  0  0  0  0  0  0
  149.8182  135.4761  156.5552 H   0  0  0  0  0  0  0  0  0  0  0  0
  148.8448  136.8353  157.1028 H   0  0  0  0  0  0  0  0  0  0  0  0
  151.5206  136.1874  158.4019 H   0  0  0  0  0  0  0  0  0  0  0  0
  152.4316  136.8506  156.6732 H   0  0  0  0  0  0  0  0  0  0  0  0
  150.0000  138.8626  158.0596 H   0  0  0  0  0  0  0  0  0  0  0  0
  149.9211  137.8955  159.4937 H   0  0  0  0  0  0  0  0  0  0  0  0
  154.9031  139.1180  161.9023 H   0  0  0  0  0  0  0  0  0  0  0  0
  155.7889  139.3248  160.3863 H   0  0  0  0  0  0  0  0  0  0  0  0
  155.2410  137.7224  160.8735 H   0  0  0  0  0  0  0  0  0  0  0  0
  154.7892  141.6956  160.4763 H   0  0  0  0  0  0  0  0  0  0  0  0
  153.5067  143.6751  159.6233 H   0  0  0  0  0  0  0  0  0  0  0  0
  151.3055  143.3649  158.5081 H   0  0  0  0  0  0  0  0  0  0  0  0
  150.3377  141.0723  158.2202 H   0  0  0  0  0  0  0  0  0  0  0  0
  1  2  1  0  0  0  0
  1 26  1  0  0  0  0
  1 27  1  0  0  0  0
  1 28  1  0  0  0  0
  2  3  1  0  0  0  0
  3  8  1  0  0  0  0
  3  4  2  0  0  0  0
  4  5  1  0  0  0  0
  4 29  1  0  0  0  0
  5  6  2  0  0  0  0
  5 30  1  0  0  0  0
  6  7  1  0  0  0  0
  6 31  1  0  0  0  0
  7  8  2  0  0  0  0
  7 32  1  0  0  0  0
  8  9  1  0  0  0  0
  9 10  1  0  0  0  0
  9 33  1  0  0  0  0
  9 34  1  0  0  0  0
 10 11  1  0  0  0  0
 11 12  1  0  0  0  0
 11 35  1  0  0  0  0
 11 36  1  0  0  0  0
 12 13  1  0  0  0  0
 12 14  1  0  0  0  0
 12 37  1  0  0  0  0
 13 38  1  0  0  0  0
 14 15  1  0  0  0  0
 14 39  1  0  0  0  0
 14 40  1  0  0  0  0
 15 25  1  0  0  0  0
 15 16  1  0  0  0  0
 16 17  2  0  0  0  0
 16 18  1  0  0  0  0
 18 19  1  0  0  0  0
 18 20  1  0  0  0  0
 19 41  1  0  0  0  0
 19 42  1  0  0  0  0
 19 43  1  0  0  0  0
 20 25  2  0  0  0  0
 20 21  1  0  0  0  0
 21 22  2  0  0  0  0
 21 44  1  0  0  0  0
 22 23  1  0  0  0  0
 22 45  1  0  0  0  0
 23 24  2  0  0  0  0
 23 46  1  0  0  0  0
 24 25  1  0  0  0  0
 24 47  1  0  0  0  0
M  END
> <s_m_source_file>
AV-unprocessed.smi

> <i_m_source_file_index>
1335

> <i_lp_mmshare_version>
43012

> <i_f3d_flags>
0

> <s_epik_input>
W0NIM11PYzFbY0hdW2NIXVtjSF1bY0hdYzFbQ0gyXU9bQ0gyXVtDQEhdKFtPSF0pW0NIMl1uKGMoPU8pbjJbQ0gzXSljKGMyMylbY0hdW2NIXVtjSF1bY0hdMw==

> <s_epik_cmdline>
J2VwaWtfcHl0aG9uJywgJy1waCcsICc3LjAnLCAnLXRuJywgJzgnLCAnLW1hJywgJzIwMCcsICctbWV0YWxfYmluZGluZycsICctaW1hZScsICc8aW5maWxlLm1hZT4nLCAnLW9tYWUnLCAnPG91dGZpbGUubWFlPic=

> <r_lp_tautomer_probability>
1

> <r_epik_Ionization_Penalty>
1.07897e-06

> <r_epik_Ionization_Penalty_Charging>
2.2947e-09

> <r_epik_Ionization_Penalty_Neutral>
1.07667e-06

> <r_epik_State_Penalty>
-0

> <r_epik_Charging_Adjusted_Penalty>
2.2947e-09

> <i_epik_Tot_Q>
0

> <i_epik_Tot_abs_Q>
0

> <r_epik_Metal_State_Penalty>
-0

> <b_epik_Metal_Only>
0

> <s_lp_Force_Field>
OPLS_2005

> <r_lp_Energy>
49.5291

> <b_lp_Chiralities_Consistent>
1

> <s_lp_Variant>
AV-unprocessed.smi:1335-2

> <Gold.Version>
5.8.1

> <Gold.Id.Protein>
6NUR|6NUR_protein|mol2

> <Gold.PLP.Fitness>
55.9450

> <Gold.PLP.PLP>
-47.5656

> <Gold.PLP.part.hbond>
-3.9599

> <Gold.PLP.part.metal>
0.0000

> <Gold.PLP.part.buried>
-4.0876

> <Gold.PLP.part.nonpolar>
-39.7153

> <Gold.PLP.part.repulsive>
0.0000

> <Gold.PLP.ligand.clash>
0.0000

> <Gold.PLP.ligand.torsion>
0.5475

> <Gold.PLP.Chemscore.Hbond>
3.0912

> <Gold.PLP.Chemscore.CHOScore>
0.0000

> <Gold.PLP.Chemscore.Metal>
0.0000

> <Gold.Chemscore.Hbonds>
donor molecule, donor type, donor heavy atom, donor atom, acceptor molecule, acceptor atom, score
      P1  H  6896  6907       L1    10  1.00
      P1  H  6896  6908       L1    17  1.00
      P1  H  6931  6943       L1     2  0.83
      P1  H  6934  6947       L1     2  0.16

> <Gold.PLP.Chemscore.Internal.Correction>
0.2006

> <Gold.Rescore>
     Score         DG    S(hbond)    S(metal)    S(lipo)     H(rot)  DE(clash)    DE(int)     intcor
     17.93     -21.00       1.97        0.00     131.06       2.50       0.32       2.75       ----

> <Gold.Chemscore.Fitness>
17.9264

> <Gold.Chemscore.DG>
-20.9967

> <Gold.Chemscore.ZeroCoef>
-5.4800

> <Gold.Chemscore.Hbond>
1.9738

> <Gold.Chemscore.Metal>
0.0000

> <Gold.Chemscore.Lipo>
131.0609

> <Gold.Chemscore.Internal_Hbond>
0.0000

> <Gold.Chemscore.DEClash>
0.3234

> <Gold.Chemscore.DEInternal>
2.7469

> <Gold.Chemscore.Rot>
2.5038

> <Gold.Chemscore.Internal.Correction>
   9.000000E+99

> <Gold.Chemscore.Hbonds>
donor molecule, donor type, donor heavy atom, donor atom, acceptor molecule, acceptor atom, score
      P1  H  6896  6907       L1    10  0.34
      P1  H  6896  6908       L1    17  0.94
      P1  H  6931  6943       L1     2  0.13

> <Gold.Chemscore.Hbond.Weighted>
-6.5924

> <Gold.Chemscore.Metal.Weighted>
-0.0000

> <Gold.Chemscore.Lipo.Weighted>
-15.3341

> <Gold.Chemscore.Internal_Hbond.Weighted>
0.0000

> <Gold.Chemscore.DEClash.Weighted>
0.3234

> <Gold.Chemscore.DEInternal.Weighted>
2.7469

> <Gold.Chemscore.Rot.Weighted>
6.4098

> <Gold.Chemscore.Internal.Correction.Weighted>
   9.000000E+99

> <Gold.Protein.RotatedTorsions>
[ 6907 6896 6895 6894 ] final  -89.06 input  -60.11 | X-H torsion
[ 7974 7965 7964 7962 ] final   50.35 input  175.53 | X-H torsion
[ 8008 7997 7996 7995 ] final  157.40 input   59.86 | X-H torsion
[ 10167 10162 10161 10158 ] final -168.95 input  -65.29 | X-H torsion
[ 10718 10713 10712 10709 ] final  -34.27 input   66.30 | X-H torsion
[ 10763 10752 10751 10750 ] final -117.73 input  -60.55 | X-H torsion
[ 11005 11000 10999 10996 ] final  100.16 input  -57.11 | X-H torsion

> <Gold.Protein.ActiveResidues>
 VAL166  LYS551  ARG553  GLY616  TRP617  ASP618  TYR619  PRO620  LYS621  CYS622 
 ASP623  PHE694  ASN695  SER759  ASP760  ASP761  ALA762  ILE779  LEU786  VAL792 
 PHE793  MET794  SER795  GLU796  ALA797  LYS798  CYS799  TRP800  GLU811  SER814 

> <Gold.Protein.RotatedAtoms>
  150.6871  134.2646  159.4562 H   0  0  0  0  0  0  0  0  0  0  0  0  # atno 6907 bound_to 6896
  152.0573  134.9614  160.0584 H   0  0  0  0  0  0  0  0  0  0  0  0  # atno 6908 bound_to 6896
  152.1054  133.4237  159.4643 H   0  0  0  0  0  0  0  0  0  0  0  0  # atno 6909 bound_to 6896
  146.0021  139.4450  143.0009 H   0  0  0  0  0  0  0  0  0  0  0  0  # atno 7974 bound_to 7965
  156.2366  140.1886  156.7103 H   0  0  0  0  0  0  0  0  0  0  0  0  # atno 8008 bound_to 7997
  154.6118  140.0621  156.9530 H   0  0  0  0  0  0  0  0  0  0  0  0  # atno 8009 bound_to 7997
  155.2005  140.3292  155.4346 H   0  0  0  0  0  0  0  0  0  0  0  0  # atno 8010 bound_to 7997
  139.5953  144.1125  152.1682 H   0  0  0  0  0  0  0  0  0  0  0  0  # atno 10167 bound_to 10162
  156.3526  130.4311  149.7691 H   0  0  0  0  0  0  0  0  0  0  0  0  # atno 10718 bound_to 10713
  154.8565  135.4299  154.2027 H   0  0  0  0  0  0  0  0  0  0  0  0  # atno 10763 bound_to 10752
  153.3070  135.6973  153.7156 H   0  0  0  0  0  0  0  0  0  0  0  0  # atno 10764 bound_to 10752
  153.6264  135.3493  155.3001 H   0  0  0  0  0  0  0  0  0  0  0  0  # atno 10765 bound_to 10752
  139.8771  134.9128  156.4714 H   0  0  0  0  0  0  0  0  0  0  0  0  # atno 11005 bound_to 11000
  145.7472  140.9986  143.1269 LP  0  0  0  0  0  0  0  0  0  0  0  0  # atno 17320 bound_to 7965
  144.6923  139.9171  143.7466 LP  0  0  0  0  0  0  0  0  0  0  0  0  # atno 17321 bound_to 7965
  140.0709  144.5780  150.7192 LP  0  0  0  0  0  0  0  0  0  0  0  0  # atno 17342 bound_to 10162
  140.7207  143.2586  151.4289 LP  0  0  0  0  0  0  0  0  0  0  0  0  # atno 17343 bound_to 10162
  156.4886  130.8074  151.3085 LP  0  0  0  0  0  0  0  0  0  0  0  0  # atno 17370 bound_to 10713
  157.7463  130.9983  150.2846 LP  0  0  0  0  0  0  0  0  0  0  0  0  # atno 17371 bound_to 10713
  140.8793  133.7930  155.9449 LP  0  0  0  0  0  0  0  0  0  0  0  0  # atno 17394 bound_to 11000
  140.8871  134.2541  157.5114 LP  0  0  0  0  0  0  0  0  0  0  0  0  # atno 17395 bound_to 11000

$$$$
