AV-unprocessed.smi:1196|AV-procd|sdf|5003|dock5
  -GOLD-   22720 4 13D 1   1.00000     0.00000
 Structure written by MMmdl.
 36 37  0  0  0  0  0  0  0  0  2 V2000
  148.9565  142.5349  158.0144 C   0  0  0  0  0  0  0  0  0  0  0  0
  149.1142  143.4600  159.2316 C   0  0  1  0  0  0  0  0  0  0  0  0
  150.4608  144.2083  159.2006 C   0  0  0  0  0  0  0  0  0  0  0  0
  151.5248  143.4568  159.8433 N   0  0  0  0  0  0  0  0  0  0  0  0
  152.6799  142.9580  159.2794 C   0  0  0  0  0  0  0  0  0  0  0  0
  153.3715  142.3189  160.2683 C   0  0  0  0  0  0  0  0  0  0  0  0
  152.5464  142.4805  161.4165 C   0  0  0  0  0  0  0  0  0  0  0  0
  151.4432  143.1644  161.1598 N   0  0  0  0  0  0  0  0  0  0  0  0
  148.0094  144.4154  159.2793 N   0  0  0  0  0  0  0  0  0  0  0  0
  147.1175  144.5289  160.2749 C   0  0  0  0  0  0  0  0  0  0  0  0
  147.1225  143.8042  161.2707 O   0  0  0  0  0  0  0  0  0  0  0  0
  146.0658  145.6293  160.1047 C   0  0  0  0  0  0  0  0  0  0  0  0
  146.6554  147.0532  160.1220 C   0  0  0  0  0  0  0  0  0  0  0  0
  145.5945  148.1443  159.8660 C   0  0  1  0  0  0  0  0  0  0  0  0
  146.0426  149.4452  160.3327 N   0  5  0  0  0  0  0  0  0  0  0  0
  146.0408  150.3013  159.2840 C   0  0  0  0  0  0  0  0  0  0  0  0
  146.3452  151.4920  159.2847 O   0  0  0  0  0  0  0  0  0  0  0  0
  145.6501  149.6800  158.1663 N   0  0  0  0  0  0  0  0  0  0  0  0
  145.3743  148.3989  158.3870 C   0  0  0  0  0  0  0  0  0  0  0  0
  145.0056  147.5607  157.5653 O   0  0  0  0  0  0  0  0  0  0  0  0
  149.7668  141.8070  157.9682 H   0  0  0  0  0  0  0  0  0  0  0  0
  148.9643  143.1003  157.0820 H   0  0  0  0  0  0  0  0  0  0  0  0
  148.0195  141.9785  158.0592 H   0  0  0  0  0  0  0  0  0  0  0  0
  149.0941  142.8419  160.1313 H   0  0  0  0  0  0  0  0  0  0  0  0
  150.7620  144.3916  158.1684 H   0  0  0  0  0  0  0  0  0  0  0  0
  150.3718  145.1867  159.6760 H   0  0  0  0  0  0  0  0  0  0  0  0
  152.9091  143.0964  158.2330 H   0  0  0  0  0  0  0  0  0  0  0  0
  154.3209  141.8116  160.1839 H   0  0  0  0  0  0  0  0  0  0  0  0
  152.7162  142.1247  162.4220 H   0  0  0  0  0  0  0  0  0  0  0  0
  147.9310  145.0577  158.5038 H   0  0  0  0  0  0  0  0  0  0  0  0
  145.5398  145.4674  159.1628 H   0  0  0  0  0  0  0  0  0  0  0  0
  145.3262  145.5210  160.8987 H   0  0  0  0  0  0  0  0  0  0  0  0
  147.1570  147.2378  161.0741 H   0  0  0  0  0  0  0  0  0  0  0  0
  147.4285  147.1213  159.3546 H   0  0  0  0  0  0  0  0  0  0  0  0
  144.6414  147.8495  160.3071 H   0  0  0  0  0  0  0  0  0  0  0  0
  145.5826  150.1281  157.2648 H   0  0  0  0  0  0  0  0  0  0  0  0
  1  2  1  0  0  0  0
  1 21  1  0  0  0  0
  1 22  1  0  0  0  0
  1 23  1  0  0  0  0
  2  3  1  0  0  0  0
  2  9  1  0  0  0  0
  2 24  1  0  0  0  0
  3  4  1  0  0  0  0
  3 25  1  0  0  0  0
  3 26  1  0  0  0  0
  4  8  1  0  0  0  0
  4  5  1  0  0  0  0
  5  6  2  0  0  0  0
  5 27  1  0  0  0  0
  6  7  1  0  0  0  0
  6 28  1  0  0  0  0
  7  8  2  0  0  0  0
  7 29  1  0  0  0  0
  9 10  1  0  0  0  0
  9 30  1  0  0  0  0
 10 11  2  0  0  0  0
 10 12  1  0  0  0  0
 12 13  1  0  0  0  0
 12 31  1  0  0  0  0
 12 32  1  0  0  0  0
 13 14  1  0  0  0  0
 13 33  1  0  0  0  0
 13 34  1  0  0  0  0
 14 19  1  0  0  0  0
 14 15  1  0  0  0  0
 14 35  1  0  0  0  0
 15 16  1  0  0  0  0
 16 17  2  0  0  0  0
 16 18  1  0  0  0  0
 18 19  1  0  0  0  0
 18 36  1  0  0  0  0
 19 20  2  0  0  0  0
M  CHG  1  15  -1
M  END
> <s_m_source_file>
AV-unprocessed.smi

> <i_m_source_file_index>
1196

> <i_lp_mmshare_version>
43012

> <i_f3d_flags>
0

> <s_epik_input>
bjFbY0hdW2NIXVtjSF1uMVtDSDJdW0NAQEhdKFtDSDNdKVtOSF1DKD1PKVtDSDJdW0NIMl1bQ0BASF0yW05IXUMoPU8pW05IXUMyPU8=

> <s_epik_cmdline>
J2VwaWtfcHl0aG9uJywgJy1waCcsICc3LjAnLCAnLXRuJywgJzgnLCAnLW1hJywgJzIwMCcsICctbWV0YWxfYmluZGluZycsICctaW1hZScsICc8aW5maWxlLm1hZT4nLCAnLW9tYWUnLCAnPG91dGZpbGUubWFlPic=

> <r_lp_tautomer_probability>
1

> <r_epik_Ionization_Penalty>
5.79547

> <r_epik_Ionization_Penalty_Charging>
5.79516

> <r_epik_Ionization_Penalty_Neutral>
0.000313087

> <r_epik_State_Penalty>
5.80096

> <r_epik_Charging_Adjusted_Penalty>
11.5961

> <i_epik_Tot_Q>
-1

> <i_epik_Tot_abs_Q>
1

> <r_epik_Metal_State_Penalty>
2.14443

> <b_epik_Metal_Only>
1

> <s_lp_Force_Field>
OPLS_2005

> <r_lp_Energy>
12.8227

> <b_lp_Chiralities_Consistent>
1

> <s_lp_Variant>
AV-unprocessed.smi:1196-8

> <Gold.Version>
5.8.1

> <Gold.Id.Protein>
6NUR|6NUR_protein|mol2

> <Gold.PLP.Fitness>
45.3230

> <Gold.PLP.PLP>
-40.1661

> <Gold.PLP.part.hbond>
-4.7220

> <Gold.PLP.part.metal>
0.0000

> <Gold.PLP.part.buried>
-7.5085

> <Gold.PLP.part.nonpolar>
-29.0832

> <Gold.PLP.part.repulsive>
0.7260

> <Gold.PLP.ligand.clash>
0.0000

> <Gold.PLP.ligand.torsion>
0.6557

> <Gold.PLP.Chemscore.Hbond>
2.1448

> <Gold.PLP.Chemscore.CHOScore>
0.0000

> <Gold.PLP.Chemscore.Metal>
0.0000

> <Gold.Chemscore.Hbonds>
donor molecule, donor type, donor heavy atom, donor atom, acceptor molecule, acceptor atom, score
      L1  H     9    30       P1  8029  0.96
      P1  H  6933  6944       L1    11  1.00
      P1  H  6933  6945       L1     8  0.13

> <Gold.PLP.Chemscore.Internal.Correction>
0.0340

> <Gold.Rescore>
     Score         DG    S(hbond)    S(metal)    S(lipo)     H(rot)  DE(clash)    DE(int)     intcor
     12.64     -13.23       1.98        0.00      73.00       2.89       0.18       0.42       ----

> <Gold.Chemscore.Fitness>
12.6367

> <Gold.Chemscore.DG>
-13.2338

> <Gold.Chemscore.ZeroCoef>
-5.4800

> <Gold.Chemscore.Hbond>
1.9828

> <Gold.Chemscore.Metal>
0.0000

> <Gold.Chemscore.Lipo>
73.0033

> <Gold.Chemscore.Internal_Hbond>
0.0000

> <Gold.Chemscore.DEClash>
0.1762

> <Gold.Chemscore.DEInternal>
0.4210

> <Gold.Chemscore.Rot>
2.8946

> <Gold.Chemscore.Internal.Correction>
   9.000000E+99

> <Gold.Chemscore.Hbonds>
donor molecule, donor type, donor heavy atom, donor atom, acceptor molecule, acceptor atom, score
      L1  H     9    30       P1  8029  0.91
      P1  H  6933  6944       L1    11  0.95
      P1  H  6933  6945       L1     8  0.02

> <Gold.Chemscore.Hbond.Weighted>
-6.6225

> <Gold.Chemscore.Metal.Weighted>
-0.0000

> <Gold.Chemscore.Lipo.Weighted>
-8.5414

> <Gold.Chemscore.Internal_Hbond.Weighted>
0.0000

> <Gold.Chemscore.DEClash.Weighted>
0.1762

> <Gold.Chemscore.DEInternal.Weighted>
0.4210

> <Gold.Chemscore.Rot.Weighted>
7.4101

> <Gold.Chemscore.Internal.Correction.Weighted>
   9.000000E+99

> <Gold.Protein.RotatedTorsions>
[ 6907 6896 6895 6894 ] final -106.48 input  -60.11 | X-H torsion
[ 7974 7965 7964 7962 ] final   -9.92 input  175.53 | X-H torsion
[ 8008 7997 7996 7995 ] final  -10.78 input   59.86 | X-H torsion
[ 10167 10162 10161 10158 ] final  154.32 input  -65.29 | X-H torsion
[ 10718 10713 10712 10709 ] final   34.52 input   66.30 | X-H torsion
[ 10763 10752 10751 10750 ] final -106.05 input  -60.55 | X-H torsion
[ 11005 11000 10999 10996 ] final   45.71 input  -57.11 | X-H torsion

> <Gold.Protein.ActiveResidues>
 VAL166  LYS551  ARG553  GLY616  TRP617  ASP618  TYR619  PRO620  LYS621  CYS622 
 ASP623  PHE694  ASN695  SER759  ASP760  ASP761  ALA762  ILE779  LEU786  VAL792 
 PHE793  MET794  SER795  GLU796  ALA797  LYS798  CYS799  TRP800  GLU811  SER814 

> <Gold.Protein.RotatedAtoms>
  150.7391  133.9970  159.3625 H   0  0  0  0  0  0  0  0  0  0  0  0  # atno 6907 bound_to 6896
  151.7921  135.0730  160.0398 H   0  0  0  0  0  0  0  0  0  0  0  0  # atno 6908 bound_to 6896
  152.3200  133.5807  159.5774 H   0  0  0  0  0  0  0  0  0  0  0  0  # atno 6909 bound_to 6896
  146.2237  140.2687  142.8355 H   0  0  0  0  0  0  0  0  0  0  0  0  # atno 7974 bound_to 7965
  154.5523  140.2320  155.8465 H   0  0  0  0  0  0  0  0  0  0  0  0  # atno 8008 bound_to 7997
  156.1958  140.3065  155.9385 H   0  0  0  0  0  0  0  0  0  0  0  0  # atno 8009 bound_to 7997
  155.3046  140.0433  157.3022 H   0  0  0  0  0  0  0  0  0  0  0  0  # atno 8010 bound_to 7997
  139.4823  144.5196  151.7896 H   0  0  0  0  0  0  0  0  0  0  0  0  # atno 10167 bound_to 10162
  157.3114  130.7401  149.6727 H   0  0  0  0  0  0  0  0  0  0  0  0  # atno 10718 bound_to 10713
  154.7987  135.4726  154.0223 H   0  0  0  0  0  0  0  0  0  0  0  0  # atno 10763 bound_to 10752
  153.1746  135.6830  153.8568 H   0  0  0  0  0  0  0  0  0  0  0  0  # atno 10764 bound_to 10752
  153.8139  135.3213  155.3381 H   0  0  0  0  0  0  0  0  0  0  0  0  # atno 10765 bound_to 10752
  140.1435  134.4553  155.8432 H   0  0  0  0  0  0  0  0  0  0  0  0  # atno 11005 bound_to 11000
  144.9284  140.7948  143.5704 LP  0  0  0  0  0  0  0  0  0  0  0  0  # atno 17320 bound_to 7965
  145.2629  139.1985  143.4882 LP  0  0  0  0  0  0  0  0  0  0  0  0  # atno 17321 bound_to 7965
  140.4709  144.1588  150.5918 LP  0  0  0  0  0  0  0  0  0  0  0  0  # atno 17342 bound_to 10162
  140.4383  143.2537  151.9506 LP  0  0  0  0  0  0  0  0  0  0  0  0  # atno 17343 bound_to 10162
  155.9678  130.4250  150.4634 LP  0  0  0  0  0  0  0  0  0  0  0  0  # atno 17370 bound_to 10713
  157.2634  131.0571  151.2306 LP  0  0  0  0  0  0  0  0  0  0  0  0  # atno 17371 bound_to 10713
  141.2189  133.6843  156.7290 LP  0  0  0  0  0  0  0  0  0  0  0  0  # atno 17394 bound_to 11000
  140.2693  134.8405  157.3832 LP  0  0  0  0  0  0  0  0  0  0  0  0  # atno 17395 bound_to 11000

$$$$
