AV-unprocessed.smi:1406|AV-procd|sdf|5717|dock9
  -GOLD-   22720 5353D 1   1.00000     0.00000
 Structure written by MMmdl.
 41 43  0  0  0  0  0  0  0  0  2 V2000
  151.6512  141.7137  157.7483 C   0  0  0  0  0  0  0  0  0  0  0  0
  150.4890  141.6785  156.7350 C   0  0  2  0  0  0  0  0  0  0  0  0
  149.1148  141.5275  157.4069 C   0  0  0  0  0  0  0  0  0  0  0  0
  148.7958  140.4760  157.9626 O   0  0  0  0  0  0  0  0  0  0  0  0
  148.3074  142.5996  157.3558 N   0  0  0  0  0  0  0  0  0  0  0  0
  146.9513  142.6617  157.8974 C   0  0  2  0  0  0  0  0  0  0  0  0
  145.9265  143.2155  156.8896 C   0  0  0  0  0  0  0  0  0  0  0  0
  145.0052  144.1080  157.7276 C   0  0  0  0  0  0  0  0  0  0  0  0
  145.9138  144.6530  158.7428 N   0  3  1  0  0  0  0  0  0  0  0  0
  145.3382  145.3814  159.8912 C   0  0  0  0  0  0  0  0  0  0  0  0
  146.4950  146.0112  160.6966 C   0  0  0  0  0  0  0  0  0  0  0  0
  147.5802  144.9760  161.0721 C   0  0  0  0  0  0  0  0  0  0  0  0
  148.0437  144.1576  159.8473 C   0  0  0  0  0  0  0  0  0  0  0  0
  146.8088  143.5567  159.1521 C   0  0  2  0  0  0  0  0  0  0  0  0
  150.6750  140.6448  155.7243 N   0  0  0  0  0  0  0  0  0  0  0  0
  149.8698  140.2603  154.7315 C   0  0  0  0  0  0  0  0  0  0  0  0
  150.3403  139.2473  154.0179 N   0  0  0  0  0  0  0  0  0  0  0  0
  151.5192  139.0340  154.6740 C   0  0  0  0  0  0  0  0  0  0  0  0
  151.7641  139.8360  155.7100 N   0  0  0  0  0  0  0  0  0  0  0  0
  151.5260  142.5287  158.4619 H   0  0  0  0  0  0  0  0  0  0  0  0
  152.6036  141.8693  157.2408 H   0  0  0  0  0  0  0  0  0  0  0  0
  151.7290  140.7858  158.3167 H   0  0  0  0  0  0  0  0  0  0  0  0
  150.4879  142.6379  156.2146 H   0  0  0  0  0  0  0  0  0  0  0  0
  148.6482  143.4235  156.8821 H   0  0  0  0  0  0  0  0  0  0  0  0
  146.6361  141.6506  158.1641 H   0  0  0  0  0  0  0  0  0  0  0  0
  146.4276  143.8255  156.1361 H   0  0  0  0  0  0  0  0  0  0  0  0
  145.3823  142.4284  156.3667 H   0  0  0  0  0  0  0  0  0  0  0  0
  144.5298  144.8936  157.1397 H   0  0  0  0  0  0  0  0  0  0  0  0
  144.2269  143.5138  158.2092 H   0  0  0  0  0  0  0  0  0  0  0  0
  144.6619  146.1586  159.5339 H   0  0  0  0  0  0  0  0  0  0  0  0
  144.7530  144.7021  160.5131 H   0  0  0  0  0  0  0  0  0  0  0  0
  146.9525  146.8038  160.1031 H   0  0  0  0  0  0  0  0  0  0  0  0
  146.1069  146.4893  161.5966 H   0  0  0  0  0  0  0  0  0  0  0  0
  148.4327  145.4763  161.5324 H   0  0  0  0  0  0  0  0  0  0  0  0
  147.1800  144.2973  161.8265 H   0  0  0  0  0  0  0  0  0  0  0  0
  148.5973  144.7957  159.1571 H   0  0  0  0  0  0  0  0  0  0  0  0
  148.7249  143.3700  160.1704 H   0  0  0  0  0  0  0  0  0  0  0  0
  146.2729  142.9565  159.8910 H   0  0  0  0  0  0  0  0  0  0  0  0
  148.9176  140.7285  154.5288 H   0  0  0  0  0  0  0  0  0  0  0  0
  152.2150  138.2606  154.3835 H   0  0  0  0  0  0  0  0  0  0  0  0
  146.4959  145.3152  158.2501 H   0  0  0  0  0  0  0  0  0  0  0  0
  1  2  1  0  0  0  0
  1 20  1  0  0  0  0
  1 21  1  0  0  0  0
  1 22  1  0  0  0  0
  2  3  1  0  0  0  0
  2 15  1  0  0  0  0
  2 23  1  0  0  0  0
  3  4  2  0  0  0  0
  3  5  1  0  0  0  0
  5  6  1  0  0  0  0
  5 24  1  0  0  0  0
  6 14  1  0  0  0  0
  6  7  1  0  0  0  0
  6 25  1  0  0  0  0
  7  8  1  0  0  0  0
  7 26  1  0  0  0  0
  7 27  1  0  0  0  0
  8  9  1  0  0  0  0
  8 28  1  0  0  0  0
  8 29  1  0  0  0  0
  9 14  1  0  0  0  0
  9 10  1  0  0  0  0
  9 41  1  0  0  0  0
 10 11  1  0  0  0  0
 10 30  1  0  0  0  0
 10 31  1  0  0  0  0
 11 12  1  0  0  0  0
 11 32  1  0  0  0  0
 11 33  1  0  0  0  0
 12 13  1  0  0  0  0
 12 34  1  0  0  0  0
 12 35  1  0  0  0  0
 13 14  1  0  0  0  0
 13 36  1  0  0  0  0
 13 37  1  0  0  0  0
 14 38  1  0  0  0  0
 15 19  1  0  0  0  0
 15 16  1  0  0  0  0
 16 17  2  0  0  0  0
 16 39  1  0  0  0  0
 17 18  1  0  0  0  0
 18 19  2  0  0  0  0
 18 40  1  0  0  0  0
M  CHG  1   9   1
M  END
> <s_m_source_file>
AV-unprocessed.smi

> <i_m_source_file_index>
1406

> <i_lp_mmshare_version>
43012

> <i_f3d_flags>
0

> <s_epik_input>
bjFbY0hdbltjSF1uMVtDQEhdKFtDSDNdKUMoPU8pW05IXVtDQEhdKFtDSDJdW0NIMl0yKVtDQEBIXShOMjMpW0NIMl1bQ0gyXVtDSDJdW0NIMl0z

> <s_epik_cmdline>
J2VwaWtfcHl0aG9uJywgJy1waCcsICc3LjAnLCAnLXRuJywgJzgnLCAnLW1hJywgJzIwMCcsICctbWV0YWxfYmluZGluZycsICctaW1hZScsICc8aW5maWxlLm1hZT4nLCAnLW9tYWUnLCAnPG91dGZpbGUubWFlPic=

> <r_lp_tautomer_probability>
1

> <r_epik_Ionization_Penalty>
0.00197066

> <r_epik_Ionization_Penalty_Charging>
0.00196223

> <r_epik_Ionization_Penalty_Neutral>
8.43107e-06

> <r_epik_State_Penalty>
0.00133866

> <r_epik_Charging_Adjusted_Penalty>
0.00330089

> <i_epik_Tot_Q>
1

> <i_epik_Tot_abs_Q>
1

> <r_epik_Metal_State_Penalty>
-0

> <b_epik_Metal_Only>
0

> <s_lp_Force_Field>
OPLS_2005

> <r_lp_Energy>
47.4686

> <b_lp_Chiralities_Consistent>
1

> <s_lp_Variant>
AV-unprocessed.smi:1406-9

> <Gold.Version>
5.8.1

> <Gold.Id.Protein>
6NUR|6NUR_protein|mol2

> <Gold.PLP.Fitness>
38.6199

> <Gold.PLP.PLP>
-30.0735

> <Gold.PLP.part.hbond>
-2.6996

> <Gold.PLP.part.metal>
0.0000

> <Gold.PLP.part.buried>
-4.0009

> <Gold.PLP.part.nonpolar>
-23.0914

> <Gold.PLP.part.repulsive>
0.4480

> <Gold.PLP.ligand.clash>
0.0000

> <Gold.PLP.ligand.torsion>
0.2751

> <Gold.PLP.Chemscore.Hbond>
3.0000

> <Gold.PLP.Chemscore.CHOScore>
0.0000

> <Gold.PLP.Chemscore.Metal>
0.0000

> <Gold.Chemscore.Hbonds>
donor molecule, donor type, donor heavy atom, donor atom, acceptor molecule, acceptor atom, score
      L1  H     5    24       P1  8028  1.00
      L1  H     9    41       P1  8029  2.00

> <Gold.PLP.Chemscore.Internal.Correction>
0.0966

> <Gold.Rescore>
     Score         DG    S(hbond)    S(metal)    S(lipo)     H(rot)  DE(clash)    DE(int)     intcor
     13.20     -13.85       2.55        0.00      40.07       1.89       0.21       0.45       ----

> <Gold.Chemscore.Fitness>
13.2028

> <Gold.Chemscore.DG>
-13.8541

> <Gold.Chemscore.ZeroCoef>
-5.4800

> <Gold.Chemscore.Hbond>
2.5494

> <Gold.Chemscore.Metal>
0.0000

> <Gold.Chemscore.Lipo>
40.0736

> <Gold.Chemscore.Internal_Hbond>
0.0000

> <Gold.Chemscore.DEClash>
0.2059

> <Gold.Chemscore.DEInternal>
0.4454

> <Gold.Chemscore.Rot>
1.8865

> <Gold.Chemscore.Internal.Correction>
   9.000000E+99

> <Gold.Chemscore.Hbonds>
donor molecule, donor type, donor heavy atom, donor atom, acceptor molecule, acceptor atom, score
      L1  H     5    24       P1  8028  0.40
      L1  H     9    41       P1  8029  0.99

> <Gold.Chemscore.Hbond.Weighted>
-8.5150

> <Gold.Chemscore.Metal.Weighted>
-0.0000

> <Gold.Chemscore.Lipo.Weighted>
-4.6886

> <Gold.Chemscore.Internal_Hbond.Weighted>
0.0000

> <Gold.Chemscore.DEClash.Weighted>
0.2059

> <Gold.Chemscore.DEInternal.Weighted>
0.4454

> <Gold.Chemscore.Rot.Weighted>
4.8295

> <Gold.Chemscore.Internal.Correction.Weighted>
   9.000000E+99

> <Gold.Protein.RotatedTorsions>
[ 6907 6896 6895 6894 ] final   52.80 input  -60.11 | X-H torsion
[ 7974 7965 7964 7962 ] final   31.71 input  175.53 | X-H torsion
[ 8008 7997 7996 7995 ] final   87.13 input   59.86 | X-H torsion
[ 10167 10162 10161 10158 ] final  149.13 input  -65.29 | X-H torsion
[ 10718 10713 10712 10709 ] final   51.93 input   66.30 | X-H torsion
[ 10763 10752 10751 10750 ] final  140.88 input  -60.55 | X-H torsion
[ 11005 11000 10999 10996 ] final  -65.83 input  -57.11 | X-H torsion

> <Gold.Protein.ActiveResidues>
 VAL166  LYS551  ARG553  GLY616  TRP617  ASP618  TYR619  PRO620  LYS621  CYS622 
 ASP623  PHE694  ASN695  SER759  ASP760  ASP761  ALA762  ILE779  LEU786  VAL792 
 PHE793  MET794  SER795  GLU796  ALA797  LYS798  CYS799  TRP800  GLU811  SER814 

> <Gold.Protein.RotatedAtoms>
  152.3270  134.7307  160.0298 H   0  0  0  0  0  0  0  0  0  0  0  0  # atno 6907 bound_to 6896
  151.7737  133.3338  159.3460 H   0  0  0  0  0  0  0  0  0  0  0  0  # atno 6908 bound_to 6896
  150.7401  134.5927  159.6040 H   0  0  0  0  0  0  0  0  0  0  0  0  # atno 6909 bound_to 6896
  146.1533  139.6621  142.9084 H   0  0  0  0  0  0  0  0  0  0  0  0  # atno 7974 bound_to 7965
  155.9715  140.3385  155.6580 H   0  0  0  0  0  0  0  0  0  0  0  0  # atno 8008 bound_to 7997
  155.6668  140.0722  157.2552 H   0  0  0  0  0  0  0  0  0  0  0  0  # atno 8009 bound_to 7997
  154.4168  140.1698  156.1823 H   0  0  0  0  0  0  0  0  0  0  0  0  # atno 8010 bound_to 7997
  139.4865  144.5626  151.7203 H   0  0  0  0  0  0  0  0  0  0  0  0  # atno 10167 bound_to 10162
  157.5027  130.8448  149.8336 H   0  0  0  0  0  0  0  0  0  0  0  0  # atno 10718 bound_to 10713
  153.9300  135.2991  155.3446 H   0  0  0  0  0  0  0  0  0  0  0  0  # atno 10763 bound_to 10752
  154.7531  135.4970  153.9329 H   0  0  0  0  0  0  0  0  0  0  0  0  # atno 10764 bound_to 10752
  153.1096  135.6756  153.9628 H   0  0  0  0  0  0  0  0  0  0  0  0  # atno 10765 bound_to 10752
  141.1465  133.6688  156.6047 H   0  0  0  0  0  0  0  0  0  0  0  0  # atno 11005 bound_to 11000
  145.4771  141.0437  143.2666 LP  0  0  0  0  0  0  0  0  0  0  0  0  # atno 17320 bound_to 7965
  144.7931  139.6289  143.7104 LP  0  0  0  0  0  0  0  0  0  0  0  0  # atno 17321 bound_to 7965
  140.5198  144.0896  150.6019 LP  0  0  0  0  0  0  0  0  0  0  0  0  # atno 17342 bound_to 10162
  140.3850  143.2782  152.0126 LP  0  0  0  0  0  0  0  0  0  0  0  0  # atno 17343 bound_to 10162
  156.0239  130.3786  150.1880 LP  0  0  0  0  0  0  0  0  0  0  0  0  # atno 17370 bound_to 10713
  157.0070  130.9939  151.3376 LP  0  0  0  0  0  0  0  0  0  0  0  0  # atno 17371 bound_to 10713
  140.3661  134.7646  157.4567 LP  0  0  0  0  0  0  0  0  0  0  0  0  # atno 17394 bound_to 11000
  140.0747  134.5814  155.8604 LP  0  0  0  0  0  0  0  0  0  0  0  0  # atno 17395 bound_to 11000

$$$$
