AV-unprocessed.smi:1736|AV-procd|sdf|6990|dock1
  -GOLD-   22720 8203D 1   1.00000     0.00000
 Structure written by MMmdl.
 45 46  0  0  0  0  0  0  0  0  2 V2000
  145.7091  141.3512  155.1780 C   0  0  0  0  0  0  0  0  0  0  0  0
  146.0774  140.3036  154.1977 N   0  3  0  0  0  0  0  0  0  0  0  0
  146.0957  138.9339  154.7597 C   0  0  0  0  0  0  0  0  0  0  0  0
  147.3562  138.6900  155.6133 C   0  0  0  0  0  0  0  0  0  0  0  0
  148.5714  138.8906  154.8059 N   0  0  0  0  0  0  0  0  0  0  0  0
  149.8312  138.4419  155.4594 C   0  0  0  0  0  0  0  0  0  0  0  0
  151.0351  138.7270  154.5257 C   0  0  0  0  0  0  0  0  0  0  0  0
  150.0705  139.1672  156.8051 C   0  0  0  0  0  0  0  0  0  0  0  0
  149.7911  136.9070  155.7227 C   0  0  0  0  0  0  0  0  0  0  0  0
  149.2036  136.1502  154.6166 N   0  0  0  0  0  0  0  0  0  0  0  0
  148.1749  135.2956  154.7106 C   0  0  0  0  0  0  0  0  0  0  0  0
  147.5844  135.0492  155.7620 O   0  0  0  0  0  0  0  0  0  0  0  0
  147.8906  134.7462  153.5190 N   0  0  0  0  0  0  0  0  0  0  0  0
  146.8579  133.8213  153.2260 C   0  0  0  0  0  0  0  0  0  0  0  0
  146.8419  132.7559  152.2781 C   0  0  0  0  0  0  0  0  0  0  0  0
  145.6869  132.1060  152.3073 N   0  0  0  0  0  0  0  0  0  0  0  0
  144.9692  132.7425  153.2601 N   0  0  0  0  0  0  0  0  0  0  0  0
  145.6442  133.7907  153.8452 C   0  0  0  0  0  0  0  0  0  0  0  0
  148.5722  140.2927  154.3551 C   0  0  0  0  0  0  0  0  0  0  0  0
  147.3393  140.5756  153.4732 C   0  0  0  0  0  0  0  0  0  0  0  0
  144.0316  132.4518  153.4976 H   0  0  0  0  0  0  0  0  0  0  0  0
  146.4408  141.4345  155.9815 H   0  0  0  0  0  0  0  0  0  0  0  0
  144.7390  141.1314  155.6250 H   0  0  0  0  0  0  0  0  0  0  0  0
  145.6330  142.3219  154.6870 H   0  0  0  0  0  0  0  0  0  0  0  0
  145.1949  138.7616  155.3498 H   0  0  0  0  0  0  0  0  0  0  0  0
  146.0671  138.2175  153.9373 H   0  0  0  0  0  0  0  0  0  0  0  0
  147.3573  139.3450  156.4845 H   0  0  0  0  0  0  0  0  0  0  0  0
  147.2955  137.6708  155.9876 H   0  0  0  0  0  0  0  0  0  0  0  0
  151.9327  138.2157  154.8754 H   0  0  0  0  0  0  0  0  0  0  0  0
  151.2921  139.7853  154.4853 H   0  0  0  0  0  0  0  0  0  0  0  0
  150.8484  138.3885  153.5059 H   0  0  0  0  0  0  0  0  0  0  0  0
  151.0097  138.8417  157.2537 H   0  0  0  0  0  0  0  0  0  0  0  0
  149.2884  138.9574  157.5345 H   0  0  0  0  0  0  0  0  0  0  0  0
  150.1384  140.2485  156.6888 H   0  0  0  0  0  0  0  0  0  0  0  0
  150.7988  136.5456  155.9361 H   0  0  0  0  0  0  0  0  0  0  0  0
  149.2318  136.6712  156.6271 H   0  0  0  0  0  0  0  0  0  0  0  0
  149.6266  136.2796  153.7097 H   0  0  0  0  0  0  0  0  0  0  0  0
  148.4693  135.0214  152.7393 H   0  0  0  0  0  0  0  0  0  0  0  0
  147.6049  132.4313  151.5862 H   0  0  0  0  0  0  0  0  0  0  0  0
  145.2141  134.4016  154.6251 H   0  0  0  0  0  0  0  0  0  0  0  0
  148.5978  140.9740  155.2054 H   0  0  0  0  0  0  0  0  0  0  0  0
  149.4488  140.5120  153.7495 H   0  0  0  0  0  0  0  0  0  0  0  0
  147.3746  139.9450  152.5833 H   0  0  0  0  0  0  0  0  0  0  0  0
  147.3504  141.6071  153.1194 H   0  0  0  0  0  0  0  0  0  0  0  0
  145.3428  140.3167  153.5046 H   0  0  0  0  0  0  0  0  0  0  0  0
  1  2  1  0  0  0  0
  1 22  1  0  0  0  0
  1 23  1  0  0  0  0
  1 24  1  0  0  0  0
  2 20  1  0  0  0  0
  2  3  1  0  0  0  0
  2 45  1  0  0  0  0
  3  4  1  0  0  0  0
  3 25  1  0  0  0  0
  3 26  1  0  0  0  0
  4  5  1  0  0  0  0
  4 27  1  0  0  0  0
  4 28  1  0  0  0  0
  5  6  1  0  0  0  0
  5 19  1  0  0  0  0
  6  7  1  0  0  0  0
  6  8  1  0  0  0  0
  6  9  1  0  0  0  0
  7 29  1  0  0  0  0
  7 30  1  0  0  0  0
  7 31  1  0  0  0  0
  8 32  1  0  0  0  0
  8 33  1  0  0  0  0
  8 34  1  0  0  0  0
  9 10  1  0  0  0  0
  9 35  1  0  0  0  0
  9 36  1  0  0  0  0
 10 11  1  0  0  0  0
 10 37  1  0  0  0  0
 11 12  2  0  0  0  0
 11 13  1  0  0  0  0
 13 14  1  0  0  0  0
 13 38  1  0  0  0  0
 14 18  2  0  0  0  0
 14 15  1  0  0  0  0
 15 16  2  0  0  0  0
 15 39  1  0  0  0  0
 16 17  1  0  0  0  0
 17 21  1  0  0  0  0
 17 18  1  0  0  0  0
 18 40  1  0  0  0  0
 19 20  1  0  0  0  0
 19 41  1  0  0  0  0
 19 42  1  0  0  0  0
 20 43  1  0  0  0  0
 20 44  1  0  0  0  0
M  CHG  1   2   1
M  END
> <s_m_source_file>
AV-unprocessed.smi

> <i_m_source_file_index>
1736

> <i_lp_mmshare_version>
43012

> <i_f3d_flags>
0

> <s_epik_input>
W0NIM11OMVtDSDJdW0NIMl1OKFtDSDJdW0NIMl0xKUMoW0NIM10pKFtDSDNdKVtDSDJdW05IXUMoPU8pW05IXWMyW2NIXW5bbkhdW2NIXTI=

> <s_epik_cmdline>
J2VwaWtfcHl0aG9uJywgJy1waCcsICc3LjAnLCAnLXRuJywgJzgnLCAnLW1hJywgJzIwMCcsICctbWV0YWxfYmluZGluZycsICctaW1hZScsICc8aW5maWxlLm1hZT4nLCAnLW9tYWUnLCAnPG91dGZpbGUubWFlPic=

> <r_lp_tautomer_probability>
0.5

> <r_epik_Ionization_Penalty>
0.0248316

> <r_epik_Ionization_Penalty_Charging>
0.0238192

> <r_epik_Ionization_Penalty_Neutral>
0.00101244

> <r_epik_State_Penalty>
0.139266

> <r_epik_Charging_Adjusted_Penalty>
0.163085

> <i_epik_Tot_Q>
1

> <i_epik_Tot_abs_Q>
1

> <r_epik_Metal_State_Penalty>
0.139266

> <b_epik_Metal_Only>
0

> <s_lp_Force_Field>
OPLS_2005

> <r_lp_Energy>
29.1357

> <b_lp_Chiralities_Consistent>
1

> <s_lp_Variant>
AV-unprocessed.smi:1736-1

> <Gold.Version>
5.8.1

> <Gold.Id.Protein>
6NUR|6NUR_protein|mol2

> <Gold.PLP.Fitness>
35.1831

> <Gold.PLP.PLP>
-19.1387

> <Gold.PLP.part.hbond>
-3.6918

> <Gold.PLP.part.metal>
0.0000

> <Gold.PLP.part.buried>
-2.4299

> <Gold.PLP.part.nonpolar>
-14.1314

> <Gold.PLP.part.repulsive>
0.3014

> <Gold.PLP.ligand.clash>
0.0000

> <Gold.PLP.ligand.torsion>
0.5116

> <Gold.PLP.Chemscore.Hbond>
4.6640

> <Gold.PLP.Chemscore.CHOScore>
1.0000

> <Gold.PLP.Chemscore.Metal>
0.0000

> <Gold.Chemscore.Hbonds>
donor molecule, donor type, donor heavy atom, donor atom, acceptor molecule, acceptor atom, score
      L1  H     2    45       P1 10175  2.00
      L1  H    10    37       P1  7948  0.72
      L1  H    13    38       P1  7948  0.94
      L1  H    17    21       P1 10957  0.95
      L1  C    15    39       P1 10747  1.00

> <Gold.PLP.Chemscore.Internal.Correction>
0.0756

> <Gold.Rescore>
     Score         DG    S(hbond)    S(metal)    S(lipo)     H(rot)  DE(clash)    DE(int)     intcor
     17.87     -19.53       3.75        0.00      48.58       1.63       0.07       1.60       ----

> <Gold.Chemscore.Fitness>
17.8723

> <Gold.Chemscore.DG>
-19.5347

> <Gold.Chemscore.ZeroCoef>
-5.4800

> <Gold.Chemscore.Hbond>
3.7531

> <Gold.Chemscore.Metal>
0.0000

> <Gold.Chemscore.Lipo>
48.5785

> <Gold.Chemscore.Internal_Hbond>
0.0000

> <Gold.Chemscore.DEClash>
0.0650

> <Gold.Chemscore.DEInternal>
1.5973

> <Gold.Chemscore.Rot>
1.6267

> <Gold.Chemscore.Internal.Correction>
   9.000000E+99

> <Gold.Chemscore.Hbonds>
donor molecule, donor type, donor heavy atom, donor atom, acceptor molecule, acceptor atom, score
      L1  H     2    45       P1 10175  0.98
      L1  H    10    37       P1  7948  0.36
      L1  H    13    38       P1  7948  0.47
      L1  H    17    21       P1 10957  0.20

> <Gold.Chemscore.Hbond.Weighted>
-12.5355

> <Gold.Chemscore.Metal.Weighted>
-0.0000

> <Gold.Chemscore.Lipo.Weighted>
-5.6837

> <Gold.Chemscore.Internal_Hbond.Weighted>
0.0000

> <Gold.Chemscore.DEClash.Weighted>
0.0650

> <Gold.Chemscore.DEInternal.Weighted>
1.5973

> <Gold.Chemscore.Rot.Weighted>
4.1645

> <Gold.Chemscore.Internal.Correction.Weighted>
   9.000000E+99

> <Gold.Protein.RotatedTorsions>
[ 6907 6896 6895 6894 ] final   94.57 input  -60.11 | X-H torsion
[ 7974 7965 7964 7962 ] final  -10.01 input  175.53 | X-H torsion
[ 8008 7997 7996 7995 ] final  113.71 input   59.86 | X-H torsion
[ 10167 10162 10161 10158 ] final -128.64 input  -65.29 | X-H torsion
[ 10718 10713 10712 10709 ] final   -4.91 input   66.30 | X-H torsion
[ 10763 10752 10751 10750 ] final  -81.21 input  -60.55 | X-H torsion
[ 11005 11000 10999 10996 ] final -124.09 input  -57.11 | X-H torsion

> <Gold.Protein.ActiveResidues>
 VAL166  LYS551  ARG553  GLY616  TRP617  ASP618  TYR619  PRO620  LYS621  CYS622 
 ASP623  PHE694  ASN695  SER759  ASP760  ASP761  ALA762  ILE779  LEU786  VAL792 
 PHE793  MET794  SER795  GLU796  ALA797  LYS798  CYS799  TRP800  GLU811  SER814 

> <Gold.Protein.RotatedAtoms>
  152.5449  134.1174  159.8383 H   0  0  0  0  0  0  0  0  0  0  0  0  # atno 6907 bound_to 6896
  151.1233  133.5081  159.2609 H   0  0  0  0  0  0  0  0  0  0  0  0  # atno 6908 bound_to 6896
  151.1755  135.0347  159.8824 H   0  0  0  0  0  0  0  0  0  0  0  0  # atno 6909 bound_to 6896
  146.2234  140.2700  142.8356 H   0  0  0  0  0  0  0  0  0  0  0  0  # atno 7974 bound_to 7965
  156.2276  140.2974  156.0105 H   0  0  0  0  0  0  0  0  0  0  0  0  # atno 8008 bound_to 7997
  155.2315  140.0419  157.2980 H   0  0  0  0  0  0  0  0  0  0  0  0  # atno 8009 bound_to 7997
  154.5941  140.2409  155.7889 H   0  0  0  0  0  0  0  0  0  0  0  0  # atno 8010 bound_to 7997
  139.9482  143.6086  152.2483 H   0  0  0  0  0  0  0  0  0  0  0  0  # atno 10167 bound_to 10162
  156.7543  130.5249  149.5797 H   0  0  0  0  0  0  0  0  0  0  0  0  # atno 10718 bound_to 10713
  154.5608  135.5634  153.7006 H   0  0  0  0  0  0  0  0  0  0  0  0  # atno 10763 bound_to 10752
  153.0017  135.6273  154.2247 H   0  0  0  0  0  0  0  0  0  0  0  0  # atno 10764 bound_to 10752
  154.2185  135.2870  155.2913 H   0  0  0  0  0  0  0  0  0  0  0  0  # atno 10765 bound_to 10752
  140.9868  134.0595  157.3701 H   0  0  0  0  0  0  0  0  0  0  0  0  # atno 11005 bound_to 11000
  144.9275  140.7938  143.5710 LP  0  0  0  0  0  0  0  0  0  0  0  0  # atno 17320 bound_to 7965
  145.2641  139.1980  143.4876 LP  0  0  0  0  0  0  0  0  0  0  0  0  # atno 17321 bound_to 7965
  139.6650  144.7662  151.1891 LP  0  0  0  0  0  0  0  0  0  0  0  0  # atno 17342 bound_to 10162
  140.7591  143.5952  150.8755 LP  0  0  0  0  0  0  0  0  0  0  0  0  # atno 17343 bound_to 10162
  156.1380  130.6225  151.0428 LP  0  0  0  0  0  0  0  0  0  0  0  0  # atno 17370 bound_to 10713
  157.6763  131.0849  150.7486 LP  0  0  0  0  0  0  0  0  0  0  0  0  # atno 17371 bound_to 10713
  139.8974  135.0150  156.7100 LP  0  0  0  0  0  0  0  0  0  0  0  0  # atno 17394 bound_to 11000
  140.7101  133.9230  155.8079 LP  0  0  0  0  0  0  0  0  0  0  0  0  # atno 17395 bound_to 11000

$$$$
