AV-unprocessed.smi:158|AV-procd|sdf|1333|dock1
  -GOLD-   2262019 33D 1   1.00000     0.00000
 Structure written by MMmdl.
 31 33  0  0  0  0  0  0  0  0  1 V2000
  149.8351  130.2772  154.6052 N   0  0  0  0  0  0  0  0  0  0  0  0
  148.8239  130.0471  153.7561 C   0  0  0  0  0  0  0  0  0  0  0  0
  148.7861  128.8603  153.1080 N   0  0  0  0  0  0  0  0  0  0  0  0
  147.7942  128.5916  152.2513 C   0  0  0  0  0  0  0  0  0  0  0  0
  147.8417  127.0506  151.4797 Cl  0  0  0  0  0  0  0  0  0  0  0  0
  146.7699  129.3856  151.9241 N   0  0  0  0  0  0  0  0  0  0  0  0
  146.7997  130.5859  152.5735 C   0  0  0  0  0  0  0  0  0  0  0  0
  147.7951  130.9879  153.5056 C   0  0  0  0  0  0  0  0  0  0  0  0
  147.5188  132.2632  153.9761 N   0  0  0  0  0  0  0  0  0  0  0  0
  146.4204  132.5940  153.3533 C   0  0  0  0  0  0  0  0  0  0  0  0
  145.9179  131.6498  152.4840 N   0  0  0  0  0  0  0  0  0  0  0  0
  144.6789  131.7868  151.6444 C   0  0  2  0  0  0  0  0  0  0  0  0
  144.9708  131.4530  150.3167 O   0  0  0  0  0  0  0  0  0  0  0  0
  145.0031  132.6125  149.4734 C   0  0  1  0  0  0  0  0  0  0  0  0
  143.7828  132.5305  148.5320 C   0  0  0  0  0  0  0  0  0  0  0  0
  143.8466  133.5654  147.5742 O   0  0  0  0  0  0  0  0  0  0  0  0
  144.9924  133.7898  150.4645 C   0  0  1  0  0  0  0  0  0  0  0  0
  144.4679  135.0091  149.9763 O   0  0  0  0  0  0  0  0  0  0  0  0
  144.2131  133.2421  151.6434 C   0  0  1  0  0  0  0  0  0  0  0  0
  142.8972  133.2559  151.4209 F   0  0  0  0  0  0  0  0  0  0  0  0
  143.9714  131.0891  152.0937 H   0  0  0  0  0  0  0  0  0  0  0  0
  145.9216  132.6381  148.8852 H   0  0  0  0  0  0  0  0  0  0  0  0
  146.0159  133.9852  150.7871 H   0  0  0  0  0  0  0  0  0  0  0  0
  144.4075  133.7452  152.5914 H   0  0  0  0  0  0  0  0  0  0  0  0
  149.8854  131.1560  155.1003 H   0  0  0  0  0  0  0  0  0  0  0  0
  150.5441  129.5728  154.7488 H   0  0  0  0  0  0  0  0  0  0  0  0
  145.9418  133.5500  153.5086 H   0  0  0  0  0  0  0  0  0  0  0  0
  143.7192  131.5635  148.0330 H   0  0  0  0  0  0  0  0  0  0  0  0
  142.8527  132.6727  149.0817 H   0  0  0  0  0  0  0  0  0  0  0  0
  143.0290  133.5879  147.1010 H   0  0  0  0  0  0  0  0  0  0  0  0
  144.7482  135.1184  149.0803 H   0  0  0  0  0  0  0  0  0  0  0  0
  1  2  1  0  0  0  0
  1 25  1  0  0  0  0
  1 26  1  0  0  0  0
  2  8  1  0  0  0  0
  2  3  2  0  0  0  0
  3  4  1  0  0  0  0
  4  5  1  0  0  0  0
  4  6  2  0  0  0  0
  6  7  1  0  0  0  0
  7 11  1  0  0  0  0
  7  8  2  0  0  0  0
  8  9  1  0  0  0  0
  9 10  2  0  0  0  0
 10 11  1  0  0  0  0
 10 27  1  0  0  0  0
 11 12  1  0  0  0  0
 12 21  1  0  0  0  0
 12 19  1  0  0  0  0
 12 13  1  0  0  0  0
 13 14  1  0  0  0  0
 14 22  1  0  0  0  0
 14 15  1  0  0  0  0
 14 17  1  0  0  0  0
 15 16  1  0  0  0  0
 15 28  1  0  0  0  0
 15 29  1  0  0  0  0
 16 30  1  0  0  0  0
 17 23  1  0  0  0  0
 17 18  1  0  0  0  0
 17 19  1  0  0  0  0
 18 31  1  0  0  0  0
 19 24  1  0  0  0  0
 19 20  1  0  0  0  0
M  END
> <s_m_source_file>
AV-unprocessed.smi

> <i_m_source_file_index>
158

> <i_lp_mmshare_version>
43012

> <i_f3d_flags>
0

> <s_epik_input>
Q2xjKG4xKW5jKFtOSDJdKWMoYzEyKW5bY0hdbjJbQ0BASF0zT1tDQEhdKFtDSDJdW09IXSlbQ0BASF0oW09IXSlbQ0BASF0zRg==

> <s_epik_cmdline>
J2VwaWtfcHl0aG9uJywgJy1waCcsICc3LjAnLCAnLXRuJywgJzgnLCAnLW1hJywgJzIwMCcsICctbWV0YWxfYmluZGluZycsICctaW1hZScsICc8aW5maWxlLm1hZT4nLCAnLW9tYWUnLCAnPG91dGZpbGUubWFlPic=

> <r_lp_tautomer_probability>
1

> <r_epik_Ionization_Penalty>
6.51543e-05

> <r_epik_Ionization_Penalty_Charging>
0

> <r_epik_Ionization_Penalty_Neutral>
6.51543e-05

> <r_epik_State_Penalty>
-0

> <r_epik_Charging_Adjusted_Penalty>
0

> <i_epik_Tot_Q>
0

> <i_epik_Tot_abs_Q>
0

> <r_epik_Metal_State_Penalty>
-0

> <b_epik_Metal_Only>
0

> <s_epik_Chemistry_Notes>
This compound contains an acetal/aminal-like group ( X-CH(R)-Y where X, Y are N, S, or O) that may be acid/base labile, releasing an aldehyde.

> <s_lp_Force_Field>
OPLS_2005

> <r_lp_Energy>
36.1336

> <b_lp_Chiralities_Consistent>
1

> <s_lp_Variant>
AV-unprocessed.smi:158-11

> <Gold.Version>
5.8.1

> <Gold.Id.Protein>
6NUR|6NUR_protein|mol2

> <Gold.PLP.Fitness>
43.4679

> <Gold.PLP.PLP>
-35.4644

> <Gold.PLP.part.hbond>
-4.2350

> <Gold.PLP.part.metal>
0.0000

> <Gold.PLP.part.buried>
-2.1286

> <Gold.PLP.part.nonpolar>
-28.3615

> <Gold.PLP.part.repulsive>
0.6724

> <Gold.PLP.ligand.clash>
0.0000

> <Gold.PLP.ligand.torsion>
0.2780

> <Gold.PLP.Chemscore.Hbond>
2.8480

> <Gold.PLP.Chemscore.CHOScore>
0.0000

> <Gold.PLP.Chemscore.Metal>
0.0000

> <Gold.Chemscore.Hbonds>
donor molecule, donor type, donor heavy atom, donor atom, acceptor molecule, acceptor atom, score
      L1  H    16    30       P1 10195  1.00
      L1  H    18    31       P1  7921  1.00
      P1  H  7918  7932       L1    16  0.83

> <Gold.PLP.Chemscore.Internal.Correction>
0.0154

> <Gold.Rescore>
     Score         DG    S(hbond)    S(metal)    S(lipo)     H(rot)  DE(clash)    DE(int)     intcor
     10.73     -11.96       2.53        0.00      51.59       3.12       0.94       0.28       ----

> <Gold.Chemscore.Fitness>
10.7305

> <Gold.Chemscore.DG>
-11.9597

> <Gold.Chemscore.ZeroCoef>
-5.4800

> <Gold.Chemscore.Hbond>
2.5265

> <Gold.Chemscore.Metal>
0.0000

> <Gold.Chemscore.Lipo>
51.5914

> <Gold.Chemscore.Internal_Hbond>
0.0000

> <Gold.Chemscore.DEClash>
0.9448

> <Gold.Chemscore.DEInternal>
0.2844

> <Gold.Chemscore.Rot>
3.1230

> <Gold.Chemscore.Internal.Correction>
   9.000000E+99

> <Gold.Chemscore.Hbonds>
donor molecule, donor type, donor heavy atom, donor atom, acceptor molecule, acceptor atom, score
      L1  H    16    30       P1 10195  0.92
      L1  H    18    31       P1  7921  0.89
      P1  H  7918  7932       L1    16  0.21

> <Gold.Chemscore.Hbond.Weighted>
-8.4385

> <Gold.Chemscore.Metal.Weighted>
-0.0000

> <Gold.Chemscore.Lipo.Weighted>
-6.0362

> <Gold.Chemscore.Internal_Hbond.Weighted>
0.0000

> <Gold.Chemscore.DEClash.Weighted>
0.9448

> <Gold.Chemscore.DEInternal.Weighted>
0.2844

> <Gold.Chemscore.Rot.Weighted>
7.9950

> <Gold.Chemscore.Internal.Correction.Weighted>
   9.000000E+99

> <Gold.Protein.RotatedTorsions>
[ 6907 6896 6895 6894 ] final   30.26 input  -60.11 | X-H torsion
[ 7974 7965 7964 7962 ] final  -55.80 input  175.53 | X-H torsion
[ 8008 7997 7996 7995 ] final -112.01 input   59.86 | X-H torsion
[ 10167 10162 10161 10158 ] final  105.55 input  -65.29 | X-H torsion
[ 10718 10713 10712 10709 ] final   -4.08 input   66.30 | X-H torsion
[ 10763 10752 10751 10750 ] final -131.43 input  -60.55 | X-H torsion
[ 11005 11000 10999 10996 ] final  -49.27 input  -57.11 | X-H torsion

> <Gold.Protein.ActiveResidues>
 VAL166  LYS551  ARG553  GLY616  TRP617  ASP618  TYR619  PRO620  LYS621  CYS622 
 ASP623  PHE694  ASN695  SER759  ASP760  ASP761  ALA762  ILE779  LEU786  VAL792 
 PHE793  MET794  SER795  GLU796  ALA797  LYS798  CYS799  TRP800  GLU811  SER814 

> <Gold.Protein.RotatedAtoms>
  152.0434  134.9697  160.0573 H   0  0  0  0  0  0  0  0  0  0  0  0  # atno 6907 bound_to 6896
  152.1127  133.4305  159.4647 H   0  0  0  0  0  0  0  0  0  0  0  0  # atno 6908 bound_to 6896
  150.6844  134.2548  159.4568 H   0  0  0  0  0  0  0  0  0  0  0  0  # atno 6909 bound_to 6896
  145.8700  140.8223  142.9893 H   0  0  0  0  0  0  0  0  0  0  0  0  # atno 7974 bound_to 7965
  154.9987  140.0394  157.2351 H   0  0  0  0  0  0  0  0  0  0  0  0  # atno 8008 bound_to 7997
  154.7563  140.2776  155.6228 H   0  0  0  0  0  0  0  0  0  0  0  0  # atno 8009 bound_to 7997
  156.2895  140.2637  156.2330 H   0  0  0  0  0  0  0  0  0  0  0  0  # atno 8010 bound_to 7997
  139.7083  144.7082  151.1069 H   0  0  0  0  0  0  0  0  0  0  0  0  # atno 10167 bound_to 10162
  156.7666  130.5286  149.5775 H   0  0  0  0  0  0  0  0  0  0  0  0  # atno 10718 bound_to 10713
  154.8751  135.3830  154.4245 H   0  0  0  0  0  0  0  0  0  0  0  0  # atno 10763 bound_to 10752
  153.4945  135.7030  153.5871 H   0  0  0  0  0  0  0  0  0  0  0  0  # atno 10764 bound_to 10752
  153.4230  135.3897  155.2090 H   0  0  0  0  0  0  0  0  0  0  0  0  # atno 10765 bound_to 10752
  141.0749  133.6668  156.3561 H   0  0  0  0  0  0  0  0  0  0  0  0  # atno 11005 bound_to 11000
  144.6726  140.1224  143.7449 LP  0  0  0  0  0  0  0  0  0  0  0  0  # atno 17320 bound_to 7965
  145.9148  139.2509  143.1416 LP  0  0  0  0  0  0  0  0  0  0  0  0  # atno 17321 bound_to 7965
  140.7727  143.5328  150.9403 LP  0  0  0  0  0  0  0  0  0  0  0  0  # atno 17342 bound_to 10162
  139.9012  143.6834  152.3131 LP  0  0  0  0  0  0  0  0  0  0  0  0  # atno 17343 bound_to 10162
  156.1305  130.6174  151.0326 LP  0  0  0  0  0  0  0  0  0  0  0  0  # atno 17370 bound_to 10713
  157.6710  131.0861  150.7611 LP  0  0  0  0  0  0  0  0  0  0  0  0  # atno 17371 bound_to 10713
  140.5594  134.5949  157.5429 LP  0  0  0  0  0  0  0  0  0  0  0  0  # atno 17394 bound_to 11000
  139.9561  134.7532  156.0338 LP  0  0  0  0  0  0  0  0  0  0  0  0  # atno 17395 bound_to 11000

$$$$
