AV-unprocessed.smi:371|AV-procd|sdf|2442|dock4
  -GOLD-   2262022383D 1   1.00000     0.00000
 Structure written by MMmdl.
 39 40  0  0  0  0  0  0  0  0  1 V2000
  153.6907  142.3864  162.5928 C   0  0  0  0  0  0  0  0  0  0  0  0
  153.1953  142.2616  161.1572 C   0  0  0  0  0  0  0  0  0  0  0  0
  152.5167  143.3950  160.5728 C   0  0  0  0  0  0  0  0  0  0  0  0
  151.9663  143.3197  159.3503 C   0  0  0  0  0  0  0  0  0  0  0  0
  151.2572  144.5231  158.7395 C   0  0  0  0  0  0  0  0  0  0  0  0
  152.0704  142.1265  158.5836 N   0  0  0  0  0  0  0  0  0  0  0  0
  151.3621  142.0352  157.2819 C   0  0  0  0  0  0  0  0  0  0  0  0
  150.5517  140.7228  157.1256 C   0  0  1  0  0  0  0  0  0  0  0  0
  149.8795  140.4726  158.3440 O   0  0  0  0  0  0  0  0  0  0  0  0
  149.6036  140.7326  155.9301 C   0  0  0  0  0  0  0  0  0  0  0  0
  148.5333  141.6537  155.8782 C   0  0  0  0  0  0  0  0  0  0  0  0
  147.6787  141.6911  154.7596 C   0  0  0  0  0  0  0  0  0  0  0  0
  147.8879  140.8081  153.6838 C   0  0  0  0  0  0  0  0  0  0  0  0
  148.9515  139.8871  153.7279 C   0  0  0  0  0  0  0  0  0  0  0  0
  149.8072  139.8474  154.8460 C   0  0  0  0  0  0  0  0  0  0  0  0
  150.8365  138.9665  154.8620 F   0  0  0  0  0  0  0  0  0  0  0  0
  152.8058  141.0510  159.0160 C   0  0  0  0  0  0  0  0  0  0  0  0
  153.0022  140.0862  158.2701 O   0  0  0  0  0  0  0  0  0  0  0  0
  153.3202  141.1323  160.4098 C   0  0  0  0  0  0  0  0  0  0  0  0
  153.9858  139.9254  160.9373 C   0  0  0  0  0  0  0  0  0  0  0  0
  153.6406  138.7777  160.3363 N   0  0  0  0  0  0  0  0  0  0  0  0
  154.7436  139.9069  161.9060 O   0  0  0  0  0  0  0  0  0  0  0  0
  153.3266  143.3036  163.0568 H   0  0  0  0  0  0  0  0  0  0  0  0
  154.7801  142.4114  162.6206 H   0  0  0  0  0  0  0  0  0  0  0  0
  153.3424  141.5523  163.2028 H   0  0  0  0  0  0  0  0  0  0  0  0
  152.4457  144.3160  161.1333 H   0  0  0  0  0  0  0  0  0  0  0  0
  151.1725  145.3315  159.4661 H   0  0  0  0  0  0  0  0  0  0  0  0
  150.2457  144.2841  158.4156 H   0  0  0  0  0  0  0  0  0  0  0  0
  151.8211  144.9111  157.8908 H   0  0  0  0  0  0  0  0  0  0  0  0
  150.7085  142.8928  157.1318 H   0  0  0  0  0  0  0  0  0  0  0  0
  152.0556  142.1227  156.4439 H   0  0  0  0  0  0  0  0  0  0  0  0
  151.2417  139.8900  156.9984 H   0  0  0  0  0  0  0  0  0  0  0  0
  150.4530  139.9732  158.9052 H   0  0  0  0  0  0  0  0  0  0  0  0
  148.3716  142.3460  156.6915 H   0  0  0  0  0  0  0  0  0  0  0  0
  146.8657  142.4015  154.7254 H   0  0  0  0  0  0  0  0  0  0  0  0
  147.2346  140.8386  152.8243 H   0  0  0  0  0  0  0  0  0  0  0  0
  149.1147  139.2125  152.9004 H   0  0  0  0  0  0  0  0  0  0  0  0
  154.0408  137.9041  160.6472 H   0  0  0  0  0  0  0  0  0  0  0  0
  152.9695  138.7900  159.5820 H   0  0  0  0  0  0  0  0  0  0  0  0
  1  2  1  0  0  0  0
  1 23  1  0  0  0  0
  1 24  1  0  0  0  0
  1 25  1  0  0  0  0
  2 19  2  0  0  0  0
  2  3  1  0  0  0  0
  3  4  2  0  0  0  0
  3 26  1  0  0  0  0
  4  5  1  0  0  0  0
  4  6  1  0  0  0  0
  5 27  1  0  0  0  0
  5 28  1  0  0  0  0
  5 29  1  0  0  0  0
  6  7  1  0  0  0  0
  6 17  1  0  0  0  0
  7  8  1  0  0  0  0
  7 30  1  0  0  0  0
  7 31  1  0  0  0  0
  8  9  1  0  0  0  0
  8 10  1  0  0  0  0
  8 32  1  0  0  0  0
  9 33  1  0  0  0  0
 10 15  1  0  0  0  0
 10 11  2  0  0  0  0
 11 12  1  0  0  0  0
 11 34  1  0  0  0  0
 12 13  2  0  0  0  0
 12 35  1  0  0  0  0
 13 14  1  0  0  0  0
 13 36  1  0  0  0  0
 14 15  2  0  0  0  0
 14 37  1  0  0  0  0
 15 16  1  0  0  0  0
 17 18  2  0  0  0  0
 17 19  1  0  0  0  0
 19 20  1  0  0  0  0
 20 21  1  0  0  0  0
 20 22  2  0  0  0  0
 21 38  1  0  0  0  0
 21 39  1  0  0  0  0
M  END
> <s_m_source_file>
AV-unprocessed.smi

> <i_m_source_file_index>
371

> <i_lp_mmshare_version>
43012

> <i_f3d_flags>
0

> <s_epik_input>
W0NIM11jMVtjSF1jKFtDSDNdKW4oYyg9TyljMUMoPU8pW05IMl0pW0NIMl1bQ0BIXShbT0hdKWMyW2NIXVtjSF1bY0hdW2NIXWMyRg==

> <s_epik_cmdline>
J2VwaWtfcHl0aG9uJywgJy1waCcsICc3LjAnLCAnLXRuJywgJzgnLCAnLW1hJywgJzIwMCcsICctbWV0YWxfYmluZGluZycsICctaW1hZScsICc8aW5maWxlLm1hZT4nLCAnLW9tYWUnLCAnPG91dGZpbGUubWFlPic=

> <r_lp_tautomer_probability>
1

> <r_epik_Ionization_Penalty>
3.46512e-07

> <r_epik_Ionization_Penalty_Charging>
1.35363e-07

> <r_epik_Ionization_Penalty_Neutral>
2.11149e-07

> <r_epik_State_Penalty>
-0

> <r_epik_Charging_Adjusted_Penalty>
1.35363e-07

> <i_epik_Tot_Q>
0

> <i_epik_Tot_abs_Q>
0

> <r_epik_Metal_State_Penalty>
-0

> <b_epik_Metal_Only>
0

> <s_lp_Force_Field>
OPLS_2005

> <r_lp_Energy>
37.7279

> <b_lp_Chiralities_Consistent>
1

> <s_lp_Variant>
AV-unprocessed.smi:371-2

> <Gold.Version>
5.8.1

> <Gold.Id.Protein>
6NUR|6NUR_protein|mol2

> <Gold.PLP.Fitness>
48.0905

> <Gold.PLP.PLP>
-45.5819

> <Gold.PLP.part.hbond>
-1.0000

> <Gold.PLP.part.metal>
0.0000

> <Gold.PLP.part.buried>
1.7215

> <Gold.PLP.part.nonpolar>
-44.5736

> <Gold.PLP.part.repulsive>
0.0506

> <Gold.PLP.ligand.clash>
0.0000

> <Gold.PLP.ligand.torsion>
0.4490

> <Gold.PLP.Chemscore.Hbond>
1.0000

> <Gold.PLP.Chemscore.CHOScore>
0.0000

> <Gold.PLP.Chemscore.Metal>
0.0000

> <Gold.Chemscore.Hbonds>
donor molecule, donor type, donor heavy atom, donor atom, acceptor molecule, acceptor atom, score
      P1  H  7997  8008       L1    18  1.00

> <Gold.PLP.Chemscore.Internal.Correction>
0.4066

> <Gold.Rescore>
     Score         DG    S(hbond)    S(metal)    S(lipo)     H(rot)  DE(clash)    DE(int)     intcor
     12.38     -17.34       0.92        0.00     119.75       2.04       1.80       3.16       ----

> <Gold.Chemscore.Fitness>
12.3815

> <Gold.Chemscore.DG>
-17.3393

> <Gold.Chemscore.ZeroCoef>
-5.4800

> <Gold.Chemscore.Hbond>
0.9190

> <Gold.Chemscore.Metal>
0.0000

> <Gold.Chemscore.Lipo>
119.7522

> <Gold.Chemscore.Internal_Hbond>
0.0000

> <Gold.Chemscore.DEClash>
1.8014

> <Gold.Chemscore.DEInternal>
3.1564

> <Gold.Chemscore.Rot>
2.0396

> <Gold.Chemscore.Internal.Correction>
   9.000000E+99

> <Gold.Chemscore.Hbonds>
donor molecule, donor type, donor heavy atom, donor atom, acceptor molecule, acceptor atom, score
      P1  H  7997  8008       L1    18  0.89

> <Gold.Chemscore.Hbond.Weighted>
-3.0696

> <Gold.Chemscore.Metal.Weighted>
-0.0000

> <Gold.Chemscore.Lipo.Weighted>
-14.0110

> <Gold.Chemscore.Internal_Hbond.Weighted>
0.0000

> <Gold.Chemscore.DEClash.Weighted>
1.8014

> <Gold.Chemscore.DEInternal.Weighted>
3.1564

> <Gold.Chemscore.Rot.Weighted>
5.2214

> <Gold.Chemscore.Internal.Correction.Weighted>
   9.000000E+99

> <Gold.Protein.RotatedTorsions>
[ 6907 6896 6895 6894 ] final  -56.71 input  -60.11 | X-H torsion
[ 7974 7965 7964 7962 ] final  -96.34 input  175.53 | X-H torsion
[ 8008 7997 7996 7995 ] final  -78.72 input   59.86 | X-H torsion
[ 10167 10162 10161 10158 ] final  145.54 input  -65.29 | X-H torsion
[ 10718 10713 10712 10709 ] final  162.35 input   66.30 | X-H torsion
[ 10763 10752 10751 10750 ] final  -19.82 input  -60.55 | X-H torsion
[ 11005 11000 10999 10996 ] final  -38.58 input  -57.11 | X-H torsion

> <Gold.Protein.ActiveResidues>
 VAL166  LYS551  ARG553  GLY616  TRP617  ASP618  TYR619  PRO620  LYS621  CYS622 
 ASP623  PHE694  ASN695  SER759  ASP760  ASP761  ALA762  ILE779  LEU786  VAL792 
 PHE793  MET794  SER795  GLU796  ALA797  LYS798  CYS799  TRP800  GLU811  SER814 

> <Gold.Protein.RotatedAtoms>
  150.8145  134.7320  159.6717 H   0  0  0  0  0  0  0  0  0  0  0  0  # atno 6907 bound_to 6896
  152.4264  134.5856  159.9970 H   0  0  0  0  0  0  0  0  0  0  0  0  # atno 6908 bound_to 6896
  151.6056  133.3315  159.3092 H   0  0  0  0  0  0  0  0  0  0  0  0  # atno 6909 bound_to 6896
  145.3482  140.9472  143.2569 H   0  0  0  0  0  0  0  0  0  0  0  0  # atno 7974 bound_to 7965
  154.5716  140.0690  156.8973 H   0  0  0  0  0  0  0  0  0  0  0  0  # atno 8008 bound_to 7997
  155.2623  140.3359  155.4254 H   0  0  0  0  0  0  0  0  0  0  0  0  # atno 8009 bound_to 7997
  156.2123  140.1764  156.7653 H   0  0  0  0  0  0  0  0  0  0  0  0  # atno 8010 bound_to 7997
  139.4924  144.5894  151.6712 H   0  0  0  0  0  0  0  0  0  0  0  0  # atno 10167 bound_to 10162
  157.1237  131.0499  151.2403 H   0  0  0  0  0  0  0  0  0  0  0  0  # atno 10718 bound_to 10713
  153.6107  135.6996  153.5348 H   0  0  0  0  0  0  0  0  0  0  0  0  # atno 10763 bound_to 10752
  153.3019  135.4126  155.1259 H   0  0  0  0  0  0  0  0  0  0  0  0  # atno 10764 bound_to 10752
  154.8564  135.3651  154.5646 H   0  0  0  0  0  0  0  0  0  0  0  0  # atno 10765 bound_to 10752
  141.0038  133.6942  156.2072 H   0  0  0  0  0  0  0  0  0  0  0  0  # atno 11005 bound_to 11000
  144.8738  139.5000  143.6755 LP  0  0  0  0  0  0  0  0  0  0  0  0  # atno 17320 bound_to 7965
  146.2979  139.7335  142.9113 LP  0  0  0  0  0  0  0  0  0  0  0  0  # atno 17321 bound_to 7965
  140.5517  144.0414  150.6130 LP  0  0  0  0  0  0  0  0  0  0  0  0  # atno 17342 bound_to 10162
  140.3470  143.2985  152.0527 LP  0  0  0  0  0  0  0  0  0  0  0  0  # atno 17343 bound_to 10162
  157.4454  130.7568  149.7105 LP  0  0  0  0  0  0  0  0  0  0  0  0  # atno 17370 bound_to 10713
  155.9823  130.4011  150.3425 LP  0  0  0  0  0  0  0  0  0  0  0  0  # atno 17371 bound_to 10713
  140.6845  134.4731  157.5589 LP  0  0  0  0  0  0  0  0  0  0  0  0  # atno 17394 bound_to 11000
  139.9053  134.8464  156.1732 LP  0  0  0  0  0  0  0  0  0  0  0  0  # atno 17395 bound_to 11000

$$$$
