AV-unprocessed.smi:2183|AV-procd|sdf|8866|dock9
  -GOLD-   2272012 63D 1   1.00000     0.00000
 Structure written by MMmdl.
 40 42  0  0  0  0  0  0  0  0  1 V2000
  149.7189  138.3512  159.0730 O   0  0  0  0  0  0  0  0  0  0  0  0
  150.7781  138.7636  158.2328 C   0  0  0  0  0  0  0  0  0  0  0  0
  151.1154  140.2239  158.3446 C   0  0  0  0  0  0  0  0  0  0  0  0
  151.4039  140.8191  159.5048 N   0  0  0  0  0  0  0  0  0  0  0  0
  151.6530  142.1236  159.1273 C   0  0  0  0  0  0  0  0  0  0  0  0
  152.0140  143.2504  159.9004 C   0  0  0  0  0  0  0  0  0  0  0  0
  152.2226  144.5017  159.2844 C   0  0  0  0  0  0  0  0  0  0  0  0
  152.0721  144.6442  157.8899 C   0  0  0  0  0  0  0  0  0  0  0  0
  151.7120  143.5343  157.1012 C   0  0  0  0  0  0  0  0  0  0  0  0
  151.5063  142.2868  157.7210 C   0  0  0  0  0  0  0  0  0  0  0  0
  151.1537  141.0252  157.2501 N   0  0  0  0  0  0  0  0  0  0  0  0
  150.8910  140.6629  155.8634 C   0  0  0  0  0  0  0  0  0  0  0  0
  149.5614  141.2394  155.3340 C   0  0  1  0  0  0  0  0  0  0  0  0
  149.4872  141.0828  153.9308 O   0  0  0  0  0  0  0  0  0  0  0  0
  148.3353  140.5613  155.9623 C   0  0  0  0  0  0  0  0  0  0  0  0
  147.5477  141.5454  156.6198 O   0  0  0  0  0  0  0  0  0  0  0  0
  146.7914  142.3996  155.8463 C   0  0  0  0  0  0  0  0  0  0  0  0
  145.9176  143.2736  156.5259 C   0  0  0  0  0  0  0  0  0  0  0  0
  145.1096  144.1820  155.8157 C   0  0  0  0  0  0  0  0  0  0  0  0
  145.1687  144.2262  154.4104 C   0  0  0  0  0  0  0  0  0  0  0  0
  144.1825  145.3407  153.5373 Cl  0  0  0  0  0  0  0  0  0  0  0  0
  146.0350  143.3590  153.7190 C   0  0  0  0  0  0  0  0  0  0  0  0
  146.8425  142.4498  154.4299 C   0  0  0  0  0  0  0  0  0  0  0  0
  148.9382  138.2582  158.5492 H   0  0  0  0  0  0  0  0  0  0  0  0
  151.6622  138.1747  158.4778 H   0  0  0  0  0  0  0  0  0  0  0  0
  150.5058  138.5329  157.2034 H   0  0  0  0  0  0  0  0  0  0  0  0
  152.1309  143.1514  160.9694 H   0  0  0  0  0  0  0  0  0  0  0  0
  152.4987  145.3563  159.8850 H   0  0  0  0  0  0  0  0  0  0  0  0
  152.2326  145.6063  157.4258 H   0  0  0  0  0  0  0  0  0  0  0  0
  151.5947  143.6415  156.0335 H   0  0  0  0  0  0  0  0  0  0  0  0
  151.7237  141.0113  155.2516 H   0  0  0  0  0  0  0  0  0  0  0  0
  150.8952  139.5760  155.7785 H   0  0  0  0  0  0  0  0  0  0  0  0
  149.5147  142.3085  155.5413 H   0  0  0  0  0  0  0  0  0  0  0  0
  148.6105  140.8139  153.7033 H   0  0  0  0  0  0  0  0  0  0  0  0
  147.7414  140.0863  155.1793 H   0  0  0  0  0  0  0  0  0  0  0  0
  148.6521  139.7877  156.6642 H   0  0  0  0  0  0  0  0  0  0  0  0
  145.8662  143.2475  157.6046 H   0  0  0  0  0  0  0  0  0  0  0  0
  144.4459  144.8451  156.3509 H   0  0  0  0  0  0  0  0  0  0  0  0
  146.0830  143.3902  152.6403 H   0  0  0  0  0  0  0  0  0  0  0  0
  147.4947  141.8028  153.8635 H   0  0  0  0  0  0  0  0  0  0  0  0
  1  2  1  0  0  0  0
  1 24  1  0  0  0  0
  2  3  1  0  0  0  0
  2 25  1  0  0  0  0
  2 26  1  0  0  0  0
  3 11  1  0  0  0  0
  3  4  2  0  0  0  0
  4  5  1  0  0  0  0
  5 10  2  0  0  0  0
  5  6  1  0  0  0  0
  6  7  2  0  0  0  0
  6 27  1  0  0  0  0
  7  8  1  0  0  0  0
  7 28  1  0  0  0  0
  8  9  2  0  0  0  0
  8 29  1  0  0  0  0
  9 10  1  0  0  0  0
  9 30  1  0  0  0  0
 10 11  1  0  0  0  0
 11 12  1  0  0  0  0
 12 13  1  0  0  0  0
 12 31  1  0  0  0  0
 12 32  1  0  0  0  0
 13 14  1  0  0  0  0
 13 15  1  0  0  0  0
 13 33  1  0  0  0  0
 14 34  1  0  0  0  0
 15 16  1  0  0  0  0
 15 35  1  0  0  0  0
 15 36  1  0  0  0  0
 16 17  1  0  0  0  0
 17 23  1  0  0  0  0
 17 18  2  0  0  0  0
 18 19  1  0  0  0  0
 18 37  1  0  0  0  0
 19 20  2  0  0  0  0
 19 38  1  0  0  0  0
 20 21  1  0  0  0  0
 20 22  1  0  0  0  0
 22 23  2  0  0  0  0
 22 39  1  0  0  0  0
 23 40  1  0  0  0  0
M  END
> <s_m_source_file>
AV-unprocessed.smi

> <i_m_source_file_index>
2183

> <i_lp_mmshare_version>
43012

> <i_f3d_flags>
0

> <s_epik_input>
W2NIXTFbY0hdW2NIXVtjSF1jKGMxMiluKGMobjIpW0NIMl1bT0hdKVtDSDJdW0NASF0oW09IXSlbQ0gyXU9jM1tjSF1bY0hdYyhDbClbY0hdW2NIXTM=

> <s_epik_cmdline>
J2VwaWtfcHl0aG9uJywgJy1waCcsICc3LjAnLCAnLXRuJywgJzgnLCAnLW1hJywgJzIwMCcsICctbWV0YWxfYmluZGluZycsICctaW1hZScsICc8aW5maWxlLm1hZT4nLCAnLW9tYWUnLCAnPG91dGZpbGUubWFlPic=

> <r_lp_tautomer_probability>
1

> <r_epik_Ionization_Penalty>
0.0586933

> <r_epik_Ionization_Penalty_Charging>
0

> <r_epik_Ionization_Penalty_Neutral>
0.0586933

> <r_epik_State_Penalty>
0.0507031

> <r_epik_Charging_Adjusted_Penalty>
0.0507031

> <i_epik_Tot_Q>
0

> <i_epik_Tot_abs_Q>
0

> <r_epik_Metal_State_Penalty>
5.29335e-05

> <b_epik_Metal_Only>
0

> <s_lp_Force_Field>
OPLS_2005

> <r_lp_Energy>
14.4391

> <b_lp_Chiralities_Consistent>
1

> <s_lp_Variant>
AV-unprocessed.smi:2183-2

> <Gold.Version>
5.8.1

> <Gold.Id.Protein>
6NUR|6NUR_protein|mol2

> <Gold.PLP.Fitness>
50.0799

> <Gold.PLP.PLP>
-48.8384

> <Gold.PLP.part.hbond>
-3.2650

> <Gold.PLP.part.metal>
0.0000

> <Gold.PLP.part.buried>
-6.6371

> <Gold.PLP.part.nonpolar>
-38.4873

> <Gold.PLP.part.repulsive>
0.0886

> <Gold.PLP.ligand.clash>
0.0000

> <Gold.PLP.ligand.torsion>
1.0525

> <Gold.PLP.Chemscore.Hbond>
1.0913

> <Gold.PLP.Chemscore.CHOScore>
0.0000

> <Gold.PLP.Chemscore.Metal>
0.0000

> <Gold.Chemscore.Hbonds>
donor molecule, donor type, donor heavy atom, donor atom, acceptor molecule, acceptor atom, score
      P1  H  7989  7998       L1    14  0.24
      P1  H  8011  8017       L1    14  0.66

> <Gold.PLP.Chemscore.Internal.Correction>
0.0726

> <Gold.Rescore>
     Score         DG    S(hbond)    S(metal)    S(lipo)     H(rot)  DE(clash)    DE(int)     intcor
     12.96     -14.49       0.85        0.00     119.26       3.04       0.64       0.89       ----

> <Gold.Chemscore.Fitness>
12.9630

> <Gold.Chemscore.DG>
-14.4935

> <Gold.Chemscore.ZeroCoef>
-5.4800

> <Gold.Chemscore.Hbond>
0.8479

> <Gold.Chemscore.Metal>
0.0000

> <Gold.Chemscore.Lipo>
119.2580

> <Gold.Chemscore.Internal_Hbond>
0.0000

> <Gold.Chemscore.DEClash>
0.6371

> <Gold.Chemscore.DEInternal>
0.8934

> <Gold.Chemscore.Rot>
3.0358

> <Gold.Chemscore.Internal.Correction>
   9.000000E+99

> <Gold.Chemscore.Hbonds>
donor molecule, donor type, donor heavy atom, donor atom, acceptor molecule, acceptor atom, score
      P1  H  7989  7998       L1    14  0.06
      P1  H  8011  8017       L1    14  0.12

> <Gold.Chemscore.Hbond.Weighted>
-2.8319

> <Gold.Chemscore.Metal.Weighted>
-0.0000

> <Gold.Chemscore.Lipo.Weighted>
-13.9532

> <Gold.Chemscore.Internal_Hbond.Weighted>
0.0000

> <Gold.Chemscore.DEClash.Weighted>
0.6371

> <Gold.Chemscore.DEInternal.Weighted>
0.8934

> <Gold.Chemscore.Rot.Weighted>
7.7716

> <Gold.Chemscore.Internal.Correction.Weighted>
   9.000000E+99

> <Gold.Protein.RotatedTorsions>
[ 6907 6896 6895 6894 ] final -164.22 input  -60.11 | X-H torsion
[ 7974 7965 7964 7962 ] final -160.54 input  175.53 | X-H torsion
[ 8008 7997 7996 7995 ] final -108.71 input   59.86 | X-H torsion
[ 10167 10162 10161 10158 ] final -122.39 input  -65.29 | X-H torsion
[ 10718 10713 10712 10709 ] final   37.90 input   66.30 | X-H torsion
[ 10763 10752 10751 10750 ] final  176.40 input  -60.55 | X-H torsion
[ 11005 11000 10999 10996 ] final  160.11 input  -57.11 | X-H torsion

> <Gold.Protein.ActiveResidues>
 VAL166  LYS551  ARG553  GLY616  TRP617  ASP618  TYR619  PRO620  LYS621  CYS622 
 ASP623  PHE694  ASN695  SER759  ASP760  ASP761  ALA762  ILE779  LEU786  VAL792 
 PHE793  MET794  SER795  GLU796  ALA797  LYS798  CYS799  TRP800  GLU811  SER814 

> <Gold.Protein.RotatedAtoms>
  151.4084  133.3735  159.2740 H   0  0  0  0  0  0  0  0  0  0  0  0  # atno 6907 bound_to 6896
  150.9381  134.8794  159.7605 H   0  0  0  0  0  0  0  0  0  0  0  0  # atno 6908 bound_to 6896
  152.5059  134.4033  159.9476 H   0  0  0  0  0  0  0  0  0  0  0  0  # atno 6909 bound_to 6896
  144.7423  140.3527  143.6112 H   0  0  0  0  0  0  0  0  0  0  0  0  # atno 7974 bound_to 7965
  154.9483  140.0401  157.2131 H   0  0  0  0  0  0  0  0  0  0  0  0  # atno 8008 bound_to 7997
  154.8002  140.2850  155.5905 H   0  0  0  0  0  0  0  0  0  0  0  0  # atno 8009 bound_to 7997
  156.2960  140.2556  156.2869 H   0  0  0  0  0  0  0  0  0  0  0  0  # atno 8010 bound_to 7997
  140.0148  143.5405  152.2247 H   0  0  0  0  0  0  0  0  0  0  0  0  # atno 10167 bound_to 10162
  157.3524  130.7605  149.6988 H   0  0  0  0  0  0  0  0  0  0  0  0  # atno 10718 bound_to 10713
  154.4806  135.2774  155.1573 H   0  0  0  0  0  0  0  0  0  0  0  0  # atno 10763 bound_to 10752
  154.3285  135.6195  153.5544 H   0  0  0  0  0  0  0  0  0  0  0  0  # atno 10764 bound_to 10752
  152.9875  135.5760  154.5206 H   0  0  0  0  0  0  0  0  0  0  0  0  # atno 10765 bound_to 10752
  140.2027  134.8326  157.3036 H   0  0  0  0  0  0  0  0  0  0  0  0  # atno 11005 bound_to 11000
  145.7259  139.1722  143.2458 LP  0  0  0  0  0  0  0  0  0  0  0  0  # atno 17320 bound_to 7965
  146.1242  140.7269  142.9443 LP  0  0  0  0  0  0  0  0  0  0  0  0  # atno 17321 bound_to 7965
  139.6180  144.7623  151.2803 LP  0  0  0  0  0  0  0  0  0  0  0  0  # atno 17342 bound_to 10162
  140.7367  143.6700  150.8090 LP  0  0  0  0  0  0  0  0  0  0  0  0  # atno 17343 bound_to 10162
  155.9723  130.4137  150.4094 LP  0  0  0  0  0  0  0  0  0  0  0  0  # atno 17370 bound_to 10713
  157.2159  131.0471  151.2573 LP  0  0  0  0  0  0  0  0  0  0  0  0  # atno 17371 bound_to 10713
  140.2036  134.4224  155.7649 LP  0  0  0  0  0  0  0  0  0  0  0  0  # atno 17394 bound_to 11000
  141.2227  133.7084  156.8224 LP  0  0  0  0  0  0  0  0  0  0  0  0  # atno 17395 bound_to 11000

$$$$
