AV-unprocessed.smi:1404|AV-procd|sdf|5705|dock3
  -GOLD-   22720 5333D 1   1.00000     0.00000
 Structure written by MMmdl.
 47 48  0  0  0  0  0  0  0  0  1 V2000
  145.8447  132.1694  152.8573 C   0  0  0  0  0  0  0  0  0  0  0  0
  145.4513  133.2237  151.9461 N   0  0  0  0  0  0  0  0  0  0  0  0
  144.5783  132.9211  150.8729 C   0  0  0  0  0  0  0  0  0  0  0  0
  144.1321  131.7903  150.6766 O   0  0  0  0  0  0  0  0  0  0  0  0
  144.2511  134.0599  150.0233 C   0  0  0  0  0  0  0  0  0  0  0  0
  144.7591  135.2855  150.2777 C   0  0  0  0  0  0  0  0  0  0  0  0
  145.6073  135.5543  151.3364 N   0  0  0  0  0  0  0  0  0  0  0  0
  146.1178  136.9167  151.5350 C   0  0  0  0  0  0  0  0  0  0  0  0
  145.9196  137.4245  152.9690 C   0  0  0  0  0  0  0  0  0  0  0  0
  144.7900  137.5296  153.4490 O   0  0  0  0  0  0  0  0  0  0  0  0
  147.0356  137.7199  153.6480 N   0  0  0  0  0  0  0  0  0  0  0  0
  147.0646  138.2429  155.0101 C   0  0  0  0  0  0  0  0  0  0  0  0
  147.8761  139.5656  155.1149 C   0  0  0  0  0  0  0  0  0  0  0  0
  147.5318  140.4109  153.8652 C   0  0  0  0  0  0  0  0  0  0  0  0
  147.3214  140.3205  156.3496 C   0  0  0  0  0  0  0  0  0  0  0  0
  149.3364  139.3056  155.2608 N   0  0  0  0  0  0  0  0  0  0  0  0
  149.9796  138.7107  154.0831 C   0  0  0  0  0  0  0  0  0  0  0  0
  151.4534  138.3572  154.3451 C   0  0  0  0  0  0  0  0  0  0  0  0
  152.1576  139.5195  154.7653 O   0  0  0  0  0  0  0  0  0  0  0  0
  151.6023  140.0939  155.9419 C   0  0  0  0  0  0  0  0  0  0  0  0
  150.1292  140.4614  155.6950 C   0  0  0  0  0  0  0  0  0  0  0  0
  145.9770  134.5078  152.2082 C   0  0  0  0  0  0  0  0  0  0  0  0
  146.7322  134.7181  153.1613 O   0  0  0  0  0  0  0  0  0  0  0  0
  145.4341  131.2070  152.5542 H   0  0  0  0  0  0  0  0  0  0  0  0
  145.4686  132.4418  153.8451 H   0  0  0  0  0  0  0  0  0  0  0  0
  146.9351  132.1204  152.8463 H   0  0  0  0  0  0  0  0  0  0  0  0
  143.5929  133.9188  149.1786 H   0  0  0  0  0  0  0  0  0  0  0  0
  144.4882  136.0952  149.6158 H   0  0  0  0  0  0  0  0  0  0  0  0
  147.1837  136.9538  151.3066 H   0  0  0  0  0  0  0  0  0  0  0  0
  145.6407  137.5991  150.8290 H   0  0  0  0  0  0  0  0  0  0  0  0
  147.9249  137.6079  153.1829 H   0  0  0  0  0  0  0  0  0  0  0  0
  146.0456  138.3849  155.3729 H   0  0  0  0  0  0  0  0  0  0  0  0
  147.4949  137.4784  155.6591 H   0  0  0  0  0  0  0  0  0  0  0  0
  146.4567  140.5810  153.7933 H   0  0  0  0  0  0  0  0  0  0  0  0
  147.8340  139.9192  152.9407 H   0  0  0  0  0  0  0  0  0  0  0  0
  148.0028  141.3933  153.8881 H   0  0  0  0  0  0  0  0  0  0  0  0
  146.2317  140.3631  156.3367 H   0  0  0  0  0  0  0  0  0  0  0  0
  147.6638  141.3543  156.3906 H   0  0  0  0  0  0  0  0  0  0  0  0
  147.6164  139.8386  157.2826 H   0  0  0  0  0  0  0  0  0  0  0  0
  149.4715  137.7964  153.7821 H   0  0  0  0  0  0  0  0  0  0  0  0
  149.9273  139.3963  153.2373 H   0  0  0  0  0  0  0  0  0  0  0  0
  151.5346  137.5778  155.1048 H   0  0  0  0  0  0  0  0  0  0  0  0
  151.9165  137.9692  153.4378 H   0  0  0  0  0  0  0  0  0  0  0  0
  151.6918  139.3946  156.7748 H   0  0  0  0  0  0  0  0  0  0  0  0
  152.1742  140.9830  156.2075 H   0  0  0  0  0  0  0  0  0  0  0  0
  150.0868  141.2512  154.9449 H   0  0  0  0  0  0  0  0  0  0  0  0
  149.7337  140.8797  156.6186 H   0  0  0  0  0  0  0  0  0  0  0  0
  1  2  1  0  0  0  0
  1 24  1  0  0  0  0
  1 25  1  0  0  0  0
  1 26  1  0  0  0  0
  2 22  1  0  0  0  0
  2  3  1  0  0  0  0
  3  4  2  0  0  0  0
  3  5  1  0  0  0  0
  5  6  2  0  0  0  0
  5 27  1  0  0  0  0
  6  7  1  0  0  0  0
  6 28  1  0  0  0  0
  7  8  1  0  0  0  0
  7 22  1  0  0  0  0
  8  9  1  0  0  0  0
  8 29  1  0  0  0  0
  8 30  1  0  0  0  0
  9 10  2  0  0  0  0
  9 11  1  0  0  0  0
 11 12  1  0  0  0  0
 11 31  1  0  0  0  0
 12 13  1  0  0  0  0
 12 32  1  0  0  0  0
 12 33  1  0  0  0  0
 13 14  1  0  0  0  0
 13 15  1  0  0  0  0
 13 16  1  0  0  0  0
 14 34  1  0  0  0  0
 14 35  1  0  0  0  0
 14 36  1  0  0  0  0
 15 37  1  0  0  0  0
 15 38  1  0  0  0  0
 15 39  1  0  0  0  0
 16 21  1  0  0  0  0
 16 17  1  0  0  0  0
 17 18  1  0  0  0  0
 17 40  1  0  0  0  0
 17 41  1  0  0  0  0
 18 19  1  0  0  0  0
 18 42  1  0  0  0  0
 18 43  1  0  0  0  0
 19 20  1  0  0  0  0
 20 21  1  0  0  0  0
 20 44  1  0  0  0  0
 20 45  1  0  0  0  0
 21 46  1  0  0  0  0
 21 47  1  0  0  0  0
 22 23  2  0  0  0  0
M  END
> <s_m_source_file>
AV-unprocessed.smi

> <i_m_source_file_index>
1404

> <i_lp_mmshare_version>
43012

> <i_f3d_flags>
0

> <s_epik_input>
W0NIM11uMWMoPU8pW2NIXVtjSF1uKGMxPU8pW0NIMl1DKD1PKVtOSF1bQ0gyXUMoW0NIM10pKFtDSDNdKU4yW0NIMl1bQ0gyXU9bQ0gyXVtDSDJdMg==

> <s_epik_cmdline>
J2VwaWtfcHl0aG9uJywgJy1waCcsICc3LjAnLCAnLXRuJywgJzgnLCAnLW1hJywgJzIwMCcsICctbWV0YWxfYmluZGluZycsICctaW1hZScsICc8aW5maWxlLm1hZT4nLCAnLW9tYWUnLCAnPG91dGZpbGUubWFlPic=

> <r_lp_tautomer_probability>
1

> <r_epik_Ionization_Penalty>
0.237382

> <r_epik_Ionization_Penalty_Charging>
1.16427e-08

> <r_epik_Ionization_Penalty_Neutral>
0.237382

> <r_epik_State_Penalty>
0.228245

> <r_epik_Charging_Adjusted_Penalty>
0.228245

> <i_epik_Tot_Q>
0

> <i_epik_Tot_abs_Q>
0

> <r_epik_Metal_State_Penalty>
0.22822

> <b_epik_Metal_Only>
0

> <s_lp_Force_Field>
OPLS_2005

> <r_lp_Energy>
49.615

> <b_lp_Chiralities_Consistent>
1

> <s_lp_Variant>
AV-unprocessed.smi:1404-1

> <Gold.Version>
5.8.1

> <Gold.Id.Protein>
6NUR|6NUR_protein|mol2

> <Gold.PLP.Fitness>
37.3205

> <Gold.PLP.PLP>
-31.3577

> <Gold.PLP.part.hbond>
-2.0000

> <Gold.PLP.part.metal>
0.0000

> <Gold.PLP.part.buried>
-1.9948

> <Gold.PLP.part.nonpolar>
-28.7577

> <Gold.PLP.part.repulsive>
1.5099

> <Gold.PLP.ligand.clash>
0.1821

> <Gold.PLP.ligand.torsion>
0.6249

> <Gold.PLP.Chemscore.Hbond>
1.3998

> <Gold.PLP.Chemscore.CHOScore>
1.0262

> <Gold.PLP.Chemscore.Metal>
0.0000

> <Gold.Chemscore.Hbonds>
donor molecule, donor type, donor heavy atom, donor atom, acceptor molecule, acceptor atom, score
      L1  H    11    31       P1  7948  0.56
      P1  H  7989  7998       L1    19  0.83
      L1  C     6    28       P1  7921  0.03
      L1  C     6    28       P1 10171  0.96

> <Gold.PLP.Chemscore.Internal.Correction>
0.1166

> <Gold.Rescore>
     Score         DG    S(hbond)    S(metal)    S(lipo)     H(rot)  DE(clash)    DE(int)     intcor
      7.37     -10.92       0.76        0.00      69.93       2.07       1.56       1.99       ----

> <Gold.Chemscore.Fitness>
7.3669

> <Gold.Chemscore.DG>
-10.9155

> <Gold.Chemscore.ZeroCoef>
-5.4800

> <Gold.Chemscore.Hbond>
0.7614

> <Gold.Chemscore.Metal>
0.0000

> <Gold.Chemscore.Lipo>
69.9334

> <Gold.Chemscore.Internal_Hbond>
0.0000

> <Gold.Chemscore.DEClash>
1.5631

> <Gold.Chemscore.DEInternal>
1.9855

> <Gold.Chemscore.Rot>
2.0664

> <Gold.Chemscore.Internal.Correction>
   9.000000E+99

> <Gold.Chemscore.Hbonds>
donor molecule, donor type, donor heavy atom, donor atom, acceptor molecule, acceptor atom, score
      L1  H    11    31       P1  7948  0.54
      P1  H  7989  7998       L1    19  0.10

> <Gold.Chemscore.Hbond.Weighted>
-2.5432

> <Gold.Chemscore.Metal.Weighted>
-0.0000

> <Gold.Chemscore.Lipo.Weighted>
-8.1822

> <Gold.Chemscore.Internal_Hbond.Weighted>
0.0000

> <Gold.Chemscore.DEClash.Weighted>
1.5631

> <Gold.Chemscore.DEInternal.Weighted>
1.9855

> <Gold.Chemscore.Rot.Weighted>
5.2899

> <Gold.Chemscore.Internal.Correction.Weighted>
   9.000000E+99

> <Gold.Protein.RotatedTorsions>
[ 6907 6896 6895 6894 ] final  -85.25 input  -60.11 | X-H torsion
[ 7974 7965 7964 7962 ] final   98.80 input  175.53 | X-H torsion
[ 8008 7997 7996 7995 ] final   75.57 input   59.86 | X-H torsion
[ 10167 10162 10161 10158 ] final  -11.04 input  -65.29 | X-H torsion
[ 10718 10713 10712 10709 ] final  150.13 input   66.30 | X-H torsion
[ 10763 10752 10751 10750 ] final  101.72 input  -60.55 | X-H torsion
[ 11005 11000 10999 10996 ] final  -68.56 input  -57.11 | X-H torsion

> <Gold.Protein.ActiveResidues>
 VAL166  LYS551  ARG553  GLY616  TRP617  ASP618  TYR619  PRO620  LYS621  CYS622 
 ASP623  PHE694  ASN695  SER759  ASP760  ASP761  ALA762  ILE779  LEU786  VAL792 
 PHE793  MET794  SER795  GLU796  ALA797  LYS798  CYS799  TRP800  GLU811  SER814 

> <Gold.Protein.RotatedAtoms>
  150.6871  134.3233  159.4795 H   0  0  0  0  0  0  0  0  0  0  0  0  # atno 6907 bound_to 6896
  152.1106  134.9274  160.0576 H   0  0  0  0  0  0  0  0  0  0  0  0  # atno 6908 bound_to 6896
  152.0518  133.3988  159.4417 H   0  0  0  0  0  0  0  0  0  0  0  0  # atno 6909 bound_to 6896
  145.4074  139.2338  143.3267 H   0  0  0  0  0  0  0  0  0  0  0  0  # atno 7974 bound_to 7965
  155.8148  140.3472  155.5479 H   0  0  0  0  0  0  0  0  0  0  0  0  # atno 8008 bound_to 7997
  155.8403  140.0940  157.1758 H   0  0  0  0  0  0  0  0  0  0  0  0  # atno 8009 bound_to 7997
  154.4005  140.1395  156.3708 H   0  0  0  0  0  0  0  0  0  0  0  0  # atno 8010 bound_to 7997
  140.7129  143.5682  150.9121 H   0  0  0  0  0  0  0  0  0  0  0  0  # atno 10167 bound_to 10162
  157.2874  131.0847  151.1487 H   0  0  0  0  0  0  0  0  0  0  0  0  # atno 10718 bound_to 10713
  153.3303  135.4035  155.1490 H   0  0  0  0  0  0  0  0  0  0  0  0  # atno 10763 bound_to 10752
  154.8621  135.3609  154.5479 H   0  0  0  0  0  0  0  0  0  0  0  0  # atno 10764 bound_to 10752
  153.5917  135.7073  153.5480 H   0  0  0  0  0  0  0  0  0  0  0  0  # atno 10765 bound_to 10752
  141.1534  133.6743  156.6464 H   0  0  0  0  0  0  0  0  0  0  0  0  # atno 11005 bound_to 11000
  146.2722  140.4780  142.8810 LP  0  0  0  0  0  0  0  0  0  0  0  0  # atno 17320 bound_to 7965
  144.8332  140.6740  143.6277 LP  0  0  0  0  0  0  0  0  0  0  0  0  # atno 17321 bound_to 7965
  139.9408  143.6384  152.3054 LP  0  0  0  0  0  0  0  0  0  0  0  0  # atno 17342 bound_to 10162
  139.6868  144.7651  151.1509 LP  0  0  0  0  0  0  0  0  0  0  0  0  # atno 17343 bound_to 10162
  157.2897  130.6790  149.6108 LP  0  0  0  0  0  0  0  0  0  0  0  0  # atno 17370 bound_to 10713
  155.9666  130.4424  150.5381 LP  0  0  0  0  0  0  0  0  0  0  0  0  # atno 17371 bound_to 10713
  140.3354  134.7894  157.4357 LP  0  0  0  0  0  0  0  0  0  0  0  0  # atno 17394 bound_to 11000
  140.0982  134.5508  155.8378 LP  0  0  0  0  0  0  0  0  0  0  0  0  # atno 17395 bound_to 11000

$$$$
