AV-unprocessed.smi:2774|AV-procd|sdf|10681|dock10
  -GOLD-   2272015123D 1   1.00000     0.00000
 Structure written by MMmdl.
 35 36  0  0  0  0  0  0  0  0  2 V2000
  149.5772  141.6588  154.8270 O   0  0  0  0  0  0  0  0  0  0  0  0
  150.7417  141.2226  155.5007 C   0  0  1  0  0  0  0  0  0  0  0  0
  150.6435  141.6393  156.9785 C   0  0  0  0  0  0  0  0  0  0  0  0
  150.9819  143.0679  157.1595 N   0  3  0  0  0  0  0  0  0  0  0  0
  151.0862  143.5246  158.5633 C   0  0  2  0  0  0  0  0  0  0  0  0
  151.4733  145.0187  158.6367 C   0  0  0  0  0  0  0  0  0  0  0  0
  151.5423  145.5472  160.0793 C   0  0  0  0  0  0  0  0  0  0  0  0
  152.5866  144.8100  160.9286 C   0  0  0  0  0  0  0  0  0  0  0  0
  152.1835  143.0491  161.0717 S   0  0  0  0  0  0  0  0  0  0  0  0
  152.1112  142.6475  159.3048 C   0  0  0  0  0  0  0  0  0  0  0  0
  150.9410  139.7211  155.3649 C   0  0  0  0  0  0  0  0  0  0  0  0
  150.1015  138.9613  154.5232 C   0  0  0  0  0  0  0  0  0  0  0  0
  150.3255  137.5734  154.4230 C   0  0  0  0  0  0  0  0  0  0  0  0
  151.3065  136.9305  155.0915 N   0  0  0  0  0  0  0  0  0  0  0  0
  152.1084  137.6619  155.8943 C   0  0  0  0  0  0  0  0  0  0  0  0
  151.9702  139.0541  156.0644 C   0  0  0  0  0  0  0  0  0  0  0  0
  149.2353  140.9366  154.3212 H   0  0  0  0  0  0  0  0  0  0  0  0
  151.5926  141.7266  155.0397 H   0  0  0  0  0  0  0  0  0  0  0  0
  149.6419  141.4358  157.3575 H   0  0  0  0  0  0  0  0  0  0  0  0
  151.3368  141.0413  157.5717 H   0  0  0  0  0  0  0  0  0  0  0  0
  151.8791  143.2189  156.7211 H   0  0  0  0  0  0  0  0  0  0  0  0
  150.1140  143.3799  159.0376 H   0  0  0  0  0  0  0  0  0  0  0  0
  152.4341  145.1766  158.1449 H   0  0  0  0  0  0  0  0  0  0  0  0
  150.7502  145.6238  158.0902 H   0  0  0  0  0  0  0  0  0  0  0  0
  151.7830  146.6106  160.0604 H   0  0  0  0  0  0  0  0  0  0  0  0
  150.5615  145.4662  160.5497 H   0  0  0  0  0  0  0  0  0  0  0  0
  153.5792  144.9147  160.4892 H   0  0  0  0  0  0  0  0  0  0  0  0
  152.6324  145.2404  161.9293 H   0  0  0  0  0  0  0  0  0  0  0  0
  151.8496  141.5931  159.2090 H   0  0  0  0  0  0  0  0  0  0  0  0
  153.1059  142.7696  158.8740 H   0  0  0  0  0  0  0  0  0  0  0  0
  149.3020  139.4254  153.9644 H   0  0  0  0  0  0  0  0  0  0  0  0
  149.7002  136.9640  153.7874 H   0  0  0  0  0  0  0  0  0  0  0  0
  152.8849  137.1221  156.4159 H   0  0  0  0  0  0  0  0  0  0  0  0
  152.6418  139.5921  156.7176 H   0  0  0  0  0  0  0  0  0  0  0  0
  150.2947  143.6322  156.6801 H   0  0  0  0  0  0  0  0  0  0  0  0
  1  2  1  0  0  0  0
  1 17  1  0  0  0  0
  2  3  1  0  0  0  0
  2 11  1  0  0  0  0
  2 18  1  0  0  0  0
  3  4  1  0  0  0  0
  3 19  1  0  0  0  0
  3 20  1  0  0  0  0
  4  5  1  0  0  0  0
  4 21  1  0  0  0  0
  4 35  1  0  0  0  0
  5 10  1  0  0  0  0
  5  6  1  0  0  0  0
  5 22  1  0  0  0  0
  6  7  1  0  0  0  0
  6 23  1  0  0  0  0
  6 24  1  0  0  0  0
  7  8  1  0  0  0  0
  7 25  1  0  0  0  0
  7 26  1  0  0  0  0
  8  9  1  0  0  0  0
  8 27  1  0  0  0  0
  8 28  1  0  0  0  0
  9 10  1  0  0  0  0
 10 29  1  0  0  0  0
 10 30  1  0  0  0  0
 11 16  1  0  0  0  0
 11 12  2  0  0  0  0
 12 13  1  0  0  0  0
 12 31  1  0  0  0  0
 13 14  2  0  0  0  0
 13 32  1  0  0  0  0
 14 15  1  0  0  0  0
 15 16  2  0  0  0  0
 15 33  1  0  0  0  0
 16 34  1  0  0  0  0
M  CHG  1   4   1
M  END
> <s_m_source_file>
AV-unprocessed.smi

> <i_m_source_file_index>
2774

> <i_lp_mmshare_version>
43012

> <i_f3d_flags>
0

> <s_epik_input>
W2NIXTFbY0hdbltjSF1bY0hdYzFbQ0BIXShbT0hdKVtDSDJdW05IXVtDQEBIXTJbQ0gyXVtDSDJdW0NIMl1TW0NIMl0y

> <s_epik_cmdline>
J2VwaWtfcHl0aG9uJywgJy1waCcsICc3LjAnLCAnLXRuJywgJzgnLCAnLW1hJywgJzIwMCcsICctbWV0YWxfYmluZGluZycsICctaW1hZScsICc8aW5maWxlLm1hZT4nLCAnLW9tYWUnLCAnPG91dGZpbGUubWFlPic=

> <r_epik_Ionization_Penalty>
0.0205977

> <r_epik_Ionization_Penalty_Charging>
0.0185619

> <r_epik_Ionization_Penalty_Neutral>
0.00203589

> <r_epik_State_Penalty>
0.0147768

> <r_epik_Charging_Adjusted_Penalty>
0.0333386

> <i_epik_Tot_Q>
1

> <i_epik_Tot_abs_Q>
1

> <r_epik_Metal_State_Penalty>
0.0152254

> <b_epik_Metal_Only>
0

> <s_lp_Force_Field>
OPLS_2005

> <r_lp_Energy>
10.436

> <b_lp_Chiralities_Consistent>
1

> <s_lp_Variant>
AV-unprocessed.smi:2774-2

> <Gold.Version>
5.8.1

> <Gold.Id.Protein>
6NUR|6NUR_protein|mol2

> <Gold.PLP.Fitness>
47.5276

> <Gold.PLP.PLP>
-35.9711

> <Gold.PLP.part.hbond>
-2.4848

> <Gold.PLP.part.metal>
0.0000

> <Gold.PLP.part.buried>
-3.1810

> <Gold.PLP.part.nonpolar>
-29.9375

> <Gold.PLP.part.repulsive>
0.1162

> <Gold.PLP.ligand.clash>
0.0000

> <Gold.PLP.ligand.torsion>
0.3183

> <Gold.PLP.Chemscore.Hbond>
3.0000

> <Gold.PLP.Chemscore.CHOScore>
1.0555

> <Gold.PLP.Chemscore.Metal>
0.0000

> <Gold.Chemscore.Hbonds>
donor molecule, donor type, donor heavy atom, donor atom, acceptor molecule, acceptor atom, score
      L1  H     4    35       P1  8028  1.95
      P1  H 10752 10764       L1    14  0.40
      L1  C    13    32       P1  7948  1.00

> <Gold.PLP.Chemscore.Internal.Correction>
0.0266

> <Gold.Rescore>
     Score         DG    S(hbond)    S(metal)    S(lipo)     H(rot)  DE(clash)    DE(int)     intcor
     18.72     -20.16       1.80        0.00     117.27       1.97       1.07       0.37       ----

> <Gold.Chemscore.Fitness>
18.7204

> <Gold.Chemscore.DG>
-20.1615

> <Gold.Chemscore.ZeroCoef>
-5.4800

> <Gold.Chemscore.Hbond>
1.7965

> <Gold.Chemscore.Metal>
0.0000

> <Gold.Chemscore.Lipo>
117.2709

> <Gold.Chemscore.Internal_Hbond>
0.0000

> <Gold.Chemscore.DEClash>
1.0722

> <Gold.Chemscore.DEInternal>
0.3689

> <Gold.Chemscore.Rot>
1.9686

> <Gold.Chemscore.Internal.Correction>
   9.000000E+99

> <Gold.Chemscore.Hbonds>
donor molecule, donor type, donor heavy atom, donor atom, acceptor molecule, acceptor atom, score
      L1  H     4    35       P1  8028  0.91
      P1  H 10752 10764       L1    14  0.03

> <Gold.Chemscore.Hbond.Weighted>
-6.0004

> <Gold.Chemscore.Metal.Weighted>
-0.0000

> <Gold.Chemscore.Lipo.Weighted>
-13.7207

> <Gold.Chemscore.Internal_Hbond.Weighted>
0.0000

> <Gold.Chemscore.DEClash.Weighted>
1.0722

> <Gold.Chemscore.DEInternal.Weighted>
0.3689

> <Gold.Chemscore.Rot.Weighted>
5.0396

> <Gold.Chemscore.Internal.Correction.Weighted>
   9.000000E+99

> <Gold.Protein.RotatedTorsions>
[ 6907 6896 6895 6894 ] final  -97.13 input  -60.11 | X-H torsion
[ 7974 7965 7964 7962 ] final   52.20 input  175.53 | X-H torsion
[ 8008 7997 7996 7995 ] final  111.70 input   59.86 | X-H torsion
[ 10167 10162 10161 10158 ] final -129.01 input  -65.29 | X-H torsion
[ 10718 10713 10712 10709 ] final  173.62 input   66.30 | X-H torsion
[ 10763 10752 10751 10750 ] final  -64.20 input  -60.55 | X-H torsion
[ 11005 11000 10999 10996 ] final  -75.29 input  -57.11 | X-H torsion

> <Gold.Protein.ActiveResidues>
 VAL166  LYS551  ARG553  GLY616  TRP617  ASP618  TYR619  PRO620  LYS621  CYS622 
 ASP623  PHE694  ASN695  SER759  ASP760  ASP761  ALA762  ILE779  LEU786  VAL792 
 PHE793  MET794  SER795  GLU796  ALA797  LYS798  CYS799  TRP800  GLU811  SER814 

> <Gold.Protein.RotatedAtoms>
  150.7007  134.1397  159.4099 H   0  0  0  0  0  0  0  0  0  0  0  0  # atno 6907 bound_to 6896
  151.9381  135.0223  160.0543 H   0  0  0  0  0  0  0  0  0  0  0  0  # atno 6908 bound_to 6896
  152.2117  133.4881  159.5150 H   0  0  0  0  0  0  0  0  0  0  0  0  # atno 6909 bound_to 6896
  145.9837  139.4268  143.0116 H   0  0  0  0  0  0  0  0  0  0  0  0  # atno 7974 bound_to 7965
  156.2142  140.3014  155.9801 H   0  0  0  0  0  0  0  0  0  0  0  0  # atno 8008 bound_to 7997
  155.2648  140.0431  157.3018 H   0  0  0  0  0  0  0  0  0  0  0  0  # atno 8009 bound_to 7997
  154.5743  140.2357  155.8154 H   0  0  0  0  0  0  0  0  0  0  0  0  # atno 8010 bound_to 7997
  139.9443  143.6127  152.2494 H   0  0  0  0  0  0  0  0  0  0  0  0  # atno 10167 bound_to 10162
  156.9616  131.0062  151.2926 H   0  0  0  0  0  0  0  0  0  0  0  0  # atno 10718 bound_to 10713
  154.3265  135.6185  153.5532 H   0  0  0  0  0  0  0  0  0  0  0  0  # atno 10763 bound_to 10752
  152.9815  135.5736  154.5010 H   0  0  0  0  0  0  0  0  0  0  0  0  # atno 10764 bound_to 10752
  154.4688  135.2858  155.1635 H   0  0  0  0  0  0  0  0  0  0  0  0  # atno 10765 bound_to 10752
  141.1644  133.6941  156.7495 H   0  0  0  0  0  0  0  0  0  0  0  0  # atno 11005 bound_to 11000
  145.7732  140.9888  143.1138 LP  0  0  0  0  0  0  0  0  0  0  0  0  # atno 17320 bound_to 7965
  144.6868  139.9473  143.7477 LP  0  0  0  0  0  0  0  0  0  0  0  0  # atno 17321 bound_to 7965
  139.6679  144.7662  151.1838 LP  0  0  0  0  0  0  0  0  0  0  0  0  # atno 17342 bound_to 10162
  140.7602  143.5909  150.8797 LP  0  0  0  0  0  0  0  0  0  0  0  0  # atno 17343 bound_to 10162
  157.5654  130.8274  149.8320 LP  0  0  0  0  0  0  0  0  0  0  0  0  # atno 17370 bound_to 10713
  156.0320  130.3762  150.1663 LP  0  0  0  0  0  0  0  0  0  0  0  0  # atno 17371 bound_to 10713
  140.2615  134.8463  157.3763 LP  0  0  0  0  0  0  0  0  0  0  0  0  # atno 17394 bound_to 11000
  140.1607  134.4732  155.7897 LP  0  0  0  0  0  0  0  0  0  0  0  0  # atno 17395 bound_to 11000

$$$$
