AV-unprocessed.smi:3293|AV-procd|sdf|12630|dock2
  -GOLD-   2272018563D 1   1.00000     0.00000
 Structure written by MMmdl.
 44 45  0  0  0  0  0  0  0  0  2 V2000
  152.0830  145.1076  158.7556 C   0  0  0  0  0  0  0  0  0  0  0  0
  152.2255  143.7082  159.3313 C   0  0  0  0  0  0  0  0  0  0  0  0
  152.4347  143.5478  160.6521 C   0  0  0  0  0  0  0  0  0  0  0  0
  152.6654  142.2135  161.3231 C   0  0  0  0  0  0  0  0  0  0  0  0
  153.1278  141.1628  160.3112 C   0  0  0  0  0  0  0  0  0  0  0  0
  152.2147  141.1342  159.0745 C   0  0  2  0  0  0  0  0  0  0  0  0
  152.6646  139.9997  158.1335 C   0  0  0  0  0  0  0  0  0  0  0  0
  152.1469  142.5167  158.3543 C   0  0  1  0  0  0  0  0  0  0  0  0
  150.8996  142.5760  157.4328 C   0  0  0  0  0  0  0  0  0  0  0  0
  151.0290  141.7250  156.2318 N   0  3  0  0  0  0  0  0  0  0  0  0
  149.7492  141.1837  155.7363 C   0  0  0  0  0  0  0  0  0  0  0  0
  149.9101  140.5855  154.3328 C   0  0  0  0  0  0  0  0  0  0  0  0
  150.5458  139.2247  154.3851 C   0  0  0  0  0  0  0  0  0  0  0  0
  151.9343  138.9079  154.3814 C   0  0  0  0  0  0  0  0  0  0  0  0
  152.1650  137.6064  154.4307 N   0  0  0  0  0  0  0  0  0  0  0  0
  150.9378  137.0482  154.4707 N   0  0  0  0  0  0  0  0  0  0  0  0
  150.8110  135.6079  154.5325 C   0  0  0  0  0  0  0  0  0  0  0  0
  149.9414  138.0002  154.4449 C   0  0  0  0  0  0  0  0  0  0  0  0
  152.7572  145.2439  157.9096 H   0  0  0  0  0  0  0  0  0  0  0  0
  152.3291  145.8679  159.4977 H   0  0  0  0  0  0  0  0  0  0  0  0
  151.0596  145.2928  158.4297 H   0  0  0  0  0  0  0  0  0  0  0  0
  152.4600  144.4100  161.3028 H   0  0  0  0  0  0  0  0  0  0  0  0
  153.4185  142.3304  162.1029 H   0  0  0  0  0  0  0  0  0  0  0  0
  151.7416  141.9029  161.8124 H   0  0  0  0  0  0  0  0  0  0  0  0
  154.1519  141.3794  160.0036 H   0  0  0  0  0  0  0  0  0  0  0  0
  153.1512  140.1842  160.7925 H   0  0  0  0  0  0  0  0  0  0  0  0
  151.2124  140.8897  159.4304 H   0  0  0  0  0  0  0  0  0  0  0  0
  153.6603  140.1907  157.7322 H   0  0  0  0  0  0  0  0  0  0  0  0
  151.9892  139.8631  157.2906 H   0  0  0  0  0  0  0  0  0  0  0  0
  152.7029  139.0473  158.6632 H   0  0  0  0  0  0  0  0  0  0  0  0
  153.0375  142.5969  157.7289 H   0  0  0  0  0  0  0  0  0  0  0  0
  150.0070  142.2437  157.9604 H   0  0  0  0  0  0  0  0  0  0  0  0
  150.7104  143.6080  157.1331 H   0  0  0  0  0  0  0  0  0  0  0  0
  151.4506  142.2749  155.4966 H   0  0  0  0  0  0  0  0  0  0  0  0
  149.3905  140.4206  156.4285 H   0  0  0  0  0  0  0  0  0  0  0  0
  149.0054  141.9815  155.7196 H   0  0  0  0  0  0  0  0  0  0  0  0
  148.9336  140.5303  153.8498 H   0  0  0  0  0  0  0  0  0  0  0  0
  150.5071  141.2608  153.7187 H   0  0  0  0  0  0  0  0  0  0  0  0
  152.7774  139.5822  154.3423 H   0  0  0  0  0  0  0  0  0  0  0  0
  149.7584  135.3238  154.5248 H   0  0  0  0  0  0  0  0  0  0  0  0
  151.2718  135.2360  155.4482 H   0  0  0  0  0  0  0  0  0  0  0  0
  151.3060  135.1555  153.6729 H   0  0  0  0  0  0  0  0  0  0  0  0
  148.8956  137.7306  154.4702 H   0  0  0  0  0  0  0  0  0  0  0  0
  151.6427  140.9529  156.4499 H   0  0  0  0  0  0  0  0  0  0  0  0
  1  2  1  0  0  0  0
  1 19  1  0  0  0  0
  1 20  1  0  0  0  0
  1 21  1  0  0  0  0
  2  8  1  0  0  0  0
  2  3  2  0  0  0  0
  3  4  1  0  0  0  0
  3 22  1  0  0  0  0
  4  5  1  0  0  0  0
  4 23  1  0  0  0  0
  4 24  1  0  0  0  0
  5  6  1  0  0  0  0
  5 25  1  0  0  0  0
  5 26  1  0  0  0  0
  6  7  1  0  0  0  0
  6  8  1  0  0  0  0
  6 27  1  0  0  0  0
  7 28  1  0  0  0  0
  7 29  1  0  0  0  0
  7 30  1  0  0  0  0
  8  9  1  0  0  0  0
  8 31  1  0  0  0  0
  9 10  1  0  0  0  0
  9 32  1  0  0  0  0
  9 33  1  0  0  0  0
 10 11  1  0  0  0  0
 10 34  1  0  0  0  0
 10 44  1  0  0  0  0
 11 12  1  0  0  0  0
 11 35  1  0  0  0  0
 11 36  1  0  0  0  0
 12 13  1  0  0  0  0
 12 37  1  0  0  0  0
 12 38  1  0  0  0  0
 13 18  2  0  0  0  0
 13 14  1  0  0  0  0
 14 15  2  0  0  0  0
 14 39  1  0  0  0  0
 15 16  1  0  0  0  0
 16 17  1  0  0  0  0
 16 18  1  0  0  0  0
 17 40  1  0  0  0  0
 17 41  1  0  0  0  0
 17 42  1  0  0  0  0
 18 43  1  0  0  0  0
M  CHG  1  10   1
M  END
> <s_m_source_file>
AV-unprocessed.smi

> <i_m_source_file_index>
3293

> <i_lp_mmshare_version>
43012

> <i_f3d_flags>
0

> <s_epik_input>
W0NIM11DMT1bQ0hdW0NIMl1bQ0gyXVtDQEBIXShbQ0gzXSlbQ0BIXTFbQ0gyXVtOSF1bQ0gyXVtDSDJdYzJbY0hdbm4oW0NIM10pW2NIXTI=

> <s_epik_cmdline>
J2VwaWtfcHl0aG9uJywgJy1waCcsICc3LjAnLCAnLXRuJywgJzgnLCAnLW1hJywgJzIwMCcsICctbWV0YWxfYmluZGluZycsICctaW1hZScsICc8aW5maWxlLm1hZT4nLCAnLW9tYWUnLCAnPG91dGZpbGUubWFlPic=

> <r_lp_tautomer_probability>
1

> <r_epik_Ionization_Penalty>
0.000598621

> <r_epik_Ionization_Penalty_Charging>
0.000582095

> <r_epik_Ionization_Penalty_Neutral>
1.65262e-05

> <r_epik_State_Penalty>
-0

> <r_epik_Charging_Adjusted_Penalty>
0.000582095

> <i_epik_Tot_Q>
1

> <i_epik_Tot_abs_Q>
1

> <r_epik_Metal_State_Penalty>
-0

> <b_epik_Metal_Only>
0

> <s_lp_Force_Field>
OPLS_2005

> <r_lp_Energy>
11.6167

> <b_lp_Chiralities_Consistent>
1

> <s_lp_Variant>
AV-unprocessed.smi:3293-2

> <Gold.Version>
5.8.1

> <Gold.Id.Protein>
6NUR|6NUR_protein|mol2

> <Gold.PLP.Fitness>
45.8739

> <Gold.PLP.PLP>
-44.5986

> <Gold.PLP.part.hbond>
-1.0000

> <Gold.PLP.part.metal>
0.0000

> <Gold.PLP.part.buried>
-4.5182

> <Gold.PLP.part.nonpolar>
-39.8094

> <Gold.PLP.part.repulsive>
0.2322

> <Gold.PLP.ligand.clash>
0.0000

> <Gold.PLP.ligand.torsion>
0.7980

> <Gold.PLP.Chemscore.Hbond>
0.9280

> <Gold.PLP.Chemscore.CHOScore>
0.0000

> <Gold.PLP.Chemscore.Metal>
0.0000

> <Gold.Chemscore.Hbonds>
donor molecule, donor type, donor heavy atom, donor atom, acceptor molecule, acceptor atom, score
      P1  H 10752 10765       L1    15  0.26

> <Gold.PLP.Chemscore.Internal.Correction>
0.0873

> <Gold.Rescore>
     Score         DG    S(hbond)    S(metal)    S(lipo)     H(rot)  DE(clash)    DE(int)     intcor
     19.03     -20.06       0.99        0.00     128.93       1.48       0.22       0.81       ----

> <Gold.Chemscore.Fitness>
19.0254

> <Gold.Chemscore.DG>
-20.0565

> <Gold.Chemscore.ZeroCoef>
-5.4800

> <Gold.Chemscore.Hbond>
0.9859

> <Gold.Chemscore.Metal>
0.0000

> <Gold.Chemscore.Lipo>
128.9273

> <Gold.Chemscore.Internal_Hbond>
0.0000

> <Gold.Chemscore.DEClash>
0.2168

> <Gold.Chemscore.DEInternal>
0.8143

> <Gold.Chemscore.Rot>
1.4847

> <Gold.Chemscore.Internal.Correction>
   9.000000E+99

> <Gold.Chemscore.Hbonds>
donor molecule, donor type, donor heavy atom, donor atom, acceptor molecule, acceptor atom, score
      P1  H 10752 10765       L1    15  0.01

> <Gold.Chemscore.Hbond.Weighted>
-3.2928

> <Gold.Chemscore.Metal.Weighted>
-0.0000

> <Gold.Chemscore.Lipo.Weighted>
-15.0845

> <Gold.Chemscore.Internal_Hbond.Weighted>
0.0000

> <Gold.Chemscore.DEClash.Weighted>
0.2168

> <Gold.Chemscore.DEInternal.Weighted>
0.8143

> <Gold.Chemscore.Rot.Weighted>
3.8008

> <Gold.Chemscore.Internal.Correction.Weighted>
   9.000000E+99

> <Gold.Protein.RotatedTorsions>
[ 6907 6896 6895 6894 ] final   83.72 input  -60.11 | X-H torsion
[ 7974 7965 7964 7962 ] final  177.00 input  175.53 | X-H torsion
[ 8008 7997 7996 7995 ] final   96.99 input   59.86 | X-H torsion
[ 10167 10162 10161 10158 ] final    0.14 input  -65.29 | X-H torsion
[ 10718 10713 10712 10709 ] final -136.92 input   66.30 | X-H torsion
[ 10763 10752 10751 10750 ] final  168.09 input  -60.55 | X-H torsion
[ 11005 11000 10999 10996 ] final  137.27 input  -57.11 | X-H torsion

> <Gold.Protein.ActiveResidues>
 VAL166  LYS551  ARG553  GLY616  TRP617  ASP618  TYR619  PRO620  LYS621  CYS622 
 ASP623  PHE694  ASN695  SER759  ASP760  ASP761  ALA762  ILE779  LEU786  VAL792 
 PHE793  MET794  SER795  GLU796  ALA797  LYS798  CYS799  TRP800  GLU811  SER814 

> <Gold.Protein.RotatedAtoms>
  152.5334  134.2852  159.9022 H   0  0  0  0  0  0  0  0  0  0  0  0  # atno 6907 bound_to 6896
  151.2806  133.4205  159.2634 H   0  0  0  0  0  0  0  0  0  0  0  0  # atno 6908 bound_to 6896
  151.0287  134.9539  159.8156 H   0  0  0  0  0  0  0  0  0  0  0  0  # atno 6909 bound_to 6896
  144.7175  140.0181  143.6440 H   0  0  0  0  0  0  0  0  0  0  0  0  # atno 7974 bound_to 7965
  156.0855  140.3265  155.7748 H   0  0  0  0  0  0  0  0  0  0  0  0  # atno 8008 bound_to 7997
  155.5083  140.0575  157.2945 H   0  0  0  0  0  0  0  0  0  0  0  0  # atno 8009 bound_to 7997
  154.4606  140.1965  156.0271 H   0  0  0  0  0  0  0  0  0  0  0  0  # atno 8010 bound_to 7997
  140.6742  143.6963  150.7987 H   0  0  0  0  0  0  0  0  0  0  0  0  # atno 10167 bound_to 10162
  156.2824  130.7328  151.1329 H   0  0  0  0  0  0  0  0  0  0  0  0  # atno 10718 bound_to 10713
  154.3635  135.2753  155.2306 H   0  0  0  0  0  0  0  0  0  0  0  0  # atno 10763 bound_to 10752
  154.4484  135.5937  153.6179 H   0  0  0  0  0  0  0  0  0  0  0  0  # atno 10764 bound_to 10752
  152.9842  135.6036  154.3858 H   0  0  0  0  0  0  0  0  0  0  0  0  # atno 10765 bound_to 10752
  140.0103  134.9442  157.0263 H   0  0  0  0  0  0  0  0  0  0  0  0  # atno 11005 bound_to 11000
  146.0203  139.3245  143.0817 LP  0  0  0  0  0  0  0  0  0  0  0  0  # atno 17320 bound_to 7965
  145.8576  140.9494  143.0717 LP  0  0  0  0  0  0  0  0  0  0  0  0  # atno 17321 bound_to 7965
  140.0654  143.5114  152.2607 LP  0  0  0  0  0  0  0  0  0  0  0  0  # atno 17342 bound_to 10162
  139.6025  144.7587  151.3138 LP  0  0  0  0  0  0  0  0  0  0  0  0  # atno 17343 bound_to 10162
  157.7318  131.0605  150.5658 LP  0  0  0  0  0  0  0  0  0  0  0  0  # atno 17370 bound_to 10713
  156.5766  130.4293  149.5996 LP  0  0  0  0  0  0  0  0  0  0  0  0  # atno 17371 bound_to 10713
  140.4567  134.1526  155.7187 LP  0  0  0  0  0  0  0  0  0  0  0  0  # atno 17394 bound_to 11000
  141.1706  133.8616  157.1582 LP  0  0  0  0  0  0  0  0  0  0  0  0  # atno 17395 bound_to 11000

$$$$
