AV-unprocessed.smi:1840|AV-procd|sdf|7495|dock5
  -GOLD-   22720 9193D 1   1.00000     0.00000
 Structure written by MMmdl.
 43 44  0  0  0  0  0  0  0  0  1 V2000
  149.9217  136.6049  155.8692 C   0  0  0  0  0  0  0  0  0  0  0  0
  151.0623  137.6044  155.6346 C   0  0  1  0  0  0  0  0  0  0  0  0
  150.8835  138.3600  154.3001 C   0  0  0  0  0  0  0  0  0  0  0  0
  149.9735  139.4873  154.4121 N   0  0  0  0  0  0  0  0  0  0  0  0
  148.6027  139.4992  154.2626 C   0  0  0  0  0  0  0  0  0  0  0  0
  148.1867  140.7884  154.4335 C   0  0  0  0  0  0  0  0  0  0  0  0
  149.3912  141.5014  154.6896 C   0  0  0  0  0  0  0  0  0  0  0  0
  150.4585  140.7195  154.6816 N   0  0  0  0  0  0  0  0  0  0  0  0
  151.1175  138.5392  156.7583 N   0  0  0  0  0  0  0  0  0  0  0  0
  151.8713  139.6474  156.8104 C   0  0  0  0  0  0  0  0  0  0  0  0
  152.6644  139.9864  155.9315 O   0  0  0  0  0  0  0  0  0  0  0  0
  151.6334  140.3586  157.9208 N   0  0  0  0  0  0  0  0  0  0  0  0
  152.2426  141.6484  158.2382 C   0  0  1  0  0  0  0  0  0  0  0  0
  151.2960  142.7904  157.8088 C   0  0  0  0  0  0  0  0  0  0  0  0
  151.8678  144.1675  158.1739 C   0  0  0  0  0  0  0  0  0  0  0  0
  152.1801  144.2526  159.6739 C   0  0  0  0  0  0  0  0  0  0  0  0
  153.1344  143.1278  160.1026 C   0  0  0  0  0  0  0  0  0  0  0  0
  152.5774  141.7337  159.7483 C   0  0  2  0  0  0  0  0  0  0  0  0
  153.5541  140.6319  160.1980 C   0  0  0  0  0  0  0  0  0  0  0  0
  149.8721  135.8718  155.0636 H   0  0  0  0  0  0  0  0  0  0  0  0
  148.9553  137.1079  155.9206 H   0  0  0  0  0  0  0  0  0  0  0  0
  150.0636  136.0584  156.8023 H   0  0  0  0  0  0  0  0  0  0  0  0
  151.9885  137.0287  155.5863 H   0  0  0  0  0  0  0  0  0  0  0  0
  151.8454  138.7434  153.9572 H   0  0  0  0  0  0  0  0  0  0  0  0
  150.5240  137.6844  153.5218 H   0  0  0  0  0  0  0  0  0  0  0  0
  148.0457  138.6009  154.0410 H   0  0  0  0  0  0  0  0  0  0  0  0
  147.1763  141.1657  154.3800 H   0  0  0  0  0  0  0  0  0  0  0  0
  149.5209  142.5566  154.8802 H   0  0  0  0  0  0  0  0  0  0  0  0
  150.4960  138.3536  157.5320 H   0  0  0  0  0  0  0  0  0  0  0  0
  150.9600  139.9994  158.5813 H   0  0  0  0  0  0  0  0  0  0  0  0
  153.1766  141.7445  157.6804 H   0  0  0  0  0  0  0  0  0  0  0  0
  151.1153  142.7477  156.7340 H   0  0  0  0  0  0  0  0  0  0  0  0
  150.3240  142.6641  158.2878 H   0  0  0  0  0  0  0  0  0  0  0  0
  152.7764  144.3508  157.5990 H   0  0  0  0  0  0  0  0  0  0  0  0
  151.1613  144.9499  157.8952 H   0  0  0  0  0  0  0  0  0  0  0  0
  152.6200  145.2224  159.9075 H   0  0  0  0  0  0  0  0  0  0  0  0
  151.2539  144.1864  160.2461 H   0  0  0  0  0  0  0  0  0  0  0  0
  154.1022  143.2709  159.6198 H   0  0  0  0  0  0  0  0  0  0  0  0
  153.3140  143.1961  161.1761 H   0  0  0  0  0  0  0  0  0  0  0  0
  151.6509  141.5981  160.3089 H   0  0  0  0  0  0  0  0  0  0  0  0
  154.4915  140.6856  159.6437 H   0  0  0  0  0  0  0  0  0  0  0  0
  153.1361  139.6363  160.0487 H   0  0  0  0  0  0  0  0  0  0  0  0
  153.7900  140.7266  161.2582 H   0  0  0  0  0  0  0  0  0  0  0  0
  1  2  1  0  0  0  0
  1 20  1  0  0  0  0
  1 21  1  0  0  0  0
  1 22  1  0  0  0  0
  2  3  1  0  0  0  0
  2  9  1  0  0  0  0
  2 23  1  0  0  0  0
  3  4  1  0  0  0  0
  3 24  1  0  0  0  0
  3 25  1  0  0  0  0
  4  8  1  0  0  0  0
  4  5  1  0  0  0  0
  5  6  2  0  0  0  0
  5 26  1  0  0  0  0
  6  7  1  0  0  0  0
  6 27  1  0  0  0  0
  7  8  2  0  0  0  0
  7 28  1  0  0  0  0
  9 10  1  0  0  0  0
  9 29  1  0  0  0  0
 10 11  2  0  0  0  0
 10 12  1  0  0  0  0
 12 13  1  0  0  0  0
 12 30  1  0  0  0  0
 13 18  1  0  0  0  0
 13 14  1  0  0  0  0
 13 31  1  0  0  0  0
 14 15  1  0  0  0  0
 14 32  1  0  0  0  0
 14 33  1  0  0  0  0
 15 16  1  0  0  0  0
 15 34  1  0  0  0  0
 15 35  1  0  0  0  0
 16 17  1  0  0  0  0
 16 36  1  0  0  0  0
 16 37  1  0  0  0  0
 17 18  1  0  0  0  0
 17 38  1  0  0  0  0
 17 39  1  0  0  0  0
 18 19  1  0  0  0  0
 18 40  1  0  0  0  0
 19 41  1  0  0  0  0
 19 42  1  0  0  0  0
 19 43  1  0  0  0  0
M  END
> <s_m_source_file>
AV-unprocessed.smi

> <i_m_source_file_index>
1840

> <i_lp_mmshare_version>
43012

> <i_f3d_flags>
0

> <s_epik_input>
bjFbY0hdW2NIXVtjSF1uMVtDSDJdW0NAQEhdKFtDSDNdKVtOSF1DKD1PKVtOSF1bQ0BASF0yW0NIMl1bQ0gyXVtDSDJdW0NIMl1bQ0BIXTJbQ0gzXQ==

> <s_epik_cmdline>
J2VwaWtfcHl0aG9uJywgJy1waCcsICc3LjAnLCAnLXRuJywgJzgnLCAnLW1hJywgJzIwMCcsICctbWV0YWxfYmluZGluZycsICctaW1hZScsICc8aW5maWxlLm1hZT4nLCAnLW9tYWUnLCAnPG91dGZpbGUubWFlPic=

> <r_lp_tautomer_probability>
1

> <r_epik_Ionization_Penalty>
7.38659e-05

> <r_epik_Ionization_Penalty_Charging>
0

> <r_epik_Ionization_Penalty_Neutral>
7.38659e-05

> <r_epik_State_Penalty>
-0

> <r_epik_Charging_Adjusted_Penalty>
0

> <i_epik_Tot_Q>
0

> <i_epik_Tot_abs_Q>
0

> <r_epik_Metal_State_Penalty>
-0

> <b_epik_Metal_Only>
0

> <s_lp_Force_Field>
OPLS_2005

> <r_lp_Energy>
7.84096

> <b_lp_Chiralities_Consistent>
1

> <s_lp_Variant>
AV-unprocessed.smi:1840-8

> <Gold.Version>
5.8.1

> <Gold.Id.Protein>
6NUR|6NUR_protein|mol2

> <Gold.PLP.Fitness>
47.4192

> <Gold.PLP.PLP>
-40.6008

> <Gold.PLP.part.hbond>
-2.0000

> <Gold.PLP.part.metal>
0.0000

> <Gold.PLP.part.buried>
-3.4045

> <Gold.PLP.part.nonpolar>
-35.7002

> <Gold.PLP.part.repulsive>
0.2007

> <Gold.PLP.ligand.clash>
0.0000

> <Gold.PLP.ligand.torsion>
1.0140

> <Gold.PLP.Chemscore.Hbond>
1.9440

> <Gold.PLP.Chemscore.CHOScore>
1.0000

> <Gold.PLP.Chemscore.Metal>
0.0000

> <Gold.Chemscore.Hbonds>
donor molecule, donor type, donor heavy atom, donor atom, acceptor molecule, acceptor atom, score
      P1  H  7989  7998       L1     8  0.86
      P1  H  7997  8010       L1    11  1.00
      L1  C     7    28       P1  8028  1.00

> <Gold.PLP.Chemscore.Internal.Correction>
0.0145

> <Gold.Rescore>
     Score         DG    S(hbond)    S(metal)    S(lipo)     H(rot)  DE(clash)    DE(int)     intcor
     18.76     -20.19       1.92        0.00     105.13       1.56       0.01       1.43       ----

> <Gold.Chemscore.Fitness>
18.7561

> <Gold.Chemscore.DG>
-20.1938

> <Gold.Chemscore.ZeroCoef>
-5.4800

> <Gold.Chemscore.Hbond>
1.9166

> <Gold.Chemscore.Metal>
0.0000

> <Gold.Chemscore.Lipo>
105.1276

> <Gold.Chemscore.Internal_Hbond>
0.0000

> <Gold.Chemscore.DEClash>
0.0120

> <Gold.Chemscore.DEInternal>
1.4257

> <Gold.Chemscore.Rot>
1.5576

> <Gold.Chemscore.Internal.Correction>
   9.000000E+99

> <Gold.Chemscore.Hbonds>
donor molecule, donor type, donor heavy atom, donor atom, acceptor molecule, acceptor atom, score
      P1  H  7989  7998       L1     8  0.29
      P1  H  7997  8010       L1    11  0.99

> <Gold.Chemscore.Hbond.Weighted>
-6.4014

> <Gold.Chemscore.Metal.Weighted>
-0.0000

> <Gold.Chemscore.Lipo.Weighted>
-12.2999

> <Gold.Chemscore.Internal_Hbond.Weighted>
0.0000

> <Gold.Chemscore.DEClash.Weighted>
0.0120

> <Gold.Chemscore.DEInternal.Weighted>
1.4257

> <Gold.Chemscore.Rot.Weighted>
3.9875

> <Gold.Chemscore.Internal.Correction.Weighted>
   9.000000E+99

> <Gold.Protein.RotatedTorsions>
[ 6907 6896 6895 6894 ] final  -43.73 input  -60.11 | X-H torsion
[ 7974 7965 7964 7962 ] final -120.26 input  175.53 | X-H torsion
[ 8008 7997 7996 7995 ] final   84.66 input   59.86 | X-H torsion
[ 10167 10162 10161 10158 ] final  -86.75 input  -65.29 | X-H torsion
[ 10718 10713 10712 10709 ] final -104.33 input   66.30 | X-H torsion
[ 10763 10752 10751 10750 ] final  -52.95 input  -60.55 | X-H torsion
[ 11005 11000 10999 10996 ] final  147.04 input  -57.11 | X-H torsion

> <Gold.Protein.ActiveResidues>
 VAL166  LYS551  ARG553  GLY616  TRP617  ASP618  TYR619  PRO620  LYS621  CYS622 
 ASP623  PHE694  ASN695  SER759  ASP760  ASP761  ALA762  ILE779  LEU786  VAL792 
 PHE793  MET794  SER795  GLU796  ALA797  LYS798  CYS799  TRP800  GLU811  SER814 

> <Gold.Protein.RotatedAtoms>
  150.9406  134.8816  159.7609 H   0  0  0  0  0  0  0  0  0  0  0  0  # atno 6907 bound_to 6896
  152.5078  134.3947  159.9406 H   0  0  0  0  0  0  0  0  0  0  0  0  # atno 6908 bound_to 6896
  151.3968  133.3730  159.2762 H   0  0  0  0  0  0  0  0  0  0  0  0  # atno 6909 bound_to 6896
  145.0533  140.8235  143.4196 H   0  0  0  0  0  0  0  0  0  0  0  0  # atno 7974 bound_to 7965
  155.9399  140.3409  155.6318 H   0  0  0  0  0  0  0  0  0  0  0  0  # atno 8008 bound_to 7997
  155.7053  140.0765  157.2412 H   0  0  0  0  0  0  0  0  0  0  0  0  # atno 8009 bound_to 7997
  154.4100  140.1632  156.2223 H   0  0  0  0  0  0  0  0  0  0  0  0  # atno 8010 bound_to 7997
  140.3911  143.2704  151.9263 H   0  0  0  0  0  0  0  0  0  0  0  0  # atno 10167 bound_to 10162
  156.0300  130.5510  150.7381 H   0  0  0  0  0  0  0  0  0  0  0  0  # atno 10718 bound_to 10713
  154.1510  135.6490  153.4963 H   0  0  0  0  0  0  0  0  0  0  0  0  # atno 10763 bound_to 10752
  153.0138  135.5338  154.6808 H   0  0  0  0  0  0  0  0  0  0  0  0  # atno 10764 bound_to 10752
  154.6096  135.2952  155.0418 H   0  0  0  0  0  0  0  0  0  0  0  0  # atno 10765 bound_to 10752
  140.0843  134.9079  157.1551 H   0  0  0  0  0  0  0  0  0  0  0  0  # atno 11005 bound_to 11000
  145.1500  139.2520  143.5446 LP  0  0  0  0  0  0  0  0  0  0  0  0  # atno 17320 bound_to 7965
  146.3519  140.1200  142.8600 LP  0  0  0  0  0  0  0  0  0  0  0  0  # atno 17321 bound_to 7965
  139.4789  144.5726  151.8063 LP  0  0  0  0  0  0  0  0  0  0  0  0  # atno 17342 bound_to 10162
  140.4838  144.1410  150.5937 LP  0  0  0  0  0  0  0  0  0  0  0  0  # atno 17343 bound_to 10162
  157.4957  131.0914  151.0374 LP  0  0  0  0  0  0  0  0  0  0  0  0  # atno 17370 bound_to 10713
  157.0769  130.5887  149.5413 LP  0  0  0  0  0  0  0  0  0  0  0  0  # atno 17371 bound_to 10713
  140.3443  134.2669  155.7207 LP  0  0  0  0  0  0  0  0  0  0  0  0  # atno 17394 bound_to 11000
  141.2057  133.7852  157.0217 LP  0  0  0  0  0  0  0  0  0  0  0  0  # atno 17395 bound_to 11000

$$$$
