AV-unprocessed.smi:2767|AV-procd|sdf|10647|dock6
  -GOLD-   2272015 93D 1   1.00000     0.00000
 Structure written by MMmdl.
 34 36  0  0  0  0  0  0  0  0  1 V2000
  151.1809  140.8428  156.1598 O   0  0  0  0  0  0  0  0  0  0  0  0
  150.6330  141.9378  156.0306 C   0  0  0  0  0  0  0  0  0  0  0  0
  151.0428  143.0483  156.6599 N   0  0  0  0  0  0  0  0  0  0  0  0
  152.2016  143.1280  157.5419 C   0  0  0  0  0  0  0  0  0  0  0  0
  152.0254  143.9868  158.7885 C   0  0  0  0  0  0  0  0  0  0  0  0
  152.7877  143.4986  160.0179 C   0  0  0  0  0  0  0  0  0  0  0  0
  153.5586  142.2001  159.9637 C   0  0  0  0  0  0  0  0  0  0  0  0
  152.3620  142.3250  160.8763 C   0  0  0  0  0  0  0  0  0  0  0  0
  151.9577  145.4877  158.5864 C   0  0  0  0  0  0  0  0  0  0  0  0
  150.7061  144.7293  158.9351 C   0  0  0  0  0  0  0  0  0  0  0  0
  149.5672  142.1873  155.2495 N   0  0  0  0  0  0  0  0  0  0  0  0
  148.8714  141.2869  154.3993 C   0  0  0  0  0  0  0  0  0  0  0  0
  148.0067  141.8968  153.4622 C   0  0  0  0  0  0  0  0  0  0  0  0
  147.2723  141.0915  152.5699 C   0  0  0  0  0  0  0  0  0  0  0  0
  147.4229  139.6952  152.6398 C   0  0  0  0  0  0  0  0  0  0  0  0
  146.7375  138.8804  151.8030 F   0  0  0  0  0  0  0  0  0  0  0  0
  148.3041  139.1672  153.6015 C   0  0  0  0  0  0  0  0  0  0  0  0
  149.0087  139.9382  154.4570 N   0  0  0  0  0  0  0  0  0  0  0  0
  150.5342  143.9051  156.4982 H   0  0  0  0  0  0  0  0  0  0  0  0
  152.4335  142.1125  157.8636 H   0  0  0  0  0  0  0  0  0  0  0  0
  153.0700  143.4666  156.9738 H   0  0  0  0  0  0  0  0  0  0  0  0
  153.2715  144.2994  160.5741 H   0  0  0  0  0  0  0  0  0  0  0  0
  153.4482  141.5830  159.0740 H   0  0  0  0  0  0  0  0  0  0  0  0
  154.5458  142.1856  160.4207 H   0  0  0  0  0  0  0  0  0  0  0  0
  152.5576  142.3919  161.9442 H   0  0  0  0  0  0  0  0  0  0  0  0
  151.4672  141.7682  160.6107 H   0  0  0  0  0  0  0  0  0  0  0  0
  152.3853  146.1251  159.3577 H   0  0  0  0  0  0  0  0  0  0  0  0
  152.0452  145.8687  157.5707 H   0  0  0  0  0  0  0  0  0  0  0  0
  149.9650  144.6068  158.1476 H   0  0  0  0  0  0  0  0  0  0  0  0
  150.2878  144.8728  159.9275 H   0  0  0  0  0  0  0  0  0  0  0  0
  149.2239  143.1365  155.2506 H   0  0  0  0  0  0  0  0  0  0  0  0
  147.9040  142.9716  153.4233 H   0  0  0  0  0  0  0  0  0  0  0  0
  146.6068  141.5378  151.8460 H   0  0  0  0  0  0  0  0  0  0  0  0
  148.4476  138.1003  153.6872 H   0  0  0  0  0  0  0  0  0  0  0  0
  1  2  2  0  0  0  0
  2  3  1  0  0  0  0
  2 11  1  0  0  0  0
  3  4  1  0  0  0  0
  3 19  1  0  0  0  0
  4  5  1  0  0  0  0
  4 20  1  0  0  0  0
  4 21  1  0  0  0  0
  5 10  1  0  0  0  0
  5  6  1  0  0  0  0
  5  9  1  0  0  0  0
  6  8  1  0  0  0  0
  6  7  1  0  0  0  0
  6 22  1  0  0  0  0
  7  8  1  0  0  0  0
  7 23  1  0  0  0  0
  7 24  1  0  0  0  0
  8 25  1  0  0  0  0
  8 26  1  0  0  0  0
  9 10  1  0  0  0  0
  9 27  1  0  0  0  0
  9 28  1  0  0  0  0
 10 29  1  0  0  0  0
 10 30  1  0  0  0  0
 11 12  1  0  0  0  0
 11 31  1  0  0  0  0
 12 18  1  0  0  0  0
 12 13  2  0  0  0  0
 13 14  1  0  0  0  0
 13 32  1  0  0  0  0
 14 15  2  0  0  0  0
 14 33  1  0  0  0  0
 15 16  1  0  0  0  0
 15 17  1  0  0  0  0
 17 18  2  0  0  0  0
 17 34  1  0  0  0  0
M  END
> <s_m_source_file>
AV-unprocessed.smi

> <i_m_source_file_index>
2767

> <i_lp_mmshare_version>
43012

> <i_f3d_flags>
0

> <s_epik_input>
W0NIMl0xW0NIMl1bQ0hdMUMyKFtDSDJdW0NIMl0yKVtDSDJdW05IXUMoPU8pW05IXWMzW2NIXVtjSF1jKEYpW2NIXW4z

> <s_epik_cmdline>
J2VwaWtfcHl0aG9uJywgJy1waCcsICc3LjAnLCAnLXRuJywgJzgnLCAnLW1hJywgJzIwMCcsICctbWV0YWxfYmluZGluZycsICctaW1hZScsICc8aW5maWxlLm1hZT4nLCAnLW9tYWUnLCAnPG91dGZpbGUubWFlPic=

> <r_lp_tautomer_probability>
1

> <r_epik_Ionization_Penalty>
3.94364e-05

> <r_epik_Ionization_Penalty_Charging>
0

> <r_epik_Ionization_Penalty_Neutral>
3.94364e-05

> <r_epik_State_Penalty>
-0

> <r_epik_Charging_Adjusted_Penalty>
0

> <i_epik_Tot_Q>
0

> <i_epik_Tot_abs_Q>
0

> <r_epik_Metal_State_Penalty>
-0

> <b_epik_Metal_Only>
0

> <s_lp_Force_Field>
OPLS_2005

> <r_lp_Energy>
31.6765

> <b_lp_Chiralities_Consistent>
1

> <s_lp_Variant>
AV-unprocessed.smi:2767-1

> <Gold.Version>
5.8.1

> <Gold.Id.Protein>
6NUR|6NUR_protein|mol2

> <Gold.PLP.Fitness>
50.3491

> <Gold.PLP.PLP>
-43.2451

> <Gold.PLP.part.hbond>
-2.0000

> <Gold.PLP.part.metal>
0.0000

> <Gold.PLP.part.buried>
-4.1907

> <Gold.PLP.part.nonpolar>
-38.1490

> <Gold.PLP.part.repulsive>
0.3146

> <Gold.PLP.ligand.clash>
0.0000

> <Gold.PLP.ligand.torsion>
2.0162

> <Gold.PLP.Chemscore.Hbond>
1.8723

> <Gold.PLP.Chemscore.CHOScore>
0.9978

> <Gold.PLP.Chemscore.Metal>
0.0000

> <Gold.Chemscore.Hbonds>
donor molecule, donor type, donor heavy atom, donor atom, acceptor molecule, acceptor atom, score
      L1  H     3    19       P1  8028  0.93
      L1  H    11    31       P1  8028  1.00
      L1  C    17    34       P1  7948  0.71

> <Gold.PLP.Chemscore.Internal.Correction>
2.5261

> <Gold.Rescore>
     Score         DG    S(hbond)    S(metal)    S(lipo)     H(rot)  DE(clash)    DE(int)     intcor
     15.28     -21.48       1.86        0.00     115.63       1.46       2.98       3.23       ----

> <Gold.Chemscore.Fitness>
15.2750

> <Gold.Chemscore.DG>
-21.4850

> <Gold.Chemscore.ZeroCoef>
-5.4800

> <Gold.Chemscore.Hbond>
1.8611

> <Gold.Chemscore.Metal>
0.0000

> <Gold.Chemscore.Lipo>
115.6268

> <Gold.Chemscore.Internal_Hbond>
0.0000

> <Gold.Chemscore.DEClash>
2.9834

> <Gold.Chemscore.DEInternal>
3.2266

> <Gold.Chemscore.Rot>
1.4608

> <Gold.Chemscore.Internal.Correction>
   9.000000E+99

> <Gold.Chemscore.Hbonds>
donor molecule, donor type, donor heavy atom, donor atom, acceptor molecule, acceptor atom, score
      L1  H     3    19       P1  8028  0.86
      L1  H    11    31       P1  8028  1.00

> <Gold.Chemscore.Hbond.Weighted>
-6.2162

> <Gold.Chemscore.Metal.Weighted>
-0.0000

> <Gold.Chemscore.Lipo.Weighted>
-13.5283

> <Gold.Chemscore.Internal_Hbond.Weighted>
0.0000

> <Gold.Chemscore.DEClash.Weighted>
2.9834

> <Gold.Chemscore.DEInternal.Weighted>
3.2266

> <Gold.Chemscore.Rot.Weighted>
3.7396

> <Gold.Chemscore.Internal.Correction.Weighted>
   9.000000E+99

> <Gold.Protein.RotatedTorsions>
[ 6907 6896 6895 6894 ] final -133.15 input  -60.11 | X-H torsion
[ 7974 7965 7964 7962 ] final   88.67 input  175.53 | X-H torsion
[ 8008 7997 7996 7995 ] final  137.23 input   59.86 | X-H torsion
[ 10167 10162 10161 10158 ] final  -25.17 input  -65.29 | X-H torsion
[ 10718 10713 10712 10709 ] final   17.08 input   66.30 | X-H torsion
[ 10763 10752 10751 10750 ] final  -41.70 input  -60.55 | X-H torsion
[ 11005 11000 10999 10996 ] final   86.40 input  -57.11 | X-H torsion

> <Gold.Protein.ActiveResidues>
 VAL166  LYS551  ARG553  GLY616  TRP617  ASP618  TYR619  PRO620  LYS621  CYS622 
 ASP623  PHE694  ASN695  SER759  ASP760  ASP761  ALA762  ILE779  LEU786  VAL792 
 PHE793  MET794  SER795  GLU796  ALA797  LYS798  CYS799  TRP800  GLU811  SER814 

> <Gold.Protein.RotatedAtoms>
  150.9707  133.6347  159.2738 H   0  0  0  0  0  0  0  0  0  0  0  0  # atno 6907 bound_to 6896
  151.3637  135.0908  159.9452 H   0  0  0  0  0  0  0  0  0  0  0  0  # atno 6908 bound_to 6896
  152.5182  133.9276  159.7619 H   0  0  0  0  0  0  0  0  0  0  0  0  # atno 6909 bound_to 6896
  145.5426  139.2289  143.2557 H   0  0  0  0  0  0  0  0  0  0  0  0  # atno 7974 bound_to 7965
  156.3002  140.2424  156.3876 H   0  0  0  0  0  0  0  0  0  0  0  0  # atno 8008 bound_to 7997
  154.8643  140.0418  157.1705 H   0  0  0  0  0  0  0  0  0  0  0  0  # atno 8009 bound_to 7997
  154.8862  140.2956  155.5400 H   0  0  0  0  0  0  0  0  0  0  0  0  # atno 8010 bound_to 7997
  140.7287  143.4288  151.0834 H   0  0  0  0  0  0  0  0  0  0  0  0  # atno 10167 bound_to 10162
  157.0770  130.6372  149.5818 H   0  0  0  0  0  0  0  0  0  0  0  0  # atno 10718 bound_to 10713
  153.9668  135.6733  153.4746 H   0  0  0  0  0  0  0  0  0  0  0  0  # atno 10763 bound_to 10752
  153.0811  135.4922  154.8502 H   0  0  0  0  0  0  0  0  0  0  0  0  # atno 10764 bound_to 10752
  154.7241  135.3123  154.8959 H   0  0  0  0  0  0  0  0  0  0  0  0  # atno 10765 bound_to 10752
  139.8945  134.8353  156.2716 H   0  0  0  0  0  0  0  0  0  0  0  0  # atno 11005 bound_to 11000
  146.1970  140.6247  142.9119 LP  0  0  0  0  0  0  0  0  0  0  0  0  # atno 17320 bound_to 7965
  144.7569  140.5329  143.6762 LP  0  0  0  0  0  0  0  0  0  0  0  0  # atno 17321 bound_to 7965
  139.7943  143.8174  152.3155 LP  0  0  0  0  0  0  0  0  0  0  0  0  # atno 17342 bound_to 10162
  139.8169  144.7312  150.9624 LP  0  0  0  0  0  0  0  0  0  0  0  0  # atno 17343 bound_to 10162
  155.9934  130.4995  150.7380 LP  0  0  0  0  0  0  0  0  0  0  0  0  # atno 17370 bound_to 10713
  157.4832  131.0904  151.0513 LP  0  0  0  0  0  0  0  0  0  0  0  0  # atno 17371 bound_to 10713
  141.0097  133.7103  156.1092 LP  0  0  0  0  0  0  0  0  0  0  0  0  # atno 17394 bound_to 11000
  140.7384  134.4177  157.5558 LP  0  0  0  0  0  0  0  0  0  0  0  0  # atno 17395 bound_to 11000

$$$$
