AV-unprocessed.smi:1680|AV-procd|sdf|6738|dock6
  -GOLD-   22720 7483D 1   1.00000     0.00000
 Structure written by MMmdl.
 39 40  0  0  0  0  0  0  0  0  2 V2000
  146.1321  130.3489  152.0020 C   0  0  0  0  0  0  0  0  0  0  0  0
  146.4417  131.4043  153.0660 C   0  0  0  0  0  0  0  0  0  0  0  0
  146.2350  131.1157  154.2445 O   0  0  0  0  0  0  0  0  0  0  0  0
  146.9291  132.6092  152.6837 N   0  0  0  0  0  0  0  0  0  0  0  0
  147.1883  133.7454  153.5732 C   0  0  0  0  0  0  0  0  0  0  0  0
  146.1896  134.8716  153.2496 C   0  0  0  0  0  0  0  0  0  0  0  0
  146.2461  135.2570  151.8132 N   0  3  0  0  0  0  0  0  0  0  0  0
  145.2951  136.3503  151.4912 C   0  0  0  0  0  0  0  0  0  0  0  0
  145.5642  137.6280  152.3103 C   0  0  0  0  0  0  0  0  0  0  0  0
  146.9758  137.7584  152.6536 N   0  0  0  0  0  0  0  0  0  0  0  0
  147.4890  138.7310  153.4210 C   0  0  0  0  0  0  0  0  0  0  0  0
  146.8073  139.6289  153.9163 O   0  0  0  0  0  0  0  0  0  0  0  0
  148.8188  138.5920  153.5641 N   0  0  0  0  0  0  0  0  0  0  0  0
  149.7181  139.4269  154.2791 C   0  0  0  0  0  0  0  0  0  0  0  0
  151.0496  139.2568  154.2811 N   0  0  0  0  0  0  0  0  0  0  0  0
  151.6932  140.2068  155.0636 N   0  0  0  0  0  0  0  0  0  0  0  0
  150.8233  141.0547  155.6197 C   0  0  0  0  0  0  0  0  0  0  0  0
  149.1324  140.7765  155.2408 S   0  0  0  0  0  0  0  0  0  0  0  0
  146.1349  134.0863  150.8989 C   0  0  0  0  0  0  0  0  0  0  0  0
  147.1310  132.9756  151.2793 C   0  0  0  0  0  0  0  0  0  0  0  0
  147.0313  130.0847  151.4444 H   0  0  0  0  0  0  0  0  0  0  0  0
  145.3755  130.7120  151.3058 H   0  0  0  0  0  0  0  0  0  0  0  0
  145.7482  129.4387  152.4643 H   0  0  0  0  0  0  0  0  0  0  0  0
  147.1298  133.4967  154.6319 H   0  0  0  0  0  0  0  0  0  0  0  0
  148.2089  134.0955  153.4125 H   0  0  0  0  0  0  0  0  0  0  0  0
  145.1767  134.5500  153.4976 H   0  0  0  0  0  0  0  0  0  0  0  0
  146.4089  135.7406  153.8712 H   0  0  0  0  0  0  0  0  0  0  0  0
  145.3232  136.5632  150.4213 H   0  0  0  0  0  0  0  0  0  0  0  0
  144.2828  136.0070  151.7092 H   0  0  0  0  0  0  0  0  0  0  0  0
  145.2322  138.5115  151.7622 H   0  0  0  0  0  0  0  0  0  0  0  0
  145.0060  137.6142  153.2455 H   0  0  0  0  0  0  0  0  0  0  0  0
  147.6029  137.0566  152.2877 H   0  0  0  0  0  0  0  0  0  0  0  0
  149.2408  137.8021  153.0986 H   0  0  0  0  0  0  0  0  0  0  0  0
  151.1796  141.8495  156.2580 H   0  0  0  0  0  0  0  0  0  0  0  0
  145.1171  133.6943  150.9350 H   0  0  0  0  0  0  0  0  0  0  0  0
  146.3212  134.3906  149.8696 H   0  0  0  0  0  0  0  0  0  0  0  0
  148.1548  133.3281  151.1454 H   0  0  0  0  0  0  0  0  0  0  0  0
  147.0176  132.1305  150.5990 H   0  0  0  0  0  0  0  0  0  0  0  0
  147.1710  135.6386  151.6746 H   0  0  0  0  0  0  0  0  0  0  0  0
  1  2  1  0  0  0  0
  1 21  1  0  0  0  0
  1 22  1  0  0  0  0
  1 23  1  0  0  0  0
  2  3  2  0  0  0  0
  2  4  1  0  0  0  0
  4 20  1  0  0  0  0
  4  5  1  0  0  0  0
  5  6  1  0  0  0  0
  5 24  1  0  0  0  0
  5 25  1  0  0  0  0
  6  7  1  0  0  0  0
  6 26  1  0  0  0  0
  6 27  1  0  0  0  0
  7  8  1  0  0  0  0
  7 19  1  0  0  0  0
  7 39  1  0  0  0  0
  8  9  1  0  0  0  0
  8 28  1  0  0  0  0
  8 29  1  0  0  0  0
  9 10  1  0  0  0  0
  9 30  1  0  0  0  0
  9 31  1  0  0  0  0
 10 11  1  0  0  0  0
 10 32  1  0  0  0  0
 11 12  2  0  0  0  0
 11 13  1  0  0  0  0
 13 14  1  0  0  0  0
 13 33  1  0  0  0  0
 14 18  1  0  0  0  0
 14 15  2  0  0  0  0
 15 16  1  0  0  0  0
 16 17  2  0  0  0  0
 17 18  1  0  0  0  0
 17 34  1  0  0  0  0
 19 20  1  0  0  0  0
 19 35  1  0  0  0  0
 19 36  1  0  0  0  0
 20 37  1  0  0  0  0
 20 38  1  0  0  0  0
M  CHG  1   7   1
M  END
> <s_m_source_file>
AV-unprocessed.smi

> <i_m_source_file_index>
1680

> <i_lp_mmshare_version>
43012

> <i_f3d_flags>
0

> <s_epik_input>
W0NIM11DKD1PKU4xW0NIMl1bQ0gyXU4oW0NIMl1bQ0gyXTEpW0NIMl1bQ0gyXVtOSF1DKD1PKVtOSF1jMm5uW2NIXXMy

> <s_epik_cmdline>
J2VwaWtfcHl0aG9uJywgJy1waCcsICc3LjAnLCAnLXRuJywgJzgnLCAnLW1hJywgJzIwMCcsICctbWV0YWxfYmluZGluZycsICctaW1hZScsICc8aW5maWxlLm1hZT4nLCAnLW9tYWUnLCAnPG91dGZpbGUubWFlPic=

> <r_lp_tautomer_probability>
1

> <r_epik_Ionization_Penalty>
0.679071

> <r_epik_Ionization_Penalty_Charging>
0.67523

> <r_epik_Ionization_Penalty_Neutral>
0.00384089

> <r_epik_State_Penalty>
0.695776

> <r_epik_Charging_Adjusted_Penalty>
1.37101

> <i_epik_Tot_Q>
1

> <i_epik_Tot_abs_Q>
1

> <r_epik_Metal_State_Penalty>
1.03363

> <b_epik_Metal_Only>
0

> <s_lp_Force_Field>
OPLS_2005

> <r_lp_Energy>
38.3378

> <b_lp_Chiralities_Consistent>
1

> <s_lp_Variant>
AV-unprocessed.smi:1680-2

> <Gold.Version>
5.8.1

> <Gold.Id.Protein>
6NUR|6NUR_protein|mol2

> <Gold.PLP.Fitness>
41.9187

> <Gold.PLP.PLP>
-30.4602

> <Gold.PLP.part.hbond>
-6.0000

> <Gold.PLP.part.metal>
0.0000

> <Gold.PLP.part.buried>
-1.6108

> <Gold.PLP.part.nonpolar>
-23.6999

> <Gold.PLP.part.repulsive>
0.6251

> <Gold.PLP.ligand.clash>
0.0000

> <Gold.PLP.ligand.torsion>
0.2282

> <Gold.PLP.Chemscore.Hbond>
3.9600

> <Gold.PLP.Chemscore.CHOScore>
0.0000

> <Gold.PLP.Chemscore.Metal>
0.0000

> <Gold.Chemscore.Hbonds>
donor molecule, donor type, donor heavy atom, donor atom, acceptor molecule, acceptor atom, score
      L1  H     7    39       P1  7948  2.00
      L1  H    10    32       P1  7948  1.00
      L1  H    13    33       P1  7948  0.94

> <Gold.PLP.Chemscore.Internal.Correction>
0.0349

> <Gold.Rescore>
     Score         DG    S(hbond)    S(metal)    S(lipo)     H(rot)  DE(clash)    DE(int)     intcor
     14.81     -16.54       2.90        0.00      51.88       1.83       0.27       1.46       ----

> <Gold.Chemscore.Fitness>
14.8105

> <Gold.Chemscore.DG>
-16.5439

> <Gold.Chemscore.ZeroCoef>
-5.4800

> <Gold.Chemscore.Hbond>
2.8957

> <Gold.Chemscore.Metal>
0.0000

> <Gold.Chemscore.Lipo>
51.8806

> <Gold.Chemscore.Internal_Hbond>
0.0000

> <Gold.Chemscore.DEClash>
0.2702

> <Gold.Chemscore.DEInternal>
1.4631

> <Gold.Chemscore.Rot>
1.8272

> <Gold.Chemscore.Internal.Correction>
   9.000000E+99

> <Gold.Chemscore.Hbonds>
donor molecule, donor type, donor heavy atom, donor atom, acceptor molecule, acceptor atom, score
      L1  H     7    39       P1  7948  1.00
      L1  H    10    32       P1  7948  0.99
      L1  H    13    33       P1  7948  0.87

> <Gold.Chemscore.Hbond.Weighted>
-9.6715

> <Gold.Chemscore.Metal.Weighted>
-0.0000

> <Gold.Chemscore.Lipo.Weighted>
-6.0700

> <Gold.Chemscore.Internal_Hbond.Weighted>
0.0000

> <Gold.Chemscore.DEClash.Weighted>
0.2702

> <Gold.Chemscore.DEInternal.Weighted>
1.4631

> <Gold.Chemscore.Rot.Weighted>
4.6776

> <Gold.Chemscore.Internal.Correction.Weighted>
   9.000000E+99

> <Gold.Protein.RotatedTorsions>
[ 6907 6896 6895 6894 ] final -178.30 input  -60.11 | X-H torsion
[ 7974 7965 7964 7962 ] final -105.44 input  175.53 | X-H torsion
[ 8008 7997 7996 7995 ] final  -28.05 input   59.86 | X-H torsion
[ 10167 10162 10161 10158 ] final   -9.38 input  -65.29 | X-H torsion
[ 10718 10713 10712 10709 ] final  139.19 input   66.30 | X-H torsion
[ 10763 10752 10751 10750 ] final  -55.54 input  -60.55 | X-H torsion
[ 11005 11000 10999 10996 ] final   76.03 input  -57.11 | X-H torsion

> <Gold.Protein.ActiveResidues>
 VAL166  LYS551  ARG553  GLY616  TRP617  ASP618  TYR619  PRO620  LYS621  CYS622 
 ASP623  PHE694  ASN695  SER759  ASP760  ASP761  ALA762  ILE779  LEU786  VAL792 
 PHE793  MET794  SER795  GLU796  ALA797  LYS798  CYS799  TRP800  GLU811  SER814 

> <Gold.Protein.RotatedAtoms>
  151.6350  133.3329  159.3117 H   0  0  0  0  0  0  0  0  0  0  0  0  # atno 6907 bound_to 6896
  150.8037  134.7152  159.6636 H   0  0  0  0  0  0  0  0  0  0  0  0  # atno 6908 bound_to 6896
  152.4131  134.6094  160.0073 H   0  0  0  0  0  0  0  0  0  0  0  0  # atno 6909 bound_to 6896
  145.2304  140.9168  143.3208 H   0  0  0  0  0  0  0  0  0  0  0  0  # atno 7974 bound_to 7965
  154.4349  140.1856  156.1028 H   0  0  0  0  0  0  0  0  0  0  0  0  # atno 8008 bound_to 7997
  156.0278  140.3334  155.7082 H   0  0  0  0  0  0  0  0  0  0  0  0  # atno 8009 bound_to 7997
  155.5883  140.0628  157.2756 H   0  0  0  0  0  0  0  0  0  0  0  0  # atno 8010 bound_to 7997
  140.7086  143.5864  150.8939 H   0  0  0  0  0  0  0  0  0  0  0  0  # atno 10167 bound_to 10162
  157.4171  131.1034  151.0393 H   0  0  0  0  0  0  0  0  0  0  0  0  # atno 10718 bound_to 10713
  154.1924  135.6425  153.5064 H   0  0  0  0  0  0  0  0  0  0  0  0  # atno 10763 bound_to 10752
  153.0032  135.5432  154.6401 H   0  0  0  0  0  0  0  0  0  0  0  0  # atno 10764 bound_to 10752
  154.5793  135.2924  155.0722 H   0  0  0  0  0  0  0  0  0  0  0  0  # atno 10765 bound_to 10752
  139.9316  134.7567  156.1345 H   0  0  0  0  0  0  0  0  0  0  0  0  # atno 11005 bound_to 11000
  144.9682  139.3908  143.6322 LP  0  0  0  0  0  0  0  0  0  0  0  0  # atno 17320 bound_to 7965
  146.3354  139.8767  142.8831 LP  0  0  0  0  0  0  0  0  0  0  0  0  # atno 17321 bound_to 7965
  139.9590  143.6186  152.3008 LP  0  0  0  0  0  0  0  0  0  0  0  0  # atno 17342 bound_to 10162
  139.6731  144.7660  151.1746 LP  0  0  0  0  0  0  0  0  0  0  0  0  # atno 17343 bound_to 10162
  157.1337  130.6113  149.5536 LP  0  0  0  0  0  0  0  0  0  0  0  0  # atno 17370 bound_to 10713
  155.9868  130.4905  150.7098 LP  0  0  0  0  0  0  0  0  0  0  0  0  # atno 17371 bound_to 10713
  141.0908  133.6715  156.2536 LP  0  0  0  0  0  0  0  0  0  0  0  0  # atno 17394 bound_to 11000
  140.6186  134.5385  157.5544 LP  0  0  0  0  0  0  0  0  0  0  0  0  # atno 17395 bound_to 11000

$$$$
