AV-unprocessed.smi:1961|AV-procd|sdf|7920|dock8
  -GOLD-   2272010 83D 1   1.00000     0.00000
 Structure written by MMmdl.
 35 36  0  0  0  0  0  0  0  0  2 V2000
  152.4434  143.5887  162.1735 C   0  0  0  0  0  0  0  0  0  0  0  0
  152.3475  143.9236  160.6777 C   0  0  0  0  0  0  0  0  0  0  0  0
  151.1432  144.8118  160.3337 C   0  0  0  0  0  0  0  0  0  0  0  0
  152.4077  142.6991  159.8194 C   0  0  0  0  0  0  0  0  0  0  0  0
  151.4904  142.4111  158.8910 N   0  0  0  0  0  0  0  0  0  0  0  0
  151.7684  141.2245  158.2289 N   0  0  0  0  0  0  0  0  0  0  0  0
  152.8952  140.6369  158.6546 C   0  0  0  0  0  0  0  0  0  0  0  0
  153.3414  139.4776  158.1439 N   0  5  0  0  0  0  0  0  0  0  0  0
  152.5536  138.7569  157.3138 C   0  0  0  0  0  0  0  0  0  0  0  0
  152.2118  137.5820  157.4681 O   0  0  0  0  0  0  0  0  0  0  0  0
  152.1313  139.4411  156.2410 N   0  0  0  0  0  0  0  0  0  0  0  0
  151.2599  138.9283  155.1896 C   0  0  0  0  0  0  0  0  0  0  0  0
  149.8859  139.6183  155.2068 C   0  0  2  0  0  0  0  0  0  0  0  0
  148.9120  139.0868  154.1581 C   0  0  0  0  0  0  0  0  0  0  0  0
  147.9585  140.2516  153.9388 C   0  0  0  0  0  0  0  0  0  0  0  0
  148.6862  141.4515  154.5534 C   0  0  0  0  0  0  0  0  0  0  0  0
  149.9967  140.9848  154.8405 O   0  0  0  0  0  0  0  0  0  0  0  0
  153.7012  141.5185  159.9511 S   0  0  0  0  0  0  0  0  0  0  0  0
  153.3529  143.0277  162.3918 H   0  0  0  0  0  0  0  0  0  0  0  0
  151.5945  142.9874  162.5005 H   0  0  0  0  0  0  0  0  0  0  0  0
  152.4606  144.4954  162.7786 H   0  0  0  0  0  0  0  0  0  0  0  0
  153.2364  144.5089  160.4390 H   0  0  0  0  0  0  0  0  0  0  0  0
  151.1570  145.0987  159.2817 H   0  0  0  0  0  0  0  0  0  0  0  0
  151.1477  145.7271  160.9260 H   0  0  0  0  0  0  0  0  0  0  0  0
  150.2015  144.2962  160.5253 H   0  0  0  0  0  0  0  0  0  0  0  0
  152.4311  140.4012  156.1562 H   0  0  0  0  0  0  0  0  0  0  0  0
  151.7494  139.0869  154.2284 H   0  0  0  0  0  0  0  0  0  0  0  0
  151.1430  137.8495  155.3029 H   0  0  0  0  0  0  0  0  0  0  0  0
  149.4293  139.5491  156.1962 H   0  0  0  0  0  0  0  0  0  0  0  0
  149.4404  138.8687  153.2290 H   0  0  0  0  0  0  0  0  0  0  0  0
  148.4052  138.1761  154.4789 H   0  0  0  0  0  0  0  0  0  0  0  0
  147.7601  140.3985  152.8767 H   0  0  0  0  0  0  0  0  0  0  0  0
  147.0040  140.0858  154.4396 H   0  0  0  0  0  0  0  0  0  0  0  0
  148.7141  142.3128  153.8857 H   0  0  0  0  0  0  0  0  0  0  0  0
  148.2044  141.7566  155.4835 H   0  0  0  0  0  0  0  0  0  0  0  0
  1  2  1  0  0  0  0
  1 19  1  0  0  0  0
  1 20  1  0  0  0  0
  1 21  1  0  0  0  0
  2  3  1  0  0  0  0
  2  4  1  0  0  0  0
  2 22  1  0  0  0  0
  3 23  1  0  0  0  0
  3 24  1  0  0  0  0
  3 25  1  0  0  0  0
  4 18  1  0  0  0  0
  4  5  2  0  0  0  0
  5  6  1  0  0  0  0
  6  7  2  0  0  0  0
  7  8  1  0  0  0  0
  7 18  1  0  0  0  0
  8  9  1  0  0  0  0
  9 10  2  0  0  0  0
  9 11  1  0  0  0  0
 11 12  1  0  0  0  0
 11 26  1  0  0  0  0
 12 13  1  0  0  0  0
 12 27  1  0  0  0  0
 12 28  1  0  0  0  0
 13 17  1  0  0  0  0
 13 14  1  0  0  0  0
 13 29  1  0  0  0  0
 14 15  1  0  0  0  0
 14 30  1  0  0  0  0
 14 31  1  0  0  0  0
 15 16  1  0  0  0  0
 15 32  1  0  0  0  0
 15 33  1  0  0  0  0
 16 17  1  0  0  0  0
 16 34  1  0  0  0  0
 16 35  1  0  0  0  0
M  CHG  1   8  -1
M  END
> <s_m_source_file>
AV-unprocessed.smi

> <i_m_source_file_index>
1961

> <i_lp_mmshare_version>
43012

> <i_f3d_flags>
0

> <s_epik_input>
W0NIM11bQ0hdKFtDSDNdKWMxbm5jKHMxKVtOSF1DKD1PKVtOSF1bQ0gyXVtDQEBIXTJbQ0gyXVtDSDJdW0NIMl1PMg==

> <s_epik_cmdline>
J2VwaWtfcHl0aG9uJywgJy1waCcsICc3LjAnLCAnLXRuJywgJzgnLCAnLW1hJywgJzIwMCcsICctbWV0YWxfYmluZGluZycsICctaW1hZScsICc8aW5maWxlLm1hZT4nLCAnLW9tYWUnLCAnPG91dGZpbGUubWFlPic=

> <r_lp_tautomer_probability>
1

> <r_epik_Ionization_Penalty>
4.36179

> <r_epik_Ionization_Penalty_Charging>
4.21437

> <r_epik_Ionization_Penalty_Neutral>
0.147417

> <r_epik_State_Penalty>
4.21389

> <r_epik_Charging_Adjusted_Penalty>
8.42826

> <i_epik_Tot_Q>
-1

> <i_epik_Tot_abs_Q>
1

> <r_epik_Metal_State_Penalty>
0.693772

> <b_epik_Metal_Only>
1

> <s_lp_Force_Field>
OPLS_2005

> <r_lp_Energy>
8.68115

> <b_lp_Chiralities_Consistent>
1

> <s_lp_Variant>
AV-unprocessed.smi:1961-3

> <Gold.Version>
5.8.1

> <Gold.Id.Protein>
6NUR|6NUR_protein|mol2

> <Gold.PLP.Fitness>
42.5551

> <Gold.PLP.PLP>
-35.5789

> <Gold.PLP.part.hbond>
-2.0000

> <Gold.PLP.part.metal>
0.0000

> <Gold.PLP.part.buried>
-2.2500

> <Gold.PLP.part.nonpolar>
-29.1385

> <Gold.PLP.part.repulsive>
0.2776

> <Gold.PLP.ligand.clash>
0.0000

> <Gold.PLP.ligand.torsion>
0.6382

> <Gold.PLP.Chemscore.Hbond>
2.7040

> <Gold.PLP.Chemscore.CHOScore>
0.0000

> <Gold.PLP.Chemscore.Metal>
0.0000

> <Gold.Chemscore.Hbonds>
donor molecule, donor type, donor heavy atom, donor atom, acceptor molecule, acceptor atom, score
      P1  H  7989  7998       L1    17  0.55
      P1  H  7997  8009       L1     8  2.00

> <Gold.PLP.Chemscore.Internal.Correction>
0.1407

> <Gold.Rescore>
     Score         DG    S(hbond)    S(metal)    S(lipo)     H(rot)  DE(clash)    DE(int)     intcor
     15.36     -16.11       1.21        0.00      87.26       1.42       0.01       0.73       ----

> <Gold.Chemscore.Fitness>
15.3611

> <Gold.Chemscore.DG>
-16.1097

> <Gold.Chemscore.ZeroCoef>
-5.4800

> <Gold.Chemscore.Hbond>
1.2135

> <Gold.Chemscore.Metal>
0.0000

> <Gold.Chemscore.Lipo>
87.2648

> <Gold.Chemscore.Internal_Hbond>
0.0000

> <Gold.Chemscore.DEClash>
0.0149

> <Gold.Chemscore.DEInternal>
0.7338

> <Gold.Chemscore.Rot>
1.4193

> <Gold.Chemscore.Internal.Correction>
   9.000000E+99

> <Gold.Chemscore.Hbonds>
donor molecule, donor type, donor heavy atom, donor atom, acceptor molecule, acceptor atom, score
      P1  H  7989  7998       L1    17  0.16
      P1  H  7997  8009       L1     8  0.23

> <Gold.Chemscore.Hbond.Weighted>
-4.0531

> <Gold.Chemscore.Metal.Weighted>
-0.0000

> <Gold.Chemscore.Lipo.Weighted>
-10.2100

> <Gold.Chemscore.Internal_Hbond.Weighted>
0.0000

> <Gold.Chemscore.DEClash.Weighted>
0.0149

> <Gold.Chemscore.DEInternal.Weighted>
0.7338

> <Gold.Chemscore.Rot.Weighted>
3.6333

> <Gold.Chemscore.Internal.Correction.Weighted>
   9.000000E+99

> <Gold.Protein.RotatedTorsions>
[ 6907 6896 6895 6894 ] final    0.78 input  -60.11 | X-H torsion
[ 7974 7965 7964 7962 ] final    7.10 input  175.53 | X-H torsion
[ 8008 7997 7996 7995 ] final  134.42 input   59.86 | X-H torsion
[ 10167 10162 10161 10158 ] final  -67.74 input  -65.29 | X-H torsion
[ 10718 10713 10712 10709 ] final  -90.58 input   66.30 | X-H torsion
[ 10763 10752 10751 10750 ] final -179.53 input  -60.55 | X-H torsion
[ 11005 11000 10999 10996 ] final   62.43 input  -57.11 | X-H torsion

> <Gold.Protein.ActiveResidues>
 VAL166  LYS551  ARG553  GLY616  TRP617  ASP618  TYR619  PRO620  LYS621  CYS622 
 ASP623  PHE694  ASN695  SER759  ASP760  ASP761  ALA762  ILE779  LEU786  VAL792 
 PHE793  MET794  SER795  GLU796  ALA797  LYS798  CYS799  TRP800  GLU811  SER814 

> <Gold.Protein.RotatedAtoms>
  151.5819  135.1058  160.0019 H   0  0  0  0  0  0  0  0  0  0  0  0  # atno 6907 bound_to 6896
  152.4349  133.7339  159.6614 H   0  0  0  0  0  0  0  0  0  0  0  0  # atno 6908 bound_to 6896
  150.8246  133.8124  159.3147 H   0  0  0  0  0  0  0  0  0  0  0  0  # atno 6909 bound_to 6896
  146.2429  140.0134  142.8404 H   0  0  0  0  0  0  0  0  0  0  0  0  # atno 7974 bound_to 7965
  156.2999  140.2496  156.3415 H   0  0  0  0  0  0  0  0  0  0  0  0  # atno 8008 bound_to 7997
  154.9051  140.0405  157.1934 H   0  0  0  0  0  0  0  0  0  0  0  0  # atno 8009 bound_to 7997
  154.8461  140.2898  155.5632 H   0  0  0  0  0  0  0  0  0  0  0  0  # atno 8010 bound_to 7997
  140.5560  143.2312  151.6820 H   0  0  0  0  0  0  0  0  0  0  0  0  # atno 10167 bound_to 10162
  155.9988  130.4915  150.5344 H   0  0  0  0  0  0  0  0  0  0  0  0  # atno 10718 bound_to 10713
  154.5339  135.2801  155.1155 H   0  0  0  0  0  0  0  0  0  0  0  0  # atno 10763 bound_to 10752
  154.2665  135.6312  153.5297 H   0  0  0  0  0  0  0  0  0  0  0  0  # atno 10764 bound_to 10752
  152.9963  135.5618  154.5860 H   0  0  0  0  0  0  0  0  0  0  0  0  # atno 10765 bound_to 10752
  140.0092  134.6322  155.9806 H   0  0  0  0  0  0  0  0  0  0  0  0  # atno 11005 bound_to 11000
  145.1307  140.9516  143.4546 LP  0  0  0  0  0  0  0  0  0  0  0  0  # atno 17320 bound_to 7965
  145.0390  139.3276  143.5986 LP  0  0  0  0  0  0  0  0  0  0  0  0  # atno 17321 bound_to 7965
  139.5048  144.3741  152.0441 LP  0  0  0  0  0  0  0  0  0  0  0  0  # atno 17342 bound_to 10162
  140.2862  144.3804  150.6103 LP  0  0  0  0  0  0  0  0  0  0  0  0  # atno 17343 bound_to 10162
  157.3289  131.0696  151.1876 LP  0  0  0  0  0  0  0  0  0  0  0  0  # atno 17370 bound_to 10713
  157.2763  130.6728  149.6044 LP  0  0  0  0  0  0  0  0  0  0  0  0  # atno 17371 bound_to 10713
  141.1699  133.6537  156.4614 LP  0  0  0  0  0  0  0  0  0  0  0  0  # atno 17394 bound_to 11000
  140.4585  134.6863  157.5074 LP  0  0  0  0  0  0  0  0  0  0  0  0  # atno 17395 bound_to 11000

$$$$
