AV-unprocessed.smi:739|AV-procd|sdf|3545|dock8
  -GOLD-   22720 0543D 1   1.00000     0.00000
 Structure written by MMmdl.
 33 35  0  0  0  0  0  0  0  0  2 V2000
  146.9178  137.5556  151.0004 O   0  0  0  0  0  0  0  0  0  0  0  0
  146.3750  137.9847  152.2344 C   0  0  1  0  0  0  0  0  0  0  0  0
  145.9329  136.7605  153.0601 C   0  0  0  0  0  0  0  0  0  0  0  0
  145.1400  135.8021  152.2794 N   0  0  0  0  0  0  0  0  0  0  0  0
  143.9417  135.9618  151.6549 C   0  0  0  0  0  0  0  0  0  0  0  0
  143.6240  134.7744  151.0675 N   0  3  0  0  0  0  0  0  0  0  0  0
  144.6341  133.8433  151.3213 C   0  0  0  0  0  0  0  0  0  0  0  0
  144.7659  132.5120  150.9394 C   0  0  0  0  0  0  0  0  0  0  0  0
  145.9292  131.8399  151.3696 C   0  0  0  0  0  0  0  0  0  0  0  0
  146.1086  130.5430  151.0246 F   0  0  0  0  0  0  0  0  0  0  0  0
  146.9075  132.4917  152.1507 C   0  0  0  0  0  0  0  0  0  0  0  0
  148.0095  131.8095  152.5427 F   0  0  0  0  0  0  0  0  0  0  0  0
  146.7623  133.8418  152.5324 C   0  0  0  0  0  0  0  0  0  0  0  0
  145.6107  134.4977  152.1007 C   0  0  0  0  0  0  0  0  0  0  0  0
  147.3422  138.8576  153.0182 C   0  0  0  0  0  0  0  0  0  0  0  0
  147.0732  140.2334  153.1834 C   0  0  0  0  0  0  0  0  0  0  0  0
  147.9592  141.0474  153.9156 C   0  0  0  0  0  0  0  0  0  0  0  0
  149.1180  140.4900  154.4894 C   0  0  0  0  0  0  0  0  0  0  0  0
  149.9690  141.2731  155.1933 F   0  0  0  0  0  0  0  0  0  0  0  0
  149.3897  139.1173  154.3319 C   0  0  0  0  0  0  0  0  0  0  0  0
  148.5045  138.3030  153.5989 C   0  0  0  0  0  0  0  0  0  0  0  0
  147.3087  136.7041  151.1258 H   0  0  0  0  0  0  0  0  0  0  0  0
  145.4964  138.5842  151.9930 H   0  0  0  0  0  0  0  0  0  0  0  0
  146.8024  136.2270  153.4471 H   0  0  0  0  0  0  0  0  0  0  0  0
  145.3468  137.0656  153.9280 H   0  0  0  0  0  0  0  0  0  0  0  0
  143.3492  136.8654  151.6330 H   0  0  0  0  0  0  0  0  0  0  0  0
  144.0192  132.0095  150.3422 H   0  0  0  0  0  0  0  0  0  0  0  0
  147.5161  134.3312  153.1309 H   0  0  0  0  0  0  0  0  0  0  0  0
  146.1855  140.6708  152.7499 H   0  0  0  0  0  0  0  0  0  0  0  0
  147.7492  142.0998  154.0379 H   0  0  0  0  0  0  0  0  0  0  0  0
  150.2768  138.6885  154.7742 H   0  0  0  0  0  0  0  0  0  0  0  0
  148.7204  137.2505  153.4868 H   0  0  0  0  0  0  0  0  0  0  0  0
  142.7786  134.6154  150.5341 H   0  0  0  0  0  0  0  0  0  0  0  0
  1  2  1  0  0  0  0
  1 22  1  0  0  0  0
  2  3  1  0  0  0  0
  2 15  1  0  0  0  0
  2 23  1  0  0  0  0
  3  4  1  0  0  0  0
  3 24  1  0  0  0  0
  3 25  1  0  0  0  0
  4 14  1  0  0  0  0
  4  5  1  0  0  0  0
  5  6  2  0  0  0  0
  5 26  1  0  0  0  0
  6  7  1  0  0  0  0
  6 33  1  0  0  0  0
  7 14  2  0  0  0  0
  7  8  1  0  0  0  0
  8  9  2  0  0  0  0
  8 27  1  0  0  0  0
  9 10  1  0  0  0  0
  9 11  1  0  0  0  0
 11 12  1  0  0  0  0
 11 13  2  0  0  0  0
 13 14  1  0  0  0  0
 13 28  1  0  0  0  0
 15 21  1  0  0  0  0
 15 16  2  0  0  0  0
 16 17  1  0  0  0  0
 16 29  1  0  0  0  0
 17 18  2  0  0  0  0
 17 30  1  0  0  0  0
 18 19  1  0  0  0  0
 18 20  1  0  0  0  0
 20 21  2  0  0  0  0
 20 31  1  0  0  0  0
 21 32  1  0  0  0  0
M  CHG  1   6   1
M  END
> <s_m_source_file>
AV-unprocessed.smi

> <i_m_source_file_index>
739

> <i_lp_mmshare_version>
43012

> <i_f3d_flags>
0

> <s_epik_input>
W2NIXTFbY0hdYyhGKVtjSF1bY0hdYzFbQ0BIXShbT0hdKVtDSDJdbihbY0hdbjIpYyhjMjMpW2NIXWMoRiljKEYpW2NIXTM=

> <s_epik_cmdline>
J2VwaWtfcHl0aG9uJywgJy1waCcsICc3LjAnLCAnLXRuJywgJzgnLCAnLW1hJywgJzIwMCcsICctbWV0YWxfYmluZGluZycsICctaW1hZScsICc8aW5maWxlLm1hZT4nLCAnLW9tYWUnLCAnPG91dGZpbGUubWFlPic=

> <r_epik_Ionization_Penalty>
2.16139

> <r_epik_Ionization_Penalty_Charging>
2.16138

> <r_epik_Ionization_Penalty_Neutral>
1.79538e-06

> <r_epik_State_Penalty>
2.30198

> <r_epik_Charging_Adjusted_Penalty>
4.46337

> <i_epik_Tot_Q>
1

> <i_epik_Tot_abs_Q>
1

> <r_epik_Metal_State_Penalty>
6.38245

> <b_epik_Metal_Only>
0

> <s_lp_Force_Field>
OPLS_2005

> <r_lp_Energy>
14.9103

> <b_lp_Chiralities_Consistent>
1

> <s_lp_Variant>
AV-unprocessed.smi:739-4

> <Gold.Version>
5.8.1

> <Gold.Id.Protein>
6NUR|6NUR_protein|mol2

> <Gold.PLP.Fitness>
50.8522

> <Gold.PLP.PLP>
-38.5893

> <Gold.PLP.part.hbond>
-2.7139

> <Gold.PLP.part.metal>
0.0000

> <Gold.PLP.part.buried>
-2.1072

> <Gold.PLP.part.nonpolar>
-35.5326

> <Gold.PLP.part.repulsive>
0.0097

> <Gold.PLP.ligand.clash>
0.0000

> <Gold.PLP.ligand.torsion>
0.1896

> <Gold.PLP.Chemscore.Hbond>
3.3420

> <Gold.PLP.Chemscore.CHOScore>
0.8650

> <Gold.PLP.Chemscore.Metal>
0.0000

> <Gold.Chemscore.Hbonds>
donor molecule, donor type, donor heavy atom, donor atom, acceptor molecule, acceptor atom, score
      L1  H     1    22       P1  7948  0.61
      L1  H     6    33       P1 10186  2.00
      P1  H  7954  7966       L1     1  0.35
      L1  C     5    26       P1 10171  0.74

> <Gold.PLP.Chemscore.Internal.Correction>
0.0210

> <Gold.Rescore>
     Score         DG    S(hbond)    S(metal)    S(lipo)     H(rot)  DE(clash)    DE(int)     intcor
     14.33     -14.66       1.46        0.00      83.19       2.12       0.25       0.08       ----

> <Gold.Chemscore.Fitness>
14.3318

> <Gold.Chemscore.DG>
-14.6636

> <Gold.Chemscore.ZeroCoef>
-5.4800

> <Gold.Chemscore.Hbond>
1.4587

> <Gold.Chemscore.Metal>
0.0000

> <Gold.Chemscore.Lipo>
83.1853

> <Gold.Chemscore.Internal_Hbond>
0.0000

> <Gold.Chemscore.DEClash>
0.2547

> <Gold.Chemscore.DEInternal>
0.0771

> <Gold.Chemscore.Rot>
2.1176

> <Gold.Chemscore.Internal.Correction>
   9.000000E+99

> <Gold.Chemscore.Hbonds>
donor molecule, donor type, donor heavy atom, donor atom, acceptor molecule, acceptor atom, score
      L1  H     1    22       P1  7948  0.62
      L1  H     6    33       P1 10186  0.28
      P1  H  7954  7966       L1     1  0.01

> <Gold.Chemscore.Hbond.Weighted>
-4.8720

> <Gold.Chemscore.Metal.Weighted>
-0.0000

> <Gold.Chemscore.Lipo.Weighted>
-9.7327

> <Gold.Chemscore.Internal_Hbond.Weighted>
0.0000

> <Gold.Chemscore.DEClash.Weighted>
0.2547

> <Gold.Chemscore.DEInternal.Weighted>
0.0771

> <Gold.Chemscore.Rot.Weighted>
5.4211

> <Gold.Chemscore.Internal.Correction.Weighted>
   9.000000E+99

> <Gold.Protein.RotatedTorsions>
[ 6907 6896 6895 6894 ] final  154.36 input  -60.11 | X-H torsion
[ 7974 7965 7964 7962 ] final    6.78 input  175.53 | X-H torsion
[ 8008 7997 7996 7995 ] final  171.90 input   59.86 | X-H torsion
[ 10167 10162 10161 10158 ] final  153.23 input  -65.29 | X-H torsion
[ 10718 10713 10712 10709 ] final    1.96 input   66.30 | X-H torsion
[ 10763 10752 10751 10750 ] final   10.38 input  -60.55 | X-H torsion
[ 11005 11000 10999 10996 ] final -141.81 input  -57.11 | X-H torsion

> <Gold.Protein.ActiveResidues>
 VAL166  LYS551  ARG553  GLY616  TRP617  ASP618  TYR619  PRO620  LYS621  CYS622 
 ASP623  PHE694  ASN695  SER759  ASP760  ASP761  ALA762  ILE779  LEU786  VAL792 
 PHE793  MET794  SER795  GLU796  ALA797  LYS798  CYS799  TRP800  GLU811  SER814 

> <Gold.Protein.RotatedAtoms>
  152.0595  133.4055  159.4411 H   0  0  0  0  0  0  0  0  0  0  0  0  # atno 6907 bound_to 6896
  150.6867  134.3216  159.4798 H   0  0  0  0  0  0  0  0  0  0  0  0  # atno 6908 bound_to 6896
  152.1035  134.9324  160.0619 H   0  0  0  0  0  0  0  0  0  0  0  0  # atno 6909 bound_to 6896
  146.2432  140.0182  142.8400 H   0  0  0  0  0  0  0  0  0  0  0  0  # atno 7974 bound_to 7965
  156.1226  140.1500  156.9182 H   0  0  0  0  0  0  0  0  0  0  0  0  # atno 8008 bound_to 7997
  154.4847  140.0868  156.7501 H   0  0  0  0  0  0  0  0  0  0  0  0  # atno 8009 bound_to 7997
  155.4400  140.3430  155.4291 H   0  0  0  0  0  0  0  0  0  0  0  0  # atno 8010 bound_to 7997
  139.4828  144.5290  151.7753 H   0  0  0  0  0  0  0  0  0  0  0  0  # atno 10167 bound_to 10162
  156.8560  130.5570  149.5666 H   0  0  0  0  0  0  0  0  0  0  0  0  # atno 10718 bound_to 10713
  153.2039  135.6860  153.8197 H   0  0  0  0  0  0  0  0  0  0  0  0  # atno 10763 bound_to 10752
  153.7454  135.3232  155.3312 H   0  0  0  0  0  0  0  0  0  0  0  0  # atno 10764 bound_to 10752
  154.8186  135.4668  154.0817 H   0  0  0  0  0  0  0  0  0  0  0  0  # atno 10765 bound_to 10752
  140.8287  134.2543  157.4867 H   0  0  0  0  0  0  0  0  0  0  0  0  # atno 11005 bound_to 11000
  145.1265  140.9493  143.4569 LP  0  0  0  0  0  0  0  0  0  0  0  0  # atno 17320 bound_to 7965
  145.0429  139.3245  143.5967 LP  0  0  0  0  0  0  0  0  0  0  0  0  # atno 17321 bound_to 7965
  140.4814  144.1444  150.5933 LP  0  0  0  0  0  0  0  0  0  0  0  0  # atno 17342 bound_to 10162
  140.4273  143.2584  151.9640 LP  0  0  0  0  0  0  0  0  0  0  0  0  # atno 17343 bound_to 10162
  156.0802  130.5815  150.9549 LP  0  0  0  0  0  0  0  0  0  0  0  0  # atno 17370 bound_to 10713
  157.6277  131.0924  150.8502 LP  0  0  0  0  0  0  0  0  0  0  0  0  # atno 17371 bound_to 10713
  139.8705  134.9574  156.4269 LP  0  0  0  0  0  0  0  0  0  0  0  0  # atno 17394 bound_to 11000
  140.9021  133.7772  155.9692 LP  0  0  0  0  0  0  0  0  0  0  0  0  # atno 17395 bound_to 11000

$$$$
