AV-unprocessed.smi:2124|AV-procd|sdf|8659|dock2
  -GOLD-   2272011403D 1   1.00000     0.00000
 Structure written by MMmdl.
 47 49  0  0  0  0  0  0  0  0  1 V2000
  152.2011  142.4410  160.0970 C   0  0  0  0  0  0  0  0  0  0  0  0
  151.5804  141.2252  159.4441 C   0  0  0  0  0  0  0  0  0  0  0  0
  150.2952  141.4412  158.9744 N   0  0  0  0  0  0  0  0  0  0  0  0
  149.6440  140.3852  158.3616 C   0  0  0  0  0  0  0  0  0  0  0  0
  148.2436  140.7061  157.8697 C   0  0  0  0  0  0  0  0  0  0  0  0
  150.2432  139.1752  158.2246 C   0  0  0  0  0  0  0  0  0  0  0  0
  149.5667  137.9851  157.5453 C   0  0  0  0  0  0  0  0  0  0  0  0
  149.4594  136.7032  158.3756 C   0  0  0  0  0  0  0  0  0  0  0  0
  150.4693  136.1506  158.8127 O   0  0  0  0  0  0  0  0  0  0  0  0
  148.2167  136.2439  158.5863 N   0  0  0  0  0  0  0  0  0  0  0  0
  147.8726  135.0467  159.3501 C   0  0  1  0  0  0  0  0  0  0  0  0
  148.5280  133.8192  158.6947 C   0  0  0  0  0  0  0  0  0  0  0  0
  148.3080  135.2202  160.8238 C   0  0  2  0  0  0  0  0  0  0  0  0
  148.2993  133.9198  161.6590 C   0  0  0  0  0  0  0  0  0  0  0  0
  147.5119  134.3222  162.9200 C   0  0  2  0  0  0  0  0  0  0  0  0
  146.0186  134.4408  162.5641 C   0  0  0  0  0  0  0  0  0  0  0  0
  145.9710  135.7376  161.7361 C   0  0  0  0  0  0  0  0  0  0  0  0
  147.4508  136.1727  161.6961 C   0  0  1  0  0  0  0  0  0  0  0  0
  147.9109  135.7826  163.0972 C   0  0  0  0  0  0  0  0  0  0  0  0
  151.6214  139.0065  158.7423 C   0  0  0  0  0  0  0  0  0  0  0  0
  152.2221  137.9382  158.6354 O   0  0  0  0  0  0  0  0  0  0  0  0
  152.2364  140.1079  159.3592 N   0  0  0  0  0  0  0  0  0  0  0  0
  149.8131  142.3249  159.0549 H   0  0  0  0  0  0  0  0  0  0  0  0
  153.2291  142.2389  160.4004 H   0  0  0  0  0  0  0  0  0  0  0  0
  151.6337  142.7268  160.9831 H   0  0  0  0  0  0  0  0  0  0  0  0
  152.2110  143.2825  159.4036 H   0  0  0  0  0  0  0  0  0  0  0  0
  148.1589  140.5042  156.8017 H   0  0  0  0  0  0  0  0  0  0  0  0
  147.9905  141.7545  158.0330 H   0  0  0  0  0  0  0  0  0  0  0  0
  147.5074  140.0983  158.3959 H   0  0  0  0  0  0  0  0  0  0  0  0
  150.1148  137.7410  156.6354 H   0  0  0  0  0  0  0  0  0  0  0  0
  148.5707  138.2672  157.2014 H   0  0  0  0  0  0  0  0  0  0  0  0
  147.4482  136.7635  158.1877 H   0  0  0  0  0  0  0  0  0  0  0  0
  146.7924  134.8980  159.3239 H   0  0  0  0  0  0  0  0  0  0  0  0
  148.2691  132.9008  159.2215 H   0  0  0  0  0  0  0  0  0  0  0  0
  149.6153  133.9037  158.6903 H   0  0  0  0  0  0  0  0  0  0  0  0
  148.1996  133.7030  157.6613 H   0  0  0  0  0  0  0  0  0  0  0  0
  149.3258  135.6147  160.8238 H   0  0  0  0  0  0  0  0  0  0  0  0
  147.8294  133.0815  161.1430 H   0  0  0  0  0  0  0  0  0  0  0  0
  149.3176  133.6219  161.9112 H   0  0  0  0  0  0  0  0  0  0  0  0
  147.7066  133.6812  163.7802 H   0  0  0  0  0  0  0  0  0  0  0  0
  145.6556  133.5769  162.0058 H   0  0  0  0  0  0  0  0  0  0  0  0
  145.4095  134.5376  163.4637 H   0  0  0  0  0  0  0  0  0  0  0  0
  145.5341  135.5944  160.7484 H   0  0  0  0  0  0  0  0  0  0  0  0
  145.3689  136.4887  162.2487 H   0  0  0  0  0  0  0  0  0  0  0  0
  147.5873  137.2272  161.4551 H   0  0  0  0  0  0  0  0  0  0  0  0
  147.3604  136.2889  163.8923 H   0  0  0  0  0  0  0  0  0  0  0  0
  148.9811  135.9225  163.2593 H   0  0  0  0  0  0  0  0  0  0  0  0
  1 24  1  0  0  0  0
  1 25  1  0  0  0  0
  1 26  1  0  0  0  0
  1  2  1  0  0  0  0
  2  3  1  0  0  0  0
  2 22  2  0  0  0  0
  3  4  1  0  0  0  0
  3 23  1  0  0  0  0
  4  6  2  0  0  0  0
  4  5  1  0  0  0  0
  5 27  1  0  0  0  0
  5 28  1  0  0  0  0
  5 29  1  0  0  0  0
  6 20  1  0  0  0  0
  6  7  1  0  0  0  0
  7  8  1  0  0  0  0
  7 30  1  0  0  0  0
  7 31  1  0  0  0  0
  8  9  2  0  0  0  0
  8 10  1  0  0  0  0
 10 11  1  0  0  0  0
 10 32  1  0  0  0  0
 11 12  1  0  0  0  0
 11 13  1  0  0  0  0
 11 33  1  0  0  0  0
 12 34  1  0  0  0  0
 12 35  1  0  0  0  0
 12 36  1  0  0  0  0
 13 18  1  0  0  0  0
 13 14  1  0  0  0  0
 13 37  1  0  0  0  0
 14 15  1  0  0  0  0
 14 38  1  0  0  0  0
 14 39  1  0  0  0  0
 15 19  1  0  0  0  0
 15 16  1  0  0  0  0
 15 40  1  0  0  0  0
 16 17  1  0  0  0  0
 16 41  1  0  0  0  0
 16 42  1  0  0  0  0
 17 18  1  0  0  0  0
 17 43  1  0  0  0  0
 17 44  1  0  0  0  0
 18 19  1  0  0  0  0
 18 45  1  0  0  0  0
 19 46  1  0  0  0  0
 19 47  1  0  0  0  0
 20 21  2  0  0  0  0
 20 22  1  0  0  0  0
M  END
> <s_m_source_file>
AV-unprocessed.smi

> <i_m_source_file_index>
2124

> <i_lp_mmshare_version>
43012

> <i_f3d_flags>
0

> <s_epik_input>
W0NIM11jMW5jKFtDSDNdKWMoYyg9TylbbkhdMSlbQ0gyXUMoPU8pW05IXVtDQEhdKFtDSDNdKVtDQEhdKFtDSDJdW0NASF0yMylbQ0BIXShbQ0gyXTMpW0NIMl1bQ0gyXTI=

> <s_epik_cmdline>
J2VwaWtfcHl0aG9uJywgJy1waCcsICc3LjAnLCAnLXRuJywgJzgnLCAnLW1hJywgJzIwMCcsICctbWV0YWxfYmluZGluZycsICctaW1hZScsICc8aW5maWxlLm1hZT4nLCAnLW9tYWUnLCAnPG91dGZpbGUubWFlPic=

> <r_lp_tautomer_probability>
0.156392

> <r_epik_Ionization_Penalty>
0.0139374

> <r_epik_Ionization_Penalty_Charging>
0.0138122

> <r_epik_Ionization_Penalty_Neutral>
0.000125146

> <r_epik_State_Penalty>
1.15342

> <r_epik_Charging_Adjusted_Penalty>
1.16723

> <i_epik_Tot_Q>
0

> <i_epik_Tot_abs_Q>
0

> <r_epik_Metal_State_Penalty>
1.3173

> <b_epik_Metal_Only>
0

> <s_lp_Force_Field>
OPLS_2005

> <r_lp_Energy>
55.6294

> <b_lp_Chiralities_Consistent>
1

> <s_lp_Variant>
AV-unprocessed.smi:2124-10

> <Gold.Version>
5.8.1

> <Gold.Id.Protein>
6NUR|6NUR_protein|mol2

> <Gold.PLP.Fitness>
38.3412

> <Gold.PLP.PLP>
-35.7776

> <Gold.PLP.part.hbond>
-1.0000

> <Gold.PLP.part.metal>
0.0000

> <Gold.PLP.part.buried>
-6.2458

> <Gold.PLP.part.nonpolar>
-29.3371

> <Gold.PLP.part.repulsive>
0.2540

> <Gold.PLP.ligand.clash>
0.0000

> <Gold.PLP.ligand.torsion>
0.2243

> <Gold.PLP.Chemscore.Hbond>
1.0000

> <Gold.PLP.Chemscore.CHOScore>
0.0000

> <Gold.PLP.Chemscore.Metal>
0.0000

> <Gold.Chemscore.Hbonds>
donor molecule, donor type, donor heavy atom, donor atom, acceptor molecule, acceptor atom, score
      P1  H  6896  6907       L1     9  0.96

> <Gold.PLP.Chemscore.Internal.Correction>
0.0122

> <Gold.Rescore>
     Score         DG    S(hbond)    S(metal)    S(lipo)     H(rot)  DE(clash)    DE(int)     intcor
     13.45     -15.55       1.46        0.00      80.62       1.65       0.16       1.94       ----

> <Gold.Chemscore.Fitness>
13.4488

> <Gold.Chemscore.DG>
-15.5484

> <Gold.Chemscore.ZeroCoef>
-5.4800

> <Gold.Chemscore.Hbond>
1.4575

> <Gold.Chemscore.Metal>
0.0000

> <Gold.Chemscore.Lipo>
80.6249

> <Gold.Chemscore.Internal_Hbond>
0.0000

> <Gold.Chemscore.DEClash>
0.1632

> <Gold.Chemscore.DEInternal>
1.9364

> <Gold.Chemscore.Rot>
1.6534

> <Gold.Chemscore.Internal.Correction>
   9.000000E+99

> <Gold.Chemscore.Hbonds>
donor molecule, donor type, donor heavy atom, donor atom, acceptor molecule, acceptor atom, score
      P1  H  6896  6907       L1     9  0.91

> <Gold.Chemscore.Hbond.Weighted>
-4.8679

> <Gold.Chemscore.Metal.Weighted>
-0.0000

> <Gold.Chemscore.Lipo.Weighted>
-9.4331

> <Gold.Chemscore.Internal_Hbond.Weighted>
0.0000

> <Gold.Chemscore.DEClash.Weighted>
0.1632

> <Gold.Chemscore.DEInternal.Weighted>
1.9364

> <Gold.Chemscore.Rot.Weighted>
4.2326

> <Gold.Chemscore.Internal.Correction.Weighted>
   9.000000E+99

> <Gold.Protein.RotatedTorsions>
[ 6907 6896 6895 6894 ] final  -52.49 input  -60.11 | X-H torsion
[ 7974 7965 7964 7962 ] final  -47.90 input  175.53 | X-H torsion
[ 8008 7997 7996 7995 ] final   61.88 input   59.86 | X-H torsion
[ 10167 10162 10161 10158 ] final -167.45 input  -65.29 | X-H torsion
[ 10718 10713 10712 10709 ] final   73.85 input   66.30 | X-H torsion
[ 10763 10752 10751 10750 ] final  115.97 input  -60.55 | X-H torsion
[ 11005 11000 10999 10996 ] final  123.76 input  -57.11 | X-H torsion

> <Gold.Protein.ActiveResidues>
 VAL166  LYS551  ARG553  GLY616  TRP617  ASP618  TYR619  PRO620  LYS621  CYS622 
 ASP623  PHE694  ASN695  SER759  ASP760  ASP761  ALA762  ILE779  LEU786  VAL792 
 PHE793  MET794  SER795  GLU796  ALA797  LYS798  CYS799  TRP800  GLU811  SER814 

> <Gold.Protein.RotatedAtoms>
  150.8513  134.7838  159.7010 H   0  0  0  0  0  0  0  0  0  0  0  0  # atno 6907 bound_to 6896
  152.4577  134.5252  159.9804 H   0  0  0  0  0  0  0  0  0  0  0  0  # atno 6908 bound_to 6896
  151.5373  133.3401  159.2964 H   0  0  0  0  0  0  0  0  0  0  0  0  # atno 6909 bound_to 6896
  145.9568  140.7519  142.9477 H   0  0  0  0  0  0  0  0  0  0  0  0  # atno 7974 bound_to 7965
  155.6054  140.3494  155.4606 H   0  0  0  0  0  0  0  0  0  0  0  0  # atno 8008 bound_to 7997
  156.0196  140.1251  157.0396 H   0  0  0  0  0  0  0  0  0  0  0  0  # atno 8009 bound_to 7997
  154.4310  140.1065  156.5930 H   0  0  0  0  0  0  0  0  0  0  0  0  # atno 8010 bound_to 7997
  139.6048  144.0935  152.1782 H   0  0  0  0  0  0  0  0  0  0  0  0  # atno 10167 bound_to 10162
  157.6566  130.9649  150.1127 H   0  0  0  0  0  0  0  0  0  0  0  0  # atno 10718 bound_to 10713
  153.5302  135.3579  155.2672 H   0  0  0  0  0  0  0  0  0  0  0  0  # atno 10763 bound_to 10752
  154.8727  135.4066  154.3160 H   0  0  0  0  0  0  0  0  0  0  0  0  # atno 10764 bound_to 10752
  153.3847  135.7069  153.6607 H   0  0  0  0  0  0  0  0  0  0  0  0  # atno 10765 bound_to 10752
  139.9327  134.9641  156.8308 H   0  0  0  0  0  0  0  0  0  0  0  0  # atno 11005 bound_to 11000
  144.6806  140.2525  143.7330 LP  0  0  0  0  0  0  0  0  0  0  0  0  # atno 17320 bound_to 7965
  145.8095  139.1997  143.2001 LP  0  0  0  0  0  0  0  0  0  0  0  0  # atno 17321 bound_to 7965
  140.0539  144.5910  150.7314 LP  0  0  0  0  0  0  0  0  0  0  0  0  # atno 17342 bound_to 10162
  140.7277  143.2654  151.4063 LP  0  0  0  0  0  0  0  0  0  0  0  0  # atno 17343 bound_to 10162
  156.2019  130.3661  149.8777 LP  0  0  0  0  0  0  0  0  0  0  0  0  # atno 17370 bound_to 10713
  156.6678  130.8808  151.3557 LP  0  0  0  0  0  0  0  0  0  0  0  0  # atno 17371 bound_to 10713
  140.6158  134.0040  155.7596 LP  0  0  0  0  0  0  0  0  0  0  0  0  # atno 17394 bound_to 11000
  141.0925  133.9895  157.3214 LP  0  0  0  0  0  0  0  0  0  0  0  0  # atno 17395 bound_to 11000

$$$$
