AV-unprocessed.smi:2171|AV-procd|sdf|8827|dock3
  -GOLD-   2272012 23D 1   1.00000     0.00000
 Structure written by MMmdl.
 39 41  0  0  0  0  0  0  0  0  2 V2000
  144.5894  135.6812  153.7671 O   0  0  0  0  0  0  0  0  0  0  0  0
  145.7845  135.7204  153.4762 C   0  0  0  0  0  0  0  0  0  0  0  0
  146.5367  134.4342  153.1377 C   0  0  0  0  0  0  0  0  0  0  0  0
  145.8308  133.6872  152.1116 N   0  0  0  0  0  0  0  0  0  0  0  0
  146.1625  132.4667  151.5615 C   0  0  0  0  0  0  0  0  0  0  0  0
  145.1928  132.1539  150.6524 C   0  0  0  0  0  0  0  0  0  0  0  0
  144.2976  133.2580  150.7187 C   0  0  0  0  0  0  0  0  0  0  0  0
  144.6803  134.1732  151.5944 N   0  0  0  0  0  0  0  0  0  0  0  0
  146.4906  136.8585  153.4012 N   0  0  0  0  0  0  0  0  0  0  0  0
  145.9318  138.1978  153.5516 C   0  0  1  0  0  0  0  0  0  0  0  0
  145.4303  138.4900  154.9724 C   0  0  0  0  0  0  0  0  0  0  0  0
  145.6774  139.9946  155.1843 C   0  0  0  0  0  0  0  0  0  0  0  0
  146.3083  140.4880  153.9397 N   0  3  1  0  0  0  0  0  0  0  0  0
  147.1491  141.7064  154.0608 C   0  0  0  0  0  0  0  0  0  0  0  0
  148.5444  141.4107  154.6361 C   0  0  0  0  0  0  0  0  0  0  0  0
  149.2384  140.3066  153.8321 C   0  0  0  0  0  0  0  0  0  0  0  0
  148.3684  139.0454  153.8317 C   0  0  0  0  0  0  0  0  0  0  0  0
  146.9444  139.3248  153.2825 C   0  0  1  0  0  0  0  0  0  0  0  0
  147.5466  134.6635  152.7939 H   0  0  0  0  0  0  0  0  0  0  0  0
  146.6319  133.8097  154.0270 H   0  0  0  0  0  0  0  0  0  0  0  0
  147.0490  131.9279  151.8624 H   0  0  0  0  0  0  0  0  0  0  0  0
  145.1321  131.2705  150.0343 H   0  0  0  0  0  0  0  0  0  0  0  0
  143.3866  133.4195  150.1612 H   0  0  0  0  0  0  0  0  0  0  0  0
  147.4684  136.7920  153.1552 H   0  0  0  0  0  0  0  0  0  0  0  0
  145.0883  138.3149  152.8679 H   0  0  0  0  0  0  0  0  0  0  0  0
  144.3786  138.2259  155.0884 H   0  0  0  0  0  0  0  0  0  0  0  0
  145.9944  137.9186  155.7112 H   0  0  0  0  0  0  0  0  0  0  0  0
  144.7515  140.5381  155.3740 H   0  0  0  0  0  0  0  0  0  0  0  0
  146.3339  140.1457  156.0417 H   0  0  0  0  0  0  0  0  0  0  0  0
  147.2583  142.1360  153.0643 H   0  0  0  0  0  0  0  0  0  0  0  0
  146.6324  142.4535  154.6643 H   0  0  0  0  0  0  0  0  0  0  0  0
  149.1499  142.3175  154.6206 H   0  0  0  0  0  0  0  0  0  0  0  0
  148.4664  141.1131  155.6823 H   0  0  0  0  0  0  0  0  0  0  0  0
  149.4122  140.6413  152.8086 H   0  0  0  0  0  0  0  0  0  0  0  0
  150.2166  140.0871  154.2610 H   0  0  0  0  0  0  0  0  0  0  0  0
  148.8564  138.2723  153.2369 H   0  0  0  0  0  0  0  0  0  0  0  0
  148.3111  138.6554  154.8488 H   0  0  0  0  0  0  0  0  0  0  0  0
  147.0158  139.5221  152.2119 H   0  0  0  0  0  0  0  0  0  0  0  0
  145.5332  140.7402  153.3429 H   0  0  0  0  0  0  0  0  0  0  0  0
  1  2  2  0  0  0  0
  2  3  1  0  0  0  0
  2  9  1  0  0  0  0
  3  4  1  0  0  0  0
  3 19  1  0  0  0  0
  3 20  1  0  0  0  0
  4  8  1  0  0  0  0
  4  5  1  0  0  0  0
  5  6  2  0  0  0  0
  5 21  1  0  0  0  0
  6  7  1  0  0  0  0
  6 22  1  0  0  0  0
  7  8  2  0  0  0  0
  7 23  1  0  0  0  0
  9 10  1  0  0  0  0
  9 24  1  0  0  0  0
 10 18  1  0  0  0  0
 10 11  1  0  0  0  0
 10 25  1  0  0  0  0
 11 12  1  0  0  0  0
 11 26  1  0  0  0  0
 11 27  1  0  0  0  0
 12 13  1  0  0  0  0
 12 28  1  0  0  0  0
 12 29  1  0  0  0  0
 13 18  1  0  0  0  0
 13 14  1  0  0  0  0
 13 39  1  0  0  0  0
 14 15  1  0  0  0  0
 14 30  1  0  0  0  0
 14 31  1  0  0  0  0
 15 16  1  0  0  0  0
 15 32  1  0  0  0  0
 15 33  1  0  0  0  0
 16 17  1  0  0  0  0
 16 34  1  0  0  0  0
 16 35  1  0  0  0  0
 17 18  1  0  0  0  0
 17 36  1  0  0  0  0
 17 37  1  0  0  0  0
 18 38  1  0  0  0  0
M  CHG  1  13   1
M  END
> <s_m_source_file>
AV-unprocessed.smi

> <i_m_source_file_index>
2171

> <i_lp_mmshare_version>
43012

> <i_f3d_flags>
0

> <s_epik_input>
bjFbY0hdW2NIXVtjSF1uMVtDSDJdQyg9TylbTkhdW0NASF0oW0NIMl1bQ0gyXTIpW0NAQEhdKE4yMylbQ0gyXVtDSDJdW0NIMl1bQ0gyXTM=

> <s_epik_cmdline>
J2VwaWtfcHl0aG9uJywgJy1waCcsICc3LjAnLCAnLXRuJywgJzgnLCAnLW1hJywgJzIwMCcsICctbWV0YWxfYmluZGluZycsICctaW1hZScsICc8aW5maWxlLm1hZT4nLCAnLW9tYWUnLCAnPG91dGZpbGUubWFlPic=

> <r_lp_tautomer_probability>
1

> <r_epik_Ionization_Penalty>
0.00204179

> <r_epik_Ionization_Penalty_Charging>
0.00203239

> <r_epik_Ionization_Penalty_Neutral>
9.40205e-06

> <r_epik_State_Penalty>
0.00138983

> <r_epik_Charging_Adjusted_Penalty>
0.00342221

> <i_epik_Tot_Q>
1

> <i_epik_Tot_abs_Q>
1

> <r_epik_Metal_State_Penalty>
-0

> <b_epik_Metal_Only>
0

> <s_lp_Force_Field>
OPLS_2005

> <r_lp_Energy>
35.3096

> <b_lp_Chiralities_Consistent>
1

> <s_lp_Variant>
AV-unprocessed.smi:2171-2

> <Gold.Version>
5.8.1

> <Gold.Id.Protein>
6NUR|6NUR_protein|mol2

> <Gold.PLP.Fitness>
40.6299

> <Gold.PLP.PLP>
-25.8180

> <Gold.PLP.part.hbond>
-2.0000

> <Gold.PLP.part.metal>
0.0000

> <Gold.PLP.part.buried>
0.0327

> <Gold.PLP.part.nonpolar>
-24.1072

> <Gold.PLP.part.repulsive>
0.1996

> <Gold.PLP.ligand.clash>
0.0000

> <Gold.PLP.ligand.torsion>
0.0974

> <Gold.PLP.Chemscore.Hbond>
3.0000

> <Gold.PLP.Chemscore.CHOScore>
2.0000

> <Gold.PLP.Chemscore.Metal>
0.0000

> <Gold.Chemscore.Hbonds>
donor molecule, donor type, donor heavy atom, donor atom, acceptor molecule, acceptor atom, score
      L1  H     9    24       P1  7948  0.96
      L1  H    13    39       P1 10175  1.89
      L1  C     5    21       P1 10747  0.51
      L1  C     7    23       P1 10186  0.69

> <Gold.PLP.Chemscore.Internal.Correction>
0.0068

> <Gold.Rescore>
     Score         DG    S(hbond)    S(metal)    S(lipo)     H(rot)  DE(clash)    DE(int)     intcor
     13.67     -16.85       1.98        0.00      72.03       1.44       1.62       1.56       ----

> <Gold.Chemscore.Fitness>
13.6654

> <Gold.Chemscore.DG>
-16.8452

> <Gold.Chemscore.ZeroCoef>
-5.4800

> <Gold.Chemscore.Hbond>
1.9841

> <Gold.Chemscore.Metal>
0.0000

> <Gold.Chemscore.Lipo>
72.0270

> <Gold.Chemscore.Internal_Hbond>
0.0000

> <Gold.Chemscore.DEClash>
1.6244

> <Gold.Chemscore.DEInternal>
1.5554

> <Gold.Chemscore.Rot>
1.4410

> <Gold.Chemscore.Internal.Correction>
   9.000000E+99

> <Gold.Chemscore.Hbonds>
donor molecule, donor type, donor heavy atom, donor atom, acceptor molecule, acceptor atom, score
      L1  H     9    24       P1  7948  0.87
      L1  H    13    39       P1 10175  0.73

> <Gold.Chemscore.Hbond.Weighted>
-6.6270

> <Gold.Chemscore.Metal.Weighted>
-0.0000

> <Gold.Chemscore.Lipo.Weighted>
-8.4272

> <Gold.Chemscore.Internal_Hbond.Weighted>
0.0000

> <Gold.Chemscore.DEClash.Weighted>
1.6244

> <Gold.Chemscore.DEInternal.Weighted>
1.5554

> <Gold.Chemscore.Rot.Weighted>
3.6889

> <Gold.Chemscore.Internal.Correction.Weighted>
   9.000000E+99

> <Gold.Protein.RotatedTorsions>
[ 6907 6896 6895 6894 ] final  124.07 input  -60.11 | X-H torsion
[ 7974 7965 7964 7962 ] final  122.14 input  175.53 | X-H torsion
[ 8008 7997 7996 7995 ] final  -82.20 input   59.86 | X-H torsion
[ 10167 10162 10161 10158 ] final  -20.98 input  -65.29 | X-H torsion
[ 10718 10713 10712 10709 ] final  -44.21 input   66.30 | X-H torsion
[ 10763 10752 10751 10750 ] final  -70.48 input  -60.55 | X-H torsion
[ 11005 11000 10999 10996 ] final    0.97 input  -57.11 | X-H torsion

> <Gold.Protein.ActiveResidues>
 VAL166  LYS551  ARG553  GLY616  TRP617  ASP618  TYR619  PRO620  LYS621  CYS622 
 ASP623  PHE694  ASN695  SER759  ASP760  ASP761  ALA762  ILE779  LEU786  VAL792 
 PHE793  MET794  SER795  GLU796  ALA797  LYS798  CYS799  TRP800  GLU811  SER814 

> <Gold.Protein.RotatedAtoms>
  152.4109  133.6962  159.6396 H   0  0  0  0  0  0  0  0  0  0  0  0  # atno 6907 bound_to 6896
  150.7989  133.8626  159.3245 H   0  0  0  0  0  0  0  0  0  0  0  0  # atno 6908 bound_to 6896
  151.6369  135.1019  160.0185 H   0  0  0  0  0  0  0  0  0  0  0  0  # atno 6909 bound_to 6896
  145.1110  139.3453  143.4763 H   0  0  0  0  0  0  0  0  0  0  0  0  # atno 7974 bound_to 7965
  154.6061  140.0636  156.9433 H   0  0  0  0  0  0  0  0  0  0  0  0  # atno 8008 bound_to 7997
  155.2050  140.3318  155.4319 H   0  0  0  0  0  0  0  0  0  0  0  0  # atno 8009 bound_to 7997
  156.2348  140.1858  156.7131 H   0  0  0  0  0  0  0  0  0  0  0  0  # atno 8010 bound_to 7997
  140.7279  143.4670  151.0299 H   0  0  0  0  0  0  0  0  0  0  0  0  # atno 10167 bound_to 10162
  156.2410  130.4180  149.8761 H   0  0  0  0  0  0  0  0  0  0  0  0  # atno 10718 bound_to 10713
  154.4183  135.5992  153.5994 H   0  0  0  0  0  0  0  0  0  0  0  0  # atno 10763 bound_to 10752
  152.9793  135.5946  154.3986 H   0  0  0  0  0  0  0  0  0  0  0  0  # atno 10764 bound_to 10752
  154.3808  135.2841  155.2191 H   0  0  0  0  0  0  0  0  0  0  0  0  # atno 10765 bound_to 10752
  140.6207  133.9664  155.8223 H   0  0  0  0  0  0  0  0  0  0  0  0  # atno 11005 bound_to 11000
  146.3526  140.1029  142.8607 LP  0  0  0  0  0  0  0  0  0  0  0  0  # atno 17320 bound_to 7965
  145.0847  140.9244  143.4804 LP  0  0  0  0  0  0  0  0  0  0  0  0  # atno 17321 bound_to 7965
  139.8359  143.7628  152.3180 LP  0  0  0  0  0  0  0  0  0  0  0  0  # atno 17342 bound_to 10162
  139.7760  144.7461  151.0156 LP  0  0  0  0  0  0  0  0  0  0  0  0  # atno 17343 bound_to 10162
  156.6343  130.8678  151.3501 LP  0  0  0  0  0  0  0  0  0  0  0  0  # atno 17370 bound_to 10713
  157.7175  130.9515  150.1310 LP  0  0  0  0  0  0  0  0  0  0  0  0  # atno 17371 bound_to 10713
  141.0744  134.0156  157.3479 LP  0  0  0  0  0  0  0  0  0  0  0  0  # atno 17394 bound_to 11000
  139.9155  135.0196  156.7862 LP  0  0  0  0  0  0  0  0  0  0  0  0  # atno 17395 bound_to 11000

$$$$
