AV-unprocessed.smi:1828|AV-procd|sdf|7425|dock9
  -GOLD-   22720 9103D 1   1.00000     0.00000
 Structure written by MMmdl.
 39 41  0  0  0  0  0  0  0  0  1 V2000
  152.7070  137.6151  154.3935 O   0  0  0  0  0  0  0  0  0  0  0  0
  151.4647  138.0199  154.9294 C   0  0  0  0  0  0  0  0  0  0  0  0
  151.5687  139.2700  155.7559 C   0  0  0  0  0  0  0  0  0  0  0  0
  150.9424  140.3895  155.3884 N   0  0  0  0  0  0  0  0  0  0  0  0
  151.2965  141.2817  156.3794 C   0  0  0  0  0  0  0  0  0  0  0  0
  150.9570  142.6423  156.5546 C   0  0  0  0  0  0  0  0  0  0  0  0
  151.4479  143.3634  157.6626 C   0  0  0  0  0  0  0  0  0  0  0  0
  152.2834  142.7357  158.6089 C   0  0  0  0  0  0  0  0  0  0  0  0
  152.6328  141.3805  158.4529 C   0  0  0  0  0  0  0  0  0  0  0  0
  152.1394  140.6649  157.3452 C   0  0  0  0  0  0  0  0  0  0  0  0
  152.2894  139.3522  156.9070 N   0  0  0  0  0  0  0  0  0  0  0  0
  153.0778  138.3277  157.5822 C   0  0  0  0  0  0  0  0  0  0  0  0
  152.7165  138.1986  159.0760 C   0  0  1  0  0  0  0  0  0  0  0  0
  151.3581  137.8216  159.1724 O   0  0  0  0  0  0  0  0  0  0  0  0
  153.6396  137.2447  159.8222 C   0  0  0  0  0  0  0  0  0  0  0  0
  154.4667  136.3389  159.1226 C   0  0  0  0  0  0  0  0  0  0  0  0
  155.3298  135.4793  159.8278 C   0  0  0  0  0  0  0  0  0  0  0  0
  155.3771  135.5244  161.2340 C   0  0  0  0  0  0  0  0  0  0  0  0
  154.5630  136.4324  161.9449 C   0  0  0  0  0  0  0  0  0  0  0  0
  154.6126  136.4890  163.4643 C   0  0  0  0  0  0  0  0  0  0  0  0
  154.4840  135.2684  163.9858 F   0  0  0  0  0  0  0  0  0  0  0  0
  155.7836  136.9978  163.8453 F   0  0  0  0  0  0  0  0  0  0  0  0
  153.6339  137.2544  163.9487 F   0  0  0  0  0  0  0  0  0  0  0  0
  153.6899  137.2820  161.2323 C   0  0  0  0  0  0  0  0  0  0  0  0
  152.8324  138.0507  153.5646 H   0  0  0  0  0  0  0  0  0  0  0  0
  150.7690  138.2002  154.1097 H   0  0  0  0  0  0  0  0  0  0  0  0
  151.0678  137.1864  155.5030 H   0  0  0  0  0  0  0  0  0  0  0  0
  150.3188  143.1320  155.8342 H   0  0  0  0  0  0  0  0  0  0  0  0
  151.1825  144.4032  157.7864 H   0  0  0  0  0  0  0  0  0  0  0  0
  152.6556  143.2952  159.4547 H   0  0  0  0  0  0  0  0  0  0  0  0
  153.2735  140.8975  159.1756 H   0  0  0  0  0  0  0  0  0  0  0  0
  152.8787  137.3811  157.0782 H   0  0  0  0  0  0  0  0  0  0  0  0
  154.1422  138.5091  157.4412 H   0  0  0  0  0  0  0  0  0  0  0  0
  152.7909  139.1818  159.5428 H   0  0  0  0  0  0  0  0  0  0  0  0
  151.2779  136.9203  158.8993 H   0  0  0  0  0  0  0  0  0  0  0  0
  154.4476  136.3035  158.0432 H   0  0  0  0  0  0  0  0  0  0  0  0
  155.9596  134.7866  159.2895 H   0  0  0  0  0  0  0  0  0  0  0  0
  156.0437  134.8598  161.7634 H   0  0  0  0  0  0  0  0  0  0  0  0
  153.0631  137.9785  161.7699 H   0  0  0  0  0  0  0  0  0  0  0  0
  1  2  1  0  0  0  0
  1 25  1  0  0  0  0
  2  3  1  0  0  0  0
  2 26  1  0  0  0  0
  2 27  1  0  0  0  0
  3 11  1  0  0  0  0
  3  4  2  0  0  0  0
  4  5  1  0  0  0  0
  5 10  2  0  0  0  0
  5  6  1  0  0  0  0
  6  7  2  0  0  0  0
  6 28  1  0  0  0  0
  7  8  1  0  0  0  0
  7 29  1  0  0  0  0
  8  9  2  0  0  0  0
  8 30  1  0  0  0  0
  9 10  1  0  0  0  0
  9 31  1  0  0  0  0
 10 11  1  0  0  0  0
 11 12  1  0  0  0  0
 12 13  1  0  0  0  0
 12 32  1  0  0  0  0
 12 33  1  0  0  0  0
 13 14  1  0  0  0  0
 13 15  1  0  0  0  0
 13 34  1  0  0  0  0
 14 35  1  0  0  0  0
 15 24  1  0  0  0  0
 15 16  2  0  0  0  0
 16 17  1  0  0  0  0
 16 36  1  0  0  0  0
 17 18  2  0  0  0  0
 17 37  1  0  0  0  0
 18 19  1  0  0  0  0
 18 38  1  0  0  0  0
 19 20  1  0  0  0  0
 19 24  2  0  0  0  0
 20 21  1  0  0  0  0
 20 22  1  0  0  0  0
 20 23  1  0  0  0  0
 24 39  1  0  0  0  0
M  END
> <s_m_source_file>
AV-unprocessed.smi

> <i_m_source_file_index>
1828

> <i_lp_mmshare_version>
43012

> <i_f3d_flags>
0

> <s_epik_input>
W2NIXTFbY0hdW2NIXVtjSF1jKGMxMiluKGMobjIpW0NIMl1bT0hdKVtDSDJdW0NASF0oW09IXSljM1tjSF1bY0hdW2NIXWMoQyhGKShGKUYpW2NIXTM=

> <s_epik_cmdline>
J2VwaWtfcHl0aG9uJywgJy1waCcsICc3LjAnLCAnLXRuJywgJzgnLCAnLW1hJywgJzIwMCcsICctbWV0YWxfYmluZGluZycsICctaW1hZScsICc8aW5maWxlLm1hZT4nLCAnLW9tYWUnLCAnPG91dGZpbGUubWFlPic=

> <r_epik_Ionization_Penalty>
0.0634719

> <r_epik_Ionization_Penalty_Charging>
0

> <r_epik_Ionization_Penalty_Neutral>
0.0634719

> <r_epik_State_Penalty>
0.0551572

> <r_epik_Charging_Adjusted_Penalty>
0.0551572

> <i_epik_Tot_Q>
0

> <i_epik_Tot_abs_Q>
0

> <r_epik_Metal_State_Penalty>
5.78034e-05

> <b_epik_Metal_Only>
0

> <s_lp_Force_Field>
OPLS_2005

> <r_lp_Energy>
14.211

> <b_lp_Chiralities_Consistent>
1

> <s_lp_Variant>
AV-unprocessed.smi:1828-2

> <Gold.Version>
5.8.1

> <Gold.Id.Protein>
6NUR|6NUR_protein|mol2

> <Gold.PLP.Fitness>
44.6174

> <Gold.PLP.PLP>
-41.8031

> <Gold.PLP.part.hbond>
-2.0000

> <Gold.PLP.part.metal>
0.0000

> <Gold.PLP.part.buried>
-4.2569

> <Gold.PLP.part.nonpolar>
-34.1059

> <Gold.PLP.part.repulsive>
0.0349

> <Gold.PLP.ligand.clash>
1.1881

> <Gold.PLP.ligand.torsion>
0.7244

> <Gold.PLP.Chemscore.Hbond>
1.4320

> <Gold.PLP.Chemscore.CHOScore>
0.0000

> <Gold.PLP.Chemscore.Metal>
0.0000

> <Gold.Chemscore.Hbonds>
donor molecule, donor type, donor heavy atom, donor atom, acceptor molecule, acceptor atom, score
      P1  H  7989  7998       L1     4  0.91
      P1  H 10752 10765       L1     1  0.51

> <Gold.PLP.Chemscore.Internal.Correction>
1.1551

> <Gold.Rescore>
     Score         DG    S(hbond)    S(metal)    S(lipo)     H(rot)  DE(clash)    DE(int)     intcor
     13.20     -13.78       1.04        0.00     105.02       2.91       0.19       0.39       ----

> <Gold.Chemscore.Fitness>
13.2044

> <Gold.Chemscore.DG>
-13.7840

> <Gold.Chemscore.ZeroCoef>
-5.4800

> <Gold.Chemscore.Hbond>
1.0408

> <Gold.Chemscore.Metal>
0.0000

> <Gold.Chemscore.Lipo>
105.0229

> <Gold.Chemscore.Internal_Hbond>
0.0000

> <Gold.Chemscore.DEClash>
0.1866

> <Gold.Chemscore.DEInternal>
0.3930

> <Gold.Chemscore.Rot>
2.9141

> <Gold.Chemscore.Internal.Correction>
   9.000000E+99

> <Gold.Chemscore.Hbonds>
donor molecule, donor type, donor heavy atom, donor atom, acceptor molecule, acceptor atom, score
      P1  H  7989  7998       L1     4  0.45
      P1  H 10752 10765       L1     1  0.29

> <Gold.Chemscore.Hbond.Weighted>
-3.4763

> <Gold.Chemscore.Metal.Weighted>
-0.0000

> <Gold.Chemscore.Lipo.Weighted>
-12.2877

> <Gold.Chemscore.Internal_Hbond.Weighted>
0.0000

> <Gold.Chemscore.DEClash.Weighted>
0.1866

> <Gold.Chemscore.DEInternal.Weighted>
0.3930

> <Gold.Chemscore.Rot.Weighted>
7.4600

> <Gold.Chemscore.Internal.Correction.Weighted>
   9.000000E+99

> <Gold.Protein.RotatedTorsions>
[ 6907 6896 6895 6894 ] final -100.72 input  -60.11 | X-H torsion
[ 7974 7965 7964 7962 ] final -110.94 input  175.53 | X-H torsion
[ 8008 7997 7996 7995 ] final -107.30 input   59.86 | X-H torsion
[ 10167 10162 10161 10158 ] final  -21.41 input  -65.29 | X-H torsion
[ 10718 10713 10712 10709 ] final   19.47 input   66.30 | X-H torsion
[ 10763 10752 10751 10750 ] final  149.79 input  -60.55 | X-H torsion
[ 11005 11000 10999 10996 ] final  120.77 input  -57.11 | X-H torsion

> <Gold.Protein.ActiveResidues>
 VAL166  LYS551  ARG553  GLY616  TRP617  ASP618  TYR619  PRO620  LYS621  CYS622 
 ASP623  PHE694  ASN695  SER759  ASP760  ASP761  ALA762  ILE779  LEU786  VAL792 
 PHE793  MET794  SER795  GLU796  ALA797  LYS798  CYS799  TRP800  GLU811  SER814 

> <Gold.Protein.RotatedAtoms>
  150.7126  134.0844  159.3909 H   0  0  0  0  0  0  0  0  0  0  0  0  # atno 6907 bound_to 6896
  151.8828  135.0444  160.0500 H   0  0  0  0  0  0  0  0  0  0  0  0  # atno 6908 bound_to 6896
  152.2554  133.5215  159.5386 H   0  0  0  0  0  0  0  0  0  0  0  0  # atno 6909 bound_to 6896
  145.1621  140.8883  143.3585 H   0  0  0  0  0  0  0  0  0  0  0  0  # atno 7974 bound_to 7965
  154.9273  140.0406  157.2030 H   0  0  0  0  0  0  0  0  0  0  0  0  # atno 8008 bound_to 7997
  154.8195  140.2881  155.5775 H   0  0  0  0  0  0  0  0  0  0  0  0  # atno 8009 bound_to 7997
  156.2978  140.2521  156.3099 H   0  0  0  0  0  0  0  0  0  0  0  0  # atno 8010 bound_to 7997
  140.7282  143.4630  151.0352 H   0  0  0  0  0  0  0  0  0  0  0  0  # atno 10167 bound_to 10162
  157.1110  130.6508  149.5897 H   0  0  0  0  0  0  0  0  0  0  0  0  # atno 10718 bound_to 10713
  154.0770  135.2862  155.3297 H   0  0  0  0  0  0  0  0  0  0  0  0  # atno 10763 bound_to 10752
  154.6709  135.5300  153.8140 H   0  0  0  0  0  0  0  0  0  0  0  0  # atno 10764 bound_to 10752
  153.0463  135.6557  154.0947 H   0  0  0  0  0  0  0  0  0  0  0  0  # atno 10765 bound_to 10752
  139.9199  134.9636  156.7858 H   0  0  0  0  0  0  0  0  0  0  0  0  # atno 11005 bound_to 11000
  145.0320  139.3332  143.6019 LP  0  0  0  0  0  0  0  0  0  0  0  0  # atno 17320 bound_to 7965
  146.3481  139.9661  142.8711 LP  0  0  0  0  0  0  0  0  0  0  0  0  # atno 17321 bound_to 7965
  139.8317  143.7683  152.3180 LP  0  0  0  0  0  0  0  0  0  0  0  0  # atno 17342 bound_to 10162
  139.7800  144.7447  151.0101 LP  0  0  0  0  0  0  0  0  0  0  0  0  # atno 17343 bound_to 10162
  155.9850  130.4878  150.7013 LP  0  0  0  0  0  0  0  0  0  0  0  0  # atno 17370 bound_to 10713
  157.4559  131.0878  151.0796 LP  0  0  0  0  0  0  0  0  0  0  0  0  # atno 17371 bound_to 10713
  140.6507  133.9734  155.7754 LP  0  0  0  0  0  0  0  0  0  0  0  0  # atno 17394 bound_to 11000
  141.0710  134.0206  157.3526 LP  0  0  0  0  0  0  0  0  0  0  0  0  # atno 17395 bound_to 11000

$$$$
