AV-unprocessed.smi:1165|AV-procd|sdf|4928|dock1
  -GOLD-   22720 3513D 1   1.00000     0.00000
 Structure written by MMmdl.
 41 42  0  0  0  0  0  0  0  0  1 V2000
  152.2665  138.8059  154.9687 C   0  0  0  0  0  0  0  0  0  0  0  0
  150.7691  139.0965  155.1147 C   0  0  2  0  0  0  0  0  0  0  0  0
  149.9201  137.8216  154.9746 C   0  0  0  0  0  0  0  0  0  0  0  0
  148.4864  138.1502  154.9873 N   0  0  0  0  0  0  0  0  0  0  0  0
  147.3582  136.8661  155.2659 S   0  0  0  0  0  0  0  0  0  0  0  0
  148.0153  135.8294  156.0767 O   0  0  0  0  0  0  0  0  0  0  0  0
  146.0760  137.4593  155.6745 O   0  0  0  0  0  0  0  0  0  0  0  0
  147.2010  136.2697  153.6542 N   0  0  0  0  0  0  0  0  0  0  0  0
  146.2268  135.2178  153.3659 C   0  0  0  0  0  0  0  0  0  0  0  0
  146.7894  134.2412  152.3267 C   0  0  0  0  0  0  0  0  0  0  0  0
  145.6892  133.5051  151.5886 C   0  0  0  0  0  0  0  0  0  0  0  0
  144.3342  133.6953  151.9297 C   0  0  0  0  0  0  0  0  0  0  0  0
  143.3498  132.9824  151.2184 C   0  0  0  0  0  0  0  0  0  0  0  0
  143.7637  132.1067  150.1947 C   0  0  0  0  0  0  0  0  0  0  0  0
  145.0582  131.9159  149.8604 N   0  0  0  0  0  0  0  0  0  0  0  0
  145.9959  132.6038  150.5468 C   0  0  0  0  0  0  0  0  0  0  0  0
  148.1209  139.1771  154.0009 C   0  0  0  0  0  0  0  0  0  0  0  0
  149.0299  140.4156  154.1212 C   0  0  1  0  0  0  0  0  0  0  0  0
  148.6860  141.3057  155.3295 C   0  0  0  0  0  0  0  0  0  0  0  0
  150.4038  140.0340  154.1077 O   0  0  0  0  0  0  0  0  0  0  0  0
  152.6056  138.0988  155.7262 H   0  0  0  0  0  0  0  0  0  0  0  0
  152.8523  139.7185  155.0802 H   0  0  0  0  0  0  0  0  0  0  0  0
  152.4930  138.3825  153.9897 H   0  0  0  0  0  0  0  0  0  0  0  0
  150.6088  139.5327  156.1009 H   0  0  0  0  0  0  0  0  0  0  0  0
  150.1541  137.3063  154.0420 H   0  0  0  0  0  0  0  0  0  0  0  0
  150.1545  137.1321  155.7853 H   0  0  0  0  0  0  0  0  0  0  0  0
  148.0984  136.1474  153.1859 H   0  0  0  0  0  0  0  0  0  0  0  0
  145.9873  134.6864  154.2875 H   0  0  0  0  0  0  0  0  0  0  0  0
  145.3039  135.6731  153.0048 H   0  0  0  0  0  0  0  0  0  0  0  0
  147.4093  134.7760  151.6055 H   0  0  0  0  0  0  0  0  0  0  0  0
  147.4387  133.5106  152.8109 H   0  0  0  0  0  0  0  0  0  0  0  0
  144.0527  134.3726  152.7227 H   0  0  0  0  0  0  0  0  0  0  0  0
  142.3023  133.1028  151.4525 H   0  0  0  0  0  0  0  0  0  0  0  0
  143.0354  131.5442  149.6295 H   0  0  0  0  0  0  0  0  0  0  0  0
  147.0218  132.4271  150.2583 H   0  0  0  0  0  0  0  0  0  0  0  0
  148.2100  138.7450  153.0034 H   0  0  0  0  0  0  0  0  0  0  0  0
  147.0773  139.4653  154.1274 H   0  0  0  0  0  0  0  0  0  0  0  0
  148.8781  141.0247  153.2298 H   0  0  0  0  0  0  0  0  0  0  0  0
  147.6761  141.7059  155.2387 H   0  0  0  0  0  0  0  0  0  0  0  0
  149.3705  142.1515  155.3974 H   0  0  0  0  0  0  0  0  0  0  0  0
  148.7314  140.7601  156.2718 H   0  0  0  0  0  0  0  0  0  0  0  0
  1  2  1  0  0  0  0
  1 21  1  0  0  0  0
  1 22  1  0  0  0  0
  1 23  1  0  0  0  0
  2 20  1  0  0  0  0
  2  3  1  0  0  0  0
  2 24  1  0  0  0  0
  3  4  1  0  0  0  0
  3 25  1  0  0  0  0
  3 26  1  0  0  0  0
  4  5  1  0  0  0  0
  4 17  1  0  0  0  0
  5  6  2  0  0  0  0
  5  7  2  0  0  0  0
  5  8  1  0  0  0  0
  8  9  1  0  0  0  0
  8 27  1  0  0  0  0
  9 10  1  0  0  0  0
  9 28  1  0  0  0  0
  9 29  1  0  0  0  0
 10 11  1  0  0  0  0
 10 30  1  0  0  0  0
 10 31  1  0  0  0  0
 11 16  1  0  0  0  0
 11 12  2  0  0  0  0
 12 13  1  0  0  0  0
 12 32  1  0  0  0  0
 13 14  2  0  0  0  0
 13 33  1  0  0  0  0
 14 15  1  0  0  0  0
 14 34  1  0  0  0  0
 15 16  2  0  0  0  0
 16 35  1  0  0  0  0
 17 18  1  0  0  0  0
 17 36  1  0  0  0  0
 17 37  1  0  0  0  0
 18 19  1  0  0  0  0
 18 20  1  0  0  0  0
 18 38  1  0  0  0  0
 19 39  1  0  0  0  0
 19 40  1  0  0  0  0
 19 41  1  0  0  0  0
M  END
> <s_m_source_file>
AV-unprocessed.smi

> <i_m_source_file_index>
1165

> <i_lp_mmshare_version>
43012

> <i_f3d_flags>
0

> <s_epik_input>
W0NIM11bQ0BASF0xW0NIMl1OKFtDSDJdW0NASF0oTzEpW0NIM10pUyg9TykoPU8pW05IXVtDSDJdW0NIMl1jMltjSF1bY0hdW2NIXW5bY0hdMg==

> <s_epik_cmdline>
J2VwaWtfcHl0aG9uJywgJy1waCcsICc3LjAnLCAnLXRuJywgJzgnLCAnLW1hJywgJzIwMCcsICctbWV0YWxfYmluZGluZycsICctaW1hZScsICc8aW5maWxlLm1hZT4nLCAnLW9tYWUnLCAnPG91dGZpbGUubWFlPic=

> <r_epik_Ionization_Penalty>
0.0861056

> <r_epik_Ionization_Penalty_Charging>
0

> <r_epik_Ionization_Penalty_Neutral>
0.0861056

> <r_epik_State_Penalty>
0.0574425

> <r_epik_Charging_Adjusted_Penalty>
0.0574425

> <i_epik_Tot_Q>
0

> <i_epik_Tot_abs_Q>
0

> <r_epik_Metal_State_Penalty>
0.317425

> <b_epik_Metal_Only>
0

> <s_lp_Force_Field>
OPLS_2005

> <r_lp_Energy>
8.25328

> <b_lp_Chiralities_Consistent>
1

> <s_lp_Variant>
AV-unprocessed.smi:1165-1

> <Gold.Version>
5.8.1

> <Gold.Id.Protein>
6NUR|6NUR_protein|mol2

> <Gold.PLP.Fitness>
40.6342

> <Gold.PLP.PLP>
-29.6351

> <Gold.PLP.part.hbond>
-1.8748

> <Gold.PLP.part.metal>
0.0000

> <Gold.PLP.part.buried>
-1.7492

> <Gold.PLP.part.nonpolar>
-26.8337

> <Gold.PLP.part.repulsive>
0.9735

> <Gold.PLP.ligand.clash>
0.0000

> <Gold.PLP.ligand.torsion>
1.0224

> <Gold.PLP.Chemscore.Hbond>
1.9920

> <Gold.PLP.Chemscore.CHOScore>
2.0000

> <Gold.PLP.Chemscore.Metal>
0.0000

> <Gold.Chemscore.Hbonds>
donor molecule, donor type, donor heavy atom, donor atom, acceptor molecule, acceptor atom, score
      L1  H     8    27       P1  7948  0.99
      P1  H  7989  7998       L1    20  1.00
      L1  C    14    34       P1 10952  1.00
      L1  C    16    35       P1 10747  1.00

> <Gold.PLP.Chemscore.Internal.Correction>
1.0680

> <Gold.Rescore>
     Score         DG    S(hbond)    S(metal)    S(lipo)     H(rot)  DE(clash)    DE(int)     intcor
     15.04     -17.02       1.87        0.00      82.50       1.71       1.03       0.95       ----

> <Gold.Chemscore.Fitness>
15.0357

> <Gold.Chemscore.DG>
-17.0192

> <Gold.Chemscore.ZeroCoef>
-5.4800

> <Gold.Chemscore.Hbond>
1.8726

> <Gold.Chemscore.Metal>
0.0000

> <Gold.Chemscore.Lipo>
82.4961

> <Gold.Chemscore.Internal_Hbond>
0.0000

> <Gold.Chemscore.DEClash>
1.0290

> <Gold.Chemscore.DEInternal>
0.9546

> <Gold.Chemscore.Rot>
1.7060

> <Gold.Chemscore.Internal.Correction>
   9.000000E+99

> <Gold.Chemscore.Hbonds>
donor molecule, donor type, donor heavy atom, donor atom, acceptor molecule, acceptor atom, score
      L1  H     8    27       P1  7948  0.91
      P1  H  7989  7998       L1    20  0.87

> <Gold.Chemscore.Hbond.Weighted>
-6.2545

> <Gold.Chemscore.Metal.Weighted>
-0.0000

> <Gold.Chemscore.Lipo.Weighted>
-9.6520

> <Gold.Chemscore.Internal_Hbond.Weighted>
0.0000

> <Gold.Chemscore.DEClash.Weighted>
1.0290

> <Gold.Chemscore.DEInternal.Weighted>
0.9546

> <Gold.Chemscore.Rot.Weighted>
4.3674

> <Gold.Chemscore.Internal.Correction.Weighted>
   9.000000E+99

> <Gold.Protein.RotatedTorsions>
[ 6907 6896 6895 6894 ] final  -91.30 input  -60.11 | X-H torsion
[ 7974 7965 7964 7962 ] final  108.79 input  175.53 | X-H torsion
[ 8008 7997 7996 7995 ] final  -14.98 input   59.86 | X-H torsion
[ 10167 10162 10161 10158 ] final -159.21 input  -65.29 | X-H torsion
[ 10718 10713 10712 10709 ] final    4.04 input   66.30 | X-H torsion
[ 10763 10752 10751 10750 ] final -174.30 input  -60.55 | X-H torsion
[ 11005 11000 10999 10996 ] final  -72.56 input  -57.11 | X-H torsion

> <Gold.Protein.ActiveResidues>
 VAL166  LYS551  ARG553  GLY616  TRP617  ASP618  TYR619  PRO620  LYS621  CYS622 
 ASP623  PHE694  ASN695  SER759  ASP760  ASP761  ALA762  ILE779  LEU786  VAL792 
 PHE793  MET794  SER795  GLU796  ALA797  LYS798  CYS799  TRP800  GLU811  SER814 

> <Gold.Protein.RotatedAtoms>
  150.6891  134.2299  159.4429 H   0  0  0  0  0  0  0  0  0  0  0  0  # atno 6907 bound_to 6896
  152.0250  134.9798  160.0580 H   0  0  0  0  0  0  0  0  0  0  0  0  # atno 6908 bound_to 6896
  152.1360  133.4401  159.4780 H   0  0  0  0  0  0  0  0  0  0  0  0  # atno 6909 bound_to 6896
  145.2762  139.2649  143.3940 H   0  0  0  0  0  0  0  0  0  0  0  0  # atno 7974 bound_to 7965
  154.5166  140.2208  155.9054 H   0  0  0  0  0  0  0  0  0  0  0  0  # atno 8008 bound_to 7997
  156.1615  140.3141  155.8780 H   0  0  0  0  0  0  0  0  0  0  0  0  # atno 8009 bound_to 7997
  155.3742  140.0468  157.3035 H   0  0  0  0  0  0  0  0  0  0  0  0  # atno 8010 bound_to 7997
  139.6632  143.9875  152.2238 H   0  0  0  0  0  0  0  0  0  0  0  0  # atno 10167 bound_to 10162
  156.8868  130.5673  149.5651 H   0  0  0  0  0  0  0  0  0  0  0  0  # atno 10718 bound_to 10713
  154.5978  135.2851  155.0567 H   0  0  0  0  0  0  0  0  0  0  0  0  # atno 10763 bound_to 10752
  154.1843  135.6451  153.5046 H   0  0  0  0  0  0  0  0  0  0  0  0  # atno 10764 bound_to 10752
  153.0145  135.5431  154.6687 H   0  0  0  0  0  0  0  0  0  0  0  0  # atno 10765 bound_to 10752
  141.1610  133.6851  156.7078 H   0  0  0  0  0  0  0  0  0  0  0  0  # atno 11005 bound_to 11000
  146.3231  140.3217  142.8634 LP  0  0  0  0  0  0  0  0  0  0  0  0  # atno 17320 bound_to 7965
  144.9293  140.7956  143.5699 LP  0  0  0  0  0  0  0  0  0  0  0  0  # atno 17321 bound_to 7965
  139.9620  144.6551  150.8071 LP  0  0  0  0  0  0  0  0  0  0  0  0  # atno 17342 bound_to 10162
  140.7589  143.3116  151.2831 LP  0  0  0  0  0  0  0  0  0  0  0  0  # atno 17343 bound_to 10162
  156.0649  130.5694  150.9268 LP  0  0  0  0  0  0  0  0  0  0  0  0  # atno 17370 bound_to 10713
  157.6108  131.0936  150.8799 LP  0  0  0  0  0  0  0  0  0  0  0  0  # atno 17371 bound_to 10713
  140.2910  134.8240  157.4016 LP  0  0  0  0  0  0  0  0  0  0  0  0  # atno 17394 bound_to 11000
  140.1347  134.5050  155.8078 LP  0  0  0  0  0  0  0  0  0  0  0  0  # atno 17395 bound_to 11000

$$$$
