AV-unprocessed.smi:1050|AV-procd|sdf|4613|dock6
  -GOLD-   22720 3113D 1   1.00000     0.00000
 Structure written by MMmdl.
 48 49  0  0  0  0  0  0  0  0  1 V2000
  151.3863  131.2867  157.4092 C   0  0  0  0  0  0  0  0  0  0  0  0
  151.2568  132.6988  157.2843 O   0  0  0  0  0  0  0  0  0  0  0  0
  150.3730  133.1933  156.3475 C   0  0  0  0  0  0  0  0  0  0  0  0
  149.3576  132.3490  155.8634 C   0  0  0  0  0  0  0  0  0  0  0  0
  148.4559  132.8529  154.9091 C   0  0  0  0  0  0  0  0  0  0  0  0
  148.6010  134.1862  154.4550 C   0  0  0  0  0  0  0  0  0  0  0  0
  147.7076  134.7888  153.5231 N   0  0  0  0  0  0  0  0  0  0  0  0
  146.4817  134.3870  153.1413 C   0  0  0  0  0  0  0  0  0  0  0  0
  145.9066  133.3879  153.5727 O   0  0  0  0  0  0  0  0  0  0  0  0
  145.7974  135.2662  152.0806 C   0  0  1  0  0  0  0  0  0  0  0  0
  145.5383  134.4870  150.7824 C   0  0  0  0  0  0  0  0  0  0  0  0
  144.5411  135.7390  152.5596 O   0  0  0  0  0  0  0  0  0  0  0  0
  143.5726  134.7310  152.8204 C   0  0  0  0  0  0  0  0  0  0  0  0
  149.6483  134.9679  155.0103 C   0  0  0  0  0  0  0  0  0  0  0  0
  149.8401  136.3018  154.6001 N   0  0  0  0  0  0  0  0  0  0  0  0
  151.2124  136.7779  154.7753 C   0  0  0  0  0  0  0  0  0  0  0  0
  151.4071  138.1446  154.0903 C   0  0  0  0  0  0  0  0  0  0  0  0
  150.3870  139.0782  154.5859 N   0  0  0  0  0  0  0  0  0  0  0  0
  150.6846  140.1558  155.3500 C   0  0  0  0  0  0  0  0  0  0  0  0
  149.5479  141.0254  155.8914 C   0  0  0  0  0  0  0  0  0  0  0  0
  151.8402  140.4709  155.6344 O   0  0  0  0  0  0  0  0  0  0  0  0
  149.0331  138.6092  154.2605 C   0  0  0  0  0  0  0  0  0  0  0  0
  148.7949  137.2604  154.9638 C   0  0  0  0  0  0  0  0  0  0  0  0
  150.5103  134.4746  155.9309 N   0  0  0  0  0  0  0  0  0  0  0  0
  152.1169  131.0588  158.1850 H   0  0  0  0  0  0  0  0  0  0  0  0
  151.7376  130.8339  156.4807 H   0  0  0  0  0  0  0  0  0  0  0  0
  150.4417  130.8234  157.6983 H   0  0  0  0  0  0  0  0  0  0  0  0
  149.2668  131.3346  156.2230 H   0  0  0  0  0  0  0  0  0  0  0  0
  147.6614  132.2120  154.5605 H   0  0  0  0  0  0  0  0  0  0  0  0
  148.0823  135.5833  153.0249 H   0  0  0  0  0  0  0  0  0  0  0  0
  146.4372  136.1179  151.8404 H   0  0  0  0  0  0  0  0  0  0  0  0
  146.4640  134.0804  150.3733 H   0  0  0  0  0  0  0  0  0  0  0  0
  145.1012  135.1364  150.0238 H   0  0  0  0  0  0  0  0  0  0  0  0
  144.8479  133.6577  150.9410 H   0  0  0  0  0  0  0  0  0  0  0  0
  142.6821  135.1887  153.2509 H   0  0  0  0  0  0  0  0  0  0  0  0
  143.9497  133.9985  153.5352 H   0  0  0  0  0  0  0  0  0  0  0  0
  143.2671  134.2094  151.9132 H   0  0  0  0  0  0  0  0  0  0  0  0
  151.4233  136.8624  155.8424 H   0  0  0  0  0  0  0  0  0  0  0  0
  151.9245  136.0589  154.3696 H   0  0  0  0  0  0  0  0  0  0  0  0
  152.4250  138.4986  154.2573 H   0  0  0  0  0  0  0  0  0  0  0  0
  151.3016  138.0398  153.0096 H   0  0  0  0  0  0  0  0  0  0  0  0
  148.8634  140.4344  156.5010 H   0  0  0  0  0  0  0  0  0  0  0  0
  148.9909  141.4840  155.0740 H   0  0  0  0  0  0  0  0  0  0  0  0
  149.9416  141.8271  156.5175 H   0  0  0  0  0  0  0  0  0  0  0  0
  148.2465  139.3107  154.5336 H   0  0  0  0  0  0  0  0  0  0  0  0
  148.9510  138.4850  153.1797 H   0  0  0  0  0  0  0  0  0  0  0  0
  147.8188  136.8621  154.6840 H   0  0  0  0  0  0  0  0  0  0  0  0
  148.7880  137.4063  156.0450 H   0  0  0  0  0  0  0  0  0  0  0  0
  1  2  1  0  0  0  0
  1 25  1  0  0  0  0
  1 26  1  0  0  0  0
  1 27  1  0  0  0  0
  2  3  1  0  0  0  0
  3 24  1  0  0  0  0
  3  4  2  0  0  0  0
  4  5  1  0  0  0  0
  4 28  1  0  0  0  0
  5  6  2  0  0  0  0
  5 29  1  0  0  0  0
  6  7  1  0  0  0  0
  6 14  1  0  0  0  0
  7  8  1  0  0  0  0
  7 30  1  0  0  0  0
  8  9  2  0  0  0  0
  8 10  1  0  0  0  0
 10 11  1  0  0  0  0
 10 12  1  0  0  0  0
 10 31  1  0  0  0  0
 11 32  1  0  0  0  0
 11 33  1  0  0  0  0
 11 34  1  0  0  0  0
 12 13  1  0  0  0  0
 13 35  1  0  0  0  0
 13 36  1  0  0  0  0
 13 37  1  0  0  0  0
 14 15  1  0  0  0  0
 14 24  2  0  0  0  0
 15 23  1  0  0  0  0
 15 16  1  0  0  0  0
 16 17  1  0  0  0  0
 16 38  1  0  0  0  0
 16 39  1  0  0  0  0
 17 18  1  0  0  0  0
 17 40  1  0  0  0  0
 17 41  1  0  0  0  0
 18 19  1  0  0  0  0
 18 22  1  0  0  0  0
 19 20  1  0  0  0  0
 19 21  2  0  0  0  0
 20 42  1  0  0  0  0
 20 43  1  0  0  0  0
 20 44  1  0  0  0  0
 22 23  1  0  0  0  0
 22 45  1  0  0  0  0
 22 46  1  0  0  0  0
 23 47  1  0  0  0  0
 23 48  1  0  0  0  0
M  END
> <s_m_source_file>
AV-unprocessed.smi

> <i_m_source_file_index>
1050

> <i_lp_mmshare_version>
43012

> <i_f3d_flags>
0

> <s_epik_input>
W0NIM11PYzFbY0hdW2NIXWMoW05IXUMoPU8pW0NASF0oW0NIM10pT1tDSDNdKWMobjEpTjJbQ0gyXVtDSDJdTihDKD1PKVtDSDNdKVtDSDJdW0NIMl0y

> <s_epik_cmdline>
J2VwaWtfcHl0aG9uJywgJy1waCcsICc3LjAnLCAnLXRuJywgJzgnLCAnLW1hJywgJzIwMCcsICctbWV0YWxfYmluZGluZycsICctaW1hZScsICc8aW5maWxlLm1hZT4nLCAnLW9tYWUnLCAnPG91dGZpbGUubWFlPic=

> <r_lp_tautomer_probability>
1

> <r_epik_Ionization_Penalty>
0.000150604

> <r_epik_Ionization_Penalty_Charging>
0

> <r_epik_Ionization_Penalty_Neutral>
0.000150604

> <r_epik_State_Penalty>
-0

> <r_epik_Charging_Adjusted_Penalty>
0

> <i_epik_Tot_Q>
0

> <i_epik_Tot_abs_Q>
0

> <r_epik_Metal_State_Penalty>
-0

> <b_epik_Metal_Only>
0

> <s_lp_Force_Field>
OPLS_2005

> <r_lp_Energy>
41.0836

> <b_lp_Chiralities_Consistent>
1

> <s_lp_Variant>
AV-unprocessed.smi:1050-2

> <Gold.Version>
5.8.1

> <Gold.Id.Protein>
6NUR|6NUR_protein|mol2

> <Gold.PLP.Fitness>
35.3337

> <Gold.PLP.PLP>
-30.5216

> <Gold.PLP.part.hbond>
-2.8907

> <Gold.PLP.part.metal>
0.0000

> <Gold.PLP.part.buried>
-1.5760

> <Gold.PLP.part.nonpolar>
-27.1588

> <Gold.PLP.part.repulsive>
1.9633

> <Gold.PLP.ligand.clash>
0.0000

> <Gold.PLP.ligand.torsion>
0.7544

> <Gold.PLP.Chemscore.Hbond>
1.9920

> <Gold.PLP.Chemscore.CHOScore>
0.0000

> <Gold.PLP.Chemscore.Metal>
0.0000

> <Gold.Chemscore.Hbonds>
donor molecule, donor type, donor heavy atom, donor atom, acceptor molecule, acceptor atom, score
      L1  H     7    30       P1  7948  1.00
      P1  H  6896  6908       L1     2  0.99

> <Gold.PLP.Chemscore.Internal.Correction>
0.3449

> <Gold.Rescore>
     Score         DG    S(hbond)    S(metal)    S(lipo)     H(rot)  DE(clash)    DE(int)     intcor
     10.47     -14.29       2.14        0.00      51.71       1.71       0.33       3.50       ----

> <Gold.Chemscore.Fitness>
10.4659

> <Gold.Chemscore.DG>
-14.2917

> <Gold.Chemscore.ZeroCoef>
-5.4800

> <Gold.Chemscore.Hbond>
2.1377

> <Gold.Chemscore.Metal>
0.0000

> <Gold.Chemscore.Lipo>
51.7146

> <Gold.Chemscore.Internal_Hbond>
0.0000

> <Gold.Chemscore.DEClash>
0.3302

> <Gold.Chemscore.DEInternal>
3.4955

> <Gold.Chemscore.Rot>
1.7106

> <Gold.Chemscore.Internal.Correction>
   9.000000E+99

> <Gold.Chemscore.Hbonds>
donor molecule, donor type, donor heavy atom, donor atom, acceptor molecule, acceptor atom, score
      L1  H     7    30       P1  7948  0.93
      P1  H  6896  6908       L1     2  0.40

> <Gold.Chemscore.Hbond.Weighted>
-7.1401

> <Gold.Chemscore.Metal.Weighted>
-0.0000

> <Gold.Chemscore.Lipo.Weighted>
-6.0506

> <Gold.Chemscore.Internal_Hbond.Weighted>
0.0000

> <Gold.Chemscore.DEClash.Weighted>
0.3302

> <Gold.Chemscore.DEInternal.Weighted>
3.4955

> <Gold.Chemscore.Rot.Weighted>
4.3790

> <Gold.Chemscore.Internal.Correction.Weighted>
   9.000000E+99

> <Gold.Protein.RotatedTorsions>
[ 6907 6896 6895 6894 ] final   77.20 input  -60.11 | X-H torsion
[ 7974 7965 7964 7962 ] final   70.04 input  175.53 | X-H torsion
[ 8008 7997 7996 7995 ] final  -90.93 input   59.86 | X-H torsion
[ 10167 10162 10161 10158 ] final  142.98 input  -65.29 | X-H torsion
[ 10718 10713 10712 10709 ] final  179.13 input   66.30 | X-H torsion
[ 10763 10752 10751 10750 ] final  -71.26 input  -60.55 | X-H torsion
[ 11005 11000 10999 10996 ] final   75.18 input  -57.11 | X-H torsion

> <Gold.Protein.ActiveResidues>
 VAL166  LYS551  ARG553  GLY616  TRP617  ASP618  TYR619  PRO620  LYS621  CYS622 
 ASP623  PHE694  ASN695  SER759  ASP760  ASP761  ALA762  ILE779  LEU786  VAL792 
 PHE793  MET794  SER795  GLU796  ALA797  LYS798  CYS799  TRP800  GLU811  SER814 

> <Gold.Protein.RotatedAtoms>
  152.5107  134.3852  159.9364 H   0  0  0  0  0  0  0  0  0  0  0  0  # atno 6907 bound_to 6896
  151.3810  133.3815  159.2718 H   0  0  0  0  0  0  0  0  0  0  0  0  # atno 6908 bound_to 6896
  150.9504  134.8925  159.7727 H   0  0  0  0  0  0  0  0  0  0  0  0  # atno 6909 bound_to 6896
  145.7831  139.2897  143.1254 H   0  0  0  0  0  0  0  0  0  0  0  0  # atno 7974 bound_to 7965
  154.7045  140.0525  157.0491 H   0  0  0  0  0  0  0  0  0  0  0  0  # atno 8008 bound_to 7997
  155.0639  140.3192  155.4633 H   0  0  0  0  0  0  0  0  0  0  0  0  # atno 8009 bound_to 7997
  156.2770  140.2094  156.5766 H   0  0  0  0  0  0  0  0  0  0  0  0  # atno 8010 bound_to 7997
  139.4981  144.6071  151.6354 H   0  0  0  0  0  0  0  0  0  0  0  0  # atno 10167 bound_to 10162
  156.8803  130.9813  151.3063 H   0  0  0  0  0  0  0  0  0  0  0  0  # atno 10718 bound_to 10713
  154.4293  135.5968  153.6058 H   0  0  0  0  0  0  0  0  0  0  0  0  # atno 10763 bound_to 10752
  152.9798  135.5971  154.3859 H   0  0  0  0  0  0  0  0  0  0  0  0  # atno 10764 bound_to 10752
  154.3695  135.2841  155.2253 H   0  0  0  0  0  0  0  0  0  0  0  0  # atno 10765 bound_to 10752
  139.9355  134.7496  156.1240 H   0  0  0  0  0  0  0  0  0  0  0  0  # atno 11005 bound_to 11000
  146.0054  140.8483  142.9997 LP  0  0  0  0  0  0  0  0  0  0  0  0  # atno 17320 bound_to 7965
  144.6793  140.2413  143.7343 LP  0  0  0  0  0  0  0  0  0  0  0  0  # atno 17321 bound_to 7965
  140.5736  144.0067  150.6229 LP  0  0  0  0  0  0  0  0  0  0  0  0  # atno 17342 bound_to 10162
  140.3193  143.3148  152.0801 LP  0  0  0  0  0  0  0  0  0  0  0  0  # atno 17343 bound_to 10162
  157.6144  130.8607  149.9004 LP  0  0  0  0  0  0  0  0  0  0  0  0  # atno 17370 bound_to 10713
  156.0681  130.3689  150.0835 LP  0  0  0  0  0  0  0  0  0  0  0  0  # atno 17371 bound_to 10713
  141.0967  133.6693  156.2661 LP  0  0  0  0  0  0  0  0  0  0  0  0  # atno 17394 bound_to 11000
  140.6086  134.5482  157.5530 LP  0  0  0  0  0  0  0  0  0  0  0  0  # atno 17395 bound_to 11000

$$$$
