AV-unprocessed.smi:370|AV-procd|sdf|2437|dock7
  -GOLD-   2262022373D 1   1.00000     0.00000
 Structure written by MMmdl.
 43 44  0  0  0  0  0  0  0  0  2 V2000
  136.7500  139.5192  154.5497 C   0  0  0  0  0  0  0  0  0  0  0  0
  138.2344  139.5668  154.4290 C   0  0  0  0  0  0  0  0  0  0  0  0
  139.1232  138.9250  153.6132 C   0  0  0  0  0  0  0  0  0  0  0  0
  140.3764  139.4398  154.0386 C   0  0  0  0  0  0  0  0  0  0  0  0
  141.5830  139.0194  153.4230 N   0  0  0  0  0  0  0  0  0  0  0  0
  142.0593  137.7663  153.3287 C   0  0  0  0  0  0  0  0  0  0  0  0
  141.4910  136.7576  153.7475 O   0  0  0  0  0  0  0  0  0  0  0  0
  143.2527  137.7426  152.7166 N   0  0  0  0  0  0  0  0  0  0  0  0
  144.0468  136.5432  152.4464 C   0  0  0  0  0  0  0  0  0  0  0  0
  145.5439  136.8255  152.1077 C   0  0  0  0  0  0  0  0  0  0  0  0
  145.5976  137.4217  150.6759 C   0  0  0  0  0  0  0  0  0  0  0  0
  146.1440  137.8738  153.0771 C   0  0  0  0  0  0  0  0  0  0  0  0
  146.3026  135.5217  152.1835 N   0  3  0  0  0  0  0  0  0  0  0  0
  146.4515  134.9199  153.5402 C   0  0  0  0  0  0  0  0  0  0  0  0
  147.3644  133.6813  153.4947 C   0  0  0  0  0  0  0  0  0  0  0  0
  146.8614  132.7343  152.5642 O   0  0  0  0  0  0  0  0  0  0  0  0
  146.8169  133.2688  151.2497 C   0  0  0  0  0  0  0  0  0  0  0  0
  145.8583  134.4690  151.2243 C   0  0  0  0  0  0  0  0  0  0  0  0
  140.2633  140.3171  155.0239 N   0  0  0  0  0  0  0  0  0  0  0  0
  138.8896  140.4029  155.2793 O   0  0  0  0  0  0  0  0  0  0  0  0
  136.3272  138.7827  153.8663 H   0  0  0  0  0  0  0  0  0  0  0  0
  136.3122  140.4895  154.3152 H   0  0  0  0  0  0  0  0  0  0  0  0
  136.4535  139.2496  155.5635 H   0  0  0  0  0  0  0  0  0  0  0  0
  138.9076  138.2041  152.8386 H   0  0  0  0  0  0  0  0  0  0  0  0
  142.1477  139.7532  153.0215 H   0  0  0  0  0  0  0  0  0  0  0  0
  143.6420  138.6215  152.4075 H   0  0  0  0  0  0  0  0  0  0  0  0
  143.9432  135.8648  153.2916 H   0  0  0  0  0  0  0  0  0  0  0  0
  143.5764  136.0316  151.6059 H   0  0  0  0  0  0  0  0  0  0  0  0
  144.9695  138.3068  150.5759 H   0  0  0  0  0  0  0  0  0  0  0  0
  145.2612  136.7013  149.9294 H   0  0  0  0  0  0  0  0  0  0  0  0
  146.6014  137.7490  150.4038 H   0  0  0  0  0  0  0  0  0  0  0  0
  145.6954  138.8566  152.9305 H   0  0  0  0  0  0  0  0  0  0  0  0
  147.2169  137.9945  152.9283 H   0  0  0  0  0  0  0  0  0  0  0  0
  145.9800  137.6078  154.1216 H   0  0  0  0  0  0  0  0  0  0  0  0
  146.9063  135.6168  154.2418 H   0  0  0  0  0  0  0  0  0  0  0  0
  145.4730  134.6485  153.9380 H   0  0  0  0  0  0  0  0  0  0  0  0
  148.3848  133.9618  153.2278 H   0  0  0  0  0  0  0  0  0  0  0  0
  147.4118  133.2155  154.4791 H   0  0  0  0  0  0  0  0  0  0  0  0
  147.8165  133.5563  150.9196 H   0  0  0  0  0  0  0  0  0  0  0  0
  146.4666  132.4938  150.5678 H   0  0  0  0  0  0  0  0  0  0  0  0
  144.8572  134.1222  151.4833 H   0  0  0  0  0  0  0  0  0  0  0  0
  145.8088  134.8454  150.2050 H   0  0  0  0  0  0  0  0  0  0  0  0
  147.2442  135.7604  151.9064 H   0  0  0  0  0  0  0  0  0  0  0  0
  1  2  1  0  0  0  0
  1 21  1  0  0  0  0
  1 22  1  0  0  0  0
  1 23  1  0  0  0  0
  2 20  1  0  0  0  0
  2  3  2  0  0  0  0
  3  4  1  0  0  0  0
  3 24  1  0  0  0  0
  4  5  1  0  0  0  0
  4 19  2  0  0  0  0
  5  6  1  0  0  0  0
  5 25  1  0  0  0  0
  6  7  2  0  0  0  0
  6  8  1  0  0  0  0
  8  9  1  0  0  0  0
  8 26  1  0  0  0  0
  9 10  1  0  0  0  0
  9 27  1  0  0  0  0
  9 28  1  0  0  0  0
 10 11  1  0  0  0  0
 10 12  1  0  0  0  0
 10 13  1  0  0  0  0
 11 29  1  0  0  0  0
 11 30  1  0  0  0  0
 11 31  1  0  0  0  0
 12 32  1  0  0  0  0
 12 33  1  0  0  0  0
 12 34  1  0  0  0  0
 13 18  1  0  0  0  0
 13 14  1  0  0  0  0
 13 43  1  0  0  0  0
 14 15  1  0  0  0  0
 14 35  1  0  0  0  0
 14 36  1  0  0  0  0
 15 16  1  0  0  0  0
 15 37  1  0  0  0  0
 15 38  1  0  0  0  0
 16 17  1  0  0  0  0
 17 18  1  0  0  0  0
 17 39  1  0  0  0  0
 17 40  1  0  0  0  0
 18 41  1  0  0  0  0
 18 42  1  0  0  0  0
 19 20  1  0  0  0  0
M  CHG  1  13   1
M  END
> <s_m_source_file>
AV-unprocessed.smi

> <i_m_source_file_index>
370

> <i_lp_mmshare_version>
43012

> <i_f3d_flags>
0

> <s_epik_input>
W0NIM11jMVtjSF1jKG5vMSlbTkhdQyg9TylbTkhdW0NIMl1DKFtDSDNdKShbQ0gzXSlOMltDSDJdW0NIMl1PW0NIMl1bQ0gyXTI=

> <s_epik_cmdline>
J2VwaWtfcHl0aG9uJywgJy1waCcsICc3LjAnLCAnLXRuJywgJzgnLCAnLW1hJywgJzIwMCcsICctbWV0YWxfYmluZGluZycsICctaW1hZScsICc8aW5maWxlLm1hZT4nLCAnLW9tYWUnLCAnPG91dGZpbGUubWFlPic=

> <r_epik_Ionization_Penalty>
0.707076

> <r_epik_Ionization_Penalty_Charging>
0.707039

> <r_epik_Ionization_Penalty_Neutral>
3.67886e-05

> <r_epik_State_Penalty>
0.730276

> <r_epik_Charging_Adjusted_Penalty>
1.43732

> <i_epik_Tot_Q>
1

> <i_epik_Tot_abs_Q>
1

> <r_epik_Metal_State_Penalty>
0.743216

> <b_epik_Metal_Only>
0

> <s_lp_Force_Field>
OPLS_2005

> <r_lp_Energy>
23.7539

> <b_lp_Chiralities_Consistent>
1

> <s_lp_Variant>
AV-unprocessed.smi:370-2

> <Gold.Version>
5.8.1

> <Gold.Id.Protein>
6NUR|6NUR_protein|mol2

> <Gold.PLP.Fitness>
37.8675

> <Gold.PLP.PLP>
-27.5320

> <Gold.PLP.part.hbond>
-5.0000

> <Gold.PLP.part.metal>
0.0000

> <Gold.PLP.part.buried>
2.5037

> <Gold.PLP.part.nonpolar>
-25.6963

> <Gold.PLP.part.repulsive>
0.5295

> <Gold.PLP.ligand.clash>
0.0000

> <Gold.PLP.ligand.torsion>
0.8421

> <Gold.PLP.Chemscore.Hbond>
3.9760

> <Gold.PLP.Chemscore.CHOScore>
0.0000

> <Gold.PLP.Chemscore.Metal>
0.0000

> <Gold.Chemscore.Hbonds>
donor molecule, donor type, donor heavy atom, donor atom, acceptor molecule, acceptor atom, score
      L1  H     5    25       P1 10175  1.00
      L1  H     8    26       P1 10175  0.99
      L1  H    13    43       P1  7948  2.00

> <Gold.PLP.Chemscore.Internal.Correction>
0.0917

> <Gold.Rescore>
     Score         DG    S(hbond)    S(metal)    S(lipo)     H(rot)  DE(clash)    DE(int)     intcor
     16.36     -19.02       2.84        0.00      69.56       1.60       1.87       0.79       ----

> <Gold.Chemscore.Fitness>
16.3648

> <Gold.Chemscore.DG>
-19.0206

> <Gold.Chemscore.ZeroCoef>
-5.4800

> <Gold.Chemscore.Hbond>
2.8422

> <Gold.Chemscore.Metal>
0.0000

> <Gold.Chemscore.Lipo>
69.5580

> <Gold.Chemscore.Internal_Hbond>
0.0000

> <Gold.Chemscore.DEClash>
1.8671

> <Gold.Chemscore.DEInternal>
0.7886

> <Gold.Chemscore.Rot>
1.5979

> <Gold.Chemscore.Internal.Correction>
   9.000000E+99

> <Gold.Chemscore.Hbonds>
donor molecule, donor type, donor heavy atom, donor atom, acceptor molecule, acceptor atom, score
      L1  H     5    25       P1 10175  0.69
      L1  H     8    26       P1 10175  0.93
      L1  H    13    43       P1  7948  1.00

> <Gold.Chemscore.Hbond.Weighted>
-9.4929

> <Gold.Chemscore.Metal.Weighted>
-0.0000

> <Gold.Chemscore.Lipo.Weighted>
-8.1383

> <Gold.Chemscore.Internal_Hbond.Weighted>
0.0000

> <Gold.Chemscore.DEClash.Weighted>
1.8671

> <Gold.Chemscore.DEInternal.Weighted>
0.7886

> <Gold.Chemscore.Rot.Weighted>
4.0906

> <Gold.Chemscore.Internal.Correction.Weighted>
   9.000000E+99

> <Gold.Protein.RotatedTorsions>
[ 6907 6896 6895 6894 ] final -108.02 input  -60.11 | X-H torsion
[ 7974 7965 7964 7962 ] final -148.29 input  175.53 | X-H torsion
[ 8008 7997 7996 7995 ] final   32.10 input   59.86 | X-H torsion
[ 10167 10162 10161 10158 ] final  150.01 input  -65.29 | X-H torsion
[ 10718 10713 10712 10709 ] final -120.92 input   66.30 | X-H torsion
[ 10763 10752 10751 10750 ] final  125.87 input  -60.55 | X-H torsion
[ 11005 11000 10999 10996 ] final  -63.96 input  -57.11 | X-H torsion

> <Gold.Protein.ActiveResidues>
 VAL166  LYS551  ARG553  GLY616  TRP617  ASP618  TYR619  PRO620  LYS621  CYS622 
 ASP623  PHE694  ASN695  SER759  ASP760  ASP761  ALA762  ILE779  LEU786  VAL792 
 PHE793  MET794  SER795  GLU796  ALA797  LYS798  CYS799  TRP800  GLU811  SER814 

> <Gold.Protein.RotatedAtoms>
  150.7477  133.9739  159.3554 H   0  0  0  0  0  0  0  0  0  0  0  0  # atno 6907 bound_to 6896
  151.7675  135.0792  160.0364 H   0  0  0  0  0  0  0  0  0  0  0  0  # atno 6908 bound_to 6896
  152.3361  133.5976  159.5880 H   0  0  0  0  0  0  0  0  0  0  0  0  # atno 6909 bound_to 6896
  144.8039  140.5216  143.5688 H   0  0  0  0  0  0  0  0  0  0  0  0  # atno 7974 bound_to 7965
  155.1171  140.3244  155.4507 H   0  0  0  0  0  0  0  0  0  0  0  0  # atno 8008 bound_to 7997
  156.2674  140.2034  156.6242 H   0  0  0  0  0  0  0  0  0  0  0  0  # atno 8009 bound_to 7997
  154.6712  140.0536  157.0154 H   0  0  0  0  0  0  0  0  0  0  0  0  # atno 8010 bound_to 7997
  139.4855  144.5556  151.7323 H   0  0  0  0  0  0  0  0  0  0  0  0  # atno 10167 bound_to 10162
  156.1296  130.6385  150.9599 H   0  0  0  0  0  0  0  0  0  0  0  0  # atno 10718 bound_to 10713
  153.6842  135.3309  155.3186 H   0  0  0  0  0  0  0  0  0  0  0  0  # atno 10763 bound_to 10752
  154.8457  135.4416  154.1575 H   0  0  0  0  0  0  0  0  0  0  0  0  # atno 10764 bound_to 10752
  153.2599  135.6990  153.7666 H   0  0  0  0  0  0  0  0  0  0  0  0  # atno 10765 bound_to 10752
  141.1409  133.6659  156.5759 H   0  0  0  0  0  0  0  0  0  0  0  0  # atno 11005 bound_to 11000
  145.5486  139.1476  143.3406 LP  0  0  0  0  0  0  0  0  0  0  0  0  # atno 17320 bound_to 7965
  146.2326  140.5625  142.8969 LP  0  0  0  0  0  0  0  0  0  0  0  0  # atno 17321 bound_to 7965
  140.5117  144.1015  150.5997 LP  0  0  0  0  0  0  0  0  0  0  0  0  # atno 17342 bound_to 10162
  140.3943  143.2736  152.0023 LP  0  0  0  0  0  0  0  0  0  0  0  0  # atno 17343 bound_to 10162
  157.6475  131.0902  150.8122 LP  0  0  0  0  0  0  0  0  0  0  0  0  # atno 17370 bound_to 10713
  156.8209  130.4983  149.5343 LP  0  0  0  0  0  0  0  0  0  0  0  0  # atno 17371 bound_to 10713
  140.3876  134.7469  157.4701 LP  0  0  0  0  0  0  0  0  0  0  0  0  # atno 17394 bound_to 11000
  140.0590  134.6022  155.8770 LP  0  0  0  0  0  0  0  0  0  0  0  0  # atno 17395 bound_to 11000

$$$$
