AV-unprocessed.smi:1592|AV-procd|sdf|6402|dock8
  -GOLD-   22720 7 43D 1   1.00000     0.00000
 Structure written by MMmdl.
 27 28  0  0  0  0  0  0  0  0  1 V2000
  151.7279  141.3435  157.5712 O   0  0  0  0  0  0  0  0  0  0  0  0
  151.1973  142.3585  157.1180 C   0  0  0  0  0  0  0  0  0  0  0  0
  150.3302  142.3746  156.0887 N   0  0  0  0  0  0  0  0  0  0  0  0
  149.8304  141.2788  155.3318 C   0  0  0  0  0  0  0  0  0  0  0  0
  150.5719  140.1804  155.0408 N   0  0  0  0  0  0  0  0  0  0  0  0
  150.0235  139.1831  154.3164 C   0  0  0  0  0  0  0  0  0  0  0  0
  148.7018  139.2174  153.8376 C   0  0  0  0  0  0  0  0  0  0  0  0
  147.9205  140.3483  154.1315 C   0  0  0  0  0  0  0  0  0  0  0  0
  148.4881  141.3937  154.8875 C   0  0  0  0  0  0  0  0  0  0  0  0
  147.7330  142.4968  155.1763 O   0  0  0  0  0  0  0  0  0  0  0  0
  151.5303  143.7275  157.7223 C   0  0  1  0  0  0  0  0  0  0  0  0
  150.4022  144.3276  158.5829 C   0  0  0  0  0  0  0  0  0  0  0  0
  150.9571  144.2746  159.9930 C   0  0  0  0  0  0  0  0  0  0  0  0
  152.4547  144.3799  159.7448 C   0  0  0  0  0  0  0  0  0  0  0  0
  152.6445  143.5668  158.5982 O   0  0  0  0  0  0  0  0  0  0  0  0
  149.9833  143.2813  155.8108 H   0  0  0  0  0  0  0  0  0  0  0  0
  150.6578  138.3332  154.1129 H   0  0  0  0  0  0  0  0  0  0  0  0
  148.2994  138.3981  153.2604 H   0  0  0  0  0  0  0  0  0  0  0  0
  146.9007  140.4120  153.7808 H   0  0  0  0  0  0  0  0  0  0  0  0
  148.2371  143.2037  155.5497 H   0  0  0  0  0  0  0  0  0  0  0  0
  151.7998  144.4324  156.9339 H   0  0  0  0  0  0  0  0  0  0  0  0
  150.2300  145.3638  158.2888 H   0  0  0  0  0  0  0  0  0  0  0  0
  149.4483  143.8047  158.4999 H   0  0  0  0  0  0  0  0  0  0  0  0
  150.5724  145.0665  160.6358 H   0  0  0  0  0  0  0  0  0  0  0  0
  150.7217  143.3137  160.4523 H   0  0  0  0  0  0  0  0  0  0  0  0
  152.7427  145.4074  159.5176 H   0  0  0  0  0  0  0  0  0  0  0  0
  153.0494  144.0305  160.5889 H   0  0  0  0  0  0  0  0  0  0  0  0
  1  2  2  0  0  0  0
  2  3  1  0  0  0  0
  2 11  1  0  0  0  0
  3  4  1  0  0  0  0
  3 16  1  0  0  0  0
  4  9  1  0  0  0  0
  4  5  2  0  0  0  0
  5  6  1  0  0  0  0
  6  7  2  0  0  0  0
  6 17  1  0  0  0  0
  7  8  1  0  0  0  0
  7 18  1  0  0  0  0
  8  9  2  0  0  0  0
  8 19  1  0  0  0  0
  9 10  1  0  0  0  0
 10 20  1  0  0  0  0
 11 15  1  0  0  0  0
 11 12  1  0  0  0  0
 11 21  1  0  0  0  0
 12 13  1  0  0  0  0
 12 22  1  0  0  0  0
 12 23  1  0  0  0  0
 13 14  1  0  0  0  0
 13 24  1  0  0  0  0
 13 25  1  0  0  0  0
 14 15  1  0  0  0  0
 14 26  1  0  0  0  0
 14 27  1  0  0  0  0
M  END
> <s_m_source_file>
AV-unprocessed.smi

> <i_m_source_file_index>
1592

> <i_lp_mmshare_version>
43012

> <i_f3d_flags>
0

> <s_epik_input>
TzFbQ0gyXVtDSDJdW0NIMl1bQ0BIXTFDKD1PKVtOSF1jMm5bY0hdW2NIXVtjSF1jMltPSF0=

> <s_epik_cmdline>
J2VwaWtfcHl0aG9uJywgJy1waCcsICc3LjAnLCAnLXRuJywgJzgnLCAnLW1hJywgJzIwMCcsICctbWV0YWxfYmluZGluZycsICctaW1hZScsICc8aW5maWxlLm1hZT4nLCAnLW9tYWUnLCAnPG91dGZpbGUubWFlPic=

> <r_lp_tautomer_probability>
0.43658

> <r_epik_Ionization_Penalty>
0.0209102

> <r_epik_Ionization_Penalty_Charging>
0

> <r_epik_Ionization_Penalty_Neutral>
0.0209102

> <r_epik_State_Penalty>
0.412899

> <r_epik_Charging_Adjusted_Penalty>
0.412899

> <i_epik_Tot_Q>
0

> <i_epik_Tot_abs_Q>
0

> <r_epik_Metal_State_Penalty>
0.372161

> <b_epik_Metal_Only>
0

> <s_lp_Force_Field>
OPLS_2005

> <r_lp_Energy>
20.3979

> <b_lp_Chiralities_Consistent>
1

> <s_lp_Variant>
AV-unprocessed.smi:1592-2

> <Gold.Version>
5.8.1

> <Gold.Id.Protein>
6NUR|6NUR_protein|mol2

> <Gold.PLP.Fitness>
36.7219

> <Gold.PLP.PLP>
-29.6503

> <Gold.PLP.part.hbond>
-2.9400

> <Gold.PLP.part.metal>
0.0000

> <Gold.PLP.part.buried>
-3.0650

> <Gold.PLP.part.nonpolar>
-24.0010

> <Gold.PLP.part.repulsive>
0.1814

> <Gold.PLP.ligand.clash>
0.0000

> <Gold.PLP.ligand.torsion>
0.5179

> <Gold.PLP.Chemscore.Hbond>
2.7000

> <Gold.PLP.Chemscore.CHOScore>
0.0000

> <Gold.PLP.Chemscore.Metal>
0.0000

> <Gold.Chemscore.Hbonds>
donor molecule, donor type, donor heavy atom, donor atom, acceptor molecule, acceptor atom, score
      L1  H     3    16       P1  8028  1.00
      L1  H    10    20       P1  8028  1.00
      P1  H  7989  7998       L1     5  0.65

> <Gold.PLP.Chemscore.Internal.Correction>
0.0074

> <Gold.Rescore>
     Score         DG    S(hbond)    S(metal)    S(lipo)     H(rot)  DE(clash)    DE(int)     intcor
     14.98     -16.52       1.97        0.00      70.37       1.47       0.11       1.43       ----

> <Gold.Chemscore.Fitness>
14.9754

> <Gold.Chemscore.DG>
-16.5157

> <Gold.Chemscore.ZeroCoef>
-5.4800

> <Gold.Chemscore.Hbond>
1.9691

> <Gold.Chemscore.Metal>
0.0000

> <Gold.Chemscore.Lipo>
70.3661

> <Gold.Chemscore.Internal_Hbond>
0.0000

> <Gold.Chemscore.DEClash>
0.1058

> <Gold.Chemscore.DEInternal>
1.4345

> <Gold.Chemscore.Rot>
1.4742

> <Gold.Chemscore.Internal.Correction>
   9.000000E+99

> <Gold.Chemscore.Hbonds>
donor molecule, donor type, donor heavy atom, donor atom, acceptor molecule, acceptor atom, score
      L1  H     3    16       P1  8028  1.00
      L1  H    10    20       P1  8028  0.91
      P1  H  7989  7998       L1     5  0.01

> <Gold.Chemscore.Hbond.Weighted>
-6.5767

> <Gold.Chemscore.Metal.Weighted>
-0.0000

> <Gold.Chemscore.Lipo.Weighted>
-8.2328

> <Gold.Chemscore.Internal_Hbond.Weighted>
0.0000

> <Gold.Chemscore.DEClash.Weighted>
0.1058

> <Gold.Chemscore.DEInternal.Weighted>
1.4345

> <Gold.Chemscore.Rot.Weighted>
3.7739

> <Gold.Chemscore.Internal.Correction.Weighted>
   9.000000E+99

> <Gold.Protein.RotatedTorsions>
[ 6907 6896 6895 6894 ] final   28.10 input  -60.11 | X-H torsion
[ 7974 7965 7964 7962 ] final  144.69 input  175.53 | X-H torsion
[ 8008 7997 7996 7995 ] final -105.83 input   59.86 | X-H torsion
[ 10167 10162 10161 10158 ] final   67.97 input  -65.29 | X-H torsion
[ 10718 10713 10712 10709 ] final  168.93 input   66.30 | X-H torsion
[ 10763 10752 10751 10750 ] final  -32.83 input  -60.55 | X-H torsion
[ 11005 11000 10999 10996 ] final  -57.63 input  -57.11 | X-H torsion

> <Gold.Protein.ActiveResidues>
 VAL166  LYS551  ARG553  GLY616  TRP617  ASP618  TYR619  PRO620  LYS621  CYS622 
 ASP623  PHE694  ASN695  SER759  ASP760  ASP761  ALA762  ILE779  LEU786  VAL792 
 PHE793  MET794  SER795  GLU796  ALA797  LYS798  CYS799  TRP800  GLU811  SER814 

> <Gold.Protein.RotatedAtoms>
  152.0120  134.9871  160.0568 H   0  0  0  0  0  0  0  0  0  0  0  0  # atno 6907 bound_to 6896
  152.1419  133.4464  159.4779 H   0  0  0  0  0  0  0  0  0  0  0  0  # atno 6908 bound_to 6896
  150.6866  134.2213  159.4441 H   0  0  0  0  0  0  0  0  0  0  0  0  # atno 6909 bound_to 6896
  144.8814  139.5693  143.5841 H   0  0  0  0  0  0  0  0  0  0  0  0  # atno 7974 bound_to 7965
  154.9055  140.0411  157.1917 H   0  0  0  0  0  0  0  0  0  0  0  0  # atno 8008 bound_to 7997
  154.8400  140.2913  155.5644 H   0  0  0  0  0  0  0  0  0  0  0  0  # atno 8009 bound_to 7997
  156.2991  140.2484  156.3341 H   0  0  0  0  0  0  0  0  0  0  0  0  # atno 8010 bound_to 7997
  140.0837  144.5048  150.7144 H   0  0  0  0  0  0  0  0  0  0  0  0  # atno 10167 bound_to 10162
  157.0299  131.0256  151.2748 H   0  0  0  0  0  0  0  0  0  0  0  0  # atno 10718 bound_to 10713
  153.8202  135.6875  153.4828 H   0  0  0  0  0  0  0  0  0  0  0  0  # atno 10763 bound_to 10752
  153.1574  135.4593  154.9721 H   0  0  0  0  0  0  0  0  0  0  0  0  # atno 10764 bound_to 10752
  154.7931  135.3309  154.7675 H   0  0  0  0  0  0  0  0  0  0  0  0  # atno 10765 bound_to 10752
  141.1173  133.6610  156.4799 H   0  0  0  0  0  0  0  0  0  0  0  0  # atno 11005 bound_to 11000
  146.2997  139.7388  142.9100 LP  0  0  0  0  0  0  0  0  0  0  0  0  # atno 17320 bound_to 7965
  145.3947  141.0377  143.3104 LP  0  0  0  0  0  0  0  0  0  0  0  0  # atno 17321 bound_to 7965
  140.7064  143.2471  151.4712 LP  0  0  0  0  0  0  0  0  0  0  0  0  # atno 17342 bound_to 10162
  139.5764  144.1808  152.1909 LP  0  0  0  0  0  0  0  0  0  0  0  0  # atno 17343 bound_to 10162
  157.5185  130.7983  149.7783 LP  0  0  0  0  0  0  0  0  0  0  0  0  # atno 17370 bound_to 10713
  156.0073  130.3849  150.2386 LP  0  0  0  0  0  0  0  0  0  0  0  0  # atno 17371 bound_to 10713
  140.4609  134.6842  157.5085 LP  0  0  0  0  0  0  0  0  0  0  0  0  # atno 17394 bound_to 11000
  140.0104  134.6699  155.9390 LP  0  0  0  0  0  0  0  0  0  0  0  0  # atno 17395 bound_to 11000

$$$$
