AV-unprocessed.smi:1381|AV-procd|sdf|5608|dock7
  -GOLD-   22720 5213D 1   1.00000     0.00000
 Structure written by MMmdl.
 43 44  0  0  0  0  0  0  0  0  2 V2000
  137.4448  138.0481  154.4852 C   0  0  0  0  0  0  0  0  0  0  0  0
  138.8971  137.7980  154.2637 C   0  0  0  0  0  0  0  0  0  0  0  0
  139.8336  138.3982  153.4702 C   0  0  0  0  0  0  0  0  0  0  0  0
  141.0154  137.6525  153.7517 C   0  0  0  0  0  0  0  0  0  0  0  0
  142.2989  137.8638  153.1846 N   0  0  0  0  0  0  0  0  0  0  0  0
  143.2145  136.9488  152.8244 C   0  0  0  0  0  0  0  0  0  0  0  0
  143.0868  135.7292  152.9309 O   0  0  0  0  0  0  0  0  0  0  0  0
  144.3111  137.5311  152.3173 N   0  0  0  0  0  0  0  0  0  0  0  0
  145.4901  136.8184  151.8386 C   0  0  0  0  0  0  0  0  0  0  0  0
  145.8375  135.6229  152.7465 C   0  0  0  0  0  0  0  0  0  0  0  0
  146.7848  134.6775  152.0980 N   0  3  1  0  0  0  0  0  0  0  0  0
  147.2559  133.5972  152.9989 C   0  0  0  0  0  0  0  0  0  0  0  0
  146.1824  132.5029  153.1708 C   0  0  2  0  0  0  0  0  0  0  0  0
  146.6821  131.3360  154.0293 C   0  0  0  0  0  0  0  0  0  0  0  0
  145.8359  131.9919  151.8878 O   0  0  0  0  0  0  0  0  0  0  0  0
  145.2790  132.9816  151.0290 C   0  0  2  0  0  0  0  0  0  0  0  0
  144.8813  132.3023  149.7139 C   0  0  0  0  0  0  0  0  0  0  0  0
  146.3144  134.1061  150.8098 C   0  0  0  0  0  0  0  0  0  0  0  0
  140.8122  136.6900  154.6320 N   0  0  0  0  0  0  0  0  0  0  0  0
  139.4556  136.7762  154.9664 O   0  0  0  0  0  0  0  0  0  0  0  0
  137.1478  139.0113  154.0699 H   0  0  0  0  0  0  0  0  0  0  0  0
  137.2099  138.0527  155.5497 H   0  0  0  0  0  0  0  0  0  0  0  0
  136.8435  137.2738  154.0086 H   0  0  0  0  0  0  0  0  0  0  0  0
  139.6788  139.2324  152.8030 H   0  0  0  0  0  0  0  0  0  0  0  0
  142.5456  138.8305  153.0319 H   0  0  0  0  0  0  0  0  0  0  0  0
  144.3349  138.5392  152.2666 H   0  0  0  0  0  0  0  0  0  0  0  0
  145.2744  136.4860  150.8240 H   0  0  0  0  0  0  0  0  0  0  0  0
  146.3365  137.5036  151.7676 H   0  0  0  0  0  0  0  0  0  0  0  0
  146.2992  136.0087  153.6562 H   0  0  0  0  0  0  0  0  0  0  0  0
  144.9311  135.1072  153.0633 H   0  0  0  0  0  0  0  0  0  0  0  0
  148.1553  133.1594  152.5634 H   0  0  0  0  0  0  0  0  0  0  0  0
  147.5551  134.0072  153.9644 H   0  0  0  0  0  0  0  0  0  0  0  0
  145.2929  132.9209  153.6450 H   0  0  0  0  0  0  0  0  0  0  0  0
  146.9537  131.6729  155.0301 H   0  0  0  0  0  0  0  0  0  0  0  0
  147.5592  130.8647  153.5848 H   0  0  0  0  0  0  0  0  0  0  0  0
  145.9116  130.5721  154.1345 H   0  0  0  0  0  0  0  0  0  0  0  0
  144.3750  133.3844  151.4875 H   0  0  0  0  0  0  0  0  0  0  0  0
  144.4405  133.0183  149.0196 H   0  0  0  0  0  0  0  0  0  0  0  0
  144.1471  131.5152  149.8883 H   0  0  0  0  0  0  0  0  0  0  0  0
  145.7446  131.8497  149.2250 H   0  0  0  0  0  0  0  0  0  0  0  0
  145.9100  134.8812  150.1599 H   0  0  0  0  0  0  0  0  0  0  0  0
  147.1820  133.6991  150.2882 H   0  0  0  0  0  0  0  0  0  0  0  0
  147.6025  135.2320  151.8867 H   0  0  0  0  0  0  0  0  0  0  0  0
  1  2  1  0  0  0  0
  1 21  1  0  0  0  0
  1 22  1  0  0  0  0
  1 23  1  0  0  0  0
  2 20  1  0  0  0  0
  2  3  2  0  0  0  0
  3  4  1  0  0  0  0
  3 24  1  0  0  0  0
  4  5  1  0  0  0  0
  4 19  2  0  0  0  0
  5  6  1  0  0  0  0
  5 25  1  0  0  0  0
  6  7  2  0  0  0  0
  6  8  1  0  0  0  0
  8  9  1  0  0  0  0
  8 26  1  0  0  0  0
  9 10  1  0  0  0  0
  9 27  1  0  0  0  0
  9 28  1  0  0  0  0
 10 11  1  0  0  0  0
 10 29  1  0  0  0  0
 10 30  1  0  0  0  0
 11 18  1  0  0  0  0
 11 12  1  0  0  0  0
 11 43  1  0  0  0  0
 12 13  1  0  0  0  0
 12 31  1  0  0  0  0
 12 32  1  0  0  0  0
 13 14  1  0  0  0  0
 13 15  1  0  0  0  0
 13 33  1  0  0  0  0
 14 34  1  0  0  0  0
 14 35  1  0  0  0  0
 14 36  1  0  0  0  0
 15 16  1  0  0  0  0
 16 17  1  0  0  0  0
 16 18  1  0  0  0  0
 16 37  1  0  0  0  0
 17 38  1  0  0  0  0
 17 39  1  0  0  0  0
 17 40  1  0  0  0  0
 18 41  1  0  0  0  0
 18 42  1  0  0  0  0
 19 20  1  0  0  0  0
M  CHG  1  11   1
M  END
> <s_m_source_file>
AV-unprocessed.smi

> <i_m_source_file_index>
1381

> <i_lp_mmshare_version>
43012

> <i_f3d_flags>
0

> <s_epik_input>
W0NIM11jMVtjSF1jKG5vMSlbTkhdQyg9TylbTkhdW0NIMl1bQ0gyXU4yW0NIMl1bQ0BASF0oW0NIM10pT1tDQEBIXShbQ0gzXSlbQ0gyXTI=

> <s_epik_cmdline>
J2VwaWtfcHl0aG9uJywgJy1waCcsICc3LjAnLCAnLXRuJywgJzgnLCAnLW1hJywgJzIwMCcsICctbWV0YWxfYmluZGluZycsICctaW1hZScsICc8aW5maWxlLm1hZT4nLCAnLW9tYWUnLCAnPG91dGZpbGUubWFlPic=

> <r_epik_Ionization_Penalty>
0.707076

> <r_epik_Ionization_Penalty_Charging>
0.707039

> <r_epik_Ionization_Penalty_Neutral>
3.6548e-05

> <r_epik_State_Penalty>
0.730276

> <r_epik_Charging_Adjusted_Penalty>
1.43732

> <i_epik_Tot_Q>
1

> <i_epik_Tot_abs_Q>
1

> <r_epik_Metal_State_Penalty>
0.743132

> <b_epik_Metal_Only>
0

> <s_lp_Force_Field>
OPLS_2005

> <r_lp_Energy>
17.699

> <b_lp_Chiralities_Consistent>
1

> <s_lp_Variant>
AV-unprocessed.smi:1381-7

> <Gold.Version>
5.8.1

> <Gold.Id.Protein>
6NUR|6NUR_protein|mol2

> <Gold.PLP.Fitness>
43.6369

> <Gold.PLP.PLP>
-32.4632

> <Gold.PLP.part.hbond>
-4.4231

> <Gold.PLP.part.metal>
0.0000

> <Gold.PLP.part.buried>
-6.3281

> <Gold.PLP.part.nonpolar>
-21.1377

> <Gold.PLP.part.repulsive>
0.4588

> <Gold.PLP.ligand.clash>
0.0000

> <Gold.PLP.ligand.torsion>
0.4922

> <Gold.PLP.Chemscore.Hbond>
4.0465

> <Gold.PLP.Chemscore.CHOScore>
0.0000

> <Gold.PLP.Chemscore.Metal>
0.0000

> <Gold.Chemscore.Hbonds>
donor molecule, donor type, donor heavy atom, donor atom, acceptor molecule, acceptor atom, score
      L1  H     5    25       P1 10175  1.00
      L1  H     8    26       P1 10175  1.00
      L1  H    11    43       P1  7948  2.00
      P1  H 11000 11005       L1    20  0.06

> <Gold.PLP.Chemscore.Internal.Correction>
0.0186

> <Gold.Rescore>
     Score         DG    S(hbond)    S(metal)    S(lipo)     H(rot)  DE(clash)    DE(int)     intcor
     16.92     -18.96       2.94        0.00      66.50       1.61       0.03       2.02       ----

> <Gold.Chemscore.Fitness>
16.9195

> <Gold.Chemscore.DG>
-18.9647

> <Gold.Chemscore.ZeroCoef>
-5.4800

> <Gold.Chemscore.Hbond>
2.9403

> <Gold.Chemscore.Metal>
0.0000

> <Gold.Chemscore.Lipo>
66.5039

> <Gold.Chemscore.Internal_Hbond>
0.0000

> <Gold.Chemscore.DEClash>
0.0272

> <Gold.Chemscore.DEInternal>
2.0181

> <Gold.Chemscore.Rot>
1.6081

> <Gold.Chemscore.Internal.Correction>
   9.000000E+99

> <Gold.Chemscore.Hbonds>
donor molecule, donor type, donor heavy atom, donor atom, acceptor molecule, acceptor atom, score
      L1  H     5    25       P1 10175  0.96
      L1  H     8    26       P1 10175  0.92
      L1  H    11    43       P1  7948  0.92

> <Gold.Chemscore.Hbond.Weighted>
-9.8205

> <Gold.Chemscore.Metal.Weighted>
-0.0000

> <Gold.Chemscore.Lipo.Weighted>
-7.7810

> <Gold.Chemscore.Internal_Hbond.Weighted>
0.0000

> <Gold.Chemscore.DEClash.Weighted>
0.0272

> <Gold.Chemscore.DEInternal.Weighted>
2.0181

> <Gold.Chemscore.Rot.Weighted>
4.1167

> <Gold.Chemscore.Internal.Correction.Weighted>
   9.000000E+99

> <Gold.Protein.RotatedTorsions>
[ 6907 6896 6895 6894 ] final -177.94 input  -60.11 | X-H torsion
[ 7974 7965 7964 7962 ] final   13.90 input  175.53 | X-H torsion
[ 8008 7997 7996 7995 ] final  111.25 input   59.86 | X-H torsion
[ 10167 10162 10161 10158 ] final  -47.50 input  -65.29 | X-H torsion
[ 10718 10713 10712 10709 ] final  139.06 input   66.30 | X-H torsion
[ 10763 10752 10751 10750 ] final   80.65 input  -60.55 | X-H torsion
[ 11005 11000 10999 10996 ] final   85.46 input  -57.11 | X-H torsion

> <Gold.Protein.ActiveResidues>
 VAL166  LYS551  ARG553  GLY616  TRP617  ASP618  TYR619  PRO620  LYS621  CYS622 
 ASP623  PHE694  ASN695  SER759  ASP760  ASP761  ALA762  ILE779  LEU786  VAL792 
 PHE793  MET794  SER795  GLU796  ALA797  LYS798  CYS799  TRP800  GLU811  SER814 

> <Gold.Protein.RotatedAtoms>
  151.6291  133.3333  159.3104 H   0  0  0  0  0  0  0  0  0  0  0  0  # atno 6907 bound_to 6896
  150.8066  134.7198  159.6661 H   0  0  0  0  0  0  0  0  0  0  0  0  # atno 6908 bound_to 6896
  152.4161  134.6043  160.0060 H   0  0  0  0  0  0  0  0  0  0  0  0  # atno 6909 bound_to 6896
  146.2318  139.9120  142.8523 H   0  0  0  0  0  0  0  0  0  0  0  0  # atno 7974 bound_to 7965
  156.2111  140.3023  155.9734 H   0  0  0  0  0  0  0  0  0  0  0  0  # atno 8008 bound_to 7997
  155.2722  140.0434  157.3025 H   0  0  0  0  0  0  0  0  0  0  0  0  # atno 8009 bound_to 7997
  154.5701  140.2345  155.8213 H   0  0  0  0  0  0  0  0  0  0  0  0  # atno 8010 bound_to 7997
  140.6772  143.2782  151.3935 H   0  0  0  0  0  0  0  0  0  0  0  0  # atno 10167 bound_to 10162
  157.4186  131.1036  151.0378 H   0  0  0  0  0  0  0  0  0  0  0  0  # atno 10718 bound_to 10713
  153.1051  135.4794  154.8937 H   0  0  0  0  0  0  0  0  0  0  0  0  # atno 10763 bound_to 10752
  154.7421  135.3085  154.8711 H   0  0  0  0  0  0  0  0  0  0  0  0  # atno 10764 bound_to 10752
  153.9316  135.6844  153.4799 H   0  0  0  0  0  0  0  0  0  0  0  0  # atno 10765 bound_to 10752
  139.8971  134.8288  156.2586 H   0  0  0  0  0  0  0  0  0  0  0  0  # atno 11005 bound_to 11000
  145.2220  140.9939  143.4040 LP  0  0  0  0  0  0  0  0  0  0  0  0  # atno 17320 bound_to 7965
  144.9602  139.3988  143.6359 LP  0  0  0  0  0  0  0  0  0  0  0  0  # atno 17321 bound_to 7965
  139.6072  144.1173  152.2261 LP  0  0  0  0  0  0  0  0  0  0  0  0  # atno 17342 bound_to 10162
  140.0575  144.5883  150.7288 LP  0  0  0  0  0  0  0  0  0  0  0  0  # atno 17343 bound_to 10162
  157.1317  130.6105  149.5531 LP  0  0  0  0  0  0  0  0  0  0  0  0  # atno 17370 bound_to 10713
  155.9873  130.4911  150.7119 LP  0  0  0  0  0  0  0  0  0  0  0  0  # atno 17371 bound_to 10713
  141.0177  133.7059  156.1217 LP  0  0  0  0  0  0  0  0  0  0  0  0  # atno 17394 bound_to 11000
  140.7277  134.4288  157.5569 LP  0  0  0  0  0  0  0  0  0  0  0  0  # atno 17395 bound_to 11000

$$$$
