AV-unprocessed.smi:2026|AV-procd|sdf|8204|dock3
  -GOLD-   2272010463D 1   1.00000     0.00000
 Structure written by MMmdl.
 47 49  0  0  0  0  0  0  0  0  2 V2000
  152.0692  143.3183  160.2647 C   0  0  0  0  0  0  0  0  0  0  0  0
  151.8478  142.4212  159.0589 C   0  0  0  0  0  0  0  0  0  0  0  0
  150.8963  142.8151  158.0914 C   0  0  0  0  0  0  0  0  0  0  0  0
  150.7145  141.9730  157.0009 C   0  0  0  0  0  0  0  0  0  0  0  0
  149.8681  142.0807  155.8955 N   0  3  0  0  0  0  0  0  0  0  0  0
  150.0442  141.0031  155.0821 C   0  0  0  0  0  0  0  0  0  0  0  0
  150.9892  140.2075  155.6523 N   0  0  0  0  0  0  0  0  0  0  0  0
  151.5462  138.9321  155.1787 C   0  0  0  0  0  0  0  0  0  0  0  0
  150.4693  137.8440  155.0012 C   0  0  1  0  0  0  0  0  0  0  0  0
  151.0675  136.6988  154.4257 O   0  0  0  0  0  0  0  0  0  0  0  0
  149.8340  137.4453  156.3490 C   0  0  0  0  0  0  0  0  0  0  0  0
  148.8490  136.3705  156.1912 N   0  0  0  0  0  0  0  0  0  0  0  0
  148.8781  135.2091  156.8683 C   0  0  0  0  0  0  0  0  0  0  0  0
  149.7014  134.8788  157.7205 O   0  0  0  0  0  0  0  0  0  0  0  0
  147.8506  134.4556  156.4547 N   0  0  0  0  0  0  0  0  0  0  0  0
  147.0515  135.1021  155.4309 C   0  0  0  0  0  0  0  0  0  0  0  0
  147.1014  134.3083  154.1131 C   0  0  0  0  0  0  0  0  0  0  0  0
  145.6103  135.3309  155.9204 C   0  0  0  0  0  0  0  0  0  0  0  0
  147.8255  136.4074  155.3275 C   0  0  0  0  0  0  0  0  0  0  0  0
  147.5365  137.3225  154.5559 O   0  0  0  0  0  0  0  0  0  0  0  0
  151.4384  140.7737  156.8516 C   0  0  0  0  0  0  0  0  0  0  0  0
  152.3821  140.3730  157.7953 C   0  0  0  0  0  0  0  0  0  0  0  0
  152.5832  141.2166  158.9112 C   0  0  0  0  0  0  0  0  0  0  0  0
  153.6088  140.8056  159.9540 C   0  0  0  0  0  0  0  0  0  0  0  0
  151.3940  144.1743  160.2542 H   0  0  0  0  0  0  0  0  0  0  0  0
  153.0907  143.6990  160.2753 H   0  0  0  0  0  0  0  0  0  0  0  0
  151.8939  142.7686  161.1897 H   0  0  0  0  0  0  0  0  0  0  0  0
  150.3349  143.7322  158.1954 H   0  0  0  0  0  0  0  0  0  0  0  0
  149.5294  140.8148  154.1509 H   0  0  0  0  0  0  0  0  0  0  0  0
  152.1052  139.0951  154.2571 H   0  0  0  0  0  0  0  0  0  0  0  0
  152.2755  138.6106  155.9233 H   0  0  0  0  0  0  0  0  0  0  0  0
  149.7054  138.2182  154.3179 H   0  0  0  0  0  0  0  0  0  0  0  0
  150.8101  136.6485  153.5179 H   0  0  0  0  0  0  0  0  0  0  0  0
  150.6018  137.1768  157.0770 H   0  0  0  0  0  0  0  0  0  0  0  0
  149.3233  138.3080  156.7809 H   0  0  0  0  0  0  0  0  0  0  0  0
  147.6486  133.5297  156.8030 H   0  0  0  0  0  0  0  0  0  0  0  0
  146.5149  134.7978  153.3348 H   0  0  0  0  0  0  0  0  0  0  0  0
  146.6982  133.3038  154.2455 H   0  0  0  0  0  0  0  0  0  0  0  0
  148.1221  134.2057  153.7414 H   0  0  0  0  0  0  0  0  0  0  0  0
  145.0103  135.8348  155.1615 H   0  0  0  0  0  0  0  0  0  0  0  0
  145.5816  135.9429  156.8232 H   0  0  0  0  0  0  0  0  0  0  0  0
  145.1203  134.3843  156.1506 H   0  0  0  0  0  0  0  0  0  0  0  0
  152.9454  139.4588  157.6843 H   0  0  0  0  0  0  0  0  0  0  0  0
  154.1226  139.8869  159.6688 H   0  0  0  0  0  0  0  0  0  0  0  0
  153.1270  140.6332  160.9168 H   0  0  0  0  0  0  0  0  0  0  0  0
  154.3635  141.5827  160.0775 H   0  0  0  0  0  0  0  0  0  0  0  0
  149.2195  142.8341  155.7065 H   0  0  0  0  0  0  0  0  0  0  0  0
  1  2  1  0  0  0  0
  1 25  1  0  0  0  0
  1 26  1  0  0  0  0
  1 27  1  0  0  0  0
  2 23  1  0  0  0  0
  2  3  2  0  0  0  0
  3  4  1  0  0  0  0
  3 28  1  0  0  0  0
  4 21  2  0  0  0  0
  4  5  1  0  0  0  0
  5  6  2  0  0  0  0
  5 47  1  0  0  0  0
  6  7  1  0  0  0  0
  6 29  1  0  0  0  0
  7  8  1  0  0  0  0
  7 21  1  0  0  0  0
  8  9  1  0  0  0  0
  8 30  1  0  0  0  0
  8 31  1  0  0  0  0
  9 10  1  0  0  0  0
  9 11  1  0  0  0  0
  9 32  1  0  0  0  0
 10 33  1  0  0  0  0
 11 12  1  0  0  0  0
 11 34  1  0  0  0  0
 11 35  1  0  0  0  0
 12 19  1  0  0  0  0
 12 13  1  0  0  0  0
 13 14  2  0  0  0  0
 13 15  1  0  0  0  0
 15 16  1  0  0  0  0
 15 36  1  0  0  0  0
 16 17  1  0  0  0  0
 16 18  1  0  0  0  0
 16 19  1  0  0  0  0
 17 37  1  0  0  0  0
 17 38  1  0  0  0  0
 17 39  1  0  0  0  0
 18 40  1  0  0  0  0
 18 41  1  0  0  0  0
 18 42  1  0  0  0  0
 19 20  2  0  0  0  0
 21 22  1  0  0  0  0
 22 23  2  0  0  0  0
 22 43  1  0  0  0  0
 23 24  1  0  0  0  0
 24 44  1  0  0  0  0
 24 45  1  0  0  0  0
 24 46  1  0  0  0  0
M  CHG  1   5   1
M  END
> <s_m_source_file>
AV-unprocessed.smi

> <i_m_source_file_index>
2026

> <i_lp_mmshare_version>
43012

> <i_f3d_flags>
0

> <s_epik_input>
W0NIM11jKFtjSF0xKWMoW0NIM10pW2NIXWMoYzEyKW4oW2NIXW4yKVtDSDJdW0NASF0oW09IXSlbQ0gyXU4oQzM9TylDKD1PKVtOSF1DMyhbQ0gzXSlbQ0gzXQ==

> <s_epik_cmdline>
J2VwaWtfcHl0aG9uJywgJy1waCcsICc3LjAnLCAnLXRuJywgJzgnLCAnLW1hJywgJzIwMCcsICctbWV0YWxfYmluZGluZycsICctaW1hZScsICc8aW5maWxlLm1hZT4nLCAnLW9tYWUnLCAnPG91dGZpbGUubWFlPic=

> <r_lp_tautomer_probability>
1

> <r_epik_Ionization_Penalty>
1.08255

> <r_epik_Ionization_Penalty_Charging>
1.08249

> <r_epik_Ionization_Penalty_Neutral>
6.65731e-05

> <r_epik_State_Penalty>
1.13805

> <r_epik_Charging_Adjusted_Penalty>
2.22054

> <i_epik_Tot_Q>
1

> <i_epik_Tot_abs_Q>
1

> <r_epik_Metal_State_Penalty>
1.29676

> <b_epik_Metal_Only>
0

> <s_lp_Force_Field>
OPLS_2005

> <r_lp_Energy>
29.7067

> <b_lp_Chiralities_Consistent>
1

> <s_lp_Variant>
AV-unprocessed.smi:2026-4

> <Gold.Version>
5.8.1

> <Gold.Id.Protein>
6NUR|6NUR_protein|mol2

> <Gold.PLP.Fitness>
48.8805

> <Gold.PLP.PLP>
-34.8579

> <Gold.PLP.part.hbond>
-4.0000

> <Gold.PLP.part.metal>
0.0000

> <Gold.PLP.part.buried>
-1.9431

> <Gold.PLP.part.nonpolar>
-28.3407

> <Gold.PLP.part.repulsive>
0.6329

> <Gold.PLP.ligand.clash>
0.0000

> <Gold.PLP.ligand.torsion>
0.0598

> <Gold.PLP.Chemscore.Hbond>
4.7038

> <Gold.PLP.Chemscore.CHOScore>
0.0000

> <Gold.PLP.Chemscore.Metal>
0.0000

> <Gold.Chemscore.Hbonds>
donor molecule, donor type, donor heavy atom, donor atom, acceptor molecule, acceptor atom, score
      L1  H     5    47       P1  8028  1.95
      L1  H    10    33       P1  7949  0.51
      P1  H  6896  6909       L1    14  0.95
      P1  H 10752 10765       L1    10  0.73

> <Gold.PLP.Chemscore.Internal.Correction>
0.0309

> <Gold.Rescore>
     Score         DG    S(hbond)    S(metal)    S(lipo)     H(rot)  DE(clash)    DE(int)     intcor
     15.50     -17.28       2.39        0.00      87.25       2.49       0.73       1.05       ----

> <Gold.Chemscore.Fitness>
15.5032

> <Gold.Chemscore.DG>
-17.2844

> <Gold.Chemscore.ZeroCoef>
-5.4800

> <Gold.Chemscore.Hbond>
2.3885

> <Gold.Chemscore.Metal>
0.0000

> <Gold.Chemscore.Lipo>
87.2526

> <Gold.Chemscore.Internal_Hbond>
0.0000

> <Gold.Chemscore.DEClash>
0.7323

> <Gold.Chemscore.DEInternal>
1.0489

> <Gold.Chemscore.Rot>
2.4929

> <Gold.Chemscore.Internal.Correction>
   9.000000E+99

> <Gold.Chemscore.Hbonds>
donor molecule, donor type, donor heavy atom, donor atom, acceptor molecule, acceptor atom, score
      L1  H     5    47       P1  8028  0.93
      L1  H    10    33       P1  7949  0.06
      P1  H  6896  6909       L1    14  0.86
      P1  H 10752 10765       L1    10  0.22

> <Gold.Chemscore.Hbond.Weighted>
-7.9777

> <Gold.Chemscore.Metal.Weighted>
-0.0000

> <Gold.Chemscore.Lipo.Weighted>
-10.2086

> <Gold.Chemscore.Internal_Hbond.Weighted>
0.0000

> <Gold.Chemscore.DEClash.Weighted>
0.7323

> <Gold.Chemscore.DEInternal.Weighted>
1.0489

> <Gold.Chemscore.Rot.Weighted>
6.3819

> <Gold.Chemscore.Internal.Correction.Weighted>
   9.000000E+99

> <Gold.Protein.RotatedTorsions>
[ 6907 6896 6895 6894 ] final   22.38 input  -60.11 | X-H torsion
[ 7974 7965 7964 7962 ] final  -16.21 input  175.53 | X-H torsion
[ 8008 7997 7996 7995 ] final  -47.07 input   59.86 | X-H torsion
[ 10167 10162 10161 10158 ] final  -20.02 input  -65.29 | X-H torsion
[ 10718 10713 10712 10709 ] final   47.38 input   66.30 | X-H torsion
[ 10763 10752 10751 10750 ] final  167.54 input  -60.55 | X-H torsion
[ 11005 11000 10999 10996 ] final  -69.08 input  -57.11 | X-H torsion

> <Gold.Protein.ActiveResidues>
 VAL166  LYS551  ARG553  GLY616  TRP617  ASP618  TYR619  PRO620  LYS621  CYS622 
 ASP623  PHE694  ASN695  SER759  ASP760  ASP761  ALA762  ILE779  LEU786  VAL792 
 PHE793  MET794  SER795  GLU796  ALA797  LYS798  CYS799  TRP800  GLU811  SER814 

> <Gold.Protein.RotatedAtoms>
  151.9263  135.0276  160.0525 H   0  0  0  0  0  0  0  0  0  0  0  0  # atno 6907 bound_to 6896
  152.2157  133.4940  159.5143 H   0  0  0  0  0  0  0  0  0  0  0  0  # atno 6908 bound_to 6896
  150.6987  134.1325  159.4118 H   0  0  0  0  0  0  0  0  0  0  0  0  # atno 6909 bound_to 6896
  146.1997  140.3604  142.8427 H   0  0  0  0  0  0  0  0  0  0  0  0  # atno 7974 bound_to 7965
  154.4013  140.1356  156.4114 H   0  0  0  0  0  0  0  0  0  0  0  0  # atno 8008 bound_to 7997
  155.7730  140.3483  155.5236 H   0  0  0  0  0  0  0  0  0  0  0  0  # atno 8009 bound_to 7997
  155.8748  140.0978  157.1516 H   0  0  0  0  0  0  0  0  0  0  0  0  # atno 8010 bound_to 7997
  140.7273  143.4762  151.0179 H   0  0  0  0  0  0  0  0  0  0  0  0  # atno 10167 bound_to 10162
  157.4578  130.8178  149.7855 H   0  0  0  0  0  0  0  0  0  0  0  0  # atno 10718 bound_to 10713
  154.3554  135.2753  155.2349 H   0  0  0  0  0  0  0  0  0  0  0  0  # atno 10763 bound_to 10752
  154.4561  135.5919  153.6227 H   0  0  0  0  0  0  0  0  0  0  0  0  # atno 10764 bound_to 10752
  152.9847  135.6053  154.3768 H   0  0  0  0  0  0  0  0  0  0  0  0  # atno 10765 bound_to 10752
  141.1546  133.6756  156.6545 H   0  0  0  0  0  0  0  0  0  0  0  0  # atno 11005 bound_to 11000
  144.8657  140.7203  143.6079 LP  0  0  0  0  0  0  0  0  0  0  0  0  # atno 17320 bound_to 7965
  145.3524  139.1703  143.4427 LP  0  0  0  0  0  0  0  0  0  0  0  0  # atno 17321 bound_to 7965
  139.8458  143.7504  152.3179 LP  0  0  0  0  0  0  0  0  0  0  0  0  # atno 17342 bound_to 10162
  139.7668  144.7489  151.0282 LP  0  0  0  0  0  0  0  0  0  0  0  0  # atno 17343 bound_to 10162
  156.0015  130.3877  150.2588 LP  0  0  0  0  0  0  0  0  0  0  0  0  # atno 17370 bound_to 10713
  157.0763  131.0131  151.3172 LP  0  0  0  0  0  0  0  0  0  0  0  0  # atno 17371 bound_to 10713
  140.3295  134.7941  157.4315 LP  0  0  0  0  0  0  0  0  0  0  0  0  # atno 17394 bound_to 11000
  140.1029  134.5448  155.8336 LP  0  0  0  0  0  0  0  0  0  0  0  0  # atno 17395 bound_to 11000

$$$$
