AV-unprocessed.smi:1326|AV-procd|sdf|5474|dock1
  -GOLD-   22720 5 43D 1   1.00000     0.00000
 Structure written by MMmdl.
 39 39  0  0  0  0  0  0  0  0  1 V2000
  146.5140  137.9214  152.5208 C   0  0  0  0  0  0  0  0  0  0  0  0
  147.2646  139.0659  153.1684 C   0  0  0  0  0  0  0  0  0  0  0  0
  146.7232  140.1957  153.4858 N   0  0  0  0  0  0  0  0  0  0  0  0
  147.5211  141.1836  154.0798 C   0  0  0  0  0  0  0  0  0  0  0  0
  146.8049  142.4780  154.4265 C   0  0  0  0  0  0  0  0  0  0  0  0
  148.8485  140.9771  154.3277 C   0  0  0  0  0  0  0  0  0  0  0  0
  149.7599  142.0282  154.9617 C   0  0  0  0  0  0  0  0  0  0  0  0
  150.2049  141.7584  156.4025 C   0  0  0  0  0  0  0  0  0  0  0  0
  150.5617  140.6275  156.7310 O   0  0  0  0  0  0  0  0  0  0  0  0
  150.1720  142.7929  157.2552 N   0  0  0  0  0  0  0  0  0  0  0  0
  150.5527  142.7225  158.6582 C   0  0  0  0  0  0  0  0  0  0  0  0
  152.0750  142.5549  158.7916 C   0  0  0  0  0  0  0  0  0  0  0  0
  152.5539  142.2655  160.2289 C   0  0  0  0  0  0  0  0  0  0  0  0
  152.2924  143.4416  161.1853 C   0  0  0  0  0  0  0  0  0  0  0  0
  154.0437  141.8902  160.2397 C   0  0  0  0  0  0  0  0  0  0  0  0
  149.4555  139.6827  153.9616 C   0  0  0  0  0  0  0  0  0  0  0  0
  150.6383  139.3947  154.1366 O   0  0  0  0  0  0  0  0  0  0  0  0
  148.6118  138.7912  153.3956 N   0  0  0  0  0  0  0  0  0  0  0  0
  148.9805  137.8904  153.1275 H   0  0  0  0  0  0  0  0  0  0  0  0
  147.1652  137.0661  152.3347 H   0  0  0  0  0  0  0  0  0  0  0  0
  146.0911  138.2415  151.5680 H   0  0  0  0  0  0  0  0  0  0  0  0
  145.6982  137.5951  153.1664 H   0  0  0  0  0  0  0  0  0  0  0  0
  146.7902  142.6266  155.5064 H   0  0  0  0  0  0  0  0  0  0  0  0
  145.7713  142.4644  154.0781 H   0  0  0  0  0  0  0  0  0  0  0  0
  147.2974  143.3335  153.9655 H   0  0  0  0  0  0  0  0  0  0  0  0
  150.6600  142.1479  154.3596 H   0  0  0  0  0  0  0  0  0  0  0  0
  149.2705  143.0025  154.9187 H   0  0  0  0  0  0  0  0  0  0  0  0
  149.8634  143.6892  156.9070 H   0  0  0  0  0  0  0  0  0  0  0  0
  150.2207  143.6309  159.1621 H   0  0  0  0  0  0  0  0  0  0  0  0
  150.0376  141.8829  159.1271 H   0  0  0  0  0  0  0  0  0  0  0  0
  152.3863  141.7329  158.1451 H   0  0  0  0  0  0  0  0  0  0  0  0
  152.5779  143.4446  158.4095 H   0  0  0  0  0  0  0  0  0  0  0  0
  152.0014  141.4017  160.6013 H   0  0  0  0  0  0  0  0  0  0  0  0
  152.7819  144.3520  160.8378 H   0  0  0  0  0  0  0  0  0  0  0  0
  152.6701  143.2240  162.1847 H   0  0  0  0  0  0  0  0  0  0  0  0
  151.2278  143.6513  161.2855 H   0  0  0  0  0  0  0  0  0  0  0  0
  154.6615  142.7107  159.8728 H   0  0  0  0  0  0  0  0  0  0  0  0
  154.2368  141.0210  159.6101 H   0  0  0  0  0  0  0  0  0  0  0  0
  154.3812  141.6444  161.2470 H   0  0  0  0  0  0  0  0  0  0  0  0
  1  2  1  0  0  0  0
  1 20  1  0  0  0  0
  1 21  1  0  0  0  0
  1 22  1  0  0  0  0
  2 18  1  0  0  0  0
  2  3  2  0  0  0  0
  3  4  1  0  0  0  0
  4  5  1  0  0  0  0
  4  6  2  0  0  0  0
  5 23  1  0  0  0  0
  5 24  1  0  0  0  0
  5 25  1  0  0  0  0
  6  7  1  0  0  0  0
  6 16  1  0  0  0  0
  7  8  1  0  0  0  0
  7 26  1  0  0  0  0
  7 27  1  0  0  0  0
  8  9  2  0  0  0  0
  8 10  1  0  0  0  0
 10 11  1  0  0  0  0
 10 28  1  0  0  0  0
 11 12  1  0  0  0  0
 11 29  1  0  0  0  0
 11 30  1  0  0  0  0
 12 13  1  0  0  0  0
 12 31  1  0  0  0  0
 12 32  1  0  0  0  0
 13 14  1  0  0  0  0
 13 15  1  0  0  0  0
 13 33  1  0  0  0  0
 14 34  1  0  0  0  0
 14 35  1  0  0  0  0
 14 36  1  0  0  0  0
 15 37  1  0  0  0  0
 15 38  1  0  0  0  0
 15 39  1  0  0  0  0
 16 17  2  0  0  0  0
 16 18  1  0  0  0  0
 18 19  1  0  0  0  0
M  END
> <s_m_source_file>
AV-unprocessed.smi

> <i_m_source_file_index>
1326

> <i_lp_mmshare_version>
43012

> <i_f3d_flags>
0

> <s_epik_input>
W0NIM11jMW5jKFtDSDNdKWMoYyg9TylbbkhdMSlbQ0gyXUMoPU8pW05IXVtDSDJdW0NIMl1bQ0hdKFtDSDNdKVtDSDNd

> <s_epik_cmdline>
J2VwaWtfcHl0aG9uJywgJy1waCcsICc3LjAnLCAnLXRuJywgJzgnLCAnLW1hJywgJzIwMCcsICctbWV0YWxfYmluZGluZycsICctaW1hZScsICc8aW5maWxlLm1hZT4nLCAnLW9tYWUnLCAnPG91dGZpbGUubWFlPic=

> <r_lp_tautomer_probability>
0.839158

> <r_epik_Ionization_Penalty>
0.000369141

> <r_epik_Ionization_Penalty_Charging>
0.00033405

> <r_epik_Ionization_Penalty_Neutral>
3.5091e-05

> <r_epik_State_Penalty>
0.09125

> <r_epik_Charging_Adjusted_Penalty>
0.0915841

> <i_epik_Tot_Q>
0

> <i_epik_Tot_abs_Q>
0

> <r_epik_Metal_State_Penalty>
0.250923

> <b_epik_Metal_Only>
0

> <s_lp_Force_Field>
OPLS_2005

> <r_lp_Energy>
6.99246

> <b_lp_Chiralities_Consistent>
1

> <s_lp_Variant>
AV-unprocessed.smi:1326-1

> <Gold.Version>
5.8.1

> <Gold.Id.Protein>
6NUR|6NUR_protein|mol2

> <Gold.PLP.Fitness>
44.0558

> <Gold.PLP.PLP>
-35.9298

> <Gold.PLP.part.hbond>
-4.0000

> <Gold.PLP.part.metal>
0.0000

> <Gold.PLP.part.buried>
1.8055

> <Gold.PLP.part.nonpolar>
-33.7661

> <Gold.PLP.part.repulsive>
0.4398

> <Gold.PLP.ligand.clash>
0.0000

> <Gold.PLP.ligand.torsion>
0.4458

> <Gold.PLP.Chemscore.Hbond>
2.9913

> <Gold.PLP.Chemscore.CHOScore>
0.0000

> <Gold.PLP.Chemscore.Metal>
0.0000

> <Gold.Chemscore.Hbonds>
donor molecule, donor type, donor heavy atom, donor atom, acceptor molecule, acceptor atom, score
      L1  H    10    28       P1  8028  1.00
      L1  H    18    19       P1  7948  0.93
      P1  H  7989  7998       L1    17  1.00

> <Gold.PLP.Chemscore.Internal.Correction>
0.0438

> <Gold.Rescore>
     Score         DG    S(hbond)    S(metal)    S(lipo)     H(rot)  DE(clash)    DE(int)     intcor
     17.08     -19.36       2.76        0.00      81.34       1.89       1.80       0.48       ----

> <Gold.Chemscore.Fitness>
17.0796

> <Gold.Chemscore.DG>
-19.3585

> <Gold.Chemscore.ZeroCoef>
-5.4800

> <Gold.Chemscore.Hbond>
2.7558

> <Gold.Chemscore.Metal>
0.0000

> <Gold.Chemscore.Lipo>
81.3380

> <Gold.Chemscore.Internal_Hbond>
0.0000

> <Gold.Chemscore.DEClash>
1.7992

> <Gold.Chemscore.DEInternal>
0.4796

> <Gold.Chemscore.Rot>
1.8916

> <Gold.Chemscore.Internal.Correction>
   9.000000E+99

> <Gold.Chemscore.Hbonds>
donor molecule, donor type, donor heavy atom, donor atom, acceptor molecule, acceptor atom, score
      L1  H    10    28       P1  8028  0.95
      L1  H    18    19       P1  7948  0.84
      P1  H  7989  7998       L1    17  0.55

> <Gold.Chemscore.Hbond.Weighted>
-9.2044

> <Gold.Chemscore.Metal.Weighted>
-0.0000

> <Gold.Chemscore.Lipo.Weighted>
-9.5165

> <Gold.Chemscore.Internal_Hbond.Weighted>
0.0000

> <Gold.Chemscore.DEClash.Weighted>
1.7992

> <Gold.Chemscore.DEInternal.Weighted>
0.4796

> <Gold.Chemscore.Rot.Weighted>
4.8424

> <Gold.Chemscore.Internal.Correction.Weighted>
   9.000000E+99

> <Gold.Protein.RotatedTorsions>
[ 6907 6896 6895 6894 ] final -147.09 input  -60.11 | X-H torsion
[ 7974 7965 7964 7962 ] final -141.85 input  175.53 | X-H torsion
[ 8008 7997 7996 7995 ] final  -56.75 input   59.86 | X-H torsion
[ 10167 10162 10161 10158 ] final  -20.67 input  -65.29 | X-H torsion
[ 10718 10713 10712 10709 ] final  154.55 input   66.30 | X-H torsion
[ 10763 10752 10751 10750 ] final    1.26 input  -60.55 | X-H torsion
[ 11005 11000 10999 10996 ] final   55.49 input  -57.11 | X-H torsion

> <Gold.Protein.ActiveResidues>
 VAL166  LYS551  ARG553  GLY616  TRP617  ASP618  TYR619  PRO620  LYS621  CYS622 
 ASP623  PHE694  ASN695  SER759  ASP760  ASP761  ALA762  ILE779  LEU786  VAL792 
 PHE793  MET794  SER795  GLU796  ALA797  LYS798  CYS799  TRP800  GLU811  SER814 

> <Gold.Protein.RotatedAtoms>
  151.1508  133.4909  159.2595 H   0  0  0  0  0  0  0  0  0  0  0  0  # atno 6907 bound_to 6896
  151.1556  135.0248  159.8697 H   0  0  0  0  0  0  0  0  0  0  0  0  # atno 6908 bound_to 6896
  152.5463  134.1387  159.8523 H   0  0  0  0  0  0  0  0  0  0  0  0  # atno 6909 bound_to 6896
  144.8488  140.6029  143.5404 H   0  0  0  0  0  0  0  0  0  0  0  0  # atno 7974 bound_to 7965
  154.4242  140.1122  156.5687 H   0  0  0  0  0  0  0  0  0  0  0  0  # atno 8008 bound_to 7997
  155.6235  140.3495  155.4640 H   0  0  0  0  0  0  0  0  0  0  0  0  # atno 8009 bound_to 7997
  156.0005  140.1198  157.0541 H   0  0  0  0  0  0  0  0  0  0  0  0  # atno 8010 bound_to 7997
  140.7277  143.4700  151.0260 H   0  0  0  0  0  0  0  0  0  0  0  0  # atno 10167 bound_to 10162
  157.2302  131.0737  151.1858 H   0  0  0  0  0  0  0  0  0  0  0  0  # atno 10718 bound_to 10713
  153.3103  135.6962  153.7122 H   0  0  0  0  0  0  0  0  0  0  0  0  # atno 10763 bound_to 10752
  153.6002  135.3463  155.2943 H   0  0  0  0  0  0  0  0  0  0  0  0  # atno 10764 bound_to 10752
  154.8573  135.4339  154.2239 H   0  0  0  0  0  0  0  0  0  0  0  0  # atno 10765 bound_to 10752
  140.0603  134.5612  155.9160 H   0  0  0  0  0  0  0  0  0  0  0  0  # atno 11005 bound_to 11000
  145.4543  139.1520  143.3901 LP  0  0  0  0  0  0  0  0  0  0  0  0  # atno 17320 bound_to 7965
  146.2767  140.4670  142.8793 LP  0  0  0  0  0  0  0  0  0  0  0  0  # atno 17321 bound_to 7965
  139.8391  143.7587  152.3180 LP  0  0  0  0  0  0  0  0  0  0  0  0  # atno 17342 bound_to 10162
  139.7730  144.7470  151.0197 LP  0  0  0  0  0  0  0  0  0  0  0  0  # atno 17343 bound_to 10162
  157.3486  130.7070  149.6426 LP  0  0  0  0  0  0  0  0  0  0  0  0  # atno 17370 bound_to 10713
  155.9676  130.4259  150.4674 LP  0  0  0  0  0  0  0  0  0  0  0  0  # atno 17371 bound_to 10713
  141.1970  133.6594  156.5720 LP  0  0  0  0  0  0  0  0  0  0  0  0  # atno 17394 bound_to 11000
  140.3781  134.7547  157.4643 LP  0  0  0  0  0  0  0  0  0  0  0  0  # atno 17395 bound_to 11000

$$$$
