AV-unprocessed.smi:2655|AV-procd|sdf|10304|dock2
  -GOLD-   2272014323D 1   1.00000     0.00000
 Structure written by MMmdl.
 33 34  0  0  0  0  0  0  0  0  2 V2000
  149.3939  141.0669  155.2825 C   0  0  0  0  0  0  0  0  0  0  0  0
  150.3231  139.9220  154.9971 C   0  0  0  0  0  0  0  0  0  0  0  0
  151.6319  140.1518  154.9479 N   0  0  0  0  0  0  0  0  0  0  0  0
  152.1728  138.9496  154.6747 N   0  0  0  0  0  0  0  0  0  0  0  0
  151.2121  137.9781  154.5566 C   0  0  0  0  0  0  0  0  0  0  0  0
  151.5475  136.6894  154.2784 O   0  0  0  0  0  0  0  0  0  0  0  0
  149.9909  138.5512  154.7610 C   0  0  0  0  0  0  0  0  0  0  0  0
  148.6300  137.9083  154.7400 C   0  0  0  0  0  0  0  0  0  0  0  0
  148.5454  136.7336  155.7234 C   0  0  0  0  0  0  0  0  0  0  0  0
  148.3497  137.2167  157.0841 N   0  0  0  0  0  0  0  0  0  0  0  0
  148.9243  136.6984  158.1778 C   0  0  0  0  0  0  0  0  0  0  0  0
  149.6910  135.7384  158.0711 O   0  0  0  0  0  0  0  0  0  0  0  0
  148.5753  137.3240  159.3261 N   0  5  0  0  0  0  0  0  0  0  0  0
  148.1035  136.6173  160.3648 C   0  0  0  0  0  0  0  0  0  0  0  0
  148.0491  135.1995  160.4574 C   0  0  0  0  0  0  0  0  0  0  0  0
  147.5116  134.9876  161.6951 C   0  0  0  0  0  0  0  0  0  0  0  0
  147.1676  133.7494  162.4505 C   0  0  0  0  0  0  0  0  0  0  0  0
  147.2661  136.1744  162.3124 O   0  0  0  0  0  0  0  0  0  0  0  0
  147.6534  137.2125  161.4566 N   0  0  0  0  0  0  0  0  0  0  0  0
  148.3773  140.8439  154.9586 H   0  0  0  0  0  0  0  0  0  0  0  0
  149.7104  141.9729  154.7650 H   0  0  0  0  0  0  0  0  0  0  0  0
  149.3613  141.2857  156.3499 H   0  0  0  0  0  0  0  0  0  0  0  0
  153.1698  138.8196  154.5768 H   0  0  0  0  0  0  0  0  0  0  0  0
  148.3908  137.5559  153.7360 H   0  0  0  0  0  0  0  0  0  0  0  0
  147.8585  138.6387  154.9866 H   0  0  0  0  0  0  0  0  0  0  0  0
  147.7194  136.0752  155.4495 H   0  0  0  0  0  0  0  0  0  0  0  0
  149.4604  136.1406  155.6811 H   0  0  0  0  0  0  0  0  0  0  0  0
  147.7286  138.0026  157.2097 H   0  0  0  0  0  0  0  0  0  0  0  0
  148.3520  134.4601  159.7311 H   0  0  0  0  0  0  0  0  0  0  0  0
  148.0542  133.1348  162.6066 H   0  0  0  0  0  0  0  0  0  0  0  0
  146.4354  133.1556  161.9032 H   0  0  0  0  0  0  0  0  0  0  0  0
  146.7463  133.9880  163.4273 H   0  0  0  0  0  0  0  0  0  0  0  0
  151.4227  136.5499  153.3527 H   0  0  0  0  0  0  0  0  0  0  0  0
  1 20  1  0  0  0  0
  1 21  1  0  0  0  0
  1 22  1  0  0  0  0
  1  2  1  0  0  0  0
  2  7  1  0  0  0  0
  2  3  2  0  0  0  0
  3  4  1  0  0  0  0
  4 23  1  0  0  0  0
  4  5  1  0  0  0  0
  5  7  2  0  0  0  0
  5  6  1  0  0  0  0
  6 33  1  0  0  0  0
  7  8  1  0  0  0  0
  8  9  1  0  0  0  0
  8 24  1  0  0  0  0
  8 25  1  0  0  0  0
  9 10  1  0  0  0  0
  9 26  1  0  0  0  0
  9 27  1  0  0  0  0
 10 11  1  0  0  0  0
 10 28  1  0  0  0  0
 11 12  2  0  0  0  0
 11 13  1  0  0  0  0
 13 14  1  0  0  0  0
 14 19  2  0  0  0  0
 14 15  1  0  0  0  0
 15 16  2  0  0  0  0
 15 29  1  0  0  0  0
 16 17  1  0  0  0  0
 16 18  1  0  0  0  0
 17 30  1  0  0  0  0
 17 31  1  0  0  0  0
 17 32  1  0  0  0  0
 18 19  1  0  0  0  0
M  CHG  1  13  -1
M  END
> <s_m_source_file>
AV-unprocessed.smi

> <i_m_source_file_index>
2655

> <i_lp_mmshare_version>
43012

> <i_f3d_flags>
0

> <s_epik_input>
W0NIM11DMT1OW05IXUMoPU8pW0NASF0xW0NIMl1bQ0gyXVtOSF1DKD1PKVtOSF1jMltjSF1jKFtDSDNdKW9uMg==

> <s_epik_cmdline>
J2VwaWtfcHl0aG9uJywgJy1waCcsICc3LjAnLCAnLXRuJywgJzgnLCAnLW1hJywgJzIwMCcsICctbWV0YWxfYmluZGluZycsICctaW1hZScsICc8aW5maWxlLm1hZT4nLCAnLW9tYWUnLCAnPG91dGZpbGUubWFlPic=

> <r_lp_tautomer_probability>
0.0227396

> <r_epik_Ionization_Penalty>
10.1454

> <r_epik_Ionization_Penalty_Charging>
6.5559

> <r_epik_Ionization_Penalty_Neutral>
3.58948

> <r_epik_State_Penalty>
8.16616

> <r_epik_Charging_Adjusted_Penalty>
14.7221

> <i_epik_Tot_Q>
-1

> <i_epik_Tot_abs_Q>
1

> <r_epik_Metal_State_Penalty>
5.48631

> <b_epik_Metal_Only>
1

> <s_lp_Force_Field>
OPLS_2005

> <r_lp_Energy>
-4.29972

> <b_lp_Chiralities_Consistent>
1

> <s_lp_Variant>
AV-unprocessed.smi:2655-7

> <Gold.Version>
5.8.1

> <Gold.Id.Protein>
6NUR|6NUR_protein|mol2

> <Gold.PLP.Fitness>
46.7366

> <Gold.PLP.PLP>
-31.5795

> <Gold.PLP.part.hbond>
-5.9568

> <Gold.PLP.part.metal>
0.0000

> <Gold.PLP.part.buried>
-4.9253

> <Gold.PLP.part.nonpolar>
-20.5581

> <Gold.PLP.part.repulsive>
0.2586

> <Gold.PLP.ligand.clash>
0.0000

> <Gold.PLP.ligand.torsion>
0.7351

> <Gold.PLP.Chemscore.Hbond>
5.4883

> <Gold.PLP.Chemscore.CHOScore>
0.0000

> <Gold.PLP.Chemscore.Metal>
0.0000

> <Gold.Chemscore.Hbonds>
donor molecule, donor type, donor heavy atom, donor atom, acceptor molecule, acceptor atom, score
      L1  H     6    33       P1  7949  1.00
      P1  H  6896  6907       L1    12  0.78
      P1  H  6931  6943       L1    19  0.98
      P1  H  6934  6947       L1    19  0.80
      P1  H  7989  7998       L1     3  0.85
      P1  H 10752 10763       L1     6  0.95

> <Gold.PLP.Chemscore.Internal.Correction>
0.1625

> <Gold.Rescore>
     Score         DG    S(hbond)    S(metal)    S(lipo)     H(rot)  DE(clash)    DE(int)     intcor
     15.43     -17.37       3.76        0.00      48.94       2.49       0.05       1.89       ----

> <Gold.Chemscore.Fitness>
15.4324

> <Gold.Chemscore.DG>
-17.3720

> <Gold.Chemscore.ZeroCoef>
-5.4800

> <Gold.Chemscore.Hbond>
3.7564

> <Gold.Chemscore.Metal>
0.0000

> <Gold.Chemscore.Lipo>
48.9361

> <Gold.Chemscore.Internal_Hbond>
0.0000

> <Gold.Chemscore.DEClash>
0.0460

> <Gold.Chemscore.DEInternal>
1.8936

> <Gold.Chemscore.Rot>
2.4922

> <Gold.Chemscore.Internal.Correction>
   9.000000E+99

> <Gold.Chemscore.Hbonds>
donor molecule, donor type, donor heavy atom, donor atom, acceptor molecule, acceptor atom, score
      L1  H     6    33       P1  7949  0.81
      P1  H  6896  6907       L1    12  0.74
      P1  H  6931  6943       L1    19  0.32
      P1  H  6934  6947       L1    19  0.48
      P1  H  7989  7998       L1     3  0.05
      P1  H 10752 10763       L1     6  0.21

> <Gold.Chemscore.Hbond.Weighted>
-12.5465

> <Gold.Chemscore.Metal.Weighted>
-0.0000

> <Gold.Chemscore.Lipo.Weighted>
-5.7255

> <Gold.Chemscore.Internal_Hbond.Weighted>
0.0000

> <Gold.Chemscore.DEClash.Weighted>
0.0460

> <Gold.Chemscore.DEInternal.Weighted>
1.8936

> <Gold.Chemscore.Rot.Weighted>
6.3800

> <Gold.Chemscore.Internal.Correction.Weighted>
   9.000000E+99

> <Gold.Protein.RotatedTorsions>
[ 6907 6896 6895 6894 ] final  -73.71 input  -60.11 | X-H torsion
[ 7974 7965 7964 7962 ] final -149.67 input  175.53 | X-H torsion
[ 8008 7997 7996 7995 ] final  -37.61 input   59.86 | X-H torsion
[ 10167 10162 10161 10158 ] final -168.39 input  -65.29 | X-H torsion
[ 10718 10713 10712 10709 ] final  137.44 input   66.30 | X-H torsion
[ 10763 10752 10751 10750 ] final   58.39 input  -60.55 | X-H torsion
[ 11005 11000 10999 10996 ] final   53.40 input  -57.11 | X-H torsion

> <Gold.Protein.ActiveResidues>
 VAL166  LYS551  ARG553  GLY616  TRP617  ASP618  TYR619  PRO620  LYS621  CYS622 
 ASP623  PHE694  ASN695  SER759  ASP760  ASP761  ALA762  ILE779  LEU786  VAL792 
 PHE793  MET794  SER795  GLU796  ALA797  LYS798  CYS799  TRP800  GLU811  SER814 

> <Gold.Protein.RotatedAtoms>
  150.7120  134.4976  159.5545 H   0  0  0  0  0  0  0  0  0  0  0  0  # atno 6907 bound_to 6896
  152.2580  134.8060  160.0444 H   0  0  0  0  0  0  0  0  0  0  0  0  # atno 6908 bound_to 6896
  151.8784  133.3455  159.3795 H   0  0  0  0  0  0  0  0  0  0  0  0  # atno 6909 bound_to 6896
  144.7954  140.5034  143.5744 H   0  0  0  0  0  0  0  0  0  0  0  0  # atno 7974 bound_to 7965
  154.4050  140.1599  156.2565 H   0  0  0  0  0  0  0  0  0  0  0  0  # atno 8008 bound_to 7997
  155.9074  140.3429  155.6050 H   0  0  0  0  0  0  0  0  0  0  0  0  # atno 8009 bound_to 7997
  155.7377  140.0788  157.2251 H   0  0  0  0  0  0  0  0  0  0  0  0  # atno 8010 bound_to 7997
  139.5988  144.1055  152.1719 H   0  0  0  0  0  0  0  0  0  0  0  0  # atno 10167 bound_to 10162
  157.4360  131.1053  151.0197 H   0  0  0  0  0  0  0  0  0  0  0  0  # atno 10718 bound_to 10713
  152.9870  135.5608  154.5544 H   0  0  0  0  0  0  0  0  0  0  0  0  # atno 10763 bound_to 10752
  154.4975  135.2795  155.1449 H   0  0  0  0  0  0  0  0  0  0  0  0  # atno 10764 bound_to 10752
  154.2893  135.6329  153.5432 H   0  0  0  0  0  0  0  0  0  0  0  0  # atno 10765 bound_to 10752
  140.0770  134.5390  155.8985 H   0  0  0  0  0  0  0  0  0  0  0  0  # atno 11005 bound_to 11000
  145.5688  139.1482  143.3300 LP  0  0  0  0  0  0  0  0  0  0  0  0  # atno 17320 bound_to 7965
  146.2220  140.5822  142.9013 LP  0  0  0  0  0  0  0  0  0  0  0  0  # atno 17321 bound_to 7965
  140.0646  144.5829  150.7237 LP  0  0  0  0  0  0  0  0  0  0  0  0  # atno 17342 bound_to 10162
  140.7233  143.2610  151.4205 LP  0  0  0  0  0  0  0  0  0  0  0  0  # atno 17343 bound_to 10162
  157.1076  130.6008  149.5474 LP  0  0  0  0  0  0  0  0  0  0  0  0  # atno 17370 bound_to 10713
  155.9931  130.4990  150.7365 LP  0  0  0  0  0  0  0  0  0  0  0  0  # atno 17371 bound_to 10713
  141.2033  133.6631  156.6056 LP  0  0  0  0  0  0  0  0  0  0  0  0  # atno 17394 bound_to 11000
  140.3542  134.7742  157.4489 LP  0  0  0  0  0  0  0  0  0  0  0  0  # atno 17395 bound_to 11000

$$$$
