AV-unprocessed.smi:2686|AV-procd|sdf|10384|dock7
  -GOLD-   2272014413D 1   1.00000     0.00000
 Structure written by MMmdl.
 32 32  0  0  0  0  0  0  0  0  1 V2000
  148.8827  134.2327  154.8661 C   0  0  0  0  0  0  0  0  0  0  0  0
  149.5100  135.5327  154.6836 N   0  0  0  0  0  0  0  0  0  0  0  0
  150.5224  135.9939  155.4310 C   0  0  0  0  0  0  0  0  0  0  0  0
  151.0376  135.3437  156.3417 O   0  0  0  0  0  0  0  0  0  0  0  0
  151.0408  137.3938  155.0770 C   0  0  0  0  0  0  0  0  0  0  0  0
  150.4704  138.4410  155.9210 N   0  0  0  0  0  0  0  0  0  0  0  0
  150.0861  139.6537  155.4929 C   0  0  0  0  0  0  0  0  0  0  0  0
  150.1984  140.0188  154.3213 O   0  0  0  0  0  0  0  0  0  0  0  0
  149.4821  140.5781  156.5600 C   0  0  0  0  0  0  0  0  0  0  0  0
  150.4586  141.0390  157.5612 N   0  0  0  0  0  0  0  0  0  0  0  0
  150.7358  142.4197  157.5914 C   0  0  0  0  0  0  0  0  0  0  0  0
  151.6019  142.9752  158.4605 C   0  0  0  0  0  0  0  0  0  0  0  0
  151.9262  144.4605  158.4273 C   0  0  0  0  0  0  0  0  0  0  0  0
  152.8544  144.7698  159.3331 F   0  0  0  0  0  0  0  0  0  0  0  0
  152.3733  144.8299  157.2264 F   0  0  0  0  0  0  0  0  0  0  0  0
  150.8307  145.1692  158.6974 F   0  0  0  0  0  0  0  0  0  0  0  0
  152.2784  142.0669  159.3656 C   0  0  0  0  0  0  0  0  0  0  0  0
  152.0357  140.7417  159.3401 C   0  0  0  0  0  0  0  0  0  0  0  0
  151.0780  140.1551  158.3997 C   0  0  0  0  0  0  0  0  0  0  0  0
  150.8492  138.9458  158.3668 O   0  0  0  0  0  0  0  0  0  0  0  0
  148.1432  134.0635  154.0836 H   0  0  0  0  0  0  0  0  0  0  0  0
  148.3766  134.1815  155.8308 H   0  0  0  0  0  0  0  0  0  0  0  0
  149.6205  133.4305  154.8176 H   0  0  0  0  0  0  0  0  0  0  0  0
  149.1443  136.1242  153.9515 H   0  0  0  0  0  0  0  0  0  0  0  0
  152.1235  137.4036  155.2035 H   0  0  0  0  0  0  0  0  0  0  0  0
  150.8461  137.6147  154.0257 H   0  0  0  0  0  0  0  0  0  0  0  0
  150.3386  138.2176  156.8968 H   0  0  0  0  0  0  0  0  0  0  0  0
  149.0301  141.4355  156.0589 H   0  0  0  0  0  0  0  0  0  0  0  0
  148.6504  140.0612  157.0419 H   0  0  0  0  0  0  0  0  0  0  0  0
  150.2037  142.9995  156.8509 H   0  0  0  0  0  0  0  0  0  0  0  0
  152.9905  142.4557  160.0783 H   0  0  0  0  0  0  0  0  0  0  0  0
  152.5580  140.0953  160.0299 H   0  0  0  0  0  0  0  0  0  0  0  0
  1  2  1  0  0  0  0
  1 21  1  0  0  0  0
  1 22  1  0  0  0  0
  1 23  1  0  0  0  0
  2  3  1  0  0  0  0
  2 24  1  0  0  0  0
  3  4  2  0  0  0  0
  3  5  1  0  0  0  0
  5  6  1  0  0  0  0
  5 25  1  0  0  0  0
  5 26  1  0  0  0  0
  6  7  1  0  0  0  0
  6 27  1  0  0  0  0
  7  8  2  0  0  0  0
  7  9  1  0  0  0  0
  9 10  1  0  0  0  0
  9 28  1  0  0  0  0
  9 29  1  0  0  0  0
 10 19  1  0  0  0  0
 10 11  1  0  0  0  0
 11 12  2  0  0  0  0
 11 30  1  0  0  0  0
 12 13  1  0  0  0  0
 12 17  1  0  0  0  0
 13 14  1  0  0  0  0
 13 15  1  0  0  0  0
 13 16  1  0  0  0  0
 17 18  2  0  0  0  0
 17 31  1  0  0  0  0
 18 19  1  0  0  0  0
 18 32  1  0  0  0  0
 19 20  2  0  0  0  0
M  END
> <s_m_source_file>
AV-unprocessed.smi

> <i_m_source_file_index>
2686

> <i_lp_mmshare_version>
43012

> <i_f3d_flags>
0

> <s_epik_input>
W0NIM11bTkhdQyg9TylbQ0gyXVtOSF1DKD1PKVtDSDJdbjFbY0hdYyhDKEYpKEYpRilbY0hdW2NIXWMxPU8=

> <s_epik_cmdline>
J2VwaWtfcHl0aG9uJywgJy1waCcsICc3LjAnLCAnLXRuJywgJzgnLCAnLW1hJywgJzIwMCcsICctbWV0YWxfYmluZGluZycsICctaW1hZScsICc8aW5maWxlLm1hZT4nLCAnLW9tYWUnLCAnPG91dGZpbGUubWFlPic=

> <r_lp_tautomer_probability>
1

> <r_epik_Ionization_Penalty>
8.267e-08

> <r_epik_Ionization_Penalty_Charging>
1.5129e-08

> <r_epik_Ionization_Penalty_Neutral>
6.7541e-08

> <r_epik_State_Penalty>
-0

> <r_epik_Charging_Adjusted_Penalty>
1.5129e-08

> <i_epik_Tot_Q>
0

> <i_epik_Tot_abs_Q>
0

> <r_epik_Metal_State_Penalty>
-0

> <b_epik_Metal_Only>
0

> <s_lp_Force_Field>
OPLS_2005

> <r_lp_Energy>
10.5627

> <b_lp_Chiralities_Consistent>
1

> <s_lp_Variant>
AV-unprocessed.smi:2686-1

> <Gold.Version>
5.8.1

> <Gold.Id.Protein>
6NUR|6NUR_protein|mol2

> <Gold.PLP.Fitness>
45.7492

> <Gold.PLP.PLP>
-35.5416

> <Gold.PLP.part.hbond>
-3.6704

> <Gold.PLP.part.metal>
0.0000

> <Gold.PLP.part.buried>
-4.4823

> <Gold.PLP.part.nonpolar>
-27.6905

> <Gold.PLP.part.repulsive>
0.2422

> <Gold.PLP.ligand.clash>
0.0000

> <Gold.PLP.ligand.torsion>
0.5830

> <Gold.PLP.Chemscore.Hbond>
2.7760

> <Gold.PLP.Chemscore.CHOScore>
1.0000

> <Gold.PLP.Chemscore.Metal>
0.0000

> <Gold.Chemscore.Hbonds>
donor molecule, donor type, donor heavy atom, donor atom, acceptor molecule, acceptor atom, score
      L1  H     2    24       P1  7948  0.72
      P1  H  7989  7998       L1     8  1.00
      L1  C    11    30       P1  8028  1.00

> <Gold.PLP.Chemscore.Internal.Correction>
0.0455

> <Gold.Rescore>
     Score         DG    S(hbond)    S(metal)    S(lipo)     H(rot)  DE(clash)    DE(int)     intcor
     10.90     -13.47       2.01        0.00      61.59       2.32       0.27       2.29       ----

> <Gold.Chemscore.Fitness>
10.9005

> <Gold.Chemscore.DG>
-13.4670

> <Gold.Chemscore.ZeroCoef>
-5.4800

> <Gold.Chemscore.Hbond>
2.0107

> <Gold.Chemscore.Metal>
0.0000

> <Gold.Chemscore.Lipo>
61.5928

> <Gold.Chemscore.Internal_Hbond>
0.0000

> <Gold.Chemscore.DEClash>
0.2730

> <Gold.Chemscore.DEInternal>
2.2935

> <Gold.Chemscore.Rot>
2.3184

> <Gold.Chemscore.Internal.Correction>
   9.000000E+99

> <Gold.Chemscore.Hbonds>
donor molecule, donor type, donor heavy atom, donor atom, acceptor molecule, acceptor atom, score
      L1  H     2    24       P1  7948  0.66
      P1  H  7989  7998       L1     8  0.98

> <Gold.Chemscore.Hbond.Weighted>
-6.7158

> <Gold.Chemscore.Metal.Weighted>
-0.0000

> <Gold.Chemscore.Lipo.Weighted>
-7.2064

> <Gold.Chemscore.Internal_Hbond.Weighted>
0.0000

> <Gold.Chemscore.DEClash.Weighted>
0.2730

> <Gold.Chemscore.DEInternal.Weighted>
2.2935

> <Gold.Chemscore.Rot.Weighted>
5.9352

> <Gold.Chemscore.Internal.Correction.Weighted>
   9.000000E+99

> <Gold.Protein.RotatedTorsions>
[ 6907 6896 6895 6894 ] final    8.87 input  -60.11 | X-H torsion
[ 7974 7965 7964 7962 ] final    1.25 input  175.53 | X-H torsion
[ 8008 7997 7996 7995 ] final  108.34 input   59.86 | X-H torsion
[ 10167 10162 10161 10158 ] final    3.86 input  -65.29 | X-H torsion
[ 10718 10713 10712 10709 ] final   35.89 input   66.30 | X-H torsion
[ 10763 10752 10751 10750 ] final  101.47 input  -60.55 | X-H torsion
[ 11005 11000 10999 10996 ] final   52.84 input  -57.11 | X-H torsion

> <Gold.Protein.ActiveResidues>
 VAL166  LYS551  ARG553  GLY616  TRP617  ASP618  TYR619  PRO620  LYS621  CYS622 
 ASP623  PHE694  ASN695  SER759  ASP760  ASP761  ALA762  ILE779  LEU786  VAL792 
 PHE793  MET794  SER795  GLU796  ALA797  LYS798  CYS799  TRP800  GLU811  SER814 

> <Gold.Protein.RotatedAtoms>
  151.7130  135.0909  160.0270 H   0  0  0  0  0  0  0  0  0  0  0  0  # atno 6907 bound_to 6896
  152.3650  133.6340  159.6052 H   0  0  0  0  0  0  0  0  0  0  0  0  # atno 6908 bound_to 6896
  150.7631  133.9279  159.3459 H   0  0  0  0  0  0  0  0  0  0  0  0  # atno 6909 bound_to 6896
  146.2439  140.1015  142.8347 H   0  0  0  0  0  0  0  0  0  0  0  0  # atno 7974 bound_to 7965
  156.1895  140.3078  155.9305 H   0  0  0  0  0  0  0  0  0  0  0  0  # atno 8008 bound_to 7997
  155.3205  140.0455  157.3056 H   0  0  0  0  0  0  0  0  0  0  0  0  # atno 8009 bound_to 7997
  154.5436  140.2269  155.8610 H   0  0  0  0  0  0  0  0  0  0  0  0  # atno 8010 bound_to 7997
  140.6564  143.7415  150.7662 H   0  0  0  0  0  0  0  0  0  0  0  0  # atno 10167 bound_to 10162
  157.3282  130.7484  149.6830 H   0  0  0  0  0  0  0  0  0  0  0  0  # atno 10718 bound_to 10713
  153.3271  135.4043  155.1465 H   0  0  0  0  0  0  0  0  0  0  0  0  # atno 10763 bound_to 10752
  154.8614  135.3601  154.5519 H   0  0  0  0  0  0  0  0  0  0  0  0  # atno 10764 bound_to 10752
  153.5955  135.7072  153.5464 H   0  0  0  0  0  0  0  0  0  0  0  0  # atno 10765 bound_to 10752
  140.0816  134.5331  155.8941 H   0  0  0  0  0  0  0  0  0  0  0  0  # atno 11005 bound_to 11000
  145.0564  140.9056  143.4964 LP  0  0  0  0  0  0  0  0  0  0  0  0  # atno 17320 bound_to 7965
  145.1122  139.2749  143.5631 LP  0  0  0  0  0  0  0  0  0  0  0  0  # atno 17321 bound_to 7965
  140.1076  143.4729  152.2389 LP  0  0  0  0  0  0  0  0  0  0  0  0  # atno 17342 bound_to 10162
  139.5788  144.7500  151.3694 LP  0  0  0  0  0  0  0  0  0  0  0  0  # atno 17343 bound_to 10162
  155.9693  130.4203  150.4415 LP  0  0  0  0  0  0  0  0  0  0  0  0  # atno 17370 bound_to 10713
  157.2443  131.0532  151.2418 LP  0  0  0  0  0  0  0  0  0  0  0  0  # atno 17371 bound_to 10713
  141.2048  133.6642  156.6145 LP  0  0  0  0  0  0  0  0  0  0  0  0  # atno 17394 bound_to 11000
  140.3480  134.7793  157.4446 LP  0  0  0  0  0  0  0  0  0  0  0  0  # atno 17395 bound_to 11000

$$$$
