AV-unprocessed.smi:407|AV-procd|sdf|2501|dock10
  -GOLD-   2262022453D 1   1.00000     0.00000
 Structure written by MMmdl.
 45 47  0  0  0  0  0  0  0  0  1 V2000
  153.7297  133.7231  165.3073 C   0  0  0  0  0  0  0  0  0  0  0  0
  154.9227  134.3237  164.5654 C   0  0  0  0  0  0  0  0  0  0  0  0
  156.0584  134.0363  164.9423 O   0  0  0  0  0  0  0  0  0  0  0  0
  154.6422  135.2346  163.4194 C   0  0  0  0  0  0  0  0  0  0  0  0
  155.1766  134.9349  162.1465 C   0  0  0  0  0  0  0  0  0  0  0  0
  154.9276  135.7792  161.0480 C   0  0  0  0  0  0  0  0  0  0  0  0
  154.1417  136.9392  161.1914 C   0  0  0  0  0  0  0  0  0  0  0  0
  153.9519  137.7104  160.0650 O   0  0  0  0  0  0  0  0  0  0  0  0
  152.7617  138.4820  159.9684 C   0  0  0  0  0  0  0  0  0  0  0  0
  153.0329  139.6985  159.0676 C   0  0  2  0  0  0  0  0  0  0  0  0
  153.4688  139.2054  157.8161 O   0  0  0  0  0  0  0  0  0  0  0  0
  154.1522  140.5949  159.6352 C   0  0  0  0  0  0  0  0  0  0  0  0
  153.6121  141.7373  160.3717 N   0  0  0  0  0  0  0  0  0  0  0  0
  153.7243  141.9640  161.7023 C   0  0  0  0  0  0  0  0  0  0  0  0
  154.3070  141.2411  162.5103 O   0  0  0  0  0  0  0  0  0  0  0  0
  153.0826  143.1213  161.9862 N   0  0  0  0  0  0  0  0  0  0  0  0
  152.9480  143.7515  163.2939 C   0  0  0  0  0  0  0  0  0  0  0  0
  152.5483  143.6525  160.8057 C   0  0  0  0  0  0  0  0  0  0  0  0
  151.8065  144.8234  160.5744 C   0  0  0  0  0  0  0  0  0  0  0  0
  151.4021  145.0792  159.2431 C   0  0  0  0  0  0  0  0  0  0  0  0
  151.7383  144.1818  158.1964 C   0  0  0  0  0  0  0  0  0  0  0  0
  152.4873  143.0105  158.4577 C   0  0  0  0  0  0  0  0  0  0  0  0
  152.8786  142.7813  159.7888 C   0  0  0  0  0  0  0  0  0  0  0  0
  153.6007  137.2398  162.4656 C   0  0  0  0  0  0  0  0  0  0  0  0
  153.8488  136.3961  163.5659 C   0  0  0  0  0  0  0  0  0  0  0  0
  153.0925  134.5116  165.7082 H   0  0  0  0  0  0  0  0  0  0  0  0
  154.0696  133.1053  166.1388 H   0  0  0  0  0  0  0  0  0  0  0  0
  153.1384  133.0978  164.6380 H   0  0  0  0  0  0  0  0  0  0  0  0
  155.7856  134.0547  161.9980 H   0  0  0  0  0  0  0  0  0  0  0  0
  155.3471  135.5337  160.0833 H   0  0  0  0  0  0  0  0  0  0  0  0
  151.9893  137.8579  159.5157 H   0  0  0  0  0  0  0  0  0  0  0  0
  152.4020  138.7984  160.9493 H   0  0  0  0  0  0  0  0  0  0  0  0
  152.1134  140.2727  158.9448 H   0  0  0  0  0  0  0  0  0  0  0  0
  153.4010  138.2630  157.8257 H   0  0  0  0  0  0  0  0  0  0  0  0
  154.7669  140.0199  160.3294 H   0  0  0  0  0  0  0  0  0  0  0  0
  154.8318  140.9217  158.8475 H   0  0  0  0  0  0  0  0  0  0  0  0
  151.9102  144.0322  163.4753 H   0  0  0  0  0  0  0  0  0  0  0  0
  153.5599  144.6526  163.3405 H   0  0  0  0  0  0  0  0  0  0  0  0
  153.2590  143.0871  164.1012 H   0  0  0  0  0  0  0  0  0  0  0  0
  151.5535  145.5006  161.3769 H   0  0  0  0  0  0  0  0  0  0  0  0
  150.8298  145.9678  159.0206 H   0  0  0  0  0  0  0  0  0  0  0  0
  151.4181  144.3957  157.1873 H   0  0  0  0  0  0  0  0  0  0  0  0
  152.7433  142.3246  157.6640 H   0  0  0  0  0  0  0  0  0  0  0  0
  152.9894  138.1145  162.6270 H   0  0  0  0  0  0  0  0  0  0  0  0
  153.4163  136.6627  164.5186 H   0  0  0  0  0  0  0  0  0  0  0  0
  1  2  1  0  0  0  0
  1 26  1  0  0  0  0
  1 27  1  0  0  0  0
  1 28  1  0  0  0  0
  2  3  2  0  0  0  0
  2  4  1  0  0  0  0
  4 25  1  0  0  0  0
  4  5  2  0  0  0  0
  5  6  1  0  0  0  0
  5 29  1  0  0  0  0
  6  7  2  0  0  0  0
  6 30  1  0  0  0  0
  7  8  1  0  0  0  0
  7 24  1  0  0  0  0
  8  9  1  0  0  0  0
  9 10  1  0  0  0  0
  9 31  1  0  0  0  0
  9 32  1  0  0  0  0
 10 11  1  0  0  0  0
 10 12  1  0  0  0  0
 10 33  1  0  0  0  0
 11 34  1  0  0  0  0
 12 13  1  0  0  0  0
 12 35  1  0  0  0  0
 12 36  1  0  0  0  0
 13 23  1  0  0  0  0
 13 14  1  0  0  0  0
 14 15  2  0  0  0  0
 14 16  1  0  0  0  0
 16 17  1  0  0  0  0
 16 18  1  0  0  0  0
 17 37  1  0  0  0  0
 17 38  1  0  0  0  0
 17 39  1  0  0  0  0
 18 23  2  0  0  0  0
 18 19  1  0  0  0  0
 19 20  2  0  0  0  0
 19 40  1  0  0  0  0
 20 21  1  0  0  0  0
 20 41  1  0  0  0  0
 21 22  2  0  0  0  0
 21 42  1  0  0  0  0
 22 23  1  0  0  0  0
 22 43  1  0  0  0  0
 24 25  2  0  0  0  0
 24 44  1  0  0  0  0
 25 45  1  0  0  0  0
M  END
> <s_m_source_file>
AV-unprocessed.smi

> <i_m_source_file_index>
407

> <i_lp_mmshare_version>
43012

> <i_f3d_flags>
0

> <s_epik_input>
W0NIM11DKD1PKWMxW2NIXVtjSF1jKFtjSF1bY0hdMSlPW0NIMl1bQ0BIXShbT0hdKVtDSDJdbihjKD1PKW4yW0NIM10pYyhjMjMpW2NIXVtjSF1bY0hdW2NIXTM=

> <s_epik_cmdline>
J2VwaWtfcHl0aG9uJywgJy1waCcsICc3LjAnLCAnLXRuJywgJzgnLCAnLW1hJywgJzIwMCcsICctbWV0YWxfYmluZGluZycsICctaW1hZScsICc8aW5maWxlLm1hZT4nLCAnLW9tYWUnLCAnPG91dGZpbGUubWFlPic=

> <r_lp_tautomer_probability>
1

> <r_epik_Ionization_Penalty>
2.40123e-06

> <r_epik_Ionization_Penalty_Charging>
1.9356e-09

> <r_epik_Ionization_Penalty_Neutral>
2.3993e-06

> <r_epik_State_Penalty>
-0

> <r_epik_Charging_Adjusted_Penalty>
1.9356e-09

> <i_epik_Tot_Q>
0

> <i_epik_Tot_abs_Q>
0

> <r_epik_Metal_State_Penalty>
-0

> <b_epik_Metal_Only>
0

> <s_lp_Force_Field>
OPLS_2005

> <r_lp_Energy>
53.6429

> <b_lp_Chiralities_Consistent>
1

> <s_lp_Variant>
AV-unprocessed.smi:407-1

> <Gold.Version>
5.8.1

> <Gold.Id.Protein>
6NUR|6NUR_protein|mol2

> <Gold.PLP.Fitness>
59.6506

> <Gold.PLP.PLP>
-60.8522

> <Gold.PLP.part.hbond>
-1.7436

> <Gold.PLP.part.metal>
0.0000

> <Gold.PLP.part.buried>
-4.9883

> <Gold.PLP.part.nonpolar>
-54.8587

> <Gold.PLP.part.repulsive>
0.0612

> <Gold.PLP.ligand.clash>
0.0000

> <Gold.PLP.ligand.torsion>
2.1298

> <Gold.PLP.Chemscore.Hbond>
1.0000

> <Gold.PLP.Chemscore.CHOScore>
0.0000

> <Gold.PLP.Chemscore.Metal>
0.0000

> <Gold.Chemscore.Hbonds>
donor molecule, donor type, donor heavy atom, donor atom, acceptor molecule, acceptor atom, score
      P1  H  7997  8009       L1    11  1.00

> <Gold.PLP.Chemscore.Internal.Correction>
0.0580

> <Gold.Rescore>
     Score         DG    S(hbond)    S(metal)    S(lipo)     H(rot)  DE(clash)    DE(int)     intcor
     19.02     -21.45       0.98        0.00     158.76       2.30       0.46       1.96       ----

> <Gold.Chemscore.Fitness>
19.0234

> <Gold.Chemscore.DG>
-21.4510

> <Gold.Chemscore.ZeroCoef>
-5.4800

> <Gold.Chemscore.Hbond>
0.9822

> <Gold.Chemscore.Metal>
0.0000

> <Gold.Chemscore.Lipo>
158.7561

> <Gold.Chemscore.Internal_Hbond>
0.0000

> <Gold.Chemscore.DEClash>
0.4640

> <Gold.Chemscore.DEInternal>
1.9636

> <Gold.Chemscore.Rot>
2.2984

> <Gold.Chemscore.Internal.Correction>
   9.000000E+99

> <Gold.Chemscore.Hbonds>
donor molecule, donor type, donor heavy atom, donor atom, acceptor molecule, acceptor atom, score
      P1  H  7997  8009       L1    11  0.94

> <Gold.Chemscore.Hbond.Weighted>
-3.2804

> <Gold.Chemscore.Metal.Weighted>
-0.0000

> <Gold.Chemscore.Lipo.Weighted>
-18.5745

> <Gold.Chemscore.Internal_Hbond.Weighted>
0.0000

> <Gold.Chemscore.DEClash.Weighted>
0.4640

> <Gold.Chemscore.DEInternal.Weighted>
1.9636

> <Gold.Chemscore.Rot.Weighted>
5.8839

> <Gold.Chemscore.Internal.Correction.Weighted>
   9.000000E+99

> <Gold.Protein.RotatedTorsions>
[ 6907 6896 6895 6894 ] final   -8.74 input  -60.11 | X-H torsion
[ 7974 7965 7964 7962 ] final  170.26 input  175.53 | X-H torsion
[ 8008 7997 7996 7995 ] final  151.73 input   59.86 | X-H torsion
[ 10167 10162 10161 10158 ] final  160.73 input  -65.29 | X-H torsion
[ 10718 10713 10712 10709 ] final   35.30 input   66.30 | X-H torsion
[ 10763 10752 10751 10750 ] final -107.98 input  -60.55 | X-H torsion
[ 11005 11000 10999 10996 ] final  -19.96 input  -57.11 | X-H torsion

> <Gold.Protein.ActiveResidues>
 VAL166  LYS551  ARG553  GLY616  TRP617  ASP618  TYR619  PRO620  LYS621  CYS622 
 ASP623  PHE694  ASN695  SER759  ASP760  ASP761  ALA762  ILE779  LEU786  VAL792 
 PHE793  MET794  SER795  GLU796  ALA797  LYS798  CYS799  TRP800  GLU811  SER814 

> <Gold.Protein.RotatedAtoms>
  151.4289  135.1007  159.9635 H   0  0  0  0  0  0  0  0  0  0  0  0  # atno 6907 bound_to 6896
  152.4963  133.8637  159.7273 H   0  0  0  0  0  0  0  0  0  0  0  0  # atno 6908 bound_to 6896
  150.9170  133.6869  159.2869 H   0  0  0  0  0  0  0  0  0  0  0  0  # atno 6909 bound_to 6896
  144.7329  139.9176  143.6418 H   0  0  0  0  0  0  0  0  0  0  0  0  # atno 7974 bound_to 7965
  156.2661  140.2040  156.6222 H   0  0  0  0  0  0  0  0  0  0  0  0  # atno 8008 bound_to 7997
  154.6748  140.0546  157.0228 H   0  0  0  0  0  0  0  0  0  0  0  0  # atno 8009 bound_to 7997
  155.1085  140.3213  155.4531 H   0  0  0  0  0  0  0  0  0  0  0  0  # atno 8010 bound_to 7997
  139.4842  144.4605  151.8711 H   0  0  0  0  0  0  0  0  0  0  0  0  # atno 10167 bound_to 10162
  157.3210  130.7448  149.6785 H   0  0  0  0  0  0  0  0  0  0  0  0  # atno 10718 bound_to 10713
  154.8108  135.4655  154.0512 H   0  0  0  0  0  0  0  0  0  0  0  0  # atno 10763 bound_to 10752
  153.1944  135.6860  153.8317 H   0  0  0  0  0  0  0  0  0  0  0  0  # atno 10764 bound_to 10752
  153.7824  135.3254  155.3345 H   0  0  0  0  0  0  0  0  0  0  0  0  # atno 10765 bound_to 10752
  140.8418  133.7921  155.9869 H   0  0  0  0  0  0  0  0  0  0  0  0  # atno 11005 bound_to 11000
  146.0954  139.3946  143.0380 LP  0  0  0  0  0  0  0  0  0  0  0  0  # atno 17320 bound_to 7965
  145.7653  140.9919  143.1178 LP  0  0  0  0  0  0  0  0  0  0  0  0  # atno 17321 bound_to 7965
  140.4067  144.2422  150.5890 LP  0  0  0  0  0  0  0  0  0  0  0  0  # atno 17342 bound_to 10162
  140.5005  143.2319  151.8685 LP  0  0  0  0  0  0  0  0  0  0  0  0  # atno 17343 bound_to 10162
  155.9686  130.4223  150.4510 LP  0  0  0  0  0  0  0  0  0  0  0  0  # atno 17370 bound_to 10713
  157.2526  131.0549  151.2370 LP  0  0  0  0  0  0  0  0  0  0  0  0  # atno 17371 bound_to 10713
  140.8887  134.2522  157.5106 LP  0  0  0  0  0  0  0  0  0  0  0  0  # atno 17394 bound_to 11000
  139.8703  134.9651  156.4516 LP  0  0  0  0  0  0  0  0  0  0  0  0  # atno 17395 bound_to 11000

$$$$
