AV-unprocessed.smi:123|AV-procd|sdf|1145|dock9
  -GOLD-   2262018273D 1   1.00000     0.00000
 Structure written by MMmdl.
 43 45  0  0  0  0  0  0  0  0  1 V2000
  146.7872  142.5979  157.3817 C   0  0  0  0  0  0  0  0  0  0  0  0
  147.9533  141.7201  156.8912 C   0  0  2  0  0  0  0  0  0  0  0  0
  149.2466  142.3039  157.2510 N   0  0  0  0  0  0  0  0  0  0  0  0
  150.2361  141.7056  157.9356 C   0  0  0  0  0  0  0  0  0  0  0  0
  150.1724  140.5447  158.3443 O   0  0  0  0  0  0  0  0  0  0  0  0
  151.4828  142.5666  158.1909 C   0  0  0  0  0  0  0  0  0  0  0  0
  152.2346  142.1687  159.4011 N   0  0  0  0  0  0  0  0  0  0  0  0
  152.1984  143.0176  160.5352 C   0  0  0  0  0  0  0  0  0  0  0  0
  151.5414  144.0597  160.5326 O   0  0  0  0  0  0  0  0  0  0  0  0
  152.9915  142.5771  161.6771 C   0  0  0  0  0  0  0  0  0  0  0  0
  153.0201  143.3226  162.7949 F   0  0  0  0  0  0  0  0  0  0  0  0
  153.7036  141.4325  161.6285 C   0  0  0  0  0  0  0  0  0  0  0  0
  153.7286  140.6127  160.5148 N   0  0  0  0  0  0  0  0  0  0  0  0
  154.5536  139.3446  160.4847 C   0  0  1  0  0  0  0  0  0  0  0  0
  155.4562  139.2712  161.7211 C   0  0  0  0  0  0  0  0  0  0  0  0
  154.5959  138.4842  162.6853 C   0  0  0  0  0  0  0  0  0  0  0  0
  153.8834  137.5195  161.7438 C   0  0  0  0  0  0  0  0  0  0  0  0
  153.6982  138.2383  160.5260 O   0  0  0  0  0  0  0  0  0  0  0  0
  152.9958  140.9760  159.3641 C   0  0  0  0  0  0  0  0  0  0  0  0
  153.0296  140.2757  158.3496 O   0  0  0  0  0  0  0  0  0  0  0  0
  147.8726  141.3629  155.4353 C   0  0  0  0  0  0  0  0  0  0  0  0
  148.7155  141.5217  154.3685 C   0  0  0  0  0  0  0  0  0  0  0  0
  148.0505  140.9649  153.2413 C   0  0  0  0  0  0  0  0  0  0  0  0
  146.8470  140.5121  153.7007 C   0  0  0  0  0  0  0  0  0  0  0  0
  146.7212  140.7499  155.0343 O   0  0  0  0  0  0  0  0  0  0  0  0
  145.8320  142.0934  157.2344 H   0  0  0  0  0  0  0  0  0  0  0  0
  146.7419  143.5482  156.8488 H   0  0  0  0  0  0  0  0  0  0  0  0
  146.8805  142.8171  158.4459 H   0  0  0  0  0  0  0  0  0  0  0  0
  147.8983  140.7867  157.4522 H   0  0  0  0  0  0  0  0  0  0  0  0
  149.3974  143.2595  156.9619 H   0  0  0  0  0  0  0  0  0  0  0  0
  152.1155  142.5288  157.3029 H   0  0  0  0  0  0  0  0  0  0  0  0
  151.1765  143.6123  158.2527 H   0  0  0  0  0  0  0  0  0  0  0  0
  154.2780  141.1621  162.5016 H   0  0  0  0  0  0  0  0  0  0  0  0
  155.0948  139.3578  159.5375 H   0  0  0  0  0  0  0  0  0  0  0  0
  156.3546  138.7088  161.4636 H   0  0  0  0  0  0  0  0  0  0  0  0
  155.7481  140.2568  162.0855 H   0  0  0  0  0  0  0  0  0  0  0  0
  155.1730  137.9776  163.4592 H   0  0  0  0  0  0  0  0  0  0  0  0
  153.8751  139.1424  163.1720 H   0  0  0  0  0  0  0  0  0  0  0  0
  154.5137  136.6522  161.5435 H   0  0  0  0  0  0  0  0  0  0  0  0
  152.9345  137.1635  162.1461 H   0  0  0  0  0  0  0  0  0  0  0  0
  149.6942  141.9777  154.3962 H   0  0  0  0  0  0  0  0  0  0  0  0
  148.4070  140.9041  152.2236 H   0  0  0  0  0  0  0  0  0  0  0  0
  146.0032  140.0216  153.2379 H   0  0  0  0  0  0  0  0  0  0  0  0
  1  2  1  0  0  0  0
  1 26  1  0  0  0  0
  1 27  1  0  0  0  0
  1 28  1  0  0  0  0
  2  3  1  0  0  0  0
  2 21  1  0  0  0  0
  2 29  1  0  0  0  0
  3  4  1  0  0  0  0
  3 30  1  0  0  0  0
  4  5  2  0  0  0  0
  4  6  1  0  0  0  0
  6  7  1  0  0  0  0
  6 31  1  0  0  0  0
  6 32  1  0  0  0  0
  7 19  1  0  0  0  0
  7  8  1  0  0  0  0
  8  9  2  0  0  0  0
  8 10  1  0  0  0  0
 10 11  1  0  0  0  0
 10 12  2  0  0  0  0
 12 13  1  0  0  0  0
 12 33  1  0  0  0  0
 13 14  1  0  0  0  0
 13 19  1  0  0  0  0
 14 18  1  0  0  0  0
 14 15  1  0  0  0  0
 14 34  1  0  0  0  0
 15 16  1  0  0  0  0
 15 35  1  0  0  0  0
 15 36  1  0  0  0  0
 16 17  1  0  0  0  0
 16 37  1  0  0  0  0
 16 38  1  0  0  0  0
 17 18  1  0  0  0  0
 17 39  1  0  0  0  0
 17 40  1  0  0  0  0
 19 20  2  0  0  0  0
 21 25  1  0  0  0  0
 21 22  2  0  0  0  0
 22 23  1  0  0  0  0
 22 41  1  0  0  0  0
 23 24  2  0  0  0  0
 23 42  1  0  0  0  0
 24 25  1  0  0  0  0
 24 43  1  0  0  0  0
M  END
> <s_m_source_file>
AV-unprocessed.smi

> <i_m_source_file_index>
123

> <i_lp_mmshare_version>
43012

> <i_f3d_flags>
0

> <s_epik_input>
bzFbY0hdW2NIXVtjSF1jMVtDQEhdKFtDSDNdKVtOSF1DKD1PKVtDSDJdbjJjKD1PKWMoRilbY0hdbihjMj1PKVtDQEBIXTNbQ0gyXVtDSDJdW0NIMl1PMw==

> <s_epik_cmdline>
J2VwaWtfcHl0aG9uJywgJy1waCcsICc3LjAnLCAnLXRuJywgJzgnLCAnLW1hJywgJzIwMCcsICctbWV0YWxfYmluZGluZycsICctaW1hZScsICc8aW5maWxlLm1hZT4nLCAnLW9tYWUnLCAnPG91dGZpbGUubWFlPic=

> <r_lp_tautomer_probability>
1

> <r_epik_Ionization_Penalty>
2.31906e-08

> <r_epik_Ionization_Penalty_Charging>
3.85846e-09

> <r_epik_Ionization_Penalty_Neutral>
1.93321e-08

> <r_epik_State_Penalty>
-0

> <r_epik_Charging_Adjusted_Penalty>
3.85846e-09

> <i_epik_Tot_Q>
0

> <i_epik_Tot_abs_Q>
0

> <r_epik_Metal_State_Penalty>
-0

> <b_epik_Metal_Only>
0

> <s_epik_Chemistry_Notes>
This compound contains an acetal/aminal-like group ( X-CH(R)-Y where X, Y are N, S, or O) that may be acid/base labile, releasing an aldehyde.

> <s_lp_Force_Field>
OPLS_2005

> <r_lp_Energy>
21.1126

> <b_lp_Chiralities_Consistent>
1

> <s_lp_Variant>
AV-unprocessed.smi:123-3

> <Gold.Version>
5.8.1

> <Gold.Id.Protein>
6NUR|6NUR_protein|mol2

> <Gold.PLP.Fitness>
52.5557

> <Gold.PLP.PLP>
-45.6299

> <Gold.PLP.part.hbond>
-2.0000

> <Gold.PLP.part.metal>
0.0000

> <Gold.PLP.part.buried>
-3.2495

> <Gold.PLP.part.nonpolar>
-39.8403

> <Gold.PLP.part.repulsive>
0.2193

> <Gold.PLP.ligand.clash>
0.0000

> <Gold.PLP.ligand.torsion>
0.8457

> <Gold.PLP.Chemscore.Hbond>
1.8320

> <Gold.PLP.Chemscore.CHOScore>
1.0000

> <Gold.PLP.Chemscore.Metal>
0.0000

> <Gold.Chemscore.Hbonds>
donor molecule, donor type, donor heavy atom, donor atom, acceptor molecule, acceptor atom, score
      L1  H     3    30       P1  8028  0.93
      P1  H  7997  8010       L1    20  0.87
      L1  C    24    43       P1 10175  1.00

> <Gold.PLP.Chemscore.Internal.Correction>
0.1211

> <Gold.Rescore>
     Score         DG    S(hbond)    S(metal)    S(lipo)     H(rot)  DE(clash)    DE(int)     intcor
     11.78     -15.16       1.90        0.00      77.26       2.23       1.55       1.82       ----

> <Gold.Chemscore.Fitness>
11.7847

> <Gold.Chemscore.DG>
-15.1568

> <Gold.Chemscore.ZeroCoef>
-5.4800

> <Gold.Chemscore.Hbond>
1.9038

> <Gold.Chemscore.Metal>
0.0000

> <Gold.Chemscore.Lipo>
77.2559

> <Gold.Chemscore.Internal_Hbond>
0.0000

> <Gold.Chemscore.DEClash>
1.5489

> <Gold.Chemscore.DEInternal>
1.8233

> <Gold.Chemscore.Rot>
2.2347

> <Gold.Chemscore.Internal.Correction>
   9.000000E+99

> <Gold.Chemscore.Hbonds>
donor molecule, donor type, donor heavy atom, donor atom, acceptor molecule, acceptor atom, score
      L1  H     3    30       P1  8028  0.83
      P1  H  7997  8010       L1    20  0.81

> <Gold.Chemscore.Hbond.Weighted>
-6.3587

> <Gold.Chemscore.Metal.Weighted>
-0.0000

> <Gold.Chemscore.Lipo.Weighted>
-9.0389

> <Gold.Chemscore.Internal_Hbond.Weighted>
0.0000

> <Gold.Chemscore.DEClash.Weighted>
1.5489

> <Gold.Chemscore.DEInternal.Weighted>
1.8233

> <Gold.Chemscore.Rot.Weighted>
5.7208

> <Gold.Chemscore.Internal.Correction.Weighted>
   9.000000E+99

> <Gold.Protein.RotatedTorsions>
[ 6907 6896 6895 6894 ] final    9.84 input  -60.11 | X-H torsion
[ 7974 7965 7964 7962 ] final   21.10 input  175.53 | X-H torsion
[ 8008 7997 7996 7995 ] final   38.82 input   59.86 | X-H torsion
[ 10167 10162 10161 10158 ] final   33.05 input  -65.29 | X-H torsion
[ 10718 10713 10712 10709 ] final   69.48 input   66.30 | X-H torsion
[ 10763 10752 10751 10750 ] final  -63.91 input  -60.55 | X-H torsion
[ 11005 11000 10999 10996 ] final   44.59 input  -57.11 | X-H torsion

> <Gold.Protein.ActiveResidues>
 VAL166  LYS551  ARG553  GLY616  TRP617  ASP618  TYR619  PRO620  LYS621  CYS622 
 ASP623  PHE694  ASN695  SER759  ASP760  ASP761  ALA762  ILE779  LEU786  VAL792 
 PHE793  MET794  SER795  GLU796  ALA797  LYS798  CYS799  TRP800  GLU811  SER814 

> <Gold.Protein.RotatedAtoms>
  151.7286  135.0879  160.0296 H   0  0  0  0  0  0  0  0  0  0  0  0  # atno 6907 bound_to 6896
  152.3555  133.6228  159.5985 H   0  0  0  0  0  0  0  0  0  0  0  0  # atno 6908 bound_to 6896
  150.7568  133.9422  159.3501 H   0  0  0  0  0  0  0  0  0  0  0  0  # atno 6909 bound_to 6896
  146.2085  139.8075  142.8707 H   0  0  0  0  0  0  0  0  0  0  0  0  # atno 7974 bound_to 7965
  155.2264  140.3335  155.4309 H   0  0  0  0  0  0  0  0  0  0  0  0  # atno 8008 bound_to 7997
  156.2313  140.1852  156.7283 H   0  0  0  0  0  0  0  0  0  0  0  0  # atno 8009 bound_to 7997
  154.5982  140.0627  156.9318 H   0  0  0  0  0  0  0  0  0  0  0  0  # atno 8010 bound_to 7997
  140.4443  144.1142  150.6179 H   0  0  0  0  0  0  0  0  0  0  0  0  # atno 10167 bound_to 10162
  157.6348  130.9427  150.0519 H   0  0  0  0  0  0  0  0  0  0  0  0  # atno 10718 bound_to 10713
  154.3221  135.6194  153.5513 H   0  0  0  0  0  0  0  0  0  0  0  0  # atno 10763 bound_to 10752
  152.9819  135.5726  154.5057 H   0  0  0  0  0  0  0  0  0  0  0  0  # atno 10764 bound_to 10752
  154.4728  135.2860  155.1607 H   0  0  0  0  0  0  0  0  0  0  0  0  # atno 10765 bound_to 10752
  140.1538  134.4428  155.8364 H   0  0  0  0  0  0  0  0  0  0  0  0  # atno 11005 bound_to 11000
  145.3231  141.0248  143.3489 LP  0  0  0  0  0  0  0  0  0  0  0  0  # atno 17320 bound_to 7965
  144.8852  139.4849  143.6704 LP  0  0  0  0  0  0  0  0  0  0  0  0  # atno 17321 bound_to 7965
  140.4282  143.2580  151.9629 LP  0  0  0  0  0  0  0  0  0  0  0  0  # atno 17342 bound_to 10162
  139.4791  144.5768  151.7998 LP  0  0  0  0  0  0  0  0  0  0  0  0  # atno 17343 bound_to 10162
  156.1578  130.3643  149.9343 LP  0  0  0  0  0  0  0  0  0  0  0  0  # atno 17370 bound_to 10713
  156.7348  130.9057  151.3628 LP  0  0  0  0  0  0  0  0  0  0  0  0  # atno 17371 bound_to 10713
  141.2202  133.6883  156.7469 LP  0  0  0  0  0  0  0  0  0  0  0  0  # atno 17394 bound_to 11000
  140.2573  134.8494  157.3724 LP  0  0  0  0  0  0  0  0  0  0  0  0  # atno 17395 bound_to 11000

$$$$
