AV-unprocessed.smi:1941|AV-procd|sdf|7845|dock8
  -GOLD-   22720 9583D 1   1.00000     0.00000
 Structure written by MMmdl.
 40 41  0  0  0  0  0  0  0  0  1 V2000
  150.7193  141.9360  156.4697 C   0  0  0  0  0  0  0  0  0  0  0  0
  150.4609  140.7548  155.5989 C   0  0  0  0  0  0  0  0  0  0  0  0
  151.1369  139.6067  155.6913 N   0  0  0  0  0  0  0  0  0  0  0  0
  150.7087  138.6532  154.7624 C   0  0  0  0  0  0  0  0  0  0  0  0
  151.3589  137.3035  154.7226 C   0  0  0  0  0  0  0  0  0  0  0  0
  150.4924  136.2200  155.3855 C   0  0  0  0  0  0  0  0  0  0  0  0
  149.6565  135.5314  154.4088 N   0  0  0  0  0  0  0  0  0  0  0  0
  149.0920  134.3300  154.5929 C   0  0  0  0  0  0  0  0  0  0  0  0
  149.2005  133.6694  155.6260 O   0  0  0  0  0  0  0  0  0  0  0  0
  148.3997  133.9387  153.5135 N   0  0  0  0  0  0  0  0  0  0  0  0
  147.6716  132.6788  153.3728 C   0  0  2  0  0  0  0  0  0  0  0  0
  148.6574  131.5119  153.5279 C   0  0  0  0  0  0  0  0  0  0  0  0
  146.9410  132.6387  152.0165 C   0  0  2  0  0  0  0  0  0  0  0  0
  145.9152  133.7531  151.8052 C   0  0  0  0  0  0  0  0  0  0  0  0
  144.9619  133.1665  150.7765 C   0  0  0  0  0  0  0  0  0  0  0  0
  145.2497  131.6626  150.8150 C   0  0  0  0  0  0  0  0  0  0  0  0
  146.1336  131.4766  151.9120 O   0  0  0  0  0  0  0  0  0  0  0  0
  149.6868  139.0992  153.9616 C   0  0  0  0  0  0  0  0  0  0  0  0
  149.2267  140.7351  154.3454 S   0  0  0  0  0  0  0  0  0  0  0  0
  151.6686  141.8251  156.9949 H   0  0  0  0  0  0  0  0  0  0  0  0
  149.9215  142.0371  157.2055 H   0  0  0  0  0  0  0  0  0  0  0  0
  150.7584  142.8432  155.8668 H   0  0  0  0  0  0  0  0  0  0  0  0
  151.5627  137.0214  153.6889 H   0  0  0  0  0  0  0  0  0  0  0  0
  152.3309  137.3504  155.2153 H   0  0  0  0  0  0  0  0  0  0  0  0
  151.1169  135.5011  155.9190 H   0  0  0  0  0  0  0  0  0  0  0  0
  149.8373  136.6741  156.1295 H   0  0  0  0  0  0  0  0  0  0  0  0
  149.5064  135.9990  153.5268 H   0  0  0  0  0  0  0  0  0  0  0  0
  148.3746  134.5617  152.7198 H   0  0  0  0  0  0  0  0  0  0  0  0
  146.9247  132.5862  154.1633 H   0  0  0  0  0  0  0  0  0  0  0  0
  148.1462  130.5523  153.4484 H   0  0  0  0  0  0  0  0  0  0  0  0
  149.1486  131.5406  154.5012 H   0  0  0  0  0  0  0  0  0  0  0  0
  149.4325  131.5402  152.7614 H   0  0  0  0  0  0  0  0  0  0  0  0
  147.6618  132.6413  151.1962 H   0  0  0  0  0  0  0  0  0  0  0  0
  145.3758  133.9471  152.7336 H   0  0  0  0  0  0  0  0  0  0  0  0
  146.3685  134.6893  151.4786 H   0  0  0  0  0  0  0  0  0  0  0  0
  143.9253  133.3893  151.0311 H   0  0  0  0  0  0  0  0  0  0  0  0
  145.1574  133.5665  149.7810 H   0  0  0  0  0  0  0  0  0  0  0  0
  144.3452  131.0666  150.9381 H   0  0  0  0  0  0  0  0  0  0  0  0
  145.7448  131.3428  149.8971 H   0  0  0  0  0  0  0  0  0  0  0  0
  149.1782  138.5668  153.1716 H   0  0  0  0  0  0  0  0  0  0  0  0
  1  2  1  0  0  0  0
  1 20  1  0  0  0  0
  1 21  1  0  0  0  0
  1 22  1  0  0  0  0
  2 19  1  0  0  0  0
  2  3  2  0  0  0  0
  3  4  1  0  0  0  0
  4  5  1  0  0  0  0
  4 18  2  0  0  0  0
  5  6  1  0  0  0  0
  5 23  1  0  0  0  0
  5 24  1  0  0  0  0
  6  7  1  0  0  0  0
  6 25  1  0  0  0  0
  6 26  1  0  0  0  0
  7  8  1  0  0  0  0
  7 27  1  0  0  0  0
  8  9  2  0  0  0  0
  8 10  1  0  0  0  0
 10 11  1  0  0  0  0
 10 28  1  0  0  0  0
 11 12  1  0  0  0  0
 11 13  1  0  0  0  0
 11 29  1  0  0  0  0
 12 30  1  0  0  0  0
 12 31  1  0  0  0  0
 12 32  1  0  0  0  0
 13 17  1  0  0  0  0
 13 14  1  0  0  0  0
 13 33  1  0  0  0  0
 14 15  1  0  0  0  0
 14 34  1  0  0  0  0
 14 35  1  0  0  0  0
 15 16  1  0  0  0  0
 15 36  1  0  0  0  0
 15 37  1  0  0  0  0
 16 17  1  0  0  0  0
 16 38  1  0  0  0  0
 16 39  1  0  0  0  0
 18 19  1  0  0  0  0
 18 40  1  0  0  0  0
M  END
> <s_m_source_file>
AV-unprocessed.smi

> <i_m_source_file_index>
1941

> <i_lp_mmshare_version>
43012

> <i_f3d_flags>
0

> <s_epik_input>
W0NIM11jMW5jKFtjSF1zMSlbQ0gyXVtDSDJdW05IXUMoPU8pW05IXVtDQEhdKFtDSDNdKVtDQEBIXTJbQ0gyXVtDSDJdW0NIMl1PMg==

> <s_epik_cmdline>
J2VwaWtfcHl0aG9uJywgJy1waCcsICc3LjAnLCAnLXRuJywgJzgnLCAnLW1hJywgJzIwMCcsICctbWV0YWxfYmluZGluZycsICctaW1hZScsICc8aW5maWxlLm1hZT4nLCAnLW9tYWUnLCAnPG91dGZpbGUubWFlPic=

> <r_epik_Ionization_Penalty>
0.00195486

> <r_epik_Ionization_Penalty_Charging>
0

> <r_epik_Ionization_Penalty_Neutral>
0.00195486

> <r_epik_State_Penalty>
0.00129472

> <r_epik_Charging_Adjusted_Penalty>
0.00129472

> <i_epik_Tot_Q>
0

> <i_epik_Tot_abs_Q>
0

> <r_epik_Metal_State_Penalty>
-0

> <b_epik_Metal_Only>
0

> <s_lp_Force_Field>
OPLS_2005

> <r_lp_Energy>
10.4909

> <b_lp_Chiralities_Consistent>
1

> <s_lp_Variant>
AV-unprocessed.smi:1941-1

> <Gold.Version>
5.8.1

> <Gold.Id.Protein>
6NUR|6NUR_protein|mol2

> <Gold.PLP.Fitness>
43.9519

> <Gold.PLP.PLP>
-35.6603

> <Gold.PLP.part.hbond>
-2.1529

> <Gold.PLP.part.metal>
0.0000

> <Gold.PLP.part.buried>
-1.6139

> <Gold.PLP.part.nonpolar>
-32.1186

> <Gold.PLP.part.repulsive>
0.2126

> <Gold.PLP.ligand.clash>
0.0000

> <Gold.PLP.ligand.torsion>
0.6053

> <Gold.PLP.Chemscore.Hbond>
1.9920

> <Gold.PLP.Chemscore.CHOScore>
1.1598

> <Gold.PLP.Chemscore.Metal>
0.0000

> <Gold.Chemscore.Hbonds>
donor molecule, donor type, donor heavy atom, donor atom, acceptor molecule, acceptor atom, score
      L1  H     7    27       P1  7948  1.00
      L1  H    10    28       P1  7948  1.00
      L1  C    18    40       P1  7948  0.69
      L1  C    18    40       P1  7957  0.46

> <Gold.PLP.Chemscore.Internal.Correction>
0.0466

> <Gold.Rescore>
     Score         DG    S(hbond)    S(metal)    S(lipo)     H(rot)  DE(clash)    DE(int)     intcor
     14.84     -16.02       1.65        0.00      80.12       1.69       0.03       1.16       ----

> <Gold.Chemscore.Fitness>
14.8396

> <Gold.Chemscore.DG>
-16.0245

> <Gold.Chemscore.ZeroCoef>
-5.4800

> <Gold.Chemscore.Hbond>
1.6475

> <Gold.Chemscore.Metal>
0.0000

> <Gold.Chemscore.Lipo>
80.1208

> <Gold.Chemscore.Internal_Hbond>
0.0000

> <Gold.Chemscore.DEClash>
0.0270

> <Gold.Chemscore.DEInternal>
1.1578

> <Gold.Chemscore.Rot>
1.6923

> <Gold.Chemscore.Internal.Correction>
   9.000000E+99

> <Gold.Chemscore.Hbonds>
donor molecule, donor type, donor heavy atom, donor atom, acceptor molecule, acceptor atom, score
      L1  H     7    27       P1  7948  0.39
      L1  H    10    28       P1  7948  0.24

> <Gold.Chemscore.Hbond.Weighted>
-5.5026

> <Gold.Chemscore.Metal.Weighted>
-0.0000

> <Gold.Chemscore.Lipo.Weighted>
-9.3741

> <Gold.Chemscore.Internal_Hbond.Weighted>
0.0000

> <Gold.Chemscore.DEClash.Weighted>
0.0270

> <Gold.Chemscore.DEInternal.Weighted>
1.1578

> <Gold.Chemscore.Rot.Weighted>
4.3323

> <Gold.Chemscore.Internal.Correction.Weighted>
   9.000000E+99

> <Gold.Protein.RotatedTorsions>
[ 6907 6896 6895 6894 ] final   78.69 input  -60.11 | X-H torsion
[ 7974 7965 7964 7962 ] final -105.00 input  175.53 | X-H torsion
[ 8008 7997 7996 7995 ] final    6.28 input   59.86 | X-H torsion
[ 10167 10162 10161 10158 ] final  125.87 input  -65.29 | X-H torsion
[ 10718 10713 10712 10709 ] final  173.06 input   66.30 | X-H torsion
[ 10763 10752 10751 10750 ] final  129.28 input  -60.55 | X-H torsion
[ 11005 11000 10999 10996 ] final -174.27 input  -57.11 | X-H torsion

> <Gold.Protein.ActiveResidues>
 VAL166  LYS551  ARG553  GLY616  TRP617  ASP618  TYR619  PRO620  LYS621  CYS622 
 ASP623  PHE694  ASN695  SER759  ASP760  ASP761  ALA762  ILE779  LEU786  VAL792 
 PHE793  MET794  SER795  GLU796  ALA797  LYS798  CYS799  TRP800  GLU811  SER814 

> <Gold.Protein.RotatedAtoms>
  152.5169  134.3625  159.9289 H   0  0  0  0  0  0  0  0  0  0  0  0  # atno 6907 bound_to 6896
  151.3577  133.3895  159.2694 H   0  0  0  0  0  0  0  0  0  0  0  0  # atno 6908 bound_to 6896
  150.9676  134.9073  159.7827 H   0  0  0  0  0  0  0  0  0  0  0  0  # atno 6909 bound_to 6896
  145.2360  140.9188  143.3177 H   0  0  0  0  0  0  0  0  0  0  0  0  # atno 7974 bound_to 7965
  154.7390  140.2745  155.6389 H   0  0  0  0  0  0  0  0  0  0  0  0  # atno 8008 bound_to 7997
  156.2869  140.2700  156.2038 H   0  0  0  0  0  0  0  0  0  0  0  0  # atno 8009 bound_to 7997
  155.0282  140.0371  157.2454 H   0  0  0  0  0  0  0  0  0  0  0  0  # atno 8010 bound_to 7997
  139.5662  144.6912  151.3904 H   0  0  0  0  0  0  0  0  0  0  0  0  # atno 10167 bound_to 10162
  156.9699  131.0086  151.2908 H   0  0  0  0  0  0  0  0  0  0  0  0  # atno 10718 bound_to 10713
  153.7392  135.3227  155.3301 H   0  0  0  0  0  0  0  0  0  0  0  0  # atno 10763 bound_to 10752
  154.8300  135.4540  154.1043 H   0  0  0  0  0  0  0  0  0  0  0  0  # atno 10764 bound_to 10752
  153.2213  135.6948  153.8078 H   0  0  0  0  0  0  0  0  0  0  0  0  # atno 10765 bound_to 10752
  140.4764  134.6117  157.4902 H   0  0  0  0  0  0  0  0  0  0  0  0  # atno 11005 bound_to 11000
  144.9633  139.3957  143.6345 LP  0  0  0  0  0  0  0  0  0  0  0  0  # atno 17320 bound_to 7965
  146.3341  139.8696  142.8842 LP  0  0  0  0  0  0  0  0  0  0  0  0  # atno 17321 bound_to 7965
  140.6945  143.7781  150.7306 LP  0  0  0  0  0  0  0  0  0  0  0  0  # atno 17342 bound_to 10162
  140.1274  143.4557  152.2276 LP  0  0  0  0  0  0  0  0  0  0  0  0  # atno 17343 bound_to 10162
  157.5600  130.8239  149.8253 LP  0  0  0  0  0  0  0  0  0  0  0  0  # atno 17370 bound_to 10713
  156.0287  130.3771  150.1749 LP  0  0  0  0  0  0  0  0  0  0  0  0  # atno 17371 bound_to 10713
  139.9853  134.7071  155.9785 LP  0  0  0  0  0  0  0  0  0  0  0  0  # atno 17394 bound_to 11000
  141.1552  133.6543  156.4140 LP  0  0  0  0  0  0  0  0  0  0  0  0  # atno 17395 bound_to 11000

$$$$
