AV-unprocessed.smi:1433|AV-procd|sdf|5844|dock1
  -GOLD-   22720 5503D 1   1.00000     0.00000
 Structure written by MMmdl.
 45 46  0  0  0  0  0  0  0  0  2 V2000
  145.6041  131.7870  150.0975 C   0  0  0  0  0  0  0  0  0  0  0  0
  145.6539  132.6870  151.3371 C   0  0  1  0  0  0  0  0  0  0  0  0
  146.8048  133.7154  151.2571 C   0  0  0  0  0  0  0  0  0  0  0  0
  146.7801  134.6615  152.4065 N   0  3  2  0  0  0  0  0  0  0  0  0
  147.3408  134.1004  153.6831 C   0  0  1  0  0  0  0  0  0  0  0  0
  148.6616  133.3501  153.3937 C   0  0  0  0  0  0  0  0  0  0  0  0
  147.5550  135.1727  154.7869 C   0  0  0  0  0  0  0  0  0  0  0  0
  148.4464  136.2517  154.3686 N   0  0  0  0  0  0  0  0  0  0  0  0
  149.1840  137.0180  155.1896 C   0  0  0  0  0  0  0  0  0  0  0  0
  149.1590  136.9137  156.4153 O   0  0  0  0  0  0  0  0  0  0  0  0
  150.0696  138.0817  154.5338 C   0  0  0  0  0  0  0  0  0  0  0  0
  149.3929  139.3631  154.4218 N   0  0  0  0  0  0  0  0  0  0  0  0
  148.0867  139.6128  154.0555 C   0  0  0  0  0  0  0  0  0  0  0  0
  147.9059  140.9658  154.0906 C   0  0  0  0  0  0  0  0  0  0  0  0
  149.1736  141.4660  154.4996 C   0  0  0  0  0  0  0  0  0  0  0  0
  150.0610  140.5048  154.6977 N   0  0  0  0  0  0  0  0  0  0  0  0
  145.4315  135.2882  152.4718 C   0  0  0  0  0  0  0  0  0  0  0  0
  144.3252  134.2189  152.5737 C   0  0  1  0  0  0  0  0  0  0  0  0
  142.9240  134.8385  152.6015 C   0  0  0  0  0  0  0  0  0  0  0  0
  144.4100  133.3733  151.4318 O   0  0  0  0  0  0  0  0  0  0  0  0
  146.5330  131.2283  149.9802 H   0  0  0  0  0  0  0  0  0  0  0  0
  145.4485  132.3715  149.1902 H   0  0  0  0  0  0  0  0  0  0  0  0
  144.7903  131.0653  150.1720 H   0  0  0  0  0  0  0  0  0  0  0  0
  145.7738  132.0482  152.2128 H   0  0  0  0  0  0  0  0  0  0  0  0
  147.7615  133.2054  151.1674 H   0  0  0  0  0  0  0  0  0  0  0  0
  146.6990  134.2993  150.3415 H   0  0  0  0  0  0  0  0  0  0  0  0
  146.6282  133.3794  154.0830 H   0  0  0  0  0  0  0  0  0  0  0  0
  149.0548  132.8649  154.2865 H   0  0  0  0  0  0  0  0  0  0  0  0
  149.4280  134.0336  153.0271 H   0  0  0  0  0  0  0  0  0  0  0  0
  148.5482  132.5577  152.6567 H   0  0  0  0  0  0  0  0  0  0  0  0
  146.5946  135.5655  155.1257 H   0  0  0  0  0  0  0  0  0  0  0  0
  148.0359  134.7338  155.6604 H   0  0  0  0  0  0  0  0  0  0  0  0
  148.5295  136.4143  153.3753 H   0  0  0  0  0  0  0  0  0  0  0  0
  150.9782  138.2100  155.1233 H   0  0  0  0  0  0  0  0  0  0  0  0
  150.3766  137.7552  153.5389 H   0  0  0  0  0  0  0  0  0  0  0  0
  147.4030  138.8160  153.8017 H   0  0  0  0  0  0  0  0  0  0  0  0
  147.0049  141.5151  153.8613 H   0  0  0  0  0  0  0  0  0  0  0  0
  149.4731  142.4916  154.6574 H   0  0  0  0  0  0  0  0  0  0  0  0
  145.3544  136.0302  153.2648 H   0  0  0  0  0  0  0  0  0  0  0  0
  145.2853  135.8566  151.5519 H   0  0  0  0  0  0  0  0  0  0  0  0
  144.4566  133.6216  153.4775 H   0  0  0  0  0  0  0  0  0  0  0  0
  142.7994  135.4909  153.4662 H   0  0  0  0  0  0  0  0  0  0  0  0
  142.1573  134.0654  152.6567 H   0  0  0  0  0  0  0  0  0  0  0  0
  142.7355  135.4304  151.7054 H   0  0  0  0  0  0  0  0  0  0  0  0
  147.4082  135.4155  152.1668 H   0  0  0  0  0  0  0  0  0  0  0  0
  1  2  1  0  0  0  0
  1 21  1  0  0  0  0
  1 22  1  0  0  0  0
  1 23  1  0  0  0  0
  2 20  1  0  0  0  0
  2  3  1  0  0  0  0
  2 24  1  0  0  0  0
  3  4  1  0  0  0  0
  3 25  1  0  0  0  0
  3 26  1  0  0  0  0
  4  5  1  0  0  0  0
  4 17  1  0  0  0  0
  4 45  1  0  0  0  0
  5  6  1  0  0  0  0
  5  7  1  0  0  0  0
  5 27  1  0  0  0  0
  6 28  1  0  0  0  0
  6 29  1  0  0  0  0
  6 30  1  0  0  0  0
  7  8  1  0  0  0  0
  7 31  1  0  0  0  0
  7 32  1  0  0  0  0
  8  9  1  0  0  0  0
  8 33  1  0  0  0  0
  9 10  2  0  0  0  0
  9 11  1  0  0  0  0
 11 12  1  0  0  0  0
 11 34  1  0  0  0  0
 11 35  1  0  0  0  0
 12 16  1  0  0  0  0
 12 13  1  0  0  0  0
 13 14  2  0  0  0  0
 13 36  1  0  0  0  0
 14 15  1  0  0  0  0
 14 37  1  0  0  0  0
 15 16  2  0  0  0  0
 15 38  1  0  0  0  0
 17 18  1  0  0  0  0
 17 39  1  0  0  0  0
 17 40  1  0  0  0  0
 18 19  1  0  0  0  0
 18 20  1  0  0  0  0
 18 41  1  0  0  0  0
 19 42  1  0  0  0  0
 19 43  1  0  0  0  0
 19 44  1  0  0  0  0
M  CHG  1   4   1
M  END
> <s_m_source_file>
AV-unprocessed.smi

> <i_m_source_file_index>
1433

> <i_lp_mmshare_version>
43012

> <i_f3d_flags>
0

> <s_epik_input>
W0NIM11bQ0BASF0xW0NIMl1OKFtDSDJdW0NASF0oTzEpW0NIM10pW0NASF0oW0NIM10pW0NIMl1bTkhdQyg9TylbQ0gyXW4yW2NIXVtjSF1bY0hdbjI=

> <s_epik_cmdline>
J2VwaWtfcHl0aG9uJywgJy1waCcsICc3LjAnLCAnLXRuJywgJzgnLCAnLW1hJywgJzIwMCcsICctbWV0YWxfYmluZGluZycsICctaW1hZScsICc8aW5maWxlLm1hZT4nLCAnLW9tYWUnLCAnPG91dGZpbGUubWFlPic=

> <r_lp_tautomer_probability>
1

> <r_epik_Ionization_Penalty>
0.748405

> <r_epik_Ionization_Penalty_Charging>
0.748396

> <r_epik_Ionization_Penalty_Neutral>
8.54426e-06

> <r_epik_State_Penalty>
0.775162

> <r_epik_Charging_Adjusted_Penalty>
1.52356

> <i_epik_Tot_Q>
1

> <i_epik_Tot_abs_Q>
1

> <r_epik_Metal_State_Penalty>
0.775167

> <b_epik_Metal_Only>
0

> <s_lp_Force_Field>
OPLS_2005

> <r_lp_Energy>
22.8293

> <b_lp_Chiralities_Consistent>
1

> <s_lp_Variant>
AV-unprocessed.smi:1433-10

> <Gold.Version>
5.8.1

> <Gold.Id.Protein>
6NUR|6NUR_protein|mol2

> <Gold.PLP.Fitness>
46.1950

> <Gold.PLP.PLP>
-33.0772

> <Gold.PLP.part.hbond>
-3.0000

> <Gold.PLP.part.metal>
0.0000

> <Gold.PLP.part.buried>
-3.5231

> <Gold.PLP.part.nonpolar>
-26.0941

> <Gold.PLP.part.repulsive>
0.2554

> <Gold.PLP.ligand.clash>
0.0000

> <Gold.PLP.ligand.torsion>
0.8981

> <Gold.PLP.Chemscore.Hbond>
3.9280

> <Gold.PLP.Chemscore.CHOScore>
1.0000

> <Gold.PLP.Chemscore.Metal>
0.0000

> <Gold.Chemscore.Hbonds>
donor molecule, donor type, donor heavy atom, donor atom, acceptor molecule, acceptor atom, score
      L1  H     4    45       P1  7948  2.00
      L1  H     8    33       P1  7948  1.00
      P1  H  7989  7998       L1    16  0.91
      L1  C    15    38       P1  8028  1.00

> <Gold.PLP.Chemscore.Internal.Correction>
0.1299

> <Gold.Rescore>
     Score         DG    S(hbond)    S(metal)    S(lipo)     H(rot)  DE(clash)    DE(int)     intcor
     17.28     -18.30       2.62        0.00      75.67       1.87       0.02       1.00       ----

> <Gold.Chemscore.Fitness>
17.2830

> <Gold.Chemscore.DG>
-18.3019

> <Gold.Chemscore.ZeroCoef>
-5.4800

> <Gold.Chemscore.Hbond>
2.6181

> <Gold.Chemscore.Metal>
0.0000

> <Gold.Chemscore.Lipo>
75.6709

> <Gold.Chemscore.Internal_Hbond>
0.0000

> <Gold.Chemscore.DEClash>
0.0222

> <Gold.Chemscore.DEInternal>
0.9968

> <Gold.Chemscore.Rot>
1.8657

> <Gold.Chemscore.Internal.Correction>
   9.000000E+99

> <Gold.Chemscore.Hbonds>
donor molecule, donor type, donor heavy atom, donor atom, acceptor molecule, acceptor atom, score
      L1  H     4    45       P1  7948  0.99
      L1  H     8    33       P1  7948  0.97
      P1  H  7989  7998       L1    16  0.47

> <Gold.Chemscore.Hbond.Weighted>
-8.7446

> <Gold.Chemscore.Metal.Weighted>
-0.0000

> <Gold.Chemscore.Lipo.Weighted>
-8.8535

> <Gold.Chemscore.Internal_Hbond.Weighted>
0.0000

> <Gold.Chemscore.DEClash.Weighted>
0.0222

> <Gold.Chemscore.DEInternal.Weighted>
0.9968

> <Gold.Chemscore.Rot.Weighted>
4.7761

> <Gold.Chemscore.Internal.Correction.Weighted>
   9.000000E+99

> <Gold.Protein.RotatedTorsions>
[ 6907 6896 6895 6894 ] final  -34.48 input  -60.11 | X-H torsion
[ 7974 7965 7964 7962 ] final -135.58 input  175.53 | X-H torsion
[ 8008 7997 7996 7995 ] final -130.02 input   59.86 | X-H torsion
[ 10167 10162 10161 10158 ] final  -94.43 input  -65.29 | X-H torsion
[ 10718 10713 10712 10709 ] final  -45.49 input   66.30 | X-H torsion
[ 10763 10752 10751 10750 ] final  167.54 input  -60.55 | X-H torsion
[ 11005 11000 10999 10996 ] final    4.07 input  -57.11 | X-H torsion

> <Gold.Protein.ActiveResidues>
 VAL166  LYS551  ARG553  GLY616  TRP617  ASP618  TYR619  PRO620  LYS621  CYS622 
 ASP623  PHE694  ASN695  SER759  ASP760  ASP761  ALA762  ILE779  LEU786  VAL792 
 PHE793  MET794  SER795  GLU796  ALA797  LYS798  CYS799  TRP800  GLU811  SER814 

> <Gold.Protein.RotatedAtoms>
  151.0521  134.9679  159.8216 H   0  0  0  0  0  0  0  0  0  0  0  0  # atno 6907 bound_to 6896
  152.5382  134.2525  159.8914 H   0  0  0  0  0  0  0  0  0  0  0  0  # atno 6908 bound_to 6896
  151.2541  133.4292  159.2646 H   0  0  0  0  0  0  0  0  0  0  0  0  # atno 6909 bound_to 6896
  144.9001  140.6760  143.5090 H   0  0  0  0  0  0  0  0  0  0  0  0  # atno 7974 bound_to 7965
  155.2889  140.0447  157.3021 H   0  0  0  0  0  0  0  0  0  0  0  0  # atno 8008 bound_to 7997
  154.5553  140.2330  155.8388 H   0  0  0  0  0  0  0  0  0  0  0  0  # atno 8009 bound_to 7997
  156.2002  140.3027  155.9517 H   0  0  0  0  0  0  0  0  0  0  0  0  # atno 8010 bound_to 7997
  140.3145  143.3085  152.0113 H   0  0  0  0  0  0  0  0  0  0  0  0  # atno 10167 bound_to 10162
  156.2278  130.4170  149.8912 H   0  0  0  0  0  0  0  0  0  0  0  0  # atno 10718 bound_to 10713
  154.3554  135.2753  155.2349 H   0  0  0  0  0  0  0  0  0  0  0  0  # atno 10763 bound_to 10752
  154.4560  135.5919  153.6227 H   0  0  0  0  0  0  0  0  0  0  0  0  # atno 10764 bound_to 10752
  152.9847  135.6053  154.3769 H   0  0  0  0  0  0  0  0  0  0  0  0  # atno 10765 bound_to 10752
  140.5861  133.9968  155.8068 H   0  0  0  0  0  0  0  0  0  0  0  0  # atno 11005 bound_to 11000
  145.3631  139.1677  143.4373 LP  0  0  0  0  0  0  0  0  0  0  0  0  # atno 17320 bound_to 7965
  146.3104  140.3695  142.8673 LP  0  0  0  0  0  0  0  0  0  0  0  0  # atno 17321 bound_to 7965
  139.4887  144.6359  151.6976 LP  0  0  0  0  0  0  0  0  0  0  0  0  # atno 17342 bound_to 10162
  140.5539  144.0380  150.6139 LP  0  0  0  0  0  0  0  0  0  0  0  0  # atno 17343 bound_to 10162
  156.6537  130.8754  151.3535 LP  0  0  0  0  0  0  0  0  0  0  0  0  # atno 17370 bound_to 10713
  157.7119  130.9450  150.1117 LP  0  0  0  0  0  0  0  0  0  0  0  0  # atno 17371 bound_to 10713
  141.0965  133.9835  157.3151 LP  0  0  0  0  0  0  0  0  0  0  0  0  # atno 17394 bound_to 11000
  139.9295  135.0200  156.8352 LP  0  0  0  0  0  0  0  0  0  0  0  0  # atno 17395 bound_to 11000

$$$$
