AV-unprocessed.smi:1756|AV-procd|sdf|7071|dock2
  -GOLD-   22720 8293D 1   1.00000     0.00000
 Structure written by MMmdl.
 38 39  0  0  0  0  0  0  0  0  1 V2000
  151.4831  135.3594  155.4011 O   0  0  0  0  0  0  0  0  0  0  0  0
  150.6861  135.7165  154.5340 C   0  0  0  0  0  0  0  0  0  0  0  0
  150.5822  136.9832  154.1075 N   0  0  0  0  0  0  0  0  0  0  0  0
  151.3632  138.1126  154.6039 C   0  0  0  0  0  0  0  0  0  0  0  0
  150.4716  139.2483  155.1390 C   0  0  2  0  0  0  0  0  0  0  0  0
  149.2341  139.5283  154.2589 C   0  0  0  0  0  0  0  0  0  0  0  0
  148.4555  140.7390  154.7859 C   0  0  0  0  0  0  0  0  0  0  0  0
  149.4000  141.9344  154.9431 C   0  0  0  0  0  0  0  0  0  0  0  0
  150.6180  141.5393  155.7916 C   0  0  0  0  0  0  0  0  0  0  0  0
  151.2772  140.4237  155.2005 O   0  0  0  0  0  0  0  0  0  0  0  0
  149.8270  134.9178  153.8741 N   0  0  0  0  0  0  0  0  0  0  0  0
  149.5996  133.5378  154.0154 C   0  0  0  0  0  0  0  0  0  0  0  0
  150.4774  132.6533  154.5579 C   0  0  0  0  0  0  0  0  0  0  0  0
  150.1720  131.2372  154.6770 C   0  0  0  0  0  0  0  0  0  0  0  0
  151.1388  130.2662  155.3372 C   0  0  0  0  0  0  0  0  0  0  0  0
  150.5926  129.6941  156.4110 F   0  0  0  0  0  0  0  0  0  0  0  0
  151.4708  129.3039  154.4778 F   0  0  0  0  0  0  0  0  0  0  0  0
  152.2559  130.8870  155.7169 F   0  0  0  0  0  0  0  0  0  0  0  0
  148.9579  130.8467  154.2473 C   0  0  0  0  0  0  0  0  0  0  0  0
  148.0506  131.7484  153.6870 N   0  0  0  0  0  0  0  0  0  0  0  0
  148.2848  133.0720  153.5431 C   0  0  0  0  0  0  0  0  0  0  0  0
  147.4291  133.8029  153.0451 O   0  0  0  0  0  0  0  0  0  0  0  0
  147.1643  131.3754  153.3784 H   0  0  0  0  0  0  0  0  0  0  0  0
  149.9069  137.1856  153.3848 H   0  0  0  0  0  0  0  0  0  0  0  0
  151.9926  137.7390  155.4120 H   0  0  0  0  0  0  0  0  0  0  0  0
  152.0457  138.4897  153.8404 H   0  0  0  0  0  0  0  0  0  0  0  0
  150.1505  138.9932  156.1507 H   0  0  0  0  0  0  0  0  0  0  0  0
  149.5493  139.7159  153.2318 H   0  0  0  0  0  0  0  0  0  0  0  0
  148.5767  138.6595  154.2303 H   0  0  0  0  0  0  0  0  0  0  0  0
  147.6353  140.9873  154.1119 H   0  0  0  0  0  0  0  0  0  0  0  0
  148.0074  140.4957  155.7501 H   0  0  0  0  0  0  0  0  0  0  0  0
  149.7343  142.2704  153.9607 H   0  0  0  0  0  0  0  0  0  0  0  0
  148.8758  142.7738  155.4004 H   0  0  0  0  0  0  0  0  0  0  0  0
  151.3188  142.3719  155.8510 H   0  0  0  0  0  0  0  0  0  0  0  0
  150.3202  141.3007  156.8137 H   0  0  0  0  0  0  0  0  0  0  0  0
  149.2807  135.3569  153.1471 H   0  0  0  0  0  0  0  0  0  0  0  0
  151.4346  132.9767  154.9314 H   0  0  0  0  0  0  0  0  0  0  0  0
  148.5905  129.8325  154.3019 H   0  0  0  0  0  0  0  0  0  0  0  0
  1  2  2  0  0  0  0
  2  3  1  0  0  0  0
  2 11  1  0  0  0  0
  3  4  1  0  0  0  0
  3 24  1  0  0  0  0
  4  5  1  0  0  0  0
  4 25  1  0  0  0  0
  4 26  1  0  0  0  0
  5 10  1  0  0  0  0
  5  6  1  0  0  0  0
  5 27  1  0  0  0  0
  6  7  1  0  0  0  0
  6 28  1  0  0  0  0
  6 29  1  0  0  0  0
  7  8  1  0  0  0  0
  7 30  1  0  0  0  0
  7 31  1  0  0  0  0
  8  9  1  0  0  0  0
  8 32  1  0  0  0  0
  8 33  1  0  0  0  0
  9 10  1  0  0  0  0
  9 34  1  0  0  0  0
  9 35  1  0  0  0  0
 11 12  1  0  0  0  0
 11 36  1  0  0  0  0
 12 21  1  0  0  0  0
 12 13  2  0  0  0  0
 13 14  1  0  0  0  0
 13 37  1  0  0  0  0
 14 15  1  0  0  0  0
 14 19  2  0  0  0  0
 15 16  1  0  0  0  0
 15 17  1  0  0  0  0
 15 18  1  0  0  0  0
 19 20  1  0  0  0  0
 19 38  1  0  0  0  0
 20 23  1  0  0  0  0
 20 21  1  0  0  0  0
 21 22  2  0  0  0  0
M  END
> <s_m_source_file>
AV-unprocessed.smi

> <i_m_source_file_index>
1756

> <i_lp_mmshare_version>
43012

> <i_f3d_flags>
0

> <s_epik_input>
Tz1jMVtuSF1bY0hdYyhDKEYpKEYpRilbY0hdYzFbTkhdQyg9TylbTkhdW0NIMl1bQ0BASF0yW0NIMl1bQ0gyXVtDSDJdW0NIMl1PMg==

> <s_epik_cmdline>
J2VwaWtfcHl0aG9uJywgJy1waCcsICc3LjAnLCAnLXRuJywgJzgnLCAnLW1hJywgJzIwMCcsICctbWV0YWxfYmluZGluZycsICctaW1hZScsICc8aW5maWxlLm1hZT4nLCAnLW9tYWUnLCAnPG91dGZpbGUubWFlPic=

> <r_lp_tautomer_probability>
1

> <r_epik_Ionization_Penalty>
0.00380944

> <r_epik_Ionization_Penalty_Charging>
0.00379057

> <r_epik_Ionization_Penalty_Neutral>
1.88732e-05

> <r_epik_State_Penalty>
-0

> <r_epik_Charging_Adjusted_Penalty>
0.00379057

> <i_epik_Tot_Q>
0

> <i_epik_Tot_abs_Q>
0

> <r_epik_Metal_State_Penalty>
0.371099

> <b_epik_Metal_Only>
0

> <s_lp_Force_Field>
OPLS_2005

> <r_lp_Energy>
19.4174

> <b_lp_Chiralities_Consistent>
1

> <s_lp_Variant>
AV-unprocessed.smi:1756-1

> <Gold.Version>
5.8.1

> <Gold.Id.Protein>
6NUR|6NUR_protein|mol2

> <Gold.PLP.Fitness>
46.0686

> <Gold.PLP.PLP>
-35.4037

> <Gold.PLP.part.hbond>
-5.8393

> <Gold.PLP.part.metal>
0.0000

> <Gold.PLP.part.buried>
1.0613

> <Gold.PLP.part.nonpolar>
-30.8552

> <Gold.PLP.part.repulsive>
0.6879

> <Gold.PLP.ligand.clash>
0.0000

> <Gold.PLP.ligand.torsion>
0.2784

> <Gold.PLP.Chemscore.Hbond>
3.7248

> <Gold.PLP.Chemscore.CHOScore>
0.0000

> <Gold.PLP.Chemscore.Metal>
0.0000

> <Gold.Chemscore.Hbonds>
donor molecule, donor type, donor heavy atom, donor atom, acceptor molecule, acceptor atom, score
      L1  H     3    24       P1  7948  0.77
      L1  H    11    36       P1  7948  0.80
      P1  H  7989  7998       L1    10  0.98
      P1  H 10752 10764       L1     1  1.00

> <Gold.PLP.Chemscore.Internal.Correction>
0.0474

> <Gold.Rescore>
     Score         DG    S(hbond)    S(metal)    S(lipo)     H(rot)  DE(clash)    DE(int)     intcor
     17.30     -18.90       2.91        0.00      60.81       1.33       0.15       1.46       ----

> <Gold.Chemscore.Fitness>
17.2954

> <Gold.Chemscore.DG>
-18.8998

> <Gold.Chemscore.ZeroCoef>
-5.4800

> <Gold.Chemscore.Hbond>
2.9106

> <Gold.Chemscore.Metal>
0.0000

> <Gold.Chemscore.Lipo>
60.8058

> <Gold.Chemscore.Internal_Hbond>
0.0000

> <Gold.Chemscore.DEClash>
0.1464

> <Gold.Chemscore.DEInternal>
1.4581

> <Gold.Chemscore.Rot>
1.3344

> <Gold.Chemscore.Internal.Correction>
   9.000000E+99

> <Gold.Chemscore.Hbonds>
donor molecule, donor type, donor heavy atom, donor atom, acceptor molecule, acceptor atom, score
      L1  H     3    24       P1  7948  0.29
      L1  H    11    36       P1  7948  0.11
      P1  H  7989  7998       L1    10  0.34
      P1  H 10752 10764       L1     1  0.79

> <Gold.Chemscore.Hbond.Weighted>
-9.7215

> <Gold.Chemscore.Metal.Weighted>
-0.0000

> <Gold.Chemscore.Lipo.Weighted>
-7.1143

> <Gold.Chemscore.Internal_Hbond.Weighted>
0.0000

> <Gold.Chemscore.DEClash.Weighted>
0.1464

> <Gold.Chemscore.DEInternal.Weighted>
1.4581

> <Gold.Chemscore.Rot.Weighted>
3.4160

> <Gold.Chemscore.Internal.Correction.Weighted>
   9.000000E+99

> <Gold.Protein.RotatedTorsions>
[ 6907 6896 6895 6894 ] final  -37.19 input  -60.11 | X-H torsion
[ 7974 7965 7964 7962 ] final   -9.29 input  175.53 | X-H torsion
[ 8008 7997 7996 7995 ] final -136.01 input   59.86 | X-H torsion
[ 10167 10162 10161 10158 ] final -165.07 input  -65.29 | X-H torsion
[ 10718 10713 10712 10709 ] final  -75.52 input   66.30 | X-H torsion
[ 10763 10752 10751 10750 ] final  -39.09 input  -60.55 | X-H torsion
[ 11005 11000 10999 10996 ] final  114.48 input  -57.11 | X-H torsion

> <Gold.Protein.ActiveResidues>
 VAL166  LYS551  ARG553  GLY616  TRP617  ASP618  TYR619  PRO620  LYS621  CYS622 
 ASP623  PHE694  ASN695  SER759  ASP760  ASP761  ALA762  ILE779  LEU786  VAL792 
 PHE793  MET794  SER795  GLU796  ALA797  LYS798  CYS799  TRP800  GLU811  SER814 

> <Gold.Protein.RotatedAtoms>
  151.0177  134.9445  159.8042 H   0  0  0  0  0  0  0  0  0  0  0  0  # atno 6907 bound_to 6896
  152.5318  134.2944  159.9065 H   0  0  0  0  0  0  0  0  0  0  0  0  # atno 6908 bound_to 6896
  151.2951  133.4105  159.2670 H   0  0  0  0  0  0  0  0  0  0  0  0  # atno 6909 bound_to 6896
  146.2256  140.2594  142.8351 H   0  0  0  0  0  0  0  0  0  0  0  0  # atno 7974 bound_to 7965
  155.3882  140.0498  157.3041 H   0  0  0  0  0  0  0  0  0  0  0  0  # atno 8008 bound_to 7997
  154.5049  140.2170  155.9233 H   0  0  0  0  0  0  0  0  0  0  0  0  # atno 8009 bound_to 7997
  156.1513  140.3135  155.8658 H   0  0  0  0  0  0  0  0  0  0  0  0  # atno 8010 bound_to 7997
  139.6207  144.0631  152.1929 H   0  0  0  0  0  0  0  0  0  0  0  0  # atno 10167 bound_to 10162
  156.0205  130.4443  150.3055 H   0  0  0  0  0  0  0  0  0  0  0  0  # atno 10718 bound_to 10713
  153.9237  135.6779  153.4747 H   0  0  0  0  0  0  0  0  0  0  0  0  # atno 10763 bound_to 10752
  153.1015  135.4826  154.8873 H   0  0  0  0  0  0  0  0  0  0  0  0  # atno 10764 bound_to 10752
  154.7464  135.3173  154.8593 H   0  0  0  0  0  0  0  0  0  0  0  0  # atno 10765 bound_to 10752
  139.8982  134.9568  156.6899 H   0  0  0  0  0  0  0  0  0  0  0  0  # atno 11005 bound_to 11000
  144.9351  140.8017  143.5665 LP  0  0  0  0  0  0  0  0  0  0  0  0  # atno 17320 bound_to 7965
  145.2541  139.2019  143.4927 LP  0  0  0  0  0  0  0  0  0  0  0  0  # atno 17321 bound_to 7965
  140.0272  144.6108  150.7518 LP  0  0  0  0  0  0  0  0  0  0  0  0  # atno 17342 bound_to 10162
  140.7380  143.2772  151.3705 LP  0  0  0  0  0  0  0  0  0  0  0  0  # atno 17343 bound_to 10162
  157.1158  131.0233  151.3029 LP  0  0  0  0  0  0  0  0  0  0  0  0  # atno 17370 bound_to 10713
  157.4668  130.7685  149.7286 LP  0  0  0  0  0  0  0  0  0  0  0  0  # atno 17371 bound_to 10713
  140.7233  133.9122  155.8161 LP  0  0  0  0  0  0  0  0  0  0  0  0  # atno 17394 bound_to 11000
  141.0210  134.0888  157.4120 LP  0  0  0  0  0  0  0  0  0  0  0  0  # atno 17395 bound_to 11000

$$$$
