AV-unprocessed.smi:3187|AV-procd|sdf|12180|dock10
  -GOLD-   2272018 23D 1   1.00000     0.00000
 Structure written by MMmdl.
 42 43  0  0  0  0  0  0  0  0  3 V2000
  151.4993  145.2216  158.9634 C   0  0  0  0  0  0  0  0  0  0  0  0
  151.9095  143.8810  159.5500 C   0  0  0  0  0  0  0  0  0  0  0  0
  152.5051  143.8343  160.7570 C   0  0  0  0  0  0  0  0  0  0  0  0
  153.0215  142.5701  161.4039 C   0  0  0  0  0  0  0  0  0  0  0  0
  153.2559  141.4769  160.3592 C   0  0  0  0  0  0  0  0  0  0  0  0
  152.0301  141.2982  159.4486 C   0  0  2  0  0  0  0  0  0  0  0  0
  152.2818  140.1289  158.4766 C   0  0  0  0  0  0  0  0  0  0  0  0
  151.6405  142.6159  158.7089 C   0  0  1  0  0  0  0  0  0  0  0  0
  150.1744  142.5303  158.2072 C   0  0  0  0  0  0  0  0  0  0  0  0
  150.0762  142.3829  156.7384 N   0  3  0  0  0  0  0  0  0  0  0  0
  149.3642  141.1729  156.2739 C   0  0  0  0  0  0  0  0  0  0  0  0
  149.5898  140.8890  154.7785 C   0  0  0  0  0  0  0  0  0  0  0  0
  150.4237  139.7022  154.5714 N   0  0  0  0  0  0  0  0  0  0  0  0
  151.6064  139.3999  155.1974 C   0  0  0  0  0  0  0  0  0  0  0  0
  152.0219  138.1964  154.6878 C   0  0  0  0  0  0  0  0  0  0  0  0
  151.0767  137.8155  153.7731 N   0  3  0  0  0  0  0  0  0  0  0  0
  150.1053  138.7318  153.7043 C   0  0  0  0  0  0  0  0  0  0  0  0
  151.8835  145.3289  157.9487 H   0  0  0  0  0  0  0  0  0  0  0  0
  151.8946  146.0492  159.5537 H   0  0  0  0  0  0  0  0  0  0  0  0
  150.4148  145.3252  158.9471 H   0  0  0  0  0  0  0  0  0  0  0  0
  152.6533  144.7437  161.3214 H   0  0  0  0  0  0  0  0  0  0  0  0
  153.9546  142.7891  161.9237 H   0  0  0  0  0  0  0  0  0  0  0  0
  152.3034  142.2430  162.1566 H   0  0  0  0  0  0  0  0  0  0  0  0
  154.1264  141.7334  159.7536 H   0  0  0  0  0  0  0  0  0  0  0  0
  153.4972  140.5407  160.8641 H   0  0  0  0  0  0  0  0  0  0  0  0
  151.1978  141.0163  160.0959 H   0  0  0  0  0  0  0  0  0  0  0  0
  153.1029  140.3523  157.7948 H   0  0  0  0  0  0  0  0  0  0  0  0
  151.4071  139.8906  157.8734 H   0  0  0  0  0  0  0  0  0  0  0  0
  152.5464  139.2213  159.0201 H   0  0  0  0  0  0  0  0  0  0  0  0
  152.2954  142.7015  157.8401 H   0  0  0  0  0  0  0  0  0  0  0  0
  149.6626  141.6806  158.6540 H   0  0  0  0  0  0  0  0  0  0  0  0
  149.6275  143.4187  158.5265 H   0  0  0  0  0  0  0  0  0  0  0  0
  149.5703  143.1861  156.3922 H   0  0  0  0  0  0  0  0  0  0  0  0
  149.6591  140.3166  156.8821 H   0  0  0  0  0  0  0  0  0  0  0  0
  148.3001  141.3299  156.4536 H   0  0  0  0  0  0  0  0  0  0  0  0
  148.6393  140.7346  154.2647 H   0  0  0  0  0  0  0  0  0  0  0  0
  150.0884  141.7251  154.2875 H   0  0  0  0  0  0  0  0  0  0  0  0
  152.0546  140.0453  155.9394 H   0  0  0  0  0  0  0  0  0  0  0  0
  152.8963  137.5987  154.9012 H   0  0  0  0  0  0  0  0  0  0  0  0
  149.2365  138.6928  153.0713 H   0  0  0  0  0  0  0  0  0  0  0  0
  151.0049  142.3972  156.3413 H   0  0  0  0  0  0  0  0  0  0  0  0
  151.1078  136.9641  153.2256 H   0  0  0  0  0  0  0  0  0  0  0  0
  1  2  1  0  0  0  0
  1 18  1  0  0  0  0
  1 19  1  0  0  0  0
  1 20  1  0  0  0  0
  2  8  1  0  0  0  0
  2  3  2  0  0  0  0
  3  4  1  0  0  0  0
  3 21  1  0  0  0  0
  4  5  1  0  0  0  0
  4 22  1  0  0  0  0
  4 23  1  0  0  0  0
  5  6  1  0  0  0  0
  5 24  1  0  0  0  0
  5 25  1  0  0  0  0
  6  7  1  0  0  0  0
  6  8  1  0  0  0  0
  6 26  1  0  0  0  0
  7 27  1  0  0  0  0
  7 28  1  0  0  0  0
  7 29  1  0  0  0  0
  8  9  1  0  0  0  0
  8 30  1  0  0  0  0
  9 10  1  0  0  0  0
  9 31  1  0  0  0  0
  9 32  1  0  0  0  0
 10 11  1  0  0  0  0
 10 33  1  0  0  0  0
 10 41  1  0  0  0  0
 11 12  1  0  0  0  0
 11 34  1  0  0  0  0
 11 35  1  0  0  0  0
 12 13  1  0  0  0  0
 12 36  1  0  0  0  0
 12 37  1  0  0  0  0
 13 17  1  0  0  0  0
 13 14  1  0  0  0  0
 14 15  2  0  0  0  0
 14 38  1  0  0  0  0
 15 16  1  0  0  0  0
 15 39  1  0  0  0  0
 16 17  2  0  0  0  0
 16 42  1  0  0  0  0
 17 40  1  0  0  0  0
M  CHG  1  10   1
M  CHG  1  16   1
M  END
> <s_m_source_file>
AV-unprocessed.smi

> <i_m_source_file_index>
3187

> <i_lp_mmshare_version>
43012

> <i_f3d_flags>
0

> <s_epik_input>
W0NIM11DMT1bQ0hdW0NIMl1bQ0gyXVtDQEBIXShbQ0gzXSlbQ0BIXTFbQ0gyXVtOSF1bQ0gyXVtDSDJdbjJbY0hdW2NIXW5bY0hdMg==

> <s_epik_cmdline>
J2VwaWtfcHl0aG9uJywgJy1waCcsICc3LjAnLCAnLXRuJywgJzgnLCAnLW1hJywgJzIwMCcsICctbWV0YWxfYmluZGluZycsICctaW1hZScsICc8aW5maWxlLm1hZT4nLCAnLW9tYWUnLCAnPG91dGZpbGUubWFlPic=

> <r_lp_tautomer_probability>
1

> <r_epik_Ionization_Penalty>
1.51066

> <r_epik_Ionization_Penalty_Charging>
0.0026721

> <r_epik_Ionization_Penalty_Neutral>
1.50798

> <r_epik_State_Penalty>
1.12593

> <r_epik_Charging_Adjusted_Penalty>
1.12861

> <i_epik_Tot_Q>
2

> <i_epik_Tot_abs_Q>
2

> <r_epik_Metal_State_Penalty>
5.12155

> <b_epik_Metal_Only>
0

> <s_lp_Force_Field>
OPLS_2005

> <r_lp_Energy>
26.137

> <b_lp_Chiralities_Consistent>
1

> <s_lp_Variant>
AV-unprocessed.smi:3187-6

> <Gold.Version>
5.8.1

> <Gold.Id.Protein>
6NUR|6NUR_protein|mol2

> <Gold.PLP.Fitness>
55.4908

> <Gold.PLP.PLP>
-43.7612

> <Gold.PLP.part.hbond>
-2.3343

> <Gold.PLP.part.metal>
0.0000

> <Gold.PLP.part.buried>
-1.7226

> <Gold.PLP.part.nonpolar>
-38.7488

> <Gold.PLP.part.repulsive>
0.1542

> <Gold.PLP.ligand.clash>
0.0000

> <Gold.PLP.ligand.torsion>
1.6191

> <Gold.PLP.Chemscore.Hbond>
3.8880

> <Gold.PLP.Chemscore.CHOScore>
1.0774

> <Gold.PLP.Chemscore.Metal>
0.0000

> <Gold.Chemscore.Hbonds>
donor molecule, donor type, donor heavy atom, donor atom, acceptor molecule, acceptor atom, score
      L1  H    10    33       P1  8028  2.00
      L1  H    16    42       P1  7949  2.00
      L1  C    17    40       P1  7948  0.33
      L1  C    17    40       P1  7957  0.59

> <Gold.PLP.Chemscore.Internal.Correction>
0.0716

> <Gold.Rescore>
     Score         DG    S(hbond)    S(metal)    S(lipo)     H(rot)  DE(clash)    DE(int)     intcor
     17.29     -19.18       1.63        0.00     113.85       1.97       0.02       1.86       ----

> <Gold.Chemscore.Fitness>
17.2912

> <Gold.Chemscore.DG>
-19.1783

> <Gold.Chemscore.ZeroCoef>
-5.4800

> <Gold.Chemscore.Hbond>
1.6255

> <Gold.Chemscore.Metal>
0.0000

> <Gold.Chemscore.Lipo>
113.8488

> <Gold.Chemscore.Internal_Hbond>
0.0000

> <Gold.Chemscore.DEClash>
0.0230

> <Gold.Chemscore.DEInternal>
1.8641

> <Gold.Chemscore.Rot>
1.9732

> <Gold.Chemscore.Internal.Correction>
   9.000000E+99

> <Gold.Chemscore.Hbonds>
donor molecule, donor type, donor heavy atom, donor atom, acceptor molecule, acceptor atom, score
      L1  H    10    33       P1  8028  1.00
      L1  H    16    42       P1  7949  0.42

> <Gold.Chemscore.Hbond.Weighted>
-5.4293

> <Gold.Chemscore.Metal.Weighted>
-0.0000

> <Gold.Chemscore.Lipo.Weighted>
-13.3203

> <Gold.Chemscore.Internal_Hbond.Weighted>
0.0000

> <Gold.Chemscore.DEClash.Weighted>
0.0230

> <Gold.Chemscore.DEInternal.Weighted>
1.8641

> <Gold.Chemscore.Rot.Weighted>
5.0514

> <Gold.Chemscore.Internal.Correction.Weighted>
   9.000000E+99

> <Gold.Protein.RotatedTorsions>
[ 6907 6896 6895 6894 ] final  125.51 input  -60.11 | X-H torsion
[ 7974 7965 7964 7962 ] final   91.69 input  175.53 | X-H torsion
[ 8008 7997 7996 7995 ] final -116.18 input   59.86 | X-H torsion
[ 10167 10162 10161 10158 ] final  -27.91 input  -65.29 | X-H torsion
[ 10718 10713 10712 10709 ] final  -64.67 input   66.30 | X-H torsion
[ 10763 10752 10751 10750 ] final   31.85 input  -60.55 | X-H torsion
[ 11005 11000 10999 10996 ] final -116.85 input  -57.11 | X-H torsion

> <Gold.Protein.ActiveResidues>
 VAL166  LYS551  ARG553  GLY616  TRP617  ASP618  TYR619  PRO620  LYS621  CYS622 
 ASP623  PHE694  ASN695  SER759  ASP760  ASP761  ALA762  ILE779  LEU786  VAL792 
 PHE793  MET794  SER795  GLU796  ALA797  LYS798  CYS799  TRP800  GLU811  SER814 

> <Gold.Protein.RotatedAtoms>
  152.3985  133.6783  159.6296 H   0  0  0  0  0  0  0  0  0  0  0  0  # atno 6907 bound_to 6896
  150.7880  133.8832  159.3300 H   0  0  0  0  0  0  0  0  0  0  0  0  # atno 6908 bound_to 6896
  151.6603  135.0992  160.0229 H   0  0  0  0  0  0  0  0  0  0  0  0  # atno 6909 bound_to 6896
  145.5023  139.2276  143.2770 H   0  0  0  0  0  0  0  0  0  0  0  0  # atno 7974 bound_to 7965
  155.0638  140.0393  157.2586 H   0  0  0  0  0  0  0  0  0  0  0  0  # atno 8008 bound_to 7997
  154.7038  140.2678  155.6670 H   0  0  0  0  0  0  0  0  0  0  0  0  # atno 8009 bound_to 7997
  156.2768  140.2735  156.1657 H   0  0  0  0  0  0  0  0  0  0  0  0  # atno 8010 bound_to 7997
  140.7274  143.4054  151.1195 H   0  0  0  0  0  0  0  0  0  0  0  0  # atno 10167 bound_to 10162
  156.0715  130.4236  150.1453 H   0  0  0  0  0  0  0  0  0  0  0  0  # atno 10718 bound_to 10713
  153.0293  135.6428  154.1264 H   0  0  0  0  0  0  0  0  0  0  0  0  # atno 10763 bound_to 10752
  154.0989  135.2861  155.3257 H   0  0  0  0  0  0  0  0  0  0  0  0  # atno 10764 bound_to 10752
  154.6413  135.5459  153.7855 H   0  0  0  0  0  0  0  0  0  0  0  0  # atno 10765 bound_to 10752
  141.0394  133.9858  157.3018 H   0  0  0  0  0  0  0  0  0  0  0  0  # atno 11005 bound_to 11000
  146.2218  140.5825  142.9014 LP  0  0  0  0  0  0  0  0  0  0  0  0  # atno 17320 bound_to 7965
  144.7773  140.5766  143.6629 LP  0  0  0  0  0  0  0  0  0  0  0  0  # atno 17321 bound_to 7965
  139.7679  143.8537  152.3114 LP  0  0  0  0  0  0  0  0  0  0  0  0  # atno 17342 bound_to 10162
  139.8446  144.7194  150.9289 LP  0  0  0  0  0  0  0  0  0  0  0  0  # atno 17343 bound_to 10162
  156.9503  130.9773  151.3499 LP  0  0  0  0  0  0  0  0  0  0  0  0  # atno 17370 bound_to 10713
  157.5788  130.8362  149.8494 LP  0  0  0  0  0  0  0  0  0  0  0  0  # atno 17371 bound_to 10713
  139.9265  135.0201  156.8251 LP  0  0  0  0  0  0  0  0  0  0  0  0  # atno 17394 bound_to 11000
  140.6261  133.9948  155.7640 LP  0  0  0  0  0  0  0  0  0  0  0  0  # atno 17395 bound_to 11000

$$$$
