AV-unprocessed.smi:225|AV-procd|sdf|1724|dock2
  -GOLD-   2262020203D 1   1.00000     0.00000
 Structure written by MMmdl.
 56 59  0  0  0  0  0  0  0  0  1 V2000
  149.4379  141.1330  153.8546 O   0  0  0  0  0  0  0  0  0  0  0  0
  149.7079  141.3902  155.2151 C   0  0  0  0  0  0  0  0  0  0  0  0
  150.7005  140.3430  155.7476 C   0  0  0  0  0  0  0  0  0  0  0  0
  150.9660  140.4884  157.1818 N   0  0  0  0  0  0  0  0  0  0  0  0
  152.0834  141.3475  157.5763 C   0  0  0  0  0  0  0  0  0  0  0  0
  151.6590  142.5338  158.4677 C   0  0  0  0  0  0  0  0  0  0  0  0
  151.5190  143.8192  157.6278 C   0  0  0  0  0  0  0  0  0  0  0  0
  151.0910  145.0184  158.4897 C   0  0  0  0  0  0  0  0  0  0  0  0
  152.0658  145.2418  159.6556 C   0  0  0  0  0  0  0  0  0  0  0  0
  152.2178  143.9675  160.5000 C   0  0  0  0  0  0  0  0  0  0  0  0
  152.6437  142.7723  159.6322 C   0  0  0  0  0  0  0  0  0  0  0  0
  150.8498  139.3807  157.9594 C   0  0  0  0  0  0  0  0  0  0  0  0
  151.9193  138.9280  158.6672 N   0  0  0  0  0  0  0  0  0  0  0  0
  151.8059  137.8467  159.4438 C   0  0  0  0  0  0  0  0  0  0  0  0
  150.7334  137.0825  159.6585 N   0  0  0  0  0  0  0  0  0  0  0  0
  149.6550  137.5347  158.9568 C   0  0  0  0  0  0  0  0  0  0  0  0
  149.6280  138.6630  158.0894 C   0  0  0  0  0  0  0  0  0  0  0  0
  148.3611  138.8052  157.5379 N   0  0  0  0  0  0  0  0  0  0  0  0
  147.6764  137.8219  158.0542 C   0  0  0  0  0  0  0  0  0  0  0  0
  148.3719  137.0156  158.9271 N   0  0  0  0  0  0  0  0  0  0  0  0
  147.8589  135.8572  159.6438 C   0  0  0  0  0  0  0  0  0  0  0  0
  147.5361  136.1372  161.1321 C   0  0  2  0  0  0  0  0  0  0  0  0
  148.5958  136.8857  161.6987 O   0  0  0  0  0  0  0  0  0  0  0  0
  147.3470  134.8512  161.9404 C   0  0  0  0  0  0  0  0  0  0  0  0
  145.8502  134.8224  162.2256 C   0  0  0  0  0  0  0  0  0  0  0  0
  145.5393  136.1946  162.3843 O   0  0  0  0  0  0  0  0  0  0  0  0
  146.2108  136.8955  161.3478 C   0  0  0  0  0  0  0  0  0  0  0  0
  148.6154  140.6717  153.7939 H   0  0  0  0  0  0  0  0  0  0  0  0
  150.1242  142.3935  155.3101 H   0  0  0  0  0  0  0  0  0  0  0  0
  148.7683  141.3729  155.7672 H   0  0  0  0  0  0  0  0  0  0  0  0
  150.3356  139.3362  155.5399 H   0  0  0  0  0  0  0  0  0  0  0  0
  151.6352  140.4359  155.1960 H   0  0  0  0  0  0  0  0  0  0  0  0
  152.8611  140.7767  158.0861 H   0  0  0  0  0  0  0  0  0  0  0  0
  152.5456  141.7283  156.6647 H   0  0  0  0  0  0  0  0  0  0  0  0
  150.6788  142.3210  158.8941 H   0  0  0  0  0  0  0  0  0  0  0  0
  152.4671  144.0442  157.1376 H   0  0  0  0  0  0  0  0  0  0  0  0
  150.7896  143.6662  156.8317 H   0  0  0  0  0  0  0  0  0  0  0  0
  151.0351  145.9172  157.8749 H   0  0  0  0  0  0  0  0  0  0  0  0
  150.0869  144.8478  158.8802 H   0  0  0  0  0  0  0  0  0  0  0  0
  153.0399  145.5403  159.2658 H   0  0  0  0  0  0  0  0  0  0  0  0
  151.7169  146.0643  160.2807 H   0  0  0  0  0  0  0  0  0  0  0  0
  152.9495  144.1312  161.2915 H   0  0  0  0  0  0  0  0  0  0  0  0
  151.2723  143.7412  160.9943 H   0  0  0  0  0  0  0  0  0  0  0  0
  152.7132  141.8814  160.2571 H   0  0  0  0  0  0  0  0  0  0  0  0
  153.6441  142.9522  159.2371 H   0  0  0  0  0  0  0  0  0  0  0  0
  152.7016  137.5538  159.9711 H   0  0  0  0  0  0  0  0  0  0  0  0
  146.6364  137.6596  157.8108 H   0  0  0  0  0  0  0  0  0  0  0  0
  146.9639  135.5087  159.1269 H   0  0  0  0  0  0  0  0  0  0  0  0
  148.5904  135.0521  159.5610 H   0  0  0  0  0  0  0  0  0  0  0  0
  149.3997  136.4033  161.5802 H   0  0  0  0  0  0  0  0  0  0  0  0
  147.6856  133.9551  161.4193 H   0  0  0  0  0  0  0  0  0  0  0  0
  147.8863  134.9004  162.8878 H   0  0  0  0  0  0  0  0  0  0  0  0
  145.2964  134.4131  161.3791 H   0  0  0  0  0  0  0  0  0  0  0  0
  145.6007  134.2449  163.1159 H   0  0  0  0  0  0  0  0  0  0  0  0
  146.3442  137.9485  161.5993 H   0  0  0  0  0  0  0  0  0  0  0  0
  145.5795  136.8466  160.4602 H   0  0  0  0  0  0  0  0  0  0  0  0
  1  2  1  0  0  0  0
  1 28  1  0  0  0  0
  2  3  1  0  0  0  0
  2 29  1  0  0  0  0
  2 30  1  0  0  0  0
  3  4  1  0  0  0  0
  3 31  1  0  0  0  0
  3 32  1  0  0  0  0
  4  5  1  0  0  0  0
  4 12  1  0  0  0  0
  5  6  1  0  0  0  0
  5 33  1  0  0  0  0
  5 34  1  0  0  0  0
  6 11  1  0  0  0  0
  6  7  1  0  0  0  0
  6 35  1  0  0  0  0
  7  8  1  0  0  0  0
  7 36  1  0  0  0  0
  7 37  1  0  0  0  0
  8  9  1  0  0  0  0
  8 38  1  0  0  0  0
  8 39  1  0  0  0  0
  9 10  1  0  0  0  0
  9 40  1  0  0  0  0
  9 41  1  0  0  0  0
 10 11  1  0  0  0  0
 10 42  1  0  0  0  0
 10 43  1  0  0  0  0
 11 44  1  0  0  0  0
 11 45  1  0  0  0  0
 12 17  1  0  0  0  0
 12 13  2  0  0  0  0
 13 14  1  0  0  0  0
 14 15  2  0  0  0  0
 14 46  1  0  0  0  0
 15 16  1  0  0  0  0
 16 20  1  0  0  0  0
 16 17  2  0  0  0  0
 17 18  1  0  0  0  0
 18 19  2  0  0  0  0
 19 20  1  0  0  0  0
 19 47  1  0  0  0  0
 20 21  1  0  0  0  0
 21 22  1  0  0  0  0
 21 48  1  0  0  0  0
 21 49  1  0  0  0  0
 22 27  1  0  0  0  0
 22 23  1  0  0  0  0
 22 24  1  0  0  0  0
 23 50  1  0  0  0  0
 24 25  1  0  0  0  0
 24 51  1  0  0  0  0
 24 52  1  0  0  0  0
 25 26  1  0  0  0  0
 25 53  1  0  0  0  0
 25 54  1  0  0  0  0
 26 27  1  0  0  0  0
 27 55  1  0  0  0  0
 27 56  1  0  0  0  0
M  END
> <s_m_source_file>
AV-unprocessed.smi

> <i_m_source_file_index>
225

> <i_lp_mmshare_version>
43012

> <i_f3d_flags>
0

> <s_epik_input>
W0NIMl0xW0NIMl1bQ0gyXVtDSDJdW0NIMl1bQ0hdMVtDSDJdTihbQ0gyXVtDSDJdW09IXSljKG5bY0hdbjIpYyhjMjMpbltjSF1uM1tDSDJdW0NAQF00KFtPSF0pW0NIMl1bQ0gyXU9bQ0gyXTQ=

> <s_epik_cmdline>
J2VwaWtfcHl0aG9uJywgJy1waCcsICc3LjAnLCAnLXRuJywgJzgnLCAnLW1hJywgJzIwMCcsICctbWV0YWxfYmluZGluZycsICctaW1hZScsICc8aW5maWxlLm1hZT4nLCAnLW9tYWUnLCAnPG91dGZpbGUubWFlPic=

> <r_lp_tautomer_probability>
1

> <r_epik_Ionization_Penalty>
0.00405109

> <r_epik_Ionization_Penalty_Charging>
0

> <r_epik_Ionization_Penalty_Neutral>
0.00405109

> <r_epik_State_Penalty>
0.00270467

> <r_epik_Charging_Adjusted_Penalty>
0.00270467

> <i_epik_Tot_Q>
0

> <i_epik_Tot_abs_Q>
0

> <r_epik_Metal_State_Penalty>
-0

> <b_epik_Metal_Only>
0

> <s_lp_Force_Field>
OPLS_2005

> <r_lp_Energy>
36.6988

> <b_lp_Chiralities_Consistent>
1

> <s_lp_Variant>
AV-unprocessed.smi:225-2

> <Gold.Version>
5.8.1

> <Gold.Id.Protein>
6NUR|6NUR_protein|mol2

> <Gold.PLP.Fitness>
57.8090

> <Gold.PLP.PLP>
-51.9718

> <Gold.PLP.part.hbond>
-5.0000

> <Gold.PLP.part.metal>
0.0000

> <Gold.PLP.part.buried>
-7.4877

> <Gold.PLP.part.nonpolar>
-39.1452

> <Gold.PLP.part.repulsive>
0.0000

> <Gold.PLP.ligand.clash>
0.0000

> <Gold.PLP.ligand.torsion>
2.5031

> <Gold.PLP.Chemscore.Hbond>
3.0998

> <Gold.PLP.Chemscore.CHOScore>
0.0000

> <Gold.PLP.Chemscore.Metal>
0.0000

> <Gold.Chemscore.Hbonds>
donor molecule, donor type, donor heavy atom, donor atom, acceptor molecule, acceptor atom, score
      P1  H  6896  6908       L1    15  0.99
      P1  H  6931  6943       L1    23  0.78
      P1  H  7989  7998       L1     1  0.10
      P1  H  8011  8017       L1     1  0.90

> <Gold.PLP.Chemscore.Internal.Correction>
1.5441

> <Gold.Rescore>
     Score         DG    S(hbond)    S(metal)    S(lipo)     H(rot)  DE(clash)    DE(int)     intcor
     14.92     -18.87       2.49        0.00     125.75       3.76       0.58       3.38       ----

> <Gold.Chemscore.Fitness>
14.9167

> <Gold.Chemscore.DG>
-18.8740

> <Gold.Chemscore.ZeroCoef>
-5.4800

> <Gold.Chemscore.Hbond>
2.4905

> <Gold.Chemscore.Metal>
0.0000

> <Gold.Chemscore.Lipo>
125.7482

> <Gold.Chemscore.Internal_Hbond>
0.0000

> <Gold.Chemscore.DEClash>
0.5778

> <Gold.Chemscore.DEInternal>
3.3795

> <Gold.Chemscore.Rot>
3.7644

> <Gold.Chemscore.Internal.Correction>
   9.000000E+99

> <Gold.Chemscore.Hbonds>
donor molecule, donor type, donor heavy atom, donor atom, acceptor molecule, acceptor atom, score
      P1  H  6896  6908       L1    15  0.79
      P1  H  6931  6943       L1    23  0.30
      P1  H  8011  8017       L1     1  0.75

> <Gold.Chemscore.Hbond.Weighted>
-8.3183

> <Gold.Chemscore.Metal.Weighted>
-0.0000

> <Gold.Chemscore.Lipo.Weighted>
-14.7125

> <Gold.Chemscore.Internal_Hbond.Weighted>
0.0000

> <Gold.Chemscore.DEClash.Weighted>
0.5778

> <Gold.Chemscore.DEInternal.Weighted>
3.3795

> <Gold.Chemscore.Rot.Weighted>
9.6369

> <Gold.Chemscore.Internal.Correction.Weighted>
   9.000000E+99

> <Gold.Protein.RotatedTorsions>
[ 6907 6896 6895 6894 ] final -142.97 input  -60.11 | X-H torsion
[ 7974 7965 7964 7962 ] final  146.29 input  175.53 | X-H torsion
[ 8008 7997 7996 7995 ] final -154.85 input   59.86 | X-H torsion
[ 10167 10162 10161 10158 ] final  127.93 input  -65.29 | X-H torsion
[ 10718 10713 10712 10709 ] final   66.30 input   66.30 | X-H torsion
[ 10763 10752 10751 10750 ] final   75.21 input  -60.55 | X-H torsion
[ 11005 11000 10999 10996 ] final   87.15 input  -57.11 | X-H torsion

> <Gold.Protein.ActiveResidues>
 VAL166  LYS551  ARG553  GLY616  TRP617  ASP618  TYR619  PRO620  LYS621  CYS622 
 ASP623  PHE694  ASN695  SER759  ASP760  ASP761  ALA762  ILE779  LEU786  VAL792 
 PHE793  MET794  SER795  GLU796  ALA797  LYS798  CYS799  TRP800  GLU811  SER814 

> <Gold.Protein.RotatedAtoms>
  151.0942  133.5292  159.2613 H   0  0  0  0  0  0  0  0  0  0  0  0  # atno 6907 bound_to 6896
  151.2148  135.0495  159.8935 H   0  0  0  0  0  0  0  0  0  0  0  0  # atno 6908 bound_to 6896
  152.5437  134.0753  159.8265 H   0  0  0  0  0  0  0  0  0  0  0  0  # atno 6909 bound_to 6896
  144.8683  139.5887  143.5899 H   0  0  0  0  0  0  0  0  0  0  0  0  # atno 7974 bound_to 7965
  155.6928  140.0757  157.2441 H   0  0  0  0  0  0  0  0  0  0  0  0  # atno 8008 bound_to 7997
  154.4086  140.1661  156.2158 H   0  0  0  0  0  0  0  0  0  0  0  0  # atno 8009 bound_to 7997
  155.9437  140.3382  155.6351 H   0  0  0  0  0  0  0  0  0  0  0  0  # atno 8010 bound_to 7997
  139.5553  144.6844  151.4201 H   0  0  0  0  0  0  0  0  0  0  0  0  # atno 10167 bound_to 10162
  157.6160  130.9260  150.0090 H   0  0  0  0  0  0  0  0  0  0  0  0  # atno 10718 bound_to 10713
  153.0639  135.4997  154.8156 H   0  0  0  0  0  0  0  0  0  0  0  0  # atno 10763 bound_to 10752
  154.6924  135.2987  154.9462 H   0  0  0  0  0  0  0  0  0  0  0  0  # atno 10764 bound_to 10752
  154.0212  135.6742  153.4825 H   0  0  0  0  0  0  0  0  0  0  0  0  # atno 10765 bound_to 10752
  139.8926  134.8403  156.2820 H   0  0  0  0  0  0  0  0  0  0  0  0  # atno 11005 bound_to 11000
  146.2912  139.7144  142.9160 LP  0  0  0  0  0  0  0  0  0  0  0  0  # atno 17320 bound_to 7965
  145.4179  141.0403  143.2980 LP  0  0  0  0  0  0  0  0  0  0  0  0  # atno 17321 bound_to 7965
  140.6824  143.8050  150.7140 LP  0  0  0  0  0  0  0  0  0  0  0  0  # atno 17342 bound_to 10162
  140.1508  143.4359  152.2132 LP  0  0  0  0  0  0  0  0  0  0  0  0  # atno 17343 bound_to 10162
  156.1283  130.3644  149.9774 LP  0  0  0  0  0  0  0  0  0  0  0  0  # atno 17370 bound_to 10713
  156.7840  130.9232  151.3646 LP  0  0  0  0  0  0  0  0  0  0  0  0  # atno 17371 bound_to 10713
  141.0032  133.7139  156.0994 LP  0  0  0  0  0  0  0  0  0  0  0  0  # atno 17394 bound_to 11000
  140.7469  134.4088  157.5547 LP  0  0  0  0  0  0  0  0  0  0  0  0  # atno 17395 bound_to 11000

$$$$
