AV-unprocessed.smi:1965|AV-procd|sdf|7944|dock1
  -GOLD-   2272010113D 1   1.00000     0.00000
 Structure written by MMmdl.
 36 38  0  0  0  0  0  0  0  0  3 V2000
  149.6758  134.2164  157.2213 O   0  0  0  0  0  0  0  0  0  0  0  0
  150.0085  134.9605  156.3001 C   0  0  0  0  0  0  0  0  0  0  0  0
  150.9403  135.9413  156.4248 N   0  5  0  0  0  0  0  0  0  0  0  0
  151.0432  136.9559  155.5459 C   0  0  0  0  0  0  0  0  0  0  0  0
  152.2153  137.4120  155.0889 N   0  0  0  0  0  0  0  0  0  0  0  0
  152.0858  138.4623  154.1785 C   0  0  0  0  0  0  0  0  0  0  0  0
  150.7844  138.8142  153.9363 C   0  0  0  0  0  0  0  0  0  0  0  0
  149.6767  137.8350  154.8548 S   0  0  0  0  0  0  0  0  0  0  0  0
  149.4281  134.8050  155.0962 N   0  0  0  0  0  0  0  0  0  0  0  0
  148.4015  133.8302  154.7444 C   0  0  2  0  0  0  0  0  0  0  0  0
  148.8530  132.8181  153.6692 C   0  0  0  0  0  0  0  0  0  0  0  0
  147.6994  132.7673  152.6624 C   0  0  0  0  0  0  0  0  0  0  0  0
  147.1308  134.1185  152.7371 N   0  3  1  0  0  0  0  0  0  0  0  0
  145.8261  134.3652  152.0891 C   0  0  0  0  0  0  0  0  0  0  0  0
  145.5109  135.8745  152.1699 C   0  0  0  0  0  0  0  0  0  0  0  0
  145.6131  136.4165  153.6135 C   0  0  0  0  0  0  0  0  0  0  0  0
  146.9527  136.0264  154.2724 C   0  0  0  0  0  0  0  0  0  0  0  0
  147.1421  134.5020  154.1586 C   0  0  2  0  0  0  0  0  0  0  0  0
  152.9752  138.9014  153.7515 H   0  0  0  0  0  0  0  0  0  0  0  0
  150.4115  139.5876  153.2819 H   0  0  0  0  0  0  0  0  0  0  0  0
  149.7273  135.4311  154.3629 H   0  0  0  0  0  0  0  0  0  0  0  0
  148.1135  133.2969  155.6523 H   0  0  0  0  0  0  0  0  0  0  0  0
  149.7535  133.1749  153.1664 H   0  0  0  0  0  0  0  0  0  0  0  0
  149.0803  131.8375  154.0885 H   0  0  0  0  0  0  0  0  0  0  0  0
  148.0311  132.5184  151.6538 H   0  0  0  0  0  0  0  0  0  0  0  0
  146.9521  132.0352  152.9731 H   0  0  0  0  0  0  0  0  0  0  0  0
  145.8662  134.0444  151.0476 H   0  0  0  0  0  0  0  0  0  0  0  0
  145.0472  133.7792  152.5794 H   0  0  0  0  0  0  0  0  0  0  0  0
  146.2117  136.4197  151.5360 H   0  0  0  0  0  0  0  0  0  0  0  0
  144.5172  136.0711  151.7663 H   0  0  0  0  0  0  0  0  0  0  0  0
  145.4957  137.5005  153.6168 H   0  0  0  0  0  0  0  0  0  0  0  0
  144.7896  136.0164  154.2065 H   0  0  0  0  0  0  0  0  0  0  0  0
  147.7728  136.5523  153.7806 H   0  0  0  0  0  0  0  0  0  0  0  0
  146.9602  136.3351  155.3184 H   0  0  0  0  0  0  0  0  0  0  0  0
  146.2850  134.0191  154.6338 H   0  0  0  0  0  0  0  0  0  0  0  0
  147.8020  134.7202  152.2814 H   0  0  0  0  0  0  0  0  0  0  0  0
  1  2  2  0  0  0  0
  2  3  1  0  0  0  0
  2  9  1  0  0  0  0
  3  4  1  0  0  0  0
  4  8  1  0  0  0  0
  4  5  2  0  0  0  0
  5  6  1  0  0  0  0
  6  7  2  0  0  0  0
  6 19  1  0  0  0  0
  7  8  1  0  0  0  0
  7 20  1  0  0  0  0
  9 10  1  0  0  0  0
  9 21  1  0  0  0  0
 10 18  1  0  0  0  0
 10 11  1  0  0  0  0
 10 22  1  0  0  0  0
 11 12  1  0  0  0  0
 11 23  1  0  0  0  0
 11 24  1  0  0  0  0
 12 13  1  0  0  0  0
 12 25  1  0  0  0  0
 12 26  1  0  0  0  0
 13 18  1  0  0  0  0
 13 14  1  0  0  0  0
 13 36  1  0  0  0  0
 14 15  1  0  0  0  0
 14 27  1  0  0  0  0
 14 28  1  0  0  0  0
 15 16  1  0  0  0  0
 15 29  1  0  0  0  0
 15 30  1  0  0  0  0
 16 17  1  0  0  0  0
 16 31  1  0  0  0  0
 16 32  1  0  0  0  0
 17 18  1  0  0  0  0
 17 33  1  0  0  0  0
 17 34  1  0  0  0  0
 18 35  1  0  0  0  0
M  CHG  1   3  -1
M  CHG  1  13   1
M  END
> <s_m_source_file>
AV-unprocessed.smi

> <i_m_source_file_index>
1965

> <i_lp_mmshare_version>
43012

> <i_f3d_flags>
0

> <s_epik_input>
czFbY0hdW2NIXW5jMVtOSF1DKD1PKVtOSF1bQ0BIXShbQ0gyXVtDSDJdMilbQ0BASF0oTjIzKVtDSDJdW0NIMl1bQ0gyXVtDSDJdMw==

> <s_epik_cmdline>
J2VwaWtfcHl0aG9uJywgJy1waCcsICc3LjAnLCAnLXRuJywgJzgnLCAnLW1hJywgJzIwMCcsICctbWV0YWxfYmluZGluZycsICctaW1hZScsICc8aW5maWxlLm1hZT4nLCAnLW9tYWUnLCAnPG91dGZpbGUubWFlPic=

> <r_lp_tautomer_probability>
1

> <r_epik_Ionization_Penalty>
7.4116

> <r_epik_Ionization_Penalty_Charging>
6.13869

> <r_epik_Ionization_Penalty_Neutral>
1.27291

> <r_epik_State_Penalty>
6.13761

> <r_epik_Charging_Adjusted_Penalty>
12.2763

> <i_epik_Tot_Q>
0

> <i_epik_Tot_abs_Q>
2

> <r_epik_Metal_State_Penalty>
2.08142

> <b_epik_Metal_Only>
1

> <s_lp_Force_Field>
OPLS_2005

> <r_lp_Energy>
32.5811

> <b_lp_Chiralities_Consistent>
1

> <s_lp_Variant>
AV-unprocessed.smi:1965-13

> <Gold.Version>
5.8.1

> <Gold.Id.Protein>
6NUR|6NUR_protein|mol2

> <Gold.PLP.Fitness>
35.2605

> <Gold.PLP.PLP>
-24.3474

> <Gold.PLP.part.hbond>
-2.6267

> <Gold.PLP.part.metal>
0.0000

> <Gold.PLP.part.buried>
-4.0050

> <Gold.PLP.part.nonpolar>
-17.6482

> <Gold.PLP.part.repulsive>
0.0715

> <Gold.PLP.ligand.clash>
0.8281

> <Gold.PLP.ligand.torsion>
0.4233

> <Gold.PLP.Chemscore.Hbond>
3.1917

> <Gold.PLP.Chemscore.CHOScore>
1.0000

> <Gold.PLP.Chemscore.Metal>
0.0000

> <Gold.Chemscore.Hbonds>
donor molecule, donor type, donor heavy atom, donor atom, acceptor molecule, acceptor atom, score
      L1  H    13    36       P1  7948  2.00
      P1  H  6896  6908       L1     1  0.24
      P1  H 10752 10763       L1     5  0.54
      L1  C     7    20       P1  7957  1.00

> <Gold.PLP.Chemscore.Internal.Correction>
0.0128

> <Gold.Rescore>
     Score         DG    S(hbond)    S(metal)    S(lipo)     H(rot)  DE(clash)    DE(int)     intcor
     15.93     -16.57       2.49        0.00      45.60       1.00       0.05       0.60       ----

> <Gold.Chemscore.Fitness>
15.9279

> <Gold.Chemscore.DG>
-16.5697

> <Gold.Chemscore.ZeroCoef>
-5.4800

> <Gold.Chemscore.Hbond>
2.4895

> <Gold.Chemscore.Metal>
0.0000

> <Gold.Chemscore.Lipo>
45.5958

> <Gold.Chemscore.Internal_Hbond>
0.0000

> <Gold.Chemscore.DEClash>
0.0456

> <Gold.Chemscore.DEInternal>
0.5962

> <Gold.Chemscore.Rot>
1.0000

> <Gold.Chemscore.Internal.Correction>
   9.000000E+99

> <Gold.Chemscore.Hbonds>
donor molecule, donor type, donor heavy atom, donor atom, acceptor molecule, acceptor atom, score
      L1  H    13    36       P1  7948  0.65
      P1  H  6896  6908       L1     1  0.24
      P1  H 10752 10763       L1     5  0.06

> <Gold.Chemscore.Hbond.Weighted>
-8.3150

> <Gold.Chemscore.Metal.Weighted>
-0.0000

> <Gold.Chemscore.Lipo.Weighted>
-5.3347

> <Gold.Chemscore.Internal_Hbond.Weighted>
0.0000

> <Gold.Chemscore.DEClash.Weighted>
0.0456

> <Gold.Chemscore.DEInternal.Weighted>
0.5962

> <Gold.Chemscore.Rot.Weighted>
2.5600

> <Gold.Chemscore.Internal.Correction.Weighted>
   9.000000E+99

> <Gold.Protein.RotatedTorsions>
[ 6907 6896 6895 6894 ] final  131.55 input  -60.11 | X-H torsion
[ 7974 7965 7964 7962 ] final  -49.26 input  175.53 | X-H torsion
[ 8008 7997 7996 7995 ] final   99.26 input   59.86 | X-H torsion
[ 10167 10162 10161 10158 ] final  -66.86 input  -65.29 | X-H torsion
[ 10718 10713 10712 10709 ] final -141.35 input   66.30 | X-H torsion
[ 10763 10752 10751 10750 ] final   68.90 input  -60.55 | X-H torsion
[ 11005 11000 10999 10996 ] final  110.78 input  -57.11 | X-H torsion

> <Gold.Protein.ActiveResidues>
 VAL166  LYS551  ARG553  GLY616  TRP617  ASP618  TYR619  PRO620  LYS621  CYS622 
 ASP623  PHE694  ASN695  SER759  ASP760  ASP761  ALA762  ILE779  LEU786  VAL792 
 PHE793  MET794  SER795  GLU796  ALA797  LYS798  CYS799  TRP800  GLU811  SER814 

> <Gold.Protein.RotatedAtoms>
  152.3415  133.6072  159.5879 H   0  0  0  0  0  0  0  0  0  0  0  0  # atno 6907 bound_to 6896
  150.7481  133.9715  159.3556 H   0  0  0  0  0  0  0  0  0  0  0  0  # atno 6908 bound_to 6896
  151.7578  135.0818  160.0392 H   0  0  0  0  0  0  0  0  0  0  0  0  # atno 6909 bound_to 6896
  145.9425  140.7649  142.9545 H   0  0  0  0  0  0  0  0  0  0  0  0  # atno 7974 bound_to 7965
  156.1087  140.3231  155.8043 H   0  0  0  0  0  0  0  0  0  0  0  0  # atno 8008 bound_to 7997
  155.4710  140.0546  157.2996 H   0  0  0  0  0  0  0  0  0  0  0  0  # atno 8009 bound_to 7997
  154.4745  140.2026  155.9926 H   0  0  0  0  0  0  0  0  0  0  0  0  # atno 8010 bound_to 7997
  140.5626  143.2313  151.6699 H   0  0  0  0  0  0  0  0  0  0  0  0  # atno 10167 bound_to 10162
  156.3330  130.7596  151.1718 H   0  0  0  0  0  0  0  0  0  0  0  0  # atno 10718 bound_to 10713
  153.0259  135.5230  154.7205 H   0  0  0  0  0  0  0  0  0  0  0  0  # atno 10763 bound_to 10752
  154.6262  135.2895  155.0272 H   0  0  0  0  0  0  0  0  0  0  0  0  # atno 10764 bound_to 10752
  154.1241  135.6603  153.4961 H   0  0  0  0  0  0  0  0  0  0  0  0  # atno 10765 bound_to 10752
  139.8889  134.9492  156.6332 H   0  0  0  0  0  0  0  0  0  0  0  0  # atno 11005 bound_to 11000
  144.6781  140.2303  143.7356 LP  0  0  0  0  0  0  0  0  0  0  0  0  # atno 17320 bound_to 7965
  145.8281  139.2073  143.1899 LP  0  0  0  0  0  0  0  0  0  0  0  0  # atno 17321 bound_to 7965
  139.5077  144.3637  152.0538 LP  0  0  0  0  0  0  0  0  0  0  0  0  # atno 17342 bound_to 10162
  140.2765  144.3907  150.6133 LP  0  0  0  0  0  0  0  0  0  0  0  0  # atno 17343 bound_to 10162
  157.7434  131.0476  150.4951 LP  0  0  0  0  0  0  0  0  0  0  0  0  # atno 17370 bound_to 10713
  156.5120  130.4141  149.6296 LP  0  0  0  0  0  0  0  0  0  0  0  0  # atno 17371 bound_to 10713
  140.7651  133.8785  155.8448 LP  0  0  0  0  0  0  0  0  0  0  0  0  # atno 17394 bound_to 11000
  140.9889  134.1305  157.4426 LP  0  0  0  0  0  0  0  0  0  0  0  0  # atno 17395 bound_to 11000

$$$$
