AV-unprocessed.smi:794|AV-procd|sdf|3763|dock9
  -GOLD-   22720 1193D 1   1.00000     0.00000
 Structure written by MMmdl.
 41 43  0  0  0  0  0  0  0  0  1 V2000
  151.2634  130.2723  155.7170 C   0  0  0  0  0  0  0  0  0  0  0  0
  150.3665  131.1679  154.9186 C   0  0  0  0  0  0  0  0  0  0  0  0
  150.5104  132.5548  155.0207 N   0  0  0  0  0  0  0  0  0  0  0  0
  149.6405  133.2119  154.2470 C   0  0  0  0  0  0  0  0  0  0  0  0
  149.5650  134.6256  154.1474 N   0  0  0  0  0  0  0  0  0  0  0  0
  149.9268  135.5439  155.0600 C   0  0  0  0  0  0  0  0  0  0  0  0
  150.3772  135.2979  156.1794 O   0  0  0  0  0  0  0  0  0  0  0  0
  149.7346  136.7865  154.5966 N   0  0  0  0  0  0  0  0  0  0  0  0
  150.0294  138.0120  155.3341 C   0  0  1  0  0  0  0  0  0  0  0  0
  151.3664  137.8775  156.0955 C   0  0  2  0  0  0  0  0  0  0  0  0
  151.4417  138.9873  157.1592 C   0  0  0  0  0  0  0  0  0  0  0  0
  151.6801  140.2482  156.3069 C   0  0  0  0  0  0  0  0  0  0  0  0
  151.6930  139.6958  154.8649 C   0  0  1  0  0  0  0  0  0  0  0  0
  152.3933  138.3593  155.0742 C   0  0  0  0  0  0  0  0  0  0  0  0
  150.2900  139.2254  154.4055 C   0  0  2  0  0  0  0  0  0  0  0  0
  149.1736  140.2875  154.4296 C   0  0  0  0  0  0  0  0  0  0  0  0
  149.2198  141.0760  153.2594 O   0  0  0  0  0  0  0  0  0  0  0  0
  148.5745  132.1590  153.3337 S   0  0  0  0  0  0  0  0  0  0  0  0
  149.3731  130.7806  154.0488 C   0  0  0  0  0  0  0  0  0  0  0  0
  148.9573  129.3905  153.6990 C   0  0  0  0  0  0  0  0  0  0  0  0
  150.7004  129.4627  156.1815 H   0  0  0  0  0  0  0  0  0  0  0  0
  151.7711  130.8164  156.5141 H   0  0  0  0  0  0  0  0  0  0  0  0
  152.0290  129.8223  155.0848 H   0  0  0  0  0  0  0  0  0  0  0  0
  149.2068  134.9793  153.2727 H   0  0  0  0  0  0  0  0  0  0  0  0
  149.3578  136.8965  153.6665 H   0  0  0  0  0  0  0  0  0  0  0  0
  149.2175  138.2077  156.0376 H   0  0  0  0  0  0  0  0  0  0  0  0
  151.5493  136.8816  156.5011 H   0  0  0  0  0  0  0  0  0  0  0  0
  150.5337  139.0542  157.7596 H   0  0  0  0  0  0  0  0  0  0  0  0
  152.2786  138.8196  157.8382 H   0  0  0  0  0  0  0  0  0  0  0  0
  150.9283  141.0189  156.4704 H   0  0  0  0  0  0  0  0  0  0  0  0
  152.6478  140.6880  156.5518 H   0  0  0  0  0  0  0  0  0  0  0  0
  152.1852  140.3564  154.1504 H   0  0  0  0  0  0  0  0  0  0  0  0
  153.3999  138.4562  155.4851 H   0  0  0  0  0  0  0  0  0  0  0  0
  152.4346  137.7439  154.1740 H   0  0  0  0  0  0  0  0  0  0  0  0
  150.3846  138.8741  153.3757 H   0  0  0  0  0  0  0  0  0  0  0  0
  148.1992  139.8005  154.4733 H   0  0  0  0  0  0  0  0  0  0  0  0
  149.2382  140.9297  155.3070 H   0  0  0  0  0  0  0  0  0  0  0  0
  148.8612  140.5730  152.5441 H   0  0  0  0  0  0  0  0  0  0  0  0
  149.8273  128.7582  153.5207 H   0  0  0  0  0  0  0  0  0  0  0  0
  148.3447  129.3772  152.7971 H   0  0  0  0  0  0  0  0  0  0  0  0
  148.3765  128.9468  154.5077 H   0  0  0  0  0  0  0  0  0  0  0  0
  1  2  1  0  0  0  0
  1 21  1  0  0  0  0
  1 22  1  0  0  0  0
  1 23  1  0  0  0  0
  2 19  2  0  0  0  0
  2  3  1  0  0  0  0
  3  4  2  0  0  0  0
  4  5  1  0  0  0  0
  4 18  1  0  0  0  0
  5  6  1  0  0  0  0
  5 24  1  0  0  0  0
  6  7  2  0  0  0  0
  6  8  1  0  0  0  0
  8  9  1  0  0  0  0
  8 25  1  0  0  0  0
  9 15  1  0  0  0  0
  9 10  1  0  0  0  0
  9 26  1  0  0  0  0
 10 14  1  0  0  0  0
 10 11  1  0  0  0  0
 10 27  1  0  0  0  0
 11 12  1  0  0  0  0
 11 28  1  0  0  0  0
 11 29  1  0  0  0  0
 12 13  1  0  0  0  0
 12 30  1  0  0  0  0
 12 31  1  0  0  0  0
 13 14  1  0  0  0  0
 13 15  1  0  0  0  0
 13 32  1  0  0  0  0
 14 33  1  0  0  0  0
 14 34  1  0  0  0  0
 15 16  1  0  0  0  0
 15 35  1  0  0  0  0
 16 17  1  0  0  0  0
 16 36  1  0  0  0  0
 16 37  1  0  0  0  0
 17 38  1  0  0  0  0
 18 19  1  0  0  0  0
 19 20  1  0  0  0  0
 20 39  1  0  0  0  0
 20 40  1  0  0  0  0
 20 41  1  0  0  0  0
M  END
> <s_m_source_file>
AV-unprocessed.smi

> <i_m_source_file_index>
794

> <i_lp_mmshare_version>
43012

> <i_f3d_flags>
0

> <s_epik_input>
W0NIM11jMW5jKHNjMVtDSDNdKVtOSF1DKD1PKVtOSF1bQ0BIXShbQ0BASF0yMylbQ0BIXShbQ0gyXVtPSF0pW0NAQEhdKFtDSDJdMylbQ0gyXVtDSDJdMg==

> <s_epik_cmdline>
J2VwaWtfcHl0aG9uJywgJy1waCcsICc3LjAnLCAnLXRuJywgJzgnLCAnLW1hJywgJzIwMCcsICctbWV0YWxfYmluZGluZycsICctaW1hZScsICc8aW5maWxlLm1hZT4nLCAnLW9tYWUnLCAnPG91dGZpbGUubWFlPic=

> <r_lp_tautomer_probability>
0.999

> <r_epik_Ionization_Penalty>
0.000713029

> <r_epik_Ionization_Penalty_Charging>
0

> <r_epik_Ionization_Penalty_Neutral>
0.000713029

> <r_epik_State_Penalty>
0.000177984

> <r_epik_Charging_Adjusted_Penalty>
0.000177984

> <i_epik_Tot_Q>
0

> <i_epik_Tot_abs_Q>
0

> <r_epik_Metal_State_Penalty>
-0

> <b_epik_Metal_Only>
0

> <s_lp_Force_Field>
OPLS_2005

> <r_lp_Energy>
46.861

> <b_lp_Chiralities_Consistent>
1

> <s_lp_Variant>
AV-unprocessed.smi:794-8

> <Gold.Version>
5.8.1

> <Gold.Id.Protein>
6NUR|6NUR_protein|mol2

> <Gold.PLP.Fitness>
44.9789

> <Gold.PLP.PLP>
-36.1100

> <Gold.PLP.part.hbond>
-4.4304

> <Gold.PLP.part.metal>
0.0000

> <Gold.PLP.part.buried>
-1.6901

> <Gold.PLP.part.nonpolar>
-30.2308

> <Gold.PLP.part.repulsive>
0.0795

> <Gold.PLP.ligand.clash>
0.0000

> <Gold.PLP.ligand.torsion>
0.6689

> <Gold.PLP.Chemscore.Hbond>
3.3963

> <Gold.PLP.Chemscore.CHOScore>
0.0000

> <Gold.PLP.Chemscore.Metal>
0.0000

> <Gold.Chemscore.Hbonds>
donor molecule, donor type, donor heavy atom, donor atom, acceptor molecule, acceptor atom, score
      L1  H     5    24       P1  7948  0.70
      L1  H     8    25       P1  7948  1.00
      L1  H    17    38       P1  7957  0.59
      P1  H  7989  7998       L1    17  0.01
      P1  H  8011  8017       L1    17  0.85

> <Gold.PLP.Chemscore.Internal.Correction>
0.0178

> <Gold.Rescore>
     Score         DG    S(hbond)    S(metal)    S(lipo)     H(rot)  DE(clash)    DE(int)     intcor
     14.06     -16.61       2.26        0.00      69.59       1.78       0.15       2.41       ----

> <Gold.Chemscore.Fitness>
14.0583

> <Gold.Chemscore.DG>
-16.6123

> <Gold.Chemscore.ZeroCoef>
-5.4800

> <Gold.Chemscore.Hbond>
2.2595

> <Gold.Chemscore.Metal>
0.0000

> <Gold.Chemscore.Lipo>
69.5871

> <Gold.Chemscore.Internal_Hbond>
0.0000

> <Gold.Chemscore.DEClash>
0.1461

> <Gold.Chemscore.DEInternal>
2.4079

> <Gold.Chemscore.Rot>
1.7798

> <Gold.Chemscore.Internal.Correction>
   9.000000E+99

> <Gold.Chemscore.Hbonds>
donor molecule, donor type, donor heavy atom, donor atom, acceptor molecule, acceptor atom, score
      L1  H     5    24       P1  7948  0.07
      L1  H     8    25       P1  7948  0.91
      L1  H    17    38       P1  7957  0.58
      P1  H  8011  8017       L1    17  0.15

> <Gold.Chemscore.Hbond.Weighted>
-7.5468

> <Gold.Chemscore.Metal.Weighted>
-0.0000

> <Gold.Chemscore.Lipo.Weighted>
-8.1417

> <Gold.Chemscore.Internal_Hbond.Weighted>
0.0000

> <Gold.Chemscore.DEClash.Weighted>
0.1461

> <Gold.Chemscore.DEInternal.Weighted>
2.4079

> <Gold.Chemscore.Rot.Weighted>
4.5562

> <Gold.Chemscore.Internal.Correction.Weighted>
   9.000000E+99

> <Gold.Protein.RotatedTorsions>
[ 6907 6896 6895 6894 ] final   71.87 input  -60.11 | X-H torsion
[ 7974 7965 7964 7962 ] final  -91.39 input  175.53 | X-H torsion
[ 8008 7997 7996 7995 ] final   50.52 input   59.86 | X-H torsion
[ 10167 10162 10161 10158 ] final   23.93 input  -65.29 | X-H torsion
[ 10718 10713 10712 10709 ] final -145.50 input   66.30 | X-H torsion
[ 10763 10752 10751 10750 ] final -164.33 input  -60.55 | X-H torsion
[ 11005 11000 10999 10996 ] final  166.93 input  -57.11 | X-H torsion

> <Gold.Protein.ActiveResidues>
 VAL166  LYS551  ARG553  GLY616  TRP617  ASP618  TYR619  PRO620  LYS621  CYS622 
 ASP623  PHE694  ASN695  SER759  ASP760  ASP761  ALA762  ILE779  LEU786  VAL792 
 PHE793  MET794  SER795  GLU796  ALA797  LYS798  CYS799  TRP800  GLU811  SER814 

> <Gold.Protein.RotatedAtoms>
  152.4835  134.4656  159.9618 H   0  0  0  0  0  0  0  0  0  0  0  0  # atno 6907 bound_to 6896
  151.4657  133.3575  159.2823 H   0  0  0  0  0  0  0  0  0  0  0  0  # atno 6908 bound_to 6896
  150.8926  134.8357  159.7365 H   0  0  0  0  0  0  0  0  0  0  0  0  # atno 6909 bound_to 6896
  145.4138  140.9547  143.2219 H   0  0  0  0  0  0  0  0  0  0  0  0  # atno 7974 bound_to 7965
  155.4201  140.3446  155.4270 H   0  0  0  0  0  0  0  0  0  0  0  0  # atno 8008 bound_to 7997
  156.1398  140.1539  156.8969 H   0  0  0  0  0  0  0  0  0  0  0  0  # atno 8009 bound_to 7997
  154.4962  140.0827  156.7681 H   0  0  0  0  0  0  0  0  0  0  0  0  # atno 8010 bound_to 7997
  140.5229  143.9972  150.6426 H   0  0  0  0  0  0  0  0  0  0  0  0  # atno 10167 bound_to 10162
  156.3832  130.7848  151.2042 H   0  0  0  0  0  0  0  0  0  0  0  0  # atno 10718 bound_to 10713
  154.7039  135.2993  154.9300 H   0  0  0  0  0  0  0  0  0  0  0  0  # atno 10763 bound_to 10752
  154.0224  135.6681  153.4777 H   0  0  0  0  0  0  0  0  0  0  0  0  # atno 10764 bound_to 10752
  153.0702  135.5065  154.8198 H   0  0  0  0  0  0  0  0  0  0  0  0  # atno 10765 bound_to 10752
  140.2716  134.7822  157.3680 H   0  0  0  0  0  0  0  0  0  0  0  0  # atno 11005 bound_to 11000
  144.8291  139.5659  143.6952 LP  0  0  0  0  0  0  0  0  0  0  0  0  # atno 17320 bound_to 7965
  146.2691  139.6592  142.9308 LP  0  0  0  0  0  0  0  0  0  0  0  0  # atno 17321 bound_to 7965
  140.3326  143.3068  152.0672 LP  0  0  0  0  0  0  0  0  0  0  0  0  # atno 17342 bound_to 10162
  139.4929  144.6499  151.6699 LP  0  0  0  0  0  0  0  0  0  0  0  0  # atno 17343 bound_to 10162
  157.7494  131.0338  150.4287 LP  0  0  0  0  0  0  0  0  0  0  0  0  # atno 17370 bound_to 10713
  156.4535  130.4016  149.6621 LP  0  0  0  0  0  0  0  0  0  0  0  0  # atno 17371 bound_to 10713
  140.1368  134.5024  155.8062 LP  0  0  0  0  0  0  0  0  0  0  0  0  # atno 17394 bound_to 11000
  141.2176  133.6810  156.7138 LP  0  0  0  0  0  0  0  0  0  0  0  0  # atno 17395 bound_to 11000

$$$$
