AV-unprocessed.smi:1749|AV-procd|sdf|7044|dock9
  -GOLD-   22720 8263D 1   1.00000     0.00000
 Structure written by MMmdl.
 32 33  0  0  0  0  0  0  0  0  1 V2000
  145.1402  133.6822  155.8096 C   0  0  0  0  0  0  0  0  0  0  0  0
  146.2811  133.6590  154.7828 C   0  0  2  0  0  0  0  0  0  0  0  0
  145.8723  132.9037  153.5035 C   0  0  0  0  0  0  0  0  0  0  0  0
  147.0131  132.8742  152.4740 C   0  0  0  0  0  0  0  0  0  0  0  0
  148.2961  132.2753  153.0762 C   0  0  0  0  0  0  0  0  0  0  0  0
  148.7267  133.0025  154.3645 C   0  0  1  0  0  0  0  0  0  0  0  0
  149.1985  134.3479  154.0466 N   0  0  0  0  0  0  0  0  0  0  0  0
  149.9560  135.1279  154.8347 C   0  0  0  0  0  0  0  0  0  0  0  0
  150.3946  134.7531  155.9207 O   0  0  0  0  0  0  0  0  0  0  0  0
  150.2227  136.3642  154.3632 N   0  0  0  0  0  0  0  0  0  0  0  0
  150.9781  137.4378  154.9189 C   0  0  0  0  0  0  0  0  0  0  0  0
  151.8788  137.3003  155.9064 N   0  0  0  0  0  0  0  0  0  0  0  0
  152.4836  138.5057  156.2346 N   0  0  0  0  0  0  0  0  0  0  0  0
  152.0280  139.5046  155.4740 C   0  0  0  0  0  0  0  0  0  0  0  0
  150.8146  139.0690  154.2830 S   0  0  0  0  0  0  0  0  0  0  0  0
  147.5661  133.0488  155.3818 C   0  0  0  0  0  0  0  0  0  0  0  0
  144.8745  132.6746  156.1304 H   0  0  0  0  0  0  0  0  0  0  0  0
  144.2460  134.1458  155.3922 H   0  0  0  0  0  0  0  0  0  0  0  0
  145.4222  134.2509  156.6960 H   0  0  0  0  0  0  0  0  0  0  0  0
  146.4904  134.6943  154.5092 H   0  0  0  0  0  0  0  0  0  0  0  0
  145.5846  131.8818  153.7547 H   0  0  0  0  0  0  0  0  0  0  0  0
  144.9928  133.3712  153.0594 H   0  0  0  0  0  0  0  0  0  0  0  0
  146.7090  132.2947  151.6022 H   0  0  0  0  0  0  0  0  0  0  0  0
  147.2088  133.8857  152.1160 H   0  0  0  0  0  0  0  0  0  0  0  0
  148.1241  131.2221  153.3017 H   0  0  0  0  0  0  0  0  0  0  0  0
  149.1012  132.3000  152.3407 H   0  0  0  0  0  0  0  0  0  0  0  0
  149.5557  132.4442  154.8030 H   0  0  0  0  0  0  0  0  0  0  0  0
  148.8880  134.7358  153.1671 H   0  0  0  0  0  0  0  0  0  0  0  0
  149.8860  136.5356  153.4271 H   0  0  0  0  0  0  0  0  0  0  0  0
  152.4114  140.5046  155.6126 H   0  0  0  0  0  0  0  0  0  0  0  0
  147.8677  133.6071  156.2691 H   0  0  0  0  0  0  0  0  0  0  0  0
  147.3560  132.0346  155.7242 H   0  0  0  0  0  0  0  0  0  0  0  0
  1  2  1  0  0  0  0
  1 17  1  0  0  0  0
  1 18  1  0  0  0  0
  1 19  1  0  0  0  0
  2 16  1  0  0  0  0
  2  3  1  0  0  0  0
  2 20  1  0  0  0  0
  3  4  1  0  0  0  0
  3 21  1  0  0  0  0
  3 22  1  0  0  0  0
  4  5  1  0  0  0  0
  4 23  1  0  0  0  0
  4 24  1  0  0  0  0
  5  6  1  0  0  0  0
  5 25  1  0  0  0  0
  5 26  1  0  0  0  0
  6  7  1  0  0  0  0
  6 16  1  0  0  0  0
  6 27  1  0  0  0  0
  7  8  1  0  0  0  0
  7 28  1  0  0  0  0
  8  9  2  0  0  0  0
  8 10  1  0  0  0  0
 10 11  1  0  0  0  0
 10 29  1  0  0  0  0
 11 15  1  0  0  0  0
 11 12  2  0  0  0  0
 12 13  1  0  0  0  0
 13 14  2  0  0  0  0
 14 15  1  0  0  0  0
 14 30  1  0  0  0  0
 16 31  1  0  0  0  0
 16 32  1  0  0  0  0
M  END
> <s_m_source_file>
AV-unprocessed.smi

> <i_m_source_file_index>
1749

> <i_lp_mmshare_version>
43012

> <i_f3d_flags>
0

> <s_epik_input>
W0NIM11bQ0BASF0xW0NIMl1bQ0gyXVtDSDJdW0NASF0oW0NIMl0xKVtOSF1DKD1PKVtOSF1jMm5uW2NIXXMy

> <s_epik_cmdline>
J2VwaWtfcHl0aG9uJywgJy1waCcsICc3LjAnLCAnLXRuJywgJzgnLCAnLW1hJywgJzIwMCcsICctbWV0YWxfYmluZGluZycsICctaW1hZScsICc8aW5maWxlLm1hZT4nLCAnLW9tYWUnLCAnPG91dGZpbGUubWFlPic=

> <r_lp_tautomer_probability>
1

> <r_epik_Ionization_Penalty>
0.000318591

> <r_epik_Ionization_Penalty_Charging>
0

> <r_epik_Ionization_Penalty_Neutral>
0.000318591

> <r_epik_State_Penalty>
-0

> <r_epik_Charging_Adjusted_Penalty>
0

> <i_epik_Tot_Q>
0

> <i_epik_Tot_abs_Q>
0

> <r_epik_Metal_State_Penalty>
0.169791

> <b_epik_Metal_Only>
0

> <s_lp_Force_Field>
OPLS_2005

> <r_lp_Energy>
10.2552

> <b_lp_Chiralities_Consistent>
1

> <s_lp_Variant>
AV-unprocessed.smi:1749-1

> <Gold.Version>
5.8.1

> <Gold.Id.Protein>
6NUR|6NUR_protein|mol2

> <Gold.PLP.Fitness>
31.7836

> <Gold.PLP.PLP>
-23.8781

> <Gold.PLP.part.hbond>
-4.1375

> <Gold.PLP.part.metal>
0.0000

> <Gold.PLP.part.buried>
-2.3100

> <Gold.PLP.part.nonpolar>
-18.3215

> <Gold.PLP.part.repulsive>
0.1564

> <Gold.PLP.ligand.clash>
0.0000

> <Gold.PLP.ligand.torsion>
0.2859

> <Gold.PLP.Chemscore.Hbond>
2.8240

> <Gold.PLP.Chemscore.CHOScore>
0.0000

> <Gold.PLP.Chemscore.Metal>
0.0000

> <Gold.Chemscore.Hbonds>
donor molecule, donor type, donor heavy atom, donor atom, acceptor molecule, acceptor atom, score
      L1  H     7    28       P1  7948  0.83
      L1  H    10    29       P1  7948  0.90
      P1  H 10752 10765       L1    12  0.17

> <Gold.PLP.Chemscore.Internal.Correction>
0.0053

> <Gold.Rescore>
     Score         DG    S(hbond)    S(metal)    S(lipo)     H(rot)  DE(clash)    DE(int)     intcor
     13.06     -13.55       1.95        0.00      35.17       1.00       0.09       0.41       ----

> <Gold.Chemscore.Fitness>
13.0596

> <Gold.Chemscore.DG>
-13.5542

> <Gold.Chemscore.ZeroCoef>
-5.4800

> <Gold.Chemscore.Hbond>
1.9518

> <Gold.Chemscore.Metal>
0.0000

> <Gold.Chemscore.Lipo>
35.1734

> <Gold.Chemscore.Internal_Hbond>
0.0000

> <Gold.Chemscore.DEClash>
0.0884

> <Gold.Chemscore.DEInternal>
0.4062

> <Gold.Chemscore.Rot>
1.0000

> <Gold.Chemscore.Internal.Correction>
   9.000000E+99

> <Gold.Chemscore.Hbonds>
donor molecule, donor type, donor heavy atom, donor atom, acceptor molecule, acceptor atom, score
      L1  H     7    28       P1  7948  0.14
      L1  H    10    29       P1  7948  0.18
      P1  H 10752 10765       L1    12  0.02

> <Gold.Chemscore.Hbond.Weighted>
-6.5189

> <Gold.Chemscore.Metal.Weighted>
-0.0000

> <Gold.Chemscore.Lipo.Weighted>
-4.1153

> <Gold.Chemscore.Internal_Hbond.Weighted>
0.0000

> <Gold.Chemscore.DEClash.Weighted>
0.0884

> <Gold.Chemscore.DEInternal.Weighted>
0.4062

> <Gold.Chemscore.Rot.Weighted>
2.5600

> <Gold.Chemscore.Internal.Correction.Weighted>
   9.000000E+99

> <Gold.Protein.RotatedTorsions>
[ 6907 6896 6895 6894 ] final  128.78 input  -60.11 | X-H torsion
[ 7974 7965 7964 7962 ] final   42.91 input  175.53 | X-H torsion
[ 8008 7997 7996 7995 ] final -147.42 input   59.86 | X-H torsion
[ 10167 10162 10161 10158 ] final  -23.45 input  -65.29 | X-H torsion
[ 10718 10713 10712 10709 ] final   -6.00 input   66.30 | X-H torsion
[ 10763 10752 10751 10750 ] final -163.62 input  -60.55 | X-H torsion
[ 11005 11000 10999 10996 ] final   92.11 input  -57.11 | X-H torsion

> <Gold.Protein.ActiveResidues>
 VAL166  LYS551  ARG553  GLY616  TRP617  ASP618  TYR619  PRO620  LYS621  CYS622 
 ASP623  PHE694  ASN695  SER759  ASP760  ASP761  ALA762  ILE779  LEU786  VAL792 
 PHE793  MET794  SER795  GLU796  ALA797  LYS798  CYS799  TRP800  GLU811  SER814 

> <Gold.Protein.RotatedAtoms>
  152.3687  133.6390  159.6069 H   0  0  0  0  0  0  0  0  0  0  0  0  # atno 6907 bound_to 6896
  150.7653  133.9306  159.3434 H   0  0  0  0  0  0  0  0  0  0  0  0  # atno 6908 bound_to 6896
  151.7132  135.0910  160.0322 H   0  0  0  0  0  0  0  0  0  0  0  0  # atno 6909 bound_to 6896
  146.0700  139.5246  142.9604 H   0  0  0  0  0  0  0  0  0  0  0  0  # atno 7974 bound_to 7965
  155.5753  140.0638  157.2796 H   0  0  0  0  0  0  0  0  0  0  0  0  # atno 8008 bound_to 7997
  154.4348  140.1861  156.0967 H   0  0  0  0  0  0  0  0  0  0  0  0  # atno 8009 bound_to 7997
  156.0346  140.3302  155.7180 H   0  0  0  0  0  0  0  0  0  0  0  0  # atno 8010 bound_to 7997
  140.7288  143.4442  151.0611 H   0  0  0  0  0  0  0  0  0  0  0  0  # atno 10167 bound_to 10162
  156.7383  130.5202  149.5830 H   0  0  0  0  0  0  0  0  0  0  0  0  # atno 10718 bound_to 10713
  154.7105  135.3005  154.9204 H   0  0  0  0  0  0  0  0  0  0  0  0  # atno 10763 bound_to 10752
  154.0108  135.6695  153.4769 H   0  0  0  0  0  0  0  0  0  0  0  0  # atno 10764 bound_to 10752
  153.0751  135.5039  154.8300 H   0  0  0  0  0  0  0  0  0  0  0  0  # atno 10765 bound_to 10752
  139.8828  134.8714  156.3526 H   0  0  0  0  0  0  0  0  0  0  0  0  # atno 11005 bound_to 11000
  145.6408  141.0284  143.1812 LP  0  0  0  0  0  0  0  0  0  0  0  0  # atno 17320 bound_to 7965
  144.7226  139.7981  143.7376 LP  0  0  0  0  0  0  0  0  0  0  0  0  # atno 17321 bound_to 7965
  139.8112  143.7948  152.3171 LP  0  0  0  0  0  0  0  0  0  0  0  0  # atno 17342 bound_to 10162
  139.7998  144.7378  150.9840 LP  0  0  0  0  0  0  0  0  0  0  0  0  # atno 17343 bound_to 10162
  156.1482  130.6291  151.0559 LP  0  0  0  0  0  0  0  0  0  0  0  0  # atno 17370 bound_to 10713
  157.6829  131.0833  150.7321 LP  0  0  0  0  0  0  0  0  0  0  0  0  # atno 17371 bound_to 10713
  140.9584  133.7405  156.0367 LP  0  0  0  0  0  0  0  0  0  0  0  0  # atno 17394 bound_to 11000
  140.8020  134.3498  157.5437 LP  0  0  0  0  0  0  0  0  0  0  0  0  # atno 17395 bound_to 11000

$$$$
