AV-unprocessed.smi:744|AV-procd|sdf|3568|dock4
  -GOLD-   22720 0563D 1   1.00000     0.00000
 Structure written by MMmdl.
 34 35  0  0  0  0  0  0  0  0  1 V2000
  144.7790  137.1726  152.0369 O   0  0  0  0  0  0  0  0  0  0  0  0
  145.9712  136.8867  151.9229 C   0  0  0  0  0  0  0  0  0  0  0  0
  146.9648  137.7688  152.1033 N   0  0  0  0  0  0  0  0  0  0  0  0
  146.7980  139.1751  152.4576 C   0  0  0  0  0  0  0  0  0  0  0  0
  147.5728  139.5554  153.7368 C   0  0  2  0  0  0  0  0  0  0  0  0
  147.7517  141.0785  153.8818 C   0  0  0  0  0  0  0  0  0  0  0  0
  149.1488  141.3153  154.4754 C   0  0  0  0  0  0  0  0  0  0  0  0
  149.7001  139.9317  154.8182 C   0  0  0  0  0  0  0  0  0  0  0  0
  149.0017  138.9942  153.8350 C   0  0  1  0  0  0  0  0  0  0  0  0
  149.0397  137.6637  154.3086 O   0  0  0  0  0  0  0  0  0  0  0  0
  146.4534  135.6753  151.5945 N   0  0  0  0  0  0  0  0  0  0  0  0
  145.7282  134.4883  151.3086 C   0  0  0  0  0  0  0  0  0  0  0  0
  146.5211  133.3327  151.1265 C   0  0  0  0  0  0  0  0  0  0  0  0
  145.8980  132.1030  150.8389 C   0  0  0  0  0  0  0  0  0  0  0  0
  144.4959  132.0606  150.7400 C   0  0  0  0  0  0  0  0  0  0  0  0
  143.7812  133.2569  150.9343 C   0  0  0  0  0  0  0  0  0  0  0  0
  144.3763  134.4365  151.2104 N   0  0  0  0  0  0  0  0  0  0  0  0
  147.9133  137.4442  151.9842 H   0  0  0  0  0  0  0  0  0  0  0  0
  147.0827  139.8269  151.6297 H   0  0  0  0  0  0  0  0  0  0  0  0
  145.7327  139.3422  152.6188 H   0  0  0  0  0  0  0  0  0  0  0  0
  147.0098  139.2121  154.6069 H   0  0  0  0  0  0  0  0  0  0  0  0
  147.6767  141.5810  152.9164 H   0  0  0  0  0  0  0  0  0  0  0  0
  146.9729  141.4971  154.5202 H   0  0  0  0  0  0  0  0  0  0  0  0
  149.7867  141.7901  153.7288 H   0  0  0  0  0  0  0  0  0  0  0  0
  149.1228  141.9699  155.3470 H   0  0  0  0  0  0  0  0  0  0  0  0
  150.7873  139.8818  154.7486 H   0  0  0  0  0  0  0  0  0  0  0  0
  149.4208  139.6769  155.8419 H   0  0  0  0  0  0  0  0  0  0  0  0
  149.4962  139.0486  152.8639 H   0  0  0  0  0  0  0  0  0  0  0  0
  148.7988  137.0882  153.5986 H   0  0  0  0  0  0  0  0  0  0  0  0
  147.4576  135.5933  151.5376 H   0  0  0  0  0  0  0  0  0  0  0  0
  147.5973  133.3834  151.2058 H   0  0  0  0  0  0  0  0  0  0  0  0
  146.4864  131.2085  150.6971 H   0  0  0  0  0  0  0  0  0  0  0  0
  143.9816  131.1367  150.5211 H   0  0  0  0  0  0  0  0  0  0  0  0
  142.7033  133.2677  150.8668 H   0  0  0  0  0  0  0  0  0  0  0  0
  1  2  2  0  0  0  0
  2  3  1  0  0  0  0
  2 11  1  0  0  0  0
  3  4  1  0  0  0  0
  3 18  1  0  0  0  0
  4  5  1  0  0  0  0
  4 19  1  0  0  0  0
  4 20  1  0  0  0  0
  5  9  1  0  0  0  0
  5  6  1  0  0  0  0
  5 21  1  0  0  0  0
  6  7  1  0  0  0  0
  6 22  1  0  0  0  0
  6 23  1  0  0  0  0
  7  8  1  0  0  0  0
  7 24  1  0  0  0  0
  7 25  1  0  0  0  0
  8  9  1  0  0  0  0
  8 26  1  0  0  0  0
  8 27  1  0  0  0  0
  9 10  1  0  0  0  0
  9 28  1  0  0  0  0
 10 29  1  0  0  0  0
 11 12  1  0  0  0  0
 11 30  1  0  0  0  0
 12 17  1  0  0  0  0
 12 13  2  0  0  0  0
 13 14  1  0  0  0  0
 13 31  1  0  0  0  0
 14 15  2  0  0  0  0
 14 32  1  0  0  0  0
 15 16  1  0  0  0  0
 15 33  1  0  0  0  0
 16 17  2  0  0  0  0
 16 34  1  0  0  0  0
M  END
> <s_m_source_file>
AV-unprocessed.smi

> <i_m_source_file_index>
744

> <i_lp_mmshare_version>
43012

> <i_f3d_flags>
0

> <s_epik_input>
bjFbY0hdW2NIXVtjSF1bY0hdYzFbTkhdQyg9TylbTkhdW0NIMl1bQ0BASF0yW0NIMl1bQ0gyXVtDSDJdW0NASF0yW09IXQ==

> <s_epik_cmdline>
J2VwaWtfcHl0aG9uJywgJy1waCcsICc3LjAnLCAnLXRuJywgJzgnLCAnLW1hJywgJzIwMCcsICctbWV0YWxfYmluZGluZycsICctaW1hZScsICc8aW5maWxlLm1hZT4nLCAnLW9tYWUnLCAnPG91dGZpbGUubWFlPic=

> <r_lp_tautomer_probability>
1

> <r_epik_Ionization_Penalty>
5.04769e-05

> <r_epik_Ionization_Penalty_Charging>
0

> <r_epik_Ionization_Penalty_Neutral>
5.04769e-05

> <r_epik_State_Penalty>
-0

> <r_epik_Charging_Adjusted_Penalty>
0

> <i_epik_Tot_Q>
0

> <i_epik_Tot_abs_Q>
0

> <r_epik_Metal_State_Penalty>
-0

> <b_epik_Metal_Only>
0

> <s_lp_Force_Field>
OPLS_2005

> <r_lp_Energy>
24.8684

> <b_lp_Chiralities_Consistent>
1

> <s_lp_Variant>
AV-unprocessed.smi:744-1

> <Gold.Version>
5.8.1

> <Gold.Id.Protein>
6NUR|6NUR_protein|mol2

> <Gold.PLP.Fitness>
43.1712

> <Gold.PLP.PLP>
-31.4816

> <Gold.PLP.part.hbond>
-2.9034

> <Gold.PLP.part.metal>
0.0000

> <Gold.PLP.part.buried>
-1.1193

> <Gold.PLP.part.nonpolar>
-28.7170

> <Gold.PLP.part.repulsive>
2.1784

> <Gold.PLP.ligand.clash>
0.0000

> <Gold.PLP.ligand.torsion>
0.1553

> <Gold.PLP.Chemscore.Hbond>
3.0000

> <Gold.PLP.Chemscore.CHOScore>
1.0000

> <Gold.PLP.Chemscore.Metal>
0.0000

> <Gold.Chemscore.Hbonds>
donor molecule, donor type, donor heavy atom, donor atom, acceptor molecule, acceptor atom, score
      L1  H     3    18       P1  7948  1.00
      L1  H    10    29       P1  7948  1.00
      L1  H    11    30       P1  7948  1.00
      L1  C    16    34       P1 10186  1.00

> <Gold.PLP.Chemscore.Internal.Correction>
0.0003

> <Gold.Rescore>
     Score         DG    S(hbond)    S(metal)    S(lipo)     H(rot)  DE(clash)    DE(int)     intcor
     16.06     -18.80       2.89        0.00      70.94       1.81       0.52       2.22       ----

> <Gold.Chemscore.Fitness>
16.0638

> <Gold.Chemscore.DG>
-18.8035

> <Gold.Chemscore.ZeroCoef>
-5.4800

> <Gold.Chemscore.Hbond>
2.8877

> <Gold.Chemscore.Metal>
0.0000

> <Gold.Chemscore.Lipo>
70.9372

> <Gold.Chemscore.Internal_Hbond>
0.0000

> <Gold.Chemscore.DEClash>
0.5179

> <Gold.Chemscore.DEInternal>
2.2218

> <Gold.Chemscore.Rot>
1.8052

> <Gold.Chemscore.Internal.Correction>
   9.000000E+99

> <Gold.Chemscore.Hbonds>
donor molecule, donor type, donor heavy atom, donor atom, acceptor molecule, acceptor atom, score
      L1  H     3    18       P1  7948  0.92
      L1  H    10    29       P1  7948  0.98
      L1  H    11    30       P1  7948  0.91

> <Gold.Chemscore.Hbond.Weighted>
-9.6451

> <Gold.Chemscore.Metal.Weighted>
-0.0000

> <Gold.Chemscore.Lipo.Weighted>
-8.2996

> <Gold.Chemscore.Internal_Hbond.Weighted>
0.0000

> <Gold.Chemscore.DEClash.Weighted>
0.5179

> <Gold.Chemscore.DEInternal.Weighted>
2.2218

> <Gold.Chemscore.Rot.Weighted>
4.6212

> <Gold.Chemscore.Internal.Correction.Weighted>
   9.000000E+99

> <Gold.Protein.RotatedTorsions>
[ 6907 6896 6895 6894 ] final  -51.63 input  -60.11 | X-H torsion
[ 7974 7965 7964 7962 ] final -106.50 input  175.53 | X-H torsion
[ 8008 7997 7996 7995 ] final  125.98 input   59.86 | X-H torsion
[ 10167 10162 10161 10158 ] final  120.03 input  -65.29 | X-H torsion
[ 10718 10713 10712 10709 ] final   78.45 input   66.30 | X-H torsion
[ 10763 10752 10751 10750 ] final  -73.86 input  -60.55 | X-H torsion
[ 11005 11000 10999 10996 ] final   91.91 input  -57.11 | X-H torsion

> <Gold.Protein.ActiveResidues>
 VAL166  LYS551  ARG553  GLY616  TRP617  ASP618  TYR619  PRO620  LYS621  CYS622 
 ASP623  PHE694  ASN695  SER759  ASP760  ASP761  ALA762  ILE779  LEU786  VAL792 
 PHE793  MET794  SER795  GLU796  ALA797  LYS798  CYS799  TRP800  GLU811  SER814 

> <Gold.Protein.RotatedAtoms>
  150.8593  134.7941  159.7070 H   0  0  0  0  0  0  0  0  0  0  0  0  # atno 6907 bound_to 6896
  152.4635  134.5126  159.9768 H   0  0  0  0  0  0  0  0  0  0  0  0  # atno 6908 bound_to 6896
  151.5233  133.3424  159.2941 H   0  0  0  0  0  0  0  0  0  0  0  0  # atno 6909 bound_to 6896
  145.2171  140.9119  143.3281 H   0  0  0  0  0  0  0  0  0  0  0  0  # atno 7974 bound_to 7965
  156.2850  140.2703  156.2037 H   0  0  0  0  0  0  0  0  0  0  0  0  # atno 8008 bound_to 7997
  155.0335  140.0386  157.2501 H   0  0  0  0  0  0  0  0  0  0  0  0  # atno 8009 bound_to 7997
  154.7335  140.2711  155.6441 H   0  0  0  0  0  0  0  0  0  0  0  0  # atno 8010 bound_to 7997
  139.6008  144.7056  151.3068 H   0  0  0  0  0  0  0  0  0  0  0  0  # atno 10167 bound_to 10162
  157.6745  130.9869  150.1789 H   0  0  0  0  0  0  0  0  0  0  0  0  # atno 10718 bound_to 10713
  154.4653  135.5883  153.6283 H   0  0  0  0  0  0  0  0  0  0  0  0  # atno 10763 bound_to 10752
  152.9828  135.6053  154.3435 H   0  0  0  0  0  0  0  0  0  0  0  0  # atno 10764 bound_to 10752
  154.3311  135.2842  155.2450 H   0  0  0  0  0  0  0  0  0  0  0  0  # atno 10765 bound_to 10752
  139.8831  134.8702  156.3496 H   0  0  0  0  0  0  0  0  0  0  0  0  # atno 11005 bound_to 11000
  144.9801  139.3792  143.6266 LP  0  0  0  0  0  0  0  0  0  0  0  0  # atno 17320 bound_to 7965
  146.3384  139.8938  142.8805 LP  0  0  0  0  0  0  0  0  0  0  0  0  # atno 17321 bound_to 7965
  140.7248  143.7035  150.7826 LP  0  0  0  0  0  0  0  0  0  0  0  0  # atno 17342 bound_to 10162
  140.0611  143.5154  152.2627 LP  0  0  0  0  0  0  0  0  0  0  0  0  # atno 17343 bound_to 10162
  156.2526  130.3702  149.8216 LP  0  0  0  0  0  0  0  0  0  0  0  0  # atno 17370 bound_to 10713
  156.5985  130.8536  151.3426 LP  0  0  0  0  0  0  0  0  0  0  0  0  # atno 17371 bound_to 10713
  140.9603  133.7393  156.0392 LP  0  0  0  0  0  0  0  0  0  0  0  0  # atno 17394 bound_to 11000
  140.7997  134.3523  157.5443 LP  0  0  0  0  0  0  0  0  0  0  0  0  # atno 17395 bound_to 11000

$$$$
