AV-unprocessed.smi:1714|AV-procd|sdf|6907|dock2
  -GOLD-   22720 8113D 1   1.00000     0.00000
 Structure written by MMmdl.
 45 46  0  0  0  0  0  0  0  0  1 V2000
  147.7874  133.0380  152.4871 C   0  0  0  0  0  0  0  0  0  0  0  0
  146.4831  133.1098  151.7092 C   0  0  0  0  0  0  0  0  0  0  0  0
  145.9624  131.9363  151.1236 C   0  0  0  0  0  0  0  0  0  0  0  0
  144.7570  132.0057  150.4044 C   0  0  0  0  0  0  0  0  0  0  0  0
  144.1199  133.2543  150.3002 C   0  0  0  0  0  0  0  0  0  0  0  0
  144.6110  134.3808  150.8558 N   0  0  0  0  0  0  0  0  0  0  0  0
  145.7733  134.3306  151.5534 C   0  0  0  0  0  0  0  0  0  0  0  0
  146.3494  135.4763  152.1700 N   0  0  0  0  0  0  0  0  0  0  0  0
  145.7852  136.3351  153.0367 C   0  0  0  0  0  0  0  0  0  0  0  0
  144.6265  136.2801  153.4493 O   0  0  0  0  0  0  0  0  0  0  0  0
  146.6533  137.2860  153.4027 N   0  0  0  0  0  0  0  0  0  0  0  0
  146.3472  138.3854  154.3118 C   0  0  0  0  0  0  0  0  0  0  0  0
  147.1071  139.6875  153.9302 C   0  0  0  0  0  0  0  0  0  0  0  0
  147.0500  139.8152  152.3889 C   0  0  0  0  0  0  0  0  0  0  0  0
  146.2817  140.8595  154.5202 C   0  0  0  0  0  0  0  0  0  0  0  0
  148.4977  139.6891  154.4665 N   0  0  0  0  0  0  0  0  0  0  0  0
  149.4360  138.8196  153.7469 C   0  0  0  0  0  0  0  0  0  0  0  0
  150.8178  138.7735  154.4210 C   0  0  0  0  0  0  0  0  0  0  0  0
  151.3412  140.0911  154.5318 O   0  0  0  0  0  0  0  0  0  0  0  0
  150.4891  140.9519  155.2770 C   0  0  0  0  0  0  0  0  0  0  0  0
  149.1048  141.0174  154.6097 C   0  0  0  0  0  0  0  0  0  0  0  0
  148.1858  132.0231  152.5027 H   0  0  0  0  0  0  0  0  0  0  0  0
  147.6350  133.3541  153.5195 H   0  0  0  0  0  0  0  0  0  0  0  0
  148.5379  133.6858  152.0330 H   0  0  0  0  0  0  0  0  0  0  0  0
  146.4786  130.9926  151.2227 H   0  0  0  0  0  0  0  0  0  0  0  0
  144.3322  131.1256  149.9448 H   0  0  0  0  0  0  0  0  0  0  0  0
  143.1915  133.3523  149.7571 H   0  0  0  0  0  0  0  0  0  0  0  0
  147.3086  135.6633  151.9190 H   0  0  0  0  0  0  0  0  0  0  0  0
  147.5855  137.2637  153.0155 H   0  0  0  0  0  0  0  0  0  0  0  0
  145.2687  138.5462  154.3272 H   0  0  0  0  0  0  0  0  0  0  0  0
  146.6064  138.0819  155.3279 H   0  0  0  0  0  0  0  0  0  0  0  0
  146.0178  139.8249  152.0365 H   0  0  0  0  0  0  0  0  0  0  0  0
  147.5430  138.9816  151.8890 H   0  0  0  0  0  0  0  0  0  0  0  0
  147.5116  140.7360  152.0326 H   0  0  0  0  0  0  0  0  0  0  0  0
  145.2242  140.7714  154.2680 H   0  0  0  0  0  0  0  0  0  0  0  0
  146.6040  141.8265  154.1347 H   0  0  0  0  0  0  0  0  0  0  0  0
  146.3539  140.8967  155.6079 H   0  0  0  0  0  0  0  0  0  0  0  0
  149.0600  137.7997  153.6940 H   0  0  0  0  0  0  0  0  0  0  0  0
  149.5588  139.1659  152.7206 H   0  0  0  0  0  0  0  0  0  0  0  0
  150.7502  138.3158  155.4093 H   0  0  0  0  0  0  0  0  0  0  0  0
  151.5053  138.1659  153.8326 H   0  0  0  0  0  0  0  0  0  0  0  0
  150.4053  140.5937  156.3044 H   0  0  0  0  0  0  0  0  0  0  0  0
  150.9359  141.9451  155.3199 H   0  0  0  0  0  0  0  0  0  0  0  0
  149.2073  141.4930  153.6343 H   0  0  0  0  0  0  0  0  0  0  0  0
  148.4779  141.6683  155.2163 H   0  0  0  0  0  0  0  0  0  0  0  0
  1  2  1  0  0  0  0
  1 22  1  0  0  0  0
  1 23  1  0  0  0  0
  1 24  1  0  0  0  0
  2  7  1  0  0  0  0
  2  3  2  0  0  0  0
  3  4  1  0  0  0  0
  3 25  1  0  0  0  0
  4  5  2  0  0  0  0
  4 26  1  0  0  0  0
  5  6  1  0  0  0  0
  5 27  1  0  0  0  0
  6  7  2  0  0  0  0
  7  8  1  0  0  0  0
  8  9  1  0  0  0  0
  8 28  1  0  0  0  0
  9 10  2  0  0  0  0
  9 11  1  0  0  0  0
 11 12  1  0  0  0  0
 11 29  1  0  0  0  0
 12 13  1  0  0  0  0
 12 30  1  0  0  0  0
 12 31  1  0  0  0  0
 13 14  1  0  0  0  0
 13 15  1  0  0  0  0
 13 16  1  0  0  0  0
 14 32  1  0  0  0  0
 14 33  1  0  0  0  0
 14 34  1  0  0  0  0
 15 35  1  0  0  0  0
 15 36  1  0  0  0  0
 15 37  1  0  0  0  0
 16 21  1  0  0  0  0
 16 17  1  0  0  0  0
 17 18  1  0  0  0  0
 17 38  1  0  0  0  0
 17 39  1  0  0  0  0
 18 19  1  0  0  0  0
 18 40  1  0  0  0  0
 18 41  1  0  0  0  0
 19 20  1  0  0  0  0
 20 21  1  0  0  0  0
 20 42  1  0  0  0  0
 20 43  1  0  0  0  0
 21 44  1  0  0  0  0
 21 45  1  0  0  0  0
M  END
> <s_m_source_file>
AV-unprocessed.smi

> <i_m_source_file_index>
1714

> <i_lp_mmshare_version>
43012

> <i_f3d_flags>
0

> <s_epik_input>
W0NIM11jMVtjSF1bY0hdW2NIXW5jMVtOSF1DKD1PKVtOSF1bQ0gyXUMoW0NIM10pKFtDSDNdKU4yW0NIMl1bQ0gyXU9bQ0gyXVtDSDJdMg==

> <s_epik_cmdline>
J2VwaWtfcHl0aG9uJywgJy1waCcsICc3LjAnLCAnLXRuJywgJzgnLCAnLW1hJywgJzIwMCcsICctbWV0YWxfYmluZGluZycsICctaW1hZScsICc8aW5maWxlLm1hZT4nLCAnLW9tYWUnLCAnPG91dGZpbGUubWFlPic=

> <r_epik_Ionization_Penalty>
0.26605

> <r_epik_Ionization_Penalty_Charging>
0

> <r_epik_Ionization_Penalty_Neutral>
0.26605

> <r_epik_State_Penalty>
0.257924

> <r_epik_Charging_Adjusted_Penalty>
0.257924

> <i_epik_Tot_Q>
0

> <i_epik_Tot_abs_Q>
0

> <r_epik_Metal_State_Penalty>
0.257922

> <b_epik_Metal_Only>
0

> <s_lp_Force_Field>
OPLS_2005

> <r_lp_Energy>
43.6145

> <b_lp_Chiralities_Consistent>
1

> <s_lp_Variant>
AV-unprocessed.smi:1714-1

> <Gold.Version>
5.8.1

> <Gold.Id.Protein>
6NUR|6NUR_protein|mol2

> <Gold.PLP.Fitness>
42.2457

> <Gold.PLP.PLP>
-33.4221

> <Gold.PLP.part.hbond>
-3.0000

> <Gold.PLP.part.metal>
0.0000

> <Gold.PLP.part.buried>
-1.9403

> <Gold.PLP.part.nonpolar>
-30.5464

> <Gold.PLP.part.repulsive>
0.5045

> <Gold.PLP.ligand.clash>
0.0000

> <Gold.PLP.ligand.torsion>
1.4566

> <Gold.PLP.Chemscore.Hbond>
2.8897

> <Gold.PLP.Chemscore.CHOScore>
1.0000

> <Gold.PLP.Chemscore.Metal>
0.0000

> <Gold.Chemscore.Hbonds>
donor molecule, donor type, donor heavy atom, donor atom, acceptor molecule, acceptor atom, score
      L1  H     8    28       P1  7948  1.00
      L1  H    11    29       P1  7948  0.87
      P1  H  7989  7998       L1    19  0.49
      L1  C     5    27       P1 10186  1.00

> <Gold.PLP.Chemscore.Internal.Correction>
0.0676

> <Gold.Rescore>
     Score         DG    S(hbond)    S(metal)    S(lipo)     H(rot)  DE(clash)    DE(int)     intcor
     17.45     -20.56       2.51        0.00      89.04       1.45       1.33       1.77       ----

> <Gold.Chemscore.Fitness>
17.4527

> <Gold.Chemscore.DG>
-20.5551

> <Gold.Chemscore.ZeroCoef>
-5.4800

> <Gold.Chemscore.Hbond>
2.5057

> <Gold.Chemscore.Metal>
0.0000

> <Gold.Chemscore.Lipo>
89.0388

> <Gold.Chemscore.Internal_Hbond>
0.0000

> <Gold.Chemscore.DEClash>
1.3277

> <Gold.Chemscore.DEInternal>
1.7747

> <Gold.Chemscore.Rot>
1.4498

> <Gold.Chemscore.Internal.Correction>
   9.000000E+99

> <Gold.Chemscore.Hbonds>
donor molecule, donor type, donor heavy atom, donor atom, acceptor molecule, acceptor atom, score
      L1  H     8    28       P1  7948  1.00
      L1  H    11    29       P1  7948  0.81
      P1  H  7989  7998       L1    19  0.14

> <Gold.Chemscore.Hbond.Weighted>
-8.3692

> <Gold.Chemscore.Metal.Weighted>
-0.0000

> <Gold.Chemscore.Lipo.Weighted>
-10.4175

> <Gold.Chemscore.Internal_Hbond.Weighted>
0.0000

> <Gold.Chemscore.DEClash.Weighted>
1.3277

> <Gold.Chemscore.DEInternal.Weighted>
1.7747

> <Gold.Chemscore.Rot.Weighted>
3.7116

> <Gold.Chemscore.Internal.Correction.Weighted>
   9.000000E+99

> <Gold.Protein.RotatedTorsions>
[ 6907 6896 6895 6894 ] final   86.03 input  -60.11 | X-H torsion
[ 7974 7965 7964 7962 ] final  145.47 input  175.53 | X-H torsion
[ 8008 7997 7996 7995 ] final -111.19 input   59.86 | X-H torsion
[ 10167 10162 10161 10158 ] final  125.05 input  -65.29 | X-H torsion
[ 10718 10713 10712 10709 ] final   88.87 input   66.30 | X-H torsion
[ 10763 10752 10751 10750 ] final  164.36 input  -60.55 | X-H torsion
[ 11005 11000 10999 10996 ] final   57.44 input  -57.11 | X-H torsion

> <Gold.Protein.ActiveResidues>
 VAL166  LYS551  ARG553  GLY616  TRP617  ASP618  TYR619  PRO620  LYS621  CYS622 
 ASP623  PHE694  ASN695  SER759  ASP760  ASP761  ALA762  ILE779  LEU786  VAL792 
 PHE793  MET794  SER795  GLU796  ALA797  LYS798  CYS799  TRP800  GLU811  SER814 

> <Gold.Protein.RotatedAtoms>
  152.5386  134.2494  159.8892 H   0  0  0  0  0  0  0  0  0  0  0  0  # atno 6907 bound_to 6896
  151.2458  133.4369  159.2617 H   0  0  0  0  0  0  0  0  0  0  0  0  # atno 6908 bound_to 6896
  151.0584  134.9734  159.8304 H   0  0  0  0  0  0  0  0  0  0  0  0  # atno 6909 bound_to 6896
  144.8750  139.5787  143.5869 H   0  0  0  0  0  0  0  0  0  0  0  0  # atno 7974 bound_to 7965
  154.9860  140.0395  157.2299 H   0  0  0  0  0  0  0  0  0  0  0  0  # atno 8008 bound_to 7997
  154.7671  140.2795  155.6145 H   0  0  0  0  0  0  0  0  0  0  0  0  # atno 8009 bound_to 7997
  156.2914  140.2617  156.2464 H   0  0  0  0  0  0  0  0  0  0  0  0  # atno 8010 bound_to 7997
  139.5707  144.6937  151.3787 H   0  0  0  0  0  0  0  0  0  0  0  0  # atno 10167 bound_to 10162
  157.6952  131.0311  150.3340 H   0  0  0  0  0  0  0  0  0  0  0  0  # atno 10718 bound_to 10713
  154.3078  135.2758  155.2580 H   0  0  0  0  0  0  0  0  0  0  0  0  # atno 10763 bound_to 10752
  154.4989  135.5813  153.6519 H   0  0  0  0  0  0  0  0  0  0  0  0  # atno 10764 bound_to 10752
  152.9892  135.6153  154.3253 H   0  0  0  0  0  0  0  0  0  0  0  0  # atno 10765 bound_to 10752
  140.0452  134.5816  155.9331 H   0  0  0  0  0  0  0  0  0  0  0  0  # atno 11005 bound_to 11000
  146.2956  139.7269  142.9129 LP  0  0  0  0  0  0  0  0  0  0  0  0  # atno 17320 bound_to 7965
  145.4060  141.0391  143.3044 LP  0  0  0  0  0  0  0  0  0  0  0  0  # atno 17321 bound_to 7965
  140.6991  143.7676  150.7374 LP  0  0  0  0  0  0  0  0  0  0  0  0  # atno 17342 bound_to 10162
  140.1181  143.4637  152.2330 LP  0  0  0  0  0  0  0  0  0  0  0  0  # atno 17343 bound_to 10162
  156.3810  130.3880  149.7102 LP  0  0  0  0  0  0  0  0  0  0  0  0  # atno 17370 bound_to 10713
  156.4484  130.7895  151.2916 LP  0  0  0  0  0  0  0  0  0  0  0  0  # atno 17371 bound_to 10713
  141.1903  133.6568  156.5407 LP  0  0  0  0  0  0  0  0  0  0  0  0  # atno 17394 bound_to 11000
  140.4005  134.7361  157.4776 LP  0  0  0  0  0  0  0  0  0  0  0  0  # atno 17395 bound_to 11000

$$$$
