AV-unprocessed.smi:512|AV-procd|sdf|2768|dock2
  -GOLD-   2262023233D 1   1.00000     0.00000
 Structure written by MMmdl.
 49 51  0  0  0  0  0  0  0  0  2 V2000
  150.6926  129.7242  154.3574 C   0  0  0  0  0  0  0  0  0  0  0  0
  149.7190  130.9020  154.2748 C   0  0  0  0  0  0  0  0  0  0  0  0
  150.3224  132.0278  154.8858 O   0  0  0  0  0  0  0  0  0  0  0  0
  149.7815  133.2610  154.4402 C   0  0  0  0  0  0  0  0  0  0  0  0
  148.9298  133.8693  155.5628 C   0  0  0  0  0  0  0  0  0  0  0  0
  148.4610  135.2093  155.2157 N   0  0  0  0  0  0  0  0  0  0  0  0
  147.2065  135.6104  154.8758 C   0  0  0  0  0  0  0  0  0  0  0  0
  146.1294  134.7255  154.8610 N   0  0  0  0  0  0  0  0  0  0  0  0
  144.7234  135.1128  154.9462 C   0  0  0  0  0  0  0  0  0  0  0  0
  144.0270  135.0024  153.5769 C   0  0  0  0  0  0  0  0  0  0  0  0
  144.1662  133.6366  153.0173 N   0  3  0  0  0  0  0  0  0  0  0  0
  143.4993  133.4870  151.7065 C   0  0  0  0  0  0  0  0  0  0  0  0
  145.5801  133.1934  152.9923 C   0  0  0  0  0  0  0  0  0  0  0  0
  146.2205  133.3501  154.3819 C   0  0  0  0  0  0  0  0  0  0  0  0
  147.1049  136.8956  154.5268 N   0  0  0  0  0  0  0  0  0  0  0  0
  148.4024  137.3621  154.6772 C   0  0  0  0  0  0  0  0  0  0  0  0
  149.2299  136.3659  155.0840 C   0  0  0  0  0  0  0  0  0  0  0  0
  150.6694  136.5718  155.2900 C   0  0  0  0  0  0  0  0  0  0  0  0
  151.4392  135.6783  155.6358 O   0  0  0  0  0  0  0  0  0  0  0  0
  151.0622  137.8477  155.0566 N   0  0  0  0  0  0  0  0  0  0  0  0
  150.2821  138.8982  154.6570 C   0  0  0  0  0  0  0  0  0  0  0  0
  150.7846  140.0095  154.4917 O   0  0  0  0  0  0  0  0  0  0  0  0
  148.9465  138.6593  154.4547 N   0  0  0  0  0  0  0  0  0  0  0  0
  148.0654  139.7449  154.0208 C   0  0  0  0  0  0  0  0  0  0  0  0
  152.0431  138.0454  155.1908 H   0  0  0  0  0  0  0  0  0  0  0  0
  150.2662  128.8321  153.8982 H   0  0  0  0  0  0  0  0  0  0  0  0
  150.9307  129.4863  155.3943 H   0  0  0  0  0  0  0  0  0  0  0  0
  151.6264  129.9524  153.8432 H   0  0  0  0  0  0  0  0  0  0  0  0
  149.4817  131.1202  153.2326 H   0  0  0  0  0  0  0  0  0  0  0  0
  148.7867  130.6515  154.7830 H   0  0  0  0  0  0  0  0  0  0  0  0
  150.5853  133.9464  154.1684 H   0  0  0  0  0  0  0  0  0  0  0  0
  149.1700  133.1032  153.5504 H   0  0  0  0  0  0  0  0  0  0  0  0
  148.0851  133.2169  155.7682 H   0  0  0  0  0  0  0  0  0  0  0  0
  149.4934  133.9137  156.4936 H   0  0  0  0  0  0  0  0  0  0  0  0
  144.2202  134.4867  155.6842 H   0  0  0  0  0  0  0  0  0  0  0  0
  144.6423  136.1417  155.2962 H   0  0  0  0  0  0  0  0  0  0  0  0
  142.9702  135.2526  153.6769 H   0  0  0  0  0  0  0  0  0  0  0  0
  144.4616  135.7243  152.8830 H   0  0  0  0  0  0  0  0  0  0  0  0
  143.9627  134.1283  150.9558 H   0  0  0  0  0  0  0  0  0  0  0  0
  142.4442  133.7525  151.7801 H   0  0  0  0  0  0  0  0  0  0  0  0
  143.5599  132.4549  151.3597 H   0  0  0  0  0  0  0  0  0  0  0  0
  145.6327  132.1513  152.6754 H   0  0  0  0  0  0  0  0  0  0  0  0
  146.1351  133.7801  152.2583 H   0  0  0  0  0  0  0  0  0  0  0  0
  147.2673  133.0459  154.3464 H   0  0  0  0  0  0  0  0  0  0  0  0
  145.7334  132.6902  155.1011 H   0  0  0  0  0  0  0  0  0  0  0  0
  147.9692  140.4919  154.8096 H   0  0  0  0  0  0  0  0  0  0  0  0
  147.0629  139.3968  153.7726 H   0  0  0  0  0  0  0  0  0  0  0  0
  148.4634  140.2367  153.1321 H   0  0  0  0  0  0  0  0  0  0  0  0
  143.6881  133.0183  153.6572 H   0  0  0  0  0  0  0  0  0  0  0  0
  1  2  1  0  0  0  0
  1 26  1  0  0  0  0
  1 27  1  0  0  0  0
  1 28  1  0  0  0  0
  2  3  1  0  0  0  0
  2 29  1  0  0  0  0
  2 30  1  0  0  0  0
  3  4  1  0  0  0  0
  4  5  1  0  0  0  0
  4 31  1  0  0  0  0
  4 32  1  0  0  0  0
  5  6  1  0  0  0  0
  5 33  1  0  0  0  0
  5 34  1  0  0  0  0
  6 17  1  0  0  0  0
  6  7  1  0  0  0  0
  7  8  1  0  0  0  0
  7 15  2  0  0  0  0
  8 14  1  0  0  0  0
  8  9  1  0  0  0  0
  9 10  1  0  0  0  0
  9 35  1  0  0  0  0
  9 36  1  0  0  0  0
 10 11  1  0  0  0  0
 10 37  1  0  0  0  0
 10 38  1  0  0  0  0
 11 12  1  0  0  0  0
 11 13  1  0  0  0  0
 11 49  1  0  0  0  0
 12 39  1  0  0  0  0
 12 40  1  0  0  0  0
 12 41  1  0  0  0  0
 13 14  1  0  0  0  0
 13 42  1  0  0  0  0
 13 43  1  0  0  0  0
 14 44  1  0  0  0  0
 14 45  1  0  0  0  0
 15 16  1  0  0  0  0
 16 23  1  0  0  0  0
 16 17  2  0  0  0  0
 17 18  1  0  0  0  0
 18 19  2  0  0  0  0
 18 20  1  0  0  0  0
 20 25  1  0  0  0  0
 20 21  1  0  0  0  0
 21 22  2  0  0  0  0
 21 23  1  0  0  0  0
 23 24  1  0  0  0  0
 24 46  1  0  0  0  0
 24 47  1  0  0  0  0
 24 48  1  0  0  0  0
M  CHG  1  11   1
M  END
> <s_m_source_file>
AV-unprocessed.smi

> <i_m_source_file_index>
512

> <i_lp_mmshare_version>
43012

> <i_f3d_flags>
0

> <s_epik_input>
W0NIM11uMWMoPU8pW25IXWMoPU8pYyhjMTIpbihbQ0gyXVtDSDJdT1tDSDJdW0NIM10pYyhuMilOM1tDSDJdW0NIMl1OKFtDSDNdKVtDSDJdW0NIMl0z

> <s_epik_cmdline>
J2VwaWtfcHl0aG9uJywgJy1waCcsICc3LjAnLCAnLXRuJywgJzgnLCAnLW1hJywgJzIwMCcsICctbWV0YWxfYmluZGluZycsICctaW1hZScsICc8aW5maWxlLm1hZT4nLCAnLW9tYWUnLCAnPG91dGZpbGUubWFlPic=

> <r_epik_Ionization_Penalty>
0.06478

> <r_epik_Ionization_Penalty_Charging>
0.0647782

> <r_epik_Ionization_Penalty_Neutral>
1.82007e-06

> <r_epik_State_Penalty>
0.0564218

> <r_epik_Charging_Adjusted_Penalty>
0.1212

> <i_epik_Tot_Q>
1

> <i_epik_Tot_abs_Q>
1

> <r_epik_Metal_State_Penalty>
0.0827594

> <b_epik_Metal_Only>
0

> <s_lp_Force_Field>
OPLS_2005

> <r_lp_Energy>
46.3907

> <b_lp_Chiralities_Consistent>
1

> <s_lp_Variant>
AV-unprocessed.smi:512-1

> <Gold.Version>
5.8.1

> <Gold.Id.Protein>
6NUR|6NUR_protein|mol2

> <Gold.PLP.Fitness>
37.8535

> <Gold.PLP.PLP>
-27.1140

> <Gold.PLP.part.hbond>
-3.0000

> <Gold.PLP.part.metal>
0.0000

> <Gold.PLP.part.buried>
-4.0760

> <Gold.PLP.part.nonpolar>
-20.6541

> <Gold.PLP.part.repulsive>
0.3324

> <Gold.PLP.ligand.clash>
0.0000

> <Gold.PLP.ligand.torsion>
0.9961

> <Gold.PLP.Chemscore.Hbond>
4.0000

> <Gold.PLP.Chemscore.CHOScore>
0.0000

> <Gold.PLP.Chemscore.Metal>
0.0000

> <Gold.Chemscore.Hbonds>
donor molecule, donor type, donor heavy atom, donor atom, acceptor molecule, acceptor atom, score
      L1  H    11    49       P1 10957  2.00
      P1  H  7989  7998       L1    22  1.00
      P1  H 10752 10765       L1    19  1.00

> <Gold.PLP.Chemscore.Internal.Correction>
0.7316

> <Gold.Rescore>
     Score         DG    S(hbond)    S(metal)    S(lipo)     H(rot)  DE(clash)    DE(int)     intcor
     15.32     -16.55       2.96        0.00      46.43       1.66       0.02       1.21       ----

> <Gold.Chemscore.Fitness>
15.3181

> <Gold.Chemscore.DG>
-16.5459

> <Gold.Chemscore.ZeroCoef>
-5.4800

> <Gold.Chemscore.Hbond>
2.9573

> <Gold.Chemscore.Metal>
0.0000

> <Gold.Chemscore.Lipo>
46.4339

> <Gold.Chemscore.Internal_Hbond>
0.0000

> <Gold.Chemscore.DEClash>
0.0166

> <Gold.Chemscore.DEInternal>
1.2112

> <Gold.Chemscore.Rot>
1.6579

> <Gold.Chemscore.Internal.Correction>
   9.000000E+99

> <Gold.Chemscore.Hbonds>
donor molecule, donor type, donor heavy atom, donor atom, acceptor molecule, acceptor atom, score
      L1  H    11    49       P1 10957  0.91
      P1  H  7989  7998       L1    22  0.96
      P1  H 10752 10765       L1    19  0.97

> <Gold.Chemscore.Hbond.Weighted>
-9.8773

> <Gold.Chemscore.Metal.Weighted>
-0.0000

> <Gold.Chemscore.Lipo.Weighted>
-5.4328

> <Gold.Chemscore.Internal_Hbond.Weighted>
0.0000

> <Gold.Chemscore.DEClash.Weighted>
0.0166

> <Gold.Chemscore.DEInternal.Weighted>
1.2112

> <Gold.Chemscore.Rot.Weighted>
4.2442

> <Gold.Chemscore.Internal.Correction.Weighted>
   9.000000E+99

> <Gold.Protein.RotatedTorsions>
[ 6907 6896 6895 6894 ] final -128.14 input  -60.11 | X-H torsion
[ 7974 7965 7964 7962 ] final -122.03 input  175.53 | X-H torsion
[ 8008 7997 7996 7995 ] final  166.57 input   59.86 | X-H torsion
[ 10167 10162 10161 10158 ] final -111.27 input  -65.29 | X-H torsion
[ 10718 10713 10712 10709 ] final  127.91 input   66.30 | X-H torsion
[ 10763 10752 10751 10750 ] final -167.91 input  -60.55 | X-H torsion
[ 11005 11000 10999 10996 ] final   22.66 input  -57.11 | X-H torsion

> <Gold.Protein.ActiveResidues>
 VAL166  LYS551  ARG553  GLY616  TRP617  ASP618  TYR619  PRO620  LYS621  CYS622 
 ASP623  PHE694  ASN695  SER759  ASP760  ASP761  ALA762  ILE779  LEU786  VAL792 
 PHE793  MET794  SER795  GLU796  ALA797  LYS798  CYS799  TRP800  GLU811  SER814 

> <Gold.Protein.RotatedAtoms>
  150.9147  133.6953  159.2845 H   0  0  0  0  0  0  0  0  0  0  0  0  # atno 6907 bound_to 6896
  151.4428  135.1020  159.9685 H   0  0  0  0  0  0  0  0  0  0  0  0  # atno 6908 bound_to 6896
  152.4949  133.8552  159.7277 H   0  0  0  0  0  0  0  0  0  0  0  0  # atno 6909 bound_to 6896
  145.0339  140.8090  143.4307 H   0  0  0  0  0  0  0  0  0  0  0  0  # atno 7974 bound_to 7965
  156.1707  140.1640  156.8452 H   0  0  0  0  0  0  0  0  0  0  0  0  # atno 8008 bound_to 7997
  154.5254  140.0769  156.8283 H   0  0  0  0  0  0  0  0  0  0  0  0  # atno 8009 bound_to 7997
  155.3518  140.3390  155.4241 H   0  0  0  0  0  0  0  0  0  0  0  0  # atno 8010 bound_to 7997
  140.1354  143.4324  152.1599 H   0  0  0  0  0  0  0  0  0  0  0  0  # atno 10167 bound_to 10162
  157.5291  131.1098  150.9036 H   0  0  0  0  0  0  0  0  0  0  0  0  # atno 10718 bound_to 10713
  154.6683  135.2935  154.9776 H   0  0  0  0  0  0  0  0  0  0  0  0  # atno 10763 bound_to 10752
  154.0812  135.6604  153.4842 H   0  0  0  0  0  0  0  0  0  0  0  0  # atno 10764 bound_to 10752
  153.0471  135.5198  154.7667 H   0  0  0  0  0  0  0  0  0  0  0  0  # atno 10765 bound_to 10752
  140.3781  134.1950  155.7664 H   0  0  0  0  0  0  0  0  0  0  0  0  # atno 11005 bound_to 11000
  145.1735  139.2391  143.5329 LP  0  0  0  0  0  0  0  0  0  0  0  0  # atno 17320 bound_to 7965
  146.3502  140.1492  142.8593 LP  0  0  0  0  0  0  0  0  0  0  0  0  # atno 17321 bound_to 7965
  139.5498  144.7329  151.4469 LP  0  0  0  0  0  0  0  0  0  0  0  0  # atno 17342 bound_to 10162
  140.6792  143.8120  150.7099 LP  0  0  0  0  0  0  0  0  0  0  0  0  # atno 17343 bound_to 10162
  156.9623  130.5460  149.5286 LP  0  0  0  0  0  0  0  0  0  0  0  0  # atno 17370 bound_to 10713
  156.0409  130.5492  150.8768 LP  0  0  0  0  0  0  0  0  0  0  0  0  # atno 17371 bound_to 10713
  141.1932  133.8155  157.0806 LP  0  0  0  0  0  0  0  0  0  0  0  0  # atno 17394 bound_to 11000
  140.0499  134.9811  157.1118 LP  0  0  0  0  0  0  0  0  0  0  0  0  # atno 17395 bound_to 11000

$$$$
