AV-unprocessed.smi:2605|AV-procd|sdf|10194|dock5
  -GOLD-   2272014203D 1   1.00000     0.00000
 Structure written by MMmdl.
 26 27  0  0  0  0  0  0  0  0  2 V2000
  145.2298  131.8493  148.9761 C   0  0  0  0  0  0  0  0  0  0  0  0
  146.2619  132.3208  149.8121 C   0  0  0  0  0  0  0  0  0  0  0  0
  145.9124  133.0110  150.9914 C   0  0  0  0  0  0  0  0  0  0  0  0
  146.9940  133.5439  151.9177 C   0  0  1  0  0  0  0  0  0  0  0  0
  146.3897  134.4155  153.0421 C   0  0  0  0  0  0  0  0  0  0  0  0
  147.4573  134.9575  153.9078 N   0  3  0  0  0  0  0  0  0  0  0  0
  148.3045  133.8762  154.4485 C   0  0  0  0  0  0  0  0  0  0  0  0
  148.8748  133.0287  153.2969 C   0  0  0  0  0  0  0  0  0  0  0  0
  147.7815  132.4638  152.5122 N   0  0  0  0  0  0  0  0  0  0  0  0
  144.5426  133.2025  151.2754 C   0  0  0  0  0  0  0  0  0  0  0  0
  143.5891  132.6905  150.3729 C   0  0  0  0  0  0  0  0  0  0  0  0
  143.9186  132.0269  149.2444 N   0  0  0  0  0  0  0  0  0  0  0  0
  145.4644  131.3155  148.0670 H   0  0  0  0  0  0  0  0  0  0  0  0
  147.2960  132.1520  149.5494 H   0  0  0  0  0  0  0  0  0  0  0  0
  147.6677  134.1561  151.3156 H   0  0  0  0  0  0  0  0  0  0  0  0
  145.8286  135.2486  152.6177 H   0  0  0  0  0  0  0  0  0  0  0  0
  145.6917  133.8375  153.6501 H   0  0  0  0  0  0  0  0  0  0  0  0
  148.0354  135.5783  153.3599 H   0  0  0  0  0  0  0  0  0  0  0  0
  149.1128  134.3152  155.0336 H   0  0  0  0  0  0  0  0  0  0  0  0
  147.7168  133.2562  155.1274 H   0  0  0  0  0  0  0  0  0  0  0  0
  149.5248  133.6266  152.6563 H   0  0  0  0  0  0  0  0  0  0  0  0
  149.4803  132.2144  153.6957 H   0  0  0  0  0  0  0  0  0  0  0  0
  148.1514  131.8734  151.7799 H   0  0  0  0  0  0  0  0  0  0  0  0
  144.2245  133.7282  152.1638 H   0  0  0  0  0  0  0  0  0  0  0  0
  142.5337  132.8187  150.5624 H   0  0  0  0  0  0  0  0  0  0  0  0
  147.0431  135.4751  154.6697 H   0  0  0  0  0  0  0  0  0  0  0  0
  1 12  1  0  0  0  0
  1  2  2  0  0  0  0
  1 13  1  0  0  0  0
  2  3  1  0  0  0  0
  2 14  1  0  0  0  0
  3  4  1  0  0  0  0
  3 10  2  0  0  0  0
  4  9  1  0  0  0  0
  4  5  1  0  0  0  0
  4 15  1  0  0  0  0
  5  6  1  0  0  0  0
  5 16  1  0  0  0  0
  5 17  1  0  0  0  0
  6  7  1  0  0  0  0
  6 18  1  0  0  0  0
  6 26  1  0  0  0  0
  7  8  1  0  0  0  0
  7 19  1  0  0  0  0
  7 20  1  0  0  0  0
  8  9  1  0  0  0  0
  8 21  1  0  0  0  0
  8 22  1  0  0  0  0
  9 23  1  0  0  0  0
 10 11  1  0  0  0  0
 10 24  1  0  0  0  0
 11 12  2  0  0  0  0
 11 25  1  0  0  0  0
M  CHG  1   6   1
M  END
> <s_m_source_file>
AV-unprocessed.smi

> <i_m_source_file_index>
2605

> <i_lp_mmshare_version>
43012

> <i_f3d_flags>
0

> <s_epik_input>
W2NIXTFbY0hdbltjSF1bY0hdYzFbQ0BASF0yW0NIMl1bTkhdW0NIMl1bQ0gyXVtOSF0y

> <s_epik_cmdline>
J2VwaWtfcHl0aG9uJywgJy1waCcsICc3LjAnLCAnLXRuJywgJzgnLCAnLW1hJywgJzIwMCcsICctbWV0YWxfYmluZGluZycsICctaW1hZScsICc8aW5maWxlLm1hZT4nLCAnLW9tYWUnLCAnPG91dGZpbGUubWFlPic=

> <r_epik_Ionization_Penalty>
0.0197506

> <r_epik_Ionization_Penalty_Charging>
0.010317

> <r_epik_Ionization_Penalty_Neutral>
0.00943359

> <r_epik_State_Penalty>
0.319455

> <r_epik_Charging_Adjusted_Penalty>
0.329772

> <i_epik_Tot_Q>
1

> <i_epik_Tot_abs_Q>
1

> <r_epik_Metal_State_Penalty>
0.318246

> <b_epik_Metal_Only>
0

> <s_lp_Force_Field>
OPLS_2005

> <r_lp_Energy>
9.79217

> <b_lp_Chiralities_Consistent>
1

> <s_lp_Variant>
AV-unprocessed.smi:2605-2

> <Gold.Version>
5.8.1

> <Gold.Id.Protein>
6NUR|6NUR_protein|mol2

> <Gold.PLP.Fitness>
37.0376

> <Gold.PLP.PLP>
-23.3497

> <Gold.PLP.part.hbond>
-3.0000

> <Gold.PLP.part.metal>
0.0000

> <Gold.PLP.part.buried>
-1.3481

> <Gold.PLP.part.nonpolar>
-19.6985

> <Gold.PLP.part.repulsive>
0.2274

> <Gold.PLP.ligand.clash>
0.0000

> <Gold.PLP.ligand.torsion>
0.0649

> <Gold.PLP.Chemscore.Hbond>
3.6864

> <Gold.PLP.Chemscore.CHOScore>
0.9170

> <Gold.PLP.Chemscore.Metal>
0.0000

> <Gold.Chemscore.Hbonds>
donor molecule, donor type, donor heavy atom, donor atom, acceptor molecule, acceptor atom, score
      L1  H     6    18       P1  7948  2.00
      L1  H     9    23       P1 10747  1.00
      P1  H 10785 10796       L1    12  0.64
      L1  C    11    25       P1 10186  0.98

> <Gold.PLP.Chemscore.Internal.Correction>
0.0074

> <Gold.Rescore>
     Score         DG    S(hbond)    S(metal)    S(lipo)     H(rot)  DE(clash)    DE(int)     intcor
     18.33     -19.44       2.41        0.00      72.45       1.00       1.05       0.07       ----

> <Gold.Chemscore.Fitness>
18.3273

> <Gold.Chemscore.DG>
-19.4420

> <Gold.Chemscore.ZeroCoef>
-5.4800

> <Gold.Chemscore.Hbond>
2.4087

> <Gold.Chemscore.Metal>
0.0000

> <Gold.Chemscore.Lipo>
72.4510

> <Gold.Chemscore.Internal_Hbond>
0.0000

> <Gold.Chemscore.DEClash>
1.0476

> <Gold.Chemscore.DEInternal>
0.0670

> <Gold.Chemscore.Rot>
1.0000

> <Gold.Chemscore.Internal.Correction>
   9.000000E+99

> <Gold.Chemscore.Hbonds>
donor molecule, donor type, donor heavy atom, donor atom, acceptor molecule, acceptor atom, score
      L1  H     6    18       P1  7948  0.99
      L1  H     9    23       P1 10747  0.97
      P1  H 10785 10796       L1    12  0.14

> <Gold.Chemscore.Hbond.Weighted>
-8.0452

> <Gold.Chemscore.Metal.Weighted>
-0.0000

> <Gold.Chemscore.Lipo.Weighted>
-8.4768

> <Gold.Chemscore.Internal_Hbond.Weighted>
0.0000

> <Gold.Chemscore.DEClash.Weighted>
1.0476

> <Gold.Chemscore.DEInternal.Weighted>
0.0670

> <Gold.Chemscore.Rot.Weighted>
2.5600

> <Gold.Chemscore.Internal.Correction.Weighted>
   9.000000E+99

> <Gold.Protein.RotatedTorsions>
[ 6907 6896 6895 6894 ] final  169.83 input  -60.11 | X-H torsion
[ 7974 7965 7964 7962 ] final   -6.81 input  175.53 | X-H torsion
[ 8008 7997 7996 7995 ] final   43.13 input   59.86 | X-H torsion
[ 10167 10162 10161 10158 ] final  171.91 input  -65.29 | X-H torsion
[ 10718 10713 10712 10709 ] final  -38.69 input   66.30 | X-H torsion
[ 10763 10752 10751 10750 ] final   -0.72 input  -60.55 | X-H torsion
[ 11005 11000 10999 10996 ] final   30.58 input  -57.11 | X-H torsion

> <Gold.Protein.ActiveResidues>
 VAL166  LYS551  ARG553  GLY616  TRP617  ASP618  TYR619  PRO620  LYS621  CYS622 
 ASP623  PHE694  ASN695  SER759  ASP760  ASP761  ALA762  ILE779  LEU786  VAL792 
 PHE793  MET794  SER795  GLU796  ALA797  LYS798  CYS799  TRP800  GLU811  SER814 

> <Gold.Protein.RotatedAtoms>
  151.8257  133.3401  159.3597 H   0  0  0  0  0  0  0  0  0  0  0  0  # atno 6907 bound_to 6896
  150.7280  134.5531  159.5814 H   0  0  0  0  0  0  0  0  0  0  0  0  # atno 6908 bound_to 6896
  152.2973  134.7653  160.0416 H   0  0  0  0  0  0  0  0  0  0  0  0  # atno 6909 bound_to 6896
  146.2322  140.2226  142.8338 H   0  0  0  0  0  0  0  0  0  0  0  0  # atno 7974 bound_to 7965
  155.2976  140.3383  155.4249 H   0  0  0  0  0  0  0  0  0  0  0  0  # atno 8008 bound_to 7997
  156.2016  140.1735  156.7926 H   0  0  0  0  0  0  0  0  0  0  0  0  # atno 8009 bound_to 7997
  154.5567  140.0695  156.8738 H   0  0  0  0  0  0  0  0  0  0  0  0  # atno 8010 bound_to 7997
  139.5060  144.3433  151.9996 H   0  0  0  0  0  0  0  0  0  0  0  0  # atno 10167 bound_to 10162
  156.3009  130.4240  149.8144 H   0  0  0  0  0  0  0  0  0  0  0  0  # atno 10718 bound_to 10713
  153.3355  135.6977  153.6911 H   0  0  0  0  0  0  0  0  0  0  0  0  # atno 10763 bound_to 10752
  153.5696  135.3519  155.2833 H   0  0  0  0  0  0  0  0  0  0  0  0  # atno 10764 bound_to 10752
  154.8626  135.4269  154.2555 H   0  0  0  0  0  0  0  0  0  0  0  0  # atno 10765 bound_to 10752
  140.2929  134.2844  155.7772 H   0  0  0  0  0  0  0  0  0  0  0  0  # atno 11005 bound_to 11000
  144.9620  140.8284  143.5508 LP  0  0  0  0  0  0  0  0  0  0  0  0  # atno 17320 bound_to 7965
  145.2198  139.2164  143.5099 LP  0  0  0  0  0  0  0  0  0  0  0  0  # atno 17321 bound_to 7965
  140.2871  144.3795  150.6100 LP  0  0  0  0  0  0  0  0  0  0  0  0  # atno 17342 bound_to 10162
  140.5975  143.2167  151.7136 LP  0  0  0  0  0  0  0  0  0  0  0  0  # atno 17343 bound_to 10162
  156.5523  130.8347  151.3303 LP  0  0  0  0  0  0  0  0  0  0  0  0  # atno 17370 bound_to 10713
  157.7367  130.9784  150.2154 LP  0  0  0  0  0  0  0  0  0  0  0  0  # atno 17371 bound_to 10713
  141.2143  133.7596  156.9651 LP  0  0  0  0  0  0  0  0  0  0  0  0  # atno 17394 bound_to 11000
  140.1179  134.9435  157.2161 LP  0  0  0  0  0  0  0  0  0  0  0  0  # atno 17395 bound_to 11000

$$$$
