AV-unprocessed.smi:109|AV-procd|sdf|1061|dock2
  -GOLD-   2262018133D 1   1.00000     0.00000
 Structure written by MMmdl.
 58 61  0  0  0  0  0  0  0  0  1 V2000
  149.3738  139.8899  153.9672 O   0  0  0  0  0  0  0  0  0  0  0  0
  149.2311  141.0617  154.7407 C   0  0  0  0  0  0  0  0  0  0  0  0
  150.4687  141.2494  155.6353 C   0  0  0  0  0  0  0  0  0  0  0  0
  150.1351  141.5704  157.1124 C   0  0  2  0  0  0  0  0  0  0  0  0
  148.9543  142.4362  157.1630 N   0  0  0  0  0  0  0  0  0  0  0  0
  147.7835  142.0320  157.7051 C   0  0  0  0  0  0  0  0  0  0  0  0
  147.1930  140.8659  157.3362 N   0  0  0  0  0  0  0  0  0  0  0  0
  146.0358  140.4961  157.8923 C   0  0  0  0  0  0  0  0  0  0  0  0
  145.3141  141.1326  158.8169 N   0  0  0  0  0  0  0  0  0  0  0  0
  145.9001  142.3068  159.1897 C   0  0  0  0  0  0  0  0  0  0  0  0
  147.1271  142.8207  158.6851 C   0  0  0  0  0  0  0  0  0  0  0  0
  147.4134  144.0361  159.2928 N   0  0  0  0  0  0  0  0  0  0  0  0
  146.4085  144.2277  160.1046 C   0  0  0  0  0  0  0  0  0  0  0  0
  145.4539  143.2349  160.1088 N   0  0  0  0  0  0  0  0  0  0  0  0
  144.2005  143.1837  160.9195 C   0  0  1  0  0  0  0  0  0  0  0  0
  143.7774  144.4909  161.1396 O   0  0  0  0  0  0  0  0  0  0  0  0
  142.3502  144.5617  161.1793 C   0  0  1  0  0  0  0  0  0  0  0  0
  141.8868  145.6404  160.1854 C   0  0  0  0  0  0  0  0  0  0  0  0
  142.4429  146.8912  160.5302 O   0  0  0  0  0  0  0  0  0  0  0  0
  141.8528  143.1532  160.7981 C   0  0  2  0  0  0  0  0  0  0  0  0
  141.4232  142.4901  161.9761 O   0  0  0  0  0  0  0  0  0  0  0  0
  143.0725  142.4906  160.1634 C   0  0  2  0  0  0  0  0  0  0  0  0
  143.0649  141.0850  160.3294 O   0  0  0  0  0  0  0  0  0  0  0  0
  151.3042  142.2433  157.8873 C   0  0  0  0  0  0  0  0  0  0  0  0
  151.1829  142.0964  159.4252 C   0  0  0  0  0  0  0  0  0  0  0  0
  152.3205  142.8075  160.1763 C   0  0  0  0  0  0  0  0  0  0  0  0
  152.4030  144.2907  159.7970 C   0  0  0  0  0  0  0  0  0  0  0  0
  152.5556  144.4509  158.2799 C   0  0  0  0  0  0  0  0  0  0  0  0
  151.4127  143.7482  157.5308 C   0  0  0  0  0  0  0  0  0  0  0  0
  144.4642  142.7027  161.8628 H   0  0  0  0  0  0  0  0  0  0  0  0
  142.0219  144.8265  162.1863 H   0  0  0  0  0  0  0  0  0  0  0  0
  141.0102  143.1766  160.1061 H   0  0  0  0  0  0  0  0  0  0  0  0
  143.1222  142.7489  159.1053 H   0  0  0  0  0  0  0  0  0  0  0  0
  149.4582  140.1379  153.0592 H   0  0  0  0  0  0  0  0  0  0  0  0
  149.0983  141.9067  154.0653 H   0  0  0  0  0  0  0  0  0  0  0  0
  148.3277  140.9799  155.3456 H   0  0  0  0  0  0  0  0  0  0  0  0
  151.0397  140.3242  155.5775 H   0  0  0  0  0  0  0  0  0  0  0  0
  151.1067  142.0324  155.2231 H   0  0  0  0  0  0  0  0  0  0  0  0
  149.9434  140.6209  157.6110 H   0  0  0  0  0  0  0  0  0  0  0  0
  149.0525  143.3245  156.6928 H   0  0  0  0  0  0  0  0  0  0  0  0
  145.6305  139.5561  157.5478 H   0  0  0  0  0  0  0  0  0  0  0  0
  146.3363  145.1064  160.7291 H   0  0  0  0  0  0  0  0  0  0  0  0
  142.1415  145.3808  159.1590 H   0  0  0  0  0  0  0  0  0  0  0  0
  140.8027  145.7495  160.2280 H   0  0  0  0  0  0  0  0  0  0  0  0
  141.7797  147.5553  160.4202 H   0  0  0  0  0  0  0  0  0  0  0  0
  140.5187  142.2400  161.8679 H   0  0  0  0  0  0  0  0  0  0  0  0
  142.4480  140.8679  161.0115 H   0  0  0  0  0  0  0  0  0  0  0  0
  152.2335  141.7584  157.5837 H   0  0  0  0  0  0  0  0  0  0  0  0
  150.2222  142.4917  159.7579 H   0  0  0  0  0  0  0  0  0  0  0  0
  151.2075  141.0478  159.7177 H   0  0  0  0  0  0  0  0  0  0  0  0
  152.1732  142.7081  161.2520 H   0  0  0  0  0  0  0  0  0  0  0  0
  153.2689  142.3190  159.9487 H   0  0  0  0  0  0  0  0  0  0  0  0
  151.5031  144.8072  160.1335 H   0  0  0  0  0  0  0  0  0  0  0  0
  153.2421  144.7618  160.3095 H   0  0  0  0  0  0  0  0  0  0  0  0
  152.5746  145.5094  158.0192 H   0  0  0  0  0  0  0  0  0  0  0  0
  153.5125  144.0363  157.9603 H   0  0  0  0  0  0  0  0  0  0  0  0
  151.5731  143.8818  156.4609 H   0  0  0  0  0  0  0  0  0  0  0  0
  150.4700  144.2468  157.7606 H   0  0  0  0  0  0  0  0  0  0  0  0
  1  2  1  0  0  0  0
  1 34  1  0  0  0  0
  2  3  1  0  0  0  0
  2 35  1  0  0  0  0
  2 36  1  0  0  0  0
  3  4  1  0  0  0  0
  3 37  1  0  0  0  0
  3 38  1  0  0  0  0
  4  5  1  0  0  0  0
  4 24  1  0  0  0  0
  4 39  1  0  0  0  0
  5  6  1  0  0  0  0
  5 40  1  0  0  0  0
  6 11  1  0  0  0  0
  6  7  2  0  0  0  0
  7  8  1  0  0  0  0
  8  9  2  0  0  0  0
  8 41  1  0  0  0  0
  9 10  1  0  0  0  0
 10 14  1  0  0  0  0
 10 11  2  0  0  0  0
 11 12  1  0  0  0  0
 12 13  2  0  0  0  0
 13 14  1  0  0  0  0
 13 42  1  0  0  0  0
 14 15  1  0  0  0  0
 15 30  1  0  0  0  0
 15 22  1  0  0  0  0
 15 16  1  0  0  0  0
 16 17  1  0  0  0  0
 17 31  1  0  0  0  0
 17 18  1  0  0  0  0
 17 20  1  0  0  0  0
 18 19  1  0  0  0  0
 18 43  1  0  0  0  0
 18 44  1  0  0  0  0
 19 45  1  0  0  0  0
 20 32  1  0  0  0  0
 20 21  1  0  0  0  0
 20 22  1  0  0  0  0
 21 46  1  0  0  0  0
 22 33  1  0  0  0  0
 22 23  1  0  0  0  0
 23 47  1  0  0  0  0
 24 29  1  0  0  0  0
 24 25  1  0  0  0  0
 24 48  1  0  0  0  0
 25 26  1  0  0  0  0
 25 49  1  0  0  0  0
 25 50  1  0  0  0  0
 26 27  1  0  0  0  0
 26 51  1  0  0  0  0
 26 52  1  0  0  0  0
 27 28  1  0  0  0  0
 27 53  1  0  0  0  0
 27 54  1  0  0  0  0
 28 29  1  0  0  0  0
 28 55  1  0  0  0  0
 28 56  1  0  0  0  0
 29 57  1  0  0  0  0
 29 58  1  0  0  0  0
M  END
> <s_m_source_file>
AV-unprocessed.smi

> <i_m_source_file_index>
109

> <i_lp_mmshare_version>
43012

> <i_f3d_flags>
0

> <s_epik_input>
W0NIMl0xW0NIMl1bQ0gyXVtDSDJdW0NIMl1bQ0hdMVtDQEhdKFtDSDJdW0NIMl1bT0hdKVtOSF1jKG5bY0hdbjIpYyhjMjMpbltjSF1uM1tDQEBIXTRPW0NASF0oW0NIMl1bT0hdKVtDQEBIXShbT0hdKVtDQEhdNFtPSF0=

> <s_epik_cmdline>
J2VwaWtfcHl0aG9uJywgJy1waCcsICc3LjAnLCAnLXRuJywgJzgnLCAnLW1hJywgJzIwMCcsICctbWV0YWxfYmluZGluZycsICctaW1hZScsICc8aW5maWxlLm1hZT4nLCAnLW9tYWUnLCAnPG91dGZpbGUubWFlPic=

> <r_lp_tautomer_probability>
1

> <r_epik_Ionization_Penalty>
0.000793976

> <r_epik_Ionization_Penalty_Charging>
0

> <r_epik_Ionization_Penalty_Neutral>
0.000793976

> <r_epik_State_Penalty>
-0

> <r_epik_Charging_Adjusted_Penalty>
0

> <i_epik_Tot_Q>
0

> <i_epik_Tot_abs_Q>
0

> <r_epik_Metal_State_Penalty>
-0

> <b_epik_Metal_Only>
0

> <s_epik_Chemistry_Notes>
This compound contains an acetal/aminal-like group ( X-CH(R)-Y where X, Y are N, S, or O) that may be acid/base labile, releasing an aldehyde.

> <s_lp_Force_Field>
OPLS_2005

> <r_lp_Energy>
56.6401

> <b_lp_Chiralities_Consistent>
1

> <s_lp_Variant>
AV-unprocessed.smi:109-31

> <Gold.Version>
5.8.1

> <Gold.Id.Protein>
6NUR|6NUR_protein|mol2

> <Gold.PLP.Fitness>
49.6112

> <Gold.PLP.PLP>
-47.3421

> <Gold.PLP.part.hbond>
-7.7229

> <Gold.PLP.part.metal>
0.0000

> <Gold.PLP.part.buried>
-6.0251

> <Gold.PLP.part.nonpolar>
-36.3186

> <Gold.PLP.part.repulsive>
2.8520

> <Gold.PLP.ligand.clash>
0.0000

> <Gold.PLP.ligand.torsion>
2.0925

> <Gold.PLP.Chemscore.Hbond>
1.9920

> <Gold.PLP.Chemscore.CHOScore>
0.0000

> <Gold.PLP.Chemscore.Metal>
0.0000

> <Gold.Chemscore.Hbonds>
donor molecule, donor type, donor heavy atom, donor atom, acceptor molecule, acceptor atom, score
      L1  H     1    34       P1  7957  1.00
      L1  H     5    40       P1  8028  1.00

> <Gold.PLP.Chemscore.Internal.Correction>
0.4782

> <Gold.Rescore>
     Score         DG    S(hbond)    S(metal)    S(lipo)     H(rot)  DE(clash)    DE(int)     intcor
      1.94     -10.37       1.94        0.00     106.13       5.47       4.99       3.43       ----

> <Gold.Chemscore.Fitness>
1.9426

> <Gold.Chemscore.DG>
-10.3678

> <Gold.Chemscore.ZeroCoef>
-5.4800

> <Gold.Chemscore.Hbond>
1.9352

> <Gold.Chemscore.Metal>
0.0000

> <Gold.Chemscore.Lipo>
106.1347

> <Gold.Chemscore.Internal_Hbond>
0.0000

> <Gold.Chemscore.DEClash>
4.9910

> <Gold.Chemscore.DEInternal>
3.4342

> <Gold.Chemscore.Rot>
5.4662

> <Gold.Chemscore.Internal.Correction>
   9.000000E+99

> <Gold.Chemscore.Hbonds>
donor molecule, donor type, donor heavy atom, donor atom, acceptor molecule, acceptor atom, score
      L1  H     1    34       P1  7957  1.00
      L1  H     5    40       P1  8028  0.94

> <Gold.Chemscore.Hbond.Weighted>
-6.4636

> <Gold.Chemscore.Metal.Weighted>
-0.0000

> <Gold.Chemscore.Lipo.Weighted>
-12.4178

> <Gold.Chemscore.Internal_Hbond.Weighted>
0.0000

> <Gold.Chemscore.DEClash.Weighted>
4.9910

> <Gold.Chemscore.DEInternal.Weighted>
3.4342

> <Gold.Chemscore.Rot.Weighted>
13.9935

> <Gold.Chemscore.Internal.Correction.Weighted>
   9.000000E+99

> <Gold.Protein.RotatedTorsions>
[ 6907 6896 6895 6894 ] final  -44.60 input  -60.11 | X-H torsion
[ 7974 7965 7964 7962 ] final   72.82 input  175.53 | X-H torsion
[ 8008 7997 7996 7995 ] final  -62.22 input   59.86 | X-H torsion
[ 10167 10162 10161 10158 ] final  -87.82 input  -65.29 | X-H torsion
[ 10718 10713 10712 10709 ] final -145.15 input   66.30 | X-H torsion
[ 10763 10752 10751 10750 ] final -153.83 input  -60.55 | X-H torsion
[ 11005 11000 10999 10996 ] final   28.37 input  -57.11 | X-H torsion

> <Gold.Protein.ActiveResidues>
 VAL166  LYS551  ARG553  GLY616  TRP617  ASP618  TYR619  PRO620  LYS621  CYS622 
 ASP623  PHE694  ASN695  SER759  ASP760  ASP761  ALA762  ILE779  LEU786  VAL792 
 PHE793  MET794  SER795  GLU796  ALA797  LYS798  CYS799  TRP800  GLU811  SER814 

> <Gold.Protein.RotatedAtoms>
  150.9311  134.8725  159.7551 H   0  0  0  0  0  0  0  0  0  0  0  0  # atno 6907 bound_to 6896
  152.5038  134.4078  159.9448 H   0  0  0  0  0  0  0  0  0  0  0  0  # atno 6908 bound_to 6896
  151.4105  133.3689  159.2778 H   0  0  0  0  0  0  0  0  0  0  0  0  # atno 6909 bound_to 6896
  145.7486  139.2750  143.1444 H   0  0  0  0  0  0  0  0  0  0  0  0  # atno 7974 bound_to 7965
  154.4488  140.1001  156.6553 H   0  0  0  0  0  0  0  0  0  0  0  0  # atno 8008 bound_to 7997
  155.5352  140.3482  155.4416 H   0  0  0  0  0  0  0  0  0  0  0  0  # atno 8009 bound_to 7997
  156.0636  140.1332  156.9901 H   0  0  0  0  0  0  0  0  0  0  0  0  # atno 8010 bound_to 7997
  140.3807  143.2750  151.9387 H   0  0  0  0  0  0  0  0  0  0  0  0  # atno 10167 bound_to 10162
  156.3789  130.7827  151.2016 H   0  0  0  0  0  0  0  0  0  0  0  0  # atno 10718 bound_to 10713
  154.7900  135.3204  154.7798 H   0  0  0  0  0  0  0  0  0  0  0  0  # atno 10763 bound_to 10752
  153.8489  135.6864  153.4799 H   0  0  0  0  0  0  0  0  0  0  0  0  # atno 10764 bound_to 10752
  153.1567  135.4677  154.9654 H   0  0  0  0  0  0  0  0  0  0  0  0  # atno 10765 bound_to 10752
  140.3163  134.2593  155.7725 H   0  0  0  0  0  0  0  0  0  0  0  0  # atno 11005 bound_to 11000
  146.0378  140.8195  142.9844 LP  0  0  0  0  0  0  0  0  0  0  0  0  # atno 17320 bound_to 7965
  144.6854  140.2865  143.7284 LP  0  0  0  0  0  0  0  0  0  0  0  0  # atno 17321 bound_to 7965
  139.4795  144.5821  151.7915 LP  0  0  0  0  0  0  0  0  0  0  0  0  # atno 17342 bound_to 10162
  140.4940  144.1267  150.5956 LP  0  0  0  0  0  0  0  0  0  0  0  0  # atno 17343 bound_to 10162
  157.7490  131.0350  150.4343 LP  0  0  0  0  0  0  0  0  0  0  0  0  # atno 17370 bound_to 10713
  156.4583  130.4026  149.6592 LP  0  0  0  0  0  0  0  0  0  0  0  0  # atno 17371 bound_to 10713
  141.2097  133.7742  156.9981 LP  0  0  0  0  0  0  0  0  0  0  0  0  # atno 17394 bound_to 11000
  140.0981  134.9552  157.1880 LP  0  0  0  0  0  0  0  0  0  0  0  0  # atno 17395 bound_to 11000

$$$$
