AV-unprocessed.smi:3267|AV-procd|sdf|12506|dock7
  -GOLD-   2272018413D 1   1.00000     0.00000
 Structure written by MMmdl.
 38 39  0  0  0  0  0  0  0  0  1 V2000
  151.6965  145.4624  159.9061 C   0  0  0  0  0  0  0  0  0  0  0  0
  150.7032  144.2960  159.8080 C   0  0  2  0  0  0  0  0  0  0  0  0
  151.1772  143.2166  158.8032 C   0  0  0  0  0  0  0  0  0  0  0  0
  152.2554  142.4096  159.3425 N   0  0  0  0  0  0  0  0  0  0  0  0
  153.4770  142.8256  159.8279 C   0  0  0  0  0  0  0  0  0  0  0  0
  154.1618  141.7090  160.2131 C   0  0  0  0  0  0  0  0  0  0  0  0
  153.2642  140.6444  159.9198 C   0  0  0  0  0  0  0  0  0  0  0  0
  152.1232  141.0667  159.3991 N   0  0  0  0  0  0  0  0  0  0  0  0
  149.3878  144.8161  159.4427 N   0  0  0  0  0  0  0  0  0  0  0  0
  148.3112  144.8184  160.2420 C   0  0  0  0  0  0  0  0  0  0  0  0
  148.2997  144.3654  161.3868 O   0  0  0  0  0  0  0  0  0  0  0  0
  147.2459  145.3648  159.6409 N   0  0  0  0  0  0  0  0  0  0  0  0
  145.9189  145.4725  160.2358 C   0  0  0  0  0  0  0  0  0  0  0  0
  145.1488  146.6792  159.6747 C   0  0  1  0  0  0  0  0  0  0  0  0
  145.9617  147.9730  159.6571 C   0  0  0  0  0  0  0  0  0  0  0  0
  145.2906  148.7407  158.5415 C   0  0  0  0  0  0  0  0  0  0  0  0
  144.9951  147.6294  157.5396 C   0  0  0  0  0  0  0  0  0  0  0  0
  144.7828  146.4522  158.3146 O   0  0  0  0  0  0  0  0  0  0  0  0
  152.6795  145.1111  160.2214 H   0  0  0  0  0  0  0  0  0  0  0  0
  151.3640  146.2032  160.6339 H   0  0  0  0  0  0  0  0  0  0  0  0
  151.8146  145.9662  158.9462 H   0  0  0  0  0  0  0  0  0  0  0  0
  150.6211  143.8608  160.8065 H   0  0  0  0  0  0  0  0  0  0  0  0
  150.3630  142.5473  158.5206 H   0  0  0  0  0  0  0  0  0  0  0  0
  151.5217  143.6696  157.8723 H   0  0  0  0  0  0  0  0  0  0  0  0
  153.7551  143.8691  159.8540 H   0  0  0  0  0  0  0  0  0  0  0  0
  155.1537  141.6602  160.6370 H   0  0  0  0  0  0  0  0  0  0  0  0
  153.4073  139.5842  160.0677 H   0  0  0  0  0  0  0  0  0  0  0  0
  149.2936  145.2076  158.5171 H   0  0  0  0  0  0  0  0  0  0  0  0
  147.3512  145.7075  158.6972 H   0  0  0  0  0  0  0  0  0  0  0  0
  145.3583  144.5524  160.0623 H   0  0  0  0  0  0  0  0  0  0  0  0
  146.0313  145.5669  161.3161 H   0  0  0  0  0  0  0  0  0  0  0  0
  144.2333  146.8478  160.2443 H   0  0  0  0  0  0  0  0  0  0  0  0
  145.9424  148.4994  160.6118 H   0  0  0  0  0  0  0  0  0  0  0  0
  147.0022  147.7729  159.3970 H   0  0  0  0  0  0  0  0  0  0  0  0
  144.3600  149.1846  158.8978 H   0  0  0  0  0  0  0  0  0  0  0  0
  145.9139  149.5340  158.1281 H   0  0  0  0  0  0  0  0  0  0  0  0
  144.1344  147.8543  156.9094 H   0  0  0  0  0  0  0  0  0  0  0  0
  145.8562  147.4647  156.8907 H   0  0  0  0  0  0  0  0  0  0  0  0
  1  2  1  0  0  0  0
  1 19  1  0  0  0  0
  1 20  1  0  0  0  0
  1 21  1  0  0  0  0
  2  3  1  0  0  0  0
  2  9  1  0  0  0  0
  2 22  1  0  0  0  0
  3  4  1  0  0  0  0
  3 23  1  0  0  0  0
  3 24  1  0  0  0  0
  4  8  1  0  0  0  0
  4  5  1  0  0  0  0
  5  6  2  0  0  0  0
  5 25  1  0  0  0  0
  6  7  1  0  0  0  0
  6 26  1  0  0  0  0
  7  8  2  0  0  0  0
  7 27  1  0  0  0  0
  9 10  1  0  0  0  0
  9 28  1  0  0  0  0
 10 11  2  0  0  0  0
 10 12  1  0  0  0  0
 12 13  1  0  0  0  0
 12 29  1  0  0  0  0
 13 14  1  0  0  0  0
 13 30  1  0  0  0  0
 13 31  1  0  0  0  0
 14 18  1  0  0  0  0
 14 15  1  0  0  0  0
 14 32  1  0  0  0  0
 15 16  1  0  0  0  0
 15 33  1  0  0  0  0
 15 34  1  0  0  0  0
 16 17  1  0  0  0  0
 16 35  1  0  0  0  0
 16 36  1  0  0  0  0
 17 18  1  0  0  0  0
 17 37  1  0  0  0  0
 17 38  1  0  0  0  0
M  END
> <s_m_source_file>
AV-unprocessed.smi

> <i_m_source_file_index>
3267

> <i_lp_mmshare_version>
43012

> <i_f3d_flags>
0

> <s_epik_input>
bjFbY0hdW2NIXVtjSF1uMVtDSDJdW0NAQEhdKFtDSDNdKVtOSF1DKD1PKVtOSF1bQ0gyXVtDQEBIXTJbQ0gyXVtDSDJdW0NIMl1PMg==

> <s_epik_cmdline>
J2VwaWtfcHl0aG9uJywgJy1waCcsICc3LjAnLCAnLXRuJywgJzgnLCAnLW1hJywgJzIwMCcsICctbWV0YWxfYmluZGluZycsICctaW1hZScsICc8aW5maWxlLm1hZT4nLCAnLW9tYWUnLCAnPG91dGZpbGUubWFlPic=

> <r_lp_tautomer_probability>
1

> <r_epik_Ionization_Penalty>
6.24796e-05

> <r_epik_Ionization_Penalty_Charging>
0

> <r_epik_Ionization_Penalty_Neutral>
6.24796e-05

> <r_epik_State_Penalty>
-0

> <r_epik_Charging_Adjusted_Penalty>
0

> <i_epik_Tot_Q>
0

> <i_epik_Tot_abs_Q>
0

> <r_epik_Metal_State_Penalty>
-0

> <b_epik_Metal_Only>
0

> <s_lp_Force_Field>
OPLS_2005

> <r_lp_Energy>
17.3536

> <b_lp_Chiralities_Consistent>
1

> <s_lp_Variant>
AV-unprocessed.smi:3267-3

> <Gold.Version>
5.8.1

> <Gold.Id.Protein>
6NUR|6NUR_protein|mol2

> <Gold.PLP.Fitness>
46.9359

> <Gold.PLP.PLP>
-39.4480

> <Gold.PLP.part.hbond>
-2.9555

> <Gold.PLP.part.metal>
0.0000

> <Gold.PLP.part.buried>
-7.7202

> <Gold.PLP.part.nonpolar>
-31.0040

> <Gold.PLP.part.repulsive>
0.6209

> <Gold.PLP.ligand.clash>
0.0000

> <Gold.PLP.ligand.torsion>
0.4292

> <Gold.PLP.Chemscore.Hbond>
2.7760

> <Gold.PLP.Chemscore.CHOScore>
0.0000

> <Gold.PLP.Chemscore.Metal>
0.0000

> <Gold.Chemscore.Hbonds>
donor molecule, donor type, donor heavy atom, donor atom, acceptor molecule, acceptor atom, score
      L1  H     9    28       P1  8029  0.83
      L1  H    12    29       P1  8029  0.98
      P1  H  6933  6944       L1    11  0.94

> <Gold.PLP.Chemscore.Internal.Correction>
0.0182

> <Gold.Rescore>
     Score         DG    S(hbond)    S(metal)    S(lipo)     H(rot)  DE(clash)    DE(int)     intcor
     20.44     -20.78       2.71        0.00      94.31       1.87       0.07       0.27       ----

> <Gold.Chemscore.Fitness>
20.4376

> <Gold.Chemscore.DG>
-20.7822

> <Gold.Chemscore.ZeroCoef>
-5.4800

> <Gold.Chemscore.Hbond>
2.7131

> <Gold.Chemscore.Metal>
0.0000

> <Gold.Chemscore.Lipo>
94.3053

> <Gold.Chemscore.Internal_Hbond>
0.0000

> <Gold.Chemscore.DEClash>
0.0746

> <Gold.Chemscore.DEInternal>
0.2700

> <Gold.Chemscore.Rot>
1.8724

> <Gold.Chemscore.Internal.Correction>
   9.000000E+99

> <Gold.Chemscore.Hbonds>
donor molecule, donor type, donor heavy atom, donor atom, acceptor molecule, acceptor atom, score
      L1  H     9    28       P1  8029  0.67
      L1  H    12    29       P1  8029  0.91
      P1  H  6933  6944       L1    11  0.77

> <Gold.Chemscore.Hbond.Weighted>
-9.0617

> <Gold.Chemscore.Metal.Weighted>
-0.0000

> <Gold.Chemscore.Lipo.Weighted>
-11.0337

> <Gold.Chemscore.Internal_Hbond.Weighted>
0.0000

> <Gold.Chemscore.DEClash.Weighted>
0.0746

> <Gold.Chemscore.DEInternal.Weighted>
0.2700

> <Gold.Chemscore.Rot.Weighted>
4.7933

> <Gold.Chemscore.Internal.Correction.Weighted>
   9.000000E+99

> <Gold.Protein.RotatedTorsions>
[ 6907 6896 6895 6894 ] final  -89.70 input  -60.11 | X-H torsion
[ 7974 7965 7964 7962 ] final   12.32 input  175.53 | X-H torsion
[ 8008 7997 7996 7995 ] final    5.70 input   59.86 | X-H torsion
[ 10167 10162 10161 10158 ] final   68.90 input  -65.29 | X-H torsion
[ 10718 10713 10712 10709 ] final  -22.39 input   66.30 | X-H torsion
[ 10763 10752 10751 10750 ] final  117.67 input  -60.55 | X-H torsion
[ 11005 11000 10999 10996 ] final  -20.30 input  -57.11 | X-H torsion

> <Gold.Protein.ActiveResidues>
 VAL166  LYS551  ARG553  GLY616  TRP617  ASP618  TYR619  PRO620  LYS621  CYS622 
 ASP623  PHE694  ASN695  SER759  ASP760  ASP761  ALA762  ILE779  LEU786  VAL792 
 PHE793  MET794  SER795  GLU796  ALA797  LYS798  CYS799  TRP800  GLU811  SER814 

> <Gold.Protein.RotatedAtoms>
  150.6876  134.2546  159.4524 H   0  0  0  0  0  0  0  0  0  0  0  0  # atno 6907 bound_to 6896
  152.0481  134.9668  160.0584 H   0  0  0  0  0  0  0  0  0  0  0  0  # atno 6908 bound_to 6896
  152.1143  133.4283  159.4682 H   0  0  0  0  0  0  0  0  0  0  0  0  # atno 6909 bound_to 6896
  146.2353  139.9354  142.8490 H   0  0  0  0  0  0  0  0  0  0  0  0  # atno 7974 bound_to 7965
  154.7317  140.2732  155.6450 H   0  0  0  0  0  0  0  0  0  0  0  0  # atno 8008 bound_to 7997
  156.2851  140.2714  156.1944 H   0  0  0  0  0  0  0  0  0  0  0  0  # atno 8009 bound_to 7997
  155.0373  140.0371  157.2486 H   0  0  0  0  0  0  0  0  0  0  0  0  # atno 8010 bound_to 7997
  140.0736  144.5131  150.7210 H   0  0  0  0  0  0  0  0  0  0  0  0  # atno 10167 bound_to 10162
  156.5052  130.4597  149.6678 H   0  0  0  0  0  0  0  0  0  0  0  0  # atno 10718 bound_to 10713
  153.5560  135.3530  155.2779 H   0  0  0  0  0  0  0  0  0  0  0  0  # atno 10763 bound_to 10752
  154.8701  135.4125  154.2884 H   0  0  0  0  0  0  0  0  0  0  0  0  # atno 10764 bound_to 10752
  153.3620  135.7060  153.6774 H   0  0  0  0  0  0  0  0  0  0  0  0  # atno 10765 bound_to 10752
  140.8451  133.7898  155.9904 H   0  0  0  0  0  0  0  0  0  0  0  0  # atno 11005 bound_to 11000
  145.2004  140.9852  143.4159 LP  0  0  0  0  0  0  0  0  0  0  0  0  # atno 17320 bound_to 7965
  144.9779  139.3813  143.6277 LP  0  0  0  0  0  0  0  0  0  0  0  0  # atno 17321 bound_to 7965
  140.7113  143.2507  151.4572 LP  0  0  0  0  0  0  0  0  0  0  0  0  # atno 17342 bound_to 10162
  139.5821  144.1686  152.1981 LP  0  0  0  0  0  0  0  0  0  0  0  0  # atno 17343 bound_to 10162
  156.3293  130.7323  151.2249 LP  0  0  0  0  0  0  0  0  0  0  0  0  # atno 17370 bound_to 10713
  157.7458  131.0434  150.4742 LP  0  0  0  0  0  0  0  0  0  0  0  0  # atno 17371 bound_to 10713
  140.8852  134.2562  157.5123 LP  0  0  0  0  0  0  0  0  0  0  0  0  # atno 17394 bound_to 11000
  139.8703  134.9635  156.4463 LP  0  0  0  0  0  0  0  0  0  0  0  0  # atno 17395 bound_to 11000

$$$$
