AV-unprocessed.smi:3047|AV-procd|sdf|11623|dock7
  -GOLD-   2272017 13D 1   1.00000     0.00000
 Structure written by MMmdl.
 37 38  0  0  0  0  0  0  0  0  1 V2000
  152.2363  136.9577  157.9771 C   0  0  0  0  0  0  0  0  0  0  0  0
  150.7744  136.3070  157.0718 S   0  0  0  0  0  0  0  0  0  0  0  0
  151.2348  135.2571  156.1501 O   0  0  0  0  0  0  0  0  0  0  0  0
  149.6983  136.0197  158.0325 O   0  0  0  0  0  0  0  0  0  0  0  0
  150.2824  137.6619  156.1148 N   0  0  0  0  0  0  0  0  0  0  0  0
  149.1416  137.5090  155.2011 C   0  0  0  0  0  0  0  0  0  0  0  0
  149.3369  138.5657  154.1165 C   0  0  0  0  0  0  0  0  0  0  0  0
  150.8511  138.7095  154.0440 C   0  0  0  0  0  0  0  0  0  0  0  0
  151.3179  138.5041  155.4954 C   0  0  1  0  0  0  0  0  0  0  0  0
  151.5360  139.8197  156.2560 C   0  0  0  0  0  0  0  0  0  0  0  0
  152.6042  140.0466  156.8257 O   0  0  0  0  0  0  0  0  0  0  0  0
  150.5141  140.6892  156.2419 N   0  0  0  0  0  0  0  0  0  0  0  0
  150.5258  142.0048  156.8693 C   0  0  0  0  0  0  0  0  0  0  0  0
  150.8578  141.9186  158.3683 C   0  0  0  0  0  0  0  0  0  0  0  0
  151.3574  143.1813  158.8728 N   0  0  0  0  0  0  0  0  0  0  0  0
  151.8491  143.4364  160.1462 C   0  0  0  0  0  0  0  0  0  0  0  0
  152.2088  144.7650  160.1692 C   0  0  0  0  0  0  0  0  0  0  0  0
  151.9482  145.3429  158.9285 N   0  0  0  0  0  0  0  0  0  0  0  0
  151.4456  144.3447  158.2135 C   0  0  0  0  0  0  0  0  0  0  0  0
  152.6560  136.1685  158.6003 H   0  0  0  0  0  0  0  0  0  0  0  0
  151.9371  137.7941  158.6082 H   0  0  0  0  0  0  0  0  0  0  0  0
  152.9876  137.2919  157.2617 H   0  0  0  0  0  0  0  0  0  0  0  0
  149.1602  136.5122  154.7590 H   0  0  0  0  0  0  0  0  0  0  0  0
  148.1981  137.6297  155.7338 H   0  0  0  0  0  0  0  0  0  0  0  0
  148.8927  138.2800  153.1627 H   0  0  0  0  0  0  0  0  0  0  0  0
  148.8860  139.5085  154.4292 H   0  0  0  0  0  0  0  0  0  0  0  0
  151.2663  137.9228  153.4125 H   0  0  0  0  0  0  0  0  0  0  0  0
  151.1559  139.6645  153.6133 H   0  0  0  0  0  0  0  0  0  0  0  0
  152.2636  137.9591  155.4757 H   0  0  0  0  0  0  0  0  0  0  0  0
  149.6777  140.4297  155.7387 H   0  0  0  0  0  0  0  0  0  0  0  0
  151.2363  142.6542  156.3546 H   0  0  0  0  0  0  0  0  0  0  0  0
  149.5414  142.4528  156.7315 H   0  0  0  0  0  0  0  0  0  0  0  0
  149.9728  141.6374  158.9410 H   0  0  0  0  0  0  0  0  0  0  0  0
  151.6136  141.1545  158.5550 H   0  0  0  0  0  0  0  0  0  0  0  0
  151.9019  142.6726  160.9083 H   0  0  0  0  0  0  0  0  0  0  0  0
  152.6319  145.3449  160.9762 H   0  0  0  0  0  0  0  0  0  0  0  0
  151.1352  144.4631  157.1855 H   0  0  0  0  0  0  0  0  0  0  0  0
  1  2  1  0  0  0  0
  1 20  1  0  0  0  0
  1 21  1  0  0  0  0
  1 22  1  0  0  0  0
  2  3  2  0  0  0  0
  2  4  2  0  0  0  0
  2  5  1  0  0  0  0
  5  9  1  0  0  0  0
  5  6  1  0  0  0  0
  6  7  1  0  0  0  0
  6 23  1  0  0  0  0
  6 24  1  0  0  0  0
  7  8  1  0  0  0  0
  7 25  1  0  0  0  0
  7 26  1  0  0  0  0
  8  9  1  0  0  0  0
  8 27  1  0  0  0  0
  8 28  1  0  0  0  0
  9 10  1  0  0  0  0
  9 29  1  0  0  0  0
 10 11  2  0  0  0  0
 10 12  1  0  0  0  0
 12 13  1  0  0  0  0
 12 30  1  0  0  0  0
 13 14  1  0  0  0  0
 13 31  1  0  0  0  0
 13 32  1  0  0  0  0
 14 15  1  0  0  0  0
 14 33  1  0  0  0  0
 14 34  1  0  0  0  0
 15 19  1  0  0  0  0
 15 16  1  0  0  0  0
 16 17  2  0  0  0  0
 16 35  1  0  0  0  0
 17 18  1  0  0  0  0
 17 36  1  0  0  0  0
 18 19  2  0  0  0  0
 19 37  1  0  0  0  0
M  END
> <s_m_source_file>
AV-unprocessed.smi

> <i_m_source_file_index>
3047

> <i_lp_mmshare_version>
43012

> <i_f3d_flags>
0

> <s_epik_input>
W0NIM11TKD1PKSg9TylOMVtDSDJdW0NIMl1bQ0gyXVtDQEhdMUMoPU8pW05IXVtDSDJdW0NIMl1uMltjSF1bY0hdbltjSF0y

> <s_epik_cmdline>
J2VwaWtfcHl0aG9uJywgJy1waCcsICc3LjAnLCAnLXRuJywgJzgnLCAnLW1hJywgJzIwMCcsICctbWV0YWxfYmluZGluZycsICctaW1hZScsICc8aW5maWxlLm1hZT4nLCAnLW9tYWUnLCAnPG91dGZpbGUubWFlPic=

> <r_lp_tautomer_probability>
1

> <r_epik_Ionization_Penalty>
0.575721

> <r_epik_Ionization_Penalty_Charging>
0.575721

> <r_epik_Ionization_Penalty_Neutral>
1.33078e-07

> <r_epik_State_Penalty>
0.588056

> <r_epik_Charging_Adjusted_Penalty>
1.16378

> <i_epik_Tot_Q>
0

> <i_epik_Tot_abs_Q>
0

> <r_epik_Metal_State_Penalty>
0.294357

> <b_epik_Metal_Only>
0

> <s_lp_Force_Field>
OPLS_2005

> <r_lp_Energy>
8.50144

> <b_lp_Chiralities_Consistent>
1

> <s_lp_Variant>
AV-unprocessed.smi:3047-3

> <Gold.Version>
5.8.1

> <Gold.Id.Protein>
6NUR|6NUR_protein|mol2

> <Gold.PLP.Fitness>
41.7617

> <Gold.PLP.PLP>
-30.7090

> <Gold.PLP.part.hbond>
-3.5136

> <Gold.PLP.part.metal>
0.0000

> <Gold.PLP.part.buried>
-3.0304

> <Gold.PLP.part.nonpolar>
-23.5909

> <Gold.PLP.part.repulsive>
0.1856

> <Gold.PLP.ligand.clash>
0.0000

> <Gold.PLP.ligand.torsion>
0.6752

> <Gold.PLP.Chemscore.Hbond>
2.9440

> <Gold.PLP.Chemscore.CHOScore>
1.0000

> <Gold.PLP.Chemscore.Metal>
0.0000

> <Gold.Chemscore.Hbonds>
donor molecule, donor type, donor heavy atom, donor atom, acceptor molecule, acceptor atom, score
      P1  H  6896  6907       L1     4  0.32
      P1  H  7997  8009       L1    11  1.00
      P1  H 10752 10765       L1     3  0.52
      L1  C    19    37       P1  8028  0.59

> <Gold.PLP.Chemscore.Internal.Correction>
0.5711

> <Gold.Rescore>
     Score         DG    S(hbond)    S(metal)    S(lipo)     H(rot)  DE(clash)    DE(int)     intcor
     14.33     -15.71       2.80        0.00      59.75       2.39       0.06       1.32       ----

> <Gold.Chemscore.Fitness>
14.3345

> <Gold.Chemscore.DG>
-15.7134

> <Gold.Chemscore.ZeroCoef>
-5.4800

> <Gold.Chemscore.Hbond>
2.7994

> <Gold.Chemscore.Metal>
0.0000

> <Gold.Chemscore.Lipo>
59.7505

> <Gold.Chemscore.Internal_Hbond>
0.0000

> <Gold.Chemscore.DEClash>
0.0580

> <Gold.Chemscore.DEInternal>
1.3209

> <Gold.Chemscore.Rot>
2.3857

> <Gold.Chemscore.Internal.Correction>
   9.000000E+99

> <Gold.Chemscore.Hbonds>
donor molecule, donor type, donor heavy atom, donor atom, acceptor molecule, acceptor atom, score
      P1  H  6896  6907       L1     4  0.11
      P1  H  7997  8009       L1    11  0.95
      P1  H 10752 10765       L1     3  0.50

> <Gold.Chemscore.Hbond.Weighted>
-9.3500

> <Gold.Chemscore.Metal.Weighted>
-0.0000

> <Gold.Chemscore.Lipo.Weighted>
-6.9908

> <Gold.Chemscore.Internal_Hbond.Weighted>
0.0000

> <Gold.Chemscore.DEClash.Weighted>
0.0580

> <Gold.Chemscore.DEInternal.Weighted>
1.3209

> <Gold.Chemscore.Rot.Weighted>
6.1074

> <Gold.Chemscore.Internal.Correction.Weighted>
   9.000000E+99

> <Gold.Protein.RotatedTorsions>
[ 6907 6896 6895 6894 ] final  -55.48 input  -60.11 | X-H torsion
[ 7974 7965 7964 7962 ] final   16.71 input  175.53 | X-H torsion
[ 8008 7997 7996 7995 ] final -160.49 input   59.86 | X-H torsion
[ 10167 10162 10161 10158 ] final  130.32 input  -65.29 | X-H torsion
[ 10718 10713 10712 10709 ] final  -96.81 input   66.30 | X-H torsion
[ 10763 10752 10751 10750 ] final -166.77 input  -60.55 | X-H torsion
[ 11005 11000 10999 10996 ] final -113.30 input  -57.11 | X-H torsion

> <Gold.Protein.ActiveResidues>
 VAL166  LYS551  ARG553  GLY616  TRP617  ASP618  TYR619  PRO620  LYS621  CYS622 
 ASP623  PHE694  ASN695  SER759  ASP760  ASP761  ALA762  ILE779  LEU786  VAL792 
 PHE793  MET794  SER795  GLU796  ALA797  LYS798  CYS799  TRP800  GLU811  SER814 

> <Gold.Protein.RotatedAtoms>
  150.8248  134.7473  159.6802 H   0  0  0  0  0  0  0  0  0  0  0  0  # atno 6907 bound_to 6896
  152.4360  134.5683  159.9923 H   0  0  0  0  0  0  0  0  0  0  0  0  # atno 6908 bound_to 6896
  151.5858  133.3335  159.3053 H   0  0  0  0  0  0  0  0  0  0  0  0  # atno 6909 bound_to 6896
  146.2241  139.8708  142.8588 H   0  0  0  0  0  0  0  0  0  0  0  0  # atno 7974 bound_to 7965
  155.7783  140.0861  157.2072 H   0  0  0  0  0  0  0  0  0  0  0  0  # atno 8008 bound_to 7997
  154.3992  140.1512  156.3079 H   0  0  0  0  0  0  0  0  0  0  0  0  # atno 8009 bound_to 7997
  155.8679  140.3427  155.5804 H   0  0  0  0  0  0  0  0  0  0  0  0  # atno 8010 bound_to 7997
  139.5435  144.6753  151.4547 H   0  0  0  0  0  0  0  0  0  0  0  0  # atno 10167 bound_to 10162
  156.0070  130.5167  150.6281 H   0  0  0  0  0  0  0  0  0  0  0  0  # atno 10718 bound_to 10713
  154.6799  135.2953  154.9627 H   0  0  0  0  0  0  0  0  0  0  0  0  # atno 10763 bound_to 10752
  154.0625  135.6629  153.4817 H   0  0  0  0  0  0  0  0  0  0  0  0  # atno 10764 bound_to 10752
  153.0541  135.5155  154.7837 H   0  0  0  0  0  0  0  0  0  0  0  0  # atno 10765 bound_to 10752
  141.0622  133.9516  157.2645 H   0  0  0  0  0  0  0  0  0  0  0  0  # atno 11005 bound_to 11000
  145.2610  141.0077  143.3826 LP  0  0  0  0  0  0  0  0  0  0  0  0  # atno 17320 bound_to 7965
  144.9299  139.4311  143.6500 LP  0  0  0  0  0  0  0  0  0  0  0  0  # atno 17321 bound_to 7965
  140.6675  143.8366  150.6959 LP  0  0  0  0  0  0  0  0  0  0  0  0  # atno 17342 bound_to 10162
  140.1780  143.4138  152.1953 LP  0  0  0  0  0  0  0  0  0  0  0  0  # atno 17343 bound_to 10162
  157.4084  131.0820  151.1244 LP  0  0  0  0  0  0  0  0  0  0  0  0  # atno 17370 bound_to 10713
  157.1883  130.6340  149.5695 LP  0  0  0  0  0  0  0  0  0  0  0  0  # atno 17371 bound_to 10713
  139.9443  135.0186  156.8805 LP  0  0  0  0  0  0  0  0  0  0  0  0  # atno 17394 bound_to 11000
  140.5845  134.0320  155.7476 LP  0  0  0  0  0  0  0  0  0  0  0  0  # atno 17395 bound_to 11000

$$$$
