AV-unprocessed.smi:837|AV-procd|sdf|3894|dock5
  -GOLD-   22720 1353D 1   1.00000     0.00000
 Structure written by MMmdl.
 49 51  0  0  0  0  0  0  0  0  1 V2000
  147.6932  138.8947  156.5352 C   0  0  0  0  0  0  0  0  0  0  0  0
  148.9814  139.6814  156.8582 C   0  0  2  0  0  0  0  0  0  0  0  0
  149.1284  140.8966  155.9169 C   0  0  0  0  0  0  0  0  0  0  0  0
  150.3544  141.7501  156.2772 C   0  0  0  0  0  0  0  0  0  0  0  0
  151.6420  140.9144  156.2749 C   0  0  0  0  0  0  0  0  0  0  0  0
  151.5179  139.6978  157.2095 C   0  0  0  0  0  0  0  0  0  0  0  0
  150.2816  138.8166  156.8993 C   0  0  1  0  0  0  0  0  0  0  0  0
  150.1760  137.7581  157.8887 N   0  0  0  0  0  0  0  0  0  0  0  0
  150.2932  136.5314  157.3659 C   0  0  0  0  0  0  0  0  0  0  0  0
  150.2245  135.4804  158.0013 O   0  0  0  0  0  0  0  0  0  0  0  0
  150.4854  136.6542  156.0410 N   0  0  0  0  0  0  0  0  0  0  0  0
  150.6054  135.5221  155.1129 C   0  0  0  0  0  0  0  0  0  0  0  0
  149.4213  134.5463  155.1856 C   0  0  0  0  0  0  0  0  0  0  0  0
  149.2204  133.8619  156.1906 O   0  0  0  0  0  0  0  0  0  0  0  0
  148.6442  134.4891  154.0939 N   0  0  0  0  0  0  0  0  0  0  0  0
  147.4759  133.6301  153.9429 C   0  0  0  0  0  0  0  0  0  0  0  0
  147.5440  132.8091  152.6450 C   0  0  0  0  0  0  0  0  0  0  0  0
  146.3180  133.0120  151.7770 C   0  0  0  0  0  0  0  0  0  0  0  0
  145.4536  131.9371  151.4848 C   0  0  0  0  0  0  0  0  0  0  0  0
  144.3246  132.1752  150.6775 C   0  0  0  0  0  0  0  0  0  0  0  0
  144.1073  133.4820  150.1968 C   0  0  0  0  0  0  0  0  0  0  0  0
  144.9281  134.5189  150.4707 N   0  0  0  0  0  0  0  0  0  0  0  0
  146.0090  134.2819  151.2449 C   0  0  0  0  0  0  0  0  0  0  0  0
  150.4935  137.9398  155.6632 C   0  0  0  0  0  0  0  0  0  0  0  0
  150.6314  138.3668  154.5166 O   0  0  0  0  0  0  0  0  0  0  0  0
  147.7092  138.4877  155.5237 H   0  0  0  0  0  0  0  0  0  0  0  0
  146.8168  139.5386  156.6114 H   0  0  0  0  0  0  0  0  0  0  0  0
  147.5426  138.0648  157.2257 H   0  0  0  0  0  0  0  0  0  0  0  0
  148.8423  140.0820  157.8639 H   0  0  0  0  0  0  0  0  0  0  0  0
  149.2010  140.5683  154.8799 H   0  0  0  0  0  0  0  0  0  0  0  0
  148.2334  141.5171  155.9731 H   0  0  0  0  0  0  0  0  0  0  0  0
  150.4489  142.5790  155.5752 H   0  0  0  0  0  0  0  0  0  0  0  0
  150.2110  142.1955  157.2625 H   0  0  0  0  0  0  0  0  0  0  0  0
  151.8681  140.5898  155.2592 H   0  0  0  0  0  0  0  0  0  0  0  0
  152.4829  141.5338  156.5879 H   0  0  0  0  0  0  0  0  0  0  0  0
  152.4332  139.1062  157.1527 H   0  0  0  0  0  0  0  0  0  0  0  0
  151.4568  140.0516  158.2397 H   0  0  0  0  0  0  0  0  0  0  0  0
  150.0174  137.9429  158.8685 H   0  0  0  0  0  0  0  0  0  0  0  0
  150.6987  135.8908  154.0898 H   0  0  0  0  0  0  0  0  0  0  0  0
  151.5246  134.9689  155.3132 H   0  0  0  0  0  0  0  0  0  0  0  0
  148.8789  135.0830  153.3114 H   0  0  0  0  0  0  0  0  0  0  0  0
  147.3809  132.9717  154.8083 H   0  0  0  0  0  0  0  0  0  0  0  0
  146.5887  134.2639  153.9365 H   0  0  0  0  0  0  0  0  0  0  0  0
  148.4322  133.0833  152.0742 H   0  0  0  0  0  0  0  0  0  0  0  0
  147.6414  131.7465  152.8728 H   0  0  0  0  0  0  0  0  0  0  0  0
  145.6496  130.9481  151.8726 H   0  0  0  0  0  0  0  0  0  0  0  0
  143.6410  131.3757  150.4332 H   0  0  0  0  0  0  0  0  0  0  0  0
  143.2509  133.7002  149.5761 H   0  0  0  0  0  0  0  0  0  0  0  0
  146.6441  135.1317  151.4475 H   0  0  0  0  0  0  0  0  0  0  0  0
  1  2  1  0  0  0  0
  1 26  1  0  0  0  0
  1 27  1  0  0  0  0
  1 28  1  0  0  0  0
  2  7  1  0  0  0  0
  2  3  1  0  0  0  0
  2 29  1  0  0  0  0
  3  4  1  0  0  0  0
  3 30  1  0  0  0  0
  3 31  1  0  0  0  0
  4  5  1  0  0  0  0
  4 32  1  0  0  0  0
  4 33  1  0  0  0  0
  5  6  1  0  0  0  0
  5 34  1  0  0  0  0
  5 35  1  0  0  0  0
  6  7  1  0  0  0  0
  6 36  1  0  0  0  0
  6 37  1  0  0  0  0
  7 24  1  0  0  0  0
  7  8  1  0  0  0  0
  8  9  1  0  0  0  0
  8 38  1  0  0  0  0
  9 10  2  0  0  0  0
  9 11  1  0  0  0  0
 11 12  1  0  0  0  0
 11 24  1  0  0  0  0
 12 13  1  0  0  0  0
 12 39  1  0  0  0  0
 12 40  1  0  0  0  0
 13 14  2  0  0  0  0
 13 15  1  0  0  0  0
 15 16  1  0  0  0  0
 15 41  1  0  0  0  0
 16 17  1  0  0  0  0
 16 42  1  0  0  0  0
 16 43  1  0  0  0  0
 17 18  1  0  0  0  0
 17 44  1  0  0  0  0
 17 45  1  0  0  0  0
 18 23  1  0  0  0  0
 18 19  2  0  0  0  0
 19 20  1  0  0  0  0
 19 46  1  0  0  0  0
 20 21  2  0  0  0  0
 20 47  1  0  0  0  0
 21 22  1  0  0  0  0
 21 48  1  0  0  0  0
 22 23  2  0  0  0  0
 23 49  1  0  0  0  0
 24 25  2  0  0  0  0
M  END
> <s_m_source_file>
AV-unprocessed.smi

> <i_m_source_file_index>
837

> <i_lp_mmshare_version>
43012

> <i_f3d_flags>
0

> <s_epik_input>
W0NIMl0xW0NIMl1bQ0gyXVtDSDJdW0NAQEhdKFtDSDNdKVtDQEBdMTJbTkhdQyg9TylOKEMyPU8pW0NIMl1DKD1PKVtOSF1bQ0gyXVtDSDJdYzNbY0hdW2NIXVtjSF1uW2NIXTM=

> <s_epik_cmdline>
J2VwaWtfcHl0aG9uJywgJy1waCcsICc3LjAnLCAnLXRuJywgJzgnLCAnLW1hJywgJzIwMCcsICctbWV0YWxfYmluZGluZycsICctaW1hZScsICc8aW5maWxlLm1hZT4nLCAnLW9tYWUnLCAnPG91dGZpbGUubWFlPic=

> <r_lp_tautomer_probability>
1

> <r_epik_Ionization_Penalty>
0.0127837

> <r_epik_Ionization_Penalty_Charging>
0

> <r_epik_Ionization_Penalty_Neutral>
0.0127837

> <r_epik_State_Penalty>
0.00987657

> <r_epik_Charging_Adjusted_Penalty>
0.00987657

> <i_epik_Tot_Q>
0

> <i_epik_Tot_abs_Q>
0

> <r_epik_Metal_State_Penalty>
0.0309865

> <b_epik_Metal_Only>
0

> <s_lp_Force_Field>
OPLS_2005

> <r_lp_Energy>
17.4759

> <b_lp_Chiralities_Consistent>
1

> <s_lp_Variant>
AV-unprocessed.smi:837-3

> <Gold.Version>
5.8.1

> <Gold.Id.Protein>
6NUR|6NUR_protein|mol2

> <Gold.PLP.Fitness>
43.4858

> <Gold.PLP.PLP>
-33.3800

> <Gold.PLP.part.hbond>
-2.0000

> <Gold.PLP.part.metal>
0.0000

> <Gold.PLP.part.buried>
-6.9888

> <Gold.PLP.part.nonpolar>
-25.2728

> <Gold.PLP.part.repulsive>
0.9361

> <Gold.PLP.ligand.clash>
0.0000

> <Gold.PLP.ligand.torsion>
0.4761

> <Gold.PLP.Chemscore.Hbond>
1.6720

> <Gold.PLP.Chemscore.CHOScore>
2.0000

> <Gold.PLP.Chemscore.Metal>
0.0000

> <Gold.Chemscore.Hbonds>
donor molecule, donor type, donor heavy atom, donor atom, acceptor molecule, acceptor atom, score
      L1  H    15    41       P1  7948  1.00
      P1  H  6896  6909       L1    10  0.72
      L1  C    21    48       P1 10186  1.00
      L1  C    23    49       P1  7948  0.96

> <Gold.PLP.Chemscore.Internal.Correction>
0.0420

> <Gold.Rescore>
     Score         DG    S(hbond)    S(metal)    S(lipo)     H(rot)  DE(clash)    DE(int)     intcor
     12.39     -14.36       1.34        0.00      78.20       1.86       0.00       1.97       ----

> <Gold.Chemscore.Fitness>
12.3869

> <Gold.Chemscore.DG>
-14.3642

> <Gold.Chemscore.ZeroCoef>
-5.4800

> <Gold.Chemscore.Hbond>
1.3425

> <Gold.Chemscore.Metal>
0.0000

> <Gold.Chemscore.Lipo>
78.2037

> <Gold.Chemscore.Internal_Hbond>
0.0000

> <Gold.Chemscore.DEClash>
0.0033

> <Gold.Chemscore.DEInternal>
1.9739

> <Gold.Chemscore.Rot>
1.8553

> <Gold.Chemscore.Internal.Correction>
   9.000000E+99

> <Gold.Chemscore.Hbonds>
donor molecule, donor type, donor heavy atom, donor atom, acceptor molecule, acceptor atom, score
      L1  H    15    41       P1  7948  0.45
      P1  H  6896  6909       L1    10  0.72

> <Gold.Chemscore.Hbond.Weighted>
-4.4840

> <Gold.Chemscore.Metal.Weighted>
-0.0000

> <Gold.Chemscore.Lipo.Weighted>
-9.1498

> <Gold.Chemscore.Internal_Hbond.Weighted>
0.0000

> <Gold.Chemscore.DEClash.Weighted>
0.0033

> <Gold.Chemscore.DEInternal.Weighted>
1.9739

> <Gold.Chemscore.Rot.Weighted>
4.7497

> <Gold.Chemscore.Internal.Correction.Weighted>
   9.000000E+99

> <Gold.Protein.RotatedTorsions>
[ 6907 6896 6895 6894 ] final   38.38 input  -60.11 | X-H torsion
[ 7974 7965 7964 7962 ] final  177.29 input  175.53 | X-H torsion
[ 8008 7997 7996 7995 ] final -125.18 input   59.86 | X-H torsion
[ 10167 10162 10161 10158 ] final -144.98 input  -65.29 | X-H torsion
[ 10718 10713 10712 10709 ] final   13.00 input   66.30 | X-H torsion
[ 10763 10752 10751 10750 ] final  150.88 input  -60.55 | X-H torsion
[ 11005 11000 10999 10996 ] final  165.97 input  -57.11 | X-H torsion

> <Gold.Protein.ActiveResidues>
 VAL166  LYS551  ARG553  GLY616  TRP617  ASP618  TYR619  PRO620  LYS621  CYS622 
 ASP623  PHE694  ASN695  SER759  ASP760  ASP761  ALA762  ILE779  LEU786  VAL792 
 PHE793  MET794  SER795  GLU796  ALA797  LYS798  CYS799  TRP800  GLU811  SER814 

> <Gold.Protein.RotatedAtoms>
  152.1557  134.8953  160.0544 H   0  0  0  0  0  0  0  0  0  0  0  0  # atno 6907 bound_to 6896
  151.9968  133.3806  159.4174 H   0  0  0  0  0  0  0  0  0  0  0  0  # atno 6908 bound_to 6896
  150.6881  134.3800  159.5073 H   0  0  0  0  0  0  0  0  0  0  0  0  # atno 6909 bound_to 6896
  144.7171  140.0225  143.6440 H   0  0  0  0  0  0  0  0  0  0  0  0  # atno 7974 bound_to 7965
  155.2090  140.0418  157.2930 H   0  0  0  0  0  0  0  0  0  0  0  0  # atno 8008 bound_to 7997
  154.6024  140.2455  155.7746 H   0  0  0  0  0  0  0  0  0  0  0  0  # atno 8009 bound_to 7997
  156.2329  140.2932  156.0245 H   0  0  0  0  0  0  0  0  0  0  0  0  # atno 8010 bound_to 7997
  139.7849  143.8049  152.2643 H   0  0  0  0  0  0  0  0  0  0  0  0  # atno 10167 bound_to 10162
  157.0183  130.6144  149.5717 H   0  0  0  0  0  0  0  0  0  0  0  0  # atno 10718 bound_to 10713
  154.0947  135.2850  155.3264 H   0  0  0  0  0  0  0  0  0  0  0  0  # atno 10763 bound_to 10752
  154.6596  135.5339  153.8005 H   0  0  0  0  0  0  0  0  0  0  0  0  # atno 10764 bound_to 10752
  153.0400  135.6530  154.1114 H   0  0  0  0  0  0  0  0  0  0  0  0  # atno 10765 bound_to 10752
  140.2616  134.7898  157.3595 H   0  0  0  0  0  0  0  0  0  0  0  0  # atno 11005 bound_to 11000
  146.0169  139.3217  143.0836 LP  0  0  0  0  0  0  0  0  0  0  0  0  # atno 17320 bound_to 7965
  145.8615  140.9472  143.0697 LP  0  0  0  0  0  0  0  0  0  0  0  0  # atno 17321 bound_to 7965
  139.8122  144.7331  150.9682 LP  0  0  0  0  0  0  0  0  0  0  0  0  # atno 17342 bound_to 10162
  140.7819  143.4239  151.0798 LP  0  0  0  0  0  0  0  0  0  0  0  0  # atno 17343 bound_to 10162
  156.0111  130.5203  150.7992 LP  0  0  0  0  0  0  0  0  0  0  0  0  # atno 17370 bound_to 10713
  157.5269  131.0934  151.0006 LP  0  0  0  0  0  0  0  0  0  0  0  0  # atno 17371 bound_to 10713
  140.1459  134.4911  155.7996 LP  0  0  0  0  0  0  0  0  0  0  0  0  # atno 17394 bound_to 11000
  141.2189  133.6843  156.7293 LP  0  0  0  0  0  0  0  0  0  0  0  0  # atno 17395 bound_to 11000

$$$$
