AV-unprocessed.smi:817|AV-procd|sdf|3831|dock10
  -GOLD-   22720 1273D 1   1.00000     0.00000
 Structure written by MMmdl.
 48 49  0  0  0  0  0  0  0  0  2 V2000
  150.9287  139.1299  154.6397 C   0  0  0  0  0  0  0  0  0  0  0  0
  149.4303  139.4603  154.6890 C   0  0  1  0  0  0  0  0  0  0  0  0
  149.1976  140.9682  154.8961 C   0  0  0  0  0  0  0  0  0  0  0  0
  147.7029  141.3200  154.8838 C   0  0  0  0  0  0  0  0  0  0  0  0
  147.0218  140.7969  153.6061 C   0  0  0  0  0  0  0  0  0  0  0  0
  147.1709  139.2548  153.4314 C   0  0  2  0  0  0  0  0  0  0  0  0
  146.5377  138.8125  152.0764 C   0  0  0  0  0  0  0  0  0  0  0  0
  146.7187  137.3873  151.7933 N   0  0  0  0  0  0  0  0  0  0  0  0
  145.7653  136.4509  151.6494 C   0  0  0  0  0  0  0  0  0  0  0  0
  144.5761  136.7343  151.7706 O   0  0  0  0  0  0  0  0  0  0  0  0
  146.2416  135.2166  151.3917 N   0  0  0  0  0  0  0  0  0  0  0  0
  145.5209  134.0093  151.1844 C   0  0  0  0  0  0  0  0  0  0  0  0
  144.1080  133.9123  151.1731 C   0  0  0  0  0  0  0  0  0  0  0  0
  143.5153  132.6561  150.9409 C   0  0  0  0  0  0  0  0  0  0  0  0
  144.3536  131.5462  150.7199 C   0  0  0  0  0  0  0  0  0  0  0  0
  145.7008  131.6267  150.7138 N   0  0  0  0  0  0  0  0  0  0  0  0
  146.2618  132.8340  150.9379 C   0  0  0  0  0  0  0  0  0  0  0  0
  146.5133  138.5277  154.5818 N   0  3  0  0  0  0  0  0  0  0  0  0
  145.0340  138.6519  154.6702 C   0  0  0  0  0  0  0  0  0  0  0  0
  146.9227  137.1109  154.7744 C   0  0  0  0  0  0  0  0  0  0  0  0
  148.7063  138.9767  153.4125 C   0  0  0  0  0  0  0  0  0  0  0  0
  151.4160  139.6225  153.7977 H   0  0  0  0  0  0  0  0  0  0  0  0
  151.0912  138.0566  154.5369 H   0  0  0  0  0  0  0  0  0  0  0  0
  151.4331  139.4527  155.5510 H   0  0  0  0  0  0  0  0  0  0  0  0
  149.0147  138.9331  155.5481 H   0  0  0  0  0  0  0  0  0  0  0  0
  149.6431  141.2908  155.8377 H   0  0  0  0  0  0  0  0  0  0  0  0
  149.7041  141.5290  154.1091 H   0  0  0  0  0  0  0  0  0  0  0  0
  147.2169  140.9076  155.7685 H   0  0  0  0  0  0  0  0  0  0  0  0
  147.5823  142.4016  154.9492 H   0  0  0  0  0  0  0  0  0  0  0  0
  145.9791  141.1097  153.5764 H   0  0  0  0  0  0  0  0  0  0  0  0
  147.4823  141.3103  152.7613 H   0  0  0  0  0  0  0  0  0  0  0  0
  145.4676  139.0199  152.0701 H   0  0  0  0  0  0  0  0  0  0  0  0
  146.9770  139.3704  151.2493 H   0  0  0  0  0  0  0  0  0  0  0  0
  147.6742  137.0716  151.7064 H   0  0  0  0  0  0  0  0  0  0  0  0
  147.2464  135.1216  151.3980 H   0  0  0  0  0  0  0  0  0  0  0  0
  143.4700  134.7690  151.3230 H   0  0  0  0  0  0  0  0  0  0  0  0
  142.4410  132.5470  150.9278 H   0  0  0  0  0  0  0  0  0  0  0  0
  143.9305  130.5693  150.5379 H   0  0  0  0  0  0  0  0  0  0  0  0
  147.3417  132.8604  150.9236 H   0  0  0  0  0  0  0  0  0  0  0  0
  144.5333  138.1698  153.8310 H   0  0  0  0  0  0  0  0  0  0  0  0
  144.7013  139.6862  154.7286 H   0  0  0  0  0  0  0  0  0  0  0  0
  144.6714  138.1721  155.5800 H   0  0  0  0  0  0  0  0  0  0  0  0
  146.6411  136.4856  153.9278 H   0  0  0  0  0  0  0  0  0  0  0  0
  146.4378  136.6951  155.6581 H   0  0  0  0  0  0  0  0  0  0  0  0
  147.9920  137.0051  154.9471 H   0  0  0  0  0  0  0  0  0  0  0  0
  149.1615  139.4917  152.5656 H   0  0  0  0  0  0  0  0  0  0  0  0
  148.9159  137.9234  153.2296 H   0  0  0  0  0  0  0  0  0  0  0  0
  146.8564  139.0034  155.4044 H   0  0  0  0  0  0  0  0  0  0  0  0
  1  2  1  0  0  0  0
  1 22  1  0  0  0  0
  1 23  1  0  0  0  0
  1 24  1  0  0  0  0
  2 21  1  0  0  0  0
  2  3  1  0  0  0  0
  2 25  1  0  0  0  0
  3  4  1  0  0  0  0
  3 26  1  0  0  0  0
  3 27  1  0  0  0  0
  4  5  1  0  0  0  0
  4 28  1  0  0  0  0
  4 29  1  0  0  0  0
  5  6  1  0  0  0  0
  5 30  1  0  0  0  0
  5 31  1  0  0  0  0
  6  7  1  0  0  0  0
  6 18  1  0  0  0  0
  6 21  1  0  0  0  0
  7  8  1  0  0  0  0
  7 32  1  0  0  0  0
  7 33  1  0  0  0  0
  8  9  1  0  0  0  0
  8 34  1  0  0  0  0
  9 10  2  0  0  0  0
  9 11  1  0  0  0  0
 11 12  1  0  0  0  0
 11 35  1  0  0  0  0
 12 17  1  0  0  0  0
 12 13  2  0  0  0  0
 13 14  1  0  0  0  0
 13 36  1  0  0  0  0
 14 15  2  0  0  0  0
 14 37  1  0  0  0  0
 15 16  1  0  0  0  0
 15 38  1  0  0  0  0
 16 17  2  0  0  0  0
 17 39  1  0  0  0  0
 18 19  1  0  0  0  0
 18 20  1  0  0  0  0
 18 48  1  0  0  0  0
 19 40  1  0  0  0  0
 19 41  1  0  0  0  0
 19 42  1  0  0  0  0
 20 43  1  0  0  0  0
 20 44  1  0  0  0  0
 20 45  1  0  0  0  0
 21 46  1  0  0  0  0
 21 47  1  0  0  0  0
M  CHG  1  18   1
M  END
> <s_m_source_file>
AV-unprocessed.smi

> <i_m_source_file_index>
817

> <i_lp_mmshare_version>
43012

> <i_f3d_flags>
0

> <s_epik_input>
W0NIM11bQ0BASF0oW0NIMl0xKVtDSDJdW0NIMl1bQ0gyXVtDQF0xKE4oW0NIM10pW0NIM10pW0NIMl1bTkhdQyg9TylbTkhdYzJbY0hdW2NIXVtjSF1uW2NIXTI=

> <s_epik_cmdline>
J2VwaWtfcHl0aG9uJywgJy1waCcsICc3LjAnLCAnLXRuJywgJzgnLCAnLW1hJywgJzIwMCcsICctbWV0YWxfYmluZGluZycsICctaW1hZScsICc8aW5maWxlLm1hZT4nLCAnLW9tYWUnLCAnPG91dGZpbGUubWFlPic=

> <r_lp_tautomer_probability>
1

> <r_epik_Ionization_Penalty>
0.00584939

> <r_epik_Ionization_Penalty_Charging>
0.00160539

> <r_epik_Ionization_Penalty_Neutral>
0.004244

> <r_epik_State_Penalty>
-0

> <r_epik_Charging_Adjusted_Penalty>
0.00160539

> <i_epik_Tot_Q>
1

> <i_epik_Tot_abs_Q>
1

> <r_epik_Metal_State_Penalty>
-0

> <b_epik_Metal_Only>
0

> <s_lp_Force_Field>
OPLS_2005

> <r_lp_Energy>
44.0482

> <b_lp_Chiralities_Consistent>
1

> <s_lp_Variant>
AV-unprocessed.smi:817-4

> <Gold.Version>
5.8.1

> <Gold.Id.Protein>
6NUR|6NUR_protein|mol2

> <Gold.PLP.Fitness>
40.8197

> <Gold.PLP.PLP>
-33.6733

> <Gold.PLP.part.hbond>
-1.9197

> <Gold.PLP.part.metal>
0.0000

> <Gold.PLP.part.buried>
-0.2629

> <Gold.PLP.part.nonpolar>
-34.2244

> <Gold.PLP.part.repulsive>
1.9768

> <Gold.PLP.ligand.clash>
0.0000

> <Gold.PLP.ligand.torsion>
0.2224

> <Gold.PLP.Chemscore.Hbond>
1.8320

> <Gold.PLP.Chemscore.CHOScore>
0.6582

> <Gold.PLP.Chemscore.Metal>
0.0000

> <Gold.Chemscore.Hbonds>
donor molecule, donor type, donor heavy atom, donor atom, acceptor molecule, acceptor atom, score
      L1  H     8    34       P1  7948  0.94
      L1  H    11    35       P1  7948  0.82
      L1  C    17    39       P1 10747  0.64

> <Gold.PLP.Chemscore.Internal.Correction>
0.1207

> <Gold.Rescore>
     Score         DG    S(hbond)    S(metal)    S(lipo)     H(rot)  DE(clash)    DE(int)     intcor
     14.17     -17.85       1.76        0.00      87.10       1.44       1.79       1.88       ----

> <Gold.Chemscore.Fitness>
14.1734

> <Gold.Chemscore.DG>
-17.8505

> <Gold.Chemscore.ZeroCoef>
-5.4800

> <Gold.Chemscore.Hbond>
1.7568

> <Gold.Chemscore.Metal>
0.0000

> <Gold.Chemscore.Lipo>
87.0978

> <Gold.Chemscore.Internal_Hbond>
0.0000

> <Gold.Chemscore.DEClash>
1.7931

> <Gold.Chemscore.DEInternal>
1.8840

> <Gold.Chemscore.Rot>
1.4405

> <Gold.Chemscore.Internal.Correction>
   9.000000E+99

> <Gold.Chemscore.Hbonds>
donor molecule, donor type, donor heavy atom, donor atom, acceptor molecule, acceptor atom, score
      L1  H     8    34       P1  7948  0.90
      L1  H    11    35       P1  7948  0.59

> <Gold.Chemscore.Hbond.Weighted>
-5.8678

> <Gold.Chemscore.Metal.Weighted>
-0.0000

> <Gold.Chemscore.Lipo.Weighted>
-10.1904

> <Gold.Chemscore.Internal_Hbond.Weighted>
0.0000

> <Gold.Chemscore.DEClash.Weighted>
1.7931

> <Gold.Chemscore.DEInternal.Weighted>
1.8840

> <Gold.Chemscore.Rot.Weighted>
3.6878

> <Gold.Chemscore.Internal.Correction.Weighted>
   9.000000E+99

> <Gold.Protein.RotatedTorsions>
[ 6907 6896 6895 6894 ] final -140.39 input  -60.11 | X-H torsion
[ 7974 7965 7964 7962 ] final  -22.97 input  175.53 | X-H torsion
[ 8008 7997 7996 7995 ] final  142.57 input   59.86 | X-H torsion
[ 10167 10162 10161 10158 ] final -161.84 input  -65.29 | X-H torsion
[ 10718 10713 10712 10709 ] final -151.46 input   66.30 | X-H torsion
[ 10763 10752 10751 10750 ] final  133.71 input  -60.55 | X-H torsion
[ 11005 11000 10999 10996 ] final -177.16 input  -57.11 | X-H torsion

> <Gold.Protein.ActiveResidues>
 VAL166  LYS551  ARG553  GLY616  TRP617  ASP618  TYR619  PRO620  LYS621  CYS622 
 ASP623  PHE694  ASN695  SER759  ASP760  ASP761  ALA762  ILE779  LEU786  VAL792 
 PHE793  MET794  SER795  GLU796  ALA797  LYS798  CYS799  TRP800  GLU811  SER814 

> <Gold.Protein.RotatedAtoms>
  151.0601  133.5551  159.2634 H   0  0  0  0  0  0  0  0  0  0  0  0  # atno 6907 bound_to 6896
  151.2529  135.0627  159.9079 H   0  0  0  0  0  0  0  0  0  0  0  0  # atno 6908 bound_to 6896
  152.5396  134.0359  159.8099 H   0  0  0  0  0  0  0  0  0  0  0  0  # atno 6909 bound_to 6896
  146.1644  140.4551  142.8558 H   0  0  0  0  0  0  0  0  0  0  0  0  # atno 7974 bound_to 7965
  156.2947  140.2285  156.4750 H   0  0  0  0  0  0  0  0  0  0  0  0  # atno 8008 bound_to 7997
  154.7902  140.0454  157.1216 H   0  0  0  0  0  0  0  0  0  0  0  0  # atno 8009 bound_to 7997
  154.9654  140.3059  155.5015 H   0  0  0  0  0  0  0  0  0  0  0  0  # atno 8010 bound_to 7997
  139.6435  144.0215  152.2110 H   0  0  0  0  0  0  0  0  0  0  0  0  # atno 10167 bound_to 10162
  156.4595  130.8206  151.2437 H   0  0  0  0  0  0  0  0  0  0  0  0  # atno 10718 bound_to 10713
  153.8116  135.3128  155.3401 H   0  0  0  0  0  0  0  0  0  0  0  0  # atno 10763 bound_to 10752
  154.8049  135.4704  154.0370 H   0  0  0  0  0  0  0  0  0  0  0  0  # atno 10764 bound_to 10752
  153.1750  135.6884  153.8644 H   0  0  0  0  0  0  0  0  0  0  0  0  # atno 10765 bound_to 10752
  140.4441  134.6404  157.4771 H   0  0  0  0  0  0  0  0  0  0  0  0  # atno 11005 bound_to 11000
  144.8072  140.6321  143.6439 LP  0  0  0  0  0  0  0  0  0  0  0  0  # atno 17320 bound_to 7965
  145.4505  139.1524  143.3921 LP  0  0  0  0  0  0  0  0  0  0  0  0  # atno 17321 bound_to 7965
  139.9911  144.6361  150.7814 LP  0  0  0  0  0  0  0  0  0  0  0  0  # atno 17342 bound_to 10162
  140.7503  143.2953  151.3222 LP  0  0  0  0  0  0  0  0  0  0  0  0  # atno 17343 bound_to 10162
  157.7498  131.0112  150.3334 LP  0  0  0  0  0  0  0  0  0  0  0  0  # atno 17370 bound_to 10713
  156.3731  130.3867  149.7160 LP  0  0  0  0  0  0  0  0  0  0  0  0  # atno 17371 bound_to 10713
  140.0050  134.6777  155.9469 LP  0  0  0  0  0  0  0  0  0  0  0  0  # atno 17394 bound_to 11000
  141.1693  133.6537  156.4592 LP  0  0  0  0  0  0  0  0  0  0  0  0  # atno 17395 bound_to 11000

$$$$
