AV-unprocessed.smi:739|AV-procd|sdf|3543|dock8
  -GOLD-   22720 0533D 1   1.00000     0.00000
 Structure written by MMmdl.
 32 34  0  0  0  0  0  0  0  0  1 V2000
  149.5469  140.8268  153.5433 O   0  0  0  0  0  0  0  0  0  0  0  0
  149.2308  141.1385  154.8847 C   0  0  1  0  0  0  0  0  0  0  0  0
  150.3702  142.0011  155.4627 C   0  0  0  0  0  0  0  0  0  0  0  0
  151.1416  141.2910  156.4678 N   0  0  0  0  0  0  0  0  0  0  0  0
  151.4717  139.9853  156.4592 C   0  0  0  0  0  0  0  0  0  0  0  0
  152.1775  139.5282  157.4896 N   0  0  0  0  0  0  0  0  0  0  0  0
  152.3235  140.6707  158.2575 C   0  0  0  0  0  0  0  0  0  0  0  0
  152.9748  140.8653  159.4965 C   0  0  0  0  0  0  0  0  0  0  0  0
  152.9903  142.1382  160.1039 C   0  0  0  0  0  0  0  0  0  0  0  0
  153.6176  142.3066  161.2921 F   0  0  0  0  0  0  0  0  0  0  0  0
  152.3568  143.2346  159.4817 C   0  0  0  0  0  0  0  0  0  0  0  0
  152.3741  144.4528  160.0728 F   0  0  0  0  0  0  0  0  0  0  0  0
  151.7049  143.0654  158.2456 C   0  0  0  0  0  0  0  0  0  0  0  0
  151.6893  141.7931  157.6442 C   0  0  0  0  0  0  0  0  0  0  0  0
  147.8723  141.8140  155.0143 C   0  0  0  0  0  0  0  0  0  0  0  0
  147.3138  142.0331  156.2921 C   0  0  0  0  0  0  0  0  0  0  0  0
  146.0727  142.6858  156.4224 C   0  0  0  0  0  0  0  0  0  0  0  0
  145.3817  143.1219  155.2757 C   0  0  0  0  0  0  0  0  0  0  0  0
  144.1900  143.7520  155.4012 F   0  0  0  0  0  0  0  0  0  0  0  0
  145.9324  142.9045  153.9983 C   0  0  0  0  0  0  0  0  0  0  0  0
  147.1740  142.2526  153.8675 C   0  0  0  0  0  0  0  0  0  0  0  0
  149.1047  140.0245  153.3104 H   0  0  0  0  0  0  0  0  0  0  0  0
  149.2004  140.1884  155.4201 H   0  0  0  0  0  0  0  0  0  0  0  0
  151.0553  142.2982  154.6671 H   0  0  0  0  0  0  0  0  0  0  0  0
  149.9806  142.9225  155.8974 H   0  0  0  0  0  0  0  0  0  0  0  0
  151.1732  139.3325  155.6519 H   0  0  0  0  0  0  0  0  0  0  0  0
  153.4623  140.0333  159.9826 H   0  0  0  0  0  0  0  0  0  0  0  0
  151.2180  143.9030  157.7689 H   0  0  0  0  0  0  0  0  0  0  0  0
  147.8413  141.7120  157.1782 H   0  0  0  0  0  0  0  0  0  0  0  0
  145.6524  142.8548  157.4028 H   0  0  0  0  0  0  0  0  0  0  0  0
  145.4045  143.2413  153.1183 H   0  0  0  0  0  0  0  0  0  0  0  0
  147.5930  142.0999  152.8835 H   0  0  0  0  0  0  0  0  0  0  0  0
  1  2  1  0  0  0  0
  1 22  1  0  0  0  0
  2  3  1  0  0  0  0
  2 15  1  0  0  0  0
  2 23  1  0  0  0  0
  3  4  1  0  0  0  0
  3 24  1  0  0  0  0
  3 25  1  0  0  0  0
  4 14  1  0  0  0  0
  4  5  1  0  0  0  0
  5  6  2  0  0  0  0
  5 26  1  0  0  0  0
  6  7  1  0  0  0  0
  7 14  2  0  0  0  0
  7  8  1  0  0  0  0
  8  9  2  0  0  0  0
  8 27  1  0  0  0  0
  9 10  1  0  0  0  0
  9 11  1  0  0  0  0
 11 12  1  0  0  0  0
 11 13  2  0  0  0  0
 13 14  1  0  0  0  0
 13 28  1  0  0  0  0
 15 21  1  0  0  0  0
 15 16  2  0  0  0  0
 16 17  1  0  0  0  0
 16 29  1  0  0  0  0
 17 18  2  0  0  0  0
 17 30  1  0  0  0  0
 18 19  1  0  0  0  0
 18 20  1  0  0  0  0
 20 21  2  0  0  0  0
 20 31  1  0  0  0  0
 21 32  1  0  0  0  0
M  END
> <s_m_source_file>
AV-unprocessed.smi

> <i_m_source_file_index>
739

> <i_lp_mmshare_version>
43012

> <i_f3d_flags>
0

> <s_epik_input>
W2NIXTFbY0hdYyhGKVtjSF1bY0hdYzFbQ0BIXShbT0hdKVtDSDJdbihbY0hdbjIpYyhjMjMpW2NIXWMoRiljKEYpW2NIXTM=

> <s_epik_cmdline>
J2VwaWtfcHl0aG9uJywgJy1waCcsICc3LjAnLCAnLXRuJywgJzgnLCAnLW1hJywgJzIwMCcsICctbWV0YWxfYmluZGluZycsICctaW1hZScsICc8aW5maWxlLm1hZT4nLCAnLW9tYWUnLCAnPG91dGZpbGUubWFlPic=

> <r_epik_Ionization_Penalty>
0.0156356

> <r_epik_Ionization_Penalty_Charging>
0

> <r_epik_Ionization_Penalty_Neutral>
0.0156356

> <r_epik_State_Penalty>
0.0122974

> <r_epik_Charging_Adjusted_Penalty>
0.0122974

> <i_epik_Tot_Q>
0

> <i_epik_Tot_abs_Q>
0

> <r_epik_Metal_State_Penalty>
1.24258e-05

> <b_epik_Metal_Only>
0

> <s_lp_Force_Field>
OPLS_2005

> <r_lp_Energy>
11.0695

> <b_lp_Chiralities_Consistent>
1

> <s_lp_Variant>
AV-unprocessed.smi:739-2

> <Gold.Version>
5.8.1

> <Gold.Id.Protein>
6NUR|6NUR_protein|mol2

> <Gold.PLP.Fitness>
51.5652

> <Gold.PLP.PLP>
-49.7938

> <Gold.PLP.part.hbond>
-2.9119

> <Gold.PLP.part.metal>
0.0000

> <Gold.PLP.part.buried>
-4.1501

> <Gold.PLP.part.nonpolar>
-41.3081

> <Gold.PLP.part.repulsive>
0.0000

> <Gold.PLP.ligand.clash>
0.0000

> <Gold.PLP.ligand.torsion>
1.1733

> <Gold.PLP.Chemscore.Hbond>
1.3680

> <Gold.PLP.Chemscore.CHOScore>
0.0000

> <Gold.PLP.Chemscore.Metal>
0.0000

> <Gold.Chemscore.Hbonds>
donor molecule, donor type, donor heavy atom, donor atom, acceptor molecule, acceptor atom, score
      P1  H  7989  7998       L1     1  0.33
      P1  H  7997  8008       L1     6  0.01
      P1  H  8011  8017       L1     1  1.00

> <Gold.PLP.Chemscore.Internal.Correction>
0.0141

> <Gold.Rescore>
     Score         DG    S(hbond)    S(metal)    S(lipo)     H(rot)  DE(clash)    DE(int)     intcor
     13.42     -14.67       1.02        0.00      94.76       2.07       0.13       1.12       ----

> <Gold.Chemscore.Fitness>
13.4173

> <Gold.Chemscore.DG>
-14.6698

> <Gold.Chemscore.ZeroCoef>
-5.4800

> <Gold.Chemscore.Hbond>
1.0186

> <Gold.Chemscore.Metal>
0.0000

> <Gold.Chemscore.Lipo>
94.7599

> <Gold.Chemscore.Internal_Hbond>
0.0000

> <Gold.Chemscore.DEClash>
0.1283

> <Gold.Chemscore.DEInternal>
1.1242

> <Gold.Chemscore.Rot>
2.0700

> <Gold.Chemscore.Internal.Correction>
   9.000000E+99

> <Gold.Chemscore.Hbonds>
donor molecule, donor type, donor heavy atom, donor atom, acceptor molecule, acceptor atom, score
      L1  H     1    22       P1  7957  0.02
      P1  H  7989  7998       L1     1  0.15
      P1  H  8011  8017       L1     1  0.85

> <Gold.Chemscore.Hbond.Weighted>
-3.4022

> <Gold.Chemscore.Metal.Weighted>
-0.0000

> <Gold.Chemscore.Lipo.Weighted>
-11.0869

> <Gold.Chemscore.Internal_Hbond.Weighted>
0.0000

> <Gold.Chemscore.DEClash.Weighted>
0.1283

> <Gold.Chemscore.DEInternal.Weighted>
1.1242

> <Gold.Chemscore.Rot.Weighted>
5.2992

> <Gold.Chemscore.Internal.Correction.Weighted>
   9.000000E+99

> <Gold.Protein.RotatedTorsions>
[ 6907 6896 6895 6894 ] final  163.18 input  -60.11 | X-H torsion
[ 7974 7965 7964 7962 ] final  118.57 input  175.53 | X-H torsion
[ 8008 7997 7996 7995 ] final  -63.73 input   59.86 | X-H torsion
[ 10167 10162 10161 10158 ] final   57.31 input  -65.29 | X-H torsion
[ 10718 10713 10712 10709 ] final  119.21 input   66.30 | X-H torsion
[ 10763 10752 10751 10750 ] final -105.66 input  -60.55 | X-H torsion
[ 11005 11000 10999 10996 ] final    8.38 input  -57.11 | X-H torsion

> <Gold.Protein.ActiveResidues>
 VAL166  LYS551  ARG553  GLY616  TRP617  ASP618  TYR619  PRO620  LYS621  CYS622 
 ASP623  PHE694  ASN695  SER759  ASP760  ASP761  ALA762  ILE779  LEU786  VAL792 
 PHE793  MET794  SER795  GLU796  ALA797  LYS798  CYS799  TRP800  GLU811  SER814 

> <Gold.Protein.RotatedAtoms>
  151.9291  133.3606  159.3923 H   0  0  0  0  0  0  0  0  0  0  0  0  # atno 6907 bound_to 6896
  150.7021  134.4556  159.5366 H   0  0  0  0  0  0  0  0  0  0  0  0  # atno 6908 bound_to 6896
  152.2194  134.8427  160.0538 H   0  0  0  0  0  0  0  0  0  0  0  0  # atno 6909 bound_to 6896
  145.1536  139.3196  143.4554 H   0  0  0  0  0  0  0  0  0  0  0  0  # atno 7974 bound_to 7965
  154.4571  140.0968  156.6788 H   0  0  0  0  0  0  0  0  0  0  0  0  # atno 8008 bound_to 7997
  155.5105  140.3476  155.4369 H   0  0  0  0  0  0  0  0  0  0  0  0  # atno 8009 bound_to 7997
  156.0799  140.1370  156.9714 H   0  0  0  0  0  0  0  0  0  0  0  0  # atno 8010 bound_to 7997
  140.1994  144.4004  150.6536 H   0  0  0  0  0  0  0  0  0  0  0  0  # atno 10167 bound_to 10162
  157.5977  131.1055  150.7864 H   0  0  0  0  0  0  0  0  0  0  0  0  # atno 10718 bound_to 10713
  154.7961  135.4741  154.0165 H   0  0  0  0  0  0  0  0  0  0  0  0  # atno 10763 bound_to 10752
  153.1706  135.6824  153.8620 H   0  0  0  0  0  0  0  0  0  0  0  0  # atno 10764 bound_to 10752
  153.8203  135.3205  155.3387 H   0  0  0  0  0  0  0  0  0  0  0  0  # atno 10765 bound_to 10752
  140.5376  134.0406  155.7893 H   0  0  0  0  0  0  0  0  0  0  0  0  # atno 11005 bound_to 11000
  146.3491  140.1619  142.8590 LP  0  0  0  0  0  0  0  0  0  0  0  0  # atno 17320 bound_to 7965
  145.0405  140.8941  143.5055 LP  0  0  0  0  0  0  0  0  0  0  0  0  # atno 17321 bound_to 7965
  140.6401  143.2202  151.6309 LP  0  0  0  0  0  0  0  0  0  0  0  0  # atno 17342 bound_to 10162
  139.5223  144.3166  152.0947 LP  0  0  0  0  0  0  0  0  0  0  0  0  # atno 17343 bound_to 10162
  156.8271  130.5003  149.5336 LP  0  0  0  0  0  0  0  0  0  0  0  0  # atno 17370 bound_to 10713
  156.1043  130.5993  150.9946 LP  0  0  0  0  0  0  0  0  0  0  0  0  # atno 17371 bound_to 10713
  141.1246  133.9405  157.2662 LP  0  0  0  0  0  0  0  0  0  0  0  0  # atno 17394 bound_to 11000
  139.9521  135.0173  156.9023 LP  0  0  0  0  0  0  0  0  0  0  0  0  # atno 17395 bound_to 11000

$$$$
