AV-unprocessed.smi:6|AV-procd|sdf|40|dock5
  -GOLD-   2262015153D 1   1.00000     0.00000
 Structure written by MMmdl.
 38 39  0  0  0  0  0  0  0  0  2 V2000
  148.9635  141.7617  156.4057 C   0  0  0  0  0  0  0  0  0  0  0  0
  150.4828  141.6457  156.6035 C   0  0  0  0  0  0  0  0  0  0  0  0
  150.9444  140.2062  156.8773 C   0  0  0  0  0  0  0  0  0  0  0  0
  150.9979  142.6174  157.6557 C   0  0  0  0  0  0  0  0  0  0  0  0
  150.8649  143.9370  157.4441 N   0  3  0  0  0  0  0  0  0  0  0  0
  151.3273  144.8151  158.3674 C   0  0  0  0  0  0  0  0  0  0  0  0
  151.9439  144.3524  159.5449 C   0  0  0  0  0  0  0  0  0  0  0  0
  152.0493  142.9600  159.7045 C   0  0  0  0  0  0  0  0  0  0  0  0
  152.6553  142.4393  160.8561 N   0  0  0  0  0  0  0  0  0  0  0  0
  152.9420  143.3095  161.9907 C   0  0  0  0  0  0  0  0  0  0  0  0
  153.9809  142.7294  162.9381 C   0  0  0  0  0  0  0  0  0  0  0  0
  154.4588  143.4341  163.9956 C   0  0  0  0  0  0  0  0  0  0  0  0
  155.3866  142.9310  164.8939 N   0  0  0  0  0  0  0  0  0  0  0  0
  155.8902  143.6845  166.0097 C   0  0  0  0  0  0  0  0  0  0  0  0
  155.8761  141.6177  164.7367 C   0  0  0  0  0  0  0  0  0  0  0  0
  156.7019  141.1112  165.4965 O   0  0  0  0  0  0  0  0  0  0  0  0
  155.3746  140.8884  163.6595 N   0  0  0  0  0  0  0  0  0  0  0  0
  154.4397  141.3509  162.7281 C   0  0  0  0  0  0  0  0  0  0  0  0
  154.0689  140.6075  161.8213 O   0  0  0  0  0  0  0  0  0  0  0  0
  151.5768  142.1191  158.7579 N   0  0  0  0  0  0  0  0  0  0  0  0
  155.7153  139.9449  163.5432 H   0  0  0  0  0  0  0  0  0  0  0  0
  148.6791  142.7785  156.1340 H   0  0  0  0  0  0  0  0  0  0  0  0
  148.4215  141.4950  157.3136 H   0  0  0  0  0  0  0  0  0  0  0  0
  148.6204  141.0993  155.6105 H   0  0  0  0  0  0  0  0  0  0  0  0
  150.9365  141.9366  155.6545 H   0  0  0  0  0  0  0  0  0  0  0  0
  152.0318  140.1470  156.9332 H   0  0  0  0  0  0  0  0  0  0  0  0
  150.6176  139.5324  156.0850 H   0  0  0  0  0  0  0  0  0  0  0  0
  150.5412  139.8303  157.8182 H   0  0  0  0  0  0  0  0  0  0  0  0
  151.1894  145.8604  158.1326 H   0  0  0  0  0  0  0  0  0  0  0  0
  152.3186  145.0405  160.2888 H   0  0  0  0  0  0  0  0  0  0  0  0
  153.1477  141.5598  160.7923 H   0  0  0  0  0  0  0  0  0  0  0  0
  153.2839  144.2745  161.6151 H   0  0  0  0  0  0  0  0  0  0  0  0
  152.0285  143.4966  162.5570 H   0  0  0  0  0  0  0  0  0  0  0  0
  154.0969  144.4419  164.1417 H   0  0  0  0  0  0  0  0  0  0  0  0
  156.9705  143.7816  165.8849 H   0  0  0  0  0  0  0  0  0  0  0  0
  155.6280  143.1442  166.9216 H   0  0  0  0  0  0  0  0  0  0  0  0
  155.4180  144.6674  166.0033 H   0  0  0  0  0  0  0  0  0  0  0  0
  150.4216  144.2862  156.5940 H   0  0  0  0  0  0  0  0  0  0  0  0
  1  2  1  0  0  0  0
  1 22  1  0  0  0  0
  1 23  1  0  0  0  0
  1 24  1  0  0  0  0
  2  3  1  0  0  0  0
  2  4  1  0  0  0  0
  2 25  1  0  0  0  0
  3 26  1  0  0  0  0
  3 27  1  0  0  0  0
  3 28  1  0  0  0  0
  4 20  1  0  0  0  0
  4  5  2  0  0  0  0
  5  6  1  0  0  0  0
  5 38  1  0  0  0  0
  6  7  2  0  0  0  0
  6 29  1  0  0  0  0
  7  8  1  0  0  0  0
  7 30  1  0  0  0  0
  8  9  1  0  0  0  0
  8 20  2  0  0  0  0
  9 10  1  0  0  0  0
  9 31  1  0  0  0  0
 10 11  1  0  0  0  0
 10 32  1  0  0  0  0
 10 33  1  0  0  0  0
 11 18  1  0  0  0  0
 11 12  2  0  0  0  0
 12 13  1  0  0  0  0
 12 34  1  0  0  0  0
 13 14  1  0  0  0  0
 13 15  1  0  0  0  0
 14 35  1  0  0  0  0
 14 36  1  0  0  0  0
 14 37  1  0  0  0  0
 15 16  2  0  0  0  0
 15 17  1  0  0  0  0
 17 21  1  0  0  0  0
 17 18  1  0  0  0  0
 18 19  2  0  0  0  0
M  CHG  1   5   1
M  END
> <s_m_source_file>
AV-unprocessed.smi

> <i_m_source_file_index>
6

> <i_lp_mmshare_version>
43012

> <i_f3d_flags>
0

> <s_epik_input>
W0NIM11bQ0hdKFtDSDNdKWMxbltjSF1bY0hdYyhuMSlbTkhdW0NIMl1jMltjSF1uKFtDSDNdKWMoPU8pW25IXWMyPU8=

> <s_epik_cmdline>
J2VwaWtfcHl0aG9uJywgJy1waCcsICc3LjAnLCAnLXRuJywgJzgnLCAnLW1hJywgJzIwMCcsICctbWV0YWxfYmluZGluZycsICctaW1hZScsICc8aW5maWxlLm1hZT4nLCAnLW9tYWUnLCAnPG91dGZpbGUubWFlPic=

> <r_lp_tautomer_probability>
0.998874

> <r_epik_Ionization_Penalty>
0.537311

> <r_epik_Ionization_Penalty_Charging>
0.537291

> <r_epik_Ionization_Penalty_Neutral>
2.09214e-05

> <r_epik_State_Penalty>
0.545757

> <r_epik_Charging_Adjusted_Penalty>
1.08305

> <i_epik_Tot_Q>
1

> <i_epik_Tot_abs_Q>
1

> <r_epik_Metal_State_Penalty>
0.947272

> <b_epik_Metal_Only>
0

> <s_lp_Force_Field>
OPLS_2005

> <r_lp_Energy>
10.386

> <b_lp_Chiralities_Consistent>
1

> <s_lp_Variant>
AV-unprocessed.smi:6-2

> <Gold.Version>
5.8.1

> <Gold.Id.Protein>
6NUR|6NUR_protein|mol2

> <Gold.PLP.Fitness>
50.1462

> <Gold.PLP.PLP>
-44.7429

> <Gold.PLP.part.hbond>
-2.0000

> <Gold.PLP.part.metal>
0.0000

> <Gold.PLP.part.buried>
-3.9702

> <Gold.PLP.part.nonpolar>
-38.1016

> <Gold.PLP.part.repulsive>
0.1115

> <Gold.PLP.ligand.clash>
0.0000

> <Gold.PLP.ligand.torsion>
0.3102

> <Gold.PLP.Chemscore.Hbond>
1.9840

> <Gold.PLP.Chemscore.CHOScore>
0.0000

> <Gold.PLP.Chemscore.Metal>
0.0000

> <Gold.Chemscore.Hbonds>
donor molecule, donor type, donor heavy atom, donor atom, acceptor molecule, acceptor atom, score
      L1  H     5    38       P1  8028  2.00

> <Gold.PLP.Chemscore.Internal.Correction>
0.0719

> <Gold.Rescore>
     Score         DG    S(hbond)    S(metal)    S(lipo)     H(rot)  DE(clash)    DE(int)     intcor
     12.06     -14.33       0.98        0.00      84.37       1.68       0.20       2.06       ----

> <Gold.Chemscore.Fitness>
12.0638

> <Gold.Chemscore.DG>
-14.3265

> <Gold.Chemscore.ZeroCoef>
-5.4800

> <Gold.Chemscore.Hbond>
0.9799

> <Gold.Chemscore.Metal>
0.0000

> <Gold.Chemscore.Lipo>
84.3718

> <Gold.Chemscore.Internal_Hbond>
0.0000

> <Gold.Chemscore.DEClash>
0.2010

> <Gold.Chemscore.DEInternal>
2.0618

> <Gold.Chemscore.Rot>
1.6789

> <Gold.Chemscore.Internal.Correction>
   9.000000E+99

> <Gold.Chemscore.Hbonds>
donor molecule, donor type, donor heavy atom, donor atom, acceptor molecule, acceptor atom, score
      L1  H     5    38       P1  8028  0.94

> <Gold.Chemscore.Hbond.Weighted>
-3.2730

> <Gold.Chemscore.Metal.Weighted>
-0.0000

> <Gold.Chemscore.Lipo.Weighted>
-9.8715

> <Gold.Chemscore.Internal_Hbond.Weighted>
0.0000

> <Gold.Chemscore.DEClash.Weighted>
0.2010

> <Gold.Chemscore.DEInternal.Weighted>
2.0618

> <Gold.Chemscore.Rot.Weighted>
4.2980

> <Gold.Chemscore.Internal.Correction.Weighted>
   9.000000E+99

> <Gold.Protein.RotatedTorsions>
[ 6907 6896 6895 6894 ] final   -3.30 input  -60.11 | X-H torsion
[ 7974 7965 7964 7962 ] final   -5.67 input  175.53 | X-H torsion
[ 8008 7997 7996 7995 ] final -144.78 input   59.86 | X-H torsion
[ 10167 10162 10161 10158 ] final  -80.34 input  -65.29 | X-H torsion
[ 10718 10713 10712 10709 ] final -140.50 input   66.30 | X-H torsion
[ 10763 10752 10751 10750 ] final  -70.90 input  -60.55 | X-H torsion
[ 11005 11000 10999 10996 ] final   52.46 input  -57.11 | X-H torsion

> <Gold.Protein.ActiveResidues>
 VAL166  LYS551  ARG553  GLY616  TRP617  ASP618  TYR619  PRO620  LYS621  CYS622 
 ASP623  PHE694  ASN695  SER759  ASP760  ASP761  ALA762  ILE779  LEU786  VAL792 
 PHE793  MET794  SER795  GLU796  ALA797  LYS798  CYS799  TRP800  GLU811  SER814 

> <Gold.Protein.RotatedAtoms>
  151.5159  135.1066  159.9865 H   0  0  0  0  0  0  0  0  0  0  0  0  # atno 6907 bound_to 6896
  152.4641  133.7881  159.6898 H   0  0  0  0  0  0  0  0  0  0  0  0  # atno 6908 bound_to 6896
  150.8617  133.7570  159.3015 H   0  0  0  0  0  0  0  0  0  0  0  0  # atno 6909 bound_to 6896
  146.2348  140.2056  142.8334 H   0  0  0  0  0  0  0  0  0  0  0  0  # atno 7974 bound_to 7965
  155.5325  140.0601  157.2886 H   0  0  0  0  0  0  0  0  0  0  0  0  # atno 8008 bound_to 7997
  154.4479  140.1933  156.0553 H   0  0  0  0  0  0  0  0  0  0  0  0  # atno 8009 bound_to 7997
  156.0642  140.3268  155.7502 H   0  0  0  0  0  0  0  0  0  0  0  0  # atno 8010 bound_to 7997
  140.4512  143.2482  151.8486 H   0  0  0  0  0  0  0  0  0  0  0  0  # atno 10167 bound_to 10162
  156.3231  130.7545  151.1647 H   0  0  0  0  0  0  0  0  0  0  0  0  # atno 10718 bound_to 10713
  154.4242  135.5979  153.6028 H   0  0  0  0  0  0  0  0  0  0  0  0  # atno 10763 bound_to 10752
  152.9795  135.5959  154.3918 H   0  0  0  0  0  0  0  0  0  0  0  0  # atno 10764 bound_to 10752
  154.3747  135.2841  155.2224 H   0  0  0  0  0  0  0  0  0  0  0  0  # atno 10765 bound_to 10752
  140.0848  134.5290  155.8911 H   0  0  0  0  0  0  0  0  0  0  0  0  # atno 11005 bound_to 11000
  144.9747  140.8402  143.5434 LP  0  0  0  0  0  0  0  0  0  0  0  0  # atno 17320 bound_to 7965
  145.2042  139.2237  143.5177 LP  0  0  0  0  0  0  0  0  0  0  0  0  # atno 17321 bound_to 7965
  139.4797  144.5118  151.8922 LP  0  0  0  0  0  0  0  0  0  0  0  0  # atno 17342 bound_to 10162
  140.4205  144.2249  150.5887 LP  0  0  0  0  0  0  0  0  0  0  0  0  # atno 17343 bound_to 10162
  157.7416  131.0502  150.5087 LP  0  0  0  0  0  0  0  0  0  0  0  0  # atno 17370 bound_to 10713
  156.5242  130.4169  149.6235 LP  0  0  0  0  0  0  0  0  0  0  0  0  # atno 17371 bound_to 10713
  141.2059  133.6650  156.6207 LP  0  0  0  0  0  0  0  0  0  0  0  0  # atno 17394 bound_to 11000
  140.3437  134.7828  157.4416 LP  0  0  0  0  0  0  0  0  0  0  0  0  # atno 17395 bound_to 11000

$$$$
