AV-unprocessed.smi:215|AV-procd|sdf|1656|dock2
  -GOLD-   2262020 43D 1   1.00000     0.00000
 Structure written by MMmdl.
 59 62  0  0  0  0  0  0  0  0  2 V2000
  145.3312  137.7632  156.3918 C   0  0  0  0  0  0  0  0  0  0  0  0
  143.9030  137.9729  156.9216 C   0  0  2  0  0  0  0  0  0  0  0  0
  143.8485  138.4736  158.3698 C   0  0  1  0  0  0  0  0  0  0  0  0
  144.2733  139.8891  158.5841 N   0  3  1  0  0  0  0  0  0  0  0  0
  143.6144  140.8958  157.7111 C   0  0  0  0  0  0  0  0  0  0  0  0
  144.2495  140.2731  160.0204 C   0  0  0  0  0  0  0  0  0  0  0  0
  144.3946  141.7904  160.2267 C   0  0  0  0  0  0  0  0  0  0  0  0
  145.7516  142.1643  160.1170 O   0  0  0  0  0  0  0  0  0  0  0  0
  142.4078  138.1414  158.7675 C   0  0  0  0  0  0  0  0  0  0  0  0
  142.1445  136.8224  158.0305 C   0  0  0  0  0  0  0  0  0  0  0  0
  143.1287  136.7352  156.9502 N   0  0  0  0  0  0  0  0  0  0  0  0
  142.6602  136.3351  155.7461 C   0  0  0  0  0  0  0  0  0  0  0  0
  141.3839  136.6250  155.3792 N   0  0  0  0  0  0  0  0  0  0  0  0
  140.9331  136.2427  154.1806 C   0  0  0  0  0  0  0  0  0  0  0  0
  141.5801  135.5831  153.2174 N   0  0  0  0  0  0  0  0  0  0  0  0
  142.8640  135.2971  153.5811 C   0  0  0  0  0  0  0  0  0  0  0  0
  143.4771  135.6362  154.8195 C   0  0  0  0  0  0  0  0  0  0  0  0
  144.7917  135.1908  154.8416 N   0  0  0  0  0  0  0  0  0  0  0  0
  144.9490  134.6178  153.6794 C   0  0  0  0  0  0  0  0  0  0  0  0
  143.8436  134.6352  152.8569 N   0  0  0  0  0  0  0  0  0  0  0  0
  143.7563  134.0777  151.5356 C   0  0  0  0  0  0  0  0  0  0  0  0
  143.9517  132.5795  151.2855 C   0  0  0  0  0  0  0  0  0  0  0  0
  144.5846  132.9043  149.9117 C   0  0  0  0  0  0  0  0  0  0  0  0
  145.8091  132.0613  149.5031 C   0  0  0  0  0  0  0  0  0  0  0  0
  146.8061  132.0287  150.5049 O   0  0  0  0  0  0  0  0  0  0  0  0
  143.5881  132.8597  148.7379 C   0  0  0  0  0  0  0  0  0  0  0  0
  143.4765  134.1161  148.1000 O   0  0  0  0  0  0  0  0  0  0  0  0
  144.8563  134.3109  150.4967 C   0  0  0  0  0  0  0  0  0  0  0  0
  143.3842  138.6681  156.2625 H   0  0  0  0  0  0  0  0  0  0  0  0
  144.5146  137.8349  158.9540 H   0  0  0  0  0  0  0  0  0  0  0  0
  145.8978  138.6941  156.4167 H   0  0  0  0  0  0  0  0  0  0  0  0
  145.3243  137.4137  155.3591 H   0  0  0  0  0  0  0  0  0  0  0  0
  145.8715  137.0272  156.9884 H   0  0  0  0  0  0  0  0  0  0  0  0
  142.5494  140.9836  157.9247 H   0  0  0  0  0  0  0  0  0  0  0  0
  143.7368  140.6641  156.6549 H   0  0  0  0  0  0  0  0  0  0  0  0
  144.0551  141.8811  157.8560 H   0  0  0  0  0  0  0  0  0  0  0  0
  143.3251  139.9150  160.4759 H   0  0  0  0  0  0  0  0  0  0  0  0
  145.0597  139.7806  160.5602 H   0  0  0  0  0  0  0  0  0  0  0  0
  143.7959  142.3639  159.5200 H   0  0  0  0  0  0  0  0  0  0  0  0
  144.0474  142.0604  161.2244 H   0  0  0  0  0  0  0  0  0  0  0  0
  145.8714  142.9972  160.5487 H   0  0  0  0  0  0  0  0  0  0  0  0
  142.2711  138.0536  159.8456 H   0  0  0  0  0  0  0  0  0  0  0  0
  141.7082  138.8910  158.3997 H   0  0  0  0  0  0  0  0  0  0  0  0
  142.3149  135.9807  158.7023 H   0  0  0  0  0  0  0  0  0  0  0  0
  141.1096  136.7578  157.6919 H   0  0  0  0  0  0  0  0  0  0  0  0
  139.9085  136.5037  153.9599 H   0  0  0  0  0  0  0  0  0  0  0  0
  145.8856  134.1637  153.3894 H   0  0  0  0  0  0  0  0  0  0  0  0
  142.7942  134.3963  151.1298 H   0  0  0  0  0  0  0  0  0  0  0  0
  144.6440  132.1203  151.9917 H   0  0  0  0  0  0  0  0  0  0  0  0
  143.0231  132.0102  151.2365 H   0  0  0  0  0  0  0  0  0  0  0  0
  145.5175  131.0327  149.2889 H   0  0  0  0  0  0  0  0  0  0  0  0
  146.2706  132.4530  148.5964 H   0  0  0  0  0  0  0  0  0  0  0  0
  147.4999  131.4537  150.2202 H   0  0  0  0  0  0  0  0  0  0  0  0
  143.8872  132.1165  147.9980 H   0  0  0  0  0  0  0  0  0  0  0  0
  142.5930  132.5689  149.0752 H   0  0  0  0  0  0  0  0  0  0  0  0
  144.3212  134.3500  147.7464 H   0  0  0  0  0  0  0  0  0  0  0  0
  144.6576  135.1388  149.8158 H   0  0  0  0  0  0  0  0  0  0  0  0
  145.8457  134.4127  150.9438 H   0  0  0  0  0  0  0  0  0  0  0  0
  145.2510  139.9009  158.3293 H   0  0  0  0  0  0  0  0  0  0  0  0
  1  2  1  0  0  0  0
  1 31  1  0  0  0  0
  1 32  1  0  0  0  0
  1 33  1  0  0  0  0
  2 29  1  0  0  0  0
  2 11  1  0  0  0  0
  2  3  1  0  0  0  0
  3 30  1  0  0  0  0
  3  4  1  0  0  0  0
  3  9  1  0  0  0  0
  4  5  1  0  0  0  0
  4  6  1  0  0  0  0
  4 59  1  0  0  0  0
  5 34  1  0  0  0  0
  5 35  1  0  0  0  0
  5 36  1  0  0  0  0
  6  7  1  0  0  0  0
  6 37  1  0  0  0  0
  6 38  1  0  0  0  0
  7  8  1  0  0  0  0
  7 39  1  0  0  0  0
  7 40  1  0  0  0  0
  8 41  1  0  0  0  0
  9 10  1  0  0  0  0
  9 42  1  0  0  0  0
  9 43  1  0  0  0  0
 10 11  1  0  0  0  0
 10 44  1  0  0  0  0
 10 45  1  0  0  0  0
 11 12  1  0  0  0  0
 12 17  1  0  0  0  0
 12 13  2  0  0  0  0
 13 14  1  0  0  0  0
 14 15  2  0  0  0  0
 14 46  1  0  0  0  0
 15 16  1  0  0  0  0
 16 20  1  0  0  0  0
 16 17  2  0  0  0  0
 17 18  1  0  0  0  0
 18 19  2  0  0  0  0
 19 20  1  0  0  0  0
 19 47  1  0  0  0  0
 20 21  1  0  0  0  0
 21 28  1  0  0  0  0
 21 22  1  0  0  0  0
 21 48  1  0  0  0  0
 22 23  1  0  0  0  0
 22 49  1  0  0  0  0
 22 50  1  0  0  0  0
 23 24  1  0  0  0  0
 23 26  1  0  0  0  0
 23 28  1  0  0  0  0
 24 25  1  0  0  0  0
 24 51  1  0  0  0  0
 24 52  1  0  0  0  0
 25 53  1  0  0  0  0
 26 27  1  0  0  0  0
 26 54  1  0  0  0  0
 26 55  1  0  0  0  0
 27 56  1  0  0  0  0
 28 57  1  0  0  0  0
 28 58  1  0  0  0  0
M  CHG  1   4   1
M  END
> <s_m_source_file>
AV-unprocessed.smi

> <i_m_source_file_index>
215

> <i_lp_mmshare_version>
43012

> <i_f3d_flags>
0

> <s_epik_input>
W09IXVtDSDJdW0NIMl1OKFtDSDNdKVtDQEBIXShbQ0BIXTFbQ0gzXSlbQ0gyXVtDSDJdTjFjKG5bY0hdbjIpYyhjMjMpbltjSF1uM1tDSF0oW0NIMl00KVtDSDJdQzQoW0NIMl1bT0hdKVtDSDJdW09IXQ==

> <s_epik_cmdline>
J2VwaWtfcHl0aG9uJywgJy1waCcsICc3LjAnLCAnLXRuJywgJzgnLCAnLW1hJywgJzIwMCcsICctbWV0YWxfYmluZGluZycsICctaW1hZScsICc8aW5maWxlLm1hZT4nLCAnLW9tYWUnLCAnPG91dGZpbGUubWFlPic=

> <r_lp_tautomer_probability>
1

> <r_epik_Ionization_Penalty>
0.0036237

> <r_epik_Ionization_Penalty_Charging>
0.0032725

> <r_epik_Ionization_Penalty_Neutral>
0.000351196

> <r_epik_State_Penalty>
-0

> <r_epik_Charging_Adjusted_Penalty>
0.0032725

> <i_epik_Tot_Q>
1

> <i_epik_Tot_abs_Q>
1

> <r_epik_Metal_State_Penalty>
-0

> <b_epik_Metal_Only>
0

> <s_lp_Force_Field>
OPLS_2005

> <r_lp_Energy>
69.5021

> <b_lp_Chiralities_Consistent>
1

> <s_lp_Variant>
AV-unprocessed.smi:215-7

> <Gold.Version>
5.8.1

> <Gold.Id.Protein>
6NUR|6NUR_protein|mol2

> <Gold.PLP.Fitness>
43.3607

> <Gold.PLP.PLP>
-35.1291

> <Gold.PLP.part.hbond>
-6.1888

> <Gold.PLP.part.metal>
0.0000

> <Gold.PLP.part.buried>
-5.8098

> <Gold.PLP.part.nonpolar>
-23.4726

> <Gold.PLP.part.repulsive>
0.2812

> <Gold.PLP.ligand.clash>
0.0000

> <Gold.PLP.ligand.torsion>
2.2109

> <Gold.PLP.Chemscore.Hbond>
4.0000

> <Gold.PLP.Chemscore.CHOScore>
0.0000

> <Gold.PLP.Chemscore.Metal>
0.0000

> <Gold.Chemscore.Hbonds>
donor molecule, donor type, donor heavy atom, donor atom, acceptor molecule, acceptor atom, score
      L1  H    25    53       P1 10747  1.00
      L1  H    27    56       P1  7921  1.00
      P1  H  6934  6946       L1     8  1.00
      P1  H 10192 10197       L1    27  1.00

> <Gold.PLP.Chemscore.Internal.Correction>
0.6533

> <Gold.Rescore>
     Score         DG    S(hbond)    S(metal)    S(lipo)     H(rot)  DE(clash)    DE(int)     intcor
     10.78     -13.44       3.88        0.00      62.45       4.81       0.37       2.29       ----

> <Gold.Chemscore.Fitness>
10.7813

> <Gold.Chemscore.DG>
-13.4379

> <Gold.Chemscore.ZeroCoef>
-5.4800

> <Gold.Chemscore.Hbond>
3.8817

> <Gold.Chemscore.Metal>
0.0000

> <Gold.Chemscore.Lipo>
62.4451

> <Gold.Chemscore.Internal_Hbond>
0.0000

> <Gold.Chemscore.DEClash>
0.3686

> <Gold.Chemscore.DEInternal>
2.2879

> <Gold.Chemscore.Rot>
4.8098

> <Gold.Chemscore.Internal.Correction>
   9.000000E+99

> <Gold.Chemscore.Hbonds>
donor molecule, donor type, donor heavy atom, donor atom, acceptor molecule, acceptor atom, score
      L1  H    25    53       P1 10747  0.96
      L1  H    27    56       P1  7921  1.00
      P1  H  6934  6946       L1     8  0.72
      P1  H 10192 10197       L1    27  0.70

> <Gold.Chemscore.Hbond.Weighted>
-12.9648

> <Gold.Chemscore.Metal.Weighted>
-0.0000

> <Gold.Chemscore.Lipo.Weighted>
-7.3061

> <Gold.Chemscore.Internal_Hbond.Weighted>
0.0000

> <Gold.Chemscore.DEClash.Weighted>
0.3686

> <Gold.Chemscore.DEInternal.Weighted>
2.2879

> <Gold.Chemscore.Rot.Weighted>
12.3130

> <Gold.Chemscore.Internal.Correction.Weighted>
   9.000000E+99

> <Gold.Protein.RotatedTorsions>
[ 6907 6896 6895 6894 ] final   40.79 input  -60.11 | X-H torsion
[ 7974 7965 7964 7962 ] final  -49.18 input  175.53 | X-H torsion
[ 8008 7997 7996 7995 ] final   54.09 input   59.86 | X-H torsion
[ 10167 10162 10161 10158 ] final   82.26 input  -65.29 | X-H torsion
[ 10718 10713 10712 10709 ] final  172.55 input   66.30 | X-H torsion
[ 10763 10752 10751 10750 ] final  163.90 input  -60.55 | X-H torsion
[ 11005 11000 10999 10996 ] final -113.83 input  -57.11 | X-H torsion

> <Gold.Protein.ActiveResidues>
 VAL166  LYS551  ARG553  GLY616  TRP617  ASP618  TYR619  PRO620  LYS621  CYS622 
 ASP623  PHE694  ASN695  SER759  ASP760  ASP761  ALA762  ILE779  LEU786  VAL792 
 PHE793  MET794  SER795  GLU796  ALA797  LYS798  CYS799  TRP800  GLU811  SER814 

> <Gold.Protein.RotatedAtoms>
  152.1870  134.8705  160.0520 H   0  0  0  0  0  0  0  0  0  0  0  0  # atno 6907 bound_to 6896
  151.9608  133.3689  159.4042 H   0  0  0  0  0  0  0  0  0  0  0  0  # atno 6908 bound_to 6896
  150.6928  134.4166  159.5230 H   0  0  0  0  0  0  0  0  0  0  0  0  # atno 6909 bound_to 6896
  145.9433  140.7642  142.9541 H   0  0  0  0  0  0  0  0  0  0  0  0  # atno 7974 bound_to 7965
  155.4791  140.3468  155.4337 H   0  0  0  0  0  0  0  0  0  0  0  0  # atno 8008 bound_to 7997
  156.1051  140.1446  156.9444 H   0  0  0  0  0  0  0  0  0  0  0  0  # atno 8009 bound_to 7997
  154.4719  140.0898  156.7144 H   0  0  0  0  0  0  0  0  0  0  0  0  # atno 8010 bound_to 7997
  139.9306  144.6154  150.8348 H   0  0  0  0  0  0  0  0  0  0  0  0  # atno 10167 bound_to 10162
  156.9773  131.0108  151.2890 H   0  0  0  0  0  0  0  0  0  0  0  0  # atno 10718 bound_to 10713
  154.3007  135.2759  155.2612 H   0  0  0  0  0  0  0  0  0  0  0  0  # atno 10763 bound_to 10752
  154.5050  135.5798  153.6564 H   0  0  0  0  0  0  0  0  0  0  0  0  # atno 10764 bound_to 10752
  152.9901  135.6167  154.3178 H   0  0  0  0  0  0  0  0  0  0  0  0  # atno 10765 bound_to 10752
  141.0590  133.9566  157.2701 H   0  0  0  0  0  0  0  0  0  0  0  0  # atno 11005 bound_to 11000
  144.6783  140.2315  143.7355 LP  0  0  0  0  0  0  0  0  0  0  0  0  # atno 17320 bound_to 7965
  145.8271  139.2069  143.1904 LP  0  0  0  0  0  0  0  0  0  0  0  0  # atno 17321 bound_to 7965
  140.7638  143.3233  151.2573 LP  0  0  0  0  0  0  0  0  0  0  0  0  # atno 17342 bound_to 10162
  139.6785  143.9896  152.2795 LP  0  0  0  0  0  0  0  0  0  0  0  0  # atno 17343 bound_to 10162
  157.5551  130.8208  149.8193 LP  0  0  0  0  0  0  0  0  0  0  0  0  # atno 17370 bound_to 10713
  156.0258  130.3780  150.1827 LP  0  0  0  0  0  0  0  0  0  0  0  0  # atno 17371 bound_to 10713
  139.9415  135.0190  156.8724 LP  0  0  0  0  0  0  0  0  0  0  0  0  # atno 17394 bound_to 11000
  140.5906  134.0265  155.7498 LP  0  0  0  0  0  0  0  0  0  0  0  0  # atno 17395 bound_to 11000

$$$$
