AV-unprocessed.smi:3091|AV-procd|sdf|11779|dock5
  -GOLD-   2272017163D 1   1.00000     0.00000
 Structure written by MMmdl.
 29 30  0  0  0  0  0  0  0  0  2 V2000
  149.1775  138.4574  153.4522 N   0  3  0  0  0  0  0  0  0  0  0  0
  150.4297  138.2643  154.2007 C   0  0  0  0  0  0  0  0  0  0  0  0
  150.6537  139.4037  155.1734 C   0  0  0  0  0  0  0  0  0  0  0  0
  149.8215  140.5410  155.1536 C   0  0  0  0  0  0  0  0  0  0  0  0
  150.0769  141.5734  156.0772 C   0  0  0  0  0  0  0  0  0  0  0  0
  151.0807  141.5284  156.9783 N   0  0  0  0  0  0  0  0  0  0  0  0
  151.8814  140.4338  156.9977 C   0  0  0  0  0  0  0  0  0  0  0  0
  152.9138  140.3716  157.9127 O   0  0  0  0  0  0  0  0  0  0  0  0
  152.6742  140.7499  159.2690 C   0  0  1  0  0  0  0  0  0  0  0  0
  153.9393  140.6382  160.1178 C   0  0  0  0  0  0  0  0  0  0  0  0
  153.9571  141.9428  160.9030 C   0  0  0  0  0  0  0  0  0  0  0  0
  153.4335  142.8698  159.9692 O   0  0  0  0  0  0  0  0  0  0  0  0
  152.3281  142.2445  159.3319 C   0  0  0  0  0  0  0  0  0  0  0  0
  151.7045  139.3510  156.1119 C   0  0  0  0  0  0  0  0  0  0  0  0
  149.3374  139.0916  152.6827 H   0  0  0  0  0  0  0  0  0  0  0  0
  148.4757  138.8432  154.0676 H   0  0  0  0  0  0  0  0  0  0  0  0
  150.3872  137.3166  154.7384 H   0  0  0  0  0  0  0  0  0  0  0  0
  151.2638  138.2019  153.5008 H   0  0  0  0  0  0  0  0  0  0  0  0
  149.0050  140.6247  154.4513 H   0  0  0  0  0  0  0  0  0  0  0  0
  149.4594  142.4592  156.0916 H   0  0  0  0  0  0  0  0  0  0  0  0
  151.8464  140.1848  159.7012 H   0  0  0  0  0  0  0  0  0  0  0  0
  153.9454  139.7585  160.7619 H   0  0  0  0  0  0  0  0  0  0  0  0
  154.8205  140.5917  159.4765 H   0  0  0  0  0  0  0  0  0  0  0  0
  153.3038  141.8863  161.7753 H   0  0  0  0  0  0  0  0  0  0  0  0
  154.9571  142.2231  161.2344 H   0  0  0  0  0  0  0  0  0  0  0  0
  152.1445  142.6819  158.3501 H   0  0  0  0  0  0  0  0  0  0  0  0
  151.4362  142.4021  159.9401 H   0  0  0  0  0  0  0  0  0  0  0  0
  152.3647  138.4971  156.1578 H   0  0  0  0  0  0  0  0  0  0  0  0
  148.8590  137.5675  153.0963 H   0  0  0  0  0  0  0  0  0  0  0  0
  1  2  1  0  0  0  0
  1 15  1  0  0  0  0
  1 16  1  0  0  0  0
  1 29  1  0  0  0  0
  2  3  1  0  0  0  0
  2 17  1  0  0  0  0
  2 18  1  0  0  0  0
  3 14  1  0  0  0  0
  3  4  2  0  0  0  0
  4  5  1  0  0  0  0
  4 19  1  0  0  0  0
  5  6  2  0  0  0  0
  5 20  1  0  0  0  0
  6  7  1  0  0  0  0
  7  8  1  0  0  0  0
  7 14  2  0  0  0  0
  8  9  1  0  0  0  0
  9 13  1  0  0  0  0
  9 10  1  0  0  0  0
  9 21  1  0  0  0  0
 10 11  1  0  0  0  0
 10 22  1  0  0  0  0
 10 23  1  0  0  0  0
 11 12  1  0  0  0  0
 11 24  1  0  0  0  0
 11 25  1  0  0  0  0
 12 13  1  0  0  0  0
 13 26  1  0  0  0  0
 13 27  1  0  0  0  0
 14 28  1  0  0  0  0
M  CHG  1   1   1
M  END
> <s_m_source_file>
AV-unprocessed.smi

> <i_m_source_file_index>
3091

> <i_lp_mmshare_version>
43012

> <i_f3d_flags>
0

> <s_epik_input>
W05IMl1bQ0gyXWMxW2NIXVtjSF1uYyhbY0hdMSlPW0NAQEhdMltDSDJdW0NIMl1PW0NIMl0y

> <s_epik_cmdline>
J2VwaWtfcHl0aG9uJywgJy1waCcsICc3LjAnLCAnLXRuJywgJzgnLCAnLW1hJywgJzIwMCcsICctbWV0YWxfYmluZGluZycsICctaW1hZScsICc8aW5maWxlLm1hZT4nLCAnLW9tYWUnLCAnPG91dGZpbGUubWFlPic=

> <r_lp_tautomer_probability>
1

> <r_epik_Ionization_Penalty>
0.0773124

> <r_epik_Ionization_Penalty_Charging>
0.0773118

> <r_epik_Ionization_Penalty_Neutral>
5.92883e-07

> <r_epik_State_Penalty>
0.0682686

> <r_epik_Charging_Adjusted_Penalty>
0.14558

> <i_epik_Tot_Q>
1

> <i_epik_Tot_abs_Q>
1

> <r_epik_Metal_State_Penalty>
0.0682821

> <b_epik_Metal_Only>
0

> <s_lp_Force_Field>
OPLS_2005

> <r_lp_Energy>
12.8261

> <b_lp_Chiralities_Consistent>
1

> <s_lp_Variant>
AV-unprocessed.smi:3091-2

> <Gold.Version>
5.8.1

> <Gold.Id.Protein>
6NUR|6NUR_protein|mol2

> <Gold.PLP.Fitness>
44.9567

> <Gold.PLP.PLP>
-30.6828

> <Gold.PLP.part.hbond>
-2.9613

> <Gold.PLP.part.metal>
0.0000

> <Gold.PLP.part.buried>
-2.4802

> <Gold.PLP.part.nonpolar>
-24.6441

> <Gold.PLP.part.repulsive>
0.1421

> <Gold.PLP.ligand.clash>
0.0000

> <Gold.PLP.ligand.torsion>
0.2605

> <Gold.PLP.Chemscore.Hbond>
3.9280

> <Gold.PLP.Chemscore.CHOScore>
1.0000

> <Gold.PLP.Chemscore.Metal>
0.0000

> <Gold.Chemscore.Hbonds>
donor molecule, donor type, donor heavy atom, donor atom, acceptor molecule, acceptor atom, score
      L1  H     1    15       P1  7957  1.00
      L1  H     1    29       P1  7948  1.95
      P1  H  7997  8009       L1     8  0.88
      L1  C     5    20       P1  8028  1.00

> <Gold.PLP.Chemscore.Internal.Correction>
0.0108

> <Gold.Rescore>
     Score         DG    S(hbond)    S(metal)    S(lipo)     H(rot)  DE(clash)    DE(int)     intcor
     17.18     -18.90       2.75        0.00      70.91       1.59       0.03       1.68       ----

> <Gold.Chemscore.Fitness>
17.1841

> <Gold.Chemscore.DG>
-18.8995

> <Gold.Chemscore.ZeroCoef>
-5.4800

> <Gold.Chemscore.Hbond>
2.7545

> <Gold.Chemscore.Metal>
0.0000

> <Gold.Chemscore.Lipo>
70.9066

> <Gold.Chemscore.Internal_Hbond>
0.0000

> <Gold.Chemscore.DEClash>
0.0315

> <Gold.Chemscore.DEInternal>
1.6839

> <Gold.Chemscore.Rot>
1.5924

> <Gold.Chemscore.Internal.Correction>
   9.000000E+99

> <Gold.Chemscore.Hbonds>
donor molecule, donor type, donor heavy atom, donor atom, acceptor molecule, acceptor atom, score
      L1  H     1    15       P1  7957  0.99
      L1  H     1    29       P1  7948  0.93
      P1  H  7997  8009       L1     8  0.56

> <Gold.Chemscore.Hbond.Weighted>
-9.1999

> <Gold.Chemscore.Metal.Weighted>
-0.0000

> <Gold.Chemscore.Lipo.Weighted>
-8.2961

> <Gold.Chemscore.Internal_Hbond.Weighted>
0.0000

> <Gold.Chemscore.DEClash.Weighted>
0.0315

> <Gold.Chemscore.DEInternal.Weighted>
1.6839

> <Gold.Chemscore.Rot.Weighted>
4.0765

> <Gold.Chemscore.Internal.Correction.Weighted>
   9.000000E+99

> <Gold.Protein.RotatedTorsions>
[ 6907 6896 6895 6894 ] final -159.17 input  -60.11 | X-H torsion
[ 7974 7965 7964 7962 ] final  -67.75 input  175.53 | X-H torsion
[ 8008 7997 7996 7995 ] final  160.37 input   59.86 | X-H torsion
[ 10167 10162 10161 10158 ] final  113.75 input  -65.29 | X-H torsion
[ 10718 10713 10712 10709 ] final  116.38 input   66.30 | X-H torsion
[ 10763 10752 10751 10750 ] final  -65.56 input  -60.55 | X-H torsion
[ 11005 11000 10999 10996 ] final   57.49 input  -57.11 | X-H torsion

> <Gold.Protein.ActiveResidues>
 VAL166  LYS551  ARG553  GLY616  TRP617  ASP618  TYR619  PRO620  LYS621  CYS622 
 ASP623  PHE694  ASN695  SER759  ASP760  ASP761  ALA762  ILE779  LEU786  VAL792 
 PHE793  MET794  SER795  GLU796  ALA797  LYS798  CYS799  TRP800  GLU811  SER814 

> <Gold.Protein.RotatedAtoms>
  151.3295  133.4006  159.2661 H   0  0  0  0  0  0  0  0  0  0  0  0  # atno 6907 bound_to 6896
  150.9968  134.9290  159.7941 H   0  0  0  0  0  0  0  0  0  0  0  0  # atno 6908 bound_to 6896
  152.5263  134.3260  159.9218 H   0  0  0  0  0  0  0  0  0  0  0  0  # atno 6909 bound_to 6896
  145.7252  140.9021  143.0609 H   0  0  0  0  0  0  0  0  0  0  0  0  # atno 7974 bound_to 7965
  156.2177  140.1806  156.7551 H   0  0  0  0  0  0  0  0  0  0  0  0  # atno 8008 bound_to 7997
  154.5816  140.0665  156.9141 H   0  0  0  0  0  0  0  0  0  0  0  0  # atno 8009 bound_to 7997
  155.2492  140.3327  155.4286 H   0  0  0  0  0  0  0  0  0  0  0  0  # atno 8010 bound_to 7997
  139.6438  144.7125  151.2183 H   0  0  0  0  0  0  0  0  0  0  0  0  # atno 10167 bound_to 10162
  157.6164  131.1024  150.7464 H   0  0  0  0  0  0  0  0  0  0  0  0  # atno 10718 bound_to 10713
  154.3468  135.6145  153.5623 H   0  0  0  0  0  0  0  0  0  0  0  0  # atno 10763 bound_to 10752
  152.9800  135.5783  154.4789 H   0  0  0  0  0  0  0  0  0  0  0  0  # atno 10764 bound_to 10752
  154.4503  135.2852  155.1763 H   0  0  0  0  0  0  0  0  0  0  0  0  # atno 10765 bound_to 10752
  140.0448  134.5821  155.9336 H   0  0  0  0  0  0  0  0  0  0  0  0  # atno 11005 bound_to 11000
  144.6906  139.9256  143.7469 LP  0  0  0  0  0  0  0  0  0  0  0  0  # atno 17320 bound_to 7965
  146.0589  139.3583  143.0594 LP  0  0  0  0  0  0  0  0  0  0  0  0  # atno 17321 bound_to 7965
  140.7504  143.6265  150.8463 LP  0  0  0  0  0  0  0  0  0  0  0  0  # atno 17342 bound_to 10162
  139.9906  143.5851  152.2911 LP  0  0  0  0  0  0  0  0  0  0  0  0  # atno 17343 bound_to 10162
  156.7831  130.4865  149.5397 LP  0  0  0  0  0  0  0  0  0  0  0  0  # atno 17370 bound_to 10713
  156.1288  130.6163  151.0303 LP  0  0  0  0  0  0  0  0  0  0  0  0  # atno 17371 bound_to 10713
  141.1901  133.6567  156.5399 LP  0  0  0  0  0  0  0  0  0  0  0  0  # atno 17394 bound_to 11000
  140.4010  134.7356  157.4780 LP  0  0  0  0  0  0  0  0  0  0  0  0  # atno 17395 bound_to 11000

$$$$
