AV-unprocessed.smi:3161|AV-procd|sdf|12061|dock1
  -GOLD-   2272017493D 1   1.00000     0.00000
 Structure written by MMmdl.
 40 41  0  0  0  0  0  0  0  0  1 V2000
  151.9222  145.9276  160.0553 C   0  0  0  0  0  0  0  0  0  0  0  0
  151.8660  144.6155  159.3276 C   0  0  0  0  0  0  0  0  0  0  0  0
  152.5078  143.3927  159.6740 C   0  0  0  0  0  0  0  0  0  0  0  0
  152.2530  142.4170  158.8178 N   0  0  0  0  0  0  0  0  0  0  0  0
  151.4464  142.9808  157.8932 N   0  0  0  0  0  0  0  0  0  0  0  0
  150.9590  142.1915  156.7722 C   0  0  0  0  0  0  0  0  0  0  0  0
  149.5311  141.6370  156.9761 C   0  0  2  0  0  0  0  0  0  0  0  0
  148.9160  141.1103  155.6640 C   0  0  0  0  0  0  0  0  0  0  0  0
  148.6871  142.6569  157.6088 N   0  0  0  0  0  0  0  0  0  0  0  0
  147.3878  142.1971  158.0977 C   0  0  0  0  0  0  0  0  0  0  0  0
  146.7679  143.2205  159.0610 C   0  0  1  0  0  0  0  0  0  0  0  0
  145.5377  142.6640  159.8082 C   0  0  0  0  0  0  0  0  0  0  0  0
  145.0133  143.6888  160.8202 C   0  0  0  0  0  0  0  0  0  0  0  0
  146.1540  144.1373  161.7394 C   0  0  0  0  0  0  0  0  0  0  0  0
  147.3574  144.6076  160.9072 C   0  0  0  0  0  0  0  0  0  0  0  0
  147.7662  143.5742  160.0158 O   0  0  0  0  0  0  0  0  0  0  0  0
  151.1916  144.3051  158.1810 C   0  0  0  0  0  0  0  0  0  0  0  0
  152.5274  145.8647  160.9600 H   0  0  0  0  0  0  0  0  0  0  0  0
  150.9294  146.2633  160.3554 H   0  0  0  0  0  0  0  0  0  0  0  0
  152.3537  146.7129  159.4345 H   0  0  0  0  0  0  0  0  0  0  0  0
  153.1481  143.1867  160.5190 H   0  0  0  0  0  0  0  0  0  0  0  0
  150.9887  142.8106  155.8740 H   0  0  0  0  0  0  0  0  0  0  0  0
  151.6602  141.3742  156.5977 H   0  0  0  0  0  0  0  0  0  0  0  0
  149.6168  140.7915  157.6598 H   0  0  0  0  0  0  0  0  0  0  0  0
  149.6095  140.4421  155.1530 H   0  0  0  0  0  0  0  0  0  0  0  0
  148.6721  141.9215  154.9772 H   0  0  0  0  0  0  0  0  0  0  0  0
  148.0048  140.5403  155.8440 H   0  0  0  0  0  0  0  0  0  0  0  0
  148.5478  143.4275  156.9629 H   0  0  0  0  0  0  0  0  0  0  0  0
  146.6980  142.0188  157.2731 H   0  0  0  0  0  0  0  0  0  0  0  0
  147.5121  141.2449  158.6149 H   0  0  0  0  0  0  0  0  0  0  0  0
  146.4924  144.1156  158.4995 H   0  0  0  0  0  0  0  0  0  0  0  0
  144.7468  142.4037  159.1039 H   0  0  0  0  0  0  0  0  0  0  0  0
  145.8079  141.7438  160.3281 H   0  0  0  0  0  0  0  0  0  0  0  0
  144.6064  144.5515  160.2915 H   0  0  0  0  0  0  0  0  0  0  0  0
  144.1967  143.2644  161.4048 H   0  0  0  0  0  0  0  0  0  0  0  0
  145.8151  144.9357  162.4000 H   0  0  0  0  0  0  0  0  0  0  0  0
  146.4567  143.3079  162.3796 H   0  0  0  0  0  0  0  0  0  0  0  0
  147.1142  145.5111  160.3463 H   0  0  0  0  0  0  0  0  0  0  0  0
  148.1914  144.8569  161.5634 H   0  0  0  0  0  0  0  0  0  0  0  0
  150.5604  144.9125  157.5489 H   0  0  0  0  0  0  0  0  0  0  0  0
  1  2  1  0  0  0  0
  1 18  1  0  0  0  0
  1 19  1  0  0  0  0
  1 20  1  0  0  0  0
  2 17  2  0  0  0  0
  2  3  1  0  0  0  0
  3  4  2  0  0  0  0
  3 21  1  0  0  0  0
  4  5  1  0  0  0  0
  5  6  1  0  0  0  0
  5 17  1  0  0  0  0
  6  7  1  0  0  0  0
  6 22  1  0  0  0  0
  6 23  1  0  0  0  0
  7  8  1  0  0  0  0
  7  9  1  0  0  0  0
  7 24  1  0  0  0  0
  8 25  1  0  0  0  0
  8 26  1  0  0  0  0
  8 27  1  0  0  0  0
  9 10  1  0  0  0  0
  9 28  1  0  0  0  0
 10 11  1  0  0  0  0
 10 29  1  0  0  0  0
 10 30  1  0  0  0  0
 11 16  1  0  0  0  0
 11 12  1  0  0  0  0
 11 31  1  0  0  0  0
 12 13  1  0  0  0  0
 12 32  1  0  0  0  0
 12 33  1  0  0  0  0
 13 14  1  0  0  0  0
 13 34  1  0  0  0  0
 13 35  1  0  0  0  0
 14 15  1  0  0  0  0
 14 36  1  0  0  0  0
 14 37  1  0  0  0  0
 15 16  1  0  0  0  0
 15 38  1  0  0  0  0
 15 39  1  0  0  0  0
 17 40  1  0  0  0  0
M  END
> <s_m_source_file>
AV-unprocessed.smi

> <i_m_source_file_index>
3161

> <i_lp_mmshare_version>
43012

> <i_f3d_flags>
0

> <s_epik_input>
W0NIM11jMVtjSF1ubihbY0hdMSlbQ0gyXVtDQEhdKFtDSDNdKVtOSF1bQ0gyXVtDQEBIXTJbQ0gyXVtDSDJdW0NIMl1bQ0gyXU8y

> <s_epik_cmdline>
J2VwaWtfcHl0aG9uJywgJy1waCcsICc3LjAnLCAnLXRuJywgJzgnLCAnLW1hJywgJzIwMCcsICctbWV0YWxfYmluZGluZycsICctaW1hZScsICc8aW5maWxlLm1hZT4nLCAnLW9tYWUnLCAnPG91dGZpbGUubWFlPic=

> <r_lp_tautomer_probability>
1

> <r_epik_Ionization_Penalty>
2.51986

> <r_epik_Ionization_Penalty_Charging>
0

> <r_epik_Ionization_Penalty_Neutral>
2.51986

> <r_epik_State_Penalty>
2.68614

> <r_epik_Charging_Adjusted_Penalty>
2.68614

> <i_epik_Tot_Q>
0

> <i_epik_Tot_abs_Q>
0

> <r_epik_Metal_State_Penalty>
2.68606

> <b_epik_Metal_Only>
0

> <s_lp_Force_Field>
OPLS_2005

> <r_lp_Energy>
14.508

> <b_lp_Chiralities_Consistent>
1

> <s_lp_Variant>
AV-unprocessed.smi:3161-7

> <Gold.Version>
5.8.1

> <Gold.Id.Protein>
6NUR|6NUR_protein|mol2

> <Gold.PLP.Fitness>
45.8386

> <Gold.PLP.PLP>
-38.6160

> <Gold.PLP.part.hbond>
-2.0000

> <Gold.PLP.part.metal>
0.0000

> <Gold.PLP.part.buried>
-6.5987

> <Gold.PLP.part.nonpolar>
-30.6320

> <Gold.PLP.part.repulsive>
0.0921

> <Gold.PLP.ligand.clash>
0.0000

> <Gold.PLP.ligand.torsion>
0.6079

> <Gold.PLP.Chemscore.Hbond>
1.8000

> <Gold.PLP.Chemscore.CHOScore>
0.9851

> <Gold.PLP.Chemscore.Metal>
0.0000

> <Gold.Chemscore.Hbonds>
donor molecule, donor type, donor heavy atom, donor atom, acceptor molecule, acceptor atom, score
      L1  H     9    28       P1  8028  1.00
      P1  H  6933  6944       L1    16  0.80
      L1  C    17    40       P1  8028  0.96
      L1  C    17    40       P1  8029  0.03

> <Gold.PLP.Chemscore.Internal.Correction>
0.0832

> <Gold.Rescore>
     Score         DG    S(hbond)    S(metal)    S(lipo)     H(rot)  DE(clash)    DE(int)     intcor
     13.69     -14.48       0.81        0.00      86.67       1.50       0.18       0.61       ----

> <Gold.Chemscore.Fitness>
13.6901

> <Gold.Chemscore.DG>
-14.4799

> <Gold.Chemscore.ZeroCoef>
-5.4800

> <Gold.Chemscore.Hbond>
0.8106

> <Gold.Chemscore.Metal>
0.0000

> <Gold.Chemscore.Lipo>
86.6687

> <Gold.Chemscore.Internal_Hbond>
0.0000

> <Gold.Chemscore.DEClash>
0.1772

> <Gold.Chemscore.DEInternal>
0.6125

> <Gold.Chemscore.Rot>
1.5030

> <Gold.Chemscore.Internal.Correction>
   9.000000E+99

> <Gold.Chemscore.Hbonds>
donor molecule, donor type, donor heavy atom, donor atom, acceptor molecule, acceptor atom, score
      L1  H     9    28       P1  8028  0.26
      P1  H  6933  6944       L1    16  0.11

> <Gold.Chemscore.Hbond.Weighted>
-2.7074

> <Gold.Chemscore.Metal.Weighted>
-0.0000

> <Gold.Chemscore.Lipo.Weighted>
-10.1402

> <Gold.Chemscore.Internal_Hbond.Weighted>
0.0000

> <Gold.Chemscore.DEClash.Weighted>
0.1772

> <Gold.Chemscore.DEInternal.Weighted>
0.6125

> <Gold.Chemscore.Rot.Weighted>
3.8477

> <Gold.Chemscore.Internal.Correction.Weighted>
   9.000000E+99

> <Gold.Protein.RotatedTorsions>
[ 6907 6896 6895 6894 ] final -103.56 input  -60.11 | X-H torsion
[ 7974 7965 7964 7962 ] final  -50.34 input  175.53 | X-H torsion
[ 8008 7997 7996 7995 ] final  175.99 input   59.86 | X-H torsion
[ 10167 10162 10161 10158 ] final -139.81 input  -65.29 | X-H torsion
[ 10718 10713 10712 10709 ] final  107.06 input   66.30 | X-H torsion
[ 10763 10752 10751 10750 ] final   63.79 input  -60.55 | X-H torsion
[ 11005 11000 10999 10996 ] final  172.87 input  -57.11 | X-H torsion

> <Gold.Protein.ActiveResidues>
 VAL166  LYS551  ARG553  GLY616  TRP617  ASP618  TYR619  PRO620  LYS621  CYS622 
 ASP623  PHE694  ASN695  SER759  ASP760  ASP761  ALA762  ILE779  LEU786  VAL792 
 PHE793  MET794  SER795  GLU796  ALA797  LYS798  CYS799  TRP800  GLU811  SER814 

> <Gold.Protein.RotatedAtoms>
  150.7246  134.0411  159.3765 H   0  0  0  0  0  0  0  0  0  0  0  0  # atno 6907 bound_to 6896
  151.8385  135.0596  160.0454 H   0  0  0  0  0  0  0  0  0  0  0  0  # atno 6908 bound_to 6896
  152.2880  133.5498  159.5576 H   0  0  0  0  0  0  0  0  0  0  0  0  # atno 6909 bound_to 6896
  145.9309  140.7750  142.9600 H   0  0  0  0  0  0  0  0  0  0  0  0  # atno 7974 bound_to 7965
  156.0813  140.1395  156.9709 H   0  0  0  0  0  0  0  0  0  0  0  0  # atno 8008 bound_to 7997
  154.4586  140.0951  156.6879 H   0  0  0  0  0  0  0  0  0  0  0  0  # atno 8009 bound_to 7997
  155.5072  140.3452  155.4384 H   0  0  0  0  0  0  0  0  0  0  0  0  # atno 8010 bound_to 7997
  139.8343  143.7405  152.2665 H   0  0  0  0  0  0  0  0  0  0  0  0  # atno 10167 bound_to 10162
  157.6643  131.0864  150.6100 H   0  0  0  0  0  0  0  0  0  0  0  0  # atno 10718 bound_to 10713
  153.0031  135.5416  154.6407 H   0  0  0  0  0  0  0  0  0  0  0  0  # atno 10763 bound_to 10752
  154.5663  135.2838  155.0873 H   0  0  0  0  0  0  0  0  0  0  0  0  # atno 10764 bound_to 10752
  154.2056  135.6476  153.5152 H   0  0  0  0  0  0  0  0  0  0  0  0  # atno 10765 bound_to 10752
  140.3344  134.7330  157.4157 H   0  0  0  0  0  0  0  0  0  0  0  0  # atno 11005 bound_to 11000
  144.6765  140.2125  143.7375 LP  0  0  0  0  0  0  0  0  0  0  0  0  # atno 17320 bound_to 7965
  145.8427  139.2137  143.1818 LP  0  0  0  0  0  0  0  0  0  0  0  0  # atno 17321 bound_to 7965
  139.7623  144.7503  151.0346 LP  0  0  0  0  0  0  0  0  0  0  0  0  # atno 17342 bound_to 10162
  140.7804  143.4737  151.0111 LP  0  0  0  0  0  0  0  0  0  0  0  0  # atno 17343 bound_to 10162
  156.6401  130.4456  149.5755 LP  0  0  0  0  0  0  0  0  0  0  0  0  # atno 17370 bound_to 10713
  156.2215  130.6740  151.1373 LP  0  0  0  0  0  0  0  0  0  0  0  0  # atno 17371 bound_to 10713
  140.0834  134.5700  155.8517 LP  0  0  0  0  0  0  0  0  0  0  0  0  # atno 17394 bound_to 11000
  141.2055  133.6647  156.6185 LP  0  0  0  0  0  0  0  0  0  0  0  0  # atno 17395 bound_to 11000

$$$$
