AV-unprocessed.smi:1986|AV-procd|sdf|8050|dock6
  -GOLD-   2272010253D 1   1.00000     0.00000
 Structure written by MMmdl.
 47 48  0  0  0  0  0  0  0  0  1 V2000
  147.4734  139.5828  153.4820 C   0  0  0  0  0  0  0  0  0  0  0  0
  147.4663  138.9098  154.8667 C   0  0  0  0  0  0  0  0  0  0  0  0
  148.2138  139.6851  155.9987 C   0  0  1  0  0  0  0  0  0  0  0  0
  147.9805  141.1958  155.7249 C   0  0  0  0  0  0  0  0  0  0  0  0
  147.5410  139.3250  157.3606 C   0  0  0  0  0  0  0  0  0  0  0  0
  147.6472  137.9042  157.6868 N   0  0  0  0  0  0  0  0  0  0  0  0
  147.1772  137.3188  158.7974 C   0  0  0  0  0  0  0  0  0  0  0  0
  146.5469  137.9203  159.6678 O   0  0  0  0  0  0  0  0  0  0  0  0
  147.4499  135.8137  158.9294 C   0  0  0  0  0  0  0  0  0  0  0  0
  147.2234  135.3040  160.2893 N   0  0  0  0  0  0  0  0  0  0  0  0
  146.5061  134.1185  160.3398 N   0  0  0  0  0  0  0  0  0  0  0  0
  146.2384  133.5755  161.4789 C   0  0  0  0  0  0  0  0  0  0  0  0
  145.5237  132.4030  161.4831 O   0  0  0  0  0  0  0  0  0  0  0  0
  146.6764  134.1795  162.7180 C   0  0  0  0  0  0  0  0  0  0  0  0
  147.3792  135.3317  162.6584 C   0  0  0  0  0  0  0  0  0  0  0  0
  147.7023  135.9735  161.3829 C   0  0  0  0  0  0  0  0  0  0  0  0
  148.3461  137.0194  161.2982 O   0  0  0  0  0  0  0  0  0  0  0  0
  149.6715  139.3737  155.9915 N   0  0  0  0  0  0  0  0  0  0  0  0
  150.3152  139.4259  154.6734 C   0  0  0  0  0  0  0  0  0  0  0  0
  151.7776  138.9521  154.7270 C   0  0  0  0  0  0  0  0  0  0  0  0
  152.5015  139.7341  155.6694 O   0  0  0  0  0  0  0  0  0  0  0  0
  151.9417  139.6661  156.9753 C   0  0  0  0  0  0  0  0  0  0  0  0
  150.4823  140.1496  156.9380 C   0  0  0  0  0  0  0  0  0  0  0  0
  145.6763  132.0139  160.6356 H   0  0  0  0  0  0  0  0  0  0  0  0
  146.9381  138.9682  152.7583 H   0  0  0  0  0  0  0  0  0  0  0  0
  148.4857  139.7222  153.1029 H   0  0  0  0  0  0  0  0  0  0  0  0
  146.9850  140.5566  153.5028 H   0  0  0  0  0  0  0  0  0  0  0  0
  146.4232  138.7556  155.1452 H   0  0  0  0  0  0  0  0  0  0  0  0
  147.8695  137.9018  154.7698 H   0  0  0  0  0  0  0  0  0  0  0  0
  146.9402  141.4140  155.4809 H   0  0  0  0  0  0  0  0  0  0  0  0
  148.5853  141.5511  154.8901 H   0  0  0  0  0  0  0  0  0  0  0  0
  148.2286  141.8107  156.5902 H   0  0  0  0  0  0  0  0  0  0  0  0
  147.9817  139.9171  158.1631 H   0  0  0  0  0  0  0  0  0  0  0  0
  146.4784  139.5657  157.3488 H   0  0  0  0  0  0  0  0  0  0  0  0
  148.1446  137.3265  157.0247 H   0  0  0  0  0  0  0  0  0  0  0  0
  146.8099  135.2921  158.2156 H   0  0  0  0  0  0  0  0  0  0  0  0
  148.4736  135.5931  158.6204 H   0  0  0  0  0  0  0  0  0  0  0  0
  146.4426  133.7126  163.6634 H   0  0  0  0  0  0  0  0  0  0  0  0
  147.7126  135.7938  163.5759 H   0  0  0  0  0  0  0  0  0  0  0  0
  149.7891  138.7981  153.9564 H   0  0  0  0  0  0  0  0  0  0  0  0
  150.2930  140.4425  154.2812 H   0  0  0  0  0  0  0  0  0  0  0  0
  151.8322  137.8969  154.9999 H   0  0  0  0  0  0  0  0  0  0  0  0
  152.2447  139.0540  153.7474 H   0  0  0  0  0  0  0  0  0  0  0  0
  152.0000  138.6439  157.3526 H   0  0  0  0  0  0  0  0  0  0  0  0
  152.5304  140.2900  157.6478 H   0  0  0  0  0  0  0  0  0  0  0  0
  150.4723  141.2057  156.6685 H   0  0  0  0  0  0  0  0  0  0  0  0
  150.0827  140.0775  157.9477 H   0  0  0  0  0  0  0  0  0  0  0  0
  1  2  1  0  0  0  0
  1 25  1  0  0  0  0
  1 26  1  0  0  0  0
  1 27  1  0  0  0  0
  2  3  1  0  0  0  0
  2 28  1  0  0  0  0
  2 29  1  0  0  0  0
  3  4  1  0  0  0  0
  3  5  1  0  0  0  0
  3 18  1  0  0  0  0
  4 30  1  0  0  0  0
  4 31  1  0  0  0  0
  4 32  1  0  0  0  0
  5  6  1  0  0  0  0
  5 33  1  0  0  0  0
  5 34  1  0  0  0  0
  6  7  1  0  0  0  0
  6 35  1  0  0  0  0
  7  8  2  0  0  0  0
  7  9  1  0  0  0  0
  9 36  1  0  0  0  0
  9 37  1  0  0  0  0
  9 10  1  0  0  0  0
 10 11  1  0  0  0  0
 10 16  1  0  0  0  0
 11 12  2  0  0  0  0
 12 13  1  0  0  0  0
 12 14  1  0  0  0  0
 13 24  1  0  0  0  0
 14 38  1  0  0  0  0
 14 15  2  0  0  0  0
 15 39  1  0  0  0  0
 15 16  1  0  0  0  0
 16 17  2  0  0  0  0
 18 23  1  0  0  0  0
 18 19  1  0  0  0  0
 19 20  1  0  0  0  0
 19 40  1  0  0  0  0
 19 41  1  0  0  0  0
 20 21  1  0  0  0  0
 20 42  1  0  0  0  0
 20 43  1  0  0  0  0
 21 22  1  0  0  0  0
 22 23  1  0  0  0  0
 22 44  1  0  0  0  0
 22 45  1  0  0  0  0
 23 46  1  0  0  0  0
 23 47  1  0  0  0  0
M  END
> <s_m_source_file>
AV-unprocessed.smi

> <i_m_source_file_index>
1986

> <i_lp_mmshare_version>
43012

> <i_f3d_flags>
0

> <s_epik_input>
W0NIMl0xW0NIMl1PW0NIMl1bQ0gyXU4xW0NAQF0oW0NIM10pKFtDSDJdW0NIM10pW0NIMl1bTkhdQyg9TylbQ0gyXW4yW25IXWMoPU8pW2NIXVtjSF1jMj1P

> <s_epik_cmdline>
J2VwaWtfcHl0aG9uJywgJy1waCcsICc3LjAnLCAnLXRuJywgJzgnLCAnLW1hJywgJzIwMCcsICctbWV0YWxfYmluZGluZycsICctaW1hZScsICc8aW5maWxlLm1hZT4nLCAnLW9tYWUnLCAnPG91dGZpbGUubWFlPic=

> <r_epik_Ionization_Penalty>
2.44436

> <r_epik_Ionization_Penalty_Charging>
3.63754e-08

> <r_epik_Ionization_Penalty_Neutral>
2.44436

> <r_epik_State_Penalty>
2.04701

> <r_epik_Charging_Adjusted_Penalty>
2.04701

> <i_epik_Tot_Q>
0

> <i_epik_Tot_abs_Q>
0

> <r_epik_Metal_State_Penalty>
2.04701

> <b_epik_Metal_Only>
0

> <s_lp_Force_Field>
OPLS_2005

> <r_lp_Energy>
55.4417

> <b_lp_Chiralities_Consistent>
1

> <s_lp_Variant>
AV-unprocessed.smi:1986-5

> <Gold.Version>
5.8.1

> <Gold.Id.Protein>
6NUR|6NUR_protein|mol2

> <Gold.PLP.Fitness>
38.5142

> <Gold.PLP.PLP>
-31.6243

> <Gold.PLP.part.hbond>
-3.7551

> <Gold.PLP.part.metal>
0.0000

> <Gold.PLP.part.buried>
-3.2081

> <Gold.PLP.part.nonpolar>
-25.5365

> <Gold.PLP.part.repulsive>
0.0653

> <Gold.PLP.ligand.clash>
0.0000

> <Gold.PLP.ligand.torsion>
0.9400

> <Gold.PLP.Chemscore.Hbond>
2.8800

> <Gold.PLP.Chemscore.CHOScore>
0.0000

> <Gold.PLP.Chemscore.Metal>
0.0000

> <Gold.Chemscore.Hbonds>
donor molecule, donor type, donor heavy atom, donor atom, acceptor molecule, acceptor atom, score
      P1  H  6931  6943       L1    17  1.00
      P1  H  6934  6947       L1     8  0.86
      P1  H  7997  8009       L1    21  1.00

> <Gold.PLP.Chemscore.Internal.Correction>
0.1300

> <Gold.Rescore>
     Score         DG    S(hbond)    S(metal)    S(lipo)     H(rot)  DE(clash)    DE(int)     intcor
     12.83     -14.04       2.78        0.00      60.79       3.06       0.43       0.78       ----

> <Gold.Chemscore.Fitness>
12.8326

> <Gold.Chemscore.DG>
-14.0425

> <Gold.Chemscore.ZeroCoef>
-5.4800

> <Gold.Chemscore.Hbond>
2.7811

> <Gold.Chemscore.Metal>
0.0000

> <Gold.Chemscore.Lipo>
60.7877

> <Gold.Chemscore.Internal_Hbond>
0.0000

> <Gold.Chemscore.DEClash>
0.4289

> <Gold.Chemscore.DEInternal>
0.7809

> <Gold.Chemscore.Rot>
3.0620

> <Gold.Chemscore.Internal.Correction>
   9.000000E+99

> <Gold.Chemscore.Hbonds>
donor molecule, donor type, donor heavy atom, donor atom, acceptor molecule, acceptor atom, score
      P1  H  6931  6943       L1    17  0.93
      P1  H  6934  6947       L1     8  0.85
      P1  H  7997  8009       L1    21  0.30

> <Gold.Chemscore.Hbond.Weighted>
-9.2890

> <Gold.Chemscore.Metal.Weighted>
-0.0000

> <Gold.Chemscore.Lipo.Weighted>
-7.1122

> <Gold.Chemscore.Internal_Hbond.Weighted>
0.0000

> <Gold.Chemscore.DEClash.Weighted>
0.4289

> <Gold.Chemscore.DEInternal.Weighted>
0.7809

> <Gold.Chemscore.Rot.Weighted>
7.8387

> <Gold.Chemscore.Internal.Correction.Weighted>
   9.000000E+99

> <Gold.Protein.RotatedTorsions>
[ 6907 6896 6895 6894 ] final -132.04 input  -60.11 | X-H torsion
[ 7974 7965 7964 7962 ] final   37.87 input  175.53 | X-H torsion
[ 8008 7997 7996 7995 ] final -148.27 input   59.86 | X-H torsion
[ 10167 10162 10161 10158 ] final   37.41 input  -65.29 | X-H torsion
[ 10718 10713 10712 10709 ] final  144.82 input   66.30 | X-H torsion
[ 10763 10752 10751 10750 ] final -179.32 input  -60.55 | X-H torsion
[ 11005 11000 10999 10996 ] final  -29.84 input  -57.11 | X-H torsion

> <Gold.Protein.ActiveResidues>
 VAL166  LYS551  ARG553  GLY616  TRP617  ASP618  TYR619  PRO620  LYS621  CYS622 
 ASP623  PHE694  ASN695  SER759  ASP760  ASP761  ALA762  ILE779  LEU786  VAL792 
 PHE793  MET794  SER795  GLU796  ALA797  LYS798  CYS799  TRP800  GLU811  SER814 

> <Gold.Protein.RotatedAtoms>
  150.9579  133.6477  159.2759 H   0  0  0  0  0  0  0  0  0  0  0  0  # atno 6907 bound_to 6896
  151.3810  135.0938  159.9506 H   0  0  0  0  0  0  0  0  0  0  0  0  # atno 6908 bound_to 6896
  152.5136  133.9113  159.7544 H   0  0  0  0  0  0  0  0  0  0  0  0  # atno 6909 bound_to 6896
  146.1105  139.5841  142.9355 H   0  0  0  0  0  0  0  0  0  0  0  0  # atno 7974 bound_to 7965
  155.5889  140.0650  157.2764 H   0  0  0  0  0  0  0  0  0  0  0  0  # atno 8008 bound_to 7997
  154.4311  140.1839  156.1100 H   0  0  0  0  0  0  0  0  0  0  0  0  # atno 8009 bound_to 7997
  156.0248  140.3313  155.7080 H   0  0  0  0  0  0  0  0  0  0  0  0  # atno 8010 bound_to 7997
  140.4035  144.1691  150.6135 H   0  0  0  0  0  0  0  0  0  0  0  0  # atno 10167 bound_to 10162
  157.3526  131.0953  151.0986 H   0  0  0  0  0  0  0  0  0  0  0  0  # atno 10718 bound_to 10713
  154.5365  135.2803  155.1133 H   0  0  0  0  0  0  0  0  0  0  0  0  # atno 10763 bound_to 10752
  154.2633  135.6317  153.5286 H   0  0  0  0  0  0  0  0  0  0  0  0  # atno 10764 bound_to 10752
  152.9969  135.5611  154.5893 H   0  0  0  0  0  0  0  0  0  0  0  0  # atno 10765 bound_to 10752
  140.9331  133.7325  156.0966 H   0  0  0  0  0  0  0  0  0  0  0  0  # atno 11005 bound_to 11000
  145.5673  141.0398  143.2193 LP  0  0  0  0  0  0  0  0  0  0  0  0  # atno 17320 bound_to 7965
  144.7507  139.7200  143.7274 LP  0  0  0  0  0  0  0  0  0  0  0  0  # atno 17321 bound_to 7965
  140.4714  143.2411  151.9083 LP  0  0  0  0  0  0  0  0  0  0  0  0  # atno 17342 bound_to 10162
  139.4784  144.5365  151.8590 LP  0  0  0  0  0  0  0  0  0  0  0  0  # atno 17343 bound_to 10162
  157.2156  130.6458  149.5791 LP  0  0  0  0  0  0  0  0  0  0  0  0  # atno 17370 bound_to 10713
  155.9724  130.4646  150.6223 LP  0  0  0  0  0  0  0  0  0  0  0  0  # atno 17371 bound_to 10713
  140.7835  134.3698  157.5482 LP  0  0  0  0  0  0  0  0  0  0  0  0  # atno 17394 bound_to 11000
  139.8801  134.9096  156.2995 LP  0  0  0  0  0  0  0  0  0  0  0  0  # atno 17395 bound_to 11000

$$$$
