AV-unprocessed.smi:1019|AV-procd|sdf|4446|dock5
  -GOLD-   22720 2413D 1   1.00000     0.00000
 Structure written by MMmdl.
 44 46  0  0  0  0  0  0  0  0  2 V2000
  145.8901  136.8452  150.3205 C   0  0  0  0  0  0  0  0  0  0  0  0
  145.9696  136.6648  151.7879 N   0  3  2  0  0  0  0  0  0  0  0  0
  145.0826  135.5763  152.2669 C   0  0  0  0  0  0  0  0  0  0  0  0
  145.2582  134.3100  151.4458 C   0  0  0  0  0  0  0  0  0  0  0  0
  144.1268  133.5646  151.0512 C   0  0  0  0  0  0  0  0  0  0  0  0
  144.2820  132.3991  150.2758 C   0  0  0  0  0  0  0  0  0  0  0  0
  145.5689  131.9716  149.8962 C   0  0  0  0  0  0  0  0  0  0  0  0
  146.7011  132.7087  150.2936 C   0  0  0  0  0  0  0  0  0  0  0  0
  146.5465  133.8753  151.0675 C   0  0  0  0  0  0  0  0  0  0  0  0
  145.8062  137.9425  152.5301 C   0  0  0  0  0  0  0  0  0  0  0  0
  147.1657  138.5990  152.8330 C   0  0  1  0  0  0  0  0  0  0  0  0
  147.1513  139.9118  152.3086 O   0  0  0  0  0  0  0  0  0  0  0  0
  147.4718  138.6500  154.3445 C   0  0  0  0  0  0  0  0  0  0  0  0
  148.7661  139.2412  154.6306 N   0  0  0  0  0  0  0  0  0  0  0  0
  149.9215  139.0104  153.9781 C   0  0  0  0  0  0  0  0  0  0  0  0
  151.0020  139.6581  154.4028 N   0  0  0  0  0  0  0  0  0  0  0  0
  150.4892  140.3962  155.4557 C   0  0  0  0  0  0  0  0  0  0  0  0
  151.1245  141.3017  156.3352 C   0  0  0  0  0  0  0  0  0  0  0  0
  150.3882  141.9467  157.3506 C   0  0  0  0  0  0  0  0  0  0  0  0
  149.0087  141.6970  157.5020 C   0  0  0  0  0  0  0  0  0  0  0  0
  148.3533  140.7991  156.6375 C   0  0  0  0  0  0  0  0  0  0  0  0
  149.0917  140.1571  155.6258 C   0  0  0  0  0  0  0  0  0  0  0  0
  144.8849  137.1408  150.0172 H   0  0  0  0  0  0  0  0  0  0  0  0
  146.1433  135.9185  149.8046 H   0  0  0  0  0  0  0  0  0  0  0  0
  146.5882  137.6109  149.9813 H   0  0  0  0  0  0  0  0  0  0  0  0
  145.2638  135.3826  153.3255 H   0  0  0  0  0  0  0  0  0  0  0  0
  144.0392  135.8823  152.1791 H   0  0  0  0  0  0  0  0  0  0  0  0
  143.1362  133.8872  151.3367 H   0  0  0  0  0  0  0  0  0  0  0  0
  143.4139  131.8325  149.9718 H   0  0  0  0  0  0  0  0  0  0  0  0
  145.6882  131.0777  149.3014 H   0  0  0  0  0  0  0  0  0  0  0  0
  147.6881  132.3791  150.0039 H   0  0  0  0  0  0  0  0  0  0  0  0
  147.4204  134.4360  151.3658 H   0  0  0  0  0  0  0  0  0  0  0  0
  145.1716  138.6165  151.9517 H   0  0  0  0  0  0  0  0  0  0  0  0
  145.2816  137.7850  153.4724 H   0  0  0  0  0  0  0  0  0  0  0  0
  147.9594  138.0576  152.3169 H   0  0  0  0  0  0  0  0  0  0  0  0
  148.0400  140.1784  152.1275 H   0  0  0  0  0  0  0  0  0  0  0  0
  146.7025  139.2134  154.8745 H   0  0  0  0  0  0  0  0  0  0  0  0
  147.4630  137.6451  154.7680 H   0  0  0  0  0  0  0  0  0  0  0  0
  149.9719  138.3287  153.1417 H   0  0  0  0  0  0  0  0  0  0  0  0
  152.1806  141.5005  156.2282 H   0  0  0  0  0  0  0  0  0  0  0  0
  150.8850  142.6368  158.0167 H   0  0  0  0  0  0  0  0  0  0  0  0
  148.4538  142.1963  158.2828 H   0  0  0  0  0  0  0  0  0  0  0  0
  147.2968  140.6079  156.7518 H   0  0  0  0  0  0  0  0  0  0  0  0
  146.9079  136.3454  151.9817 H   0  0  0  0  0  0  0  0  0  0  0  0
  1  2  1  0  0  0  0
  1 23  1  0  0  0  0
  1 24  1  0  0  0  0
  1 25  1  0  0  0  0
  2  3  1  0  0  0  0
  2 10  1  0  0  0  0
  2 44  1  0  0  0  0
  3  4  1  0  0  0  0
  3 26  1  0  0  0  0
  3 27  1  0  0  0  0
  4  9  1  0  0  0  0
  4  5  2  0  0  0  0
  5  6  1  0  0  0  0
  5 28  1  0  0  0  0
  6  7  2  0  0  0  0
  6 29  1  0  0  0  0
  7  8  1  0  0  0  0
  7 30  1  0  0  0  0
  8  9  2  0  0  0  0
  8 31  1  0  0  0  0
  9 32  1  0  0  0  0
 10 11  1  0  0  0  0
 10 33  1  0  0  0  0
 10 34  1  0  0  0  0
 11 12  1  0  0  0  0
 11 13  1  0  0  0  0
 11 35  1  0  0  0  0
 12 36  1  0  0  0  0
 13 14  1  0  0  0  0
 13 37  1  0  0  0  0
 13 38  1  0  0  0  0
 14 22  1  0  0  0  0
 14 15  1  0  0  0  0
 15 16  2  0  0  0  0
 15 39  1  0  0  0  0
 16 17  1  0  0  0  0
 17 22  2  0  0  0  0
 17 18  1  0  0  0  0
 18 19  2  0  0  0  0
 18 40  1  0  0  0  0
 19 20  1  0  0  0  0
 19 41  1  0  0  0  0
 20 21  2  0  0  0  0
 20 42  1  0  0  0  0
 21 22  1  0  0  0  0
 21 43  1  0  0  0  0
M  CHG  1   2   1
M  END
> <s_m_source_file>
AV-unprocessed.smi

> <i_m_source_file_index>
1019

> <i_lp_mmshare_version>
43012

> <i_f3d_flags>
0

> <s_epik_input>
W2NIXTFbY0hdW2NIXVtjSF1bY0hdYzFbQ0gyXU4oW0NIM10pW0NIMl1bQ0BIXShbT0hdKVtDSDJdbihbY0hdbjIpYyhjMjMpW2NIXVtjSF1bY0hdW2NIXTM=

> <s_epik_cmdline>
J2VwaWtfcHl0aG9uJywgJy1waCcsICc3LjAnLCAnLXRuJywgJzgnLCAnLW1hJywgJzIwMCcsICctbWV0YWxfYmluZGluZycsICctaW1hZScsICc8aW5maWxlLm1hZT4nLCAnLW9tYWUnLCAnPG91dGZpbGUubWFlPic=

> <r_epik_Ionization_Penalty>
0.0996557

> <r_epik_Ionization_Penalty_Charging>
0.0475377

> <r_epik_Ionization_Penalty_Neutral>
0.0521179

> <r_epik_State_Penalty>
0.0851777

> <r_epik_Charging_Adjusted_Penalty>
0.132715

> <i_epik_Tot_Q>
1

> <i_epik_Tot_abs_Q>
1

> <r_epik_Metal_State_Penalty>
0.0423478

> <b_epik_Metal_Only>
0

> <s_lp_Force_Field>
OPLS_2005

> <r_lp_Energy>
16.6774

> <b_lp_Chiralities_Consistent>
1

> <s_lp_Variant>
AV-unprocessed.smi:1019-4

> <Gold.Version>
5.8.1

> <Gold.Id.Protein>
6NUR|6NUR_protein|mol2

> <Gold.PLP.Fitness>
50.3511

> <Gold.PLP.PLP>
-37.9332

> <Gold.PLP.part.hbond>
-3.0000

> <Gold.PLP.part.metal>
0.0000

> <Gold.PLP.part.buried>
2.4626

> <Gold.PLP.part.nonpolar>
-36.5284

> <Gold.PLP.part.repulsive>
0.1757

> <Gold.PLP.ligand.clash>
0.0000

> <Gold.PLP.ligand.torsion>
1.7520

> <Gold.PLP.Chemscore.Hbond>
3.9825

> <Gold.PLP.Chemscore.CHOScore>
1.1743

> <Gold.PLP.Chemscore.Metal>
0.0000

> <Gold.Chemscore.Hbonds>
donor molecule, donor type, donor heavy atom, donor atom, acceptor molecule, acceptor atom, score
      L1  H     2    44       P1  7948  2.00
      L1  H    12    36       P1  7957  1.00
      P1  H  7989  7998       L1    16  1.00
      L1  C    15    39       P1  7948  0.80
      L1  C    15    39       P1  7957  0.31

> <Gold.PLP.Chemscore.Internal.Correction>
0.4514

> <Gold.Rescore>
     Score         DG    S(hbond)    S(metal)    S(lipo)     H(rot)  DE(clash)    DE(int)     intcor
     16.12     -20.84       2.75        0.00     104.45       2.36       2.88       1.83       ----

> <Gold.Chemscore.Fitness>
16.1247

> <Gold.Chemscore.DG>
-20.8365

> <Gold.Chemscore.ZeroCoef>
-5.4800

> <Gold.Chemscore.Hbond>
2.7489

> <Gold.Chemscore.Metal>
0.0000

> <Gold.Chemscore.Lipo>
104.4531

> <Gold.Chemscore.Internal_Hbond>
0.0000

> <Gold.Chemscore.DEClash>
2.8808

> <Gold.Chemscore.DEInternal>
1.8310

> <Gold.Chemscore.Rot>
2.3616

> <Gold.Chemscore.Internal.Correction>
   9.000000E+99

> <Gold.Chemscore.Hbonds>
donor molecule, donor type, donor heavy atom, donor atom, acceptor molecule, acceptor atom, score
      L1  H     2    44       P1  7948  0.93
      L1  H    12    36       P1  7957  0.94
      P1  H  7989  7998       L1    16  0.25

> <Gold.Chemscore.Hbond.Weighted>
-9.1812

> <Gold.Chemscore.Metal.Weighted>
-0.0000

> <Gold.Chemscore.Lipo.Weighted>
-12.2210

> <Gold.Chemscore.Internal_Hbond.Weighted>
0.0000

> <Gold.Chemscore.DEClash.Weighted>
2.8808

> <Gold.Chemscore.DEInternal.Weighted>
1.8310

> <Gold.Chemscore.Rot.Weighted>
6.0457

> <Gold.Chemscore.Internal.Correction.Weighted>
   9.000000E+99

> <Gold.Protein.RotatedTorsions>
[ 6907 6896 6895 6894 ] final  115.69 input  -60.11 | X-H torsion
[ 7974 7965 7964 7962 ] final  -40.46 input  175.53 | X-H torsion
[ 8008 7997 7996 7995 ] final   71.34 input   59.86 | X-H torsion
[ 10167 10162 10161 10158 ] final -120.35 input  -65.29 | X-H torsion
[ 10718 10713 10712 10709 ] final  178.26 input   66.30 | X-H torsion
[ 10763 10752 10751 10750 ] final  -25.84 input  -60.55 | X-H torsion
[ 11005 11000 10999 10996 ] final  103.60 input  -57.11 | X-H torsion

> <Gold.Protein.ActiveResidues>
 VAL166  LYS551  ARG553  GLY616  TRP617  ASP618  TYR619  PRO620  LYS621  CYS622 
 ASP623  PHE694  ASN695  SER759  ASP760  ASP761  ALA762  ILE779  LEU786  VAL792 
 PHE793  MET794  SER795  GLU796  ALA797  LYS798  CYS799  TRP800  GLU811  SER814 

> <Gold.Protein.RotatedAtoms>
  152.4726  133.8064  159.6979 H   0  0  0  0  0  0  0  0  0  0  0  0  # atno 6907 bound_to 6896
  150.8723  133.7478  159.2964 H   0  0  0  0  0  0  0  0  0  0  0  0  # atno 6908 bound_to 6896
  151.5008  135.1065  159.9880 H   0  0  0  0  0  0  0  0  0  0  0  0  # atno 6909 bound_to 6896
  146.0302  140.6741  142.9136 H   0  0  0  0  0  0  0  0  0  0  0  0  # atno 7974 bound_to 7965
  155.7525  140.3488  155.5157 H   0  0  0  0  0  0  0  0  0  0  0  0  # atno 8008 bound_to 7997
  155.8991  140.1031  157.1384 H   0  0  0  0  0  0  0  0  0  0  0  0  # atno 8009 bound_to 7997
  154.4042  140.1289  156.4400 H   0  0  0  0  0  0  0  0  0  0  0  0  # atno 8010 bound_to 7997
  140.0368  143.5193  152.2150 H   0  0  0  0  0  0  0  0  0  0  0  0  # atno 10167 bound_to 10162
  156.8932  130.9854  151.3046 H   0  0  0  0  0  0  0  0  0  0  0  0  # atno 10718 bound_to 10713
  153.7062  135.6953  153.5049 H   0  0  0  0  0  0  0  0  0  0  0  0  # atno 10763 bound_to 10752
  153.2306  135.4339  155.0589 H   0  0  0  0  0  0  0  0  0  0  0  0  # atno 10764 bound_to 10752
  154.8329  135.3483  154.6600 H   0  0  0  0  0  0  0  0  0  0  0  0  # atno 10765 bound_to 10752
  139.8785  134.9269  156.5235 H   0  0  0  0  0  0  0  0  0  0  0  0  # atno 11005 bound_to 11000
  144.7027  140.3722  143.7143 LP  0  0  0  0  0  0  0  0  0  0  0  0  # atno 17320 bound_to 7965
  145.7053  139.1671  143.2569 LP  0  0  0  0  0  0  0  0  0  0  0  0  # atno 17321 bound_to 7965
  139.6040  144.7591  151.3106 LP  0  0  0  0  0  0  0  0  0  0  0  0  # atno 17342 bound_to 10162
  140.7278  143.6954  150.7888 LP  0  0  0  0  0  0  0  0  0  0  0  0  # atno 17343 bound_to 10162
  157.6071  130.8555  149.8893 LP  0  0  0  0  0  0  0  0  0  0  0  0  # atno 17370 bound_to 10713
  156.0619  130.3698  150.0964 LP  0  0  0  0  0  0  0  0  0  0  0  0  # atno 17371 bound_to 10713
  140.8433  133.8188  155.9096 LP  0  0  0  0  0  0  0  0  0  0  0  0  # atno 17394 bound_to 11000
  140.9216  134.2134  157.4923 LP  0  0  0  0  0  0  0  0  0  0  0  0  # atno 17395 bound_to 11000

$$$$
