AV-unprocessed.smi:1744|AV-procd|sdf|7027|dock5
  -GOLD-   22720 8243D 1   1.00000     0.00000
 Structure written by MMmdl.
 43 44  0  0  0  0  0  0  0  0  3 V2000
  152.1047  139.6143  156.1700 C   0  0  0  0  0  0  0  0  0  0  0  0
  151.5855  138.8985  154.9171 C   0  0  0  0  0  0  0  0  0  0  0  0
  150.2758  139.3814  154.5243 N   0  0  0  0  0  0  0  0  0  0  0  0
  149.1877  138.6462  154.0981 C   0  0  0  0  0  0  0  0  0  0  0  0
  148.1994  139.5517  153.8549 C   0  0  0  0  0  0  0  0  0  0  0  0
  146.8994  139.2260  153.3944 N   0  0  0  0  0  0  0  0  0  0  0  0
  146.4285  138.0070  153.0863 C   0  0  0  0  0  0  0  0  0  0  0  0
  147.0754  136.9615  153.1461 O   0  0  0  0  0  0  0  0  0  0  0  0
  145.1496  138.0657  152.6883 N   0  0  0  0  0  0  0  0  0  0  0  0
  144.3474  136.9222  152.2635 C   0  0  2  0  0  0  0  0  0  0  0  0
  144.2897  135.8559  153.3727 C   0  0  0  0  0  0  0  0  0  0  0  0
  143.5464  134.5965  152.8982 C   0  0  0  0  0  0  0  0  0  0  0  0
  144.1646  134.0412  151.6682 N   0  3  1  0  0  0  0  0  0  0  0  0
  143.5665  132.7411  151.2711 C   0  0  0  0  0  0  0  0  0  0  0  0
  143.9313  132.3957  149.8233 C   0  0  0  0  0  0  0  0  0  0  0  0
  142.8485  132.0996  149.0761 N   0  5  0  0  0  0  0  0  0  0  0  0
  145.1092  132.4098  149.4740 O   0  0  0  0  0  0  0  0  0  0  0  0
  144.1869  135.0414  150.5675 C   0  0  0  0  0  0  0  0  0  0  0  0
  144.9488  136.3087  150.9887 C   0  0  0  0  0  0  0  0  0  0  0  0
  148.7593  140.8270  154.1491 C   0  0  0  0  0  0  0  0  0  0  0  0
  150.0159  140.7121  154.5523 N   0  0  0  0  0  0  0  0  0  0  0  0
  153.0767  139.2202  156.4674 H   0  0  0  0  0  0  0  0  0  0  0  0
  151.4211  139.4837  157.0092 H   0  0  0  0  0  0  0  0  0  0  0  0
  152.2205  140.6843  155.9947 H   0  0  0  0  0  0  0  0  0  0  0  0
  152.2763  139.0393  154.0847 H   0  0  0  0  0  0  0  0  0  0  0  0
  151.5214  137.8251  155.0980 H   0  0  0  0  0  0  0  0  0  0  0  0
  149.2115  137.5699  154.0114 H   0  0  0  0  0  0  0  0  0  0  0  0
  146.2659  140.0033  153.2781 H   0  0  0  0  0  0  0  0  0  0  0  0
  144.6998  138.9694  152.6700 H   0  0  0  0  0  0  0  0  0  0  0  0
  143.3330  137.2567  152.0369 H   0  0  0  0  0  0  0  0  0  0  0  0
  145.3010  135.5835  153.6783 H   0  0  0  0  0  0  0  0  0  0  0  0
  143.7977  136.2587  154.2589 H   0  0  0  0  0  0  0  0  0  0  0  0
  143.5699  133.8489  153.6919 H   0  0  0  0  0  0  0  0  0  0  0  0
  142.4969  134.8260  152.7078 H   0  0  0  0  0  0  0  0  0  0  0  0
  143.9369  131.9392  151.9124 H   0  0  0  0  0  0  0  0  0  0  0  0
  142.4832  132.7664  151.3996 H   0  0  0  0  0  0  0  0  0  0  0  0
  142.1182  132.8105  148.9512 H   0  0  0  0  0  0  0  0  0  0  0  0
  144.6635  134.6197  149.6821 H   0  0  0  0  0  0  0  0  0  0  0  0
  143.1644  135.2948  150.2833 H   0  0  0  0  0  0  0  0  0  0  0  0
  144.9284  137.0373  150.1773 H   0  0  0  0  0  0  0  0  0  0  0  0
  145.9981  136.0589  151.1540 H   0  0  0  0  0  0  0  0  0  0  0  0
  148.3187  141.8109  154.0867 H   0  0  0  0  0  0  0  0  0  0  0  0
  145.1265  133.8334  151.8981 H   0  0  0  0  0  0  0  0  0  0  0  0
  1  2  1  0  0  0  0
  1 22  1  0  0  0  0
  1 23  1  0  0  0  0
  1 24  1  0  0  0  0
  2  3  1  0  0  0  0
  2 25  1  0  0  0  0
  2 26  1  0  0  0  0
  3 21  1  0  0  0  0
  3  4  1  0  0  0  0
  4  5  2  0  0  0  0
  4 27  1  0  0  0  0
  5  6  1  0  0  0  0
  5 20  1  0  0  0  0
  6  7  1  0  0  0  0
  6 28  1  0  0  0  0
  7  8  2  0  0  0  0
  7  9  1  0  0  0  0
  9 10  1  0  0  0  0
  9 29  1  0  0  0  0
 10 19  1  0  0  0  0
 10 11  1  0  0  0  0
 10 30  1  0  0  0  0
 11 12  1  0  0  0  0
 11 31  1  0  0  0  0
 11 32  1  0  0  0  0
 12 13  1  0  0  0  0
 12 33  1  0  0  0  0
 12 34  1  0  0  0  0
 13 14  1  0  0  0  0
 13 18  1  0  0  0  0
 13 43  1  0  0  0  0
 14 15  1  0  0  0  0
 14 35  1  0  0  0  0
 14 36  1  0  0  0  0
 15 16  1  0  0  0  0
 15 17  2  0  0  0  0
 16 37  1  0  0  0  0
 18 19  1  0  0  0  0
 18 38  1  0  0  0  0
 18 39  1  0  0  0  0
 19 40  1  0  0  0  0
 19 41  1  0  0  0  0
 20 21  2  0  0  0  0
 20 42  1  0  0  0  0
M  CHG  1  13   1
M  CHG  1  16  -1
M  END
> <s_m_source_file>
AV-unprocessed.smi

> <i_m_source_file_index>
1744

> <i_lp_mmshare_version>
43012

> <i_f3d_flags>
0

> <s_epik_input>
W0NIM11bQ0gyXW4xW2NIXWMoW2NIXW4xKVtOSF1DKD1PKVtOSF1bQ0hdMltDSDJdW0NIMl1OKFtDSDJdW0NIMl0yKVtDSDJdQyg9TylbTkgyXQ==

> <s_epik_cmdline>
J2VwaWtfcHl0aG9uJywgJy1waCcsICc3LjAnLCAnLXRuJywgJzgnLCAnLW1hJywgJzIwMCcsICctbWV0YWxfYmluZGluZycsICctaW1hZScsICc8aW5maWxlLm1hZT4nLCAnLW9tYWUnLCAnPG91dGZpbGUubWFlPic=

> <r_lp_tautomer_probability>
1

> <r_epik_Ionization_Penalty>
5.72895

> <r_epik_Ionization_Penalty_Charging>
5.7288

> <r_epik_Ionization_Penalty_Neutral>
0.000148676

> <r_epik_State_Penalty>
6.54882

> <r_epik_Charging_Adjusted_Penalty>
12.2776

> <i_epik_Tot_Q>
0

> <i_epik_Tot_abs_Q>
2

> <r_epik_Metal_State_Penalty>
2.51309

> <b_epik_Metal_Only>
1

> <s_lp_Force_Field>
OPLS_2005

> <r_lp_Energy>
12.1226

> <b_lp_Chiralities_Consistent>
1

> <s_lp_Variant>
AV-unprocessed.smi:1744-4

> <Gold.Version>
5.8.1

> <Gold.Id.Protein>
6NUR|6NUR_protein|mol2

> <Gold.PLP.Fitness>
45.1484

> <Gold.PLP.PLP>
-33.6338

> <Gold.PLP.part.hbond>
-5.4600

> <Gold.PLP.part.metal>
0.0000

> <Gold.PLP.part.buried>
-0.9076

> <Gold.PLP.part.nonpolar>
-32.1391

> <Gold.PLP.part.repulsive>
5.0612

> <Gold.PLP.ligand.clash>
0.0000

> <Gold.PLP.ligand.torsion>
0.4902

> <Gold.PLP.Chemscore.Hbond>
3.2304

> <Gold.PLP.Chemscore.CHOScore>
0.9209

> <Gold.PLP.Chemscore.Metal>
0.0000

> <Gold.Chemscore.Hbonds>
donor molecule, donor type, donor heavy atom, donor atom, acceptor molecule, acceptor atom, score
      L1  H     9    29       P1 10175  1.00
      L1  H    16    37       P1 10186  1.00
      P1  H  7989  7998       L1    21  0.23
      P1  H 10785 10796       L1    16  1.00
      L1  C     4    27       P1  7948  0.92

> <Gold.PLP.Chemscore.Internal.Correction>
0.0412

> <Gold.Rescore>
     Score         DG    S(hbond)    S(metal)    S(lipo)     H(rot)  DE(clash)    DE(int)     intcor
     10.32     -16.37       2.84        0.00      59.62       2.18       1.86       4.18       ----

> <Gold.Chemscore.Fitness>
10.3215

> <Gold.Chemscore.DG>
-16.3673

> <Gold.Chemscore.ZeroCoef>
-5.4800

> <Gold.Chemscore.Hbond>
2.8447

> <Gold.Chemscore.Metal>
0.0000

> <Gold.Chemscore.Lipo>
59.6175

> <Gold.Chemscore.Internal_Hbond>
0.0000

> <Gold.Chemscore.DEClash>
1.8622

> <Gold.Chemscore.DEInternal>
4.1837

> <Gold.Chemscore.Rot>
2.1833

> <Gold.Chemscore.Internal.Correction>
   9.000000E+99

> <Gold.Chemscore.Hbonds>
donor molecule, donor type, donor heavy atom, donor atom, acceptor molecule, acceptor atom, score
      L1  H     9    29       P1 10175  1.00
      L1  H    16    37       P1 10186  0.92
      P1  H 10785 10796       L1    16  0.24

> <Gold.Chemscore.Hbond.Weighted>
-9.5012

> <Gold.Chemscore.Metal.Weighted>
-0.0000

> <Gold.Chemscore.Lipo.Weighted>
-6.9753

> <Gold.Chemscore.Internal_Hbond.Weighted>
0.0000

> <Gold.Chemscore.DEClash.Weighted>
1.8622

> <Gold.Chemscore.DEInternal.Weighted>
4.1837

> <Gold.Chemscore.Rot.Weighted>
5.5892

> <Gold.Chemscore.Internal.Correction.Weighted>
   9.000000E+99

> <Gold.Protein.RotatedTorsions>
[ 6907 6896 6895 6894 ] final   67.20 input  -60.11 | X-H torsion
[ 7974 7965 7964 7962 ] final  -94.72 input  175.53 | X-H torsion
[ 8008 7997 7996 7995 ] final  127.38 input   59.86 | X-H torsion
[ 10167 10162 10161 10158 ] final   57.48 input  -65.29 | X-H torsion
[ 10718 10713 10712 10709 ] final -154.72 input   66.30 | X-H torsion
[ 10763 10752 10751 10750 ] final -105.62 input  -60.55 | X-H torsion
[ 11005 11000 10999 10996 ] final -115.12 input  -57.11 | X-H torsion

> <Gold.Protein.ActiveResidues>
 VAL166  LYS551  ARG553  GLY616  TRP617  ASP618  TYR619  PRO620  LYS621  CYS622 
 ASP623  PHE694  ASN695  SER759  ASP760  ASP761  ALA762  ILE779  LEU786  VAL792 
 PHE793  MET794  SER795  GLU796  ALA797  LYS798  CYS799  TRP800  GLU811  SER814 

> <Gold.Protein.RotatedAtoms>
  152.4535  134.5343  159.9819 H   0  0  0  0  0  0  0  0  0  0  0  0  # atno 6907 bound_to 6896
  151.5409  133.3427  159.2943 H   0  0  0  0  0  0  0  0  0  0  0  0  # atno 6908 bound_to 6896
  150.8471  134.7815  159.7042 H   0  0  0  0  0  0  0  0  0  0  0  0  # atno 6909 bound_to 6896
  145.3695  140.9503  143.2455 H   0  0  0  0  0  0  0  0  0  0  0  0  # atno 7974 bound_to 7965
  156.2889  140.2670  156.2263 H   0  0  0  0  0  0  0  0  0  0  0  0  # atno 8008 bound_to 7997
  155.0117  140.0387  157.2420 H   0  0  0  0  0  0  0  0  0  0  0  0  # atno 8009 bound_to 7997
  154.7512  140.2743  155.6296 H   0  0  0  0  0  0  0  0  0  0  0  0  # atno 8010 bound_to 7997
  140.1975  144.4022  150.6543 H   0  0  0  0  0  0  0  0  0  0  0  0  # atno 10167 bound_to 10162
  156.5031  130.8400  151.2617 H   0  0  0  0  0  0  0  0  0  0  0  0  # atno 10718 bound_to 10713
  154.7959  135.4742  154.0159 H   0  0  0  0  0  0  0  0  0  0  0  0  # atno 10763 bound_to 10752
  153.1702  135.6824  153.8625 H   0  0  0  0  0  0  0  0  0  0  0  0  # atno 10764 bound_to 10752
  153.8210  135.3204  155.3388 H   0  0  0  0  0  0  0  0  0  0  0  0  # atno 10765 bound_to 10752
  141.0508  133.9690  157.2839 H   0  0  0  0  0  0  0  0  0  0  0  0  # atno 11005 bound_to 11000
  144.8587  139.5210  143.6822 LP  0  0  0  0  0  0  0  0  0  0  0  0  # atno 17320 bound_to 7965
  146.2892  139.7089  142.9173 LP  0  0  0  0  0  0  0  0  0  0  0  0  # atno 17321 bound_to 7965
  140.6413  143.2204  151.6283 LP  0  0  0  0  0  0  0  0  0  0  0  0  # atno 17342 bound_to 10162
  139.5230  144.3144  152.0965 LP  0  0  0  0  0  0  0  0  0  0  0  0  # atno 17343 bound_to 10162
  157.7460  130.9975  150.2818 LP  0  0  0  0  0  0  0  0  0  0  0  0  # atno 17370 bound_to 10713
  156.3314  130.3801  149.7488 LP  0  0  0  0  0  0  0  0  0  0  0  0  # atno 17371 bound_to 10713
  139.9349  135.0197  156.8523 LP  0  0  0  0  0  0  0  0  0  0  0  0  # atno 17394 bound_to 11000
  140.6059  134.0128  155.7556 LP  0  0  0  0  0  0  0  0  0  0  0  0  # atno 17395 bound_to 11000

$$$$
