AV-unprocessed.smi:2004|AV-procd|sdf|8121|dock1
  -GOLD-   2272010353D 1   1.00000     0.00000
 Structure written by MMmdl.
 39 41  0  0  0  0  0  0  0  0  1 V2000
  149.5911  140.8338  153.6163 O   0  0  0  0  0  0  0  0  0  0  0  0
  148.6792  141.5701  154.4045 C   0  0  2  0  0  0  0  0  0  0  0  0
  148.7069  141.0009  155.8347 C   0  0  0  0  0  0  0  0  0  0  0  0
  149.5453  141.8170  156.6360 O   0  0  0  0  0  0  0  0  0  0  0  0
  150.2231  141.0858  157.6450 C   0  0  0  0  0  0  0  0  0  0  0  0
  151.0870  141.9855  158.5075 C   0  0  0  0  0  0  0  0  0  0  0  0
  151.7880  141.4495  159.6086 C   0  0  0  0  0  0  0  0  0  0  0  0
  152.6030  142.2803  160.4022 C   0  0  0  0  0  0  0  0  0  0  0  0
  152.7245  143.6493  160.0948 C   0  0  0  0  0  0  0  0  0  0  0  0
  152.0325  144.1867  158.9922 C   0  0  0  0  0  0  0  0  0  0  0  0
  151.2177  143.3561  158.1981 C   0  0  0  0  0  0  0  0  0  0  0  0
  147.3012  141.4658  153.7212 C   0  0  0  0  0  0  0  0  0  0  0  0
  146.2880  142.2771  154.3715 N   0  0  0  0  0  0  0  0  0  0  0  0
  145.7837  142.1003  155.6079 C   0  0  0  0  0  0  0  0  0  0  0  0
  144.8583  142.9625  156.0184 N   0  0  0  0  0  0  0  0  0  0  0  0
  144.7520  143.8008  154.9220 C   0  0  0  0  0  0  0  0  0  0  0  0
  143.9348  144.9344  154.7108 C   0  0  0  0  0  0  0  0  0  0  0  0
  143.9982  145.6441  153.4937 C   0  0  0  0  0  0  0  0  0  0  0  0
  144.8772  145.2326  152.4709 C   0  0  0  0  0  0  0  0  0  0  0  0
  145.7007  144.1057  152.6576 C   0  0  0  0  0  0  0  0  0  0  0  0
  145.6354  143.4005  153.8740 C   0  0  0  0  0  0  0  0  0  0  0  0
  149.2866  140.8447  152.7216 H   0  0  0  0  0  0  0  0  0  0  0  0
  148.9925  142.6149  154.4176 H   0  0  0  0  0  0  0  0  0  0  0  0
  147.7081  141.0189  156.2714 H   0  0  0  0  0  0  0  0  0  0  0  0
  149.0405  139.9617  155.8361 H   0  0  0  0  0  0  0  0  0  0  0  0
  149.5016  140.5817  158.2897 H   0  0  0  0  0  0  0  0  0  0  0  0
  150.8426  140.3141  157.1848 H   0  0  0  0  0  0  0  0  0  0  0  0
  151.7016  140.3995  159.8472 H   0  0  0  0  0  0  0  0  0  0  0  0
  153.1361  141.8670  161.2457 H   0  0  0  0  0  0  0  0  0  0  0  0
  153.3499  144.2862  160.7028 H   0  0  0  0  0  0  0  0  0  0  0  0
  152.1277  145.2359  158.7541 H   0  0  0  0  0  0  0  0  0  0  0  0
  150.6928  143.7762  157.3526 H   0  0  0  0  0  0  0  0  0  0  0  0
  147.3716  141.7876  152.6811 H   0  0  0  0  0  0  0  0  0  0  0  0
  146.9628  140.4292  153.7026 H   0  0  0  0  0  0  0  0  0  0  0  0
  146.1144  141.2903  156.2415 H   0  0  0  0  0  0  0  0  0  0  0  0
  143.2581  145.2590  155.4873 H   0  0  0  0  0  0  0  0  0  0  0  0
  143.3691  146.5092  153.3444 H   0  0  0  0  0  0  0  0  0  0  0  0
  144.9187  145.7827  151.5421 H   0  0  0  0  0  0  0  0  0  0  0  0
  146.3733  143.7880  151.8749 H   0  0  0  0  0  0  0  0  0  0  0  0
  1  2  1  0  0  0  0
  1 22  1  0  0  0  0
  2  3  1  0  0  0  0
  2 12  1  0  0  0  0
  2 23  1  0  0  0  0
  3  4  1  0  0  0  0
  3 24  1  0  0  0  0
  3 25  1  0  0  0  0
  4  5  1  0  0  0  0
  5  6  1  0  0  0  0
  5 26  1  0  0  0  0
  5 27  1  0  0  0  0
  6 11  1  0  0  0  0
  6  7  2  0  0  0  0
  7  8  1  0  0  0  0
  7 28  1  0  0  0  0
  8  9  2  0  0  0  0
  8 29  1  0  0  0  0
  9 10  1  0  0  0  0
  9 30  1  0  0  0  0
 10 11  2  0  0  0  0
 10 31  1  0  0  0  0
 11 32  1  0  0  0  0
 12 13  1  0  0  0  0
 12 33  1  0  0  0  0
 12 34  1  0  0  0  0
 13 21  1  0  0  0  0
 13 14  1  0  0  0  0
 14 15  2  0  0  0  0
 14 35  1  0  0  0  0
 15 16  1  0  0  0  0
 16 21  2  0  0  0  0
 16 17  1  0  0  0  0
 17 18  2  0  0  0  0
 17 36  1  0  0  0  0
 18 19  1  0  0  0  0
 18 37  1  0  0  0  0
 19 20  2  0  0  0  0
 19 38  1  0  0  0  0
 20 21  1  0  0  0  0
 20 39  1  0  0  0  0
M  END
> <s_m_source_file>
AV-unprocessed.smi

> <i_m_source_file_index>
2004

> <i_lp_mmshare_version>
43012

> <i_f3d_flags>
0

> <s_epik_input>
W2NIXTFbY0hdW2NIXVtjSF1jKGMxMiluKFtjSF1uMilbQ0gyXVtDQEhdKFtPSF0pW0NIMl1PW0NIMl1jM1tjSF1bY0hdW2NIXVtjSF1bY0hdMw==

> <s_epik_cmdline>
J2VwaWtfcHl0aG9uJywgJy1waCcsICc3LjAnLCAnLXRuJywgJzgnLCAnLW1hJywgJzIwMCcsICctbWV0YWxfYmluZGluZycsICctaW1hZScsICc8aW5maWxlLm1hZT4nLCAnLW9tYWUnLCAnPG91dGZpbGUubWFlPic=

> <r_epik_Ionization_Penalty>
0.0713119

> <r_epik_Ionization_Penalty_Charging>
0

> <r_epik_Ionization_Penalty_Neutral>
0.0713119

> <r_epik_State_Penalty>
0.06259

> <r_epik_Charging_Adjusted_Penalty>
0.06259

> <i_epik_Tot_Q>
0

> <i_epik_Tot_abs_Q>
0

> <r_epik_Metal_State_Penalty>
6.60119e-05

> <b_epik_Metal_Only>
0

> <s_lp_Force_Field>
OPLS_2005

> <r_lp_Energy>
16.1981

> <b_lp_Chiralities_Consistent>
1

> <s_lp_Variant>
AV-unprocessed.smi:2004-1

> <Gold.Version>
5.8.1

> <Gold.Id.Protein>
6NUR|6NUR_protein|mol2

> <Gold.PLP.Fitness>
54.0016

> <Gold.PLP.PLP>
-52.4646

> <Gold.PLP.part.hbond>
-2.8364

> <Gold.PLP.part.metal>
0.0000

> <Gold.PLP.part.buried>
-5.9521

> <Gold.PLP.part.nonpolar>
-44.1974

> <Gold.PLP.part.repulsive>
0.2101

> <Gold.PLP.ligand.clash>
0.0000

> <Gold.PLP.ligand.torsion>
0.8142

> <Gold.PLP.Chemscore.Hbond>
1.0051

> <Gold.PLP.Chemscore.CHOScore>
0.0000

> <Gold.PLP.Chemscore.Metal>
0.0000

> <Gold.Chemscore.Hbonds>
donor molecule, donor type, donor heavy atom, donor atom, acceptor molecule, acceptor atom, score
      L1  H     1    22       P1  7957  0.82
      P1  H  7989  7998       L1     1  0.37

> <Gold.PLP.Chemscore.Internal.Correction>
0.1502

> <Gold.Rescore>
     Score         DG    S(hbond)    S(metal)    S(lipo)     H(rot)  DE(clash)    DE(int)     intcor
     17.47     -18.85       1.22        0.00     130.37       2.33       0.46       0.93       ----

> <Gold.Chemscore.Fitness>
17.4661

> <Gold.Chemscore.DG>
-18.8522

> <Gold.Chemscore.ZeroCoef>
-5.4800

> <Gold.Chemscore.Hbond>
1.2218

> <Gold.Chemscore.Metal>
0.0000

> <Gold.Chemscore.Lipo>
130.3681

> <Gold.Chemscore.Internal_Hbond>
0.0000

> <Gold.Chemscore.DEClash>
0.4603

> <Gold.Chemscore.DEInternal>
0.9258

> <Gold.Chemscore.Rot>
2.3288

> <Gold.Chemscore.Internal.Correction>
   9.000000E+99

> <Gold.Chemscore.Hbonds>
donor molecule, donor type, donor heavy atom, donor atom, acceptor molecule, acceptor atom, score
      L1  H     1    22       P1  7957  0.80
      P1  H  7989  7998       L1     1  0.16

> <Gold.Chemscore.Hbond.Weighted>
-4.0808

> <Gold.Chemscore.Metal.Weighted>
-0.0000

> <Gold.Chemscore.Lipo.Weighted>
-15.2531

> <Gold.Chemscore.Internal_Hbond.Weighted>
0.0000

> <Gold.Chemscore.DEClash.Weighted>
0.4603

> <Gold.Chemscore.DEInternal.Weighted>
0.9258

> <Gold.Chemscore.Rot.Weighted>
5.9616

> <Gold.Chemscore.Internal.Correction.Weighted>
   9.000000E+99

> <Gold.Protein.RotatedTorsions>
[ 6907 6896 6895 6894 ] final -171.39 input  -60.11 | X-H torsion
[ 7974 7965 7964 7962 ] final    1.52 input  175.53 | X-H torsion
[ 8008 7997 7996 7995 ] final   87.81 input   59.86 | X-H torsion
[ 10167 10162 10161 10158 ] final  140.42 input  -65.29 | X-H torsion
[ 10718 10713 10712 10709 ] final -171.03 input   66.30 | X-H torsion
[ 10763 10752 10751 10750 ] final -151.65 input  -60.55 | X-H torsion
[ 11005 11000 10999 10996 ] final   74.65 input  -57.11 | X-H torsion

> <Gold.Protein.ActiveResidues>
 VAL166  LYS551  ARG553  GLY616  TRP617  ASP618  TYR619  PRO620  LYS621  CYS622 
 ASP623  PHE694  ASN695  SER759  ASP760  ASP761  ALA762  ILE779  LEU786  VAL792 
 PHE793  MET794  SER795  GLU796  ALA797  LYS798  CYS799  TRP800  GLU811  SER814 

> <Gold.Protein.RotatedAtoms>
  151.5231  133.3463  159.2904 H   0  0  0  0  0  0  0  0  0  0  0  0  # atno 6907 bound_to 6896
  150.8640  134.8001  159.7115 H   0  0  0  0  0  0  0  0  0  0  0  0  # atno 6908 bound_to 6896
  152.4650  134.5105  159.9804 H   0  0  0  0  0  0  0  0  0  0  0  0  # atno 6909 bound_to 6896
  146.2440  140.0974  142.8349 H   0  0  0  0  0  0  0  0  0  0  0  0  # atno 7974 bound_to 7965
  155.9800  140.3378  155.6654 H   0  0  0  0  0  0  0  0  0  0  0  0  # atno 8008 bound_to 7997
  155.6561  140.0711  157.2588 H   0  0  0  0  0  0  0  0  0  0  0  0  # atno 8009 bound_to 7997
  154.4189  140.1717  156.1714 H   0  0  0  0  0  0  0  0  0  0  0  0  # atno 8010 bound_to 7997
  139.5049  144.6235  151.5994 H   0  0  0  0  0  0  0  0  0  0  0  0  # atno 10167 bound_to 10162
  156.7348  130.9320  151.3106 H   0  0  0  0  0  0  0  0  0  0  0  0  # atno 10718 bound_to 10713
  154.8044  135.3255  154.7468 H   0  0  0  0  0  0  0  0  0  0  0  0  # atno 10763 bound_to 10752
  153.8129  135.6894  153.4842 H   0  0  0  0  0  0  0  0  0  0  0  0  # atno 10764 bound_to 10752
  153.1781  135.4597  154.9936 H   0  0  0  0  0  0  0  0  0  0  0  0  # atno 10765 bound_to 10752
  139.9381  134.7451  156.1174 H   0  0  0  0  0  0  0  0  0  0  0  0  # atno 11005 bound_to 11000
  145.0598  140.9079  143.4946 LP  0  0  0  0  0  0  0  0  0  0  0  0  # atno 17320 bound_to 7965
  145.1087  139.2772  143.5648 LP  0  0  0  0  0  0  0  0  0  0  0  0  # atno 17321 bound_to 7965
  140.5944  143.9722  150.6345 LP  0  0  0  0  0  0  0  0  0  0  0  0  # atno 17342 bound_to 10162
  140.2913  143.3322  152.1060 LP  0  0  0  0  0  0  0  0  0  0  0  0  # atno 17343 bound_to 10162
  157.6843  130.9170  150.0347 LP  0  0  0  0  0  0  0  0  0  0  0  0  # atno 17370 bound_to 10713
  156.1504  130.3642  149.9446 LP  0  0  0  0  0  0  0  0  0  0  0  0  # atno 17371 bound_to 10713
  141.1003  133.6680  156.2739 LP  0  0  0  0  0  0  0  0  0  0  0  0  # atno 17394 bound_to 11000
  140.6024  134.5542  157.5520 LP  0  0  0  0  0  0  0  0  0  0  0  0  # atno 17395 bound_to 11000

$$$$
