AV-unprocessed.smi:1205|AV-procd|sdf|5039|dock8
  -GOLD-   22720 4 63D 1   1.00000     0.00000
 Structure written by MMmdl.
 49 50  0  0  0  0  0  0  0  0  2 V2000
  151.4379  141.9828  157.3606 C   0  0  0  0  0  0  0  0  0  0  0  0
  151.1446  140.9258  156.3370 C   0  0  0  0  0  0  0  0  0  0  0  0
  149.9168  140.6801  155.6564 C   0  0  0  0  0  0  0  0  0  0  0  0
  150.2246  139.6148  154.8549 C   0  0  0  0  0  0  0  0  0  0  0  0
  149.4285  138.9455  153.9791 N   0  0  0  0  0  0  0  0  0  0  0  0
  148.2103  139.2855  153.5228 C   0  0  0  0  0  0  0  0  0  0  0  0
  147.5867  140.3006  153.8335 O   0  0  0  0  0  0  0  0  0  0  0  0
  147.7364  138.3655  152.6702 N   0  0  0  0  0  0  0  0  0  0  0  0
  146.4401  138.4367  152.0025 C   0  0  0  0  0  0  0  0  0  0  0  0
  145.4891  137.2900  152.4200 C   0  0  2  0  0  0  0  0  0  0  0  0
  144.7440  137.5813  153.7411 C   0  0  0  0  0  0  0  0  0  0  0  0
  146.2115  135.9840  152.4330 N   0  3  1  0  0  0  0  0  0  0  0  0
  146.4012  135.3727  153.7771 C   0  0  0  0  0  0  0  0  0  0  0  0
  147.3555  134.1709  153.6973 C   0  0  0  0  0  0  0  0  0  0  0  0
  146.8440  133.1316  152.6907 C   0  0  0  0  0  0  0  0  0  0  0  0
  146.6132  133.7841  151.3163 C   0  0  1  0  0  0  0  0  0  0  0  0
  146.0743  132.7711  150.2967 C   0  0  0  0  0  0  0  0  0  0  0  0
  145.6763  135.0014  151.4526 C   0  0  0  0  0  0  0  0  0  0  0  0
  151.5418  139.2694  155.0604 N   0  0  0  0  0  0  0  0  0  0  0  0
  152.3232  138.2106  154.4513 C   0  0  0  0  0  0  0  0  0  0  0  0
  152.1066  140.0829  155.9787 N   0  0  0  0  0  0  0  0  0  0  0  0
  150.5574  142.5945  157.5581 H   0  0  0  0  0  0  0  0  0  0  0  0
  152.2336  142.6470  157.0224 H   0  0  0  0  0  0  0  0  0  0  0  0
  151.7514  141.5385  158.3055 H   0  0  0  0  0  0  0  0  0  0  0  0
  148.9809  141.2088  155.7565 H   0  0  0  0  0  0  0  0  0  0  0  0
  149.8117  138.0808  153.6265 H   0  0  0  0  0  0  0  0  0  0  0  0
  148.3133  137.5625  152.4648 H   0  0  0  0  0  0  0  0  0  0  0  0
  145.9796  139.4053  152.2057 H   0  0  0  0  0  0  0  0  0  0  0  0
  146.6313  138.4082  150.9303 H   0  0  0  0  0  0  0  0  0  0  0  0
  144.7331  137.2187  151.6369 H   0  0  0  0  0  0  0  0  0  0  0  0
  144.1102  138.4635  153.6482 H   0  0  0  0  0  0  0  0  0  0  0  0
  145.4342  137.7663  154.5645 H   0  0  0  0  0  0  0  0  0  0  0  0
  144.0935  136.7551  154.0273 H   0  0  0  0  0  0  0  0  0  0  0  0
  146.8081  136.1024  154.4761 H   0  0  0  0  0  0  0  0  0  0  0  0
  145.4409  135.0473  154.1795 H   0  0  0  0  0  0  0  0  0  0  0  0
  148.3499  134.5100  153.4038 H   0  0  0  0  0  0  0  0  0  0  0  0
  147.4623  133.7135  154.6814 H   0  0  0  0  0  0  0  0  0  0  0  0
  147.5597  132.3130  152.6068 H   0  0  0  0  0  0  0  0  0  0  0  0
  145.9132  132.6952  153.0565 H   0  0  0  0  0  0  0  0  0  0  0  0
  147.5759  134.1402  150.9463 H   0  0  0  0  0  0  0  0  0  0  0  0
  145.1105  132.3677  150.6088 H   0  0  0  0  0  0  0  0  0  0  0  0
  146.7615  131.9335  150.1746 H   0  0  0  0  0  0  0  0  0  0  0  0
  145.9408  133.2322  149.3178 H   0  0  0  0  0  0  0  0  0  0  0  0
  144.6807  134.6780  151.7594 H   0  0  0  0  0  0  0  0  0  0  0  0
  145.5682  135.4772  150.4770 H   0  0  0  0  0  0  0  0  0  0  0  0
  152.2120  138.2479  153.3673 H   0  0  0  0  0  0  0  0  0  0  0  0
  151.9730  137.2439  154.8134 H   0  0  0  0  0  0  0  0  0  0  0  0
  153.3795  138.3218  154.6996 H   0  0  0  0  0  0  0  0  0  0  0  0
  147.1394  136.2009  152.0979 H   0  0  0  0  0  0  0  0  0  0  0  0
  1  2  1  0  0  0  0
  1 22  1  0  0  0  0
  1 23  1  0  0  0  0
  1 24  1  0  0  0  0
  2 21  2  0  0  0  0
  2  3  1  0  0  0  0
  3  4  2  0  0  0  0
  3 25  1  0  0  0  0
  4  5  1  0  0  0  0
  4 19  1  0  0  0  0
  5  6  1  0  0  0  0
  5 26  1  0  0  0  0
  6  7  2  0  0  0  0
  6  8  1  0  0  0  0
  8  9  1  0  0  0  0
  8 27  1  0  0  0  0
  9 10  1  0  0  0  0
  9 28  1  0  0  0  0
  9 29  1  0  0  0  0
 10 11  1  0  0  0  0
 10 12  1  0  0  0  0
 10 30  1  0  0  0  0
 11 31  1  0  0  0  0
 11 32  1  0  0  0  0
 11 33  1  0  0  0  0
 12 18  1  0  0  0  0
 12 13  1  0  0  0  0
 12 49  1  0  0  0  0
 13 14  1  0  0  0  0
 13 34  1  0  0  0  0
 13 35  1  0  0  0  0
 14 15  1  0  0  0  0
 14 36  1  0  0  0  0
 14 37  1  0  0  0  0
 15 16  1  0  0  0  0
 15 38  1  0  0  0  0
 15 39  1  0  0  0  0
 16 17  1  0  0  0  0
 16 18  1  0  0  0  0
 16 40  1  0  0  0  0
 17 41  1  0  0  0  0
 17 42  1  0  0  0  0
 17 43  1  0  0  0  0
 18 44  1  0  0  0  0
 18 45  1  0  0  0  0
 19 20  1  0  0  0  0
 19 21  1  0  0  0  0
 20 46  1  0  0  0  0
 20 47  1  0  0  0  0
 20 48  1  0  0  0  0
M  CHG  1  12   1
M  END
> <s_m_source_file>
AV-unprocessed.smi

> <i_m_source_file_index>
1205

> <i_lp_mmshare_version>
43012

> <i_f3d_flags>
0

> <s_epik_input>
W0NIM11jMVtjSF1jKG4objEpW0NIM10pW05IXUMoPU8pW05IXVtDSDJdW0NASF0oW0NIM10pTjJbQ0gyXVtDSDJdW0NIMl1bQ0BASF0oW0NIM10pW0NIMl0y

> <s_epik_cmdline>
J2VwaWtfcHl0aG9uJywgJy1waCcsICc3LjAnLCAnLXRuJywgJzgnLCAnLW1hJywgJzIwMCcsICctbWV0YWxfYmluZGluZycsICctaW1hZScsICc8aW5maWxlLm1hZT4nLCAnLW9tYWUnLCAnPG91dGZpbGUubWFlPic=

> <r_lp_tautomer_probability>
1

> <r_epik_Ionization_Penalty>
0.0020309

> <r_epik_Ionization_Penalty_Charging>
0.00195276

> <r_epik_Ionization_Penalty_Neutral>
7.81448e-05

> <r_epik_State_Penalty>
0.00133177

> <r_epik_Charging_Adjusted_Penalty>
0.00328452

> <i_epik_Tot_Q>
1

> <i_epik_Tot_abs_Q>
1

> <r_epik_Metal_State_Penalty>
-0

> <b_epik_Metal_Only>
0

> <s_lp_Force_Field>
OPLS_2005

> <r_lp_Energy>
21.646

> <b_lp_Chiralities_Consistent>
1

> <s_lp_Variant>
AV-unprocessed.smi:1205-1

> <Gold.Version>
5.8.1

> <Gold.Id.Protein>
6NUR|6NUR_protein|mol2

> <Gold.PLP.Fitness>
45.3880

> <Gold.PLP.PLP>
-37.8265

> <Gold.PLP.part.hbond>
-4.5149

> <Gold.PLP.part.metal>
0.0000

> <Gold.PLP.part.buried>
0.4412

> <Gold.PLP.part.nonpolar>
-32.4378

> <Gold.PLP.part.repulsive>
0.3095

> <Gold.PLP.ligand.clash>
0.0000

> <Gold.PLP.ligand.torsion>
1.6302

> <Gold.PLP.Chemscore.Hbond>
3.5688

> <Gold.PLP.Chemscore.CHOScore>
0.0000

> <Gold.PLP.Chemscore.Metal>
0.0000

> <Gold.Chemscore.Hbonds>
donor molecule, donor type, donor heavy atom, donor atom, acceptor molecule, acceptor atom, score
      L1  H     8    27       P1  7948  1.00
      L1  H    12    49       P1  7948  2.00
      P1  H  7997  8009       L1    21  0.46

> <Gold.PLP.Chemscore.Internal.Correction>
0.1156

> <Gold.Rescore>
     Score         DG    S(hbond)    S(metal)    S(lipo)     H(rot)  DE(clash)    DE(int)     intcor
     17.33     -20.02       2.99        0.00      70.99       1.47       0.02       2.67       ----

> <Gold.Chemscore.Fitness>
17.3298

> <Gold.Chemscore.DG>
-20.0193

> <Gold.Chemscore.ZeroCoef>
-5.4800

> <Gold.Chemscore.Hbond>
2.9899

> <Gold.Chemscore.Metal>
0.0000

> <Gold.Chemscore.Lipo>
70.9885

> <Gold.Chemscore.Internal_Hbond>
0.0000

> <Gold.Chemscore.DEClash>
0.0218

> <Gold.Chemscore.DEInternal>
2.6677

> <Gold.Chemscore.Rot>
1.4658

> <Gold.Chemscore.Internal.Correction>
   9.000000E+99

> <Gold.Chemscore.Hbonds>
donor molecule, donor type, donor heavy atom, donor atom, acceptor molecule, acceptor atom, score
      L1  H     8    27       P1  7948  0.97
      L1  H    12    49       P1  7948  1.00
      P1  H  7997  8009       L1    21  0.44

> <Gold.Chemscore.Hbond.Weighted>
-9.9862

> <Gold.Chemscore.Metal.Weighted>
-0.0000

> <Gold.Chemscore.Lipo.Weighted>
-8.3057

> <Gold.Chemscore.Internal_Hbond.Weighted>
0.0000

> <Gold.Chemscore.DEClash.Weighted>
0.0218

> <Gold.Chemscore.DEInternal.Weighted>
2.6677

> <Gold.Chemscore.Rot.Weighted>
3.7526

> <Gold.Chemscore.Internal.Correction.Weighted>
   9.000000E+99

> <Gold.Protein.RotatedTorsions>
[ 6907 6896 6895 6894 ] final   73.56 input  -60.11 | X-H torsion
[ 7974 7965 7964 7962 ] final  161.52 input  175.53 | X-H torsion
[ 8008 7997 7996 7995 ] final -154.02 input   59.86 | X-H torsion
[ 10167 10162 10161 10158 ] final -107.27 input  -65.29 | X-H torsion
[ 10718 10713 10712 10709 ] final   83.62 input   66.30 | X-H torsion
[ 10763 10752 10751 10750 ] final -100.13 input  -60.55 | X-H torsion
[ 11005 11000 10999 10996 ] final   37.85 input  -57.11 | X-H torsion

> <Gold.Protein.ActiveResidues>
 VAL166  LYS551  ARG553  GLY616  TRP617  ASP618  TYR619  PRO620  LYS621  CYS622 
 ASP623  PHE694  ASN695  SER759  ASP760  ASP761  ALA762  ILE779  LEU786  VAL792 
 PHE793  MET794  SER795  GLU796  ALA797  LYS798  CYS799  TRP800  GLU811  SER814 

> <Gold.Protein.RotatedAtoms>
  152.4930  134.4403  159.9540 H   0  0  0  0  0  0  0  0  0  0  0  0  # atno 6907 bound_to 6896
  151.4387  133.3643  159.2786 H   0  0  0  0  0  0  0  0  0  0  0  0  # atno 6908 bound_to 6896
  150.9103  134.8543  159.7481 H   0  0  0  0  0  0  0  0  0  0  0  0  # atno 6909 bound_to 6896
  144.7682  139.7909  143.6307 H   0  0  0  0  0  0  0  0  0  0  0  0  # atno 7974 bound_to 7965
  155.6799  140.0743  157.2489 H   0  0  0  0  0  0  0  0  0  0  0  0  # atno 8008 bound_to 7997
  154.4107  140.1684  156.2022 H   0  0  0  0  0  0  0  0  0  0  0  0  # atno 8009 bound_to 7997
  155.9544  140.3375  155.6439 H   0  0  0  0  0  0  0  0  0  0  0  0  # atno 8010 bound_to 7997
  140.1788  143.3984  152.1298 H   0  0  0  0  0  0  0  0  0  0  0  0  # atno 10167 bound_to 10162
  157.6882  131.0098  150.2550 H   0  0  0  0  0  0  0  0  0  0  0  0  # atno 10718 bound_to 10713
  154.7554  135.4946  153.9365 H   0  0  0  0  0  0  0  0  0  0  0  0  # atno 10763 bound_to 10752
  153.1190  135.6727  153.9376 H   0  0  0  0  0  0  0  0  0  0  0  0  # atno 10764 bound_to 10752
  153.9113  135.3098  155.3427 H   0  0  0  0  0  0  0  0  0  0  0  0  # atno 10765 bound_to 10752
  140.2184  134.3670  155.8016 H   0  0  0  0  0  0  0  0  0  0  0  0  # atno 11005 bound_to 11000
  146.1807  139.4998  142.9868 LP  0  0  0  0  0  0  0  0  0  0  0  0  # atno 17320 bound_to 7965
  145.6405  141.0285  143.1814 LP  0  0  0  0  0  0  0  0  0  0  0  0  # atno 17321 bound_to 7965
  139.5305  144.7154  151.5072 LP  0  0  0  0  0  0  0  0  0  0  0  0  # atno 17342 bound_to 10162
  140.6534  143.8650  150.6809 LP  0  0  0  0  0  0  0  0  0  0  0  0  # atno 17343 bound_to 10162
  156.3140  130.3776  149.7636 LP  0  0  0  0  0  0  0  0  0  0  0  0  # atno 17370 bound_to 10713
  156.5227  130.8222  151.3209 LP  0  0  0  0  0  0  0  0  0  0  0  0  # atno 17371 bound_to 10713
  141.2224  133.7180  156.8535 LP  0  0  0  0  0  0  0  0  0  0  0  0  # atno 17394 bound_to 11000
  140.1875  134.8989  157.3022 LP  0  0  0  0  0  0  0  0  0  0  0  0  # atno 17395 bound_to 11000

$$$$
