AV-unprocessed.smi:480|AV-procd|sdf|2679|dock3
  -GOLD-   2262023103D 1   1.00000     0.00000
 Structure written by MMmdl.
 47 49  0  0  0  0  0  0  0  0  2 V2000
  150.4513  139.6443  154.7152 C   0  0  0  0  0  0  0  0  0  0  0  0
  149.7158  140.8986  155.1992 C   0  0  0  0  0  0  0  0  0  0  0  0
  150.4551  141.5729  156.3089 C   0  0  0  0  0  0  0  0  0  0  0  0
  150.5187  142.9181  156.5202 N   0  3  0  0  0  0  0  0  0  0  0  0
  151.3128  143.1845  157.6362 C   0  0  0  0  0  0  0  0  0  0  0  0
  151.6666  144.3886  158.2371 C   0  0  0  0  0  0  0  0  0  0  0  0
  152.5007  144.3084  159.3717 C   0  0  0  0  0  0  0  0  0  0  0  0
  152.9501  143.0668  159.8667 C   0  0  0  0  0  0  0  0  0  0  0  0
  152.5847  141.8527  159.2486 C   0  0  0  0  0  0  0  0  0  0  0  0
  151.7596  141.9413  158.1279 C   0  0  0  0  0  0  0  0  0  0  0  0
  151.2076  140.9764  157.2787 N   0  0  0  0  0  0  0  0  0  0  0  0
  151.4929  139.5547  157.5300 C   0  0  0  0  0  0  0  0  0  0  0  0
  150.5344  138.9213  158.5588 C   0  0  1  0  0  0  0  0  0  0  0  0
  149.2058  139.2706  158.2232 O   0  0  0  0  0  0  0  0  0  0  0  0
  150.6486  137.3891  158.5799 C   0  0  0  0  0  0  0  0  0  0  0  0
  150.1754  136.9114  159.8324 O   0  0  0  0  0  0  0  0  0  0  0  0
  148.8392  136.5920  159.9480 C   0  0  0  0  0  0  0  0  0  0  0  0
  147.9399  136.5125  158.8546 C   0  0  0  0  0  0  0  0  0  0  0  0
  146.5884  136.1763  159.0656 C   0  0  0  0  0  0  0  0  0  0  0  0
  146.1158  135.9160  160.3669 C   0  0  0  0  0  0  0  0  0  0  0  0
  144.6628  135.5524  160.5926 C   0  0  0  0  0  0  0  0  0  0  0  0
  144.4002  135.1678  161.9876 C   0  0  0  0  0  0  0  0  0  0  0  0
  144.1937  134.8654  163.0851 N   0  0  0  0  0  0  0  0  0  0  0  0
  147.0034  135.9934  161.4576 C   0  0  0  0  0  0  0  0  0  0  0  0
  148.3544  136.3293  161.2458 C   0  0  0  0  0  0  0  0  0  0  0  0
  149.9036  139.1614  153.9057 H   0  0  0  0  0  0  0  0  0  0  0  0
  150.5642  138.9172  155.5199 H   0  0  0  0  0  0  0  0  0  0  0  0
  151.4466  139.8903  154.3437 H   0  0  0  0  0  0  0  0  0  0  0  0
  149.5938  141.6009  154.3740 H   0  0  0  0  0  0  0  0  0  0  0  0
  148.7125  140.6392  155.5378 H   0  0  0  0  0  0  0  0  0  0  0  0
  151.3236  145.3408  157.8597 H   0  0  0  0  0  0  0  0  0  0  0  0
  152.8020  145.2174  159.8720 H   0  0  0  0  0  0  0  0  0  0  0  0
  153.5880  143.0448  160.7386 H   0  0  0  0  0  0  0  0  0  0  0  0
  152.9332  140.9065  159.6356 H   0  0  0  0  0  0  0  0  0  0  0  0
  151.4294  139.0270  156.5778 H   0  0  0  0  0  0  0  0  0  0  0  0
  152.5298  139.4667  157.8573 H   0  0  0  0  0  0  0  0  0  0  0  0
  150.7610  139.3161  159.5496 H   0  0  0  0  0  0  0  0  0  0  0  0
  148.6199  138.6714  158.6605 H   0  0  0  0  0  0  0  0  0  0  0  0
  150.1016  136.9472  157.7447 H   0  0  0  0  0  0  0  0  0  0  0  0
  151.6977  137.1060  158.4797 H   0  0  0  0  0  0  0  0  0  0  0  0
  148.2619  136.7036  157.8422 H   0  0  0  0  0  0  0  0  0  0  0  0
  145.9148  136.1173  158.2233 H   0  0  0  0  0  0  0  0  0  0  0  0
  144.0228  136.3987  160.3416 H   0  0  0  0  0  0  0  0  0  0  0  0
  144.3774  134.7222  159.9462 H   0  0  0  0  0  0  0  0  0  0  0  0
  146.6507  135.7938  162.4589 H   0  0  0  0  0  0  0  0  0  0  0  0
  149.0264  136.3848  162.0896 H   0  0  0  0  0  0  0  0  0  0  0  0
  150.0508  143.6023  155.9399 H   0  0  0  0  0  0  0  0  0  0  0  0
  1  2  1  0  0  0  0
  1 26  1  0  0  0  0
  1 27  1  0  0  0  0
  1 28  1  0  0  0  0
  2  3  1  0  0  0  0
  2 29  1  0  0  0  0
  2 30  1  0  0  0  0
  3 11  1  0  0  0  0
  3  4  2  0  0  0  0
  4  5  1  0  0  0  0
  4 47  1  0  0  0  0
  5 10  2  0  0  0  0
  5  6  1  0  0  0  0
  6  7  2  0  0  0  0
  6 31  1  0  0  0  0
  7  8  1  0  0  0  0
  7 32  1  0  0  0  0
  8  9  2  0  0  0  0
  8 33  1  0  0  0  0
  9 10  1  0  0  0  0
  9 34  1  0  0  0  0
 10 11  1  0  0  0  0
 11 12  1  0  0  0  0
 12 13  1  0  0  0  0
 12 35  1  0  0  0  0
 12 36  1  0  0  0  0
 13 14  1  0  0  0  0
 13 15  1  0  0  0  0
 13 37  1  0  0  0  0
 14 38  1  0  0  0  0
 15 16  1  0  0  0  0
 15 39  1  0  0  0  0
 15 40  1  0  0  0  0
 16 17  1  0  0  0  0
 17 25  1  0  0  0  0
 17 18  2  0  0  0  0
 18 19  1  0  0  0  0
 18 41  1  0  0  0  0
 19 20  2  0  0  0  0
 19 42  1  0  0  0  0
 20 21  1  0  0  0  0
 20 24  1  0  0  0  0
 21 22  1  0  0  0  0
 21 43  1  0  0  0  0
 21 44  1  0  0  0  0
 22 23  3  0  0  0  0
 24 25  2  0  0  0  0
 24 45  1  0  0  0  0
 25 46  1  0  0  0  0
M  CHG  1   4   1
M  END
> <s_m_source_file>
AV-unprocessed.smi

> <i_m_source_file_index>
480

> <i_lp_mmshare_version>
43012

> <i_f3d_flags>
0

> <s_epik_input>
W2NIXTFbY0hdW2NIXVtjSF1jKGMxMiluKGMobjIpW0NIMl1bQ0gzXSlbQ0gyXVtDQEhdKFtPSF0pW0NIMl1PYzNbY0hdW2NIXWMoW0NIMl1DI04pW2NIXVtjSF0z

> <s_epik_cmdline>
J2VwaWtfcHl0aG9uJywgJy1waCcsICc3LjAnLCAnLXRuJywgJzgnLCAnLW1hJywgJzIwMCcsICctbWV0YWxfYmluZGluZycsICctaW1hZScsICc8aW5maWxlLm1hZT4nLCAnLW9tYWUnLCAnPG91dGZpbGUubWFlPic=

> <r_lp_tautomer_probability>
1

> <r_epik_Ionization_Penalty>
1.03158

> <r_epik_Ionization_Penalty_Charging>
1.03158

> <r_epik_Ionization_Penalty_Neutral>
2.3994e-06

> <r_epik_State_Penalty>
1.08278

> <r_epik_Charging_Adjusted_Penalty>
2.11436

> <i_epik_Tot_Q>
1

> <i_epik_Tot_abs_Q>
1

> <r_epik_Metal_State_Penalty>
5.07177

> <b_epik_Metal_Only>
0

> <s_lp_Force_Field>
OPLS_2005

> <r_lp_Energy>
21.7936

> <b_lp_Chiralities_Consistent>
1

> <s_lp_Variant>
AV-unprocessed.smi:480-4

> <Gold.Version>
5.8.1

> <Gold.Id.Protein>
6NUR|6NUR_protein|mol2

> <Gold.PLP.Fitness>
52.9669

> <Gold.PLP.PLP>
-46.5561

> <Gold.PLP.part.hbond>
-2.2576

> <Gold.PLP.part.metal>
0.0000

> <Gold.PLP.part.buried>
-4.8559

> <Gold.PLP.part.nonpolar>
-39.5975

> <Gold.PLP.part.repulsive>
0.1509

> <Gold.PLP.ligand.clash>
0.0000

> <Gold.PLP.ligand.torsion>
1.3405

> <Gold.PLP.Chemscore.Hbond>
2.9588

> <Gold.PLP.Chemscore.CHOScore>
0.0000

> <Gold.PLP.Chemscore.Metal>
0.0000

> <Gold.Chemscore.Hbonds>
donor molecule, donor type, donor heavy atom, donor atom, acceptor molecule, acceptor atom, score
      L1  H     4    47       P1  8028  2.00
      P1  H  6896  6907       L1    16  0.88

> <Gold.PLP.Chemscore.Internal.Correction>
0.2156

> <Gold.Rescore>
     Score         DG    S(hbond)    S(metal)    S(lipo)     H(rot)  DE(clash)    DE(int)     intcor
     15.23     -16.61       1.02        0.00     124.49       2.67       0.02       1.36       ----

> <Gold.Chemscore.Fitness>
15.2316

> <Gold.Chemscore.DG>
-16.6114

> <Gold.Chemscore.ZeroCoef>
-5.4800

> <Gold.Chemscore.Hbond>
1.0190

> <Gold.Chemscore.Metal>
0.0000

> <Gold.Chemscore.Lipo>
124.4939

> <Gold.Chemscore.Internal_Hbond>
0.0000

> <Gold.Chemscore.DEClash>
0.0212

> <Gold.Chemscore.DEInternal>
1.3586

> <Gold.Chemscore.Rot>
2.6710

> <Gold.Chemscore.Internal.Correction>
   9.000000E+99

> <Gold.Chemscore.Hbonds>
donor molecule, donor type, donor heavy atom, donor atom, acceptor molecule, acceptor atom, score
      L1  H     4    47       P1  8028  0.96
      P1  H  6896  6907       L1    16  0.07

> <Gold.Chemscore.Hbond.Weighted>
-3.4033

> <Gold.Chemscore.Metal.Weighted>
-0.0000

> <Gold.Chemscore.Lipo.Weighted>
-14.5658

> <Gold.Chemscore.Internal_Hbond.Weighted>
0.0000

> <Gold.Chemscore.DEClash.Weighted>
0.0212

> <Gold.Chemscore.DEInternal.Weighted>
1.3586

> <Gold.Chemscore.Rot.Weighted>
6.8377

> <Gold.Chemscore.Internal.Correction.Weighted>
   9.000000E+99

> <Gold.Protein.RotatedTorsions>
[ 6907 6896 6895 6894 ] final  -32.01 input  -60.11 | X-H torsion
[ 7974 7965 7964 7962 ] final   10.87 input  175.53 | X-H torsion
[ 8008 7997 7996 7995 ] final  -28.26 input   59.86 | X-H torsion
[ 10167 10162 10161 10158 ] final -105.53 input  -65.29 | X-H torsion
[ 10718 10713 10712 10709 ] final -130.12 input   66.30 | X-H torsion
[ 10763 10752 10751 10750 ] final   17.53 input  -60.55 | X-H torsion
[ 11005 11000 10999 10996 ] final   76.13 input  -57.11 | X-H torsion

> <Gold.Protein.ActiveResidues>
 VAL166  LYS551  ARG553  GLY616  TRP617  ASP618  TYR619  PRO620  LYS621  CYS622 
 ASP623  PHE694  ASN695  SER759  ASP760  ASP761  ALA762  ILE779  LEU786  VAL792 
 PHE793  MET794  SER795  GLU796  ALA797  LYS798  CYS799  TRP800  GLU811  SER814 

> <Gold.Protein.RotatedAtoms>
  151.0844  134.9878  159.8371 H   0  0  0  0  0  0  0  0  0  0  0  0  # atno 6907 bound_to 6896
  152.5423  134.2142  159.8772 H   0  0  0  0  0  0  0  0  0  0  0  0  # atno 6908 bound_to 6896
  151.2174  133.4478  159.2633 H   0  0  0  0  0  0  0  0  0  0  0  0  # atno 6909 bound_to 6896
  146.2381  139.9570  142.8463 H   0  0  0  0  0  0  0  0  0  0  0  0  # atno 7974 bound_to 7965
  154.4340  140.1850  156.1061 H   0  0  0  0  0  0  0  0  0  0  0  0  # atno 8008 bound_to 7997
  156.0254  140.3336  155.7057 H   0  0  0  0  0  0  0  0  0  0  0  0  # atno 8009 bound_to 7997
  155.5916  140.0631  157.2748 H   0  0  0  0  0  0  0  0  0  0  0  0  # atno 8010 bound_to 7997
  140.1975  143.3844  152.1156 H   0  0  0  0  0  0  0  0  0  0  0  0  # atno 10167 bound_to 10162
  156.2113  130.6920  151.0652 H   0  0  0  0  0  0  0  0  0  0  0  0  # atno 10718 bound_to 10713
  153.1330  135.6744  153.9147 H   0  0  0  0  0  0  0  0  0  0  0  0  # atno 10763 bound_to 10752
  153.8628  135.3079  155.3440 H   0  0  0  0  0  0  0  0  0  0  0  0  # atno 10764 bound_to 10752
  154.7724  135.4932  153.9757 H   0  0  0  0  0  0  0  0  0  0  0  0  # atno 10765 bound_to 10752
  139.9312  134.7575  156.1357 H   0  0  0  0  0  0  0  0  0  0  0  0  # atno 11005 bound_to 11000
  145.1807  140.9765  143.4268 LP  0  0  0  0  0  0  0  0  0  0  0  0  # atno 17320 bound_to 7965
  144.9945  139.3657  143.6198 LP  0  0  0  0  0  0  0  0  0  0  0  0  # atno 17321 bound_to 7965
  139.5230  144.7066  151.5334 LP  0  0  0  0  0  0  0  0  0  0  0  0  # atno 17342 bound_to 10162
  140.6413  143.8883  150.6694 LP  0  0  0  0  0  0  0  0  0  0  0  0  # atno 17343 bound_to 10162
  157.7040  131.0764  150.6729 LP  0  0  0  0  0  0  0  0  0  0  0  0  # atno 17370 bound_to 10713
  156.6789  130.4561  149.5634 LP  0  0  0  0  0  0  0  0  0  0  0  0  # atno 17371 bound_to 10713
  141.0901  133.6718  156.2522 LP  0  0  0  0  0  0  0  0  0  0  0  0  # atno 17394 bound_to 11000
  140.6197  134.5374  157.5546 LP  0  0  0  0  0  0  0  0  0  0  0  0  # atno 17395 bound_to 11000

$$$$
