AV-unprocessed.smi:1419|AV-procd|sdf|5782|dock8
  -GOLD-   22720 5423D 1   1.00000     0.00000
 Structure written by MMmdl.
 41 42  0  0  0  0  0  0  0  0  1 V2000
  146.5961  129.9736  152.3706 C   0  0  0  0  0  0  0  0  0  0  0  0
  146.7511  131.3672  152.9937 C   0  0  2  0  0  0  0  0  0  0  0  0
  146.6463  132.4785  151.9293 C   0  0  0  0  0  0  0  0  0  0  0  0
  145.4605  132.3470  151.1011 N   0  0  0  0  0  0  0  0  0  0  0  0
  144.1378  132.4957  151.4972 C   0  0  0  0  0  0  0  0  0  0  0  0
  143.3664  132.2907  150.3757 C   0  0  0  0  0  0  0  0  0  0  0  0
  144.1876  132.0089  149.2864 N   0  0  0  0  0  0  0  0  0  0  0  0
  145.4125  132.0580  149.7932 C   0  0  0  0  0  0  0  0  0  0  0  0
  148.0395  131.4464  153.6801 N   0  0  0  0  0  0  0  0  0  0  0  0
  148.3912  130.7628  154.7830 C   0  0  0  0  0  0  0  0  0  0  0  0
  147.6792  129.8840  155.2711 O   0  0  0  0  0  0  0  0  0  0  0  0
  149.5948  131.1114  155.2999 N   0  0  0  0  0  0  0  0  0  0  0  0
  150.3619  132.3243  154.9877 C   0  0  0  0  0  0  0  0  0  0  0  0
  150.2205  133.2973  156.1746 C   0  0  2  0  0  0  0  0  0  0  0  0
  151.0339  134.5797  155.9696 C   0  0  0  0  0  0  0  0  0  0  0  0
  150.6895  132.6621  157.3669 O   0  0  0  0  0  0  0  0  0  0  0  0
  150.0725  131.4109  157.6890 C   0  0  1  0  0  0  0  0  0  0  0  0
  148.6424  131.6121  158.2228 C   0  0  0  0  0  0  0  0  0  0  0  0
  150.1646  130.4552  156.4793 C   0  0  0  0  0  0  0  0  0  0  0  0
  145.6371  129.8775  151.8608 H   0  0  0  0  0  0  0  0  0  0  0  0
  146.6423  129.1951  153.1330 H   0  0  0  0  0  0  0  0  0  0  0  0
  147.3819  129.7735  151.6410 H   0  0  0  0  0  0  0  0  0  0  0  0
  145.9339  131.4961  153.7056 H   0  0  0  0  0  0  0  0  0  0  0  0
  146.6359  133.4616  152.4027 H   0  0  0  0  0  0  0  0  0  0  0  0
  147.5184  132.4562  151.2747 H   0  0  0  0  0  0  0  0  0  0  0  0
  143.8637  132.7355  152.5141 H   0  0  0  0  0  0  0  0  0  0  0  0
  142.2921  132.3241  150.2698 H   0  0  0  0  0  0  0  0  0  0  0  0
  146.2965  131.8880  149.1963 H   0  0  0  0  0  0  0  0  0  0  0  0
  148.6952  132.1288  153.3287 H   0  0  0  0  0  0  0  0  0  0  0  0
  151.4099  132.0590  154.8407 H   0  0  0  0  0  0  0  0  0  0  0  0
  150.0543  132.8158  154.0648 H   0  0  0  0  0  0  0  0  0  0  0  0
  149.1736  133.5762  156.2975 H   0  0  0  0  0  0  0  0  0  0  0  0
  150.7018  135.1169  155.0809 H   0  0  0  0  0  0  0  0  0  0  0  0
  152.0952  134.3592  155.8515 H   0  0  0  0  0  0  0  0  0  0  0  0
  150.9254  135.2500  156.8228 H   0  0  0  0  0  0  0  0  0  0  0  0
  150.6588  130.9801  158.5010 H   0  0  0  0  0  0  0  0  0  0  0  0
  148.2145  130.6636  158.5481 H   0  0  0  0  0  0  0  0  0  0  0  0
  147.9729  132.0277  157.4715 H   0  0  0  0  0  0  0  0  0  0  0  0
  148.6387  132.2871  159.0787 H   0  0  0  0  0  0  0  0  0  0  0  0
  149.6825  129.5038  156.7093 H   0  0  0  0  0  0  0  0  0  0  0  0
  151.2093  130.2129  156.2790 H   0  0  0  0  0  0  0  0  0  0  0  0
  1  2  1  0  0  0  0
  1 20  1  0  0  0  0
  1 21  1  0  0  0  0
  1 22  1  0  0  0  0
  2  3  1  0  0  0  0
  2  9  1  0  0  0  0
  2 23  1  0  0  0  0
  3  4  1  0  0  0  0
  3 24  1  0  0  0  0
  3 25  1  0  0  0  0
  4  8  1  0  0  0  0
  4  5  1  0  0  0  0
  5  6  2  0  0  0  0
  5 26  1  0  0  0  0
  6  7  1  0  0  0  0
  6 27  1  0  0  0  0
  7  8  2  0  0  0  0
  8 28  1  0  0  0  0
  9 10  1  0  0  0  0
  9 29  1  0  0  0  0
 10 11  2  0  0  0  0
 10 12  1  0  0  0  0
 12 19  1  0  0  0  0
 12 13  1  0  0  0  0
 13 14  1  0  0  0  0
 13 30  1  0  0  0  0
 13 31  1  0  0  0  0
 14 15  1  0  0  0  0
 14 16  1  0  0  0  0
 14 32  1  0  0  0  0
 15 33  1  0  0  0  0
 15 34  1  0  0  0  0
 15 35  1  0  0  0  0
 16 17  1  0  0  0  0
 17 18  1  0  0  0  0
 17 19  1  0  0  0  0
 17 36  1  0  0  0  0
 18 37  1  0  0  0  0
 18 38  1  0  0  0  0
 18 39  1  0  0  0  0
 19 40  1  0  0  0  0
 19 41  1  0  0  0  0
M  END
> <s_m_source_file>
AV-unprocessed.smi

> <i_m_source_file_index>
1419

> <i_lp_mmshare_version>
43012

> <i_f3d_flags>
0

> <s_epik_input>
W2NIXTFuW2NIXVtjSF1uMVtDSDJdW0NAQEhdKFtDSDNdKVtOSF1DKD1PKU4yW0NIMl1bQ0BASF0oW0NIM10pT1tDQEBIXShbQ0gzXSlbQ0gyXTI=

> <s_epik_cmdline>
J2VwaWtfcHl0aG9uJywgJy1waCcsICc3LjAnLCAnLXRuJywgJzgnLCAnLW1hJywgJzIwMCcsICctbWV0YWxfYmluZGluZycsICctaW1hZScsICc8aW5maWxlLm1hZT4nLCAnLW9tYWUnLCAnPG91dGZpbGUubWFlPic=

> <r_lp_tautomer_probability>
1

> <r_epik_Ionization_Penalty>
0.625124

> <r_epik_Ionization_Penalty_Charging>
0.625093

> <r_epik_Ionization_Penalty_Neutral>
3.17415e-05

> <r_epik_State_Penalty>
0.641455

> <r_epik_Charging_Adjusted_Penalty>
1.26655

> <i_epik_Tot_Q>
0

> <i_epik_Tot_abs_Q>
0

> <r_epik_Metal_State_Penalty>
0.307717

> <b_epik_Metal_Only>
0

> <s_lp_Force_Field>
OPLS_2005

> <r_lp_Energy>
29.9288

> <b_lp_Chiralities_Consistent>
1

> <s_lp_Variant>
AV-unprocessed.smi:1419-9

> <Gold.Version>
5.8.1

> <Gold.Id.Protein>
6NUR|6NUR_protein|mol2

> <Gold.PLP.Fitness>
38.6237

> <Gold.PLP.PLP>
-28.3201

> <Gold.PLP.part.hbond>
-2.0000

> <Gold.PLP.part.metal>
0.0000

> <Gold.PLP.part.buried>
-4.7245

> <Gold.PLP.part.nonpolar>
-23.5185

> <Gold.PLP.part.repulsive>
0.2329

> <Gold.PLP.ligand.clash>
0.0000

> <Gold.PLP.ligand.torsion>
0.2031

> <Gold.PLP.Chemscore.Hbond>
1.3443

> <Gold.PLP.Chemscore.CHOScore>
2.2059

> <Gold.PLP.Chemscore.Metal>
0.0000

> <Gold.Chemscore.Hbonds>
donor molecule, donor type, donor heavy atom, donor atom, acceptor molecule, acceptor atom, score
      P1  H  6896  6908       L1    16  0.94
      P1  H 10785 10796       L1     7  0.34
      L1  C     5    26       P1 10957  0.39
      L1  C     6    27       P1 10186  0.84
      L1  C     6    27       P1 10952  0.87

> <Gold.PLP.Chemscore.Internal.Correction>
0.0591

> <Gold.Rescore>
     Score         DG    S(hbond)    S(metal)    S(lipo)     H(rot)  DE(clash)    DE(int)     intcor
     13.06     -13.54       1.67        0.00      55.63       1.58       0.01       0.47       ----

> <Gold.Chemscore.Fitness>
13.0579

> <Gold.Chemscore.DG>
-13.5437

> <Gold.Chemscore.ZeroCoef>
-5.4800

> <Gold.Chemscore.Hbond>
1.6742

> <Gold.Chemscore.Metal>
0.0000

> <Gold.Chemscore.Lipo>
55.6291

> <Gold.Chemscore.Internal_Hbond>
0.0000

> <Gold.Chemscore.DEClash>
0.0126

> <Gold.Chemscore.DEInternal>
0.4732

> <Gold.Chemscore.Rot>
1.5769

> <Gold.Chemscore.Internal.Correction>
   9.000000E+99

> <Gold.Chemscore.Hbonds>
donor molecule, donor type, donor heavy atom, donor atom, acceptor molecule, acceptor atom, score
      P1  H  6896  6908       L1    16  0.35
      P1  H 10785 10796       L1     7  0.06

> <Gold.Chemscore.Hbond.Weighted>
-5.5920

> <Gold.Chemscore.Metal.Weighted>
-0.0000

> <Gold.Chemscore.Lipo.Weighted>
-6.5086

> <Gold.Chemscore.Internal_Hbond.Weighted>
0.0000

> <Gold.Chemscore.DEClash.Weighted>
0.0126

> <Gold.Chemscore.DEInternal.Weighted>
0.4732

> <Gold.Chemscore.Rot.Weighted>
4.0369

> <Gold.Chemscore.Internal.Correction.Weighted>
   9.000000E+99

> <Gold.Protein.RotatedTorsions>
[ 6907 6896 6895 6894 ] final   83.81 input  -60.11 | X-H torsion
[ 7974 7965 7964 7962 ] final -166.71 input  175.53 | X-H torsion
[ 8008 7997 7996 7995 ] final   34.89 input   59.86 | X-H torsion
[ 10167 10162 10161 10158 ] final -123.37 input  -65.29 | X-H torsion
[ 10718 10713 10712 10709 ] final  -78.13 input   66.30 | X-H torsion
[ 10763 10752 10751 10750 ] final  -99.87 input  -60.55 | X-H torsion
[ 11005 11000 10999 10996 ] final  -52.56 input  -57.11 | X-H torsion

> <Gold.Protein.ActiveResidues>
 VAL166  LYS551  ARG553  GLY616  TRP617  ASP618  TYR619  PRO620  LYS621  CYS622 
 ASP623  PHE694  ASN695  SER759  ASP760  ASP761  ALA762  ILE779  LEU786  VAL792 
 PHE793  MET794  SER795  GLU796  ALA797  LYS798  CYS799  TRP800  GLU811  SER814 

> <Gold.Protein.RotatedAtoms>
  152.5337  134.2838  159.9016 H   0  0  0  0  0  0  0  0  0  0  0  0  # atno 6907 bound_to 6896
  151.2791  133.4211  159.2633 H   0  0  0  0  0  0  0  0  0  0  0  0  # atno 6908 bound_to 6896
  151.0299  134.9547  159.8162 H   0  0  0  0  0  0  0  0  0  0  0  0  # atno 6909 bound_to 6896
  144.7239  140.2627  143.6262 H   0  0  0  0  0  0  0  0  0  0  0  0  # atno 7974 bound_to 7965
  155.1621  140.3284  155.4409 H   0  0  0  0  0  0  0  0  0  0  0  0  # atno 8008 bound_to 7997
  156.2539  140.1958  156.6678 H   0  0  0  0  0  0  0  0  0  0  0  0  # atno 8009 bound_to 7997
  154.6397  140.0572  156.9818 H   0  0  0  0  0  0  0  0  0  0  0  0  # atno 8010 bound_to 7997
  140.0043  143.5508  152.2290 H   0  0  0  0  0  0  0  0  0  0  0  0  # atno 10167 bound_to 10162
  156.0126  130.4510  150.3450 H   0  0  0  0  0  0  0  0  0  0  0  0  # atno 10718 bound_to 10713
  154.7533  135.4956  153.9329 H   0  0  0  0  0  0  0  0  0  0  0  0  # atno 10763 bound_to 10752
  153.1168  135.6722  153.9412 H   0  0  0  0  0  0  0  0  0  0  0  0  # atno 10764 bound_to 10752
  153.9156  135.3094  155.3427 H   0  0  0  0  0  0  0  0  0  0  0  0  # atno 10765 bound_to 10752
  141.0931  133.6629  156.4042 H   0  0  0  0  0  0  0  0  0  0  0  0  # atno 11005 bound_to 11000
  145.8120  139.2007  143.1987 LP  0  0  0  0  0  0  0  0  0  0  0  0  # atno 17320 bound_to 7965
  146.0588  140.7993  142.9745 LP  0  0  0  0  0  0  0  0  0  0  0  0  # atno 17321 bound_to 7965
  139.6250  144.7635  151.2659 LP  0  0  0  0  0  0  0  0  0  0  0  0  # atno 17342 bound_to 10162
  140.7407  143.6581  150.8189 LP  0  0  0  0  0  0  0  0  0  0  0  0  # atno 17343 bound_to 10162
  157.1544  131.0329  151.2870 LP  0  0  0  0  0  0  0  0  0  0  0  0  # atno 17370 bound_to 10713
  157.4365  130.7520  149.7033 LP  0  0  0  0  0  0  0  0  0  0  0  0  # atno 17371 bound_to 10713
  140.5206  134.6308  157.5316 LP  0  0  0  0  0  0  0  0  0  0  0  0  # atno 17394 bound_to 11000
  139.9761  134.7214  155.9948 LP  0  0  0  0  0  0  0  0  0  0  0  0  # atno 17395 bound_to 11000

$$$$
