AV-unprocessed.smi:484|AV-procd|sdf|2689|dock1
  -GOLD-   2262023123D 1   1.00000     0.00000
 Structure written by MMmdl.
 47 49  0  0  0  0  0  0  0  0  2 V2000
  149.4182  130.4597  154.2213 C   0  0  0  0  0  0  0  0  0  0  0  0
  149.0591  131.7247  153.4342 C   0  0  0  0  0  0  0  0  0  0  0  0
  149.1608  132.9779  154.2828 C   0  0  0  0  0  0  0  0  0  0  0  0
  148.0720  133.8685  154.3668 C   0  0  0  0  0  0  0  0  0  0  0  0
  148.1685  135.0302  155.1565 C   0  0  0  0  0  0  0  0  0  0  0  0
  149.3480  135.3220  155.8715 C   0  0  0  0  0  0  0  0  0  0  0  0
  149.3559  136.4816  156.6162 O   0  0  0  0  0  0  0  0  0  0  0  0
  150.5404  136.8197  157.3272 C   0  0  0  0  0  0  0  0  0  0  0  0
  150.5498  138.3260  157.6333 C   0  0  2  0  0  0  0  0  0  0  0  0
  149.2205  138.7703  157.8154 O   0  0  0  0  0  0  0  0  0  0  0  0
  151.2978  139.1649  156.5767 C   0  0  0  0  0  0  0  0  0  0  0  0
  150.9271  140.5883  156.6136 N   0  0  0  0  0  0  0  0  0  0  0  0
  150.0353  141.2795  155.8476 C   0  0  0  0  0  0  0  0  0  0  0  0
  149.1903  140.7205  154.7471 C   0  0  0  0  0  0  0  0  0  0  0  0
  149.6314  141.0951  153.4586 O   0  0  0  0  0  0  0  0  0  0  0  0
  150.0552  142.5739  156.2770 N   0  3  0  0  0  0  0  0  0  0  0  0
  150.9680  142.7126  157.3227 C   0  0  0  0  0  0  0  0  0  0  0  0
  151.3329  143.8277  158.0709 C   0  0  0  0  0  0  0  0  0  0  0  0
  152.3035  143.6265  159.0741 C   0  0  0  0  0  0  0  0  0  0  0  0
  152.8721  142.3564  159.3009 C   0  0  0  0  0  0  0  0  0  0  0  0
  152.4943  141.2337  158.5353 C   0  0  0  0  0  0  0  0  0  0  0  0
  151.5327  141.4400  157.5460 C   0  0  0  0  0  0  0  0  0  0  0  0
  150.4395  134.4213  155.7849 C   0  0  0  0  0  0  0  0  0  0  0  0
  150.3434  133.2583  154.9962 C   0  0  0  0  0  0  0  0  0  0  0  0
  149.3389  129.5744  153.5904 H   0  0  0  0  0  0  0  0  0  0  0  0
  148.7504  130.3229  155.0725 H   0  0  0  0  0  0  0  0  0  0  0  0
  150.4396  130.5082  154.6002 H   0  0  0  0  0  0  0  0  0  0  0  0
  149.7180  131.8219  152.5703 H   0  0  0  0  0  0  0  0  0  0  0  0
  148.0461  131.6392  153.0387 H   0  0  0  0  0  0  0  0  0  0  0  0
  147.1593  133.6632  153.8268 H   0  0  0  0  0  0  0  0  0  0  0  0
  147.3276  135.7057  155.2132 H   0  0  0  0  0  0  0  0  0  0  0  0
  150.6235  136.2428  158.2500 H   0  0  0  0  0  0  0  0  0  0  0  0
  151.4073  136.5839  156.7079 H   0  0  0  0  0  0  0  0  0  0  0  0
  151.0443  138.4637  158.5953 H   0  0  0  0  0  0  0  0  0  0  0  0
  148.7364  138.5952  157.0229 H   0  0  0  0  0  0  0  0  0  0  0  0
  152.3725  139.1063  156.7525 H   0  0  0  0  0  0  0  0  0  0  0  0
  151.1372  138.7798  155.5698 H   0  0  0  0  0  0  0  0  0  0  0  0
  149.1864  139.6325  154.8141 H   0  0  0  0  0  0  0  0  0  0  0  0
  148.1622  141.0577  154.8811 H   0  0  0  0  0  0  0  0  0  0  0  0
  149.5654  140.3440  152.8883 H   0  0  0  0  0  0  0  0  0  0  0  0
  150.8995  144.8018  157.8972 H   0  0  0  0  0  0  0  0  0  0  0  0
  152.6190  144.4630  159.6807 H   0  0  0  0  0  0  0  0  0  0  0  0
  153.6144  142.2401  160.0773 H   0  0  0  0  0  0  0  0  0  0  0  0
  152.9412  140.2675  158.7160 H   0  0  0  0  0  0  0  0  0  0  0  0
  151.3630  134.5991  156.3143 H   0  0  0  0  0  0  0  0  0  0  0  0
  151.1826  132.5805  154.9415 H   0  0  0  0  0  0  0  0  0  0  0  0
  149.4824  143.3057  155.8764 H   0  0  0  0  0  0  0  0  0  0  0  0
  1  2  1  0  0  0  0
  1 25  1  0  0  0  0
  1 26  1  0  0  0  0
  1 27  1  0  0  0  0
  2  3  1  0  0  0  0
  2 28  1  0  0  0  0
  2 29  1  0  0  0  0
  3 24  1  0  0  0  0
  3  4  2  0  0  0  0
  4  5  1  0  0  0  0
  4 30  1  0  0  0  0
  5  6  2  0  0  0  0
  5 31  1  0  0  0  0
  6  7  1  0  0  0  0
  6 23  1  0  0  0  0
  7  8  1  0  0  0  0
  8  9  1  0  0  0  0
  8 32  1  0  0  0  0
  8 33  1  0  0  0  0
  9 10  1  0  0  0  0
  9 11  1  0  0  0  0
  9 34  1  0  0  0  0
 10 35  1  0  0  0  0
 11 12  1  0  0  0  0
 11 36  1  0  0  0  0
 11 37  1  0  0  0  0
 12 22  1  0  0  0  0
 12 13  1  0  0  0  0
 13 14  1  0  0  0  0
 13 16  2  0  0  0  0
 14 15  1  0  0  0  0
 14 38  1  0  0  0  0
 14 39  1  0  0  0  0
 15 40  1  0  0  0  0
 16 17  1  0  0  0  0
 16 47  1  0  0  0  0
 17 22  2  0  0  0  0
 17 18  1  0  0  0  0
 18 19  2  0  0  0  0
 18 41  1  0  0  0  0
 19 20  1  0  0  0  0
 19 42  1  0  0  0  0
 20 21  2  0  0  0  0
 20 43  1  0  0  0  0
 21 22  1  0  0  0  0
 21 44  1  0  0  0  0
 23 24  2  0  0  0  0
 23 45  1  0  0  0  0
 24 46  1  0  0  0  0
M  CHG  1  16   1
M  END
> <s_m_source_file>
AV-unprocessed.smi

> <i_m_source_file_index>
484

> <i_lp_mmshare_version>
43012

> <i_f3d_flags>
0

> <s_epik_input>
W0NIM11bQ0gyXWMxW2NIXVtjSF1jKFtjSF1bY0hdMSlPW0NIMl1bQ0BIXShbT0hdKVtDSDJdbihjKG4yKVtDSDJdW09IXSljKGMyMylbY0hdW2NIXVtjSF1bY0hdMw==

> <s_epik_cmdline>
J2VwaWtfcHl0aG9uJywgJy1waCcsICc3LjAnLCAnLXRuJywgJzgnLCAnLW1hJywgJzIwMCcsICctbWV0YWxfYmluZGluZycsICctaW1hZScsICc8aW5maWxlLm1hZT4nLCAnLW9tYWUnLCAnPG91dGZpbGUubWFlPic=

> <r_lp_tautomer_probability>
1

> <r_epik_Ionization_Penalty>
1.43166

> <r_epik_Ionization_Penalty_Charging>
1.43081

> <r_epik_Ionization_Penalty_Neutral>
0.000858184

> <r_epik_State_Penalty>
1.51538

> <r_epik_Charging_Adjusted_Penalty>
2.94618

> <i_epik_Tot_Q>
1

> <i_epik_Tot_abs_Q>
1

> <r_epik_Metal_State_Penalty>
5.56039

> <b_epik_Metal_Only>
0

> <s_lp_Force_Field>
OPLS_2005

> <r_lp_Energy>
18.7475

> <b_lp_Chiralities_Consistent>
1

> <s_lp_Variant>
AV-unprocessed.smi:484-3

> <Gold.Version>
5.8.1

> <Gold.Id.Protein>
6NUR|6NUR_protein|mol2

> <Gold.PLP.Fitness>
53.2437

> <Gold.PLP.PLP>
-43.9350

> <Gold.PLP.part.hbond>
-3.9973

> <Gold.PLP.part.metal>
0.0000

> <Gold.PLP.part.buried>
-5.6763

> <Gold.PLP.part.nonpolar>
-35.0528

> <Gold.PLP.part.repulsive>
0.1014

> <Gold.PLP.ligand.clash>
0.0000

> <Gold.PLP.ligand.torsion>
1.2420

> <Gold.PLP.Chemscore.Hbond>
3.8292

> <Gold.PLP.Chemscore.CHOScore>
0.0000

> <Gold.PLP.Chemscore.Metal>
0.0000

> <Gold.Chemscore.Hbonds>
donor molecule, donor type, donor heavy atom, donor atom, acceptor molecule, acceptor atom, score
      L1  H    15    40       P1  7957  0.74
      L1  H    16    47       P1  8028  2.00
      P1  H  7989  7998       L1    15  0.10
      P1  H  8011  8017       L1    15  1.00

> <Gold.PLP.Chemscore.Internal.Correction>
0.3052

> <Gold.Rescore>
     Score         DG    S(hbond)    S(metal)    S(lipo)     H(rot)  DE(clash)    DE(int)     intcor
     17.47     -19.02       2.41        0.00     116.45       3.18       0.27       1.28       ----

> <Gold.Chemscore.Fitness>
17.4707

> <Gold.Chemscore.DG>
-19.0232

> <Gold.Chemscore.ZeroCoef>
-5.4800

> <Gold.Chemscore.Hbond>
2.4132

> <Gold.Chemscore.Metal>
0.0000

> <Gold.Chemscore.Lipo>
116.4453

> <Gold.Chemscore.Internal_Hbond>
0.0000

> <Gold.Chemscore.DEClash>
0.2677

> <Gold.Chemscore.DEInternal>
1.2848

> <Gold.Chemscore.Rot>
3.1801

> <Gold.Chemscore.Internal.Correction>
   9.000000E+99

> <Gold.Chemscore.Hbonds>
donor molecule, donor type, donor heavy atom, donor atom, acceptor molecule, acceptor atom, score
      L1  H    15    40       P1  7957  0.72
      L1  H    16    47       P1  8028  0.95
      P1  H  8011  8017       L1    15  0.34

> <Gold.Chemscore.Hbond.Weighted>
-8.0601

> <Gold.Chemscore.Metal.Weighted>
-0.0000

> <Gold.Chemscore.Lipo.Weighted>
-13.6241

> <Gold.Chemscore.Internal_Hbond.Weighted>
0.0000

> <Gold.Chemscore.DEClash.Weighted>
0.2677

> <Gold.Chemscore.DEInternal.Weighted>
1.2848

> <Gold.Chemscore.Rot.Weighted>
8.1410

> <Gold.Chemscore.Internal.Correction.Weighted>
   9.000000E+99

> <Gold.Protein.RotatedTorsions>
[ 6907 6896 6895 6894 ] final -162.88 input  -60.11 | X-H torsion
[ 7974 7965 7964 7962 ] final  136.52 input  175.53 | X-H torsion
[ 8008 7997 7996 7995 ] final   42.62 input   59.86 | X-H torsion
[ 10167 10162 10161 10158 ] final -140.78 input  -65.29 | X-H torsion
[ 10718 10713 10712 10709 ] final  -38.84 input   66.30 | X-H torsion
[ 10763 10752 10751 10750 ] final  107.45 input  -60.55 | X-H torsion
[ 11005 11000 10999 10996 ] final -145.42 input  -57.11 | X-H torsion

> <Gold.Protein.ActiveResidues>
 VAL166  LYS551  ARG553  GLY616  TRP617  ASP618  TYR619  PRO620  LYS621  CYS622 
 ASP623  PHE694  ASN695  SER759  ASP760  ASP761  ALA762  ILE779  LEU786  VAL792 
 PHE793  MET794  SER795  GLU796  ALA797  LYS798  CYS799  TRP800  GLU811  SER814 

> <Gold.Protein.RotatedAtoms>
  151.3872  133.3801  159.2716 H   0  0  0  0  0  0  0  0  0  0  0  0  # atno 6907 bound_to 6896
  150.9532  134.8931  159.7695 H   0  0  0  0  0  0  0  0  0  0  0  0  # atno 6908 bound_to 6896
  152.5120  134.3828  159.9409 H   0  0  0  0  0  0  0  0  0  0  0  0  # atno 6909 bound_to 6896
  144.9557  139.4767  143.5504 H   0  0  0  0  0  0  0  0  0  0  0  0  # atno 7974 bound_to 7965
  155.2892  140.3377  155.4253 H   0  0  0  0  0  0  0  0  0  0  0  0  # atno 8008 bound_to 7997
  156.2054  140.1749  156.7851 H   0  0  0  0  0  0  0  0  0  0  0  0  # atno 8009 bound_to 7997
  154.5614  140.0687  156.8808 H   0  0  0  0  0  0  0  0  0  0  0  0  # atno 8010 bound_to 7997
  139.8248  143.7525  152.2666 H   0  0  0  0  0  0  0  0  0  0  0  0  # atno 10167 bound_to 10162
  156.2992  130.4238  149.8160 H   0  0  0  0  0  0  0  0  0  0  0  0  # atno 10718 bound_to 10713
  153.4069  135.3844  155.2025 H   0  0  0  0  0  0  0  0  0  0  0  0  # atno 10763 bound_to 10752
  154.8734  135.3785  154.4549 H   0  0  0  0  0  0  0  0  0  0  0  0  # atno 10764 bound_to 10752
  153.5052  135.7088  153.5872 H   0  0  0  0  0  0  0  0  0  0  0  0  # atno 10765 bound_to 10752
  140.7925  134.2952  157.5008 H   0  0  0  0  0  0  0  0  0  0  0  0  # atno 11005 bound_to 11000
  146.3336  139.8673  142.8846 LP  0  0  0  0  0  0  0  0  0  0  0  0  # atno 17320 bound_to 7965
  145.2776  141.0128  143.3736 LP  0  0  0  0  0  0  0  0  0  0  0  0  # atno 17321 bound_to 7965
  139.7714  144.7475  151.0218 LP  0  0  0  0  0  0  0  0  0  0  0  0  # atno 17342 bound_to 10162
  140.7811  143.4640  151.0238 LP  0  0  0  0  0  0  0  0  0  0  0  0  # atno 17343 bound_to 10162
  156.5545  130.8356  151.3310 LP  0  0  0  0  0  0  0  0  0  0  0  0  # atno 17370 bound_to 10713
  157.7363  130.9777  150.2130 LP  0  0  0  0  0  0  0  0  0  0  0  0  # atno 17371 bound_to 10713
  139.8730  134.9382  156.3709 LP  0  0  0  0  0  0  0  0  0  0  0  0  # atno 17394 bound_to 11000
  140.9376  133.7537  156.0104 LP  0  0  0  0  0  0  0  0  0  0  0  0  # atno 17395 bound_to 11000

$$$$
