AV-unprocessed.smi:2089|AV-procd|sdf|8530|dock10
  -GOLD-   2272011253D 1   1.00000     0.00000
 Structure written by MMmdl.
 40 41  0  0  0  0  0  0  0  0  2 V2000
  146.8008  138.4998  157.7420 C   0  0  0  0  0  0  0  0  0  0  0  0
  146.2716  138.6062  155.9839 S   0  0  0  0  0  0  0  0  0  0  0  0
  146.9869  137.5695  155.2236 O   0  0  0  0  0  0  0  0  0  0  0  0
  144.8038  138.6769  155.9249 O   0  0  0  0  0  0  0  0  0  0  0  0
  146.8952  140.1413  155.4850 N   0  0  0  0  0  0  0  0  0  0  0  0
  145.9485  141.2180  155.1632 C   0  0  0  0  0  0  0  0  0  0  0  0
  146.6960  142.1552  154.2179 C   0  0  0  0  0  0  0  0  0  0  0  0
  147.6398  141.2153  153.4815 C   0  0  0  0  0  0  0  0  0  0  0  0
  148.0249  140.1675  154.5411 C   0  0  1  0  0  0  0  0  0  0  0  0
  149.3649  140.4556  155.2329 C   0  0  0  0  0  0  0  0  0  0  0  0
  150.4047  140.5589  154.5813 O   0  0  0  0  0  0  0  0  0  0  0  0
  149.3212  140.5997  156.5650 N   0  0  0  0  0  0  0  0  0  0  0  0
  150.4742  140.9048  157.3990 C   0  0  0  0  0  0  0  0  0  0  0  0
  151.1760  142.1774  156.9056 C   0  0  0  0  0  0  0  0  0  0  0  0
  151.4216  143.1674  158.0278 C   0  0  0  0  0  0  0  0  0  0  0  0
  152.2979  142.8879  159.0992 C   0  0  0  0  0  0  0  0  0  0  0  0
  152.4865  143.8579  160.1058 C   0  0  0  0  0  0  0  0  0  0  0  0
  151.7975  145.0857  160.0195 C   0  0  0  0  0  0  0  0  0  0  0  0
  150.9355  145.3125  158.9272 C   0  0  0  0  0  0  0  0  0  0  0  0
  150.7804  144.3579  157.9835 N   0  3  0  0  0  0  0  0  0  0  0  0
  146.4926  137.5394  158.1543 H   0  0  0  0  0  0  0  0  0  0  0  0
  146.3369  139.3022  158.3150 H   0  0  0  0  0  0  0  0  0  0  0  0
  147.8851  138.5890  157.8024 H   0  0  0  0  0  0  0  0  0  0  0  0
  145.0772  140.7972  154.6601 H   0  0  0  0  0  0  0  0  0  0  0  0
  145.6105  141.7224  156.0686 H   0  0  0  0  0  0  0  0  0  0  0  0
  146.0304  142.6994  153.5475 H   0  0  0  0  0  0  0  0  0  0  0  0
  147.2680  142.8855  154.7918 H   0  0  0  0  0  0  0  0  0  0  0  0
  147.1092  140.7279  152.6623 H   0  0  0  0  0  0  0  0  0  0  0  0
  148.4916  141.7402  153.0465 H   0  0  0  0  0  0  0  0  0  0  0  0
  148.1028  139.1979  154.0457 H   0  0  0  0  0  0  0  0  0  0  0  0
  148.4259  140.5118  157.0246 H   0  0  0  0  0  0  0  0  0  0  0  0
  150.1478  141.0308  158.4325 H   0  0  0  0  0  0  0  0  0  0  0  0
  151.1678  140.0625  157.3785 H   0  0  0  0  0  0  0  0  0  0  0  0
  152.1316  141.9235  156.4438 H   0  0  0  0  0  0  0  0  0  0  0  0
  150.5772  142.6575  156.1302 H   0  0  0  0  0  0  0  0  0  0  0  0
  152.8215  141.9442  159.1502 H   0  0  0  0  0  0  0  0  0  0  0  0
  153.1528  143.6631  160.9334 H   0  0  0  0  0  0  0  0  0  0  0  0
  151.9288  145.8419  160.7798 H   0  0  0  0  0  0  0  0  0  0  0  0
  150.3702  146.2212  158.7804 H   0  0  0  0  0  0  0  0  0  0  0  0
  150.1523  144.5442  157.2014 H   0  0  0  0  0  0  0  0  0  0  0  0
  1  2  1  0  0  0  0
  1 21  1  0  0  0  0
  1 22  1  0  0  0  0
  1 23  1  0  0  0  0
  2  3  2  0  0  0  0
  2  4  2  0  0  0  0
  2  5  1  0  0  0  0
  5  9  1  0  0  0  0
  5  6  1  0  0  0  0
  6  7  1  0  0  0  0
  6 24  1  0  0  0  0
  6 25  1  0  0  0  0
  7  8  1  0  0  0  0
  7 26  1  0  0  0  0
  7 27  1  0  0  0  0
  8  9  1  0  0  0  0
  8 28  1  0  0  0  0
  8 29  1  0  0  0  0
  9 10  1  0  0  0  0
  9 30  1  0  0  0  0
 10 11  2  0  0  0  0
 10 12  1  0  0  0  0
 12 13  1  0  0  0  0
 12 31  1  0  0  0  0
 13 14  1  0  0  0  0
 13 32  1  0  0  0  0
 13 33  1  0  0  0  0
 14 15  1  0  0  0  0
 14 34  1  0  0  0  0
 14 35  1  0  0  0  0
 15 20  1  0  0  0  0
 15 16  2  0  0  0  0
 16 17  1  0  0  0  0
 16 36  1  0  0  0  0
 17 18  2  0  0  0  0
 17 37  1  0  0  0  0
 18 19  1  0  0  0  0
 18 38  1  0  0  0  0
 19 20  2  0  0  0  0
 19 39  1  0  0  0  0
 20 40  1  0  0  0  0
M  CHG  1  20   1
M  END
> <s_m_source_file>
AV-unprocessed.smi

> <i_m_source_file_index>
2089

> <i_lp_mmshare_version>
43012

> <i_f3d_flags>
0

> <s_epik_input>
W0NIM11TKD1PKSg9TylOMVtDSDJdW0NIMl1bQ0gyXVtDQEhdMUMoPU8pW05IXVtDSDJdW0NIMl1jMltjSF1bY0hdW2NIXVtjSF1uMg==

> <s_epik_cmdline>
J2VwaWtfcHl0aG9uJywgJy1waCcsICc3LjAnLCAnLXRuJywgJzgnLCAnLW1hJywgJzIwMCcsICctbWV0YWxfYmluZGluZycsICctaW1hZScsICc8aW5maWxlLm1hZT4nLCAnLW9tYWUnLCAnPG91dGZpbGUubWFlPic=

> <r_epik_Ionization_Penalty>
1.90116

> <r_epik_Ionization_Penalty_Charging>
1.90116

> <r_epik_Ionization_Penalty_Neutral>
1.4017e-07

> <r_epik_State_Penalty>
2.02245

> <r_epik_Charging_Adjusted_Penalty>
3.9236

> <i_epik_Tot_Q>
1

> <i_epik_Tot_abs_Q>
1

> <r_epik_Metal_State_Penalty>
2.04621

> <b_epik_Metal_Only>
0

> <s_lp_Force_Field>
OPLS_2005

> <r_lp_Energy>
11.7086

> <b_lp_Chiralities_Consistent>
1

> <s_lp_Variant>
AV-unprocessed.smi:2089-3

> <Gold.Version>
5.8.1

> <Gold.Id.Protein>
6NUR|6NUR_protein|mol2

> <Gold.PLP.Fitness>
43.3636

> <Gold.PLP.PLP>
-35.1721

> <Gold.PLP.part.hbond>
-1.9648

> <Gold.PLP.part.metal>
0.0000

> <Gold.PLP.part.buried>
-5.7029

> <Gold.PLP.part.nonpolar>
-27.5146

> <Gold.PLP.part.repulsive>
0.3069

> <Gold.PLP.ligand.clash>
0.0000

> <Gold.PLP.ligand.torsion>
0.6611

> <Gold.PLP.Chemscore.Hbond>
2.9920

> <Gold.PLP.Chemscore.CHOScore>
0.0000

> <Gold.PLP.Chemscore.Metal>
0.0000

> <Gold.Chemscore.Hbonds>
donor molecule, donor type, donor heavy atom, donor atom, acceptor molecule, acceptor atom, score
      L1  H    20    40       P1  8028  2.00
      P1  H  7989  7998       L1    11  0.94

> <Gold.PLP.Chemscore.Internal.Correction>
0.5378

> <Gold.Rescore>
     Score         DG    S(hbond)    S(metal)    S(lipo)     H(rot)  DE(clash)    DE(int)     intcor
     15.75     -17.77       1.89        0.00      94.95       2.00       0.03       1.98       ----

> <Gold.Chemscore.Fitness>
15.7509

> <Gold.Chemscore.DG>
-17.7677

> <Gold.Chemscore.ZeroCoef>
-5.4800

> <Gold.Chemscore.Hbond>
1.8892

> <Gold.Chemscore.Metal>
0.0000

> <Gold.Chemscore.Lipo>
94.9461

> <Gold.Chemscore.Internal_Hbond>
0.0000

> <Gold.Chemscore.DEClash>
0.0323

> <Gold.Chemscore.DEInternal>
1.9846

> <Gold.Chemscore.Rot>
2.0043

> <Gold.Chemscore.Internal.Correction>
   9.000000E+99

> <Gold.Chemscore.Hbonds>
donor molecule, donor type, donor heavy atom, donor atom, acceptor molecule, acceptor atom, score
      L1  H    20    40       P1  8028  0.49
      P1  H  7989  7998       L1    11  0.91

> <Gold.Chemscore.Hbond.Weighted>
-6.3099

> <Gold.Chemscore.Metal.Weighted>
-0.0000

> <Gold.Chemscore.Lipo.Weighted>
-11.1087

> <Gold.Chemscore.Internal_Hbond.Weighted>
0.0000

> <Gold.Chemscore.DEClash.Weighted>
0.0323

> <Gold.Chemscore.DEInternal.Weighted>
1.9846

> <Gold.Chemscore.Rot.Weighted>
5.1309

> <Gold.Chemscore.Internal.Correction.Weighted>
   9.000000E+99

> <Gold.Protein.RotatedTorsions>
[ 6907 6896 6895 6894 ] final  131.02 input  -60.11 | X-H torsion
[ 7974 7965 7964 7962 ] final -163.41 input  175.53 | X-H torsion
[ 8008 7997 7996 7995 ] final -155.85 input   59.86 | X-H torsion
[ 10167 10162 10161 10158 ] final -145.52 input  -65.29 | X-H torsion
[ 10718 10713 10712 10709 ] final  -60.97 input   66.30 | X-H torsion
[ 10763 10752 10751 10750 ] final -169.13 input  -60.55 | X-H torsion
[ 11005 11000 10999 10996 ] final -139.83 input  -57.11 | X-H torsion

> <Gold.Protein.ActiveResidues>
 VAL166  LYS551  ARG553  GLY616  TRP617  ASP618  TYR619  PRO620  LYS621  CYS622 
 ASP623  PHE694  ASN695  SER759  ASP760  ASP761  ALA762  ILE779  LEU786  VAL792 
 PHE793  MET794  SER795  GLU796  ALA797  LYS798  CYS799  TRP800  GLU811  SER814 

> <Gold.Protein.RotatedAtoms>
  152.3468  133.6132  159.5915 H   0  0  0  0  0  0  0  0  0  0  0  0  # atno 6907 bound_to 6896
  150.7512  133.9636  159.3532 H   0  0  0  0  0  0  0  0  0  0  0  0  # atno 6908 bound_to 6896
  151.7493  135.0837  160.0379 H   0  0  0  0  0  0  0  0  0  0  0  0  # atno 6909 bound_to 6896
  144.7327  140.3111  143.6188 H   0  0  0  0  0  0  0  0  0  0  0  0  # atno 7974 bound_to 7965
  155.7082  140.0775  157.2382 H   0  0  0  0  0  0  0  0  0  0  0  0  # atno 8008 bound_to 7997
  154.4062  140.1635  156.2320 H   0  0  0  0  0  0  0  0  0  0  0  0  # atno 8009 bound_to 7997
  155.9307  140.3391  155.6249 H   0  0  0  0  0  0  0  0  0  0  0  0  # atno 8010 bound_to 7997
  139.7798  143.8118  152.2637 H   0  0  0  0  0  0  0  0  0  0  0  0  # atno 10167 bound_to 10162
  156.0953  130.4194  150.0929 H   0  0  0  0  0  0  0  0  0  0  0  0  # atno 10718 bound_to 10713
  154.6556  135.2917  154.9932 H   0  0  0  0  0  0  0  0  0  0  0  0  # atno 10763 bound_to 10752
  154.1010  135.6577  153.4872 H   0  0  0  0  0  0  0  0  0  0  0  0  # atno 10764 bound_to 10752
  153.0400  135.5242  154.7483 H   0  0  0  0  0  0  0  0  0  0  0  0  # atno 10765 bound_to 10752
  140.8481  134.2319  157.4775 H   0  0  0  0  0  0  0  0  0  0  0  0  # atno 11005 bound_to 11000
  145.7664  139.1842  143.2237 LP  0  0  0  0  0  0  0  0  0  0  0  0  # atno 17320 bound_to 7965
  146.0946  140.7616  142.9579 LP  0  0  0  0  0  0  0  0  0  0  0  0  # atno 17321 bound_to 7965
  139.8177  144.7309  150.9613 LP  0  0  0  0  0  0  0  0  0  0  0  0  # atno 17342 bound_to 10162
  140.7818  143.4189  151.0873 LP  0  0  0  0  0  0  0  0  0  0  0  0  # atno 17343 bound_to 10162
  156.8929  130.9594  151.3586 LP  0  0  0  0  0  0  0  0  0  0  0  0  # atno 17370 bound_to 10713
  157.6113  130.8585  149.8956 LP  0  0  0  0  0  0  0  0  0  0  0  0  # atno 17371 bound_to 10713
  139.8704  134.9670  156.4580 LP  0  0  0  0  0  0  0  0  0  0  0  0  # atno 17394 bound_to 11000
  140.8820  133.7911  155.9477 LP  0  0  0  0  0  0  0  0  0  0  0  0  # atno 17395 bound_to 11000

$$$$
