AV-unprocessed.smi:1745|AV-procd|sdf|7032|dock3
  -GOLD-   22720 8253D 1   1.00000     0.00000
 Structure written by MMmdl.
 47 49  0  0  0  0  0  0  0  0  1 V2000
  144.4302  136.9902  153.7438 C   0  0  0  0  0  0  0  0  0  0  0  0
  145.2530  137.1662  152.4580 C   0  0  1  0  0  0  0  0  0  0  0  0
  146.6246  137.5119  152.8249 N   0  0  0  0  0  0  0  0  0  0  0  0
  146.9920  138.5159  153.6344 C   0  0  0  0  0  0  0  0  0  0  0  0
  146.1957  139.2773  154.1827 O   0  0  0  0  0  0  0  0  0  0  0  0
  148.3284  138.5583  153.7705 N   0  0  0  0  0  0  0  0  0  0  0  0
  149.1170  139.4413  154.5571 C   0  0  0  0  0  0  0  0  0  0  0  0
  150.5311  139.4202  154.6139 C   0  0  0  0  0  0  0  0  0  0  0  0
  151.1924  140.3450  155.4446 C   0  0  0  0  0  0  0  0  0  0  0  0
  150.4201  141.2569  156.1999 C   0  0  0  0  0  0  0  0  0  0  0  0
  151.0166  142.2042  157.0426 N   0  0  0  0  0  0  0  0  0  0  0  0
  150.0760  143.1696  157.5966 C   0  0  0  0  0  0  0  0  0  0  0  0
  150.8344  144.2382  158.4030 C   0  0  0  0  0  0  0  0  0  0  0  0
  151.6231  143.6072  159.4084 O   0  0  0  0  0  0  0  0  0  0  0  0
  152.5916  142.7227  158.8514 C   0  0  0  0  0  0  0  0  0  0  0  0
  151.8806  141.6137  158.0566 C   0  0  0  0  0  0  0  0  0  0  0  0
  149.0706  141.2727  156.1595 N   0  0  0  0  0  0  0  0  0  0  0  0
  148.4433  140.3835  155.3611 C   0  0  0  0  0  0  0  0  0  0  0  0
  145.2576  135.8969  151.5828 C   0  0  1  0  0  0  0  0  0  0  0  0
  146.0450  134.7232  152.1677 C   0  0  0  0  0  0  0  0  0  0  0  0
  145.4024  133.5461  151.4717 C   0  0  0  0  0  0  0  0  0  0  0  0
  143.9358  133.9645  151.4442 C   0  0  0  0  0  0  0  0  0  0  0  0
  143.9329  135.3898  151.4253 O   0  0  0  0  0  0  0  0  0  0  0  0
  143.3833  136.7843  153.5208 H   0  0  0  0  0  0  0  0  0  0  0  0
  144.4590  137.8941  154.3533 H   0  0  0  0  0  0  0  0  0  0  0  0
  144.8105  136.1673  154.3500 H   0  0  0  0  0  0  0  0  0  0  0  0
  144.8010  137.9775  151.8849 H   0  0  0  0  0  0  0  0  0  0  0  0
  147.3537  136.9418  152.4222 H   0  0  0  0  0  0  0  0  0  0  0  0
  148.8415  137.8256  153.3026 H   0  0  0  0  0  0  0  0  0  0  0  0
  151.1211  138.7131  154.0524 H   0  0  0  0  0  0  0  0  0  0  0  0
  152.2712  140.3472  155.4985 H   0  0  0  0  0  0  0  0  0  0  0  0
  149.5110  143.6387  156.7903 H   0  0  0  0  0  0  0  0  0  0  0  0
  149.3585  142.6617  158.2422 H   0  0  0  0  0  0  0  0  0  0  0  0
  151.4702  144.8401  157.7514 H   0  0  0  0  0  0  0  0  0  0  0  0
  150.1299  144.9200  158.8792 H   0  0  0  0  0  0  0  0  0  0  0  0
  153.2822  143.2773  158.2138 H   0  0  0  0  0  0  0  0  0  0  0  0
  153.1816  142.2874  159.6578 H   0  0  0  0  0  0  0  0  0  0  0  0
  151.2892  140.9955  158.7334 H   0  0  0  0  0  0  0  0  0  0  0  0
  152.6157  140.9625  157.5818 H   0  0  0  0  0  0  0  0  0  0  0  0
  147.3640  140.4312  155.3613 H   0  0  0  0  0  0  0  0  0  0  0  0
  145.6446  136.1246  150.5879 H   0  0  0  0  0  0  0  0  0  0  0  0
  147.1171  134.7928  151.9815 H   0  0  0  0  0  0  0  0  0  0  0  0
  145.8870  134.6506  153.2450 H   0  0  0  0  0  0  0  0  0  0  0  0
  145.7882  133.4568  150.4553 H   0  0  0  0  0  0  0  0  0  0  0  0
  145.5672  132.5989  151.9857 H   0  0  0  0  0  0  0  0  0  0  0  0
  143.4046  133.5531  150.5857 H   0  0  0  0  0  0  0  0  0  0  0  0
  143.4263  133.6311  152.3490 H   0  0  0  0  0  0  0  0  0  0  0  0
  1  2  1  0  0  0  0
  1 24  1  0  0  0  0
  1 25  1  0  0  0  0
  1 26  1  0  0  0  0
  2  3  1  0  0  0  0
  2 19  1  0  0  0  0
  2 27  1  0  0  0  0
  3  4  1  0  0  0  0
  3 28  1  0  0  0  0
  4  5  2  0  0  0  0
  4  6  1  0  0  0  0
  6  7  1  0  0  0  0
  6 29  1  0  0  0  0
  7 18  1  0  0  0  0
  7  8  2  0  0  0  0
  8  9  1  0  0  0  0
  8 30  1  0  0  0  0
  9 10  2  0  0  0  0
  9 31  1  0  0  0  0
 10 11  1  0  0  0  0
 10 17  1  0  0  0  0
 11 16  1  0  0  0  0
 11 12  1  0  0  0  0
 12 13  1  0  0  0  0
 12 32  1  0  0  0  0
 12 33  1  0  0  0  0
 13 14  1  0  0  0  0
 13 34  1  0  0  0  0
 13 35  1  0  0  0  0
 14 15  1  0  0  0  0
 15 16  1  0  0  0  0
 15 36  1  0  0  0  0
 15 37  1  0  0  0  0
 16 38  1  0  0  0  0
 16 39  1  0  0  0  0
 17 18  2  0  0  0  0
 18 40  1  0  0  0  0
 19 23  1  0  0  0  0
 19 20  1  0  0  0  0
 19 41  1  0  0  0  0
 20 21  1  0  0  0  0
 20 42  1  0  0  0  0
 20 43  1  0  0  0  0
 21 22  1  0  0  0  0
 21 44  1  0  0  0  0
 21 45  1  0  0  0  0
 22 23  1  0  0  0  0
 22 46  1  0  0  0  0
 22 47  1  0  0  0  0
M  END
> <s_m_source_file>
AV-unprocessed.smi

> <i_m_source_file_index>
1745

> <i_lp_mmshare_version>
43012

> <i_f3d_flags>
0

> <s_epik_input>
TzFbQ0gyXVtDSDJdW0NIMl1bQ0BIXTFbQ0BIXShbQ0gzXSlbTkhdQyg9TylbTkhdYzJbY0hdW2NIXWMobltjSF0yKU4zW0NIMl1bQ0gyXU9bQ0gyXVtDSDJdMw==

> <s_epik_cmdline>
J2VwaWtfcHl0aG9uJywgJy1waCcsICc3LjAnLCAnLXRuJywgJzgnLCAnLW1hJywgJzIwMCcsICctbWV0YWxfYmluZGluZycsICctaW1hZScsICc8aW5maWxlLm1hZT4nLCAnLW9tYWUnLCAnPG91dGZpbGUubWFlPic=

> <r_lp_tautomer_probability>
1

> <r_epik_Ionization_Penalty>
0.00206005

> <r_epik_Ionization_Penalty_Charging>
0

> <r_epik_Ionization_Penalty_Neutral>
0.00206005

> <r_epik_State_Penalty>
0.00138459

> <r_epik_Charging_Adjusted_Penalty>
0.00138459

> <i_epik_Tot_Q>
0

> <i_epik_Tot_abs_Q>
0

> <r_epik_Metal_State_Penalty>
-0

> <b_epik_Metal_Only>
0

> <s_lp_Force_Field>
OPLS_2005

> <r_lp_Energy>
36.7414

> <b_lp_Chiralities_Consistent>
1

> <s_lp_Variant>
AV-unprocessed.smi:1745-4

> <Gold.Version>
5.8.1

> <Gold.Id.Protein>
6NUR|6NUR_protein|mol2

> <Gold.PLP.Fitness>
41.2191

> <Gold.PLP.PLP>
-35.9969

> <Gold.PLP.part.hbond>
-2.5768

> <Gold.PLP.part.metal>
0.0000

> <Gold.PLP.part.buried>
-2.3443

> <Gold.PLP.part.nonpolar>
-32.9542

> <Gold.PLP.part.repulsive>
0.5885

> <Gold.PLP.ligand.clash>
0.0000

> <Gold.PLP.ligand.torsion>
0.2098

> <Gold.PLP.Chemscore.Hbond>
1.8390

> <Gold.PLP.Chemscore.CHOScore>
0.0000

> <Gold.PLP.Chemscore.Metal>
0.0000

> <Gold.Chemscore.Hbonds>
donor molecule, donor type, donor heavy atom, donor atom, acceptor molecule, acceptor atom, score
      L1  H     3    28       P1  7948  1.00
      L1  H     6    29       P1  7948  0.75

> <Gold.PLP.Chemscore.Internal.Correction>
0.1248

> <Gold.Rescore>
     Score         DG    S(hbond)    S(metal)    S(lipo)     H(rot)  DE(clash)    DE(int)     intcor
     16.22     -18.99       1.83        0.00      93.84       1.40       0.06       2.72       ----

> <Gold.Chemscore.Fitness>
16.2163

> <Gold.Chemscore.DG>
-18.9928

> <Gold.Chemscore.ZeroCoef>
-5.4800

> <Gold.Chemscore.Hbond>
1.8278

> <Gold.Chemscore.Metal>
0.0000

> <Gold.Chemscore.Lipo>
93.8376

> <Gold.Chemscore.Internal_Hbond>
0.0000

> <Gold.Chemscore.DEClash>
0.0601

> <Gold.Chemscore.DEInternal>
2.7163

> <Gold.Chemscore.Rot>
1.3950

> <Gold.Chemscore.Internal.Correction>
   9.000000E+99

> <Gold.Chemscore.Hbonds>
donor molecule, donor type, donor heavy atom, donor atom, acceptor molecule, acceptor atom, score
      L1  H     3    28       P1  7948  1.00
      L1  H     6    29       P1  7948  0.72

> <Gold.Chemscore.Hbond.Weighted>
-6.1050

> <Gold.Chemscore.Metal.Weighted>
-0.0000

> <Gold.Chemscore.Lipo.Weighted>
-10.9790

> <Gold.Chemscore.Internal_Hbond.Weighted>
0.0000

> <Gold.Chemscore.DEClash.Weighted>
0.0601

> <Gold.Chemscore.DEInternal.Weighted>
2.7163

> <Gold.Chemscore.Rot.Weighted>
3.5712

> <Gold.Chemscore.Internal.Correction.Weighted>
   9.000000E+99

> <Gold.Protein.RotatedTorsions>
[ 6907 6896 6895 6894 ] final -170.79 input  -60.11 | X-H torsion
[ 7974 7965 7964 7962 ] final    2.02 input  175.53 | X-H torsion
[ 8008 7997 7996 7995 ] final   39.42 input   59.86 | X-H torsion
[ 10167 10162 10161 10158 ] final -123.60 input  -65.29 | X-H torsion
[ 10718 10713 10712 10709 ] final  -81.67 input   66.30 | X-H torsion
[ 10763 10752 10751 10750 ] final   98.71 input  -60.55 | X-H torsion
[ 11005 11000 10999 10996 ] final  153.88 input  -57.11 | X-H torsion

> <Gold.Protein.ActiveResidues>
 VAL166  LYS551  ARG553  GLY616  TRP617  ASP618  TYR619  PRO620  LYS621  CYS622 
 ASP623  PHE694  ASN695  SER759  ASP760  ASP761  ALA762  ILE779  LEU786  VAL792 
 PHE793  MET794  SER795  GLU796  ALA797  LYS798  CYS799  TRP800  GLU811  SER814 

> <Gold.Protein.RotatedAtoms>
  151.5133  133.3480  159.2888 H   0  0  0  0  0  0  0  0  0  0  0  0  # atno 6907 bound_to 6896
  150.8698  134.8072  159.7157 H   0  0  0  0  0  0  0  0  0  0  0  0  # atno 6908 bound_to 6896
  152.4690  134.5015  159.9778 H   0  0  0  0  0  0  0  0  0  0  0  0  # atno 6909 bound_to 6896
  146.2442  140.0900  142.8352 H   0  0  0  0  0  0  0  0  0  0  0  0  # atno 7974 bound_to 7965
  155.2364  140.3342  155.4297 H   0  0  0  0  0  0  0  0  0  0  0  0  # atno 8008 bound_to 7997
  156.2274  140.1835  156.7374 H   0  0  0  0  0  0  0  0  0  0  0  0  # atno 8009 bound_to 7997
  154.5921  140.0636  156.9238 H   0  0  0  0  0  0  0  0  0  0  0  0  # atno 8010 bound_to 7997
  140.0017  143.5533  152.2300 H   0  0  0  0  0  0  0  0  0  0  0  0  # atno 10167 bound_to 10162
  156.0046  130.4611  150.3988 H   0  0  0  0  0  0  0  0  0  0  0  0  # atno 10718 bound_to 10713
  153.2924  135.4139  155.1179 H   0  0  0  0  0  0  0  0  0  0  0  0  # atno 10763 bound_to 10752
  154.8524  135.3521  154.5963 H   0  0  0  0  0  0  0  0  0  0  0  0  # atno 10764 bound_to 10752
  153.6386  135.7058  153.5308 H   0  0  0  0  0  0  0  0  0  0  0  0  # atno 10765 bound_to 10752
  140.1438  134.8721  157.2365 H   0  0  0  0  0  0  0  0  0  0  0  0  # atno 11005 bound_to 11000
  145.0659  140.9121  143.4911 LP  0  0  0  0  0  0  0  0  0  0  0  0  # atno 17320 bound_to 7965
  145.1024  139.2813  143.5679 LP  0  0  0  0  0  0  0  0  0  0  0  0  # atno 17321 bound_to 7965
  139.6267  144.7638  151.2624 LP  0  0  0  0  0  0  0  0  0  0  0  0  # atno 17342 bound_to 10162
  140.7416  143.6552  150.8213 LP  0  0  0  0  0  0  0  0  0  0  0  0  # atno 17343 bound_to 10162
  157.2059  131.0449  151.2626 LP  0  0  0  0  0  0  0  0  0  0  0  0  # atno 17370 bound_to 10713
  157.3933  130.7294  149.6713 LP  0  0  0  0  0  0  0  0  0  0  0  0  # atno 17371 bound_to 10713
  140.2689  134.3483  155.7380 LP  0  0  0  0  0  0  0  0  0  0  0  0  # atno 17394 bound_to 11000
  141.2190  133.7412  156.9193 LP  0  0  0  0  0  0  0  0  0  0  0  0  # atno 17395 bound_to 11000

$$$$
