AV-unprocessed.smi:999|AV-procd|sdf|4354|dock10
  -GOLD-   22720 2253D 1   1.00000     0.00000
 Structure written by MMmdl.
 37 38  0  0  0  0  0  0  0  0  2 V2000
  152.5015  144.5524  158.3587 C   0  0  0  0  0  0  0  0  0  0  0  0
  151.7072  143.4806  159.1335 C   0  0  1  0  0  0  0  0  0  0  0  0
  151.5976  142.1512  158.3697 C   0  0  0  0  0  0  0  0  0  0  0  0
  152.5457  141.3657  158.3319 O   0  0  0  0  0  0  0  0  0  0  0  0
  150.4255  141.9174  157.7585 N   0  0  0  0  0  0  0  0  0  0  0  0
  150.0963  140.7287  156.9792 C   0  0  2  0  0  0  0  0  0  0  0  0
  150.5920  139.4575  157.6995 C   0  0  0  0  0  0  0  0  0  0  0  0
  150.3537  138.1967  156.8474 C   0  0  0  0  0  0  0  0  0  0  0  0
  150.9957  138.3035  155.4422 C   0  0  2  0  0  0  0  0  0  0  0  0
  152.5403  138.2261  155.4818 C   0  0  0  0  0  0  0  0  0  0  0  0
  153.1844  139.1290  154.9028 O   0  0  0  0  0  0  0  0  0  0  0  0
  153.0631  137.2493  156.0630 O   0  5  0  0  0  0  0  0  0  0  0  0
  150.4814  139.5819  154.7362 C   0  0  0  0  0  0  0  0  0  0  0  0
  150.7185  140.8519  155.5751 C   0  0  0  0  0  0  0  0  0  0  0  0
  152.2406  143.2525  160.4719 N   0  0  0  0  0  0  0  0  0  0  0  0
  153.2615  142.4004  160.8427 C   0  0  0  0  0  0  0  0  0  0  0  0
  153.4500  142.5446  162.1872 C   0  0  0  0  0  0  0  0  0  0  0  0
  152.4962  143.5324  162.5577 C   0  0  0  0  0  0  0  0  0  0  0  0
  151.7816  143.9606  161.5304 N   0  0  0  0  0  0  0  0  0  0  0  0
  152.0429  144.7556  157.3903 H   0  0  0  0  0  0  0  0  0  0  0  0
  153.5335  144.2493  158.1774 H   0  0  0  0  0  0  0  0  0  0  0  0
  152.5259  145.4922  158.9113 H   0  0  0  0  0  0  0  0  0  0  0  0
  150.6931  143.8646  159.2569 H   0  0  0  0  0  0  0  0  0  0  0  0
  149.7035  142.6187  157.8369 H   0  0  0  0  0  0  0  0  0  0  0  0
  149.0126  140.6657  156.8620 H   0  0  0  0  0  0  0  0  0  0  0  0
  151.6540  139.5524  157.9295 H   0  0  0  0  0  0  0  0  0  0  0  0
  150.0831  139.3473  158.6576 H   0  0  0  0  0  0  0  0  0  0  0  0
  150.7126  137.3141  157.3780 H   0  0  0  0  0  0  0  0  0  0  0  0
  149.2796  138.0470  156.7327 H   0  0  0  0  0  0  0  0  0  0  0  0
  150.6737  137.4411  154.8575 H   0  0  0  0  0  0  0  0  0  0  0  0
  150.9341  139.6967  153.7506 H   0  0  0  0  0  0  0  0  0  0  0  0
  149.4121  139.4754  154.5514 H   0  0  0  0  0  0  0  0  0  0  0  0
  150.2957  141.7134  155.0570 H   0  0  0  0  0  0  0  0  0  0  0  0
  151.7895  141.0425  155.6586 H   0  0  0  0  0  0  0  0  0  0  0  0
  153.7641  141.7684  160.1249 H   0  0  0  0  0  0  0  0  0  0  0  0
  154.1646  142.0280  162.8104 H   0  0  0  0  0  0  0  0  0  0  0  0
  152.3066  143.9518  163.5347 H   0  0  0  0  0  0  0  0  0  0  0  0
  1  2  1  0  0  0  0
  1 20  1  0  0  0  0
  1 21  1  0  0  0  0
  1 22  1  0  0  0  0
  2  3  1  0  0  0  0
  2 15  1  0  0  0  0
  2 23  1  0  0  0  0
  3  4  2  0  0  0  0
  3  5  1  0  0  0  0
  5  6  1  0  0  0  0
  5 24  1  0  0  0  0
  6 14  1  0  0  0  0
  6  7  1  0  0  0  0
  6 25  1  0  0  0  0
  7  8  1  0  0  0  0
  7 26  1  0  0  0  0
  7 27  1  0  0  0  0
  8  9  1  0  0  0  0
  8 28  1  0  0  0  0
  8 29  1  0  0  0  0
  9 10  1  0  0  0  0
  9 13  1  0  0  0  0
  9 30  1  0  0  0  0
 10 11  2  0  0  0  0
 10 12  1  0  0  0  0
 13 14  1  0  0  0  0
 13 31  1  0  0  0  0
 13 32  1  0  0  0  0
 14 33  1  0  0  0  0
 14 34  1  0  0  0  0
 15 19  1  0  0  0  0
 15 16  1  0  0  0  0
 16 17  2  0  0  0  0
 16 35  1  0  0  0  0
 17 18  1  0  0  0  0
 17 36  1  0  0  0  0
 18 19  2  0  0  0  0
 18 37  1  0  0  0  0
M  CHG  1  12  -1
M  END
> <s_m_source_file>
AV-unprocessed.smi

> <i_m_source_file_index>
999

> <i_lp_mmshare_version>
43012

> <i_f3d_flags>
0

> <s_epik_input>
bjFbY0hdW2NIXVtjSF1uMVtDQEhdKFtDSDNdKUMoPU8pW05IXVtDQEBIXTJbQ0gyXVtDSDJdW0NAQEhdKEMoPU8pW09IXSlbQ0gyXVtDSDJdMg==

> <s_epik_cmdline>
J2VwaWtfcHl0aG9uJywgJy1waCcsICc3LjAnLCAnLXRuJywgJzgnLCAnLW1hJywgJzIwMCcsICctbWV0YWxfYmluZGluZycsICctaW1hZScsICc8aW5maWxlLm1hZT4nLCAnLW9tYWUnLCAnPG91dGZpbGUubWFlPic=

> <r_lp_tautomer_probability>
1

> <r_epik_Ionization_Penalty>
0.00221712

> <r_epik_Ionization_Penalty_Charging>
0.00217268

> <r_epik_Ionization_Penalty_Neutral>
4.44343e-05

> <r_epik_State_Penalty>
0.0014925

> <r_epik_Charging_Adjusted_Penalty>
0.00366518

> <i_epik_Tot_Q>
-1

> <i_epik_Tot_abs_Q>
1

> <r_epik_Metal_State_Penalty>
-0

> <b_epik_Metal_Only>
0

> <s_lp_Force_Field>
OPLS_2005

> <r_lp_Energy>
8.81329

> <b_lp_Chiralities_Consistent>
1

> <s_lp_Variant>
AV-unprocessed.smi:999-4

> <Gold.Version>
5.8.1

> <Gold.Id.Protein>
6NUR|6NUR_protein|mol2

> <Gold.PLP.Fitness>
47.5857

> <Gold.PLP.PLP>
-39.9664

> <Gold.PLP.part.hbond>
-2.0000

> <Gold.PLP.part.metal>
0.0000

> <Gold.PLP.part.buried>
-2.4542

> <Gold.PLP.part.nonpolar>
-35.1055

> <Gold.PLP.part.repulsive>
0.2246

> <Gold.PLP.ligand.clash>
0.0000

> <Gold.PLP.ligand.torsion>
1.3258

> <Gold.PLP.Chemscore.Hbond>
3.3760

> <Gold.PLP.Chemscore.CHOScore>
0.0000

> <Gold.PLP.Chemscore.Metal>
0.0000

> <Gold.Chemscore.Hbonds>
donor molecule, donor type, donor heavy atom, donor atom, acceptor molecule, acceptor atom, score
      P1  H  7997  8009       L1    11  2.00
      P1  H 10752 10764       L1    12  1.12

> <Gold.PLP.Chemscore.Internal.Correction>
0.1429

> <Gold.Rescore>
     Score         DG    S(hbond)    S(metal)    S(lipo)     H(rot)  DE(clash)    DE(int)     intcor
     12.25     -16.43       1.55        0.00      92.50       1.98       0.71       3.47       ----

> <Gold.Chemscore.Fitness>
12.2509

> <Gold.Chemscore.DG>
-16.4303

> <Gold.Chemscore.ZeroCoef>
-5.4800

> <Gold.Chemscore.Hbond>
1.5540

> <Gold.Chemscore.Metal>
0.0000

> <Gold.Chemscore.Lipo>
92.4966

> <Gold.Chemscore.Internal_Hbond>
0.0000

> <Gold.Chemscore.DEClash>
0.7065

> <Gold.Chemscore.DEInternal>
3.4729

> <Gold.Chemscore.Rot>
1.9774

> <Gold.Chemscore.Internal.Correction>
   9.000000E+99

> <Gold.Chemscore.Hbonds>
donor molecule, donor type, donor heavy atom, donor atom, acceptor molecule, acceptor atom, score
      P1  H  7997  8009       L1    11  0.98
      P1  H 10752 10764       L1    12  0.53

> <Gold.Chemscore.Hbond.Weighted>
-5.1902

> <Gold.Chemscore.Metal.Weighted>
-0.0000

> <Gold.Chemscore.Lipo.Weighted>
-10.8221

> <Gold.Chemscore.Internal_Hbond.Weighted>
0.0000

> <Gold.Chemscore.DEClash.Weighted>
0.7065

> <Gold.Chemscore.DEInternal.Weighted>
3.4729

> <Gold.Chemscore.Rot.Weighted>
5.0620

> <Gold.Chemscore.Internal.Correction.Weighted>
   9.000000E+99

> <Gold.Protein.RotatedTorsions>
[ 6907 6896 6895 6894 ] final  167.15 input  -60.11 | X-H torsion
[ 7974 7965 7964 7962 ] final  100.32 input  175.53 | X-H torsion
[ 8008 7997 7996 7995 ] final -120.98 input   59.86 | X-H torsion
[ 10167 10162 10161 10158 ] final  -66.48 input  -65.29 | X-H torsion
[ 10718 10713 10712 10709 ] final   74.95 input   66.30 | X-H torsion
[ 10763 10752 10751 10750 ] final   -7.76 input  -60.55 | X-H torsion
[ 11005 11000 10999 10996 ] final -152.28 input  -57.11 | X-H torsion

> <Gold.Protein.ActiveResidues>
 VAL166  LYS551  ARG553  GLY616  TRP617  ASP618  TYR619  PRO620  LYS621  CYS622 
 ASP623  PHE694  ASN695  SER759  ASP760  ASP761  ALA762  ILE779  LEU786  VAL792 
 PHE793  MET794  SER795  GLU796  ALA797  LYS798  CYS799  TRP800  GLU811  SER814 

> <Gold.Protein.RotatedAtoms>
  151.8678  133.3469  159.3724 H   0  0  0  0  0  0  0  0  0  0  0  0  # atno 6907 bound_to 6896
  150.7161  134.5143  159.5632 H   0  0  0  0  0  0  0  0  0  0  0  0  # atno 6908 bound_to 6896
  152.2669  134.7975  160.0472 H   0  0  0  0  0  0  0  0  0  0  0  0  # atno 6909 bound_to 6896
  145.3871  139.2369  143.3372 H   0  0  0  0  0  0  0  0  0  0  0  0  # atno 7974 bound_to 7965
  155.1406  140.0402  157.2797 H   0  0  0  0  0  0  0  0  0  0  0  0  # atno 8008 bound_to 7997
  154.6475  140.2561  155.7224 H   0  0  0  0  0  0  0  0  0  0  0  0  # atno 8009 bound_to 7997
  156.2562  140.2843  156.0895 H   0  0  0  0  0  0  0  0  0  0  0  0  # atno 8010 bound_to 7997
  140.5654  143.2314  151.6645 H   0  0  0  0  0  0  0  0  0  0  0  0  # atno 10167 bound_to 10162
  157.6614  130.9703  150.1284 H   0  0  0  0  0  0  0  0  0  0  0  0  # atno 10718 bound_to 10713
  153.4309  135.7012  153.6232 H   0  0  0  0  0  0  0  0  0  0  0  0  # atno 10763 bound_to 10752
  153.4647  135.3728  155.2358 H   0  0  0  0  0  0  0  0  0  0  0  0  # atno 10764 bound_to 10752
  154.8725  135.4028  154.3692 H   0  0  0  0  0  0  0  0  0  0  0  0  # atno 10765 bound_to 10752
  140.7206  134.3732  157.5184 H   0  0  0  0  0  0  0  0  0  0  0  0  # atno 11005 bound_to 11000
  146.2815  140.4548  142.8774 LP  0  0  0  0  0  0  0  0  0  0  0  0  # atno 17320 bound_to 7965
  144.8466  140.6939  143.6195 LP  0  0  0  0  0  0  0  0  0  0  0  0  # atno 17321 bound_to 7965
  139.5090  144.3591  152.0579 LP  0  0  0  0  0  0  0  0  0  0  0  0  # atno 17342 bound_to 10162
  140.2722  144.3952  150.6147 LP  0  0  0  0  0  0  0  0  0  0  0  0  # atno 17343 bound_to 10162
  156.2137  130.3668  149.8639 LP  0  0  0  0  0  0  0  0  0  0  0  0  # atno 17370 bound_to 10713
  156.6510  130.8743  151.3531 LP  0  0  0  0  0  0  0  0  0  0  0  0  # atno 17371 bound_to 10713
  139.8849  134.8952  156.2674 LP  0  0  0  0  0  0  0  0  0  0  0  0  # atno 17394 bound_to 11000
  141.0007  133.7153  156.0956 LP  0  0  0  0  0  0  0  0  0  0  0  0  # atno 17395 bound_to 11000

$$$$
