AV-unprocessed.smi:702|AV-procd|sdf|3425|dock6
  -GOLD-   22720 0413D 1   1.00000     0.00000
 Structure written by MMmdl.
 50 52  0  0  0  0  0  0  0  0  4 V2000
  149.6669  139.7010  154.3123 C   0  0  0  0  0  0  0  0  0  0  0  0
  148.7027  140.4046  155.2899 C   0  0  1  0  0  0  0  0  0  0  0  0
  149.4151  141.5469  155.8748 N   0  5  0  0  0  0  0  0  0  0  0  0
  150.5627  141.4677  156.6015 C   0  0  0  0  0  0  0  0  0  0  0  0
  151.5392  140.7406  156.3902 O   0  0  0  0  0  0  0  0  0  0  0  0
  150.5612  142.3192  157.6424 N   0  0  0  0  0  0  0  0  0  0  0  0
  151.5398  142.4955  158.6577 C   0  0  0  0  0  0  0  0  0  0  0  0
  151.5825  143.7437  159.3171 C   0  0  0  0  0  0  0  0  0  0  0  0
  152.5222  143.9540  160.3466 C   0  0  0  0  0  0  0  0  0  0  0  0
  153.3638  142.9596  160.7021 N   0  3  0  0  0  0  0  0  0  0  0  0
  153.3484  141.7444  160.1136 C   0  0  0  0  0  0  0  0  0  0  0  0
  152.4303  141.4753  159.0783 C   0  0  0  0  0  0  0  0  0  0  0  0
  147.3054  140.8706  154.6872 C   0  0  0  0  0  0  0  0  0  0  0  0
  146.6895  139.8735  153.7095 N   0  3  0  0  0  0  0  0  0  0  0  0
  147.3601  139.6795  152.3865 C   0  0  0  0  0  0  0  0  0  0  0  0
  146.4135  138.9674  151.4096 C   0  0  0  0  0  0  0  0  0  0  0  0
  146.0263  137.7144  151.9567 O   0  0  0  0  0  0  0  0  0  0  0  0
  145.3186  137.8685  153.1794 C   0  0  0  0  0  0  0  0  0  0  0  0
  146.2117  138.5558  154.2256 C   0  0  0  0  0  0  0  0  0  0  0  0
  146.2786  141.2940  155.7807 C   0  0  0  0  0  0  0  0  0  0  0  0
  145.2118  142.1260  155.0587 C   0  0  0  0  0  0  0  0  0  0  0  0
  145.9376  142.7553  153.8642 C   0  0  0  0  0  0  0  0  0  0  0  0
  147.3808  142.2347  153.9405 C   0  0  0  0  0  0  0  0  0  0  0  0
  149.2428  138.7865  153.9013 H   0  0  0  0  0  0  0  0  0  0  0  0
  150.5830  139.4060  154.8257 H   0  0  0  0  0  0  0  0  0  0  0  0
  149.9626  140.3427  153.4831 H   0  0  0  0  0  0  0  0  0  0  0  0
  148.4701  139.6551  156.0473 H   0  0  0  0  0  0  0  0  0  0  0  0
  149.7791  142.9565  157.6756 H   0  0  0  0  0  0  0  0  0  0  0  0
  150.9060  144.5370  159.0336 H   0  0  0  0  0  0  0  0  0  0  0  0
  152.6229  144.8798  160.8936 H   0  0  0  0  0  0  0  0  0  0  0  0
  154.0614  141.0256  160.4899 H   0  0  0  0  0  0  0  0  0  0  0  0
  152.4161  140.4913  158.6350 H   0  0  0  0  0  0  0  0  0  0  0  0
  147.6712  140.6258  151.9484 H   0  0  0  0  0  0  0  0  0  0  0  0
  148.2608  139.0752  152.5025 H   0  0  0  0  0  0  0  0  0  0  0  0
  145.5344  139.5791  151.2003 H   0  0  0  0  0  0  0  0  0  0  0  0
  146.9165  138.7949  150.4580 H   0  0  0  0  0  0  0  0  0  0  0  0
  144.4042  138.4406  153.0140 H   0  0  0  0  0  0  0  0  0  0  0  0
  145.0158  136.8834  153.5357 H   0  0  0  0  0  0  0  0  0  0  0  0
  147.0517  137.9038  154.4595 H   0  0  0  0  0  0  0  0  0  0  0  0
  145.6196  138.6548  155.1312 H   0  0  0  0  0  0  0  0  0  0  0  0
  145.8611  140.4802  156.3718 H   0  0  0  0  0  0  0  0  0  0  0  0
  146.7338  141.9624  156.5132 H   0  0  0  0  0  0  0  0  0  0  0  0
  144.4015  141.4855  154.7085 H   0  0  0  0  0  0  0  0  0  0  0  0
  144.7753  142.8775  155.7174 H   0  0  0  0  0  0  0  0  0  0  0  0
  145.4664  142.4388  152.9329 H   0  0  0  0  0  0  0  0  0  0  0  0
  145.9054  143.8450  153.8936 H   0  0  0  0  0  0  0  0  0  0  0  0
  147.9401  142.9817  154.5050 H   0  0  0  0  0  0  0  0  0  0  0  0
  147.8490  142.1956  152.9581 H   0  0  0  0  0  0  0  0  0  0  0  0
  145.8267  140.3389  153.4690 H   0  0  0  0  0  0  0  0  0  0  0  0
  154.0356  143.1315  161.4504 H   0  0  0  0  0  0  0  0  0  0  0  0
  1  2  1  0  0  0  0
  1 24  1  0  0  0  0
  1 25  1  0  0  0  0
  1 26  1  0  0  0  0
  2  3  1  0  0  0  0
  2 13  1  0  0  0  0
  2 27  1  0  0  0  0
  3  4  1  0  0  0  0
  4  5  2  0  0  0  0
  4  6  1  0  0  0  0
  6  7  1  0  0  0  0
  6 28  1  0  0  0  0
  7 12  1  0  0  0  0
  7  8  2  0  0  0  0
  8  9  1  0  0  0  0
  8 29  1  0  0  0  0
  9 10  2  0  0  0  0
  9 30  1  0  0  0  0
 10 11  1  0  0  0  0
 10 50  1  0  0  0  0
 11 12  2  0  0  0  0
 11 31  1  0  0  0  0
 12 32  1  0  0  0  0
 13 23  1  0  0  0  0
 13 14  1  0  0  0  0
 13 20  1  0  0  0  0
 14 19  1  0  0  0  0
 14 15  1  0  0  0  0
 14 49  1  0  0  0  0
 15 16  1  0  0  0  0
 15 33  1  0  0  0  0
 15 34  1  0  0  0  0
 16 17  1  0  0  0  0
 16 35  1  0  0  0  0
 16 36  1  0  0  0  0
 17 18  1  0  0  0  0
 18 19  1  0  0  0  0
 18 37  1  0  0  0  0
 18 38  1  0  0  0  0
 19 39  1  0  0  0  0
 19 40  1  0  0  0  0
 20 21  1  0  0  0  0
 20 41  1  0  0  0  0
 20 42  1  0  0  0  0
 21 22  1  0  0  0  0
 21 43  1  0  0  0  0
 21 44  1  0  0  0  0
 22 23  1  0  0  0  0
 22 45  1  0  0  0  0
 22 46  1  0  0  0  0
 23 47  1  0  0  0  0
 23 48  1  0  0  0  0
M  CHG  1   3  -1
M  CHG  1  10   1
M  CHG  1  14   1
M  END
> <s_m_source_file>
AV-unprocessed.smi

> <i_m_source_file_index>
702

> <i_lp_mmshare_version>
43012

> <i_f3d_flags>
0

> <s_epik_input>
W0NIMl0xW0NIMl1PW0NIMl1bQ0gyXU4xQzIoW0NIMl1bQ0gyXVtDSDJdW0NIMl0yKVtDQEhdKFtDSDNdKVtOSF1DKD1PKVtOSF1jM1tjSF1bY0hdbltjSF1bY0hdMw==

> <s_epik_cmdline>
J2VwaWtfcHl0aG9uJywgJy1waCcsICc3LjAnLCAnLXRuJywgJzgnLCAnLW1hJywgJzIwMCcsICctbWV0YWxfYmluZGluZycsICctaW1hZScsICc8aW5maWxlLm1hZT4nLCAnLW9tYWUnLCAnPG91dGZpbGUubWFlPic=

> <r_epik_Ionization_Penalty>
8.33674

> <r_epik_Ionization_Penalty_Charging>
8.33674

> <r_epik_Ionization_Penalty_Neutral>
3.60854e-06

> <r_epik_State_Penalty>
8.24268

> <r_epik_Charging_Adjusted_Penalty>
16.5794

> <i_epik_Tot_Q>
1

> <i_epik_Tot_abs_Q>
3

> <r_epik_Metal_State_Penalty>
4.24853

> <b_epik_Metal_Only>
1

> <s_lp_Force_Field>
OPLS_2005

> <r_lp_Energy>
61.2868

> <b_lp_Chiralities_Consistent>
1

> <s_lp_Variant>
AV-unprocessed.smi:702-10

> <Gold.Version>
5.8.1

> <Gold.Id.Protein>
6NUR|6NUR_protein|mol2

> <Gold.PLP.Fitness>
36.0616

> <Gold.PLP.PLP>
-36.2629

> <Gold.PLP.part.hbond>
-0.1910

> <Gold.PLP.part.metal>
0.0000

> <Gold.PLP.part.buried>
-0.1876

> <Gold.PLP.part.nonpolar>
-37.1912

> <Gold.PLP.part.repulsive>
0.4955

> <Gold.PLP.ligand.clash>
0.0000

> <Gold.PLP.ligand.torsion>
1.0609

> <Gold.PLP.Chemscore.Hbond>
0.4875

> <Gold.PLP.Chemscore.CHOScore>
0.0000

> <Gold.PLP.Chemscore.Metal>
0.0000

> <Gold.Chemscore.Hbonds>
donor molecule, donor type, donor heavy atom, donor atom, acceptor molecule, acceptor atom, score
      L1  H    14    49       P1 10175  0.33

> <Gold.PLP.Chemscore.Internal.Correction>
0.4580

> <Gold.Rescore>
     Score         DG    S(hbond)    S(metal)    S(lipo)     H(rot)  DE(clash)    DE(int)     intcor
     10.51     -16.38       0.26        0.00     117.43       1.45       2.22       3.65       ----

> <Gold.Chemscore.Fitness>
10.5091

> <Gold.Chemscore.DG>
-16.3834

> <Gold.Chemscore.ZeroCoef>
-5.4800

> <Gold.Chemscore.Hbond>
0.2627

> <Gold.Chemscore.Metal>
0.0000

> <Gold.Chemscore.Lipo>
117.4268

> <Gold.Chemscore.Internal_Hbond>
0.0000

> <Gold.Chemscore.DEClash>
2.2231

> <Gold.Chemscore.DEInternal>
3.6511

> <Gold.Chemscore.Rot>
1.4504

> <Gold.Chemscore.Internal.Correction>
   9.000000E+99

> <Gold.Chemscore.Hbonds>
donor molecule, donor type, donor heavy atom, donor atom, acceptor molecule, acceptor atom, score
      L1  H    14    49       P1 10175  0.17

> <Gold.Chemscore.Hbond.Weighted>
-0.8773

> <Gold.Chemscore.Metal.Weighted>
-0.0000

> <Gold.Chemscore.Lipo.Weighted>
-13.7389

> <Gold.Chemscore.Internal_Hbond.Weighted>
0.0000

> <Gold.Chemscore.DEClash.Weighted>
2.2231

> <Gold.Chemscore.DEInternal.Weighted>
3.6511

> <Gold.Chemscore.Rot.Weighted>
3.7129

> <Gold.Chemscore.Internal.Correction.Weighted>
   9.000000E+99

> <Gold.Protein.RotatedTorsions>
[ 6907 6896 6895 6894 ] final  -37.10 input  -60.11 | X-H torsion
[ 7974 7965 7964 7962 ] final  109.08 input  175.53 | X-H torsion
[ 8008 7997 7996 7995 ] final  -34.47 input   59.86 | X-H torsion
[ 10167 10162 10161 10158 ] final  105.49 input  -65.29 | X-H torsion
[ 10718 10713 10712 10709 ] final  117.32 input   66.30 | X-H torsion
[ 10763 10752 10751 10750 ] final    1.44 input  -60.55 | X-H torsion
[ 11005 11000 10999 10996 ] final   49.25 input  -57.11 | X-H torsion

> <Gold.Protein.ActiveResidues>
 VAL166  LYS551  ARG553  GLY616  TRP617  ASP618  TYR619  PRO620  LYS621  CYS622 
 ASP623  PHE694  ASN695  SER759  ASP760  ASP761  ALA762  ILE779  LEU786  VAL792 
 PHE793  MET794  SER795  GLU796  ALA797  LYS798  CYS799  TRP800  GLU811  SER814 

> <Gold.Protein.RotatedAtoms>
  151.0189  134.9454  159.8048 H   0  0  0  0  0  0  0  0  0  0  0  0  # atno 6907 bound_to 6896
  152.5320  134.2930  159.9060 H   0  0  0  0  0  0  0  0  0  0  0  0  # atno 6908 bound_to 6896
  151.2937  133.4112  159.2669 H   0  0  0  0  0  0  0  0  0  0  0  0  # atno 6909 bound_to 6896
  145.2723  139.2662  143.3959 H   0  0  0  0  0  0  0  0  0  0  0  0  # atno 7974 bound_to 7965
  154.4120  140.1683  156.2055 H   0  0  0  0  0  0  0  0  0  0  0  0  # atno 8008 bound_to 7997
  155.9488  140.3402  155.6366 H   0  0  0  0  0  0  0  0  0  0  0  0  # atno 8009 bound_to 7997
  155.6896  140.0732  157.2444 H   0  0  0  0  0  0  0  0  0  0  0  0  # atno 8010 bound_to 7997
  139.7088  144.7081  151.1062 H   0  0  0  0  0  0  0  0  0  0  0  0  # atno 10167 bound_to 10162
  157.6104  131.1036  150.7598 H   0  0  0  0  0  0  0  0  0  0  0  0  # atno 10718 bound_to 10713
  153.3080  135.6960  153.7142 H   0  0  0  0  0  0  0  0  0  0  0  0  # atno 10763 bound_to 10752
  153.6030  135.3458  155.2953 H   0  0  0  0  0  0  0  0  0  0  0  0  # atno 10764 bound_to 10752
  154.8568  135.4345  154.2210 H   0  0  0  0  0  0  0  0  0  0  0  0  # atno 10765 bound_to 10752
  140.1120  134.4943  155.8670 H   0  0  0  0  0  0  0  0  0  0  0  0  # atno 11005 bound_to 11000
  146.3242  140.3169  142.8630 LP  0  0  0  0  0  0  0  0  0  0  0  0  # atno 17320 bound_to 7965
  144.9324  140.7989  143.5681 LP  0  0  0  0  0  0  0  0  0  0  0  0  # atno 17321 bound_to 7965
  140.7728  143.5322  150.9410 LP  0  0  0  0  0  0  0  0  0  0  0  0  # atno 17342 bound_to 10162
  139.9006  143.6841  152.3132 LP  0  0  0  0  0  0  0  0  0  0  0  0  # atno 17343 bound_to 10162
  156.7977  130.4911  149.5374 LP  0  0  0  0  0  0  0  0  0  0  0  0  # atno 17370 bound_to 10713
  156.1205  130.6106  151.0185 LP  0  0  0  0  0  0  0  0  0  0  0  0  # atno 17371 bound_to 10713
  141.2132  133.6730  156.6722 LP  0  0  0  0  0  0  0  0  0  0  0  0  # atno 17394 bound_to 11000
  140.3079  134.8110  157.4152 LP  0  0  0  0  0  0  0  0  0  0  0  0  # atno 17395 bound_to 11000

$$$$
